13
gdb 28653	5.98027	1.04478	0.88984	8.4438	78.57	-0.2463	-0.0577	0.1886	1199.6626	0.091699	-411.850386	-411.843076	-411.842132	-411.882145	27.414	
N	-0.0161671298	 1.3995541756	 0.1427954719	-0.592665
C	 0.001935113	 0.0285862392	 0.0535608231	 0.290807
C	-1.1737298507	-0.7414215322	 0.0385426949	-0.054621
N	-1.162384502	-2.0655143741	 0.0043883106	-0.261997
C	 0.0379725517	-2.6538297584	-0.0164219392	 0.231586
N	 1.2220618632	-2.0331100132	-0.0098037307	-0.261997
C	 1.197827665	-0.709192068	 0.024427277	-0.054622
C	 0.0573402638	-4.0952383024	-0.0535446671	 0.269699
N	 0.072869088	-5.2510184325	-0.0835422542	-0.333371
H	 0.8200355166	 1.892611336	-0.1290360595	 0.265985
H	-0.8686204438	 1.8696665343	-0.1190255273	 0.265986
H	-2.1491691321	-0.2574391951	 0.0553344969	 0.117605
H	 2.1598861626	-0.1988797191	 0.0296871736	 0.117605
