17
gdb 128464	3.82796	0.9899	0.94517	4.8595	71.61	-0.2723	-0.0385	0.2338	1299.0191	0.13402	-455.110779	-455.101756	-455.100812	-455.145685	31.46	
C	-0.0056304645	 1.3970552381	-0.0338567631	-0.235599
O	-0.1559338462	 0.0008681663	-0.1789208627	-0.245945
C	 0.693463078	-0.5824093471	-1.1550315365	 0.005216
C	 2.1315883014	-0.7630731372	-0.6514598366	-0.410236
C	 0.0735787756	-1.894202513	-1.5302790852	 0.457726
C	-0.467712977	-2.3657915954	-2.6853059023	-0.227315
N	-0.8638463712	-3.6597370146	-2.4451019927	-0.109918
N	-0.6065825502	-3.9900236508	-1.2612705709	-0.007537
O	 0.0140901747	-2.8633192321	-0.6194300391	-0.218439
H	 0.9797692494	 1.6783610774	 0.3630657557	 0.113388
H	-0.1586344685	 1.9215974712	-0.9898261849	 0.108428
H	-0.7707703696	 1.7235685908	 0.6736716136	 0.13915
H	 0.6973802956	 0.0412788458	-2.0633408511	 0.085726
H	 2.7482207518	-1.2416446752	-1.4180090765	 0.129797
H	 2.5806071189	 0.2040239738	-0.4125262779	 0.124517
H	 2.1362956364	-1.3882032468	 0.2443279232	 0.150247
H	-0.6029701047	-1.8915523412	-3.6419610929	 0.140794
