16
gdb 46621	3.1754	1.67909	1.12396	0.8573	73.04	-0.2293	0.0044	0.2336	1029.5516	0.127798	-434.101941	-434.094674	-434.09373	-434.13426	26.907	
N	-0.0865395167	 1.3181903241	-0.0050279893	-0.586518
C	-0.0486438388	 0.0578271549	 0.0354891668	 0.469179
O	 1.0765499186	-0.7375629942	-0.0253315921	-0.26868
C	 0.7195272554	-2.1348656961	-0.0180100984	-0.194894
C	-0.7832260276	-2.1100259687	 0.0017896429	 0.378636
N	-1.7147454153	-2.96248353	-0.1247013983	-0.3556
C	-2.9715019455	-2.1741227762	-0.0345760621	-0.179528
C	-2.570314989	-0.6519642704	-0.00495242	-0.196175
N	-1.1299280535	-0.7847077342	 0.1573917004	-0.119124
H	 0.851286473	 1.7015198979	-0.1009594732	 0.231259
H	 1.1199878153	-2.6210492545	-0.9119081172	 0.15352
H	 1.1440688051	-2.6143203548	 0.8698704405	 0.15057
H	-3.6190339574	-2.4106748521	-0.8831943421	 0.1243
H	-3.5109705977	-2.4603058612	 0.8748225482	 0.123705
H	-2.8072333192	-0.1254680861	-0.9354787485	 0.133468
H	-3.0181383667	-0.1023356384	 0.8256029125	 0.135882
