18
gdb 27149	2.89056	1.39555	0.99781	1.6553	78.77	-0.2176	0.0248	0.2424	1178.8743	0.149997	-398.144712	-398.136357	-398.135413	-398.178288	30.831	
C	 0.3581277199	 1.446982545	 0.014966336	-0.491728
C	 0.1510790888	-0.0330423267	-0.0372482201	 0.204717
C	-0.0185863831	-0.8499979731	-1.1348511431	 0.213843
N	-0.2065341075	-2.1194577611	-0.6044332429	-0.297208
C	-0.1301909436	-2.0124912435	 0.7479952061	 0.003893
N	 0.083977319	-0.7744982728	 1.1251981971	-0.306299
C	-0.0691213091	-0.6247779583	-2.5922795617	-0.139639
C	 0.902356502	 0.2740361048	-3.2658049262	-0.227836
N	 0.9969295515	-1.1787787178	-3.4726149712	-0.321986
H	 1.3444023965	 1.6963201737	 0.4228116623	 0.129809
H	 0.2705359367	 1.898887517	-0.9752777677	 0.120274
H	-0.3842587004	 1.9128930163	 0.6709881907	 0.135764
H	-0.3567233431	-2.9600414284	-1.1377152899	 0.268197
H	-0.2358317176	-2.865537723	 1.4021921199	 0.129034
H	-1.0527585148	-0.71880769	-3.0512420358	 0.103899
H	 0.5878632248	 0.8417500538	-4.1365288089	 0.122156
H	 1.6560017415	 0.7581805804	-2.6530726433	 0.122167
H	 1.7455441887	-1.5391038464	-2.8836633013	 0.230944
