23
gdb 101365	3.18083	1.01203	0.89126	1.5041	85.33	-0.2321	0.0772	0.3093	1432.6826	0.204728	-388.2551	-388.245497	-388.244553	-388.28973	36.386	
C	 0.0391178579	 1.5320353172	 0.1499136922	-0.393697
C	-0.1081028492	 0.0077059542	 0.1201521978	-0.170879
C	-1.5432332867	-0.4880581421	-0.1390432405	 0.016093
C	-2.0573599762	-0.1430761162	-1.5441426405	-0.403424
C	-1.6195591348	-1.9947986	 0.071370915	 0.138697
O	-1.2179417854	-2.4350400542	 1.4084422155	-0.310626
C	-2.4094647126	-3.2156422573	 1.520754018	 0.106585
C	-3.6229864113	-2.3445621887	 1.5286165394	-0.300217
C	-2.9651828605	-2.7139782048	 0.2109076635	-0.155198
H	 1.0660273732	 1.8191650237	 0.3968532642	 0.112488
H	-0.2047305792	 1.9896668292	-0.8141330092	 0.114327
H	-0.6189897297	 1.9773046893	 0.9047747097	 0.113354
H	 0.5587157419	-0.4118334301	-0.6462951093	 0.087241
H	 0.2240217	-0.4067152276	 1.0779623259	 0.119948
H	-2.2023201471	-0.0125432247	 0.5995852769	 0.070216
H	-3.0762039359	-0.5144543245	-1.6950819718	 0.117866
H	-2.073675912	 0.9370425715	-1.7111912325	 0.119052
H	-1.419101645	-0.5890367009	-2.3166979484	 0.112232
H	-0.9836541823	-2.5058003976	-0.6663622238	 0.075752
H	-2.329667057	-4.2051957001	 1.9551901245	 0.102127
H	-4.5643079807	-2.8550949707	 1.7085043825	 0.113225
H	-3.5606969309	-1.3395183626	 1.9348444086	 0.11737
H	-3.4850777662	-3.239516653	-0.5781337476	 0.097466
