16
gdb 34044	3.07734	1.41563	1.21124	4.098	69.59	-0.2549	0.009	0.2639	1040.1799	0.124786	-437.863284	-437.855623	-437.854678	-437.895759	28.934	
N	 0.0197992791	-1.0554538019	 0.1382042325	-0.3408
C	-0.0145954112	 0.0971060124	 0.053800092	 0.270987
C	-0.0181080229	 1.5357054733	-0.0736960342	 0.233015
C	 0.5664112987	 2.1318027452	-1.3476969541	-0.354901
C	 1.3302209684	 2.2449805196	-0.0548299402	 0.041684
O	 1.3870468218	 3.4885727847	 0.5690219543	-0.256978
C	 0.4603879418	 3.5992474814	 1.6468385747	-0.096229
C	-0.9498156091	 3.3965659657	 1.1263328359	-0.086272
O	-1.1282385751	 2.0944391438	 0.5633423469	-0.298831
H	 0.9202568849	 1.4503288626	-2.1120400119	 0.142433
H	 0.092846604	 3.038835327	-1.7058195996	 0.140473
H	 2.2220355704	 1.6383280629	 0.0854198334	 0.125014
H	 0.6910921814	 2.8685504749	 2.4353115602	 0.115905
H	 0.5778549581	 4.606964377	 2.0525098912	 0.125714
H	-1.6860477349	 3.4754452592	 1.9309428324	 0.12661
H	-1.1718762753	 4.1649810721	 0.3720513863	 0.112173
