20
gdb 120676	3.91883	0.83829	0.82843	2.1686	76.52	-0.247	0.0617	0.3086	1467.7603	0.170372	-440.218715	-440.209691	-440.208747	-440.253251	33.185	
O	 0.3491787733	 1.1933942885	-0.3859295094	-0.420933
C	 0.0747669479	-0.1318588685	 0.0138774681	-0.048536
C	-1.4209597954	-0.3392127298	 0.2466012489	-0.157332
N	-2.1299975343	 0.0076252586	-0.9855686486	-0.138034
C	-2.4911338934	-1.0869116095	-1.8956308434	-0.323215
C	-3.5197690796	-0.3590877012	-1.1184539145	 0.290043
C	-4.4897246351	-0.8831503692	-0.0567479533	-0.142773
O	-5.5188815344	 0.0011763493	-0.546332185	-0.274367
C	-4.6461287234	 0.5745504581	-1.5471341527	-0.137855
H	-0.3315449154	 1.408197641	-1.0374992777	 0.286699
H	 0.4293174977	-0.8619350122	-0.7340894781	 0.083967
H	 0.6268288981	-0.3172735529	 0.9414574682	 0.105941
H	-1.6199625918	-1.3719420295	 0.5792812979	 0.085931
H	-1.7585295848	 0.3440686901	 1.0341535913	 0.116685
H	-2.3534703656	-0.8914342028	-2.9559080976	 0.123121
H	-2.2573863427	-2.1046013986	-1.5833172328	 0.115213
H	-4.7785568256	-1.9383788848	-0.1383815383	 0.1087
H	-4.2170189463	-0.6646807191	 0.9843520371	 0.107878
H	-4.4501207945	 1.6397025275	-1.371445832	 0.11157
H	-5.0366209947	 0.434973335	-2.5626105679	 0.107297
