19
gdb 99851	2.12427	1.41744	1.05083	3.7791	71.82	-0.2487	0.0246	0.2733	1205.755	0.157724	-456.343005	-456.332738	-456.331794	-456.377675	37.962	
C	 0.1219470619	 1.5777111184	-0.0440431995	-0.417111
C	 0.0479613151	 0.0449550897	 0.0464247011	 0.016084
N	 0.6472830215	-0.5196603937	 1.2557639599	-0.509841
C	-1.4062909099	-0.4719966644	-0.0143186704	 0.211938
O	-2.0894717867	 0.0178425193	 1.1241195812	-0.459628
C	-2.1848852173	-0.0509094797	-1.2825046046	-0.122508
O	-3.5345193598	-0.4709591566	-1.174745874	-0.427995
C	-1.4155805238	-1.9625314094	 0.0006585399	 0.275233
N	-1.5408269318	-3.1094390928	-0.0753081328	-0.351984
H	 1.157653626	 1.8982822627	 0.104250884	 0.113139
H	-0.199414881	 1.9597120964	-1.0187267453	 0.116882
H	-0.4969630951	 2.037804133	 0.7308375394	 0.138002
H	 0.575246119	-0.3913436091	-0.8115222913	 0.096275
H	 1.6149384265	-0.2247142838	 1.3360727613	 0.229996
H	 0.155438787	-0.1644630953	 2.0707821938	 0.243601
H	-3.0325195658	-0.099519084	 0.93837349	 0.296722
H	-2.2122893319	 1.0391860218	-1.333092475	 0.129955
H	-1.6967405967	-0.4405803946	-2.1851099877	 0.11594
H	-3.5553548172	-1.4320085978	-1.2678786499	 0.305302
