16
gdb 34550	4.19762	1.2878	1.17621	4.9283	80.23	-0.2456	-0.0436	0.2021	1048.8893	0.127084	-363.603382	-363.596811	-363.595867	-363.634337	26.643	
N	 0.0609548607	-1.1071401655	 0.1483328767	-0.344601
C	-0.0104756839	 0.0469394067	 0.0696537313	 0.190206
C	-0.0585844323	 1.4597769767	-0.0403404702	 0.223706
C	-1.1624286047	 2.2285382253	-0.0875116034	-0.178349
C	-0.7493169885	 3.6748310379	-0.0283429253	-0.102212
C	-0.1644557737	 3.9164821929	 1.4267255022	-0.230603
C	 1.2104520342	 3.5486390158	 0.8891076598	-0.064533
C	 0.7319547853	 3.6980296167	-0.5383612374	-0.07145
C	 1.1572604994	 2.3357535712	-0.0696884434	-0.153199
H	-2.1830298576	 1.8768344106	-0.0087547885	 0.124967
H	-1.4662944288	 4.4060173967	-0.3946761435	 0.084362
H	-0.2019512197	 4.9804864469	 1.6710161515	 0.11565
H	-0.596184148	 3.331776626	 2.2451999303	 0.104672
H	 2.1603234606	 3.8302591783	 1.3262495412	 0.098598
H	 1.1425391898	 4.2370210179	-1.3827358636	 0.098007
H	 2.1167259872	 1.932221616	-0.3673512476	 0.104779
