15
gdb 42622	2.78343	1.90112	1.37076	5.2295	69.04	-0.2262	-0.077	0.1492	916.8038	0.114022	-420.62832	-420.621695	-420.62075	-420.65941	26.206	
O	-0.0144092195	 0.0037881737	-0.2803192274	-0.30122
C	-0.0422225303	 1.1839620762	-0.04950883	 0.316418
C	-1.221469469	 2.0768936869	 0.1078000896	-0.163726
C	-1.293958056	 3.0869601815	 1.2671280056	-0.059528
C	 0.0700783347	 3.3094602553	 1.9160283155	-0.254846
C	 0.6804261316	 3.4642455409	 0.4700906896	-0.16942
C	-0.7808666888	 3.5251971691	-0.0731366313	-0.097948
C	 1.2143682929	 2.1114603315	 0.0475502858	 0.329654
O	 2.3453876628	 1.7746109309	-0.1688238789	-0.29395
H	-2.1771158429	 1.747872978	-0.2798292702	 0.120533
H	-2.2614978742	 3.2672497547	 1.7193179973	 0.108228
H	 0.1081551224	 4.2650686744	 2.4429879434	 0.126634
H	 0.4800575905	 2.5261449709	 2.5612836823	 0.121167
H	 1.3602718344	 4.2954964399	 0.3041109149	 0.105466
H	-1.1849646287	 4.1930894263	-0.8210738163	 0.112541
