21
gdb 87203	4.15636	0.84821	0.79602	2.6978	79.39	-0.2538	0.0786	0.3324	1489.3232	0.180329	-424.185336	-424.17556	-424.174615	-424.220226	36.321	
C	-0.275067768	 1.5960592078	 0.2404123721	-0.450221
C	-0.1080709441	 0.0959443943	 0.0840323217	 0.329311
C	-1.3323302439	-0.6459442912	-0.4364894869	-0.30089
C	-1.6984335596	-0.2803338648	-1.8568494439	 0.108236
C	-3.0831416265	-0.3116700481	-2.3423743052	-0.185524
O	-2.4399874388	 0.9296517652	-2.0498511798	-0.231123
C	 1.2576911218	-0.4323824347	-0.3354181838	-0.367968
C	 0.7581313617	-0.6339254101	 1.0758199602	 0.057628
O	 1.3130512703	 0.1059741755	 2.1245180293	-0.42316
H	 0.6068420861	 2.0381681376	 0.7068164973	 0.122057
H	-0.4479724245	 2.0761444689	-0.7266819624	 0.131474
H	-1.1375583695	 1.8224276212	 0.8773162946	 0.115654
H	-1.1515269555	-1.7285291795	-0.3982192875	 0.094748
H	-2.1941618161	-0.4408814834	 0.2109888323	 0.104081
H	-0.9040562998	-0.4242590805	-2.5918682995	 0.090492
H	-3.2875771481	-0.4978535946	-3.3959439468	 0.111952
H	-3.8836011098	-0.5947433341	-1.6592864407	 0.111625
H	 1.3175108016	-1.2929521181	-0.994720062	 0.103438
H	 2.0467187218	 0.2997067709	-0.4738549543	 0.111793
H	 0.4451317614	-1.6411834248	 1.3551950478	 0.078866
H	 2.2159377495	-0.2001453877	 2.2576328275	 0.287532
