17
gdb 20164	3.3681	2.99123	2.07429	1.609	71.17	-0.2078	0.0124	0.2203	708.2074	0.146075	-326.693538	-326.68795	-326.687006	-326.722841	23.649	
C	-0.0568157591	 1.5664968329	 0.0008886149	-0.26162
C	 1.4891202397	 1.5233161638	 0.0178782076	 0.039972
C	 2.2109796761	 1.399880081	 1.380138201	-0.261619
C	 2.0220218512	-0.1524226678	 1.2407168742	-0.033349
C	 0.8831431438	-0.7382917965	 2.0259292816	-0.074177
C	-0.2532987485	-0.6548023458	 1.3347463769	-0.074177
C	-0.0135245329	-0.0028686324	 0.0027055276	-0.033349
N	 1.4878000182	 0.0184659709	-0.1617359627	-0.13173
H	-0.5499669583	 2.0345731251	 0.8560605907	 0.100825
H	-0.4635056311	 1.9927317583	-0.9195453615	 0.104715
H	 1.9974459435	 2.1176459584	-0.7461249385	 0.071733
H	 3.255334803	 1.7194987709	 1.3422093952	 0.104715
H	 1.7286456507	 1.8671695929	 2.2418842994	 0.100825
H	 2.9465053585	-0.7357310116	 1.2983603731	 0.075319
H	 0.9947298656	-1.1320391566	 3.0296203238	 0.098298
H	-1.2337747627	-0.9683158821	 1.6742477096	 0.098298
H	-0.5467571778	-0.4790735613	-0.8262293528	 0.075319
