15
gdb 14431	4.44389	2.20421	1.799	3.9003	66.31	-0.2144	-0.0514	0.163	751.6928	0.117404	-362.52919	-362.52259	-362.521646	-362.559429	26.026	
C	-0.0056900444	 1.4706872895	-0.132718622	-0.496153
C	-0.0809669422	-0.016196894	-0.0344040539	 0.433614
O	 0.6098720853	-0.7636559467	-1.1565152881	-0.298729
C	-0.0112089163	-1.8424189498	-0.5213457871	 0.266894
N	 0.6415744956	-2.7000373216	 0.1442203793	-0.233429
C	 0.2924906141	-2.278759439	 1.5492947178	-0.173564
C	-0.3111026394	-0.8641605876	 1.3428132556	-0.132718
C	-1.1542247369	-0.9921000898	 0.1179599669	-0.24386
H	 1.0260181091	 1.8170492507	-0.0240277152	 0.147534
H	-0.3845924734	 1.8057681433	-1.1029575546	 0.143564
H	-0.6078784336	 1.9270791965	 0.6577347026	 0.135322
H	-0.4095338252	-2.9372756767	 2.0833881587	 0.110578
H	 1.2433131904	-2.2794433591	 2.0905797613	 0.133092
H	-0.6230744613	-0.2593559956	 2.191920102	 0.093672
H	-2.2196762617	-0.98690379	-0.0716411231	 0.114181
