19
gdb 98201	3.18251	1.03252	0.94073	0.9055	68.37	-0.2576	0.0111	0.2687	1323.286	0.155475	-497.323547	-497.312735	-497.311791	-497.359813	37.918	
C	-0.1699530789	 1.3585005134	 0.0463517911	-0.240611
O	-0.1184065732	-0.0700585826	 0.1512553688	-0.227324
C	 0.7285059898	-0.5493126916	 1.0710399966	 0.467964
O	 1.3965769513	 0.1421307075	 1.8010771844	-0.382355
C	 0.7151589388	-2.0807554438	 1.0948058256	 0.24488
C	-0.6613127652	-2.5883900735	 1.5569311511	-0.43728
O	 0.9920561735	-2.5185636521	-0.2293055432	-0.476941
C	 1.8357194438	-2.5660328682	 2.0263821804	-0.116883
O	 1.9113734556	-3.9786374319	 1.8348936531	-0.439925
H	 0.8111622861	 1.7592586383	-0.2203002477	 0.14265
H	-0.8954184144	 1.5711251139	-0.7385253056	 0.136041
H	-0.4859643949	 1.8037088058	 0.9932384581	 0.139545
H	-1.4188310612	-2.3064188987	 0.8240536838	 0.13691
H	-0.6324387073	-3.6773900046	 1.6458873207	 0.132488
H	-0.9344147488	-2.1700776231	 2.5317638838	 0.116422
H	 1.3252899494	-3.4203864421	-0.1235651111	 0.287876
H	 2.7736077041	-2.0740991827	 1.7454029636	 0.11171
H	 1.6108690061	-2.3115790862	 3.0693872186	 0.106807
H	 2.7476928354	-4.2906118579	 2.189712868	 0.298028
