27
gdb 117828	2.19957	0.93231	0.81592	1.3199	91.9	-0.2607	0.0711	0.3317	1622.1912	0.249602	-390.695757	-390.683663	-390.682719	-390.733026	44.406	
C	 0.241880399	 1.4684391443	-0.0029394148	-0.407865
C	-0.0327169032	-0.0372759393	 0.0891987014	-0.179266
C	-1.5172992059	-0.4927762377	 0.0259102059	 0.25364
C	-2.2753320907	 0.0562411649	 1.251683791	-0.419338
C	-2.2204758954	 0.0353775181	-1.2521472533	-0.18525
C	-1.6160386656	-0.3924995335	-2.5945627955	-0.402828
C	-1.4963428938	-2.0422558335	 0.0740060388	-0.177037
C	-2.8371574961	-2.764790437	-0.0145458854	-0.103313
O	-2.5631866105	-4.1569741505	 0.0983967096	-0.420781
H	 1.3167219995	 1.6596824289	 0.0784337322	 0.112259
H	-0.0912145961	 1.8908687323	-0.9561407688	 0.11776
H	-0.2483479792	 2.0292812085	 0.7986414328	 0.116542
H	 0.5235134979	-0.5440110646	-0.7087509039	 0.093746
H	 0.3917672463	-0.416291078	 1.028082511	 0.090206
H	-2.2571471692	 1.1500385175	 1.2758436614	 0.110861
H	-3.3277245939	-0.244018524	 1.2447065793	 0.108797
H	-1.8311514681	-0.3062981218	 2.1855622142	 0.107287
H	-3.273505643	-0.271018089	-1.2229355988	 0.089476
H	-2.2411277732	 1.1308106938	-1.205696896	 0.09189
H	-0.5822903458	-0.0503731726	-2.7050815706	 0.118733
H	-1.6185141782	-1.480012524	-2.718771127	 0.120502
H	-2.1907938399	 0.0322898085	-3.4237797101	 0.110857
H	-0.8628014978	-2.4288692771	-0.7325501048	 0.100981
H	-1.0165568063	-2.3581649867	 1.0087485204	 0.098352
H	-3.5123366368	-2.4345712457	 0.7892495155	 0.085026
H	-3.3350062234	-2.5433531016	-0.9709908819	 0.085507
H	-3.3979217607	-4.6307281002	 0.0410423574	 0.283254
