21
gdb 57494	3.55633	0.73133	0.70004	1.9952	87.45	-0.2499	-0.0174	0.2325	1710.6428	0.180103	-420.449859	-420.439385	-420.438441	-420.485536	38.301	
C	-0.1842967199	 1.3708255845	-0.1671245586	-0.422312
C	 0.0309835445	-0.0769680455	 0.3043603964	 0.283708
C	 0.8124457437	-0.0812987506	 1.6323207095	-0.380257
C	-1.3319251336	-0.7664475405	 0.507557631	-0.380264
N	 0.788900965	-0.9330339415	-0.6191225748	-0.273708
C	 1.2241029981	-0.4892282981	-1.7191043963	 0.105268
N	 1.9393296547	-1.3305624857	-2.5703011237	-0.309912
C	 2.4526234475	-0.9427219802	-3.7837074334	 0.158228
O	 2.3479794819	 0.16438539	-4.2578900622	-0.300359
H	 0.7654749846	 1.8963953738	-0.3120210979	 0.118389
H	-0.7473863296	 1.4130037335	-1.1054386038	 0.118384
H	-0.7551358761	 1.9249419065	 0.5836992611	 0.113744
H	 0.2561754341	 0.451722948	 2.4100867096	 0.108605
H	 0.9863879577	-1.1073846804	 1.9669608688	 0.120258
H	 1.7851925548	 0.4057541985	 1.5110869638	 0.111529
H	-1.905488911	-0.7733969875	-0.4247160928	 0.11153
H	-1.1893924642	-1.8025884388	 0.8256645879	 0.120261
H	-1.9201250739	-0.2436763565	 1.2686083735	 0.108606
H	 1.116620648	 0.5159707549	-2.1263263117	 0.137956
H	 2.0748509734	-2.2793367991	-2.2503833613	 0.261435
H	 2.9820813003	-1.7743580254	-4.2861883853	 0.08891
