18
gdb 90022	2.89252	1.49517	1.17563	3.2822	72.72	-0.2478	0.0143	0.262	1064.7167	0.148542	-439.071178	-439.06336	-439.062416	-439.103376	30.686	
O	 0.0236485381	 1.4655980874	-0.0802600952	-0.445314
C	 0.0252205512	 0.0655744355	-0.0465436247	 0.155293
C	 0.2795541793	-0.556942432	 1.3634119517	-0.311461
C	-1.2582513902	-0.6632027597	 1.5297074871	 0.170386
C	-2.0270733286	-1.5906380423	 2.4863912639	-0.179162
O	-2.6057878898	-0.4155143233	 3.1588516222	-0.256742
C	-1.9318444354	 0.4312258628	 2.3193697715	 0.43504
N	-1.894095312	 1.6855432899	 2.2416421086	-0.570673
C	-1.3913644059	-0.5919756736	-0.0133414924	-0.31146
H	-0.5616212842	 1.8019320409	 0.621509489	 0.300266
H	 0.6916210452	-0.2629287196	-0.8469720031	 0.082099
H	 0.7412306223	-1.5467653473	 1.2974585814	 0.103492
H	 0.8238580614	 0.0597755577	 2.0816894906	 0.118168
H	-2.8139039272	-2.2054242551	 2.0427123847	 0.126666
H	-1.4261095145	-2.1763280219	 3.1861949692	 0.126665
H	-2.4755981048	 2.1538061897	 2.9354723766	 0.235077
H	-2.2155315802	-0.0039514835	-0.4226168886	 0.118168
H	-1.3900849185	-1.5914524956	-0.4586381574	 0.103492
