19
gdb 33265	5.49578	0.67089	0.64743	4.9406	77.57	-0.2202	0.0329	0.2531	1725.065	0.160698	-419.234285	-419.225226	-419.224282	-419.269703	32.123	
O	-0.0553369536	 1.4401957431	 0.1642113795	-0.416992
C	 0.0245453234	 0.0354427547	-0.0029369352	-0.070655
C	-1.3926587044	-0.518278385	 0.0804470046	-0.17088
C	-1.4286675486	-2.0434015044	-0.0629472208	-0.185951
N	-2.7744513731	-2.5892802278	-0.0028878423	 0.027314
C	-3.5703548158	-2.7123949968	 1.1169273041	-0.131394
C	-4.7564624451	-3.234628511	 0.6722851119	-0.088224
N	-4.7174236765	-3.4356779207	-0.6874329951	-0.274428
C	-3.5208713172	-3.0373048618	-1.0544767056	 0.003157
H	 0.8332402669	 1.8033157146	 0.1070053962	 0.289172
H	 0.4719722257	-0.2283373227	-0.975839641	 0.088296
H	 0.6526877223	-0.4263180917	 0.7773562038	 0.087508
H	-1.8310204035	-0.2230159446	 1.0397247411	 0.120802
H	-2.00515292	-0.0604117943	-0.7035260357	 0.123948
H	-0.99860831	-2.3459187759	-1.0233324649	 0.123411
H	-0.8236211155	-2.5154731694	 0.7198895764	 0.12307
H	-3.2182852037	-2.4273789181	 2.0948839936	 0.122677
H	-5.6318719696	-3.4819062028	 1.2535954136	 0.106549
H	-3.1272518916	-3.0507268354	-2.0608642443	 0.122621
