15
gdb 129432	4.5545	1.0388	0.84725	3.6332	71.29	-0.2106	-0.0265	0.1841	1277.2097	0.114979	-450.184978	-450.176554	-450.175609	-450.218152	31.279	
N	 0.6671628035	 0.2561104587	-0.9509721761	-0.541418
C	-0.1629290424	 0.2318911339	 0.1324615226	 0.331331
O	-0.0224427302	 0.9701790212	 1.0951210961	-0.383485
C	-1.2489143674	-0.7699534704	 0.0967819671	 0.346065
C	-1.6556199873	-1.7694526701	-0.7761381214	-0.440555
C	-2.7928220133	-2.3366909345	-0.1568443861	 0.397721
N	-3.624343162	-3.3387885561	-0.6531482361	-0.591297
N	-3.0663218726	-1.7399273934	 1.0077424368	-0.295648
N	-2.1204467418	-0.7927725749	 1.1281410231	-0.236189
H	 1.3366725323	 1.0073089508	-0.9958130054	 0.26549
H	 0.4184339369	-0.2070323218	-1.807876515	 0.264765
H	-1.2083730443	-2.0554990285	-1.7146312614	 0.097192
H	-3.123615818	-4.0903635093	-1.1071194122	 0.246669
H	-4.2355167094	-3.7030809289	 0.0665746325	 0.253225
H	-2.0798942139	-0.1829692169	 1.9288523856	 0.286134
