17
gdb 30280	3.02177	1.63764	1.12142	2.267	74.06	-0.1859	0.0416	0.2275	1063.1476	0.138635	-418.031861	-418.024234	-418.02329	-418.064315	29.009	
C	 0.0215474547	 1.5891995549	-0.045540582	-0.392676
C	-0.0049871005	 0.0617198571	 0.0807999186	-0.143191
C	 0.770852399	-0.6561069869	-1.0918558059	-0.105282
O	 1.6661440858	-1.6916434672	-0.5402724397	-0.295442
C	 1.6101055157	-1.452743414	 0.783964295	 0.42444
C	 0.7487070873	-0.5188202349	 1.2448657262	 0.180987
N	 0.8105126075	-0.4414768555	 2.6172746447	-0.339933
C	 1.7172457905	-1.3306907066	 2.9563578122	-0.024632
N	 2.2510650568	-1.9967194316	 1.8549300062	-0.390183
H	 1.0516639294	 1.9600473858	-0.0602958786	 0.116472
H	-0.479406471	 1.9227741557	-0.9612407062	 0.108589
H	-0.4889392087	 2.0489834403	 0.8053508491	 0.1346
H	-1.0538901655	-0.2659822637	 0.0804018721	 0.087785
H	 0.1129081419	-1.1570711518	-1.8038786845	 0.123023
H	 1.4055022338	 0.056673823	-1.6286756194	 0.118179
H	 2.0489298515	-1.5545009368	 3.9583680147	 0.125632
H	 2.9593687319	-2.7103999779	 1.8603476775	 0.271634
