19
gdb 113505	3.49023	0.99504	0.87476	3.4843	78.35	-0.2409	-0.0366	0.2042	1388.9181	0.156936	-423.020078	-423.010882	-423.009938	-423.054719	33.431	
C	-0.4120935851	 1.4861332841	 0.2796827166	-0.377096
C	 0.2960452864	 0.1833077643	-0.114232258	-0.211031
C	 0.9919775	-0.4584984007	 1.0594357219	-0.018624
O	 0.1702184745	-1.1406054641	 2.0123596838	-0.280765
C	 1.0607768966	-1.9228812986	 1.2422467985	 0.324449
C	 0.6992100883	-3.0745568174	 0.2863825947	-0.338406
C	 2.0160742306	-3.8054910857	 0.6988441318	-0.349777
C	 2.2408630715	-2.7226584014	 1.7804909394	 0.331145
O	 3.0077591211	-2.5816974858	 2.6866411313	-0.297444
H	 0.2985286733	 2.2210896304	 0.6724400159	 0.121007
H	-0.9150257053	 1.9336496669	-0.5822556069	 0.11778
H	-1.1618597532	 1.2968439594	 1.0532845022	 0.137077
H	-0.427512914	-0.5243872407	-0.5323715331	 0.108301
H	 1.0419970949	 0.3816854824	-0.8947828741	 0.105413
H	 1.7897275421	 0.1276977141	 1.5209083313	 0.109185
H	-0.203619693	-3.6039600162	 0.5981838697	 0.127945
H	 0.6109609241	-2.8077433595	-0.7680491652	 0.116357
H	 1.9087364723	-4.8189114783	 1.09245287	 0.138568
H	 2.7990019149	-3.8086926831	-0.0646894899	 0.135915
