18
gdb 71412	3.98253	1.32763	1.28646	2.1617	75.84	-0.2153	0.0698	0.2851	1039.9598	0.147574	-401.844197	-401.836838	-401.835894	-401.875481	30.397	
O	-0.0257729041	 1.3277439495	 0.1431693049	-0.460327
C	 0.0410407205	-0.0377858171	-0.0187522637	 0.361463
C	-0.6093181761	-0.9189758469	-1.0737850113	-0.240657
N	-0.411966836	-2.0950591797	-0.1260278627	-0.216238
C	-0.2620226115	-1.0644829547	 1.0191114811	-0.074933
C	 1.1801646706	-0.8995826089	 0.6036897272	-0.270815
C	 1.0849540824	-2.2167954846	-0.1064274692	 0.438256
C	 1.7482278091	-3.5105222968	 0.2205768731	-0.352022
C	 1.8910582111	-2.890559601	-1.1646393452	-0.346951
H	 0.6775879582	 1.7329214057	-0.376259749	 0.289421
H	-1.6775847263	-0.7151929838	-1.1841658674	 0.11082
H	-0.14068185	-1.0456784726	-2.0557133167	 0.097121
H	-0.7888959183	-1.0790392217	 1.961958798	 0.106709
H	 1.9912636111	-0.439158094	 1.1548797828	 0.091624
H	 2.6101664217	-3.5014563981	 0.8797692893	 0.11127
H	 1.1108381346	-4.3831411948	 0.3129341348	 0.124397
H	 1.3534511048	-3.364749874	-1.9796972889	 0.119273
H	 2.8489672182	-2.4640887964	-1.4445300669	 0.111591
