19
gdb 87558	2.71348	1.40863	1.18948	2.037	75.47	-0.2459	0.0743	0.3203	1108.5897	0.15759	-422.962959	-422.95439	-422.953446	-422.995846	33.174	
C	-0.0478247168	 1.5701299833	-0.0904203457	-0.409185
C	 0.0319759398	 0.0541808159	-0.0054918337	-0.09255
C	 1.0790736333	-0.652883346	-0.8949537139	 0.021903
O	 2.3783002986	-0.2092290586	-0.4844933844	-0.247284
C	 1.7442215532	-1.2556067785	 0.2707112144	-0.085715
C	 0.7576227967	-0.5968893841	 1.2099402364	 0.342931
C	 0.9748427678	-0.0430785507	 2.5926882239	-0.390488
C	 0.0637457714	-1.2299751278	 2.3682403264	 0.013417
O	-1.3239431676	-1.063398364	 2.4165842456	-0.418166
H	 0.9506065231	 2.0090138746	-0.0153352601	 0.132478
H	-0.4948245001	 1.8862494536	-1.0393383885	 0.111885
H	-0.6666693042	 1.9743800312	 0.7173297298	 0.115837
H	-0.9548951023	-0.4031112311	-0.1266613302	 0.09599
H	 0.9765677487	-1.0130985855	-1.912301594	 0.100777
H	 2.2850602857	-2.1888023614	 0.381068163	 0.102323
H	 1.930747693	-0.2002327902	 3.0824014955	 0.11454
H	 0.494868446	 0.9043299539	 2.8185039171	 0.117116
H	 0.4197211932	-2.2070555056	 2.6991229285	 0.084301
H	-1.5809482395	-0.9629058493	 3.3391792298	 0.28989
