18
gdb 78086	2.73429	1.21774	0.99868	5.4903	76.97	-0.2676	0.032	0.2996	1221.7811	0.14679	-401.931954	-401.923104	-401.92216	-401.965324	33.241	
C	-0.0005896109	 1.5360784894	-0.0008589886	-0.423774
C	 0.0987448006	 0.02647937	 0.0608169139	-0.088802
C	 1.3410886222	-0.8015166244	-0.2138337356	-0.130482
C	 2.5955024103	-0.0996070791	 0.3496758144	-0.157214
C	 1.9435373065	-0.1434252963	 1.7826946331	-0.319353
C	 0.6958383331	-0.794203807	 1.1698049192	 0.387611
O	 0.021259539	-1.8323652506	 1.7825232443	-0.456045
C	 3.8221175874	-0.8710472647	 0.2283737923	 0.269218
N	 4.7957885173	-1.4864975476	 0.1275785229	-0.326015
H	 0.8615744569	 2.0351495636	 0.4499966097	 0.122749
H	-0.0761205214	 1.8803278099	-1.0377140067	 0.128595
H	-0.8915870207	 1.8877697816	 0.5303505161	 0.12104
H	-0.7721502695	-0.4841989378	-0.3480494746	 0.09934
H	 1.3646965032	-1.5763381417	-0.9690216194	 0.115212
H	 2.7775925721	 0.9045599271	-0.0451878438	 0.120473
H	 2.4696287267	-0.8428126007	 2.4332625033	 0.14234
H	 1.8286720052	 0.8163024198	 2.2952671418	 0.105376
H	-0.761529848	-1.4782947914	 2.2180888076	 0.28973
