22
gdb 10068	2.16282	1.39381	0.92377	0.737	84.31	-0.2572	0.0572	0.3144	1332.9925	0.197634	-313.049674	-313.039339	-313.038395	-313.08523	37.303	
C	 0.1619982802	 1.493487916	-0.1432102134	-0.390601
C	 0.0219039679	-0.0310247847	-0.0854073644	-0.180155
C	-1.4212541242	-0.5380196344	 0.0972307058	 0.053094
C	-2.2761196891	-0.3211453013	-1.1659662442	-0.179717
C	-3.785355731	-0.5028708945	-0.9679896835	-0.391944
C	-1.4214117029	-2.0344764697	 0.5062479101	-0.370792
C	-0.8023075252	-2.2920791038	 1.801074483	 0.303526
C	-0.2987000223	-2.4860031462	 2.8757751309	-0.446533
H	 1.2136677588	 1.7829214986	-0.2339395449	 0.112827
H	-0.3691674385	 1.9304841802	-0.9945907914	 0.116251
H	-0.2316499783	 1.9585999946	 0.7674838391	 0.115935
H	 0.4420711808	-0.4764505282	-0.9984567484	 0.088231
H	 0.6282745102	-0.4078503277	 0.7455774044	 0.111072
H	-1.87783163	 0.0255808228	 0.9232434184	 0.077355
H	-2.0983286649	 0.6926506182	-1.5409142367	 0.096466
H	-1.9213750318	-0.9991723639	-1.9550594691	 0.092172
H	-4.0493419158	-1.5243141151	-0.6762201771	 0.118072
H	-4.164023807	 0.1708156143	-0.1912306223	 0.117407
H	-4.3282395227	-0.2811061377	-1.8921753033	 0.113843
H	-2.4493342774	-2.4138619002	 0.5290229955	 0.12711
H	-0.9011674	-2.6140794052	-0.2693289319	 0.124524
H	 0.1458467835	-2.6680294019	 3.8225265035	 0.191858
