18
gdb 30508	2.41967	1.65351	0.99427	2.3529	87.	-0.2024	-0.0368	0.1656	1186.9158	0.147429	-401.987624	-401.978884	-401.977939	-402.021168	32.141	
C	-0.0030208487	 1.4396588693	 0.0388434613	-0.317882
N	-0.0048226939	-0.0106439254	-0.0120079317	-0.317261
C	 0.5571127528	-0.6587029955	 0.9231877055	 0.354304
O	 1.1648754312	 0.028467191	 1.9800943929	-0.246529
C	 1.7723167354	-0.6270334382	 2.9929187827	 0.06498
C	 1.836710302	-1.965623112	 3.0586946325	-0.18648
C	 1.2302672112	-2.7290549458	 2.0010458073	-0.157106
C	 0.609821686	-2.117299375	 0.9648470407	 0.185681
C	-0.0418288991	-2.8509567231	-0.1684619371	-0.470104
H	 1.01558466	 1.8524420832	 0.0438269358	 0.11649
H	-0.527029708	 1.8290575044	-0.8373656033	 0.115517
H	-0.5031841719	 1.8231304166	 0.9392520707	 0.116466
H	 2.1863565899	 0.0603116242	 3.7203992309	 0.132294
H	 2.3348740735	-2.4438758522	 3.891227376	 0.109615
H	 1.272965467	-3.8131929642	 2.0380320296	 0.103341
H	 0.0556434285	-3.9320962276	-0.0411657245	 0.11073
H	-1.1029842105	-2.5906174734	-0.238688705	 0.142942
H	 0.4032390844	-2.5589762362	-1.1251990343	 0.143004
