20
gdb 6977	2.42471	2.25007	1.57671	1.2831	75.55	-0.2418	0.0239	0.2656	923.9893	0.176201	-349.02269	-349.014177	-349.013233	-349.054867	33.223	
C	-0.7085306728	 1.2077964271	-0.0001383284	-0.423625
C	 0.1361191549	-0.0612168808	-0.0711588504	 0.022536
C	 1.2999203398	-0.022826941	-1.0917789997	-0.275761
C	 2.2984985192	-0.9907942829	-0.5039257781	-0.074596
C	 2.0152619468	-1.2805931878	 0.7631985781	-0.114103
C	 0.7856808585	-0.5411245249	 1.2616735369	 0.351159
C	 1.1816930883	 0.5824145945	 2.2300910112	-0.439754
O	-0.1695853065	-1.4018224815	 1.8935336645	-0.477203
H	-0.1071478055	 2.0869809662	 0.2552218619	 0.110693
H	-1.18550635	 1.4066927681	-0.9656916187	 0.110294
H	-1.5023792462	 1.1087321871	 0.747019514	 0.123573
H	-0.5164265785	-0.8946580407	-0.354828106	 0.093645
H	 0.9783820538	-0.2945163178	-2.1039000997	 0.10176
H	 1.7307770188	 0.9868818905	-1.1687561547	 0.100767
H	 3.1505856918	-1.3673279328	-1.0600643357	 0.091607
H	 2.5945236542	-1.9267177482	 1.4157004809	 0.082234
H	 1.8388758921	 1.3134874208	 1.7495497577	 0.121306
H	 0.295045723	 1.1002233346	 2.6072653769	 0.122606
H	 1.7273591457	 0.1697647117	 3.0879195011	 0.101052
H	 0.1543663427	-1.6103927222	 2.7761754082	 0.27181
