15
gdb 52979	5.07601	0.90074	0.8448	3.6133	76.5	-0.2342	0.0078	0.242	1374.3386	0.109499	-420.500302	-420.492067	-420.491123	-420.534738	29.842	
C	 0.0183734721	 1.4750528919	-0.077115448	-0.514554
C	-0.0329974598	 0.0232443996	-0.0212487978	 0.344642
C	-0.0827852548	-1.1809483168	 0.008794704	-0.255795
C	-0.0920077072	-2.5937703348	 0.1032788759	 0.315416
O	-0.3333425137	-3.4254233314	-1.0441409494	-0.262341
C	-1.1644830692	-3.607254147	 0.091524156	-0.126061
C	-0.3747615306	-4.4668747888	 1.1563742551	-0.011049
O	 0.9093236266	-4.7687360424	 0.6108132211	-0.205877
C	 0.7004253777	-3.4794550739	 1.1677988329	-0.108525
H	 0.975599827	 1.8525418171	 0.2986383518	 0.154788
H	-0.0974524032	 1.8296152112	-1.1071006498	 0.159442
H	-0.7791994203	 1.9270833278	 0.5228233702	 0.153073
H	-2.2365597975	-3.5004131713	-0.0191197973	 0.123054
H	-0.7781051075	-5.1063232908	 1.930650062	 0.118366
H	 1.3591530403	-3.1211481803	 1.9486244534	 0.115421
