23
gdb 38856	2.55531	1.85993	1.74987	0.1472	86.78	-0.2644	0.0754	0.3397	964.6959	0.212115	-351.179488	-351.172793	-351.171849	-351.210046	29.557	
C	-0.0659689488	 1.5112719783	 0.0626516712	-0.21885
C	 1.4780066499	 1.4520220488	-0.0629551624	-0.019325
C	 2.0999682934	 1.1963348138	 1.326536128	-0.213571
C	 1.781097583	-0.2574060049	 1.7467057628	 0.007346
C	 2.6559529248	-1.2053672095	 0.9041487164	-0.202484
C	 2.35240457	-0.9976564382	-0.6060873858	-0.237331
C	 1.2836809159	 0.0789237887	-0.7893525393	 0.025663
C	-0.0406235122	-0.0385214207	 0.0372281091	-0.019323
C	 0.2974201471	-0.5728889084	 1.4454486313	-0.213572
H	-0.4852067284	 1.9980816777	 0.9504770035	 0.079764
H	-0.5348199841	 1.9287702717	-0.832930338	 0.087565
H	 1.9819512664	 2.2586655092	-0.6021475129	 0.051032
H	 3.1874484499	 1.3366477378	 1.30325111	 0.085742
H	 1.7040937435	 1.9194086046	 2.0502795453	 0.086976
H	 1.9988326125	-0.4078442782	 2.8089458722	 0.053427
H	 3.7133199351	-1.0137132447	 1.116605977	 0.088003
H	 2.4617085961	-2.2422393629	 1.1992070952	 0.088003
H	 3.2587869318	-0.7074622292	-1.1498354452	 0.094418
H	 2.0114775755	-1.9316147934	-1.067495374	 0.094419
H	 1.0575328076	 0.2381987621	-1.8476794165	 0.058345
H	-0.8897675836	-0.5599474358	-0.4126968178	 0.051032
H	 0.1380467704	-1.6563872311	 1.504406487	 0.085742
H	-0.3689079959	-0.1152768457	 2.1870366632	 0.086976
