19
gdb 126245	2.18238	1.41231	0.92582	5.6211	79.6	-0.2016	0.0232	0.2248	1302.9924	0.159986	-415.386323	-415.376795	-415.375851	-415.421842	33.893	
C	 0.0743609124	 1.6400299685	-0.0109910821	-0.368905
C	 0.0040485916	 0.1040736669	-0.085722563	-0.304046
C	-1.3814375464	-0.4423087005	 0.0576356354	 0.230618
C	-2.0769579076	-0.787911857	 1.2065814125	 0.327393
N	-1.7005102658	-0.8105779393	 2.5364358563	-0.38903
C	-2.7206763718	-0.8896211402	 3.5687877106	-0.34398
N	-3.2843799434	-1.1985015119	 0.7485040725	-0.24715
N	-3.3494587409	-1.1250709176	-0.6131175853	-0.148024
N	-2.2033456743	-0.666012858	-1.0081280712	-0.247387
H	 1.1030616787	 1.9940197111	-0.1340072196	 0.110882
H	-0.5400448908	 2.0892211169	-0.796386104	 0.13621
H	-0.2962921347	 2.0118626822	 0.9510718737	 0.100571
H	 0.3995755531	-0.2294544964	-1.0504172584	 0.126832
H	 0.6549570339	-0.3333562094	 0.682707981	 0.093203
H	-0.9626355602	-0.1536103382	 2.7397422987	 0.252559
H	-2.2388885722	-0.8305930006	 4.5466107028	 0.14003
H	-3.4785311527	-0.0930758284	 3.5041660566	 0.12329
H	-3.2324643071	-1.8576734474	 3.5189550615	 0.135105
H	-4.0759137718	-1.5475809009	 1.2618390719	 0.271828
