18
gdb 120422	3.20877	0.87284	0.7669	3.5632	69.44	-0.2519	0.0191	0.271	1478.951	0.146011	-476.227292	-476.217383	-476.216439	-476.263009	34.599	
O	-0.0992670771	 1.4316290342	 0.0531688761	-0.41534
C	-0.0141664847	 0.0185539946	 0.1171611646	-0.080823
C	-1.4081178224	-0.5403025769	-0.141518564	-0.163541
C	-1.4476360439	-2.0609236175	-0.1316435106	-0.000997
N	-1.2830731897	-2.7063130472	 1.1889399616	-0.33498
C	-2.565764733	-3.1732799787	 1.2855679834	 0.388282
O	-3.2089170324	-3.684913773	 2.1650539333	-0.369228
C	-2.8743097278	-2.7124788137	-0.1609920849	-0.028735
O	-3.9605910465	-1.8391962965	-0.3098076399	-0.425274
H	 0.7742162486	 1.7962647662	 0.2227557907	 0.287731
H	 0.6915330968	-0.3754883522	-0.633510536	 0.085248
H	 0.346577243	-0.312747328	 1.1058658807	 0.077017
H	-2.1048636273	-0.1447128655	 0.6028203119	 0.116133
H	-1.754737447	-0.1856791658	-1.1185252653	 0.123458
H	-0.7640309857	-2.474755101	-0.8825001363	 0.084589
H	-0.5416097135	-2.6658056817	 1.8736232718	 0.252203
H	-2.9336935517	-3.5498938125	-0.8686093963	 0.100136
H	-4.5937167859	-2.0473956347	 0.3870256193	 0.304125
