14
gdb 374	7.14633	2.18885	1.78723	1.3296	55.33	-0.2649	0.0332	0.2982	693.4546	0.117373	-270.397474	-270.390091	-270.389147	-270.428268	26.198	
C	-0.0160174851	 1.5584482586	 0.0527612316	-0.386137
C	-0.0310364258	 0.0309663547	-0.0192103489	-0.17583
C	 0.7339143386	-0.5063320408	-1.2453107172	-0.038105
O	 2.0883970558	-0.0589708586	-1.2698456355	-0.415789
C	 0.6509868954	-1.9678785316	-1.3249489099	 0.294981
C	 0.6072094956	-3.1693033	-1.3443927691	-0.44569
H	 1.0105347161	 1.9328590355	 0.0605487712	 0.132286
H	-0.5254720658	 1.999533368	-0.8112740424	 0.115427
H	-0.5219241237	 1.9126775631	 0.9555275434	 0.111637
H	 0.4202063332	-0.401380334	 0.8831217016	 0.097824
H	-1.0590956821	-0.3466546888	-0.0620333006	 0.109124
H	 0.2871227001	-0.0745497139	-2.1502029636	 0.116695
H	 2.5683229352	-0.5600410947	-0.600771009	 0.284494
H	 0.5644794125	-4.2298623073	-1.3836798017	 0.199084
