22
gdb 76681	3.14199	0.98379	0.89154	2.7025	82.92	-0.2107	0.0842	0.2949	1416.6614	0.192434	-404.290572	-404.280563	-404.279619	-404.326074	36.353	
C	 0.001063156	 1.5459928688	 0.6431104519	-0.413702
C	 0.1384891787	 0.0763335782	 0.3012796228	-0.015179
C	 0.2999970962	-0.4299828369	-1.0989898538	 0.000464
C	 0.3427520543	 0.4791433048	-2.316487766	-0.263948
C	 0.9689424318	-0.2047036885	-3.5122505437	 0.109818
C	 1.7251464885	 0.5303736086	-4.5328007081	-0.187028
O	 2.3973479977	-0.2661458499	-3.5547727785	-0.226873
N	 1.390634438	-0.5493087578	-0.1310512867	-0.09706
C	 2.6101627324	 0.2337988982	-0.2748167528	-0.319957
H	 0.4827729866	 2.2117485347	-0.0749970762	 0.119069
H	-1.059540108	 1.8171829009	 0.6834873931	 0.120794
H	 0.4294408665	 1.7544393581	 1.6298874781	 0.123555
H	-0.4253082887	-0.5595196836	 0.9855869525	 0.083485
H	-0.1592295375	-1.3941964952	-1.32861911	 0.080668
H	-0.6858747725	 0.7607813887	-2.5823323168	 0.105765
H	 0.8860200936	 1.4059516832	-2.1183288366	 0.103987
H	 0.485518094	-1.1355612091	-3.8167788483	 0.09364
H	 1.7717473544	 0.155386855	-5.5542834532	 0.115341
H	 1.857456351	 1.6070187884	-4.4293618292	 0.112163
H	 2.4700934977	 1.2992620335	-0.5074934518	 0.091984
H	 3.1730201463	 0.1711315771	 0.6624729118	 0.114972
H	 3.213179203	-0.2007333273	-1.0755586384	 0.14804
