18
gdb 99799	2.43561	0.96998	0.8398	3.9875	81.95	-0.2738	-0.0002	0.2736	1486.1945	0.143867	-401.93563	-401.9247	-401.923755	-401.972877	37.602	
C	-0.0579765061	 1.5612144049	-0.1097574173	-0.409641
C	-0.0292808863	 0.0339850078	-0.0445557721	-0.17571
C	 0.7652172353	-0.5207440191	 1.1633064474	 0.006086
O	 2.0849875454	 0.0013683148	 1.0535250638	-0.424348
C	 0.1505142952	-0.042992412	 2.4349376239	 0.274316
N	-0.3093537155	 0.3389568552	 3.4238388937	-0.347088
C	 0.7611726046	-1.9890748294	 1.1663243948	 0.047805
C	 0.7803359367	-3.1925903832	 1.1575908137	 0.113375
C	 0.7966998243	-4.647215409	 1.1519753092	-0.502634
H	 0.9536320671	 1.9685362444	-0.1674387443	 0.142256
H	-0.6114589301	 1.8859665243	-0.9952841821	 0.117049
H	-0.5494501705	 1.9880930871	 0.7697186803	 0.140351
H	-1.0420459334	-0.3765553153	 0.0058855133	 0.122624
H	 0.4506113988	-0.3847837979	-0.9342901553	 0.122835
H	 2.6308788513	-0.4251159664	 1.7240497925	 0.295447
H	 1.5811482963	-5.035460966	 1.810063763	 0.158046
H	-0.1604421059	-5.0490236264	 1.5008519345	 0.16171
H	 0.9782495927	-5.0375336237	 0.1451264511	 0.157521
