19
gdb 17789	6.13692	1.09029	1.0645	1.3751	73.2	-0.2286	0.078	0.3066	1182.4658	0.166155	-364.960187	-364.952399	-364.951455	-364.993155	28.6	
C	 0.1368085004	 1.471068131	-0.0609315731	-0.223915
O	 0.1051240594	 0.0720436631	-0.205859684	-0.235949
C	 1.3697967248	-0.4771192014	-0.5176799437	-0.115629
C	 1.1870066113	-1.98132933	-0.5938659377	 0.078039
C	 0.8706449062	-2.7609407888	-1.8952354451	-0.068687
C	 2.347958322	-2.5109202103	-2.2649836894	-0.175977
N	 2.4496588213	-2.8569046805	-0.763495812	-0.16753
C	 1.4378927183	-3.9667054824	-1.1160876718	-0.164147
H	 0.8141647445	 1.7828082607	 0.750146456	 0.105114
H	 0.4606374561	 1.9725049573	-0.9870868901	 0.103016
H	-0.8775014612	 1.798149118	 0.1805557134	 0.127401
H	 1.7523562355	-0.0370861257	-1.4506865859	 0.086685
H	 2.103080347	-0.2480253089	 0.2750408593	 0.100144
H	 0.6065417545	-2.284362898	 0.2841188925	 0.080426
H	-0.0207315512	-2.7068773835	-2.5293369229	 0.068169
H	 2.8412547641	-3.2455546163	-2.9074509679	 0.099806
H	 2.6763689839	-1.5020425518	-2.5175321853	 0.102312
H	 0.8780435328	-4.33666756	-0.2527252919	 0.101534
H	 1.8817592204	-4.7860174725	-1.6876267202	 0.099188
