20
gdb 115574	2.79195	1.13135	1.04237	2.543	76.78	-0.2266	-0.0291	0.1975	1265.1915	0.168488	-440.260752	-440.250821	-440.249877	-440.295938	35.371	
C	-0.1359639944	 1.4253938608	-0.172376127	-0.24277
O	-0.1297899064	 0.1170123115	 0.3588692425	-0.240019
C	-1.2973736886	-0.6007102306	 0.0801254799	 0.073842
C	-1.383700533	-1.2892303175	-1.309330519	-0.191344
N	-1.1187667941	-2.6113660289	-0.6855381845	-0.352486
C	-1.25811441	-2.0519593298	 0.6759816891	 0.199866
C	-0.1116781059	-2.3786849431	 1.6310893152	-0.438869
C	-2.5883968407	-2.3785372906	 1.3271210297	 0.115796
O	-3.4321504253	-3.0799141184	 0.8276790527	-0.257882
H	 0.8026485449	 1.8978123557	 0.1252899401	 0.133749
H	-0.1997347251	 1.4246832154	-1.2700912611	 0.114551
H	-0.9765207556	 2.0163060886	 0.2233803395	 0.108917
H	-2.1821354271	-0.0070188842	 0.3575963035	 0.067965
H	-2.3658563262	-1.1897797951	-1.7858776578	 0.104798
H	-0.6086233762	-0.9821542909	-2.0198483929	 0.107897
H	-1.8462670765	-3.2965236829	-0.8728532891	 0.227581
H	 0.8273426489	-2.0111681288	 1.2174988557	 0.146493
H	-0.2627005386	-1.9152991235	 2.6118592154	 0.115361
H	-0.0395092565	-3.4628092284	 1.7637543912	 0.12413
H	-2.7428354837	-1.9109458993	 2.3264111471	 0.082426
