18
gdb 97004	3.71143	1.21548	1.0723	2.4869	74.57	-0.2465	0.0265	0.2731	1169.1193	0.148143	-439.082175	-439.074011	-439.073067	-439.115841	29.779	
C	-0.0631320641	 1.4567136537	-0.0852733889	-0.330486
N	-0.0305535779	 0.0066920815	 0.0145396888	-0.311849
C	-1.1020358835	-0.6477617686	 0.0032625664	 0.420408
C	-1.2147814661	-2.159218656	 0.085187503	-0.334381
C	-2.6819628571	-2.4031647391	 0.3877812433	 0.090584
O	-3.0075257222	-2.3149694878	 1.794944851	-0.291035
C	-3.8287445172	-1.1434871319	 1.5842834315	-0.095589
C	-3.3825560644	-1.051557637	 0.1163835638	 0.051231
O	-2.3628657945	-0.0917776128	-0.1205294139	-0.259246
H	 0.6841843635	 1.8749242485	 0.5964827231	 0.122975
H	 0.2252927832	 1.7601533416	-1.0993187242	 0.125467
H	-1.0405949386	 1.898914971	 0.1388545118	 0.119314
H	-0.9289912668	-2.6015988461	-0.8754407114	 0.1303
H	-0.5576390799	-2.564758278	 0.855617067	 0.150503
H	-3.1015562378	-3.3038032867	-0.0692509097	 0.085387
H	-4.8949678595	-1.3617999898	 1.7242047496	 0.106255
H	-3.5337112802	-0.3005071427	 2.2174446853	 0.12052
H	-4.1460872968	-0.9578734595	-0.6562469165	 0.099641
