20
gdb 102681	2.04912	0.98887	0.75404	4.0504	76.58	-0.2696	0.002	0.2716	1548.8157	0.168554	-440.283019	-440.272439	-440.271495	-440.320036	36.768	
C	 0.0097460237	 1.5602068853	-0.0460647545	-0.391994
C	-0.0218994714	 0.0319386629	 0.0129257628	-0.173419
C	 0.6762907918	-0.5458101307	 1.2425392197	 0.097571
C	 0.6378040109	-2.0777010192	 1.2892182272	-0.069829
O	 1.3012526185	-2.6483337566	 0.1812868944	-0.414315
O	 2.0563573027	-0.1293981267	 1.1841703967	-0.263768
C	 2.6702668239	 0.0140808131	 2.4432554659	-0.195531
C	 4.0760858523	 0.3821937944	 2.2474081824	 0.262087
N	 5.186839854	 0.6695750219	 2.1198602566	-0.28864
H	 1.0390076056	 1.9271901856	-0.0630169108	 0.134439
H	-0.495870065	 1.9253998105	-0.9445023414	 0.118998
H	-0.4936169806	 2.0036669161	 0.8209256281	 0.108415
H	-1.0585074951	-0.3261805084	 0.0237684062	 0.101628
H	 0.4448767821	-0.3997751846	-0.8779502027	 0.121753
H	 0.2148006915	-0.1389856704	 2.1566641766	 0.071172
H	 1.0687825117	-2.4334992178	 2.2405308663	 0.083735
H	-0.4011100581	-2.4230571571	 1.2595101418	 0.114851
H	 2.1548283559	-2.2019472148	 0.1191321993	 0.29081
H	 2.180000702	 0.7994825866	 3.0395375498	 0.147033
H	 2.6375086536	-0.9126026001	 3.0361713556	 0.145004
