23
gdb 99514	1.68349	1.54213	1.00343	1.3645	87.47	-0.2607	0.0549	0.3156	1317.0818	0.201369	-388.258472	-388.247047	-388.246103	-388.294616	42.564	
C	 0.0424551252	 1.379531639	 0.3998656516	-0.402751
C	 0.0359225259	-0.1422775747	 0.1650556302	 0.257491
C	 0.7941114644	-0.8427210921	 1.3065919784	-0.412825
C	-1.4282542825	-0.6240637635	 0.1603925355	-0.410529
C	 0.6694073797	-0.490257509	-1.2326764932	-0.170763
C	 2.1313411769	-0.0448915906	-1.4611307942	-0.105473
O	 2.1674260284	 1.3626912619	-1.6440528297	-0.416247
C	 0.5895570133	-1.9239807162	-1.5207317991	 0.316912
C	 0.5670433165	-3.1024992494	-1.7606565638	-0.454494
H	 1.0546023543	 1.7829777769	 0.4451616651	 0.122573
H	-0.4834131429	 1.9072516998	-0.4028090924	 0.108222
H	-0.4678100559	 1.6076891043	 1.342235758	 0.09751
H	 0.2866342053	-0.6632133341	 2.2601928607	 0.109016
H	 0.84246126	-1.9240063422	 1.1473555309	 0.122765
H	 1.8169537396	-0.4664602465	 1.4097561805	 0.108301
H	-1.9956577096	-0.1506358333	-0.6489884538	 0.106737
H	-1.4965342633	-1.7072801772	 0.0305908305	 0.124184
H	-1.9159165248	-0.3613926466	 1.1049750811	 0.105791
H	 0.0779591494	 0.0415293608	-1.9916803356	 0.111015
H	 2.7576888014	-0.3605009664	-0.6145266847	 0.099361
H	 2.5052095302	-0.5623476292	-2.3552740536	 0.102597
H	 3.0773253865	 1.6148047666	-1.8264644912	 0.288905
H	 0.5287066921	-4.1411321085	-1.9782604111	 0.191702
