17
gdb 92695	2.50047	1.55777	1.16029	1.0676	71.26	-0.2344	-0.0644	0.17	1074.2573	0.136656	-455.179202	-455.170673	-455.169728	-455.21223	32.499	
N	 0.0125352099	 1.325856409	 0.033782884	-0.538431
C	-0.0629678169	-0.0330817501	 0.0002242663	 0.257048
N	-1.1853015789	-0.655407519	-0.0399132326	-0.299634
C	-1.200532575	-2.1120604871	 0.0169904365	-0.187358
C	 0.0460492089	-2.7925021874	-0.5575482518	 0.099538
O	 0.1144728181	-2.6640301294	-1.9724698965	-0.441044
C	 1.298823064	-2.2058843133	 0.1120660866	-0.327754
C	 1.3075731542	-0.6993967304	 0.0180097904	 0.354217
O	 2.3133909129	-0.0276549126	-0.0486793344	-0.318736
H	 0.9151581311	 1.7350977143	-0.1446495274	 0.271731
H	-0.820040552	 1.8546996864	-0.1635630097	 0.260159
H	-1.3434469719	-2.4311308676	 1.0607678948	 0.109431
H	-2.0810853099	-2.4627350755	-0.5325757457	 0.115972
H	 0.0005981174	-3.8696772013	-0.3635010521	 0.091084
H	-0.199661779	-1.7835602184	-2.206764102	 0.287546
H	 1.2938167636	-2.4653220281	 1.1813626196	 0.130855
H	 2.2206421335	-2.5987376095	-0.3228989659	 0.135376
