18
gdb 14066	3.38903	1.65662	1.36151	2.9452	74.07	-0.2336	-0.0154	0.2182	975.5018	0.152789	-347.809434	-347.801355	-347.800411	-347.842032	30.04	
C	-0.0334740929	 1.4817704856	-0.1696452516	-0.406753
C	 0.0859295126	-0.019774863	-0.04923365	-0.044152
C	 1.4149542655	-0.6987776185	-0.1306192428	-0.339565
C	 0.69421445	-0.6361629993	 1.2008252458	 0.233802
C	 1.1059928124	 0.0206657567	 2.5311986587	-0.331368
C	 0.4999087588	-1.2013112929	 3.2986649288	-0.342885
C	 0.1259799094	-1.8153536704	 1.9322576521	 0.346771
O	-0.4074728524	-2.8324805039	 1.5838015433	-0.318667
H	 0.8373665479	 1.986841259	 0.2602585391	 0.119055
H	-0.1058886576	 1.7813323308	-1.2207705154	 0.125786
H	-0.9253639816	 1.8551666067	 0.3450255177	 0.122738
H	-0.7545479802	-0.5850518445	-0.445070346	 0.106901
H	 1.479018517	-1.6739438824	-0.6022624817	 0.131904
H	 2.3004033874	-0.0781025759	-0.2315867762	 0.117087
H	 2.1829013723	 0.1434128543	 2.6669270195	 0.109196
H	 0.6149295345	 0.9729385974	 2.7449393146	 0.10926
H	 1.2099284933	-1.8022274796	 3.8735392278	 0.130674
H	-0.3618435663	-0.9817281001	 3.9351262262	 0.130217
