22
gdb 117219	4.08316	0.73818	0.7105	1.5146	85.44	-0.2259	-0.0218	0.2041	1730.0189	0.191873	-404.342525	-404.332099	-404.331155	-404.378931	37.306	
C	 0.0983309791	 1.4768342824	-0.1471172993	-0.387089
C	 0.0945608667	-0.0112396134	-0.5051493461	-0.163956
C	-1.2354272249	-0.6914229658	-0.1859407327	-0.291962
C	-1.2778136977	-2.1710468703	-0.5365447713	 0.374341
O	-0.3181312838	-2.7514076268	-1.0046766986	-0.329336
C	-2.5813243646	-2.8604853998	-0.2547823606	-0.099867
C	-2.9226438287	-4.0935213081	-1.0421988828	-0.234935
N	-2.648700259	-4.1994439874	 0.3683028399	-0.081941
C	-1.4266427522	-4.8784053278	 0.7942403194	-0.325643
H	 1.0619693495	 1.9373064958	-0.3851260447	 0.116019
H	-0.6756685036	 2.0226987433	-0.6985757219	 0.112763
H	-0.0885869597	 1.6316052795	 0.9216192873	 0.113107
H	 0.3160455484	-0.1449495441	-1.5694966504	 0.112281
H	 0.8965718999	-0.5314970614	 0.0292527115	 0.112727
H	-1.4845638271	-0.5936034526	 0.8814437016	 0.124234
H	-2.068094334	-0.1988141775	-0.7107126779	 0.121216
H	-3.3860283268	-2.2037001375	 0.0676723269	 0.089765
H	-3.9535055856	-4.2541923284	-1.3483814432	 0.117779
H	-2.1588794541	-4.4261821391	-1.7431747431	 0.13213
H	-0.5721977624	-4.7316234742	 0.124886311	 0.146031
H	-1.1574942977	-4.5253974069	 1.7947773772	 0.119241
H	-1.652097822	-5.9471224098	 0.8631264477	 0.123095
