17
gdb 77734	2.85862	1.61288	1.50126	1.3552	66.49	-0.2455	0.0358	0.2813	943.9816	0.137073	-458.891493	-458.884258	-458.883314	-458.92282	28.733	
O	 0.0500594264	 1.3183725342	 0.0851136811	-0.439844
C	-0.0467906425	-0.0626124007	 0.0345337832	 0.063198
C	-1.3916277677	-0.7855404118	 0.0662103765	 0.063953
C	-2.3951770011	-0.0095072065	-0.792592009	-0.156943
O	-1.4563825085	 0.0898168513	-1.9126676239	-0.33656
C	-0.5317927978	-0.7466843029	-1.1964369157	 0.270296
C	-0.2046883061	-2.1765806408	-1.5434555202	-0.159647
O	-0.3943633254	-2.8798048164	-0.3090780242	-0.263822
C	-1.4394740806	-2.2421447409	 0.4575045766	-0.154042
H	-0.2871796097	 1.6476090361	-0.7591838946	 0.299916
H	 0.744860896	-0.5631864126	 0.5838430735	 0.12774
H	-3.272914987	-0.5983568444	-1.0785002747	 0.119294
H	-2.7036983655	 0.978345821	-0.4362648004	 0.121296
H	-0.8919705107	-2.5176850234	-2.3330491597	 0.107344
H	 0.8244773429	-2.3711640313	-1.8574747673	 0.120124
H	-1.2174017136	-2.458183115	 1.5064028892	 0.119408
H	-2.4256298491	-2.667430066	 0.2145910296	 0.098291
