16
gdb 69297	3.13305	1.32367	1.0469	3.8842	77.05	-0.2321	-0.0231	0.209	1145.1996	0.121937	-400.684802	-400.676134	-400.675189	-400.718112	32.188	
C	-0.0175117803	 1.5974472292	 0.0825681075	-0.513945
C	 0.1200051542	 0.1106037044	-0.0012683624	 0.195921
N	-0.8221106497	-0.834027438	 0.6986882452	-0.347734
C	 0.6139752689	-0.9418619437	 0.9585118638	-0.117989
C	 1.1869931991	-1.8299576133	-0.1646734367	-0.316185
C	 0.7387931801	-3.196355163	-0.2982542482	 0.346572
C	 0.3753367558	-4.3352288603	-0.4221697787	-0.448854
C	 0.6620403574	-0.7071335741	-1.1534225302	 0.402945
O	 0.8316123381	-0.5016380399	-2.3149734966	-0.296472
H	 0.8763672986	 2.0927866761	-0.3084654763	 0.142518
H	-0.8744340368	 1.9429674242	-0.5048807367	 0.148716
H	-0.1629633355	 1.921287374	 1.118519964	 0.124687
H	-1.2399717134	-0.2925146579	 1.4567071723	 0.237752
H	 1.0403196949	-0.7974257924	 1.9427996146	 0.11472
H	 2.2826372503	-1.769255767	-0.1913122318	 0.129639
H	 0.0412730082	-5.3370788684	-0.5316427698	 0.197709
