18
gdb 23161	2.59384	1.16911	0.89214	2.097	76.84	-0.244	-0.0285	0.2154	1302.7748	0.144582	-439.041353	-439.031855	-439.03091	-439.076645	34.038	
C	-0.4999467934	 1.3603304126	 0.1306879428	-0.393766
C	 0.0348222245	-0.0631470675	 0.0361256571	 0.001409
C	 1.2904231052	-0.2301982172	-0.8898320843	-0.334939
C	 2.1034158995	-0.5725803368	 0.3377837332	 0.401185
N	 3.3265237193	-0.7252006628	 0.627953742	-0.236994
O	 4.1391396553	-0.5768813928	-0.5090844165	-0.388885
C	 0.8943001509	-0.5905162295	 1.2500556086	-0.196798
C	 0.9826385392	 0.1842183548	 2.5489899418	 0.139502
O	 0.0593469204	 0.7624048342	 3.0621179607	-0.244739
H	 0.3010221642	 2.0749741586	 0.3501445181	 0.116509
H	-0.9529019075	 1.6514862738	-0.8230334275	 0.112763
H	-1.2480637971	 1.453928753	 0.9202676312	 0.144199
H	-0.777164169	-0.7480960768	-0.2175254768	 0.08286
H	 1.2266083821	-1.0500209596	-1.6118940474	 0.128118
H	 1.6131887669	 0.6694962179	-1.4225481054	 0.129877
H	 5.0224757319	-0.7067265561	-0.1471978687	 0.308885
H	 0.6172222228	-1.616582314	 1.531756235	 0.128592
H	 1.9904403946	 0.1633493383	 3.0186873763	 0.102222
