15
gdb 44404	3.63085	1.52526	1.48697	3.5704	70.47	-0.2486	-0.0503	0.1983	908.9562	0.111922	-420.501149	-420.494571	-420.493627	-420.531914	26.99	
O	-0.0053065224	-0.0295028274	-0.0861681449	-0.271899
C	-0.0561622948	 1.1537419557	-0.0338514338	 0.318455
C	-1.253629373	 2.213275178	 0.1943692165	-0.391438
C	-0.1926888456	 2.9632276175	 1.0404336143	-0.003021
C	 0.8932170513	 4.1142783436	 0.9937197404	-0.067522
O	 1.9226984444	 3.0274397494	 1.0292644265	-0.345466
C	 0.8979760262	 2.3702228338	 0.1608294936	 0.22782
C	 0.9183090915	 3.3209661484	-1.0669328328	-0.156078
C	 0.9243171829	 4.515839741	-0.4797005037	-0.04597
H	-1.5408617975	 2.690529276	-0.7439606364	 0.141629
H	-2.1279735804	 1.8137834337	 0.7099928257	 0.133668
H	-0.1458634689	 2.510966837	 2.0345994848	 0.114308
H	 1.0173548432	 4.8441817259	 1.7922301269	 0.09607
H	 0.952051008	 3.0246706336	-2.1045480628	 0.124745
H	 0.9672684051	 5.5155420338	-0.8850599343	 0.124699
