20
gdb 109830	2.11882	1.34072	1.00056	2.6577	77.46	-0.2575	0.0075	0.265	1268.4825	0.169525	-440.257396	-440.24735	-440.246405	-440.293062	35.717	
C	-0.2888865281	 1.5948288913	 0.0970093879	-0.411506
C	-0.1590494254	 0.0899563222	-0.0260520224	-0.07948
C	 0.6608993984	-0.6026743101	-1.1128609037	-0.079473
C	 1.4585931132	 0.1728055741	-2.1479860003	-0.097081
O	 2.7055135862	-0.4436864165	-2.4460010686	-0.430612
C	 1.1113964042	-0.6216027849	 0.3259172601	 0.089589
O	 2.2161169016	 0.1951188853	 0.6607573693	-0.188207
C	 3.4137313158	-0.4220575061	 0.6464050949	 0.125522
N	 4.4633279164	 0.2469297239	 0.426467932	-0.445254
H	 0.6683278515	 2.102456272	-0.02903458	 0.14462
H	-0.993040876	 1.9903668271	-0.6421446497	 0.120462
H	-0.6663374864	 1.857619803	 1.0906851145	 0.122226
H	-1.0589760217	-0.4469015042	 0.263426015	 0.093318
H	 0.2610195296	-1.5420474111	-1.4854173954	 0.092562
H	 0.889959258	 0.1962052749	-3.0843733362	 0.108627
H	 1.602225917	 1.2112989903	-1.8339949867	 0.106594
H	 3.362812768	-0.089380868	-1.8363964516	 0.296283
H	 1.0735324052	-1.5472291642	 0.8970143446	 0.099156
H	 3.3566268751	-1.4993184034	 0.853579387	 0.097549
H	 5.2818496675	-0.3535381156	 0.5088908492	 0.235106
