23
gdb 123059	6.0323	0.50506	0.48755	1.0635	83.37	-0.2417	0.0804	0.3221	2268.4321	0.204886	-425.40564	-425.395143	-425.394198	-425.442821	36.764	
O	-0.0711510731	 1.4323070621	-0.1633266348	-0.422379
C	 0.0114172539	 0.0153968587	-0.1049223494	-0.074189
C	-1.4031239798	-0.5357248319	 0.0133106325	-0.167562
C	-1.4433364239	-2.0645266792	 0.0841542169	-0.183612
C	-2.8658947128	-2.6236440873	 0.1996664399	-0.203302
C	-2.8975715801	-4.1410487162	 0.2207149343	 0.162953
C	-4.2587570693	-4.8525602619	 0.0474329093	-0.300611
C	-3.5955878085	-5.5134009566	-1.1768130837	-0.056745
O	-2.4001165881	-4.7240156003	-1.0128433484	-0.293833
H	 0.8208970186	 1.7816226753	-0.2447313799	 0.284086
H	 0.4942570654	-0.3933803858	-1.0077682371	 0.084952
H	 0.6118504985	-0.3126879003	 0.7598874782	 0.081638
H	-1.8713477227	-0.1010949046	 0.9054688093	 0.100899
H	-1.9852034819	-0.1819613618	-0.8466639407	 0.104358
H	-0.9736776127	-2.4944291233	-0.8088435673	 0.1182
H	-0.849014338	-2.4096833263	 0.9418366759	 0.090289
H	-3.346302243	-2.2526197945	 1.1160074681	 0.0935
H	-3.4731318324	-2.2705001059	-0.6440295292	 0.09543
H	-2.3157379821	-4.5164591781	 1.076378956	 0.06771
H	-4.5618706936	-5.5212917698	 0.8542220193	 0.108052
H	-5.0841226508	-4.1777376861	-0.1901770124	 0.108552
H	-3.3929581394	-6.5872220134	-1.0708334544	 0.098659
H	-4.0725458641	-5.339977433	-2.1486191624	 0.102954
