15
gdb 48066	2.07726	1.66711	1.23137	3.0864	67.59	-0.2537	-0.0903	0.1634	1048.5379	0.108982	-457.774119	-457.765112	-457.764167	-457.808623	31.049	
O	 0.2987204283	 1.1662421738	-1.5995928726	-0.229282
C	 0.3155261932	 1.0344262971	-0.4057896686	 0.104215
C	 1.0344405181	 2.0217876359	 0.5236807239	 0.235143
O	 1.5602702975	 1.5750107503	 1.5177071217	-0.291112
C	 1.1674161142	 3.4417956569	 0.0660631772	 0.142707
C	 2.0977565167	 4.351539181	 0.8662810125	-0.30018
C	 2.5425540167	 3.8698165707	-0.4628912665	-0.289834
C	-0.0423964359	 4.0783630104	-0.5123179448	 0.114501
O	-1.1500273552	 3.6068099144	-0.44689751	-0.268945
H	-0.0757807281	 0.1415575523	 0.1229104353	 0.113064
H	 1.7974900457	 5.3879757806	 0.9726911589	 0.136442
H	 2.5141883079	 3.8887016773	 1.7533376084	 0.161406
H	 3.295235424	 3.0916084633	-0.5114246431	 0.149995
H	 2.5389089735	 4.5548502669	-1.3045980449	 0.139666
H	 0.1440678735	 5.068095769	-0.9885004974	 0.082214
