17
gdb 67971	2.30752	1.76555	1.2863	3.1132	67.65	-0.2417	-0.0279	0.2138	1006.5526	0.135282	-458.967294	-458.95937	-458.958426	-458.999982	30.401	
O	-0.0712251567	 1.3550439315	-0.2663401988	-0.480322
C	 0.0308983282	-0.0178498483	 0.0163711607	 0.370128
C	 0.4682153345	-0.9411359506	-1.169160247	-0.41949
C	-0.8586462007	-1.696345173	-1.0105700132	 0.432192
O	-1.3320849852	-2.6633715025	-1.5314592852	-0.298548
C	-1.3462961591	-0.7596040627	 0.1077471084	-0.208775
C	-1.3441721669	-1.3912731999	 1.5044714993	-0.102898
O	 0.0347321356	-1.5172068323	 1.845745832	-0.250826
C	 0.6752005189	-0.340005665	 1.3784833588	-0.143814
H	 0.8145182524	 1.7040577915	-0.4133762925	 0.284333
H	 0.5270279899	-0.4008523733	-2.1196357463	 0.13451
H	 1.3706192795	-1.5449119872	-1.0359697508	 0.130559
H	-2.2364472066	-0.174040864	-0.1285439817	 0.114583
H	-1.867357354	-0.7399473031	 2.2216633735	 0.102429
H	-1.7919111596	-2.3873468226	 1.5351565247	 0.1319
H	 1.7499598139	-0.5402157437	 1.336417939	 0.1067
H	 0.4924682657	 0.5138113051	 2.0511396292	 0.097339
