15
gdb 131058	3.8523	1.18467	0.96668	4.069	66.48	-0.2584	-0.0025	0.2559	1159.2068	0.115991	-450.179558	-450.171858	-450.170914	-450.212464	27.475	
O	 1.0657576974	 1.084880581	 1.4841821267	-0.340968
C	 0.484676614	 1.4201783721	 0.4658549635	 0.163415
N	 1.0603190934	 1.4806318372	-0.7558695731	-0.259648
C	 2.4605545073	 1.1125734636	-0.9666725757	-0.299232
C	 3.4398276883	 2.1049114628	-0.4167731789	 0.367724
N	 4.3129531323	 2.81777965	-1.1103141555	-0.315043
C	 4.951965701	 3.5305830754	-0.1406076841	 0.019372
N	 4.5300489265	 3.3077169403	 1.0942261034	-0.209427
N	 3.5647937681	 2.383458644	 0.896546317	-0.217954
H	-0.5840498613	 1.7014594005	 0.4508964127	 0.1
H	 0.5296641686	 1.8482409839	-1.5289734766	 0.265076
H	 2.6238430172	 0.1324751709	-0.5064418407	 0.152194
H	 2.6375396628	 1.0253597866	-2.0386097118	 0.150496
H	 5.7471242837	 4.2300653089	-0.3503765765	 0.12487
H	 2.9932116906	 2.0168869726	 1.6469763597	 0.299125
