25
gdb 116446	2.43651	1.1998	0.93713	1.5526	88.19	-0.2544	0.0635	0.3178	1393.6873	0.230438	-389.520689	-389.510931	-389.509987	-389.554938	37.952	
C	-0.0658702539	 1.5562777371	-0.0981959236	-0.394874
C	 0.0003170736	 0.0281570102	-0.0091842314	-0.17613
C	 0.6913398117	-0.5154330487	 1.2521981392	 0.031731
C	-0.029819957	-0.1347340337	 2.5597917511	-0.207717
C	 0.6905019806	-0.6879976763	 3.7987598938	-0.194657
C	 0.8858623025	-2.207268723	 3.7080723749	-0.20083
C	 1.6003256823	-2.5977929247	 2.4053797881	-0.218792
C	 0.8789248207	-2.0479929663	 1.1651398945	 0.125315
O	-0.3540383482	-2.7311906248	 0.9290494286	-0.443089
H	 0.9324728704	 2.0038859666	-0.0278232672	 0.10934
H	-0.5022962485	 1.8713464769	-1.0513232338	 0.111298
H	-0.6790171909	 1.989353629	 0.6982530106	 0.11566
H	-1.0076956852	-0.3969418188	-0.0717204487	 0.102434
H	 0.5377955294	-0.3558770203	-0.8862457122	 0.089315
H	 1.7040447151	-0.0844111982	 1.2971469357	 0.06269
H	-0.1192181085	 0.9531065449	 2.6392839416	 0.097153
H	-1.0616590568	-0.5172361586	 2.5308002943	 0.082289
H	 1.673705238	-0.2049370216	 3.8861900229	 0.094374
H	 0.1357596236	-0.4276759181	 4.7073900564	 0.090186
H	 1.4505628388	-2.5757055723	 4.5712919587	 0.095411
H	-0.0931540522	-2.7063593928	 3.7608807054	 0.084789
H	 2.6230905844	-2.1985461584	 2.4212162835	 0.091867
H	 1.6804919402	-3.6863175076	 2.3163786745	 0.09842
H	 1.4775550933	-2.273250279	 0.2746678779	 0.074861
H	-0.9069033033	-2.6350123814	 1.710712715	 0.278959
