19
gdb 72713	2.6458	2.07352	1.63809	1.3806	80.43	-0.2059	0.0117	0.2177	900.7575	0.159637	-385.778266	-385.771162	-385.770218	-385.808904	30.911	
O	 0.1101617775	 1.350950754	 0.1316993717	-0.480423
C	 0.0877411211	-0.0567708434	-0.0047246924	 0.477258
C	 0.1923586643	-0.4383910053	-1.5246902775	-0.347117
C	-1.4059534022	-0.4175406835	-1.522678122	-0.344767
C	-1.2912598606	-0.7551854794	-0.0082267707	 0.211382
C	-1.4241491577	-0.2605032363	 1.4918885956	-0.30625
C	 0.1442244459	-0.6478277862	 1.4691723032	-0.168668
C	 0.0553230467	-2.1394141887	 1.1959577814	-0.083042
C	-0.8730859383	-2.2095043751	 0.2381808935	-0.12931
H	 0.0119723019	 1.7557046492	-0.7348666715	 0.281278
H	 0.7236783323	 0.2684869537	-2.1717583959	 0.08798
H	 0.5684345408	-1.4438948691	-1.7104765709	 0.128239
H	-1.7988662353	 0.5807973228	-1.7301673863	 0.104703
H	-1.9159575097	-1.1381793015	-2.1678605346	 0.101895
H	-1.6059362483	 0.8068534568	 1.6072027212	 0.119204
H	-2.0501722766	-0.8577175028	 2.1589582426	 0.091669
H	 0.8354935988	-0.2705402672	 2.2239230439	 0.066612
H	 0.6227588602	-2.9195279896	 1.6827082782	 0.099305
H	-1.2607693707	-3.0654670084	-0.2991738593	 0.090055
