18
gdb 85140	2.18585	1.68701	1.16191	5.0536	71.65	-0.2353	0.0008	0.2361	1101.7079	0.147863	-439.089363	-439.081002	-439.080058	-439.122478	31.217	
C	-0.287165046	 1.5241856759	-0.0532614333	-0.412467
C	 0.1362288325	 0.0732450622	-0.076115335	 0.096217
O	 1.4217536638	-0.107690345	-0.7660643536	-0.272288
C	 1.9851937559	-0.7537420665	 0.3089966463	 0.434245
O	 3.0791847712	-1.2095324318	 0.3924449385	-0.330435
C	 0.7370109384	-0.6006452382	 1.1944702246	 0.11642
C	 0.7903427309	 0.1106904403	 2.5705656284	-0.303624
C	-0.1918671018	-0.9830351824	 3.0610423237	-0.156042
N	 0.1301006633	-1.7596177616	 1.8430634912	-0.348064
H	 0.4773265017	 2.1498233617	 0.4162105354	 0.133157
H	-0.4483697056	 1.88937848	-1.0716961111	 0.139323
H	-1.2243779755	 1.6401695932	 0.5011499222	 0.124755
H	-0.6183328065	-0.5571890947	-0.5609781533	 0.090713
H	 1.7792799421	 0.0413352901	 3.0258106819	 0.139035
H	 0.4447497347	 1.1437299625	 2.6015656059	 0.115789
H	 0.0574393604	-1.4953184448	 3.995130637	 0.114336
H	-1.2294985283	-0.6283987059	 3.1198708916	 0.096735
H	-0.6330524712	-2.212079475	 1.3525894296	 0.222196
