16
gdb 126065	3.90133	1.16483	1.03061	3.5425	73.	-0.2529	-0.0241	0.2288	1165.9084	0.124184	-437.860392	-437.852578	-437.851634	-437.893493	28.638	
C	 0.0691093936	 1.529971939	-0.3323070788	-0.439435
C	-0.0103132636	 0.0692569546	 0.0203611788	 0.081161
O	 1.2008005965	-0.688235656	 0.0364369812	-0.244832
C	 0.5038708337	-0.5339337493	 1.273847146	-0.080308
C	 1.1690531237	 0.1998115727	 2.3643303437	 0.448863
C	 1.0649451892	 0.0690083776	 3.7176060825	-0.33758
C	 1.9409516765	 1.0677006168	 4.2143446501	 0.033726
N	 2.5271197543	 1.7370272642	 3.2530633942	-0.133461
O	 2.0367075942	 1.1848604767	 2.0712059261	-0.210276
H	 0.9041182286	 2.0193829718	 0.168787492	 0.162037
H	 0.1952560271	 1.6419548828	-1.4141794601	 0.1333
H	-0.8616534742	 2.0340087721	-0.050829529	 0.124687
H	-0.8450877908	-0.4678298795	-0.4367034472	 0.09683
H	 0.0078272069	-1.4364796041	 1.6324797231	 0.10506
H	 0.4627953607	-0.6323799266	 4.2702810926	 0.123288
H	 2.1692910937	 1.3188215772	 5.2405957148	 0.13694
