20
gdb 126747	4.35683	0.90766	0.81668	2.7642	82.47	-0.247	0.0167	0.2637	1497.8197	0.172254	-399.373999	-399.364704	-399.36376	-399.409227	33.156	
C	 0.3229942831	 1.5498963727	 0.1657365419	-0.37375
C	-0.0911755514	 0.0961862581	-0.0598214678	-0.14517
N	 0.5593732878	-0.4937219509	-1.2176397339	 0.059206
C	 1.4922866854	-1.4634291623	-1.2822660089	-0.003102
N	 1.8412729273	-1.6925075647	-2.5334339876	-0.318129
C	 1.0694234592	-0.805437591	-3.230961148	 0.351684
C	 1.1014044972	-0.6943078183	-4.7219944974	-0.279245
C	 0.655244745	-1.9877744912	-5.4212950012	-0.372968
N	 0.2767577842	-0.0586601008	-2.4720089026	-0.311032
H	 1.3977728672	 1.6256164979	 0.3548074173	 0.12732
H	 0.0833878267	 2.1503677098	-0.7145601311	 0.152858
H	-0.2106224852	 1.9618630111	 1.0272676056	 0.122039
H	 0.1682812325	-0.525967703	 0.8018306471	 0.122375
H	-1.1729287576	 0.0245844167	-0.2089500471	 0.135236
H	 1.8761470447	-1.9642822212	-0.4053185029	 0.136151
H	 0.4633705993	 0.1436386225	-5.0166736612	 0.115657
H	 2.1241460744	-0.4506515512	-5.0336491801	 0.115671
H	 1.2812048656	-2.8277344684	-5.1085564195	 0.137338
H	-0.3830115596	-2.2290954741	-5.172692729	 0.118391
H	 0.7301458142	-1.8863331316	-6.5081743237	 0.109472
