19
gdb 82869	2.53562	1.94368	1.43431	0.6878	74.44	-0.2309	0.0647	0.2956	962.9942	0.160043	-422.979466	-422.972014	-422.97107	-423.010735	30.741	
C	 0.0846041234	 1.5898883916	-0.1439172723	-0.512834
C	 0.0142506525	 0.0865257294	-0.0931272817	 0.335039
C	 0.4506155161	-0.8373198792	-1.2467940088	-0.289453
C	-0.2823835637	-1.9057421876	-0.415766942	 0.066046
O	 0.584750598	-2.0324755861	 0.73469034	-0.272073
C	 0.3882447461	-0.7076516102	 1.2412398682	-0.021156
C	-1.1214990937	-0.7680406464	 1.618221597	 0.112417
O	-1.6906634498	 0.4125685985	 2.1447697669	-0.435493
C	-1.2877275149	-0.8004565224	 0.0959493487	-0.120853
H	 1.1282283979	 1.9271470623	-0.170406095	 0.112219
H	-0.4083013447	 1.975153789	-1.0434862775	 0.114171
H	-0.4021750376	 2.0361243819	 0.7257318964	 0.13497
H	-0.0824240687	-0.5759578034	-2.1661407412	 0.097475
H	 1.5119852205	-1.0084286686	-1.4470042099	 0.097287
H	-0.5784626464	-2.8846626021	-0.7881513742	 0.079062
H	 1.1810338502	-0.4148393751	 1.9305913613	 0.069463
H	-1.4118193271	-1.65861426	 2.1912222085	 0.070381
H	-1.3996031941	 0.496277795	 3.0586548027	 0.286392
H	-2.2306851539	-0.6384489966	-0.4229226474	 0.07694
