22
gdb 22042	1.96154	1.35446	0.98248	2.0825	80.66	-0.2492	0.0049	0.2541	1317.1134	0.190439	-441.444392	-441.433398	-441.432454	-441.479706	41.132	
C	 0.1256845121	 1.479951257	 0.1575355927	-0.40389
C	-0.0029170443	-0.057268829	 0.0367182426	 0.156545
C	 0.7321506715	-0.7536529519	 1.2067486122	-0.403892
C	-1.5002615614	-0.4188103176	 0.1324949285	-0.420851
C	 0.6089798915	-0.515696431	-1.2927853592	 0.304712
C	-0.2442559077	-1.2345478591	-2.3284018345	-0.103832
O	 0.4525167489	-1.5910479927	-3.4905239349	-0.430007
N	 1.8164070882	-0.371625105	-1.6843434921	-0.190576
O	 2.6760198043	 0.28053012	-0.7936708253	-0.397413
H	 1.166124946	 1.8007639166	 0.1168050962	 0.142361
H	-0.4214588481	 1.9809206484	-0.6479720258	 0.11192
H	-0.3054927485	 1.8090312965	 1.1090765274	 0.109239
H	 0.3007747155	-0.4231158724	 2.157691466	 0.109251
H	 0.6160375018	-1.8409312186	 1.1474154416	 0.111923
H	 1.7967309771	-0.5217702725	 1.2075526038	 0.142352
H	-2.0956215714	 0.0613445758	-0.6494741859	 0.118167
H	-1.6723236672	-1.4978849736	 0.0828779226	 0.118164
H	-1.8877599914	-0.0718127658	 1.0952622056	 0.115215
H	-0.6766777847	-2.1327193464	-1.8595380482	 0.107574
H	-1.0973263932	-0.5869825541	-2.5861105411	 0.107576
H	 1.3599039636	-1.280252796	-3.3541012369	 0.286949
H	 3.5090560776	 0.2798285514	-1.2769932154	 0.308515
