16
gdb 131496	3.98344	1.19228	1.05593	3.9269	71.43	-0.248	0.0012	0.2491	1128.1064	0.125586	-434.035837	-434.028274	-434.02733	-434.068537	28.493	
O	 0.1207809503	 1.3532105394	 0.6629862352	-0.412476
C	 0.0617461351	 0.0624546697	 0.1417960785	 0.084087
C	-0.46284843	-0.9865708527	 1.0787525242	-0.337316
C	-1.2927027571	-0.5747033355	-0.1122906729	 0.033964
N	-2.50057673	 0.1777045239	 0.034588592	 0.058613
C	-2.8766708794	 1.0996738516	 0.9554993709	-0.109602
C	-4.1350045168	 1.4808331533	 0.5539736148	-0.072532
N	-4.4651974404	 0.7904333773	-0.5698407287	-0.19152
N	-3.4790606353	 0.0023458118	-0.8872229127	-0.152255
H	-0.0617542218	 1.9772225544	-0.0490120123	 0.300178
H	 0.8679569987	-0.2046516183	-0.5401953171	 0.107294
H	-0.0208805098	-1.9761172698	 1.0750211549	 0.134305
H	-0.7814918186	-0.6311569602	 2.0523217701	 0.14111
H	-1.393347654	-1.2606807926	-0.9434668269	 0.133951
H	-2.2358444747	 1.4049035137	 1.7625453788	 0.157653
H	-4.8063613863	 2.1958514241	 1.0010308513	 0.124545
