21
gdb 95585	2.28058	1.59839	1.15389	2.1712	80.07	-0.2459	0.015	0.2609	1150.8339	0.183089	-424.230087	-424.221195	-424.220251	-424.263563	34.433	
C	-0.2751085695	 1.434115434	-0.0009436076	-0.398058
C	 0.0834870618	-0.0466976852	 0.0368429154	 0.092331
O	 0.9335079677	-0.2986542497	-1.0843702196	-0.264068
C	 0.8673407161	-1.5969298547	-1.6413331802	-0.131928
C	 1.3932172829	-2.7298014995	-0.7977840252	-0.067374
C	 1.4156434218	-2.8561437219	 0.5295162479	-0.053168
C	 0.8883582728	-1.9357770547	 1.6024714442	-0.283248
C	 0.8469685709	-0.4258858999	 1.3225507	 0.131127
O	 2.1478316993	 0.1347862362	 1.2804730384	-0.441423
H	 0.6252185876	 2.0377006372	 0.1405770735	 0.137469
H	-0.726645944	 1.6927885238	-0.961904182	 0.116714
H	-0.9835359606	 1.6777020801	 0.7966806782	 0.113114
H	-0.8287753119	-0.6568708137	-0.0496939868	 0.06711
H	-0.1721853758	-1.8188991269	-1.9449992632	 0.103542
H	 1.4531665629	-1.5389342105	-2.5655209378	 0.115747
H	 1.7761842426	-3.5610592715	-1.3882043505	 0.088915
H	 1.8308521696	-3.7849445303	 0.9174662254	 0.090906
H	-0.127448141	-2.2686289543	 1.870287704	 0.10579
H	 1.4900896275	-2.0744109373	 2.5076247399	 0.113541
H	 0.3421440684	 0.0453178025	 2.1752925857	 0.078311
H	 2.4563658111	-0.0057370135	 0.3749744003	 0.284648
