12
gdb 130653	5.26266	1.37108	1.09525	1.677	60.86	-0.2642	-0.0493	0.2149	979.8191	0.079863	-468.820371	-468.814208	-468.813264	-468.851214	23.1	
O	-0.0205899984	 0.0400951921	 0.0045467939	-0.275014
C	-0.0557999179	 1.2229322902	 0.0104916381	 0.401925
C	-1.2853489447	 2.1604875889	 0.0327397647	-0.316489
N	-0.6284162794	 3.440507918	 0.0295108538	 0.022856
N	-0.9972665971	 4.7458622388	 0.0412438726	-0.16135
N	 0.1158074987	 5.4231868551	 0.0291072154	-0.172184
C	 1.2063924736	 4.5896521258	 0.0090018175	-0.189816
C	 0.71029032	 3.3156210657	 0.0097813663	 0.406068
O	 1.1017677986	 2.0112666523	-0.0022002597	-0.234428
H	-1.9066633274	 1.9898000872	-0.8507401997	 0.186356
H	-1.8810521538	 1.9811614482	 0.9320088473	 0.186373
H	 2.216073408	 4.9588954876	-0.0036173102	 0.145703
