15
gdb 30450	3.70896	1.22617	0.92679	2.4641	76.9	-0.2161	-0.0495	0.1666	1206.095	0.112628	-453.978756	-453.970653	-453.969708	-454.01195	29.445	
C	 0.1157730627	 1.3691561716	 0.0876425394	-0.325314
N	-0.024630914	-0.072913882	 0.1429738821	-0.307182
C	-1.1731272556	-0.5774495374	 0.0530610893	 0.443176
O	-1.1487382097	-2.0195405574	 0.1247344202	-0.257282
C	-2.2737534996	-2.7119011482	 0.0462778691	 0.507355
O	-2.0892583508	-4.0248085259	 0.1276937998	-0.389207
C	-3.4915901577	-2.1258842499	-0.1028323407	-0.323788
C	-3.4650580667	-0.7068320414	-0.1684235247	 0.038325
N	-2.3953831317	 0.030107114	-0.0975881849	-0.328346
H	 0.7815407959	 1.6306690861	-0.7433107798	 0.122385
H	-0.8326580481	 1.9033912119	-0.0322436732	 0.131566
H	 0.6079317425	 1.7146410198	 1.0044475509	 0.122385
H	-1.1402834957	-4.1875427176	 0.2297784052	 0.31915
H	-4.3956474447	-2.7104894055	-0.164526331	 0.122842
H	-4.4087113268	-0.174598648	-0.2877624617	 0.123935
