19
gdb 67047	2.1258	2.03576	1.58963	0.9608	73.69	-0.2188	0.0635	0.2823	960.7468	0.159187	-422.9975	-422.989549	-422.988604	-423.029296	32.005	
C	 0.0642751757	 1.5124556068	 0.0574359588	-0.486645
C	-0.0132660478	 0.0149875032	-0.0896664856	 0.3482
C	 0.7940850096	-0.6527514088	-1.2032990461	-0.24107
C	 0.3583508389	-2.1434384123	-1.1281395015	-0.234188
C	-0.9425791363	-2.1033641622	-0.3250108431	-0.125157
C	-0.8609098199	-1.4592763744	 1.0663206956	-0.004817
O	 0.3291247546	-0.680504243	 1.1704686997	-0.340296
C	-1.4041918754	-0.6936452642	-0.0977446533	 0.264462
O	-2.6266652701	-0.1859033377	-0.4749468821	-0.452485
H	 1.0929155012	 1.822885925	 0.2657251237	 0.131668
H	-0.2649458577	 2.0064056827	-0.8622981879	 0.125703
H	-0.5636358697	 1.8574048819	 0.8848285293	 0.11517
H	 0.5216450777	-0.20815368	-2.1680856584	 0.100239
H	 1.8698722501	-0.5164197655	-1.0587681372	 0.103379
H	 0.1989535197	-2.5722608454	-2.1212952546	 0.100816
H	 1.1156121116	-2.751718935	-0.6253175629	 0.110528
H	-1.698148224	-2.8737398219	-0.4361323633	 0.091573
H	-1.2843037661	-1.8818825858	 1.9700361134	 0.103326
H	-2.8824108222	 0.4946286366	 0.1581460854	 0.289597
