15
gdb 51377	3.47422	1.38555	1.19048	5.8586	64.58	-0.2497	0.0171	0.2668	1020.7413	0.111156	-457.683015	-457.675688	-457.674743	-457.715221	27.602	
O	 0.3493032372	 0.101548517	 0.1738186878	-0.276735
C	 0.6324984123	 1.2447489108	 0.3628355604	 0.183147
O	 0.734544106	 2.1370713559	-0.6470579466	-0.183338
C	 1.018113707	 3.4795968861	-0.3370196976	 0.116838
C	 1.8556038145	 4.0555529636	 0.7731231495	-0.18242
C	 3.2235124638	 3.3443902641	 1.0074327292	 0.023997
O	 3.3206375582	 2.1934768703	 0.1623338297	-0.232184
C	 3.5886930507	 3.4853511783	-0.3948836243	 0.030228
C	 2.2548296123	 4.2209541044	-0.7206568176	-0.14729
H	 0.8228280367	 1.6956389978	 1.3517555709	 0.083301
H	 0.1305665363	 4.0880722217	-0.5057968817	 0.122147
H	 1.463020452	 4.8029659714	 1.4513400264	 0.109588
H	 3.8075441728	 3.3639985488	 1.9187455085	 0.121598
H	 4.5414126715	 3.6394934064	-0.8847819819	 0.122917
H	 2.2180867387	 5.1152970836	-1.3294068928	 0.108205
