19
gdb 93173	2.80839	1.35493	0.95217	4.6468	78.86	-0.228	-0.0554	0.1725	1232.0126	0.160878	-419.253055	-419.244484	-419.24354	-419.286438	32.684	
C	-0.0510638191	 1.5439153774	 0.0527596445	-0.411049
C	-0.031211748	 0.0206403213	-0.0654002249	 0.066296
C	 0.7991238099	-0.4608850495	-1.2575163088	-0.209934
C	 0.8373892603	-1.9916492378	-1.3015571142	-0.330036
C	 1.3086378906	-2.5969048156	 0.0067892246	 0.351927
O	 1.8694704417	-3.665110344	 0.0696036979	-0.304864
C	 1.0105333935	-1.8265338531	 1.2958892603	 0.259837
N	 1.2353453009	-2.3307214068	 2.4480619847	-0.516244
N	 0.5212322034	-0.5504147604	 1.156526564	-0.32705
H	 0.9637318526	 1.9349116048	 0.175565439	 0.130318
H	-0.4939630302	 1.9907258269	-0.8419754762	 0.123698
H	-0.6469601982	 1.8636555047	 0.9143422246	 0.120315
H	-1.0698934248	-0.3247714804	-0.21763944	 0.077896
H	 0.3719667056	-0.0667296033	-2.1847436578	 0.108724
H	 1.8161601699	-0.0597263413	-1.1686810396	 0.115008
H	-0.1798071809	-2.3763137581	-1.4710266264	 0.135046
H	 1.4601918062	-2.3826904029	-2.1101134241	 0.131454
H	 1.6441589064	-3.2571029563	 2.3115489289	 0.234328
H	 0.2418991402	-0.1287871159	 2.0316660436	 0.24433
