18
gdb 77245	2.45034	1.14738	0.98713	2.576	70.6	-0.2395	0.0107	0.2502	1266.2169	0.144057	-476.18714	-476.177045	-476.1761	-476.222365	36.117	
C	-0.0134644514	 1.4230518323	 0.4450059289	-0.445404
C	 0.127717967	-0.0428554632	 0.1203609083	 0.28506
O	-1.0476778563	-0.7053408532	-0.2678587097	-0.455076
C	 1.4257304649	-0.5726110603	-0.4744292287	 0.020691
O	 2.5112039642	 0.2804095678	-0.647859465	-0.426131
C	 1.0264823125	-0.9525641569	 0.9310510597	-0.010774
O	 1.8770966953	-0.4143840756	 1.9107692693	-0.203432
C	 1.3382374918	-0.1931272443	 3.1363170529	 0.130525
N	 2.0610596814	 0.2800016139	 4.052408812	-0.435324
H	 0.9462378271	 1.8625744485	 0.7200505269	 0.141923
H	-0.3850742038	 1.9643302219	-0.4326579228	 0.117066
H	-0.7256819634	 1.5743550952	 1.2622442134	 0.121479
H	-1.2743307138	-0.4079794103	-1.1569017988	 0.285972
H	 1.3385739118	-1.3421378633	-1.2385940941	 0.105199
H	 3.0157342049	 0.2808102839	 0.1755355758	 0.307657
H	 0.6765658867	-1.9622961759	 1.1283200206	 0.11933
H	 0.2788678011	-0.4704250275	 3.195979152	 0.10591
H	 1.5192471503	 0.382910447	 4.9078416992	 0.235329
