18
gdb 49573	2.44149	1.62114	1.13727	4.1413	78.65	-0.2274	0.0235	0.2509	1098.155	0.147454	-401.912916	-401.904971	-401.904026	-401.945664	30.535	
O	 0.0613915034	-0.0174245162	-0.1669452289	-0.331072
C	 0.0753238244	 1.1942262263	-0.0970600383	 0.125734
N	 1.1749023483	 1.9387942949	 0.1773272614	-0.100084
C	 2.5745682973	 1.5432476539	 0.1481992393	 0.006665
C	 3.2169341155	 1.9774722228	-1.138526397	-0.292843
C	 2.9761973945	 3.0013368671	-0.0515965617	-0.184485
C	 1.501313832	 3.3573823844	 0.0209908884	 0.389063
C	 0.7191450471	 4.3945285426	-0.7224273294	-0.329068
C	 0.8743880352	 4.4777139773	 0.7888903437	-0.331469
H	-0.8337447691	 1.8204956541	-0.2064498391	 0.065141
H	 2.9565967869	 0.7812816746	 0.8134988513	 0.124488
H	 4.2530392205	 1.6767774076	-1.2595185247	 0.122907
H	 2.6347831899	 1.9966372264	-2.0549914375	 0.123706
H	 3.7674097558	 3.5574614105	 0.4313683732	 0.107942
H	 1.2689017558	 5.0968150369	-1.3403959215	 0.126012
H	-0.2562152702	 4.1252142955	-1.1131267296	 0.126658
H	 0.0083825135	 4.246591255	 1.3997483629	 0.127483
H	 1.5263525393	 5.2415453963	 1.2001525274	 0.123223
