22
gdb 36525	3.54773	0.92587	0.78136	4.1294	86.25	-0.3049	0.0366	0.3415	1484.7154	0.196999	-367.263239	-367.254527	-367.253583	-367.296829	33.648	
N	-0.1269796862	-1.1795049827	-0.0213875489	-0.316448
C	-0.0950898132	-0.0241802809	-0.0064006848	 0.264538
C	-0.0299611397	 1.4358235848	 0.0191113675	-0.362085
C	 1.4142490782	 1.9833094191	-0.0258307937	 0.040163
C	 2.1443827828	 1.589551719	-1.321064586	-0.193995
C	 3.5656000351	 2.1678360518	-1.3665472852	-0.200567
C	 3.5593882298	 3.6916429018	-1.1816692592	-0.179504
C	 2.8273238418	 4.0927814158	 0.1069286837	-0.204465
C	 1.4075400757	 3.510583473	 0.1525001546	-0.198555
H	-0.6048139326	 1.8243108046	-0.8308154893	 0.146871
H	-0.5358997924	 1.7853172009	 0.9268583944	 0.14624
H	 1.9593048358	 1.5429793675	 0.8208135846	 0.090058
H	 2.1713842739	 0.4990098619	-1.4190514105	 0.117319
H	 1.5706740885	 1.9679073094	-2.1801322302	 0.091748
H	 4.1682048273	 1.7074468556	-0.5715962776	 0.097688
H	 4.0460239335	 1.8996072145	-2.3137546005	 0.096146
H	 4.5845665577	 4.0778468986	-1.1710152374	 0.093818
H	 3.0594210724	 4.1583368804	-2.0419448573	 0.093169
H	 3.3940467062	 3.7271987055	 0.9742818133	 0.096769
H	 2.7863819571	 5.1835964895	 0.2003134384	 0.094803
H	 0.8034263683	 3.9610921944	-0.648645296	 0.093992
H	 0.9189672901	 3.7768721754	 1.0978275698	 0.092297
