21
gdb 78021	2.53449	1.46804	1.29531	2.2527	77.7	-0.2387	0.0634	0.3022	1104.5649	0.183145	-424.225689	-424.216863	-424.215919	-424.258458	34.985	
C	-0.0283003822	 1.4946667527	-0.0622525447	-0.481
C	-0.0263714526	-0.0142314607	 0.0052128168	 0.289344
C	-1.3151380965	-0.7450359276	-0.3670310638	-0.260594
C	-1.2617952959	-2.1241773949	 0.3263354876	-0.255757
C	-0.1984581214	-2.0174123222	 1.4544393543	 0.09476
O	 0.6876403628	-3.1513353748	 1.4971014442	-0.44123
C	 0.6254749273	-0.7828179026	 1.1506243019	-0.146556
C	 1.2664014965	-0.7615546536	-0.2158922913	 0.072895
O	 1.3241218472	-1.9147683941	-1.0040552226	-0.437103
H	 0.9347967705	 1.911368977	 0.2492332372	 0.114758
H	-0.2230746291	 1.8421588479	-1.0837963675	 0.120291
H	-0.801851371	 1.9219063516	 0.5871523964	 0.112107
H	-2.1649240997	-0.1575176204	 0.0002755939	 0.094189
H	-1.4371931549	-0.8399598817	-1.4511645083	 0.108668
H	-2.2380711861	-2.4248351093	 0.7186944706	 0.09
H	-0.9346212239	-2.8896325931	-0.3796582524	 0.113041
H	-0.681585722	-1.9089242877	 2.4354443782	 0.072547
H	 0.1557832821	-3.9412245005	 1.6408381164	 0.285178
H	 1.1257135752	-0.2843830686	 1.9741078947	 0.079752
H	 2.1523195934	-0.1326350396	-0.3077189829	 0.081651
H	 1.4522767501	-2.6545050878	-0.3940577585	 0.293058
