16
gdb 11520	4.89215	1.05173	0.95197	2.8012	67.21	-0.2647	0.0276	0.2923	1206.0091	0.127862	-383.672679	-383.664028	-383.663084	-383.706378	30.964	
O	-0.2948562201	 1.3285133109	 0.0471690606	-0.421788
C	 0.0408439083	-0.0536607481	-0.0650629449	-0.046789
C	 0.9006955144	-0.3262598822	-1.3183375075	-0.234447
C	 0.1816933361	 0.0890721877	-2.5777573493	 0.092401
C	 0.3399745039	-0.6426291371	-3.8392870634	-0.182877
O	-0.8324898728	-0.8111201039	-3.0412401956	-0.238972
C	 0.6949066912	-0.5512578551	 1.1467501075	 0.287931
C	 1.2727160597	-0.9256873225	 2.1323587295	-0.435332
H	 0.4776119833	 1.7859512541	 0.3978157441	 0.285524
H	-0.918836609	-0.5671535653	-0.196717137	 0.138389
H	 1.846338231	 0.2230263325	-1.2248715042	 0.102354
H	 1.1408748354	-1.3933739833	-1.3655472598	 0.117562
H	-0.1082239018	 1.1380667381	-2.6210311852	 0.107136
H	 0.1915952876	-0.1279471019	-4.7876032326	 0.115655
H	 1.0057577479	-1.5042884983	-3.8798936216	 0.112035
H	 1.7610378048	-1.2666441057	 3.0118861396	 0.20122
