13
gdb 47966	3.38126	0.8158	0.68949	2.519	77.78	-0.2849	-0.0857	0.1991	1525.3147	0.087657	-415.556393	-415.54762	-415.546675	-415.591179	29.705	
O	-0.7953052534	 1.0630753384	-0.4629695628	-0.223836
C	 0.2276054952	 0.8455398704	 0.1435026743	 0.021133
C	 1.3950231335	 1.6904118215	 0.0813014428	 0.06722
C	 2.3815144501	 2.3868435017	 0.0378479418	 0.044693
C	 3.5278411646	 3.2457554084	-0.0205751679	 0.017661
C	 3.8514747252	 3.8989312338	-1.3484734668	-0.245388
N	 3.3274692823	 4.7028170698	-0.2627835877	-0.313449
C	 4.6127491862	 2.9239362063	 0.8863141336	 0.255515
N	 5.4844115402	 2.6479177852	 1.592004692	-0.321129
H	 0.3431249344	-0.0360495909	 0.804024964	 0.116061
H	 4.8983787395	 4.0642063645	-1.5821614758	 0.162998
H	 3.2113980349	 3.629404294	-2.1829963863	 0.15345
H	 2.3315897673	 4.877112127	-0.381570351	 0.265072
