21
gdb 106279	2.72675	1.30621	1.07775	1.6127	79.39	-0.2442	0.085	0.3292	1231.6136	0.18037	-424.18168	-424.172254	-424.17131	-424.215581	36.09	
C	-0.080527644	 1.4949087505	-0.2197804209	-0.38066
C	-0.0792196122	-0.0194655847	 0.0166219496	-0.316766
C	-1.4510010097	-0.5998461054	 0.1830846358	 0.369766
C	-2.5794753	-0.2815558229	 1.1903267003	-0.307592
C	-3.175232254	-1.1945832804	 0.0976911224	 0.350509
C	-4.5916370836	-1.5715572951	-0.1972538477	-0.514057
O	-2.4405022923	-0.3831388164	-0.9282311056	-0.410696
C	-1.9032331671	-2.0911846589	 0.1856108325	 0.10844
O	-1.5799057245	-2.869464357	-0.9190651582	-0.452199
H	 0.9352541219	 1.8631985248	-0.3898720021	 0.113281
H	-0.6890903984	 1.7469989328	-1.092369494	 0.137968
H	-0.4921379551	 2.0309434838	 0.6414160877	 0.117537
H	 0.4051106969	-0.5352068053	-0.821994666	 0.112369
H	 0.5037008524	-0.2692557277	 0.9122346221	 0.107652
H	-2.4914059341	-0.6820988795	 2.2044469142	 0.093256
H	-2.9400963299	 0.7470930445	 1.1681114838	 0.109909
H	-5.1973880787	-0.6839302216	-0.4024059827	 0.133631
H	-4.6348094601	-2.2343969697	-1.0671654281	 0.133887
H	-5.025990869	-2.0994999054	 0.6575721374	 0.128651
H	-1.7452205113	-2.6785815047	 1.0935132255	 0.081569
H	-1.7432837272	-2.2885421817	-1.6779517362	 0.283546
