13
gdb 16091	4.8234	1.74639	1.49404	4.2876	63.21	-0.2727	-0.0261	0.2466	816.9194	0.096218	-361.459072	-361.452758	-361.451814	-361.489443	24.08	
N	 0.0005286884	-1.1270966848	 0.1131045632	-0.333376
C	 0.0356557188	 0.0255957927	 0.03367983	 0.226373
C	 0.0489559555	 1.4610862125	-0.0978123841	 0.283679
C	-0.9485805666	 2.1612904924	-1.022315325	-0.338891
C	-0.2015132162	 3.4126874624	-1.4339456016	-0.077652
C	 1.0366580039	 3.4595587854	-0.9362338113	-0.076279
C	 1.2878165451	 2.2804052438	-0.0578595534	-0.056567
O	 0.3951108212	 2.2022380034	 1.0734791109	-0.275841
H	-1.1982184411	 1.5283308278	-1.8818769237	 0.139702
H	-1.8855290916	 2.3819868453	-0.4988884333	 0.145738
H	-0.6622881745	 4.1777868829	-2.0474743484	 0.118911
H	 1.7661437464	 4.2419004257	-1.098620291	 0.118812
H	 2.2733559906	 1.8573583006	 0.1069486475	 0.125391
