25
gdb 58773	2.37231	1.23769	1.15673	0.3029	93.04	-0.2354	0.0795	0.3148	1299.4936	0.227827	-352.346577	-352.336412	-352.335468	-352.381112	39.269	
C	 0.0571081845	 1.4469022859	-0.2446480716	-0.385123
C	 0.0375437162	-0.0497894531	 0.1096391765	-0.08032
C	 0.8140955013	-0.3184290569	 1.4086643121	-0.395562
C	-1.3799428152	-0.5741253575	 0.165019905	 0.368709
C	-2.1303403981	-0.9940790294	-1.075461352	-0.388117
C	-1.9317989931	-2.005040033	 0.0254825377	 0.296974
C	-1.2370369384	-3.3205138705	-0.1858284487	-0.497172
C	-2.9620537526	-1.7289557294	 1.1286633727	-0.275269
C	-2.4137906599	-0.2711470487	 1.2647412129	-0.294088
H	 1.0835195184	 1.8204597788	-0.3249898554	 0.105736
H	-0.4498893547	 1.6348831068	-1.1960815594	 0.114206
H	-0.450792262	 2.0367920666	 0.5270337326	 0.114327
H	 0.5495012188	-0.5905237221	-0.6991794314	 0.066677
H	 0.3823329674	 0.230453007	 2.2529319072	 0.114077
H	 0.8091467445	-1.3830134211	 1.6631444511	 0.112433
H	 1.8569454757	 0.0012941408	 1.3113956469	 0.107886
H	-3.1196157818	-0.5936411808	-1.2931211163	 0.094385
H	-1.513314432	-1.1467108828	-1.9569457568	 0.100443
H	-0.4049020071	-3.2267466665	-0.8916450094	 0.114982
H	-0.8358156338	-3.7190301491	 0.7536281629	 0.112356
H	-1.9263389552	-4.071153271	-0.5930132211	 0.117268
H	-4.0147468134	-1.8385973151	 0.8444401104	 0.089174
H	-2.7851924906	-2.3205115119	 2.0313348106	 0.095928
H	-1.9695878625	-0.0892949664	 2.2458582941	 0.099737
H	-3.1164921964	 0.5409380493	 1.0484286094	 0.090352
