19
gdb 92990	3.28876	1.0762	0.88598	1.3782	82.61	-0.2471	0.0141	0.2613	1321.5351	0.158582	-385.86503	-385.856169	-385.855225	-385.898746	33.971	
O	 0.0748141837	 1.4564852286	 0.0769269899	-0.42666
C	 0.0233931467	 0.0358486355	 0.0419539155	 0.094345
C	 0.6486409008	-0.5788973077	 1.3178262771	-0.283692
C	-0.5530084438	-0.759461956	 2.2194923488	-0.091727
C	-1.692337442	-0.7168969385	 1.5275164294	-0.068714
C	-1.4388709968	-0.502936866	 0.0495304952	-0.051099
C	-2.4499582793	 0.4090894914	-0.6776526277	-0.361175
C	-3.7991206162	-0.1433900679	-0.680126538	 0.291979
C	-4.9030335948	-0.6199791753	-0.6669482158	-0.441793
H	-0.2897782797	 1.7356749977	 0.9252803598	 0.281699
H	 0.5572449295	-0.242384739	-0.8702553428	 0.084855
H	 1.1258529649	-1.5456176466	 1.1038910745	 0.111465
H	 1.427341532	 0.0764298943	 1.7225079363	 0.10907
H	-0.4704052681	-0.9408706757	 3.2852910959	 0.095532
H	-2.6892258175	-0.8542716906	 1.9299464906	 0.108569
H	-1.4550611983	-1.47841315	-0.458618784	 0.094579
H	-2.4543401683	 1.4003485174	-0.2125921436	 0.126818
H	-2.1131813516	 0.5666014651	-1.7096598913	 0.133386
H	-5.883341361	-1.0275058469	-0.6656251397	 0.192562
