21
gdb 111999	2.75918	1.30076	1.14217	1.4889	83.06	-0.2216	0.0071	0.2287	1193.1883	0.183164	-387.083739	-387.075111	-387.074167	-387.116804	33.957	
C	-0.1195851796	 1.646464288	-0.0000916977	-0.386253
C	-0.1380067972	 0.115668427	-0.033677389	-0.18327
C	 0.732674011	-0.4918887738	-1.154092533	-0.024791
C	 2.2296439148	-0.2444637461	-1.0502964718	-0.108725
C	 2.9451416356	-1.3595949745	-1.2370679956	-0.10239
C	 2.0773424057	-2.5633675704	-1.3901538471	-0.153751
C	 1.2347604464	-2.8751947885	-0.1691511141	 0.127742
O	 1.5505437093	-2.4133966181	 1.1092385272	-0.422786
C	 0.6445213666	-2.0194928256	-1.2621001763	-0.131223
H	 0.8790702034	 2.0378614232	 0.2209522987	 0.113486
H	-0.4348668659	 2.0697944106	-0.9609327471	 0.11167
H	-0.7976100136	 2.029462515	 0.7688885413	 0.114221
H	 0.1758448762	-0.2938104462	 0.9310692145	 0.115953
H	-1.1686247162	-0.2276346931	-0.1867517829	 0.096415
H	 0.3842154742	-0.0513911262	-2.1023244964	 0.08187
H	 2.6477136761	 0.7396542069	-0.8700356337	 0.099114
H	 4.0284119541	-1.4149018843	-1.2412877897	 0.099858
H	 2.3622997044	-3.3601161435	-2.0688106142	 0.085838
H	 0.8483641707	-3.8878001502	-0.1069905479	 0.1049
H	 2.1838634138	-1.6908463707	 1.0046056911	 0.279427
H	-0.1658211499	-2.4422455394	-1.846075066	 0.082696
