20
gdb 38387	4.18322	1.23585	1.19294	1.6016	83.12	-0.2226	0.0842	0.3068	1119.3508	0.172796	-365.928266	-365.920929	-365.919984	-365.959874	30.089	
C	 0.0051445243	 1.4676733223	-0.1153809241	-0.235089
C	 1.5698268326	 1.4428134899	-0.089254402	-0.23055
C	 1.532690946	-0.084448791	 0.0573157821	-0.116526
C	-0.0087774253	-0.0584037823	 0.0316194152	-0.147275
C	 0.7740873161	-0.6957873375	-1.073484058	 0.43974
C	 0.7356804384	-0.3895427297	-2.5973607369	-0.323626
C	 0.6675869518	-1.9068203116	-2.8304830684	-0.036113
N	 1.8919801142	-2.487258635	-2.2238950716	-0.336264
C	 0.7107088567	-2.1815613294	-1.3687951246	-0.182861
H	-0.4127752401	 1.9828859	 0.7521607969	 0.10229
H	-0.470105018	 1.8684572728	-1.0173287377	 0.093562
H	 2.0868094518	 1.8251588523	-0.9754133573	 0.097655
H	 1.972838086	 1.9478319652	 0.7912493466	 0.102026
H	 2.2031651679	-0.6771544445	 0.6687978661	 0.08275
H	-0.7175923689	-0.6275131743	 0.6238140991	 0.077956
H	-0.1772832539	 0.1322474022	-2.8971779667	 0.103004
H	 1.6084777492	 0.1075701986	-3.0286064237	 0.10669
H	 0.1377909293	-2.4284561192	-3.6177044058	 0.091171
H	 1.8625170408	-3.4901720045	-2.4122164604	 0.223411
H	 0.2310883713	-2.9574997643	-0.7835234188	 0.08805
