22
gdb 59880	3.86906	0.78331	0.75776	3.2728	85.74	-0.2412	0.0361	0.2772	1652.3265	0.193066	-404.384586	-404.374176	-404.373232	-404.423116	37.645	
C	 0.3934013994	 1.6558710517	-0.3131367083	-0.380447
C	 0.034971711	 0.2063944989	 0.0396050745	 0.055007
C	 0.3651940532	-0.7624971423	-1.1002217753	-0.38779
N	 0.6966261629	-0.2140533775	 1.2708452615	-0.342224
C	 0.044543266	-0.3616887095	 2.4609097014	 0.447643
O	-1.1576504118	-0.1773202764	 2.5887635509	-0.402987
C	 0.9117896672	-0.7769955119	 3.6089104577	-0.130552
C	 0.5433834931	-0.2346052802	 4.9770473027	-0.248622
C	 0.2767411121	-1.6697816578	 4.6579620558	-0.248244
H	 1.4682346805	 1.761197742	-0.5040514433	 0.104765
H	-0.1383954507	 1.9782005141	-1.2141542292	 0.11695
H	 0.1238101084	 2.3292635993	 0.5048269669	 0.129588
H	-1.0327579193	 0.151540018	 0.2670666859	 0.125989
H	 1.4391870786	-0.7579235119	-1.3247877414	 0.106369
H	 0.0760241674	-1.7845476437	-0.8406581826	 0.12487
H	-0.1626166257	-0.4756908561	-2.0148549251	 0.120515
H	 1.6948465409	-0.3510422228	 1.2479775325	 0.235859
H	 1.9667355333	-0.9266585348	 3.4013819127	 0.072871
H	 1.3557903082	 0.0114025586	 5.6512317048	 0.111195
H	-0.3085825634	 0.4344624137	 5.0023758168	 0.138688
H	-0.7521348314	-1.9522249747	 4.4695167283	 0.139296
H	 0.9010298403	-2.4330444463	 5.1081048328	 0.111263
