15
gdb 28054	6.42169	0.81144	0.74393	3.8626	70.83	-0.2313	-0.0047	0.2267	1461.5824	0.111327	-457.811766	-457.803403	-457.802459	-457.845606	29.472	
C	-0.0042653564	 1.4382436386	 0.1641743963	-0.488713
C	-0.0420230901	-0.0326490447	-0.0419941909	 0.398382
C	-1.0496845833	-0.918458264	-0.2700782501	-0.402212
C	-0.4226257131	-2.1989670808	-0.3803948441	 0.31767
O	-1.0869243914	-3.3722652451	-0.6432455456	-0.215953
C	-0.8795316286	-4.4222543339	 0.2016898514	 0.154205
O	-1.3454531682	-5.4982719801	-0.0011048539	-0.256113
C	 0.9143008343	-2.0115808526	-0.2156670952	-0.133846
O	 1.1540286665	-0.6881983049	-0.0025415508	-0.174173
H	 0.6055850267	 1.9328066146	-0.5998969224	 0.145511
H	-1.0158415339	 1.8459549402	 0.1134016815	 0.141558
H	 0.4218119565	 1.6936643358	 1.1406475037	 0.144604
H	-2.1029440021	-0.7049875023	-0.3531355502	 0.12736
H	-0.2470120202	-4.1387033777	 1.0620006537	 0.093973
H	 1.7697850833	-2.6641377831	-0.2436271835	 0.147745
