16
gdb 73002	2.60678	1.6713	1.27092	2.9303	66.43	-0.2291	-0.0398	0.1893	992.6914	0.123066	-474.972835	-474.964874	-474.96393	-475.00487	31.126	
O	-0.2118823697	 1.4155840965	 0.0868677669	-0.452845
C	-0.146067441	 0.0538595123	 0.0443666366	 0.342068
C	 0.6164094001	-0.6877747071	-1.046190575	-0.240264
N	-0.3140091517	-1.8680527005	-0.8935348682	-0.365735
C	-1.1668790526	-1.0686347771	 0.0083565376	-0.174504
C	-0.2895009916	-0.881340318	 1.2624015532	 0.252399
O	 0.6279024081	-1.8606790126	 1.6148910484	-0.484461
C	-0.9761649054	-0.2708404588	 2.4140769805	 0.103458
O	-1.6291772042	 0.7565920679	 2.3552273422	-0.312464
H	-0.7931681683	 1.6375888435	 0.8360106223	 0.308867
H	 0.503029357	-0.1868303372	-2.0105316498	 0.130341
H	 1.668145678	-0.9213579634	-0.8603193539	 0.125258
H	-0.7864893102	-2.0914756583	-1.7621271782	 0.240451
H	-2.24785813	-1.1388210734	 0.0363464461	 0.117845
H	 0.5926496498	-2.5125668896	 0.8940323868	 0.298607
H	-0.8390854085	-0.8197321944	 3.3664193144	 0.11098
