19
gdb 95389	2.2201	1.68698	1.00014	3.467	79.2	-0.2518	-0.0547	0.1971	1185.0451	0.159528	-423.076295	-423.067659	-423.066715	-423.109389	32.951	
C	-0.0537767462	 1.5046330294	 0.0737691853	-0.480112
C	-0.0311788701	 0.0033664388	-0.0085165892	 0.218828
C	-0.0231686177	-0.6889762682	-1.1607675543	-0.125064
C	 0.0412854735	-2.1878015362	-1.2625385678	-0.275356
C	 0.5333322395	-2.8468961162	 0.0323638093	-0.235513
C	-0.2060737595	-2.2480502555	 1.2284231669	 0.059675
O	 0.1887298815	-2.8336369265	 2.437269724	-0.446905
C	 0.0143876791	-0.7363272773	 1.2720856422	 0.294541
O	 0.2014119469	-0.1910452685	 2.3470290983	-0.355375
H	 0.8219149441	 1.8744275586	 0.616324277	 0.145832
H	-0.0694810712	 1.9556245947	-0.9213609235	 0.117663
H	-0.9295761397	 1.8534853013	 0.6314689415	 0.138
H	-0.0661662392	-0.1398717931	-2.1002950043	 0.100842
H	-0.9618126096	-2.5647451213	-1.5181406103	 0.124689
H	 0.6788656359	-2.4692453819	-2.1084506226	 0.117294
H	 0.3814171178	-3.9297662949	 0.0080102182	 0.113158
H	 1.6079522697	-2.6711721863	 0.1610318072	 0.112349
H	-1.2936225773	-2.3902514367	 1.0657622643	 0.085028
H	 0.2880744826	-2.0901372004	 3.0541332579	 0.290426
