14
gdb 2877	6.67654	1.91669	1.58965	4.0748	62.51	-0.2595	0.0069	0.2663	752.3547	0.115459	-287.470402	-287.464209	-287.463265	-287.500616	22.819	
N	-0.4837157629	-0.975660316	-0.7297021174	-0.327761
C	-0.2396031049	 0.0881998894	-0.3486147661	 0.261941
C	 0.0734578059	 1.4265974313	 0.1394837077	-0.132395
C	-0.4463357914	 1.710123729	 1.5840661963	-0.262886
C	 0.6171298217	 2.6268385581	 2.1377681692	-0.062372
C	 1.7148237044	 2.6445138622	 1.3852314896	-0.062375
C	 1.6017180723	 1.7430962612	 0.1800061101	-0.262886
H	-0.4019712417	 2.1445026871	-0.5371519535	 0.131137
H	-1.4470341073	 2.1528924423	 1.570675016	 0.121998
H	-0.5192173868	 0.7862273938	 2.1720291187	 0.132623
H	 0.485480233	 3.1640344833	 3.069894143	 0.104178
H	 2.6197682279	 3.1984007421	 1.6067109804	 0.104177
H	 2.1965278741	 0.8299468495	 0.3102250712	 0.132623
H	 1.9400992059	 2.2074206968	-0.7514023551	 0.121999
