17
gdb 15335	3.83329	1.01879	0.87346	2.1198	74.49	-0.2367	0.0375	0.2742	1335.6352	0.141081	-363.804683	-363.795505	-363.794561	-363.840179	31.58	
C	 0.1505041606	 1.5153795653	 0.1455816775	-0.500304
C	 0.0525961223	 0.0639394297	 0.1043901947	 0.095009
C	-0.0352108835	-1.1372832828	 0.0804394383	 0.129167
C	-0.0997280678	-2.5723156592	 0.0188201284	-0.260757
N	-0.7886045405	-3.2922507602	 1.1221942789	-0.335228
C	-1.3658458687	-3.3320852572	-0.2296869498	-0.022169
C	-2.7133046325	-2.6589662493	-0.3426274264	-0.074688
O	-3.7065829227	-3.3988394958	 0.3478090131	-0.422098
H	 1.1917620639	 1.8455555209	 0.0616845513	 0.149738
H	-0.411785407	 1.9779217355	-0.6731726191	 0.149616
H	-0.2475150555	 1.9107952328	 1.0865709651	 0.152999
H	 0.8016366037	-3.0419843829	-0.3711331577	 0.107843
H	-0.2875890308	-4.153788743	 1.32294954	 0.237138
H	-1.2652823121	-4.2614912707	-0.7876452451	 0.093492
H	-2.6377227404	-1.6298613669	 0.0337444799	 0.103222
H	-3.0299795732	-2.6138278727	-1.3897885833	 0.107306
H	-3.3976674957	-3.4640889136	 1.2593204341	 0.289714
