17
gdb 60698	4.37961	0.6042	0.5415	5.2015	75.62	-0.2502	-0.0697	0.1806	1916.2767	0.132011	-455.152963	-455.14268	-455.141735	-455.190148	34.676	
N	 0.1797613656	 1.25788534	 0.4645301179	-0.558007
C	 0.0199597225	 0.0190402319	-0.1193811859	 0.276533
C	 1.3086988247	-0.7713728208	-0.1999608607	 0.132925
O	 1.4065822947	-1.8735925954	-0.6588540089	-0.219346
N	-1.060648335	-0.5168964879	-0.5342601178	-0.251243
C	-2.2854777424	 0.2521471832	-0.4401539362	-0.172383
C	-3.440624558	-0.5014535309	-1.1152404015	-0.268107
C	-4.7766551985	 0.1473122791	-0.8453109479	 0.151713
O	-5.5467588521	 0.5316710681	-1.6871462158	-0.234737
H	 1.1092973768	 1.6437226849	 0.5191031988	 0.261384
H	-0.5544128533	 1.9398228484	 0.3676267914	 0.266387
H	 2.1950272085	-0.2314859714	 0.2127840853	 0.069541
H	-2.5368675597	 0.4433328823	 0.6176530005	 0.10905
H	-2.1789356124	 1.2447144075	-0.9139714201	 0.102713
H	-3.2820131035	-0.5782193593	-2.1932743189	 0.130446
H	-3.4628095157	-1.517089106	-0.6977861345	 0.135833
H	-5.0199781523	 0.2557452262	 0.2397644941	 0.067299
