11
gdb 48217	1.86964	1.44606	1.31804	2.7008	62.21	-0.3119	-0.1159	0.1961	1035.8077	0.061654	-451.553321	-451.544187	-451.543242	-451.588727	29.521	
O	-0.0481778742	-0.0330970144	-0.1909147335	-0.189838
C	 0.0556521125	 1.0764657932	 0.2265138467	 0.154968
C	 1.4073009703	 1.8901574883	 0.1526572178	-0.282956
C	 1.2531637707	 2.7321022582	-1.174688171	 0.154985
O	 0.8486036752	 3.8512282567	-1.1806390116	-0.189837
C	 1.5027330539	 2.7645640861	 1.3178579189	 0.312779
N	 1.5241761469	 3.4442057518	 2.2504157313	-0.294091
C	 2.5508537844	 0.9925459033	 0.0187720477	 0.312792
N	 3.4566862393	 0.2956731832	-0.1420731558	-0.294094
H	-0.7690622656	 1.6693853278	 0.6626828534	 0.157651
H	 1.5195265165	 2.1495847959	-2.075635934	 0.157641
