21
gdb 72721	2.56581	1.94698	1.53804	1.8966	81.92	-0.2303	0.0627	0.293	968.9166	0.183957	-386.977538	-386.970213	-386.969269	-387.0085	31.585	
C	-0.0973174215	 1.5139249425	-0.1013845557	-0.446108
C	-0.0844327573	-0.0227811155	-0.0534103004	 0.273294
C	-1.2842842999	-0.4247248833	 0.890400553	-0.210448
O	-0.3314956994	-0.4276886397	 2.034813119	-0.374297
C	 0.6981338797	-0.6971110859	 1.0301207586	 0.416505
C	 2.0191660173	-0.2225142073	 0.3375406899	-0.334416
C	 1.0984420399	-0.6037214389	-0.9499065265	-0.114117
C	 1.0212907758	-2.1263267981	-0.8388493249	-0.213499
C	 0.7601377482	-2.217713116	 0.6890234875	-0.258019
H	 0.788947231	 1.9492335573	-0.5675664858	 0.112412
H	-0.9584674999	 1.8320463357	-0.7011480863	 0.112194
H	-0.211509988	 1.9469290137	 0.8977219688	 0.132633
H	-2.0525331361	 0.3397581814	 1.0279700792	 0.111189
H	-1.7453436814	-1.4061757734	 0.7587415084	 0.109527
H	 2.2405354159	 0.8382624564	 0.4100829802	 0.119038
H	 2.9274909788	-0.8159306996	 0.4812080148	 0.094576
H	 1.3214515691	-0.1623231169	-1.9228555402	 0.070222
H	 0.2057873852	-2.545502689	-1.4349938279	 0.099398
H	 1.950424419	-2.611629522	-1.1512832572	 0.098176
H	 1.5801311091	-2.6913563004	 1.2355933011	 0.099336
H	-0.1538064355	-2.754194291	 0.9437462142	 0.102404
