24
gdb 122421	5.53208	0.6091	0.59116	1.3979	88.68	-0.2065	0.0892	0.2958	2028.3634	0.215553	-405.517259	-405.506633	-405.505689	-405.553951	37.937	
C	 0.0179177701	 1.4556916848	-0.296994168	-0.382739
C	-0.0697112492	-0.0065303674	 0.1460980919	-0.181438
C	-1.4649488951	-0.5880493229	-0.0367605188	-0.041545
O	-1.4546059033	-1.9337672147	 0.3984470552	-0.257777
C	-2.7003841878	-2.5708811713	 0.2991725289	 0.13839
C	-3.0719373206	-3.1213481301	-1.1088421082	-0.199014
N	-2.5853414464	-4.447836332	-0.6888359114	-0.054409
C	-3.3240775942	-5.6192930297	-1.092279688	-0.318838
C	-2.6032334211	-4.0481812623	 0.7308640592	-0.191646
H	 1.0291117057	 1.8484956378	-0.1573190614	 0.117363
H	-0.237775051	 1.5685475546	-1.3564719071	 0.115872
H	-0.6661925686	 2.0901752492	 0.2775156471	 0.115435
H	 0.6383756308	-0.6200410807	-0.4224773631	 0.109114
H	 0.2112207864	-0.1031747052	 1.2010693514	 0.106287
H	-2.2036620776	-0.0078422442	 0.544267586	 0.081257
H	-1.7678460957	-0.522893026	-1.0952720747	 0.085941
H	-3.4789975056	-1.9708970027	 0.7890569595	 0.064727
H	-4.1590860084	-3.0845086942	-1.2922652164	 0.077885
H	-2.5496188128	-2.69051054	-1.9706400136	 0.102228
H	-3.272419241	-5.7364972769	-2.1802449788	 0.119221
H	-2.8818814231	-6.5134467288	-0.6395265722	 0.119955
H	-4.3940036971	-5.5848595529	-0.8039209567	 0.083461
H	-1.7088217666	-4.3194709161	 1.3010754877	 0.110723
H	-3.5011097777	-4.3826507583	 1.2761128215	 0.079547
