19
gdb 73158	2.75898	1.5744	1.33059	1.8766	74.96	-0.2408	0.0659	0.3067	1032.8875	0.158928	-422.97966	-422.971705	-422.970761	-423.012116	31.631	
O	 0.2053030809	 1.445022586	-0.0931721524	-0.476566
C	 0.0459756702	 0.0776164855	 0.0574061075	 0.366767
C	-1.416044585	-0.4215508636	 0.0538785996	-0.281187
C	-1.143685536	-1.2871298385	 1.3222120326	-0.21903
C	 0.3319760646	-0.8170062068	 1.3540429548	-0.107181
C	 1.2984525543	-1.6997795472	 0.5081166692	-0.324548
C	 1.0594326359	-0.7877825249	-0.6976558758	 0.345532
C	 1.2917582328	-0.9083570579	-2.1357801128	-0.265386
O	 2.1507226375	-0.0964033706	-1.3110542639	-0.283931
H	 1.0873696431	 1.5770622009	-0.4707532126	 0.289676
H	-2.1008168404	 0.4082877653	 0.2418418933	 0.117646
H	-1.7443414746	-0.9445252104	-0.8493159024	 0.094177
H	-1.7236737332	-0.9657667928	 2.1899855772	 0.106396
H	-1.2815098226	-2.3653485554	 1.2020661723	 0.095883
H	 0.7245994289	-0.4186377221	 2.2888540614	 0.073735
H	 2.3411359929	-1.6664975709	 0.8339604427	 0.120658
H	 0.9991527856	-2.744774896	 0.3873885895	 0.104336
H	 1.7619268792	-1.8031151323	-2.5406597413	 0.121274
H	 0.6617293256	-0.3562060483	-2.831860259	 0.12175
