19
gdb 68820	2.78193	1.20727	1.03856	1.9703	77.	-0.2415	-0.0252	0.2164	1208.3704	0.156972	-423.006942	-422.997827	-422.996883	-423.040864	34.202	
C	 0.1943380743	 1.5560794668	-0.0580498689	-0.504624
C	 0.0577804046	 0.0628966852	 0.0416204136	 0.240658
C	 1.1656190322	-0.8856005262	-0.3826042926	-0.358961
C	 0.6480033517	-0.9823659623	 1.0109422117	 0.376367
O	 1.5309761416	-0.8631643021	 2.0646911879	-0.453735
C	-0.6666579874	-1.7555457484	 1.0383653423	-0.332122
C	-1.2705894287	-0.7331392943	 0.0022208552	-0.126154
C	-2.4491154535	 0.0057627945	 0.5750629209	 0.161444
O	-3.5051851361	 0.1684130126	 0.0206825874	-0.257315
H	 1.2034548723	 1.8671949803	 0.2305260665	 0.128901
H	 0.0199612193	 1.9057251628	-1.0825495908	 0.131135
H	-0.5136328277	 2.0803490202	 0.5932733349	 0.11895
H	 0.9912158388	-1.6740176309	-1.1127555154	 0.106433
H	 2.1412035779	-0.4140298576	-0.4508095763	 0.122291
H	 1.0457399197	-0.5486858355	 2.8360554497	 0.284799
H	-0.6398365167	-2.8056699715	 0.7317483727	 0.11268
H	-1.175400428	-1.6865182912	 2.0068894455	 0.100564
H	-1.5475280656	-1.1442700883	-0.9726627948	 0.086941
H	-2.2776005386	 0.404071276	 1.6054506204	 0.061747
