17
gdb 34526	3.84627	1.30771	1.23185	0.7458	86.85	-0.2145	-0.0281	0.1864	1058.4812	0.137516	-347.517096	-347.510097	-347.509153	-347.548241	29.164	
C	 0.0783468923	-1.1892844849	-0.0173403407	-0.377624
C	-0.0225469115	 0.012816797	-0.0147794494	 0.108107
C	-0.0770590257	 1.4185552898	-0.0194914591	 0.252592
C	-1.140844409	 2.2382398323	-0.0047789169	-0.193698
C	-0.6118951176	 3.6805173356	 0.0364106121	-0.104716
C	 0.6386046576	 3.4911293206	-0.8762961149	-0.201914
C	 1.1822173476	 2.3347812402	 0.0128346518	-0.166738
C	 1.1798656444	 3.060685987	 1.3693920497	-0.076843
C	 0.1155245329	 3.8623379819	 1.3855306033	-0.070209
H	 0.1472419247	-2.2485122899	-0.0186427382	 0.184509
H	-2.1841073867	 1.9565568941	 0.026367	 0.108899
H	-1.3291620694	 4.455435282	-0.2308159984	 0.064579
H	 0.3888438247	 3.1757106741	-1.892943472	 0.099074
H	 1.29524956	 4.364932671	-0.8918810221	 0.098411
H	 2.111329232	 1.848747688	-0.2791493148	 0.071572
H	 1.897681238	 2.8811367489	 2.1579591998	 0.102966
H	-0.2424934042	 4.4887998224	 2.1911738496	 0.101035
