20
gdb 103242	2.75738	1.60841	1.23936	1.4392	78.53	-0.2198	0.0591	0.2789	1077.1762	0.169415	-403.039275	-403.030555	-403.029611	-403.072419	33.577	
C	 0.1770112435	 1.3207100217	-0.1997322387	-0.260255
O	-0.2763162928	 0.0438613039	 0.2199743469	-0.285206
C	 0.5612771715	-0.5888624873	 1.150346992	 0.408257
C	 0.4764002299	 0.0363069741	 2.5380394919	-0.450033
C	 0.7240474246	-2.0770808973	 1.198195323	-0.159027
C	 1.0091994214	-2.7820032581	-0.1377629722	-0.041953
C	 1.0376164048	-1.9330758362	-1.3445395286	-0.255548
N	 2.2078050827	-1.9223296199	-0.4255860672	-0.162942
C	 1.9226403713	-1.1741592585	 0.8581421673	-0.08535
H	 1.2035761711	 1.2751889768	-0.5881155182	 0.121437
H	-0.4948566152	 1.6455284218	-0.9975909491	 0.12849
H	 0.1396193724	 2.0615699966	 0.6097209093	 0.114544
H	-0.5645290774	 0.0395454133	 2.8754490455	 0.129593
H	 1.0740996512	-0.521483192	 3.2633340814	 0.124751
H	 0.8392249357	 1.0684957158	 2.5343191571	 0.122091
H	 0.5221605101	-2.6354912313	 2.1043325206	 0.090381
H	 1.0958407507	-3.8635273885	-0.1793826584	 0.098014
H	 1.2933016598	-2.4391147847	-2.2721487827	 0.115152
H	 0.3852643798	-1.0802740273	-1.4388882668	 0.151223
H	 2.7952926649	-0.9152422929	 1.4475266467	 0.096381
