21
gdb 36427	4.13599	0.94352	0.8745	0.8605	87.89	-0.2516	0.0587	0.3103	1392.5099	0.182504	-349.894919	-349.886184	-349.88524	-349.928929	33.745	
C	-0.002889805	-1.1761721507	-0.235318262	-0.451012
C	-0.0362185255	 0.0165749383	-0.0874356698	 0.304893
C	-0.0374251338	 1.464475792	 0.0898197842	-0.381619
C	 1.3779316626	 2.0567677467	 0.0949276674	 0.047818
C	 2.2216319129	 2.0376803708	-1.2145046009	-0.250813
C	 2.6454750452	 3.5154160097	-0.9601346026	-0.0055
C	 1.8550432503	 4.5639773476	-1.7740880912	-0.218327
C	 0.7001735272	 4.493362639	-0.7289243632	-0.233998
C	 1.5782223648	 3.5914047023	 0.1929638058	-0.053632
H	 0.0119876669	-2.2294769546	-0.3665062204	 0.192313
H	-0.633680896	 1.9224344343	-0.709542413	 0.126185
H	-0.5432376896	 1.7189437449	 1.031167389	 0.126405
H	 1.9452062309	 1.5768025529	 0.8990052005	 0.082652
H	 3.0289268306	 1.3031657757	-1.2373532437	 0.104339
H	 1.6257527496	 1.9100539093	-2.1246069037	 0.096779
H	 3.7106061396	 3.6846587716	-0.796887965	 0.06155
H	 2.3414899076	 5.5433349411	-1.7861569074	 0.098328
H	 1.6102282665	 4.2918249292	-2.8055694428	 0.093734
H	 0.4319628612	 5.4549687253	-0.2856844972	 0.102703
H	-0.221980054	 4.0307393188	-1.090981708	 0.097944
H	 1.7879952781	 3.9996474256	 1.183303814	 0.059257
