17
gdb 114166	4.24045	1.00001	0.89186	2.4425	76.91	-0.2383	0.0093	0.2476	1296.1453	0.134144	-421.740381	-421.731823	-421.730879	-421.77366	32.574	
O	-0.0753511616	 1.3687141482	-0.2996332592	-0.418516
C	 0.0325537988	 0.0367858028	 0.1654992751	-0.086216
C	-1.3145075297	-0.6584178878	 0.0934438381	 0.112093
O	-1.8488895946	-0.6376581533	-1.2692816243	-0.348529
C	-2.1161049533	-2.0505944823	-1.2042146368	 0.318666
C	-0.8284900505	-2.8138434933	-1.0680355644	-0.340604
C	-1.4362735589	-2.1775522838	 0.1598822094	-0.213665
C	-3.3378634829	-2.5526271122	-1.7246340516	 0.219807
C	-4.3695174339	-2.9776567371	-2.1742669582	-0.412214
H	-0.4702577986	 1.3174297825	-1.1785074566	 0.296584
H	 0.7844431545	-0.5308995298	-0.4023920766	 0.088519
H	 0.3684593358	 0.0868821294	 1.2072954274	 0.112147
H	-2.0302199403	-0.158338975	 0.7566096262	 0.099672
H	-0.9285171801	-3.8933207752	-1.1055204479	 0.13395
H	 0.0648563244	-2.4136556145	-1.5367164035	 0.125354
H	-1.7494542361	-2.7489424193	 1.022260457	 0.116579
H	-5.2819731929	-3.3502084693	-2.569764534	 0.196372
