20
gdb 60242	3.03992	0.93397	0.85299	1.5546	76.62	-0.2598	0.0308	0.2906	1440.4533	0.169971	-440.286561	-440.276914	-440.275969	-440.321689	35.11	
C	 0.0817022942	 1.5629411931	 0.0273203541	-0.400332
C	 0.0223604487	 0.0362029635	-0.0113369654	 0.120175
O	 0.7023421215	-0.5319544263	 1.1115566808	-0.437728
C	-1.4134863456	-0.489079028	 0.0568737738	-0.207941
C	-1.4791270713	-2.0077132713	-0.0920438236	-0.130287
C	-2.8634050758	-2.6880268165	-0.1734330757	-0.114053
O	-2.5465800307	-3.1916103768	-1.5105222497	-0.255212
C	-1.3159080316	-2.5690143998	-1.4928415855	 0.440874
N	-0.4247185867	-2.502846717	-2.3744012486	-0.5479
H	 1.1206450831	 1.9096731961	 0.0038075584	 0.106216
H	-0.4342872457	 2.0002113827	-0.8339179739	 0.115779
H	-0.3812886911	 1.942208358	 0.9441909073	 0.120225
H	 0.4743692016	-0.3259299968	-0.9457214971	 0.107704
H	 1.6454604769	-0.3862996609	 0.9923306368	 0.284753
H	-1.8430802224	-0.2006587517	 1.0247044709	 0.106231
H	-2.0120487437	-0.0082125066	-0.7251698652	 0.100964
H	-0.8007613481	-2.4729552646	 0.6258339562	 0.126526
H	-3.0513934534	-3.5108113584	 0.5201588147	 0.120831
H	-3.7247795634	-2.0149440331	-0.208419592	 0.117245
H	-0.6989168865	-3.0071311157	-3.2196426962	 0.225931
