25
gdb 119747	2.64868	0.94711	0.75215	0.1191	97.38	-0.2141	0.038	0.2521	1651.4565	0.228826	-352.392807	-352.38234	-352.381396	-352.428879	38.508	
C	 0.1289449604	 1.5525643782	-0.2161528413	-0.378046
C	 0.0554262535	 0.0239098784	-0.190010667	-0.153917
C	-1.3583841378	-0.5006248467	 0.1329790435	-0.304426
C	-1.4648004202	-1.9987332753	 0.1227268272	 0.240872
C	-1.6195000919	-2.825612545	 1.1672102755	 0.221837
C	-1.7359951048	-2.4822030583	 2.6200845475	-0.499769
C	-1.7361001956	-4.270429759	 0.7225064248	-0.283638
C	-1.2857496915	-4.2375547512	-0.7554217217	-0.20697
C	-1.45978374	-2.7642185775	-1.1886883659	-0.295064
H	 1.142175699	 1.9002542666	-0.4410969852	 0.110149
H	-0.5423417959	 1.9685220371	-0.9759654105	 0.112842
H	-0.1629319748	 1.9802584985	 0.7497160875	 0.112461
H	 0.3820595417	-0.3747795854	-1.15814418	 0.098277
H	 0.7577339868	-0.3708456893	 0.554307696	 0.097778
H	-1.6685683039	-0.098696497	 1.1044063777	 0.094996
H	-2.0595102221	-0.0846264886	-0.6059754552	 0.09425
H	-2.6857553926	-2.8461731884	 3.0344589174	 0.120934
H	-0.9416854009	-2.9661381099	 3.2035801713	 0.121386
H	-1.6789807564	-1.4072384122	 2.8077819627	 0.120036
H	-1.1285805267	-4.9501043757	 1.3332500213	 0.093116
H	-2.7751887597	-4.6180777984	 0.8289856219	 0.096794
H	-0.2278695148	-4.5123491133	-0.8190370859	 0.100714
H	-1.8385184583	-4.9374813196	-1.3875981157	 0.091837
H	-2.4098625741	-2.603066245	-1.7209839291	 0.096966
H	-0.6716984794	-2.435807843	-1.8765204568	 0.096586
