18
gdb 81893	3.24335	1.23353	1.05579	2.1406	74.25	-0.251	-0.041	0.21	1167.4978	0.146832	-439.054369	-439.045636	-439.044692	-439.087685	32.545	
C	-0.1293940154	 1.5928943316	-0.0382690029	-0.40796
C	-0.0032853885	 0.0784399571	 0.0249350481	-0.024722
C	 0.6744565615	-0.6453857799	-1.1444456387	-0.089715
N	 2.0691257369	-0.2278075324	-1.1852339414	-0.376591
C	 1.6928173789	-1.2877220184	-0.2170395234	 0.221244
C	 2.2328528287	-2.6434475157	-0.373411635	 0.037614
O	 2.7721131728	-3.0310256583	-1.3879249201	-0.283864
C	 1.0971028602	-0.5477968053	 0.9859391677	 0.043157
O	 1.95939746	 0.3156092073	 1.668704342	-0.426601
H	 0.8124692173	 2.053674855	-0.3459739274	 0.129066
H	-0.9005575618	 1.8898993925	-0.7565529826	 0.115738
H	-0.4024781343	 1.996981448	 0.9409851921	 0.128625
H	-0.971494806	-0.3830421667	 0.2415859476	 0.081295
H	 0.21126667	-1.1180460256	-2.002832955	 0.117044
H	 2.5305432729	-0.7126594171	-1.9569960368	 0.256724
H	 2.0944858533	-3.3120611876	 0.5023216732	 0.086417
H	 0.6560779873	-1.2188207609	 1.7273890743	 0.096225
H	 2.4839833761	 0.7633639965	 0.9920657681	 0.296304
