17
gdb 67313	3.17666	1.42867	1.19834	1.3709	78.22	-0.2344	0.0426	0.277	1059.0538	0.13391	-384.565059	-384.557175	-384.556231	-384.597227	30.948	
C	-0.050510162	 1.4808253098	 0.0198082787	-0.530767
C	-0.0561715316	-0.0178672276	 0.0004521474	 0.318311
C	 0.8339945993	-0.9789404946	-0.8583802761	 0.021626
O	 1.9512482269	-0.9656278525	 0.0774721342	-0.329641
C	 0.7601503227	-0.9908456291	 0.920874078	 0.044266
C	-0.0350994701	-1.9517854554	-0.0098092121	-0.091389
C	-1.2642151052	-1.0041443665	-0.0643570861	-0.272219
C	-2.1896034228	-1.0117116252	 1.0508414478	 0.299706
C	-2.9449453224	-1.0047127245	 1.9873007609	-0.44343
H	 0.9781209187	 1.8480133523	 0.0952919614	 0.13851
H	-0.496513376	 1.8928669583	-0.8916679177	 0.12341
H	-0.618443642	 1.8614543752	 0.8748437148	 0.134657
H	 1.0417881689	-0.9743936124	-1.9283337822	 0.096658
H	 0.8808803594	-0.9991778628	 2.0027619656	 0.104311
H	-0.0070582024	-3.040242107	-0.0125137729	 0.092596
H	-1.7980529483	-1.0049294571	-1.0212830148	 0.098131
H	-3.616455513	-1.0052480612	 2.8098553531	 0.195262
