23
gdb 105520	2.0597	1.44871	1.05626	2.2871	81.02	-0.2408	0.0663	0.307	1267.0784	0.203949	-425.403359	-425.392945	-425.392001	-425.438935	38.433	
C	-0.1313821288	 1.4439513552	 0.3377162305	-0.409564
C	-0.0631812644	-0.0429098699	-0.0261746455	-0.248813
C	 0.7408647033	-0.4201606455	-1.2811707843	 0.306614
C	 0.3588686588	 0.2834277599	-2.6079534503	-0.134662
O	 1.7252187419	 0.6708820449	-2.8480739471	-0.281365
C	 2.1160558276	 0.2537920477	-1.5209990198	-0.111549
C	 0.8237349242	-1.9575505945	-1.380908999	 0.072688
C	 1.4197541135	-2.5240022277	-2.6724574979	-0.421218
O	 1.6065238333	-2.3612210258	-0.2545551783	-0.440078
H	 0.8524310089	 1.8503086129	 0.5908423442	 0.122278
H	-0.5445035333	 2.0552627785	-0.4708308378	 0.11872
H	-0.774365136	 1.58392416	 1.2123406611	 0.114724
H	 0.3504605162	-0.6028466835	 0.8182186318	 0.12435
H	-1.0861341973	-0.4207444989	-0.1664111262	 0.090784
H	-0.0475080165	-0.3360998874	-3.4152084794	 0.095444
H	-0.2944330622	 1.1566069236	-2.4813005192	 0.092878
H	 2.3308285393	 1.1132878914	-0.875279116	 0.095278
H	 2.9870888284	-0.4084724057	-1.5272548913	 0.107252
H	-0.2033418022	-2.3495212183	-1.2772722981	 0.060993
H	 1.5115345775	-3.6129530465	-2.5820743804	 0.100472
H	 0.7802263209	-2.3294492787	-3.5370724058	 0.123245
H	 2.4121947125	-2.1159057905	-2.8770653153	 0.138884
H	 1.7138386643	-3.3163868212	-0.2926333758	 0.282647
