21
gdb 71625	2.68039	1.60875	1.51528	1.3883	82.27	-0.2415	0.0864	0.3279	1017.0311	0.184877	-387.054103	-387.04657	-387.045625	-387.085668	30.742	
C	 0.0104563101	 1.492666018	-0.0285098916	-0.522377
C	 0.0247177368	-0.0132666494	-0.0382587642	 0.328125
C	 0.6839617202	-0.9486022633	-1.089896664	-0.27419
C	 0.0441046814	-1.9068140398	-0.0528612817	-0.062532
C	 0.6037959609	-0.9671825124	 1.061993239	-0.040366
C	-0.1026446411	-1.0012238696	 2.4098686708	-0.117237
O	-1.4230837567	-1.5043503561	 2.3022430681	-0.248255
C	-2.107180125	-1.0121289907	 1.1629410075	-0.117238
C	-1.210653942	-0.9770554621	-0.0666913451	-0.040363
H	 1.028968246	 1.8953556514	 0.006637929	 0.119072
H	-0.4743392503	 1.8871698219	-0.9285658276	 0.119072
H	-0.5316026081	 1.8847834049	 0.8393990327	 0.119571
H	 0.2411773946	-0.9444549811	-2.0910460995	 0.084305
H	 1.7776505666	-0.9360953488	-1.135305224	 0.084303
H	 0.0549558759	-2.9969196404	-0.0607675028	 0.071786
H	 1.6937751807	-0.9416079591	 1.1707210994	 0.058596
H	 0.4163713727	-1.6704947017	 3.1044135851	 0.106557
H	-0.1018881917	 0.0068371002	 2.8636122126	 0.083009
H	-2.95432732	-1.6888295759	 1.0076627434	 0.106557
H	-2.5224233861	-0.0063298728	 1.3579083081	 0.083008
H	-1.790133165	-0.9605655432	-0.996456325	 0.058596
