20
gdb 36858	4.46299	0.93793	0.88569	2.4783	79.5	-0.2306	0.0779	0.3084	1365.5489	0.170843	-403.062428	-403.0541	-403.053156	-403.096147	31.621	
C	-0.0961898371	 1.4915124091	-0.2915034963	-0.289608
N	-0.1542322636	 0.0350260331	-0.1710615359	-0.059721
C	-0.3867752802	-0.5001436888	 1.1654722186	-0.212841
C	-1.4596869088	-0.5381870281	 0.1331616824	-0.220641
C	 1.3094217965	 1.9814451434	-0.1188813676	 0.30857
C	 1.9308268637	 2.3978062894	 1.204422771	-0.339265
C	 1.8979637873	 3.3628866997	 0.0600994763	 0.04398
O	 2.9753428746	 3.1147597085	-0.8442000138	-0.289966
C	 2.4361066698	 1.7932782012	-1.1327509838	-0.118756
H	-0.4614110083	 1.7496934587	-1.2939796897	 0.106072
H	-0.7596556775	 1.9975713695	 0.4345520115	 0.078988
H	 0.1681235501	-1.398013327	 1.4215662894	 0.117665
H	-0.5121625149	 0.2059752071	 1.9848088239	 0.108453
H	-2.2990242097	 0.1435537809	 0.2653156391	 0.107942
H	-1.7026914275	-1.4635837835	-0.3811247668	 0.117705
H	 1.2130348581	 2.5891833916	 1.9971041619	 0.109027
H	 2.8836201055	 1.9893943342	 1.5308766245	 0.114653
H	 1.4633859034	 4.3563711801	 0.0769696582	 0.103203
H	 3.1628950941	 0.994252348	-0.9493465927	 0.107885
H	 2.0810742144	 1.7418053728	-2.1686740104	 0.106655
