21
gdb 87831	2.86446	1.33737	1.14279	2.3332	83.	-0.2184	0.0703	0.2887	1184.8707	0.182003	-383.206574	-383.197593	-383.196649	-383.239829	34.678	
C	-0.0633071733	 1.5536973147	-0.0271141011	-0.392749
C	-0.044401868	 0.0477315575	 0.0717775477	-0.084548
N	 1.2703460233	-0.6111445939	-0.1130853544	-0.391774
C	 0.6098205152	-0.6742126997	 1.1865293931	 0.297634
C	 1.2956566603	-0.2211183742	 2.4778700562	-0.240467
N	 0.9124957009	-1.5055936232	 3.1738214712	-0.167775
C	-0.5639025703	-1.545937969	 3.134729381	-0.283747
C	 0.1750736046	-1.9351672813	 1.9118948275	 0.264364
C	 0.2297608975	-3.3273682631	 1.3582054056	-0.505901
H	 0.8280790922	 1.980472718	 0.4403995629	 0.127354
H	-0.0809937597	 1.8767378472	-1.0735000567	 0.121511
H	-0.9478860713	 1.9674514056	 0.4695540275	 0.114386
H	-0.9061735045	-0.4522235974	-0.3714019829	 0.079176
H	 1.1629810394	-1.4911249239	-0.6134205133	 0.228758
H	 2.3805478521	-0.1545418792	 2.3751908384	 0.122963
H	 0.9154841165	 0.6780298285	 2.9751394216	 0.102399
H	-0.9827014518	-2.3398552065	 3.7468715401	 0.116644
H	-1.1195541766	-0.6102122623	 3.1644268607	 0.107916
H	-0.5943789745	-3.5085423324	 0.6576317792	 0.121194
H	 1.1728273549	-3.5120153217	 0.8318287274	 0.126453
H	 0.149629543	-4.0604900236	 2.165635198	 0.136207
