19
gdb 38214	3.24338	1.81653	1.47995	1.7315	78.97	-0.2357	0.0137	0.2494	931.2597	0.162606	-385.86495	-385.858608	-385.857664	-385.895192	27.691	
C	-0.0002380712	 1.6090915182	 0.0051027782	-0.25308
C	 1.5045748914	 1.2916902302	 0.0182705736	 0.103261
C	 1.1520198638	 0.0798750049	 0.9508751221	-0.337847
C	-0.0742974108	 0.0444510402	-0.0084445736	 0.307395
C	-1.415189601	-0.6647133232	-0.1468275567	-0.411223
C	-1.617253684	-0.5453929858	-1.6594390608	-0.045585
C	-0.48857517	-0.2497153676	-2.3151394318	-0.154353
C	 0.6563089646	-0.2484372161	-1.3298553647	 0.124691
O	 1.7086081076	 0.7337615762	-1.299275094	-0.305281
H	-0.3755440325	 2.0211032267	 0.9445407772	 0.093926
H	-0.3823056875	 2.1624434081	-0.8538630427	 0.104259
H	 2.2889306112	 2.0134700343	 0.2396290268	 0.080205
H	 1.8279273905	-0.778929797	 0.9543916599	 0.099118
H	 0.9254095194	 0.4022776586	 1.968800487	 0.101166
H	-1.3629335116	-1.7205181442	 0.1554278015	 0.112232
H	-2.2227724149	-0.2053463953	 0.4327036504	 0.105482
H	-2.5828449343	-0.7127230999	-2.125012442	 0.095921
H	-0.3816419397	-0.1512283898	-3.3885180624	 0.101202
H	 1.134163299	-1.2412297587	-1.3387579881	 0.078512
