17
gdb 131771	3.11405	1.50284	1.1047	3.0735	74.77	-0.2435	0.0195	0.2629	1078.0937	0.138684	-417.987607	-417.980082	-417.979138	-418.02023	28.395	
O	 0.1397472843	 1.3585311189	 0.1859663429	-0.419487
C	 0.0618232519	 0.0239084555	-0.2640963369	-0.062985
C	-1.3470750923	-0.5252748903	-0.0746709303	 0.004926
C	-1.5328270578	-2.0997964838	-0.0659120089	-0.407684
C	-1.7874191476	-1.9390765515	 1.4317776592	 0.355413
C	-1.8303944461	-2.2541833088	 2.7783718845	-0.37822
C	-1.7497654234	-0.9752677276	 3.3974282041	 0.015788
N	-1.6396731865	 0.0446194667	 2.5263285403	-0.320279
N	-1.7126309619	-0.602939573	 1.3540223694	 0.09333
H	-0.1112941902	 1.3656529851	 1.1201958868	 0.303369
H	 0.3223875102	 0.0278845485	-1.3278317599	 0.11669
H	 0.7783823835	-0.6309111564	 0.2579450868	 0.095757
H	-2.0685670173	 0.0417105708	-0.6695160678	 0.111445
H	-2.3678020937	-2.4677343085	-0.6654217523	 0.132877
H	-0.6274751182	-2.6538830843	-0.3253129971	 0.13345
H	-1.9083508232	-3.2124563885	 3.2635014476	 0.10979
H	-1.7796682717	-0.7602958928	 4.4561807017	 0.115821
