19
gdb 23529	2.39749	1.54418	1.2311	0.1945	79.75	-0.2224	0.0205	0.2429	1097.6663	0.159993	-419.125677	-419.117452	-419.116508	-419.158175	32.168	
C	 0.0468352769	 1.450486866	-0.158994082	-0.336315
N	 0.008138532	-0.0007245715	 0.0137426618	-0.103608
C	-1.2486576952	-0.5206617514	 0.6989589152	-0.089689
C	-0.9726676058	-2.0347674078	 0.644971498	-0.212666
C	 0.5316154098	-2.0164798989	 1.0924455068	-0.213698
C	 0.6979740567	-0.4964696194	 1.2790420528	-0.084232
C	-0.5768262162	-0.107353708	 2.0021107078	 0.465824
N	-0.8087181746	 0.5732725501	 3.0406767839	-0.302597
O	-2.1909464828	 0.8679585262	 3.154428263	-0.404427
H	 1.052285767	 1.7379664848	-0.4816223513	 0.121698
H	-0.6521145931	 1.7290395653	-0.9535432341	 0.122322
H	-0.2052121729	 2.0267448859	 0.7458106434	 0.11893
H	-2.2120684083	-0.1333234231	 0.3752723033	 0.092381
H	-1.6157145432	-2.5975012405	 1.3255396296	 0.108801
H	-1.1002653934	-2.4208251782	-0.3681245729	 0.110268
H	 0.7100088908	-2.5685966995	 2.0181264171	 0.107602
H	 1.2014892264	-2.3929532197	 0.3170631908	 0.109887
H	 1.6758397995	-0.0874259032	 1.5272069854	 0.085229
H	-2.2165263736	 1.3752046629	 3.9726166115	 0.304291
