21
gdb 103718	2.86293	1.20303	0.99694	1.428	86.61	-0.2379	0.0521	0.29	1282.6841	0.178152	-387.040614	-387.029973	-387.029029	-387.075516	39.519	
C	 0.246124787	 1.2448228143	 0.2932555529	-0.246476
O	-0.2109453844	 0.0094444515	-0.2239569565	-0.281135
C	 0.5484523299	-0.4997683018	-1.2856889818	 0.403057
C	 0.3672870646	 0.2338359305	-2.5956524928	-0.459736
C	 1.8722240334	-1.126532505	-0.9343710992	-0.381671
C	 0.6723793792	-2.0243341402	-1.2605295577	 0.064714
C	 0.0239279933	-2.8008886449	-0.1217046894	-0.455729
C	 0.691345046	-2.7271540231	-2.5168954281	 0.280381
C	 0.6942751635	-3.3470479691	-3.5486111332	-0.455217
H	 1.3037598009	 1.19529278	 0.5885096429	 0.108323
H	 0.1233357328	 2.0675352842	-0.4241634171	 0.112498
H	-0.3607586467	 1.4596222843	 1.1759505426	 0.12845
H	 0.7666980998	 1.2517033861	-2.5369850792	 0.114492
H	 0.8807283409	-0.2843884951	-3.4071514104	 0.135534
H	-0.6963895466	 0.2957594699	-2.8463174995	 0.128014
H	 2.6818377254	-1.0778477001	-1.6536472912	 0.120661
H	 2.1776058463	-1.105633666	 0.1063447294	 0.117924
H	-0.0160528143	-2.1939557784	 0.7830578815	 0.128532
H	-0.9987463113	-3.0862743545	-0.3854377313	 0.127489
H	 0.5891148316	-3.7153406127	 0.0823000614	 0.120986
H	 0.6979444688	-3.8900682498	-4.4608191334	 0.188908
