19
gdb 47433	2.7764	1.34612	0.99136	1.6639	75.67	-0.2379	-0.0244	0.2135	1215.7378	0.159327	-423.032788	-423.024368	-423.023423	-423.066757	31.333	
O	 0.0780977395	-0.0197402222	 0.281805135	-0.302431
C	 0.0064329127	 1.15881235	 0.0585539829	 0.373001
C	-1.2606558805	 1.9991612225	-0.1049291845	-0.338424
C	-0.7207701378	 3.4274576816	-0.0114685829	-0.094837
O	 0.6227611763	 3.362315698	-0.4992450322	-0.262898
C	 1.1981743497	 2.1194829403	-0.1131258753	-0.013381
C	 2.0349675788	 2.2106094289	 1.145444782	 0.019785
C	 3.1199668062	 1.1919283246	 1.3806977176	-0.253535
C	 3.4835204811	 2.6173393959	 1.052085419	-0.279825
H	-1.6762013441	 1.7937635134	-1.0984362303	 0.141658
H	-2.0138937173	 1.7327554491	 0.6389638639	 0.134442
H	-1.2575844772	 4.1484686392	-0.631602452	 0.118066
H	-0.7413749006	 3.788368197	 1.0283044019	 0.100663
H	 1.8281437055	 1.7680317158	-0.940322263	 0.10217
H	 1.4902378816	 2.5509352714	 2.0221634255	 0.08357
H	 3.2728300296	 0.835607336	 2.3927182564	 0.115865
H	 3.2720313472	 0.434646114	 0.6197236997	 0.123797
H	 3.8847966361	 2.8297238098	 0.0666342019	 0.117413
H	 3.8879632032	 3.2429372947	 1.8396651643	 0.1149
