22
gdb 94716	3.27539	1.26564	1.09252	0.5004	82.52	-0.2163	0.0879	0.3042	1219.7705	0.194625	-404.3334	-404.324556	-404.323612	-404.366414	34.717	
C	 0.0801172218	 1.5368368532	 0.0519428613	-0.406591
C	 0.0204225834	 0.0190772743	-0.0081436971	 0.134226
C	 0.6312656342	-0.5447317656	-1.2984269945	-0.163568
N	 0.9781503182	-1.9754148622	-1.2430555132	-0.138511
C	 2.2273530088	-2.3224635372	-0.5550741281	-0.280213
C	 0.918627487	-2.6762677423	 0.0521316993	 0.311707
C	 0.3987121506	-4.0958511037	 0.0042096056	-0.45858
C	 0.4773571488	-1.8782915431	 1.2708812939	-0.156561
O	 0.7148653217	-0.4940442864	 1.1256154939	-0.252498
H	 1.1209333481	 1.8751769398	 0.0545891375	 0.125516
H	-0.4250425079	 1.9761859062	-0.8138413857	 0.11782
H	-0.4029267087	 1.9053162481	 0.9607890178	 0.123323
H	-1.0323399145	-0.3077103796	 0.058659596	 0.064896
H	-0.080704397	-0.4001946464	-2.1206971953	 0.102146
H	 1.5337519802	 0.0242887616	-1.5529227629	 0.101361
H	 2.833961267	-3.0831030593	-1.0417397423	 0.103767
H	 2.7859764228	-1.5126024852	-0.0899976349	 0.114795
H	 0.7398904632	-4.5960841176	-0.9050295432	 0.129127
H	 0.7485519705	-4.6714585976	 0.869470501	 0.113988
H	-0.6971856083	-4.1137462013	 0.009373088	 0.11636
H	-0.5968256507	-2.0586088902	 1.4541975808	 0.086547
H	 1.0253061708	-2.2039980855	 2.1617643121	 0.110945
