19
gdb 93977	4.3322	1.00078	0.84091	3.0914	79.85	-0.2264	-0.0564	0.17	1364.3867	0.160179	-419.24376	-419.234875	-419.233931	-419.277683	32.689	
C	-0.1137676047	 1.5112814423	-0.0956581781	-0.400972
C	 0.0208289044	 0.0001326039	 0.0933153993	-0.00195
C	 0.4266726329	-0.6982448568	-1.2135295806	-0.157437
N	 0.7282258411	-2.0895930321	-0.9403382986	-0.344731
C	 1.1296419023	-2.4960083504	 0.2924466161	 0.274607
C	 1.3950428801	-3.9626081036	 0.4167816053	 0.135836
O	 1.2713827196	-4.7366306855	-0.5028894987	-0.278997
N	 1.3031330059	-1.7813774155	 1.3462552217	-0.309796
C	 1.0332555205	-0.3546753633	 1.1990229374	-0.160673
H	 0.8408277458	 1.9563728784	-0.3996701311	 0.118781
H	-0.8555610194	 1.7551241737	-0.8637002424	 0.115067
H	-0.4254182434	 1.9968537185	 0.8343881465	 0.121291
H	-0.951913844	-0.4103063298	 0.394729408	 0.089662
H	-0.3859584272	-0.6404320908	-1.946100878	 0.112148
H	 1.2953952587	-0.1848114566	-1.6547793653	 0.105942
H	 0.6538011422	-2.8036524094	-1.6478615397	 0.258223
H	 1.7141423446	-4.2639236724	 1.4319421434	 0.107832
H	 1.9862065157	 0.1633389587	 1.0053970082	 0.107098
H	 0.6775615648	 0.0273318108	 2.1630349664	 0.108071
