17
gdb 127387	3.92999	1.1226	1.06748	1.1201	74.97	-0.2266	-0.0114	0.2151	1167.4952	0.138463	-414.157928	-414.150104	-414.14916	-414.190896	28.988	
C	 0.2837727165	 1.5406950971	-0.458758971	-0.321458
N	 0.0578378127	 0.1444076706	-0.1049750929	-0.088253
C	 1.2238881426	-0.7177673501	-0.0072124911	-0.253099
C	 0.4773326441	-0.3376052032	 1.2284267337	-0.111484
C	 1.0772439951	 0.5346132046	 2.2580722795	 0.330775
N	 2.2279504348	 1.2051495029	 2.1102093489	-0.283883
N	 2.3602922131	 1.8465104573	 3.2636895807	-0.067287
N	 1.4095189029	 1.6554571429	 4.1660211611	-0.194543
C	 0.5762561436	 0.8221419831	 3.5445750015	-0.137483
H	 1.2234209078	 1.959662924	-0.0732447124	 0.125947
H	 0.2904922465	 1.6169780499	-1.5505976967	 0.122572
H	-0.5476476936	 2.1447803765	-0.0815341757	 0.120692
H	 1.1165584679	-1.7191346636	-0.4169846424	 0.114131
H	 2.2073192548	-0.268385781	-0.1332839612	 0.128317
H	-0.227463971	-1.0531705493	 1.6460235314	 0.092847
H	 3.1525764072	 2.4404675622	 3.4483079649	 0.294538
H	-0.3208351249	 0.4692799061	 4.0280024016	 0.127669
