24
gdb 119982	1.87646	1.06209	0.78933	0.5894	86.91	-0.2127	0.0748	0.2875	1578.9742	0.215225	-405.514122	-405.502938	-405.501993	-405.551052	40.127	
C	 1.7041581799	 2.2143510165	-0.5686848136	-0.377238
C	 1.9864163871	 0.8189580485	-0.0120172887	-0.115012
N	 1.6733085864	-0.1964664552	-1.0127894299	-0.106562
C	 1.7855492021	-1.6193844263	-0.6888493172	-0.015289
C	 2.2103980946	-2.1295120769	 0.6728548801	-0.413096
C	 0.4455830932	-1.0071667934	-0.9499646771	-0.022873
C	-0.6245098632	-0.8874062624	 0.1172855985	-0.203219
C	-1.721956714	 0.1051497302	-0.2561314685	-0.076616
O	-2.7057001548	 0.0606874374	 0.7663397367	-0.422646
H	 2.2714845102	 2.3795264388	-1.4887261791	 0.12466
H	 0.642453802	 2.3378283906	-0.8051795773	 0.11964
H	 1.9795324558	 2.9849157025	 0.1587220055	 0.106728
H	 3.0555017329	 0.7302007966	 0.2168219654	 0.101505
H	 1.4547892159	 0.6909615042	 0.9430285492	 0.085624
H	 2.2260563361	-2.1961108294	-1.503755424	 0.081649
H	 1.7334484806	-1.6020440557	 1.5005513325	 0.12092
H	 1.9616546152	-3.1920677195	 0.7675818555	 0.121005
H	 3.29508733	-2.0361987331	 0.7973834202	 0.121204
H	 0.0203981236	-1.1771155912	-1.9410504385	 0.080245
H	-1.0943848628	-1.8692836801	 0.257640895	 0.110848
H	-0.2167261148	-0.6023913087	 1.0901191748	 0.110028
H	-1.2984097345	 1.116359251	-0.3579749822	 0.096004
H	-2.1493048234	-0.1678174754	-1.2349058565	 0.086581
H	-3.3985469281	 0.689605771	 0.5451930093	 0.285912
