17
gdb 80987	2.85121	1.52704	1.2182	2.4766	68.23	-0.2382	-0.0265	0.2117	1036.8312	0.134951	-458.957924	-458.950005	-458.949061	-458.990012	31.076	
C	-0.0385649409	 1.4967146972	 0.1195170548	-0.494783
C	-0.031724281	 0.002699412	-0.0074959839	 0.351986
C	 0.8777256249	-0.6941287774	-1.0353429209	-0.389633
C	 0.6155453555	-2.1413580311	-0.5662106799	 0.449082
O	 1.0187863001	-3.1799138611	-1.0083085447	-0.319484
C	-0.3302727441	-1.8704743286	 0.6050623192	-0.101184
O	 0.3399418127	-0.7255503472	 1.2347729054	-0.357728
C	-1.3381262069	-0.8565858276	-0.0174997087	 0.142081
O	-2.3377133444	-0.4178981833	 0.850618947	-0.446404
H	 0.9363116713	 1.8562244992	 0.4626536047	 0.137315
H	-0.252847949	 1.9574620385	-0.8498268096	 0.131573
H	-0.8036281699	 1.8213345495	 0.8296779503	 0.130271
H	 0.5915562698	-0.5536109541	-2.0819884727	 0.130594
H	 1.9262538328	-0.4090400889	-0.9127315769	 0.140764
H	-0.6136565237	-2.6785246513	 1.2761411921	 0.102791
H	-1.8072037107	-1.0911821336	-0.9765493851	 0.100097
H	-1.9118719262	-0.2606921222	 1.7042058492	 0.292661
