17
gdb 12538	3.4073	1.83864	1.26687	2.0229	65.44	-0.2448	0.0153	0.2602	935.9791	0.143567	-400.997253	-400.989668	-400.988723	-401.029319	28.255	
O	 0.0272358675	 1.3930682929	 0.1163667097	-0.428099
C	 0.0073157222	-0.0242478026	-0.0062043349	 0.095077
C	-1.4486121756	-0.4568118054	 0.0752754872	-0.205656
C	-1.637862844	-1.9749673977	 0.1456228345	-0.162476
N	-1.232138965	-2.7944485428	-0.9846181275	-0.239655
C	-0.1520054725	-2.6894055397	-1.6217198715	 0.118456
O	 0.8835773877	-1.8021765159	-1.5434601422	-0.230115
C	 0.6421008524	-0.4103107046	-1.344942956	-0.085422
H	 0.9443104722	 1.6818181042	 0.1679397582	 0.285641
H	 0.5776536258	-0.5004230274	 0.8084763088	 0.072845
H	-1.8918305276	-0.0103195223	 0.9720821627	 0.11019
H	-1.9898307047	-0.0471393489	-0.7866767711	 0.108722
H	-1.1102955927	-2.3580197581	 1.0326096316	 0.114179
H	-2.6993606661	-2.1790411057	 0.3194008866	 0.111997
H	 0.0970759493	-3.4490724461	-2.3644732522	 0.116808
H	 0.0137766101	-0.0230392401	-2.1581022172	 0.115132
H	 1.6309563411	 0.0517387401	-1.4304315568	 0.102377
