20
gdb 73571	2.24549	2.04045	1.55801	1.4502	77.16	-0.231	0.0833	0.3142	964.7871	0.172648	-403.105992	-403.098442	-403.097498	-403.137453	30.734	
C	 0.0181735905	 1.4731011139	-0.0248762333	-0.458992
C	-0.0238708581	-0.0412461308	 0.0170926917	 0.327618
C	-1.4351509081	-0.6392559945	 0.0194834119	-0.141478
O	-1.3836990439	-1.8309769899	 0.8036408992	-0.257065
C	-0.37764614	-1.671127181	 1.8082620074	-0.111227
C	 0.6914020395	-0.7704729313	 1.1912467861	-0.088789
C	 1.6467049071	-1.3421503478	 0.1373304859	-0.043363
C	 0.9577167668	-2.0671847105	-0.948605656	-0.259037
N	 0.9746554279	-0.5897520323	-1.0005151154	-0.176484
H	 1.0517771727	 1.8280341389	 0.0049533273	 0.126295
H	-0.4308903913	 1.8439574901	-0.9527781098	 0.125797
H	-0.5270801954	 1.9053580337	 0.8207327186	 0.111235
H	-2.1457930935	 0.0791518456	 0.4583032038	 0.091694
H	-1.7908596691	-0.9104670827	-0.979532975	 0.117948
H	-0.8053209117	-1.199825577	 2.7077580154	 0.092631
H	-0.0235661503	-2.6711501405	 2.0757502534	 0.111885
H	 1.1806970168	-0.1177188926	 1.9151746941	 0.078027
H	 2.7277707277	-1.3473900666	 0.2382337016	 0.091577
H	 1.5918298482	-2.4970061961	-1.718868989	 0.11653
H	 0.0349783843	-2.6033571488	-0.762192898	 0.145198
