19
gdb 32816	3.24162	1.09485	0.84768	2.735	79.74	-0.2084	0.0333	0.2417	1372.0868	0.159607	-419.240685	-419.231317	-419.230373	-419.275653	33.224	
C	 0.3034828008	 1.4159478762	 0.0038517214	-0.220739
O	 0.4634474666	 0.0196597765	 0.0740429919	-0.231762
C	 0.2727903852	-0.6102627959	-1.1831024434	-0.180234
C	 0.4759082063	-2.0870548883	-1.0567877493	 0.185286
C	 1.4276068661	-2.7738755116	-0.3385325606	 0.246798
C	 2.5417945871	-2.3352235814	 0.5512377282	-0.516143
N	 1.1634581495	-4.104433675	-0.6027728919	-0.289978
C	 0.094725156	-4.1591699969	-1.4476513909	-0.004179
N	-0.3462756365	-2.9601334009	-1.7403341117	-0.313067
H	 1.0256986333	 1.8787038416	-0.688284062	 0.101324
H	-0.7097341295	 1.6935904502	-0.3271232231	 0.106366
H	 0.4689153405	 1.8162194573	 1.0071974235	 0.123849
H	-0.7450440183	-0.4329168527	-1.5620793785	 0.109942
H	 0.969479263	-0.1715666841	-1.9204278191	 0.090114
H	 2.495503315	-2.8236899876	 1.5323863576	 0.123142
H	 3.5267387095	-2.556852685	 0.1208169019	 0.122507
H	 2.4666293624	-1.2596155339	 0.7116635714	 0.161591
H	 1.6607408239	-4.889405491	-0.2157226574	 0.260186
H	-0.3140300409	-5.0928903175	-1.804206338	 0.124997
