16
gdb 11943	3.28386	1.80108	1.45412	2.9483	67.27	-0.2558	-0.0381	0.2177	903.1545	0.128384	-383.722902	-383.715142	-383.714197	-383.754882	28.602	
C	 0.0684296171	 1.523635298	 0.0425264147	-0.494048
C	-0.0669818293	 0.0377058372	 0.1341678394	 0.336425
C	-1.3392058292	-0.8138061357	-0.0412547317	-0.275966
C	-0.7386460846	-1.869553405	 0.9484029068	-0.29703
C	 0.5016551741	-0.9864042718	 1.0794756585	 0.255312
O	 1.035103607	-0.7735874902	-0.2417800557	-0.304302
C	 1.3989271934	-0.7829324851	 2.2273085033	 0.064408
O	 1.2122612032	-1.2704500626	 3.3169351179	-0.261831
H	 1.0624244522	 1.8470372182	 0.3596233284	 0.139824
H	-0.0810809378	 1.8498000672	-0.993298255	 0.139278
H	-0.6829999984	 2.0214717003	 0.6625363606	 0.134518
H	-2.2357032564	-0.3292676797	 0.3517394102	 0.113877
H	-1.5214058366	-1.1447678778	-1.0663022774	 0.115984
H	-1.2939786552	-1.9445396357	 1.88422061	 0.131826
H	-0.548862652	-2.8679633742	 0.5501745721	 0.118315
H	 2.2663654625	-0.1226770929	 2.0106830879	 0.083409
