19
gdb 71823	3.22769	1.73561	1.39179	1.2395	79.1	-0.2318	0.0206	0.2524	959.8704	0.16125	-385.874208	-385.867155	-385.86621	-385.905114	29.715	
O	-0.0015873346	 1.4100270975	 0.0141649121	-0.482236
C	 0.0263409128	 0.0092474257	 0.002038885	 0.424177
C	 0.470924772	-0.6800738064	-1.3185423378	-0.305096
C	-0.8003467673	-1.6138649398	-1.2530655301	-0.063301
C	-0.5330031456	-2.9889451711	-0.7013556526	-0.077302
C	-0.5540459211	-3.0009302959	 0.6335363107	-0.077291
C	-0.839024588	-1.6359023545	 1.2011521606	-0.063319
C	 0.4292754509	-0.7037895529	 1.3234161563	-0.305041
C	-1.3077207475	-0.7920298578	-0.0261709375	-0.094622
H	 0.9082727112	 1.7283649687	 0.0294338833	 0.274151
H	 0.4074851847	 0.0340551359	-2.1443032774	 0.101645
H	 1.4449810958	-1.1773960884	-1.3372253065	 0.088022
H	-1.404262648	-1.6018740565	-2.1625146224	 0.071083
H	-0.2856339328	-3.8359722733	-1.3324872668	 0.090152
H	-0.3264569935	-3.8592279461	 1.2568359053	 0.090155
H	-1.4713180147	-1.6400810444	 2.091176947	 0.071081
H	 1.4024081557	-1.2016264022	 1.3639264594	 0.087996
H	 0.3396166529	-0.0045157114	 2.1593885697	 0.10168
H	-2.2935102029	-0.3304890072	-0.0375677584	 0.068065
