20
gdb 114467	3.28098	1.36017	1.20482	2.6175	78.23	-0.2196	0.0621	0.2817	1112.5345	0.171605	-403.056995	-403.04905	-403.048106	-403.089425	31.154	
C	 0.1640019396	 1.5170898431	-0.0453099441	-0.240361
O	-0.2811696914	 0.1893244842	-0.2229996688	-0.231847
C	 0.4991619176	-0.5382361853	-1.1305878141	 0.139221
C	 1.8946490869	-1.1078431999	-0.6788706091	-0.305895
C	 1.4168998134	-2.525414801	-1.1054157037	-0.031415
C	 0.707457917	-3.3866325738	-0.04700556	-0.036208
C	-0.1205226115	-2.613538723	 0.8957331116	-0.240962
N	-0.6756379681	-2.8679464934	-0.4487638217	-0.14752
C	 0.0147134119	-1.9776493036	-1.4642532487	-0.025208
H	 1.1818938328	 1.5594275861	 0.3697182611	 0.110061
H	 0.155544123	 2.0736079606	-0.9954875472	 0.107166
H	-0.5225423498	 1.9988885566	 0.6545539139	 0.130515
H	 0.6090147791	 0.0320546216	-2.0672846575	 0.070705
H	 2.7381511566	-0.7218351427	-1.2559414908	 0.101
H	 2.1171552632	-0.9954868668	 0.3853419132	 0.106504
H	 2.0231711629	-3.0747961618	-1.8232617631	 0.073802
H	 0.8837202542	-4.4503579595	 0.0844766477	 0.091241
H	-0.647234603	-3.1866605709	 1.6542049984	 0.116654
H	 0.1264383592	-1.6026374373	 1.1927286237	 0.133673
H	-0.4563517334	-2.1145290131	-2.437572181	 0.078873
