18
gdb 35909	3.11568	1.34324	1.04685	5.2023	75.33	-0.2801	0.0331	0.3132	1141.272	0.149979	-401.963991	-401.956275	-401.955331	-401.996377	29.648	
N	-0.0223168448	-1.1487819755	-0.1841514422	-0.319314
C	-0.0048309444	 0.0024673313	-0.0860323468	 0.267125
C	 0.009144427	 1.4638996236	 0.0368730235	-0.175773
C	-0.7743517109	 1.9376577177	 1.2821869863	-0.209627
C	-0.6876343223	 3.4624390636	 1.4059072774	-0.222512
C	 0.7534678961	 3.9514889678	 1.6325953771	-0.223939
C	 1.7822826442	 3.2020792917	 0.8046510687	 0.037068
O	 2.1391654097	 1.890985096	 1.274772355	-0.242348
C	 1.4421332093	 1.9894608159	 0.0405650061	 0.054635
H	-0.4804736277	 1.8650284359	-0.861850136	 0.127841
H	-1.8147934207	 1.6135392024	 1.1927483056	 0.117705
H	-0.3540062596	 1.4544151404	 2.1690037346	 0.13649
H	-1.0864067638	 3.9142935586	 0.48798689	 0.102305
H	-1.3285795725	 3.8071890784	 2.2231485931	 0.10799
H	 0.8244299487	 5.0210048329	 1.4079201676	 0.107087
H	 1.0331690818	 3.8354684174	 2.6865073368	 0.125567
H	 2.6406974678	 3.7823128578	 0.4662320947	 0.101545
H	 2.0296361919	 1.7276600941	-0.8395764616	 0.108156
