14
gdb 46810	2.71488	1.67847	1.1954	5.1023	68.55	-0.273	-0.0193	0.2538	993.2083	0.102814	-432.861421	-432.854161	-432.853217	-432.893295	27.191	
N	-0.0598909637	 1.2453708687	 0.3122463139	-0.530539
C	-0.0070975058	 0.0252770244	 0.0131451461	 0.409013
O	 1.1177182266	-0.6882334349	-0.2866727912	-0.249242
C	 0.8083728459	-1.9756328049	-0.8501947854	-0.086246
C	-0.67238306	-2.1901566895	-0.6124699733	-0.121867
N	-1.0143949149	-2.0865663699	 0.8039470805	-0.348049
C	-1.1891671905	-0.8925086248	-0.081798977	 0.131312
C	-2.5022021932	-0.390929406	-0.358878926	 0.223554
N	-3.5775902707	-0.0254052365	-0.5729617333	-0.332292
H	 0.8663914229	 1.6734291211	 0.2797776937	 0.236583
H	 1.0416883755	-1.9637472701	-1.9204622861	 0.12991
H	 1.4269629165	-2.7228469644	-0.3463945479	 0.141418
H	-1.2573590119	-2.8067484036	-1.2846570056	 0.13518
H	-1.9322547567	-2.4964469395	 0.9706801216	 0.261267
