15
gdb 14888	4.82576	1.4617	1.16724	4.176	69.94	-0.2685	-0.0434	0.2251	978.5654	0.120731	-362.685782	-362.678799	-362.677854	-362.717093	25.866	
N	 0.1124593822	-1.1553520866	 0.0576446671	-0.329929
C	 0.007685448	-0.0018225351	 0.02933934	 0.217494
C	-0.0632957504	 1.4221866101	-0.0017648995	 0.135823
C	-1.2347908207	 2.0725580247	 0.0006557216	-0.12861
C	-1.2969819293	 3.5718663949	 0.0253299425	-0.256899
C	 0.0667325802	 4.1524092593	 0.4083779719	-0.0883
O	 1.100883735	 3.5345221948	-0.3407864536	-0.239952
C	 1.2592421003	 2.1716692173	-0.0278409084	-0.15945
H	-2.1649708719	 1.5129587242	-0.0076886425	 0.119794
H	-1.6075329498	 3.9449234463	-0.9601505264	 0.134166
H	-2.064650528	 3.9042292192	 0.735047433	 0.120096
H	 0.1233898631	 5.2208061535	 0.1871222622	 0.118493
H	 0.24242948	 4.0163559396	 1.4876150403	 0.100059
H	 1.7702283127	 2.0415168121	 0.9422794737	 0.117025
H	 1.9124608085	 1.7475675758	-0.7970695219	 0.140191
