22
gdb 112431	1.91691	1.53418	0.95232	3.2962	83.6	-0.2519	0.0344	0.2864	1317.6707	0.194661	-404.388149	-404.378721	-404.377777	-404.422374	35.632	
C	 0.0960323196	 1.5620843048	-0.1480403326	-0.385436
C	 0.1136692387	 0.0351706544	-0.0314421866	-0.184939
C	-1.2907827994	-0.5717021391	-0.0261296	 0.102775
O	-1.9948975377	-0.187948866	-1.2321010497	-0.246495
C	-2.0318517182	-1.2190789461	-2.1308624699	 0.407879
N	-2.555621878	-1.1508102299	-3.2776564014	-0.545821
C	-1.3649034168	-2.4325750741	-1.525946983	-0.311863
C	-1.3726034305	-2.1193102806	-0.0222529457	 0.000143
C	-0.3234692337	-2.8541072853	 0.8080698455	-0.419179
H	 1.1125245009	 1.9658192343	-0.1608732321	 0.113248
H	-0.4097652905	 1.8750739929	-1.0647003774	 0.136386
H	-0.4333348708	 2.0157528852	 0.6973784259	 0.11434
H	 0.6952596579	-0.3944120538	-0.8568321318	 0.101529
H	 0.6191998789	-0.2603191159	 0.8953990485	 0.102961
H	-1.8610247734	-0.1423987085	 0.8054507598	 0.084468
H	-2.9289674839	-0.2138561908	-3.4420020945	 0.217827
H	-1.8903111247	-3.3478502726	-1.8006994474	 0.133762
H	-0.3403937841	-2.5143669835	-1.9094496395	 0.125638
H	-2.3655770511	-2.3773142855	 0.3663472834	 0.088818
H	 0.6895546241	-2.66847629	 0.4380944837	 0.122928
H	-0.3597773855	-2.5521484912	 1.8602735356	 0.118902
H	-0.4963656019	-3.9341558087	 0.7701388191	 0.122128
