21
gdb 90939	3.01498	1.43453	1.42951	1.3469	81.97	-0.2021	0.0845	0.2866	1068.2205	0.183968	-383.224058	-383.215969	-383.215025	-383.256093	32.285	
C	-0.0794058477	 1.5060021036	-0.0424463326	-0.323803
N	 0.056238875	 0.0624554957	-0.0457544454	-0.050132
C	 0.8088496211	-0.4832981075	-1.1899247253	-0.196285
C	 1.3998591207	-1.7712953964	-0.6401275667	-0.084665
N	 2.404843574	-1.7138207037	 0.4761488263	-0.195898
C	 2.2417792362	-0.3763874068	 1.1391716599	-0.174424
C	 0.6910181279	-0.5194786229	 1.133601997	-0.09399
C	 0.9438681481	-1.9957034036	 0.743215332	 0.365148
C	 0.4149194569	-3.2445692909	 1.3708951467	-0.523556
H	 0.8858538733	 2.0464420301	-0.0233538336	 0.093911
H	-0.6207200091	 1.8258994011	-0.9388711649	 0.1208
H	-0.6617544561	 1.8205637123	 0.8297369668	 0.117443
H	 0.1450760789	-0.6783471707	-2.0414592809	 0.104776
H	 1.5957974726	 0.2051401113	-1.5442225047	 0.090392
H	 1.5796431254	-2.6052018501	-1.3095134091	 0.09569
H	 2.6842045385	-0.4318478738	 2.1370870171	 0.106178
H	 2.6825915482	 0.4708255847	 0.6016645203	 0.096409
H	 0.1450678287	-0.2803175642	 2.0477311929	 0.072421
H	-0.6670335319	-3.3279051349	 1.2179527117	 0.12726
H	 0.8917166014	-4.1246359594	 0.929107227	 0.130544
H	 0.6060967878	-3.2648333738	 2.4495677153	 0.121782
