19
gdb 99582	1.84714	1.30122	0.93069	3.7967	77.74	-0.2662	0.0039	0.2701	1326.555	0.157683	-419.246275	-419.235957	-419.235013	-419.2823	35.644	
C	-0.0544267531	 1.5714149299	 0.0498911014	-0.402083
C	 0.039976332	 0.0456700086	 0.0299307445	-0.182677
C	 0.6657944472	-0.4933522249	-1.2788859051	-0.158648
C	 0.8347905765	-1.9595948399	-1.192923805	 0.290856
N	 0.9464722673	-3.1068856016	-1.1151588475	-0.317658
N	-0.0668971106	-0.1284960268	-2.4801062299	-0.02651
C	-1.4299734104	-0.6070751215	-2.6676874681	-0.363082
C	 0.5404896523	 0.60126088	-3.4698688359	 0.162155
O	 0.0185919928	 0.9437712831	-4.5053807423	-0.329087
H	 0.93383157	 2.0325742008	-0.0534547885	 0.12384
H	-0.6846858373	 1.9460497606	-0.7615310729	 0.138744
H	-0.4840624566	 1.9134683977	 0.995132507	 0.130937
H	 0.6590124033	-0.3117018455	 0.8595179907	 0.128736
H	-0.9477439223	-0.405835639	 0.1681134023	 0.125681
H	 1.6686945985	-0.0596177531	-1.3783164863	 0.137979
H	-2.1227494362	-0.1330093822	-1.9643134983	 0.132453
H	-1.7247554947	-0.3482408745	-3.6842710431	 0.176558
H	-1.4762995961	-1.6928579686	-2.535204706	 0.150906
H	 1.5864580372	 0.8559484567	-3.208816167	 0.080901
