15
gdb 20176	3.65864	2.81705	2.11644	2.0982	62.91	-0.2445	0.0191	0.2636	674.7216	0.122476	-362.638221	-362.632768	-362.631823	-362.667496	22.461	
C	 0.0341421602	 1.5810584081	 0.1051938433	-0.243302
C	 1.5474692572	 1.578356322	-0.1107680049	-0.093999
C	 2.2232378998	 0.6448032656	 0.8513093299	 0.113899
O	 1.7584295583	 0.3862884096	 2.1697568587	-0.234766
C	 0.6366709494	-0.374499702	 2.2688258039	 0.123417
N	-0.2144450574	-0.6269388386	 1.366941269	-0.26268
C	 0.0468431949	 0.0091510872	 0.0813432549	-0.00184
C	 1.5367557535	 0.0481414491	-0.3190294094	-0.131848
H	-0.3400264312	 2.0449755737	 1.0217069092	 0.110561
H	-0.5043357923	 1.9929378863	-0.7515180429	 0.109513
H	 2.1186139988	 2.3333221933	-0.6383217022	 0.090446
H	 3.3065418852	 0.6622939889	 0.8528601991	 0.113398
H	 0.5321344776	-0.7629810468	 3.2793904793	 0.12563
H	-0.6140333906	-0.4169061194	-0.6723383965	 0.086067
H	 2.0211612367	-0.5846641971	-1.0509543913	 0.095504
