21
gdb 99113	3.76038	0.88821	0.86317	3.3623	80.73	-0.238	0.0638	0.3017	1479.2776	0.181435	-420.435999	-420.425592	-420.424648	-420.471731	37.721	
C	 1.4925438051	-2.2828763055	 2.9250649577	-0.322502
N	 0.6587405565	-1.9480528256	 1.7853294884	-0.362226
C	-0.4536973892	-2.7173267174	 1.497775917	 0.487605
O	-0.8838971936	-3.5767105007	 2.2465553623	-0.405886
N	-1.0329990528	-2.4135773863	 0.2725174728	-0.419862
C	-2.32418709	-2.9587196745	-0.0718697428	 0.375173
C	-3.4973194341	-2.4385482671	 0.7363335203	-0.452537
C	-2.5074122588	-3.2705526323	-1.5385296004	-0.323267
C	-2.326976033	-4.3882614	-0.5397465856	-0.258432
H	 2.2951783857	-2.9894806017	 2.6737107576	 0.117753
H	 1.9410444896	-1.3759071165	 3.3411345578	 0.117827
H	 0.8548982537	-2.7483489829	 3.6767999982	 0.16661
H	 1.1161305372	-1.4987298787	 1.0076366306	 0.233407
H	-0.8474471159	-1.4885404206	-0.0893658063	 0.229605
H	-3.5984262956	-1.3516976287	 0.6295468824	 0.101724
H	-4.4347341204	-2.8956099113	 0.4050812641	 0.110606
H	-3.3534239805	-2.6731076866	 1.7943242969	 0.148817
H	-3.4901573491	-3.1093360226	-1.9680107539	 0.110961
H	-1.6807093176	-3.0551182891	-2.2063513909	 0.107676
H	-1.380566816	-4.9137546207	-0.532048932	 0.121743
H	-3.1853567714	-4.9977577911	-0.2814274242	 0.115206
