13
gdb 131101	3.3566	1.1768	1.08551	1.3561	64.81	-0.2888	-0.0413	0.2475	1110.3672	0.088296	-452.693741	-452.685723	-452.684778	-452.72732	28.36	
O	-0.0587031107	 1.4181535495	 0.0682706101	-0.397148
C	 0.0307669607	 0.0057000549	-0.0006880655	-0.157061
C	 0.702181631	-0.4651070609	-1.21608007	 0.292292
C	 1.2718991694	-0.8252891088	-2.2101018126	-0.436164
C	 0.7019908202	-0.5570277348	 1.2296793531	 0.446506
N	 0.2417897839	-1.432400065	 2.0697210514	-0.311871
C	 1.2763139637	-1.5171658306	 2.971403527	 0.039839
N	 2.3012886731	-0.7512116803	 2.7200885192	-0.104254
O	 1.9201474144	-0.100206776	 1.5385071444	-0.205403
H	 0.8298048295	 1.7766753938	-0.0446033991	 0.301646
H	-0.9988157217	-0.3637958716	 0.0205793942	 0.162499
H	 1.7686392978	-1.1488589782	-3.0920025225	 0.214417
H	 1.2599772787	-2.1632396922	 3.8369161403	 0.154703
