14
gdb 79386	3.45292	1.38017	1.12383	4.3584	66.52	-0.2589	-0.0126	0.2463	1031.8672	0.100227	-436.588915	-436.581723	-436.580779	-436.620604	27.578	
O	-0.0429749283	 1.5135802514	-0.0363503438	-0.434856
C	 0.0728866893	 0.1141879596	-0.0359413948	 0.099571
C	 0.0810136667	-0.598187203	 1.3365641604	-0.186371
C	-1.4598382361	-0.3900459669	 1.508888512	 0.060976
O	-1.7403229794	-1.7989205612	 1.7848383983	-0.34652
C	-0.7117573834	-1.8207049079	 0.7573631041	 0.409832
C	-0.2111827732	-3.0706385891	 0.2526871886	 0.165532
N	 0.2126291647	-4.05901904	-0.1712718215	-0.340855
C	-1.2870850401	-0.5938544333	-0.0320513026	-0.15685
H	 0.837889927	 1.8968714727	 0.0191668044	 0.293204
H	 0.8030433106	-0.2467188467	-0.7706073453	 0.094759
H	 0.8340373872	-0.6416269898	 2.1221788428	 0.105918
H	-2.0092839727	 0.368076962	 2.0577065783	 0.124785
H	-2.0693081824	-0.6259496376	-0.7879912708	 0.110873
