16
gdb 2198	4.21069	2.31738	1.65471	3.4935	62.9	-0.24	0.0387	0.2787	784.9313	0.136523	-325.806369	-325.798669	-325.797725	-325.83824	26.697	
C	-0.0915876681	 1.5956734966	 0.0585943957	-0.401406
C	 0.0215114496	 0.0806800142	-0.0421852745	-0.129354
C	 0.8339889452	-0.5189731599	-1.2328434548	-0.18737
N	 1.7480077801	-1.0901157835	-0.2426604863	-0.067416
C	 2.9378776379	-1.888908704	-0.3653352844	-0.343242
C	 1.0969111539	-0.583539802	 0.8549658178	 0.402062
O	 1.3294430265	-0.6512005406	 2.0351262442	-0.380456
H	 0.8811128646	 2.0755039909	-0.0932801069	 0.121825
H	-0.7875137015	 1.9940793807	-0.6865573363	 0.118516
H	-0.4535028464	 1.8827155255	 1.0502338645	 0.139412
H	-0.955839626	-0.3948887987	 0.0820753938	 0.100964
H	 0.3102285345	-1.2646996545	-1.8421190454	 0.106295
H	 1.3002076911	 0.2245427855	-1.8909463977	 0.105712
H	 3.7184293506	-1.3680597685	-0.9341279298	 0.126334
H	 3.3094104224	-2.0845020483	 0.6435936777	 0.161536
H	 2.7325022457	-2.8473502832	-0.8583785475	 0.126588
