15
gdb 17870	3.3892	2.17311	2.02495	1.7161	66.	-0.2298	-0.0088	0.221	744.2516	0.12133	-362.652784	-362.64667	-362.645726	-362.682842	24.344	
O	 0.0430456091	 0.0124318788	-0.1564649255	-0.322202
C	 0.0138776827	 1.1931133967	 0.0246425412	 0.433347
C	-1.0856439988	 2.2789327959	 0.0375021417	-0.138964
C	-1.2880940202	 2.8727057853	 1.4398713102	-0.236446
C	 0.0623981295	 3.147188992	 2.0630598111	-0.070303
C	 1.1769960411	 2.8878337788	 1.3785546476	-0.024114
C	 1.0256433818	 2.3592184477	-0.0328363591	-0.187311
N	-0.0846428461	 3.1505154834	-0.695493437	-0.308255
H	-2.0226169159	 2.0745100039	-0.484992073	 0.091673
H	-1.8860058205	 3.7914213824	 1.3772878649	 0.120226
H	-1.8601957478	 2.167722115	 2.057860454	 0.120528
H	 0.0937602137	 3.5496413818	 3.0710863877	 0.099645
H	 2.1686963826	 3.0275600306	 1.7938187448	 0.102967
H	 1.9566875904	 2.2593077617	-0.5905254541	 0.088429
H	-0.1081875615	 2.8835180058	-1.6796894546	 0.230781
