17
gdb 79324	3.50517	1.23722	1.1672	2.38	74.83	-0.2448	-0.0185	0.2263	1090.4318	0.13608	-421.787421	-421.779733	-421.778789	-421.819754	29.496	
O	-0.1547705877	 1.5025863423	-0.0897210169	-0.437317
C	-0.0262251332	 0.1018505021	-0.0911498213	 0.149539
C	-1.3371436516	-0.6680902389	-0.1318270145	-0.143558
C	-1.7328667973	-0.8340802222	-1.5744943745	-0.118917
C	-0.6818857647	-0.1261589496	-2.4346000257	-0.225183
C	 0.3641813586	-0.6373067046	-1.4092809524	-0.195269
C	-0.6504057714	-1.7537408585	-0.9866892223	 0.303519
C	-0.6209243731	-3.1919697108	-0.791542297	-0.002753
O	 0.3500945231	-3.899476735	-0.9400643657	-0.278665
H	 0.7204249559	 1.8893993984	 0.0159521119	 0.286002
H	 0.5929771437	-0.2534857734	 0.7426745845	 0.08194
H	-2.0337940675	-0.8355737282	 0.6793137336	 0.10476
H	-2.7392264973	-1.1253820038	-1.846925952	 0.103968
H	-0.5691137534	-0.6162175211	-3.4038901738	 0.109304
H	-0.7673149016	 0.957270328	-2.5525798801	 0.111468
H	 1.4046694893	-0.7937662002	-1.6803253129	 0.088464
H	-1.6056786319	-3.6161529145	-0.4830837911	 0.062698
