21
gdb 91999	2.47779	1.40567	1.10975	2.9622	81.8	-0.239	-0.0177	0.2213	1175.8653	0.183269	-387.100208	-387.091583	-387.090639	-387.133698	33.207	
C	 0.8679524684	 1.4395588403	-0.3105594115	-0.415673
C	 0.1769110933	 0.1138779168	 0.049697742	-0.020631
C	 0.1882838804	-0.9260426214	-1.1107023206	-0.232697
C	 1.2135433771	-1.9883172016	-0.7463918047	-0.028207
C	 2.599835	-1.5395803661	-0.3640348894	-0.295031
C	 1.5744840415	-1.8217526704	 0.7123913873	-0.056865
C	 0.7668804284	-0.6624337771	 1.2878108733	-0.081105
C	 1.5696310936	 0.202333546	 2.235340636	 0.153409
O	 1.2104884045	 0.5290864131	 3.3388081246	-0.260165
H	 1.9157893491	 1.3177955138	-0.5989662293	 0.12336
H	 0.3513384493	 1.9020505438	-1.157775239	 0.119087
H	 0.8317752201	 2.1501412368	 0.521691405	 0.128831
H	-0.858436287	 0.3692196952	 0.2933600589	 0.091591
H	-0.7957336651	-1.3994242047	-1.2013789986	 0.102319
H	 0.3977238481	-0.4442596479	-2.0726950637	 0.100068
H	 1.0999762433	-2.9774761314	-1.176103371	 0.085235
H	 3.3999617243	-2.2644349408	-0.4693422719	 0.115124
H	 2.9098335423	-0.5217677539	-0.5698806031	 0.114644
H	 1.7382218663	-2.6807024263	 1.3538482488	 0.092363
H	-0.0649383785	-1.0671465588	 1.8734583589	 0.091766
H	 2.5623534605	 0.5198863447	 1.8434826077	 0.072577
