16
gdb 42566	3.2952	1.5884	1.31876	4.6119	72.86	-0.2309	0.0061	0.237	969.0173	0.125142	-400.681743	-400.674962	-400.674018	-400.712854	27.412	
O	 0.0861719161	 0.1090693522	 0.1711892772	-0.336904
C	 0.0524439811	 1.3047307709	 0.1487480947	 0.462217
C	-1.0518289754	 2.3223369162	 0.0915683331	-0.212653
C	-0.1333753404	 3.1885353937	-0.7871423408	-0.070161
C	-0.4492385564	 3.6476003881	 0.6015782358	-0.175304
C	 0.9633693631	 3.3423432091	 1.056971604	 0.409835
C	 1.9318181404	 4.3067224981	 1.6067521527	-0.327993
N	 1.5164564551	 3.1045598684	 2.3741170274	-0.369926
C	 1.0954296949	 2.406072689	-0.1556597003	-0.28896
H	-2.1198805003	 2.1768550711	 0.0045236538	 0.114494
H	-0.3151504092	 3.5938835501	-1.7693295482	 0.119716
H	-1.1043592773	 4.4525629276	 0.9128685358	 0.102952
H	 2.968119397	 4.3007102002	 1.2799152773	 0.124902
H	 1.56081705	 5.2808234391	 1.9184383088	 0.114342
H	 0.8523497353	 3.3520481173	 3.1036223377	 0.234513
H	 2.049902946	 2.174576019	-0.6186856591	 0.09893
