19
gdb 110209	2.16893	1.63321	1.1139	1.2026	72.07	-0.2458	0.0681	0.3139	1136.0159	0.157286	-460.099246	-460.090105	-460.089161	-460.132805	34.731	
C	 0.2290389594	 1.2414108195	 0.2127414389	-0.247648
O	-0.2772124928	 0.0029639797	-0.253185006	-0.270002
C	 0.5189614672	-0.5819933649	-1.2413501929	 0.050217
C	 1.765459698	-1.4225389201	-0.8463104903	 0.359671
O	 2.9126064834	-0.8662317379	-0.3151557971	-0.477535
C	 0.8026075252	-2.4703282186	-0.2051811686	-0.372928
C	 0.1752293771	-2.0574184694	-1.5824719145	 0.37834
O	-0.9681620302	-2.5390962592	-2.1799662238	-0.474528
C	 1.5830287963	-2.1689465254	-2.2089482079	-0.337265
H	 1.2126478592	 1.1242071526	 0.6846253123	 0.131692
H	 0.3197614137	 1.9697559567	-0.6074586425	 0.107153
H	-0.4831333633	 1.6247806697	 0.9472982847	 0.123484
H	 0.6601434523	 0.0966079759	-2.0955889883	 0.064091
H	 3.5225442198	-1.5760184564	-0.0866380994	 0.286067
H	 1.1735173187	-3.4967795383	-0.140898353	 0.085644
H	 0.2688953777	-2.1566425952	 0.6911803965	 0.108616
H	-1.72069326	-2.244755652	-1.654271459	 0.291565
H	 1.7661498078	-1.5938131043	-3.1203389565	 0.097833
H	 1.9985850805	-3.1772577327	-2.2660942028	 0.095532
