17
gdb 51587	5.11071	0.66726	0.64895	3.4275	75.02	-0.257	-0.04	0.217	1670.7684	0.133901	-417.985625	-417.976241	-417.975297	-418.021798	32.118	
O	 0.2363976656	 2.423191749	 2.0368704933	-0.226359
C	 0.0019960353	 2.408349023	 0.8579620642	 0.161879
C	 0.9131286514	 1.7946636786	-0.1902894034	-0.314659
C	 1.2166074789	 2.8025338455	-1.2882008148	 0.000574
C	 2.4136440956	 3.6895297845	-1.210315258	-0.245518
N	 2.3190768885	 2.656734626	-2.2409429078	-0.089487
C	 3.2116014437	 1.5090203384	-2.1348581575	-0.290974
C	 4.4583117808	 1.7716092844	-2.8635342319	 0.285374
N	 5.4502999833	 1.96869052	-3.4205883273	-0.294737
H	-0.9317924369	 2.8598792088	 0.4505563564	 0.08301
H	 1.8078556922	 1.4323252941	 0.3195442122	 0.128589
H	 0.3843833781	 0.9319528802	-0.622656796	 0.130925
H	 0.3218582958	 3.2021786114	-1.7639313894	 0.110485
H	 2.3798870141	 4.7150179405	-1.5651220658	 0.135407
H	 3.0972576649	 3.5165525083	-0.3796809237	 0.126628
H	 3.4824670558	 1.2314102537	-1.1039341092	 0.139365
H	 2.7242785829	 0.6381240436	-2.5882779413	 0.159497
