14
gdb 45936	2.86365	1.46093	0.99857	2.855	64.38	-0.2635	-0.0891	0.1745	1092.4123	0.101847	-473.910181	-473.902603	-473.901658	-473.942906	27.741	
O	 0.0036174665	-0.1030855864	 0.0175374534	-0.323954
C	-0.0553857847	 1.1014983399	 0.0508080252	 0.410514
C	-1.3503520077	 1.8926072167	 0.0777232511	-0.335726
C	-1.227490294	 3.2326751002	 0.8178465931	-0.334213
C	-0.0630489407	 4.0444957434	 0.2909409581	 0.309848
O	-0.0875375945	 5.226604796	 0.0819589896	-0.259673
C	 1.2504774731	 3.2545976721	 0.0500013293	 0.326691
O	 2.3173080745	 3.7965693861	-0.0815389636	-0.2997
N	 1.1129032353	 1.8703502121	 0.0325684425	-0.366993
H	-1.6441448543	 2.0657819767	-0.9656884923	 0.153855
H	-2.1148800511	 1.2517221965	 0.519483115	 0.153481
H	-2.1380952006	 3.829858563	 0.7413386628	 0.145946
H	-1.0414495397	 3.0460299091	 1.8848588435	 0.147927
H	 1.9757491278	 1.3445781346	-0.0617071976	 0.271997
