19
gdb 95122	2.38253	1.59314	1.18381	2.5554	75.91	-0.2556	-0.0356	0.22	1102.0391	0.158796	-423.042116	-423.033674	-423.03273	-423.075087	31.993	
C	-0.2919310616	 1.433729061	-0.0878145099	-0.418113
C	-0.0247365343	-0.0634704069	 0.0767217813	-0.044582
C	 0.6751193174	-0.7208930605	-1.1412443206	-0.234586
C	 1.4658220519	-1.9254413699	-0.5830133936	-0.250565
C	 1.8085557445	-1.5115609862	 0.8348720202	-0.007764
O	 2.3019604463	-0.1837037042	 0.9652254652	-0.292919
C	 0.9004091329	-0.4068038732	 1.2330351818	 0.313698
C	 0.5069763822	-0.231801418	 2.6543235823	 0.089413
O	-0.6161244793	 0.0187356007	 3.0175730447	-0.264332
H	 0.6480472711	 1.9798937966	-0.2197168503	 0.125239
H	-0.9178874123	 1.6214431682	-0.9658106796	 0.11484
H	-0.8073327737	 1.8373136184	 0.7879019559	 0.135878
H	-0.9739403188	-0.5745015716	 0.2821105514	 0.093664
H	-0.0358196782	-1.0101786353	-1.9186119415	 0.103823
H	 1.3698801508	-0.0020403772	-1.5837627358	 0.118656
H	 0.8484736087	-2.8308235397	-0.5380427778	 0.112154
H	 2.3551064112	-2.1643225751	-1.1742802082	 0.116583
H	 2.2079075743	-2.2269797245	 1.5509282575	 0.10255
H	 1.3509275267	-0.3556735226	 3.368348077	 0.086363
