11
gdb 132404	2.03785	1.81164	0.95905	1.506	55.5	-0.2725	-0.0361	0.2364	1050.2709	0.066279	-538.011467	-538.004987	-538.004043	-538.042677	24.477	
O	 0.0996582402	 1.2898305713	 0.1018898165	-0.37846
C	 0.071645995	-0.0422748047	 0.0520901637	 0.47255
N	 0.0708334624	-0.6077097468	-1.1595526898	-0.4057
C	 0.0427066992	-1.9249136311	-1.1599144773	 0.370835
F	 0.0412783468	-2.5065123795	-2.3439012002	-0.049182
C	 0.0152877875	-2.7129313327	-0.0190729414	-0.446431
C	 0.0201346706	-1.9748246567	 1.1584117325	 0.372545
F	-0.0043163377	-2.6177964432	 2.3097390511	-0.048688
N	 0.0475100142	-0.6614538336	 1.2290732476	-0.34374
H	 0.1148604046	 1.6036832645	-0.8125937093	 0.315067
H	-0.0075266728	-3.7915815975	-0.0435735833	 0.141203
