15
gdb 128339	2.81685	1.29047	0.8912	4.3269	72.77	-0.2266	-0.0546	0.1719	1233.624	0.113861	-450.131352	-450.122924	-450.12198	-450.164829	29.573	
C	 0.0503187773	 1.4657148553	-0.0336240195	-0.322195
N	-0.1066409687	 0.020527555	-0.0926065328	-0.385791
C	 0.5472683604	-0.6943556748	-1.0576080341	 0.337801
N	 1.1369172707	-0.1027090466	-2.1014982477	-0.301471
N	 1.594015762	-1.1492621109	-2.8073580028	-0.065158
N	 1.3752098836	-2.3430381766	-2.3315069705	-0.235337
C	 0.6946125467	-2.109384101	-1.1930348908	 0.145612
C	 0.218015559	-3.1681730114	-0.3101698713	 0.080765
O	 0.3815936802	-4.3553714545	-0.4695097153	-0.267091
H	 1.0888660717	 1.7763493198	 0.1451933276	 0.127621
H	-0.2732444485	 1.9072013698	-0.9792093193	 0.154688
H	-0.582400014	 1.8533841215	 0.7672114116	 0.127701
H	-0.2044439758	-0.4454773447	 0.7944966638	 0.251767
H	 2.0924555063	-1.0092930679	-3.6722005276	 0.299952
H	-0.3448722911	-2.7859175831	 0.5741180888	 0.051136
