23
gdb 118551	3.32499	0.71337	0.61711	3.1034	83.78	-0.2515	-0.0223	0.2291	1850.0565	0.20288	-425.439496	-425.428202	-425.427258	-425.477269	39.384	
C	-0.0539049393	 1.6291465272	-0.1291182038	-0.380678
C	 0.0274128203	 0.1064479568	 0.0151871462	-0.181379
C	-1.3574024184	-0.5488858626	 0.1104806669	-0.173646
C	-1.3578983992	-2.0891339721	 0.1181021519	-0.010222
C	-0.6749398069	-2.663902569	 1.3725666274	-0.069802
O	-0.5591803692	-4.0776224923	 1.3378423834	-0.425167
C	-2.801509619	-2.626392106	-0.0117866624	-0.286485
C	-2.8803032898	-4.1131800385	-0.2720493201	 0.15305
O	-3.4221491845	-4.9109552624	 0.4549392026	-0.262455
H	 0.9425122532	 2.0765515636	-0.1948971136	 0.11497
H	-0.6071736438	 1.9127762314	-1.0313902794	 0.114994
H	-0.5660365293	 2.0817781106	 0.7272569132	 0.115905
H	 0.5672850961	-0.3150492489	-0.8430446695	 0.099173
H	 0.6257130529	-0.1373002345	 0.9007048795	 0.104922
H	-1.8750964151	-0.1815907272	 1.0084232037	 0.09585
H	-1.9609484771	-0.2073061725	-0.7408837809	 0.093516
H	-0.7823861527	-2.4419044915	-0.7499331643	 0.084008
H	 0.3468741231	-2.2801026252	 1.4446370483	 0.111587
H	-1.212778306	-2.3249152143	 2.2719816792	 0.092201
H	-1.3840837086	-4.46701668	 1.6444048946	 0.299235
H	-3.3885237833	-2.398603298	 0.8851889001	 0.114086
H	-3.2824238739	-2.1308428864	-0.8671065886	 0.11564
H	-2.4042980998	-4.4405045084	-1.2239857345	 0.080697
