21
gdb 98218	2.25238	1.12746	0.95632	1.3857	79.89	-0.244	-0.0419	0.2021	1383.9448	0.178287	-424.278385	-424.267338	-424.266394	-424.315334	38.63	
C	-0.643116451	 1.733529223	-0.091805344	-0.381116
C	-0.41740377	 0.2359503072	-0.2786398071	-0.284383
C	-1.4058225466	-0.6337262542	 0.4734947381	 0.370483
O	-2.2201628026	-0.191240723	 1.2513462466	-0.31249
C	-1.3515447165	-2.1423218307	 0.1521165315	-0.16346
C	-1.6831505496	-2.9903371818	 1.3841289443	-0.416351
C	-2.3087992822	-2.336218042	-1.0436713888	 0.379521
C	-3.7755545844	-2.5460641297	-0.7327726999	-0.483547
O	-1.887716933	-2.2651004123	-2.1751755304	-0.303071
H	 0.1150952538	 2.3079425175	-0.6308052193	 0.113903
H	-1.6275266358	 2.0299470723	-0.4640124222	 0.129959
H	-0.5998695099	 2.0055387768	 0.965708467	 0.132765
H	-0.4576126909	-0.0619665194	-1.3349845588	 0.14766
H	 0.5876407076	-0.0597965724	 0.0566130301	 0.125848
H	-0.357493229	-2.3775154761	-0.2379269145	 0.102729
H	-0.8896960428	-2.8932443829	 2.1308971059	 0.125924
H	-2.6127639765	-2.6565313989	 1.84834025	 0.146215
H	-1.7710312076	-4.0493101383	 1.1248314249	 0.119107
H	-4.120220616	-1.7891563487	-0.0204114786	 0.162656
H	-4.3537884154	-2.495560536	-1.6557325107	 0.141969
H	-3.9306987617	-3.5220544504	-0.2604442941	 0.145676
