17
gdb 91474	2.61799	1.70268	1.26078	3.8128	72.44	-0.246	-0.0032	0.2428	1007.4058	0.138089	-417.992564	-417.98499	-417.984046	-418.024436	29.878	
N	 0.1380544842	 1.3950340725	-0.0385220201	-0.514005
C	 0.0480102637	-0.0478001865	 0.0096609145	-0.009122
C	 0.4300567755	-0.6185454988	 1.4143589886	-0.231026
C	-0.9093296667	-1.2949997025	 1.7482703611	 0.063403
C	-1.2488238099	-2.0935644705	 0.4708660161	-0.275377
C	-1.4117708676	-0.635487791	-0.015374924	 0.292588
O	-1.8816715833	-0.2739425624	 1.3204173224	-0.322692
C	-2.2669218931	-0.2391420739	-1.1133932552	 0.179263
N	-2.900888609	 0.0800581356	-2.0256299278	-0.33614
H	-0.1412370849	 1.7428459523	-0.9516765923	 0.241086
H	-0.505710918	 1.7912949688	 0.6421741681	 0.237962
H	 0.6506559922	-0.470051045	-0.7990465502	 0.094074
H	 1.2688524388	-1.3176218894	 1.3847330755	 0.112327
H	 0.6689210124	 0.1897628455	 2.107933744	 0.123422
H	-1.0889246386	-1.6728594432	 2.7526580429	 0.09799
H	-0.4790035491	-2.7136600089	 0.0066411398	 0.112653
H	-2.2052925164	-2.6109649324	 0.5385663368	 0.133591
