17
gdb 16707	2.93147	2.243	1.78186	3.4584	67.23	-0.2411	-0.0107	0.2305	816.221	0.143862	-363.850921	-363.844032	-363.843088	-363.881802	26.96	
C	-0.0659585732	 1.5433241306	 0.0325887011	-0.414212
C	 0.0600854163	 0.0205396801	 0.0300031744	 0.014613
C	 1.0096630448	-0.567343889	-1.0824147738	-0.253868
C	 1.9964889936	-1.3495353823	-0.1785941191	-0.120585
N	 1.131480986	-1.9847228997	 0.8740620117	-0.326214
C	 0.7745124814	-0.5822952125	 1.2745713001	-0.130845
C	 2.2493485473	-0.2916889444	 0.9194085819	 0.483521
O	 3.1498808087	 0.3730857692	 1.3230845692	-0.319248
H	 0.9148292761	 2.0235062411	 0.1178311392	 0.134396
H	-0.5343851799	 1.8998304174	-0.8902658479	 0.12015
H	-0.6794089641	 1.8878289283	 0.8719669384	 0.119797
H	-0.9386937492	-0.4237482917	-0.0478769343	 0.07609
H	 0.4896912704	-1.2318770145	-1.7782397008	 0.105185
H	 1.5021780644	 0.2153855556	-1.6681473661	 0.114695
H	 2.783041831	-1.9482132124	-0.6343761635	 0.091388
H	 0.3358588104	-2.4795727309	 0.4684606656	 0.216838
H	 0.3430782359	-0.4174870548	 2.2607894241	 0.0883
