16
gdb 13349	6.11509	1.08799	0.97454	2.4204	61.57	-0.2518	-0.0252	0.2266	1143.5164	0.129827	-420.878894	-420.870913	-420.869968	-420.913276	26.97	
O	-0.5771589367	 0.706822646	 0.7907109593	-0.238128
C	 0.0892852516	 0.9586616505	-0.1802677015	 0.156314
C	 1.3480563079	 1.8031636739	-0.1545917095	-0.297388
C	 1.2890002249	 2.9652225504	-1.1494454965	 0.106758
C	 2.5722863847	 3.8121834489	-1.2214205011	-0.125715
O	 2.6201121236	 4.2017117099	-2.583619366	-0.230869
C	 2.1436925788	 3.0868689487	-3.288910461	 0.027377
O	 1.145983305	 2.4740266939	-2.4865319834	-0.277184
H	-0.184432635	 0.576587073	-1.1866773588	 0.098844
H	 1.4990698732	 2.1721231207	 0.8647639921	 0.123107
H	 2.1951316379	 1.1589068486	-0.4275228911	 0.12217
H	 0.4259094052	 3.6055408741	-0.9210253778	 0.097264
H	 2.5440870205	 4.7104840671	-0.6024607476	 0.127962
H	 3.4540313016	 3.2101645111	-0.9484783672	 0.097411
H	 1.7082013675	 3.4266509714	-4.2338572488	 0.122716
H	 2.9547771793	 2.3628730717	-3.483625331	 0.08936
