11
gdb 21496	5.40626	1.62746	1.2509	2.8216	54.55	-0.2819	-0.0754	0.2065	860.0396	0.072198	-430.726572	-430.719736	-430.718792	-430.758	24.135	
N	-0.0936041675	 1.3305707117	-0.0051685051	-0.535304
C	 0.0583785162	-0.0175453852	-0.0100525088	 0.330222
O	 1.1244032482	-0.5999868984	-0.0220892229	-0.344235
C	-1.2201290883	-0.7851422252	 0.0013562782	 0.333186
C	-1.4379577985	-2.1277551451	 0.0006837877	-0.169278
N	-2.7995908505	-2.3056562084	 0.0141677627	-0.105308
N	-3.4009810244	-1.2046771692	 0.0230956081	 0.000039
O	-2.3987847629	-0.1632427053	 0.014962776	-0.238779
H	 0.7325247107	 1.9055807841	-0.0109799481	 0.276059
H	-1.0023639684	 1.7614727721	 0.0065633904	 0.282538
H	-0.7391592747	-2.9449795511	-0.0083871382	 0.17086
