15
gdb 78066	2.45408	1.34163	1.22838	3.5083	67.58	-0.2477	-0.0412	0.2065	1067.5996	0.110636	-457.748582	-457.740336	-457.739392	-457.781894	29.933	
O	-0.0393828657	 1.4633507452	 0.2122284509	-0.418419
C	-0.0058022951	 0.0756347994	 0.0060198563	-0.013009
C	-1.3504231697	-0.6427341866	 0.062104485	-0.08332
C	-2.2581653847	-0.265996764	-1.0723507724	-0.119345
C	-2.3227842376	 1.0790145721	-1.7266509228	 0.164883
O	-3.3661490961	 1.574152342	-2.0696962994	-0.261147
C	-1.1224493179	-1.266116104	-1.3352451524	-0.205001
C	 0.1853680241	-0.5301349596	-1.4247954982	 0.362882
O	 1.1034030177	-0.530340979	-2.193699927	-0.309716
H	 0.8443028451	 1.8131395686	 0.0512400744	 0.300812
H	 0.7189637048	-0.4210837436	 0.6707048736	 0.10845
H	-1.7466000706	-1.1396399623	 0.937539362	 0.120851
H	-3.234899988	-0.7402750799	-1.0285679606	 0.124923
H	-1.3537485237	 1.5909888982	-1.883339634	 0.097904
H	-1.3467823225	-2.2563597765	-1.7107937754	 0.129252
