16
gdb 44721	2.58634	1.71458	1.19715	3.6268	74.91	-0.241	-0.0102	0.2308	1025.4661	0.123696	-400.69876	-400.690957	-400.690013	-400.731314	29.763	
O	-0.2881245048	 0.0389471842	 0.2971181873	-0.307587
C	-0.2038436362	 1.2044462919	 0.0556481155	 0.39973
C	-1.1969604889	 2.3502914051	-0.2572620228	-0.383608
C	 0.0241448397	 3.2768518661	-0.0748506906	 0.028641
C	 0.4378886259	 3.7186415306	 1.3525391574	-0.271292
C	 1.50730011	 2.5692197984	 1.335581983	-0.163411
C	 1.5411791477	 1.6420801323	 2.4447204413	 0.350371
C	 1.560573764	 0.8972120652	 3.3874142814	-0.439244
N	 0.9301007655	 2.0751097755	 0.0210213552	-0.159269
H	-1.6284511505	 2.3313654194	-1.2611953985	 0.138045
H	-2.0017015744	 2.4410357899	 0.4761005043	 0.138824
H	 0.241421783	 3.9801071518	-0.8803947339	 0.090992
H	 0.8415070995	 4.7274487169	 1.4501757106	 0.120103
H	-0.3362561362	 3.5649494652	 2.1073054727	 0.125559
H	 2.5135548758	 2.954280743	 1.1432029985	 0.124425
H	 1.5784374098	 0.2237865945	 4.2086488285	 0.20772
