16
gdb 77888	2.18149	1.71408	1.31573	2.4568	65.99	-0.2288	0.0021	0.2309	1018.6958	0.122414	-474.995832	-474.986937	-474.985993	-475.029086	32.542	
C	-0.1166102495	 1.2694514133	-0.4020204071	-0.346762
N	-0.0525117274	-0.0368860572	 0.2279875014	-0.085082
C	-1.1019216972	-1.0574671316	 0.2184434698	-0.144613
C	-1.0252215533	-1.8951693686	-1.0230242154	 0.052932
O	-0.7301862854	-1.2945797297	-2.2445883913	-0.411947
C	-0.0006636747	-2.1351043426	 0.0708688463	 0.170829
O	 0.1638235719	-3.390196688	 0.5949530656	-0.443495
C	 0.9826204525	-0.957546957	 0.0667413717	 0.323936
O	 2.1693681097	-0.8195701188	-0.0511875238	-0.362815
H	 0.9051247999	 1.6494118008	-0.4794196232	 0.152599
H	-0.5553536609	 1.2095900463	-1.4043428218	 0.141911
H	-0.7008885192	 1.963358786	 0.2097286358	 0.124435
H	-1.9456562023	-1.0066901844	 0.8943665417	 0.119137
H	-1.7621816099	-2.7017584498	-1.062628991	 0.108607
H	-0.1342612694	-1.8722439913	-2.7342275849	 0.298942
H	 0.5635623952	-3.3106884674	 1.4687724762	 0.301386
