22
gdb 56264	5.2862	0.54383	0.52585	3.3297	83.67	-0.2427	0.0359	0.2786	2126.8231	0.193213	-404.378106	-404.367528	-404.366584	-404.415668	37.574	
N	-0.0756501996	 1.2877951667	 0.359824193	-0.522291
C	 0.0646755135	-0.0105703717	-0.046182443	 0.406359
O	 1.1505044368	-0.4940145663	-0.3008970305	-0.357379
C	-1.2442742529	-0.7912316053	-0.1601921034	-0.317071
C	-1.0435450143	-2.2996137553	-0.0015602739	-0.156079
C	-2.3169043864	-3.1062229151	-0.282194213	-0.214638
C	-2.1161406146	-4.5989524791	-0.1259840934	 0.038139
C	-2.2494737597	-5.2498113379	 1.22857141	-0.253223
C	-3.2839282533	-5.5073770108	 0.1591333079	-0.278316
H	 0.7396182682	 1.8787053878	 0.3439491396	 0.258172
H	-0.9769613778	 1.7155083492	 0.4786208658	 0.255075
H	-1.9737526989	-0.413070382	 0.5669828561	 0.098674
H	-1.6634283398	-0.5739862227	-1.1532719586	 0.123828
H	-0.2387500428	-2.6110601451	-0.6749327507	 0.123091
H	-0.687459066	-2.5161059736	 1.0126669884	 0.104864
H	-3.1203276165	-2.7809402661	 0.3937889795	 0.08467
H	-2.670240578	-2.8868568361	-1.2999882888	 0.091977
H	-1.3436381914	-5.0120803701	-0.7706281976	 0.082521
H	-1.5680502775	-6.0510873188	 1.492158028	 0.110271
H	-2.5352267682	-4.6199768139	 2.0653800137	 0.106063
H	-4.2612975998	-5.0511987793	 0.2809012868	 0.106242
H	-3.3081457211	-6.4846242147	-0.310479176	 0.109052
