23
gdb 103232	2.43222	1.56023	1.1732	0.2655	88.64	-0.2025	0.0776	0.2801	1174.1415	0.205491	-351.077594	-351.068702	-351.067758	-351.11055	35.913	
C	 0.5784309376	-0.578149113	-1.42078404	-0.37132
C	 0.0591078	 0.0675124846	-0.1302567035	-0.287053
C	 0.6252969302	-0.5666761331	 1.1475258189	 0.336302
C	 1.9066113881	 0.1510084799	 1.57955623	-0.444338
C	-0.1395179018	-1.0647788708	 2.3489712935	-0.11524
C	-1.3797650987	-1.9771697902	 2.1214503215	-0.074313
C	-1.7212977804	-2.3435794744	 0.6969682717	-0.31021
C	-0.5201399642	-2.9637776706	 1.3446829833	-0.061543
C	 0.7117163892	-2.0378562496	 1.5334154933	-0.110381
H	 0.2560197216	-1.6205368073	-1.5028934249	 0.125975
H	 0.2185270616	-0.0404730023	-2.3038787867	 0.107537
H	 1.6731295891	-0.5719443341	-1.4519156227	 0.11339
H	 0.3532879087	 1.1248730094	-0.1236951681	 0.087099
H	-1.0317006738	 0.0808704828	-0.1197645861	 0.109998
H	 1.6977403251	 1.1994367119	 1.8198531875	 0.115007
H	 2.3562542459	-0.3134219745	 2.4622771862	 0.112149
H	 2.6517272	 0.1345318326	 0.7763256676	 0.116429
H	 0.0736059322	-0.6809263616	 3.3406870122	 0.078615
H	-2.0690330042	-2.1902100823	 2.9288599617	 0.086362
H	-2.5702129943	-3.0204756441	 0.6362240497	 0.108631
H	-1.6600153109	-1.6694299149	-0.1430900752	 0.112939
H	-0.4373789869	-4.0336894456	 1.4901288552	 0.084714
H	 1.669926336	-2.4600916727	 1.8134176049	 0.07925
