18
gdb 68141	3.61743	1.28296	1.1234	4.8981	76.73	-0.2691	0.0041	0.2731	1118.5631	0.148092	-401.954415	-401.946473	-401.945529	-401.986518	31.197	
C	-0.1368900256	 1.4878679769	-0.028040368	-0.497691
C	 0.0382650558	-0.0019253773	-0.0212452991	 0.401491
C	 0.8000161993	-0.7916044458	-1.116118542	-0.306177
C	-0.2240197579	-1.8463386674	-0.6345759892	 0.317313
C	 0.2516838836	-2.1929718711	 0.800685277	-0.264429
C	 0.453489698	-0.7249621063	 1.2836078249	-0.253852
O	-1.1717050504	-0.766428535	-0.3933983858	-0.348015
C	-0.7052740388	-2.9191336327	-1.4819556649	 0.18331
N	-1.0553083013	-3.7908709413	-2.1546532141	-0.335671
H	 0.8107291659	 1.9813743306	 0.2109118393	 0.128399
H	-0.4757111538	 1.8381978958	-1.0063658042	 0.134879
H	-0.8751828095	 1.7884460227	 0.7222760756	 0.136434
H	 0.5669951888	-0.4317667325	-2.1180001231	 0.128038
H	 1.8650094841	-0.9999068783	-0.9920227045	 0.107638
H	-0.5278205971	-2.722933607	 1.3493688243	 0.128527
H	 1.1627321301	-2.7952418501	 0.8058746182	 0.117467
H	 1.4820653019	-0.5023617912	 1.5790488719	 0.106636
H	-0.213291773	-0.4594120502	 2.1064260936	 0.115704
