17
gdb 8537	4.09305	1.90473	1.56007	1.6499	68.74	-0.2412	0.0722	0.3133	856.586	0.142011	-363.766823	-363.759771	-363.758827	-363.797579	27.898	
C	-0.1189718059	 1.5789885011	-0.0139592068	-0.428792
C	-0.0404432789	 0.0607692695	-0.0206849009	-0.001595
C	 1.1857189266	-0.6280243301	-0.6442854695	-0.085241
N	 2.0771386849	-0.2810617187	 0.573111456	-0.157959
C	 2.5244786138	-1.7345253329	 0.6880586459	-0.245585
C	 1.0630615483	-1.8922434621	 0.2772804274	 0.345459
O	 0.2698809706	-3.0162534661	 0.1336779574	-0.468226
C	 0.6778843049	-0.661626938	 1.1330561996	-0.045696
H	 0.840101066	 2.0183498274	 0.271596205	 0.139394
H	-0.3902343916	 1.9598915748	-1.0046975953	 0.112956
H	-0.881009557	 1.9272448716	 0.6918482798	 0.114228
H	-0.9915882991	-0.4035578892	-0.2991804589	 0.081546
H	 1.5944130363	-0.5653017742	-1.6556635304	 0.074946
H	 3.3045231368	-2.0063885662	-0.0314686402	 0.095412
H	 2.8114025041	-2.0242013827	 1.7040675748	 0.104262
H	 0.6311687937	-3.5609062887	-0.574560018	 0.283512
H	 0.4949085764	-0.6340537555	 2.2091235742	 0.081379
