17
gdb 90108	2.91548	1.51581	1.34717	3.1479	69.48	-0.2389	0.0421	0.281	993.7379	0.134548	-458.800994	-458.793396	-458.792451	-458.832535	30.816	
O	 0.1750482623	 1.4559872301	-0.0891821669	-0.407353
C	 0.0805822581	 0.0599314673	-0.0046053399	 0.057043
C	 0.1903128255	-0.5841646995	 1.4773565219	-0.387046
C	-1.3362825821	-0.5795181058	 1.3997874176	 0.333008
O	-2.6314932715	-1.3444056534	 1.4709273884	-0.416105
C	-2.8024194353	-0.2109927	 0.434170203	-0.065109
C	-2.199168302	 0.736643288	 1.473550432	 0.155678
O	-2.9117987242	 0.9805654087	 2.6364400286	-0.452204
C	-1.3756895611	-0.5616790611	-0.0957243865	-0.038877
H	 1.0812510727	 1.7115949856	 0.1129769429	 0.293137
H	 0.75418376	-0.4256503297	-0.721340611	 0.092121
H	 0.647088727	-1.5754881781	 1.4269425872	 0.123255
H	 0.6638090858	 0.0145993159	 2.2608077516	 0.112916
H	-3.7738269135	-0.219258892	-0.0673134609	 0.09644
H	-1.7428401777	 1.6583448129	 1.1224762456	 0.122342
H	-3.2791791255	 0.1188620993	 2.885396158	 0.285285
H	-1.3355252184	-1.550393008	-0.5528109417	 0.095468
