17
gdb 126555	4.58152	0.84291	0.74585	3.0705	71.32	-0.2429	0.0044	0.2473	1516.228	0.136237	-455.199585	-455.190809	-455.189865	-455.234023	31.198	
C	-0.2718116692	 1.5250126806	 0.3796030597	-0.383664
C	-0.386696321	 0.0108501539	 0.5645091583	-0.173021
C	-1.0235933714	-0.6765649266	-0.6592785493	-0.295129
C	-1.1729660459	-2.1441660946	-0.4933525516	 0.425313
N	-0.6127997746	-3.0697199002	-1.1907095591	-0.265124
N	-1.0799027036	-4.2337096418	-0.6122039046	-0.31427
C	-1.9242377348	-4.0123529091	 0.4377809875	 0.473357
O	-2.5118496418	-4.7579566704	 1.1659862255	-0.387303
O	-1.9755534936	-2.6137550097	 0.5049786137	-0.23446
H	 0.1840188695	 1.9933928835	 1.2566354273	 0.121538
H	 0.3450327657	 1.7741132538	-0.490750297	 0.119891
H	-1.2562146395	 1.9821990112	 0.230949503	 0.120426
H	 0.6050432818	-0.4225225921	 0.7390147793	 0.112265
H	-0.9867773332	-0.2149894627	 1.4525517451	 0.123805
H	-2.0132508801	-0.2402263937	-0.8464383328	 0.129646
H	-0.4178131561	-0.5123204056	-1.555030261	 0.136213
H	-0.8029675222	-5.1312474965	-0.9676402537	 0.290517
