24
gdb 87149	2.62641	1.21245	1.17399	1.0715	89.46	-0.221	0.084	0.305	1264.131	0.215428	-368.374729	-368.364496	-368.363552	-368.409347	39.345	
C	 0.3174615093	 0.9337721817	-0.7509298433	-0.315846
N	 0.7694512169	-0.2693014978	-0.0704640669	-0.100247
C	 1.9832508132	-0.1964987689	 0.7304680282	-0.302141
C	 0.6546990428	-0.4089663562	 1.3878337339	 0.243572
C	 0.0914792239	 0.7274032508	 2.2305089665	-0.465135
C	 0.1892524219	-1.7833171358	 1.8325732416	 0.342891
C	-1.2623331322	-2.0716480885	 1.4873414647	-0.468168
C	 1.1333005593	-2.9585311662	 1.8218426617	-0.309154
C	 0.7280632971	-2.3315854378	 3.1342863134	-0.304441
H	 0.5761617022	 1.8774327732	-0.246308141	 0.097586
H	 0.7666171545	 0.9579290306	-1.7494497768	 0.122688
H	-0.7700132119	 0.8982366257	-0.873785966	 0.120761
H	 2.6982381454	-1.0024768455	 0.5918606626	 0.10906
H	 2.4406515672	 0.783720146	 0.8727444877	 0.095611
H	 0.4923746062	 1.7008992833	 1.9414411432	 0.115456
H	-1.0001103138	 0.7781497321	 2.1560562227	 0.120644
H	 0.3410081797	 0.5667872559	 3.2836871474	 0.12433
H	-1.4116136227	-2.0089590782	 0.4044490382	 0.12898
H	-1.551325776	-3.0754862794	 1.8136600057	 0.108241
H	-1.9467577014	-1.3625628433	 1.9666212931	 0.109536
H	 0.7176918213	-3.9274566105	 1.5654173765	 0.106374
H	 2.1553797297	-2.8205556675	 1.4913631944	 0.108231
H	 1.4792381457	-1.7500939437	 3.6594476704	 0.105451
H	 0.0511315918	-2.8738815799	 3.7864798222	 0.105721
