18
gdb 46049	3.76121	1.02952	0.91945	4.4584	71.55	-0.2556	0.0103	0.266	1279.4991	0.149344	-439.100699	-439.092702	-439.091758	-439.134129	29.705	
O	-0.3676954469	 0.3469428934	-0.8906123719	-0.332318
C	-0.2342923237	 1.3951544668	-0.3322492751	 0.433196
C	-1.1900867493	 2.0879646965	 0.6347209708	-0.372105
C	-0.6797592161	 3.5364182284	 0.694092057	-0.061827
C	 0.813407597	 3.3371063198	 0.3452462932	-0.094268
O	 0.8754435692	 2.1712158293	-0.489763902	-0.216583
C	-1.3788284491	 4.4332417356	-0.306365512	 0.031993
C	-2.5658083536	 5.2277752238	 0.0896897928	-0.253672
N	-1.2806630169	 5.896327778	-0.1948084136	-0.323682
H	-2.2203990781	 1.983447908	 0.2915036761	 0.144511
H	-1.1104512446	 1.5857214068	 1.6049892533	 0.139093
H	-0.7849300842	 3.9702749293	 1.694032914	 0.077704
H	 1.2392211913	 4.1729796955	-0.2142061323	 0.136753
H	 1.4221423575	 3.1612662814	 1.2400366345	 0.114326
H	-1.3219964582	 4.0831544701	-1.3368232944	 0.109021
H	-3.3559801754	 5.4294719275	-0.6273906624	 0.127779
H	-2.8997144409	 5.1616835739	 1.1226256497	 0.112633
H	-0.828315678	 6.1477513259	 0.6821815222	 0.227446
