25
gdb 94316	2.40749	1.34251	1.05519	0.1382	93.44	-0.2444	0.0814	0.3257	1306.5205	0.227576	-352.347692	-352.337491	-352.336547	-352.382187	39.455	
C	 0.0641254838	 1.6148535966	-0.0657785162	-0.412255
C	 0.0446602809	 0.0960459613	 0.0348902455	-0.029073
C	 1.0102771762	-0.693964226	-0.9002154903	-0.232062
C	 1.4398345513	-1.5858981904	 0.2984445173	-0.302975
C	 0.7252422223	-0.6007569826	 1.2363061563	 0.335962
C	 1.3514283275	 0.0841035772	 2.4241577295	-0.395981
C	 0.1857586974	-0.8647739813	 2.6186436814	 0.284021
C	-1.1604679997	-0.2757768542	 2.9959441887	-0.458769
C	 0.4670821112	-2.217099505	 3.2466317696	-0.454306
H	 1.0813824162	 2.003596346	 0.0535211696	 0.114401
H	-0.3073810193	 1.9427570307	-1.0433601963	 0.111436
H	-0.5644015675	 2.0861108979	 0.6982996844	 0.113753
H	-0.9847363528	-0.2655277833	-0.0818518006	 0.065975
H	 0.5613071951	-1.2007581109	-1.7577496419	 0.093237
H	 1.828021556	-0.0631541505	-1.2611088152	 0.09768
H	 0.9718526208	-2.5757991596	 0.280363981	 0.097424
H	 2.51528371	-1.7189011533	 0.4457742377	 0.095213
H	 2.3395963122	-0.2418628061	 2.7376205079	 0.10003
H	 1.1734452686	 1.1470339973	 2.5602805794	 0.102947
H	-1.3246799215	 0.6997584445	 2.5297885834	 0.115957
H	-1.9815588053	-0.9340574123	 2.686248085	 0.110571
H	-1.2388341448	-0.1421427795	 4.0816291414	 0.111737
H	 0.4550258152	-2.1507752298	 4.3412654092	 0.111284
H	-0.2891725075	-2.9559332704	 2.9538670095	 0.109766
H	 1.4445479937	-2.6071869763	 2.9484744035	 0.114029
