13
gdb 48196	2.23648	1.32585	0.91903	4.1044	72.18	-0.2597	-0.08	0.1797	1211.5456	0.083688	-419.364243	-419.354709	-419.353765	-419.400051	32.521	
O	-0.9335396232	 0.4239349765	-0.4858398726	-0.229921
C	-0.4512808219	 1.5062366341	-0.3109037857	 0.16967
C	 0.9991469992	 1.7105178482	 0.1730353564	-0.341245
C	 1.7416784917	 2.5029340001	-0.7950179589	 0.292304
C	 2.2951434788	 3.1843715469	-1.6156922182	-0.44069
C	 0.972826147	 2.3794166878	 1.566717157	 0.234413
O	-0.0717002005	 2.5944211022	 2.1362288928	-0.278099
C	 2.2612350713	 2.6925429174	 2.1411355444	 0.270362
C	 3.3399289456	 2.921485838	 2.6228369151	-0.379948
H	-0.9993629451	 2.4490066459	-0.5030428554	 0.111597
H	 1.4516867527	 0.7171867544	 0.289585597	 0.154707
H	 2.8038917262	 3.7750323598	-2.3374707991	 0.21298
H	 4.2879299782	 3.1333172788	 3.0556739572	 0.223871
