17
gdb 29985	3.2881	1.64194	1.11025	3.3714	82.5	-0.1885	-0.0062	0.1823	1065.2566	0.138641	-380.911466	-380.904029	-380.903085	-380.943437	28.459	
C	-0.0150022762	 1.4695868219	 0.0035798641	-0.34732
N	-0.0176595696	 0.0228198208	 0.0385903399	-0.133694
C	-0.0709383366	-0.8250757	-1.0488625382	-0.03761
N	-0.0595794759	-2.1043322668	-0.7184678458	-0.359405
C	 0.0039116001	-2.0853263386	 0.6448630703	 0.261136
C	 0.0306685563	-0.80209174	 1.1340313549	 0.300013
C	 0.0978565385	-0.8016699379	 2.5841043126	-0.207833
C	 0.112099894	-2.0949512799	 2.9814649456	-0.083234
C	 0.0539308098	-3.0484124322	 1.7929428316	-0.407812
H	 0.897823716	 1.8717238219	 0.4546289331	 0.143782
H	-0.0628288473	 1.7998277227	-1.0359813597	 0.145323
H	-0.8792010231	 1.8769454456	 0.5380164953	 0.143789
H	-0.1163997532	-0.4330404013	-2.0547314208	 0.121072
H	 0.1306787166	 0.0650650889	 3.2311549994	 0.097523
H	 0.1585678462	-2.4380262652	 4.0064532715	 0.097946
H	-0.824902858	-3.7039746679	 1.8490007169	 0.133167
H	 0.9299173426	-3.709673732	 1.7678012593	 0.133156
