17
gdb 28024	3.84856	0.9359	0.80433	2.0646	81.42	-0.1859	0.0494	0.2352	1408.4475	0.136127	-380.867092	-380.858008	-380.857064	-380.901641	33.753	
N	 0.0333356158	 1.4113258862	 0.0046726025	-0.608729
C	-0.0230295882	 0.0018148199	 0.0006293054	 0.30274
C	-1.0413731939	-0.8971679959	-0.2220520224	-0.312716
C	-0.5091677375	-2.2078751115	-0.0176485335	 0.303106
C	-1.2543078216	-3.5143036709	-0.1293389222	-0.471773
C	-1.8978205065	-3.7235140133	-1.4266200347	 0.322374
C	-2.4359369316	-3.8885754579	-2.4886701969	-0.472819
C	 0.8157086392	-2.0621950268	 0.3129469724	-0.193421
N	 1.1014129659	-0.7143638585	 0.3256759199	-0.270759
H	 0.476321575	 1.7806124996	-0.8323969887	 0.243506
H	-0.9001935323	 1.8010337928	 0.050779916	 0.247225
H	-2.0466846278	-0.6532843509	-0.5307434916	 0.088725
H	-0.5622316975	-4.3427078901	 0.0667406172	 0.128593
H	-2.0237403372	-3.5783856642	 0.6533925441	 0.133927
H	-2.9047307658	-4.036170289	-3.4294647369	 0.190073
H	 1.5730483754	-2.7977730215	 0.5314797298	 0.112477
H	 1.9630848688	-0.2937285979	 0.6268857997	 0.25747
