21
gdb 40642	3.34114	1.13298	1.09254	1.3979	82.49	-0.229	0.0847	0.3137	1235.812	0.184398	-387.059648	-387.051584	-387.05064	-387.092923	31.421	
C	-0.0852229733	 1.4498947651	-0.1366678735	-0.271593
C	 1.3071834689	 0.9363895758	 0.1329247379	-0.278137
C	 0.1572236785	-0.0341580436	 0.0135809936	 0.025166
C	-0.327396898	-0.7641705693	 1.2243414075	-0.058511
C	-1.6762690316	-1.4760154325	 1.2970237767	-0.099628
C	-2.4040806042	-1.8009286113	-0.0078722773	-0.25711
C	-1.6189111342	-3.0195655547	-0.5381448133	-0.062664
O	-0.3047685487	-2.9285822388	 0.0245296802	-0.258069
C	-0.399603308	-2.271881692	 1.2643400819	 0.062149
H	-0.6009480973	 1.9605837281	 0.6701325955	 0.108237
H	-0.3106814259	 1.8405961192	-1.123178643	 0.107708
H	 2.0358666116	 0.9702766591	-0.6694300824	 0.111133
H	 1.7277018535	 1.1050818474	 1.1191641202	 0.108551
H	 0.1369369472	-0.6207250801	-0.8980753902	 0.093378
H	-0.0334431829	-0.3028621168	 2.1655844534	 0.078473
H	-2.256658912	-1.3784423979	 2.2068957734	 0.086207
H	-3.4542254311	-2.0452116517	 0.1720356694	 0.102149
H	-2.3753475515	-0.9655716047	-0.714501262	 0.112555
H	-2.0968914596	-3.9583982289	-0.2194891716	 0.094025
H	-1.5124682896	-3.0396132936	-1.6266484163	 0.106255
H	-0.0155740617	-2.8413520489	 2.10585028	 0.08973
