20
gdb 95002	2.91358	1.77067	1.41427	0.3294	78.43	-0.2114	0.0905	0.3019	988.9394	0.173083	-403.078662	-403.071453	-403.070509	-403.109921	29.792	
C	-0.1800943636	 1.5696091137	 0.0118647829	-0.396123
C	 0.0063369461	 0.0526937773	-0.0507730584	 0.028045
C	 0.7714573229	-0.4073340884	-1.3003523904	-0.091094
O	 2.1769745301	-0.3012685543	-1.1036375778	-0.275695
C	 2.5619730802	-0.7300359924	 0.1704643846	 0.15177
C	 1.5891263169	-1.6328559078	 1.0048148609	-0.081278
C	 2.3261368681	-1.155377111	 2.2711471182	-0.230587
C	 2.0920746099	 0.0954614835	 1.3998891009	-0.05814
N	 0.6664338588	-0.4240452442	 1.188497763	-0.135665
H	 0.7729387455	 2.0910917933	-0.12278593	 0.124987
H	-0.8587924553	 1.9055697611	-0.7779606553	 0.112802
H	-0.6013019242	 1.8631848725	 0.9775412768	 0.124971
H	-0.9848141707	-0.4194285486	-0.0690474983	 0.078112
H	 0.5171042926	-1.4535754511	-1.5278229424	 0.091111
H	 0.5281183065	 0.1966524619	-2.1794125622	 0.105488
H	 3.6182669417	-1.0126089547	 0.119934009	 0.079518
H	 1.2009566696	-2.6294258707	 0.7877618134	 0.082433
H	 1.7350161039	-1.196320753	 3.1854356046	 0.111224
H	 3.3579945398	-1.4854020047	 2.4050242277	 0.096088
H	 2.2935045911	 1.1386744775	 1.6448494926	 0.08203
