20
gdb 77577	2.76702	1.40376	1.22361	2.6267	80.	-0.2288	0.0741	0.3028	1127.129	0.170654	-403.092273	-403.083654	-403.08271	-403.125066	33.925	
C	-0.0151651103	 1.5621202698	 0.0648137285	-0.518074
C	 0.1528954012	 0.0776348851	-0.012219878	 0.330728
N	-0.7986756963	-0.8676760469	 0.6292758599	-0.398448
C	 0.6586411114	-0.932456679	 0.961433454	-0.23209
C	 1.282561545	-1.7525969676	-0.1413582262	 0.396308
C	 2.6298884174	-2.4058432328	-0.1640034994	-0.351406
C	 1.3708691774	-3.2379787575	-0.2862009823	-0.317464
C	 0.7312272691	-0.7434038556	-1.1913692169	 0.001297
O	-0.1831548391	-1.2105489829	-2.1426062326	-0.43931
H	 0.9084461511	 2.0767777291	-0.2207532082	 0.128182
H	-0.8085790046	 1.902401028	-0.6106819214	 0.135087
H	-0.2769931928	 1.8808736221	 1.0800278901	 0.115918
H	-1.2643260013	-0.3587931109	 1.3808738032	 0.225066
H	 1.0011063696	-0.7972486553	 1.9808703089	 0.093332
H	 3.2470131166	-2.2707696166	-1.0471588076	 0.113763
H	 3.1901524942	-2.4631879688	 0.7643407467	 0.109092
H	 1.0803420276	-3.8588130652	 0.5548588093	 0.111406
H	 1.1242698516	-3.6494756226	-1.2597459487	 0.122378
H	 1.5247422083	-0.2179331364	-1.7309078658	 0.084828
H	-0.924510146	-1.5574145358	-1.6261303636	 0.289404
