18
gdb 13834	4.17456	1.46604	1.23766	2.5354	72.91	-0.238	-0.0083	0.2297	1017.8303	0.153514	-347.840553	-347.832414	-347.83147	-347.874169	29.402	
C	 0.1164104895	 1.572056234	-0.2434638439	-0.478163
C	-0.1271981486	 0.1103223883	 0.0902374414	 0.373331
O	-0.4159310022	-0.2447027161	 1.2104024157	-0.300432
C	 0.0378763973	-0.8750131404	-1.0633123909	-0.080113
C	 1.5564893605	-1.1556288364	-1.3491300315	-0.27059
C	 1.593126943	-2.6447135401	-1.5913682217	-0.059569
C	 0.4352621547	-3.2352354798	-1.3071898767	-0.05846
C	-0.6043014175	-2.2618990894	-0.8130081327	-0.275112
H	 1.0599573778	 1.7002736322	-0.7845965003	 0.138347
H	-0.6793461646	 1.9323981026	-0.9065265326	 0.140938
H	 0.1233846479	 2.169178907	 0.6690777722	 0.140738
H	-0.3901744516	-0.4201797254	-1.9630205051	 0.082337
H	 1.9270279464	-0.5730211976	-2.2000508451	 0.107248
H	 2.1901533618	-0.886718443	-0.4916939118	 0.115684
H	 2.4943914097	-3.1498429578	-1.9210363968	 0.092769
H	 0.2449855351	-4.3006992107	-1.3768504506	 0.09364
H	-0.8038521808	-2.3955906854	 0.2571880525	 0.136144
H	-1.5652210982	-2.3668091019	-1.3295257322	 0.101263
