13
gdb 4727	6.82123	1.28469	1.0825	5.1426	70.86	-0.2028	-0.0193	0.1835	1007.5278	0.098002	-357.691841	-357.684661	-357.683716	-357.723091	26.662	
N	-0.0218517775	 1.4341941406	 0.1569529256	-0.607431
C	 0.0098878394	 0.0361668947	 0.0456947519	 0.283238
C	-1.0807473285	-0.8207133997	 0.0174382644	-0.150091
N	-0.6118584031	-2.1069292126	-0.0109227591	-0.314762
C	 0.7612072263	-2.0966033498	-0.0067848585	 0.244747
C	 1.1731615127	-0.7708977323	 0.0306533988	-0.31426
C	 1.5143289379	-3.2879158673	-0.0392692005	 0.203219
N	 2.1218413667	-4.2758135185	-0.0677454825	-0.352834
H	 0.7764804202	 1.8778116667	-0.2774930213	 0.247743
H	-0.8703452925	 1.8430001105	-0.211682269	 0.244065
H	-2.1380114247	-0.6109576032	 0.0230225918	 0.123938
H	-1.1768201132	-2.9375017725	-0.0412877963	 0.27835
H	 2.1983409363	-0.4358046267	 0.0505248146	 0.114078
