19
gdb 108489	2.25773	1.59658	1.29575	3.3645	70.4	-0.2439	0.0445	0.2884	1067.0965	0.159146	-460.120649	-460.112086	-460.111142	-460.154217	32.553	
O	 0.0562072138	 1.4280583974	-0.1394596165	-0.412224
C	 0.0954954675	 0.0146994874	-0.0759730408	-0.164167
C	-1.2958224174	-0.5638358642	-0.0791661281	 0.390587
O	-2.0629881588	-0.0896457495	 1.070423857	-0.355452
C	-2.3535733778	-1.456792562	 1.482742808	-0.087722
C	-1.7202754819	-2.0346975526	 0.2095356053	-0.148761
C	-2.6563142699	-1.998838801	-1.0284312355	-0.276117
C	-2.2115781945	-0.5245840222	-1.3386829874	 0.109792
O	-3.1888594195	 0.4732121638	-1.3395239812	-0.435617
H	-0.5130477175	 1.7181741176	 0.5830697003	 0.294852
H	 0.6482194983	-0.3285569758	-0.9576032199	 0.110718
H	 0.6371900028	-0.3373351907	 0.8176195235	 0.086665
H	-1.8255880024	-1.699712744	 2.4123500535	 0.111452
H	-3.4279834303	-1.6225235385	 1.6228331167	 0.109689
H	-1.0217584518	-2.8632240098	 0.3147905427	 0.081853
H	-2.3865222761	-2.7124672994	-1.8102351935	 0.106452
H	-3.7222354554	-2.1072504134	-0.8095057383	 0.103147
H	-1.6478349914	-0.4421560223	-2.2728438475	 0.090174
H	-3.3767961379	 0.6493945392	-0.4060910584	 0.284679
