17
gdb 124911	3.89372	1.49585	1.25928	3.1255	78.82	-0.2313	0.0032	0.2344	1015.8316	0.138017	-380.827025	-380.819925	-380.818981	-380.858319	28.079	
C	 0.0313904322	 1.5904733399	 0.1194646602	-0.493438
C	 0.0877452334	 0.0981051084	-0.0166003154	 0.186783
C	-0.8830305986	-0.8738262307	 0.6518701367	-0.314667
C	 0.5889772623	-0.9651632682	 0.9687401221	-0.051781
N	 1.3085858826	-1.5765004773	-0.1561561127	 0.060984
N	 1.5982059516	-2.8053763849	-0.6395903629	-0.280191
C	 1.4098544419	-2.6383388706	-1.9524124784	 0.008873
C	 0.8668596281	-1.3632192131	-2.3003547975	-0.346316
C	 0.811004559	-0.7150012864	-1.0857975545	 0.241048
H	 1.0250202598	 2.0358722843	 0.0100083798	 0.133334
H	-0.6197643657	 2.0289044511	-0.6448987465	 0.132109
H	-0.3671661607	 1.8786118865	 1.0970745962	 0.123755
H	-1.5061450069	-0.4505118333	 1.4368971119	 0.121187
H	-1.3537142967	-1.6625068631	 0.0738075274	 0.138699
H	 1.0358337885	-0.8630958298	 1.9486258232	 0.122054
H	 1.6881160766	-3.4333428406	-2.6313426979	 0.111324
H	 0.5935638624	-1.0152642123	-3.2827162217	 0.106244
