19
gdb 68848	2.40996	1.86148	1.44744	2.0174	74.36	-0.2208	0.0748	0.2956	985.5134	0.158283	-422.996807	-422.988572	-422.987628	-423.028918	32.963	
C	-0.1268128345	 1.4843000615	 0.0436416694	-0.462449
C	 0.0013377861	-0.009752051	 0.0998424737	 0.385688
C	 1.3239727134	-0.7111410792	-0.1773650535	-0.414492
C	 0.6864732594	-0.765113117	 1.2016770915	 0.32538
O	 1.2529873234	-0.0609601047	 2.2649959523	-0.475202
C	-0.1668427182	-1.9770626543	 1.4626266094	-0.150095
C	-1.5664540543	-1.6688899182	 1.9664669836	-0.330118
C	-1.3078054082	-1.8471184242	 0.4942040046	 0.110019
O	-1.1693227047	-0.6952284605	-0.3106358391	-0.30083
H	 0.7610441385	 1.9548919567	 0.4719937597	 0.13015
H	-0.2425746007	 1.8258338013	-0.9899344145	 0.124488
H	-1.0018240486	 1.8144677383	 0.6117440813	 0.125176
H	 1.3260901979	-1.6054335106	-0.7914044823	 0.112989
H	 2.1899869979	-0.065909203	-0.2833760035	 0.112851
H	 2.0574390955	-0.5191078646	 2.5318331037	 0.282079
H	 0.2993370166	-2.9324968395	 1.6842328253	 0.084642
H	-2.0995790049	-2.4626586737	 2.4785592008	 0.111755
H	-1.7633712992	-0.6694717029	 2.33845335	 0.128359
H	-1.7302299155	-2.6856288145	-0.0466820025	 0.099611
