15
gdb 19986	3.83432	1.39143	1.12747	2.4175	67.89	-0.2493	0.029	0.2783	1034.7703	0.11763	-362.568175	-362.560497	-362.559553	-362.600682	28.171	
C	-0.0709142754	-1.1687802257	-0.4359728654	-0.437243
C	-0.0028475107	 0.01091773	-0.2150925924	 0.379772
C	 0.0703489505	 1.429786203	 0.0058157135	-0.255687
N	 0.2501785834	 1.9028815574	 1.3971470377	-0.327735
C	 1.3317692109	 2.1212657225	 0.43376499	-0.035797
C	 2.5994085885	 1.3740440217	 0.6743786627	 0.093636
C	 3.7824734958	 1.5955618183	-0.1651301094	-0.181027
O	 3.7016520795	 2.1566079311	 1.145530271	-0.236975
H	-0.1328320881	-2.2130253981	-0.6187547932	 0.201119
H	-0.5821589842	 2.0156490709	-0.6387031021	 0.11427
H	-0.2829510779	 2.7561720015	 1.5425364246	 0.242184
H	 1.4811986219	 3.1268451971	 0.0437415064	 0.097953
H	 2.4759968273	 0.4123683152	 1.1687738712	 0.114816
H	 4.5088377803	 0.7944643213	-0.2921958914	 0.119564
H	 3.7366699282	 2.3125682037	-0.9844354831	 0.11115
