16
gdb 105583	1.97065	1.56233	1.28293	3.1139	69.89	-0.269	-0.053	0.216	1069.0985	0.123027	-437.899697	-437.890807	-437.889862	-437.933694	31.916	
O	 0.7214300671	 0.4533140043	 0.6890939158	-0.420988
C	-0.1771797835	 0.4582640609	-0.3985416637	-0.136442
C	-1.3907579659	-0.4557214275	-0.1264771993	 0.01273
C	-1.1092303493	-1.9332591257	 0.333524874	-0.275053
C	-2.0438045934	-1.7552367531	 1.5684309412	-0.329613
C	-2.0091777052	-0.2545422034	 1.3072622736	 0.377518
O	-2.1493310135	 0.7297537633	 1.9672924957	-0.291853
C	-2.3817667681	-0.3592206829	-1.1826265766	 0.241011
N	-3.1693134042	-0.2771418515	-2.0262981521	-0.328691
H	 0.3449969165	 1.0056079564	 1.3837029122	 0.3039
H	-0.5365997461	 1.4679778571	-0.6342515844	 0.129708
H	 0.3699174492	 0.0822953209	-1.2684069043	 0.138457
H	-1.3872734689	-2.7091351384	-0.3776139875	 0.133638
H	-0.0618956823	-2.0338468933	 0.6196913783	 0.146516
H	-3.0468726885	-2.1587008833	 1.3949132986	 0.156216
H	-1.6934205939	-2.0818952337	 2.5495367985	 0.142947
