19
gdb 117008	4.9745	0.5204	0.47664	4.5183	84.72	-0.2555	-0.0458	0.2096	2285.2497	0.155311	-423.009304	-422.998148	-422.997204	-423.048412	37.07	
C	-0.1348068958	 1.578809251	 0.0121981669	-0.393113
C	-0.0119626099	 0.0533156094	 0.0024777739	-0.164314
C	-1.3717003542	-0.6447147285	 0.0118252559	-0.282468
C	-1.2780464927	-2.1626763378	 0.0024914938	 0.203352
O	-0.2240235971	-2.762766684	-0.0112836209	-0.291801
C	-2.5516088801	-2.8593861214	 0.0112124406	-0.035218
C	-3.6166532319	-3.4270921895	 0.0184429759	 0.211318
C	-4.9123115911	-4.0899977469	 0.0268046855	-0.221302
O	-4.7375192747	-5.497022341	 0.0183974513	-0.401276
H	 0.8514157876	 2.0526602575	 0.0052228292	 0.117
H	-0.6837144598	 1.9419386829	-0.8641294446	 0.113234
H	-0.666470467	 1.9320628201	 0.9030729231	 0.113236
H	 0.5511030088	-0.2754733652	-0.8774164929	 0.114714
H	 0.5680989557	-0.2852160909	 0.8675136092	 0.114711
H	-1.9645578102	-0.352946858	 0.8905955426	 0.125717
H	-1.9814736963	-0.3433005934	-0.8519932192	 0.12572
H	-5.468557572	-3.7538790773	 0.9177288451	 0.127858
H	-5.4844386728	-3.7452600997	-0.8506769867	 0.127887
H	-5.6129800363	-5.8975773874	 0.0239600014	 0.294747
