18
gdb 112131	3.13721	1.20706	0.92951	3.0747	76.33	-0.2481	0.001	0.2491	1243.13	0.148714	-439.075744	-439.067318	-439.066374	-439.109585	31.088	
O	-0.4454116211	 1.7596239237	-0.4883603316	-0.423289
C	-0.0989194366	 0.4057214566	-0.6320600677	-0.045716
C	-1.1495832762	-0.5127120087	 0.0483329488	-0.037477
C	-0.8412495498	-1.953006719	-0.2343646758	-0.041602
C	-0.6035181967	-2.9487559455	 0.612139795	-0.107444
C	-0.5743056469	-2.9007849439	 2.1085663433	-0.132636
O	-1.4319555661	-1.9697280163	 2.7762243522	-0.221793
C	-1.4377082094	-0.650492253	 2.4768545509	 0.122905
N	-1.3057462475	-0.0126335546	 1.3991433911	-0.2833
H	-0.7433925623	 1.8413312748	 0.4294089093	 0.287427
H	-0.051362444	 0.1855044877	-1.7037398162	 0.101599
H	 0.8895610304	 0.1818043264	-0.1968878267	 0.084472
H	-2.101655504	-0.2718979645	-0.4518783319	 0.116012
H	-0.8004219616	-2.1766048384	-1.299840728	 0.097907
H	-0.3639640629	-3.9292013301	 0.2057706813	 0.101177
H	-0.8754718851	-3.8713407177	 2.513137207	 0.130534
H	 0.4542965587	-2.7185197049	 2.4547567869	 0.128244
H	-1.6479554687	-0.0885337026	 3.3885757819	 0.122976
