17
gdb 50082	3.16177	1.20047	1.006	3.9492	69.68	-0.2483	-0.0288	0.2196	1189.0831	0.134442	-458.921697	-458.913192	-458.912248	-458.956466	29.91	
O	-0.2645367978	 0.2665017146	 0.5152875319	-0.255238
C	 0.3711351421	 0.6714468987	-0.4254587978	 0.143675
C	 1.3908834917	 1.7642995175	-0.2732283767	-0.050085
O	 2.3029043844	 1.9597454136	-1.3634800136	-0.246679
C	 1.4036739429	 3.01675202	-1.0676207697	 0.046959
C	 0.3905157201	 3.3959192492	-2.1155769962	 0.104926
C	 0.9736907657	 3.7278304579	-3.514084089	-0.292378
C	 0.199987872	 2.4764373058	-3.9712459599	-0.061198
O	-0.3471017984	 2.2793077733	-2.6448618471	-0.287959
H	 0.2792765364	 0.2557182025	-1.4435337662	 0.107407
H	 1.8348170714	 1.804770836	 0.7218697627	 0.118606
H	 1.8693356624	 3.8823366403	-0.5874536501	 0.102591
H	-0.2803206967	 4.1572220094	-1.6950245522	 0.091498
H	 0.6306241348	 4.6702427694	-3.9412274254	 0.119132
H	 2.059556602	 3.6618307758	-3.5864720227	 0.129063
H	-0.5915693924	 2.6412559609	-4.7097693877	 0.111545
H	 0.8181675496	 1.6273359153	-4.2814378404	 0.118135
