19
gdb 88871	3.73063	1.06317	0.90023	2.5919	72.24	-0.2537	0.0779	0.3316	1320.7386	0.158493	-460.139386	-460.130478	-460.129534	-460.174909	31.642	
C	-0.0550433616	 1.4887350759	-0.2672656723	-0.418637
C	-0.0768152978	 0.0232463972	 0.0874456928	 0.083275
O	 1.1538008916	-0.7065129967	 0.0124825435	-0.257163
C	 0.5333879896	-0.5632666543	 1.2902004587	 0.0246
C	 1.2761010949	 0.2545695093	 2.3192951225	 0.1986
O	 0.337183759	 0.8566871512	 3.1837954348	-0.261898
C	 0.9645707173	 0.9246714813	 4.4568826351	-0.097712
C	 1.7803471709	-0.3687748238	 4.4865747672	-0.089136
O	 2.113935288	-0.5748792306	 3.1175614134	-0.274083
H	 0.824002795	 1.9935259012	 0.1367461735	 0.13016
H	-0.0479643187	 1.6118128183	-1.3551934183	 0.127463
H	-0.9503222043	 1.983580711	 0.1231781578	 0.130486
H	-0.9261335931	-0.5249917642	-0.3256103772	 0.09054
H	 0.1072074589	-1.4787003227	 1.7022346439	 0.094176
H	 1.9124056189	 1.0085573777	 1.8300727367	 0.078581
H	 1.614204796	 1.8099101358	 4.5281062932	 0.102876
H	 0.1888696302	 0.9840292555	 5.2230180282	 0.119946
H	 2.6998671354	-0.290317033	 5.0744488517	 0.112912
H	 1.1850056398	-1.2100459692	 4.8665295146	 0.105014
