19
gdb 114469	3.34242	1.3651	1.23624	1.9562	74.79	-0.2417	0.0701	0.3119	1086.2025	0.158798	-422.945098	-422.937218	-422.936274	-422.977656	30.466	
C	-0.1702924268	 1.3745378386	 0.1133277429	-0.234412
O	 0.3747999667	 0.1028885313	-0.152640378	-0.237
C	 0.7739890796	-0.5812862719	 0.9992721375	 0.167027
C	-0.3086670115	-1.2018860328	 1.9555538328	-0.284929
C	 0.3887122877	-2.5890217055	 1.811317645	-0.067828
C	-0.1806623719	-3.5165101306	 0.7046270824	 0.012448
O	-0.7241575331	-2.6794264527	-0.3173072296	-0.228031
C	 0.688496317	-2.8960683416	-0.3146931024	 0.037835
C	 1.3624125323	-1.9867341839	 0.742756093	-0.127286
H	 0.5493052417	 2.0234133213	 0.6388188317	 0.098899
H	-0.4197369924	 1.829299277	-0.8482957638	 0.126713
H	-1.084712911	 1.3125591828	 0.7217935805	 0.109537
H	 1.4835211989	 0.03402358	 1.5773790403	 0.061135
H	-0.3096597254	-0.7923492851	 2.967823035	 0.093385
H	-1.3172047981	-1.1754915991	 1.5412545131	 0.121082
H	 0.7673839623	-3.0801272063	 2.7061299678	 0.073273
H	-0.5897035986	-4.5172055536	 0.792213781	 0.101106
H	 1.1207295137	-3.2879095254	-1.2283487362	 0.10416
H	 2.4428439491	-2.1184563825	 0.808490327	 0.072885
