21
gdb 104584	2.09845	1.36657	0.98198	3.5877	78.64	-0.2345	0.0338	0.2684	1281.7917	0.182664	-420.426593	-420.416695	-420.415751	-420.462324	36.643	
C	-0.6095991516	-0.7929005712	-0.7889898505	-0.390466
C	 0.7155667282	-0.3499856198	-0.1566883391	-0.256704
C	 0.839967784	-0.6594743654	 1.3276737107	 0.343213
C	-0.2276017478	-0.0648645489	 2.2396693493	-0.351446
C	-0.2013915526	 1.4653521745	 2.2246095714	 0.374025
N	 0.9272555075	 1.991823416	 2.785463107	-0.506349
O	-1.1029806819	 2.1409657904	 1.7655115857	-0.368987
C	 1.5115857308	-1.9168981674	 1.7458521865	-0.292717
N	 2.19476863	-0.6175697147	 1.9238508196	-0.363967
H	-1.4493443159	-0.2217844427	-0.3840790983	 0.14694
H	-0.5906826465	-0.6283104557	-1.8703030504	 0.116625
H	-0.7997757654	-1.8571699289	-0.6138229227	 0.114772
H	 1.5521707563	-0.8329015423	-0.678362107	 0.087059
H	 0.8390372331	 0.7307258857	-0.3044365097	 0.11825
H	-1.2256726293	-0.3796493872	 1.9312519391	 0.125814
H	-0.0544976124	-0.4185425948	 3.2606822366	 0.116049
H	 1.720415893	 1.3865059559	 2.9465345613	 0.269933
H	 1.0762114494	 2.9837498925	 2.690742167	 0.252394
H	 1.2212637853	-2.4123295892	 2.6681054107	 0.120445
H	 1.8793790759	-2.5852846233	 0.9716451861	 0.114626
H	 2.8893778001	-0.4964518036	 1.1901656368	 0.230491
