17
gdb 102907	2.85004	0.84073	0.73017	4.8153	75.74	-0.2523	0.0085	0.2608	1533.7131	0.134116	-417.958326	-417.948372	-417.947428	-417.994259	34.971	
O	 0.1216281322	 1.3355741109	 0.1618554915	-0.416219
C	 0.0333802036	-0.0574084697	-0.0560436569	-0.076453
C	-1.4405381098	-0.537997142	 0.0020250822	-0.172447
N	-2.1141517945	-0.226712632	 1.2690501896	-0.283857
C	-1.6708186136	-1.0464951733	 2.3918557262	-0.274695
C	-2.4398210167	-0.7253629165	 3.59817064	 0.265362
N	-3.025149433	-0.4653297215	 4.5590348864	-0.295704
C	-2.1759925893	 0.083932281	-1.1033120465	 0.287907
C	-2.7112469678	 0.6524139212	-2.0174173279	-0.405067
H	-0.3344112649	 1.768724847	-0.5704690265	 0.292448
H	 0.478031028	-0.3589937193	-1.0152630648	 0.106726
H	 0.6118050274	-0.5304648181	 0.7436963343	 0.114931
H	-1.4569875487	-1.6291368646	-0.1268748925	 0.111974
H	-1.9597354924	 0.7564207379	 1.4752847003	 0.241204
H	-1.846776799	-2.1013466355	 2.1461118353	 0.156936
H	-0.601360497	-0.9566133934	 2.6487629975	 0.140354
H	-3.2205633846	 1.1234281579	-2.8222341582	 0.206602
