20
gdb 59922	3.14178	0.77911	0.72955	4.5511	77.82	-0.2338	-0.0315	0.2023	1633.5251	0.166563	-440.29104	-440.280293	-440.279349	-440.328713	36.74	
C	-0.5593161561	 1.3458326704	-0.1437748774	-0.315373
N	-0.4260953533	-0.1037466815	-0.0961623908	-0.063155
C	 0.9727022842	-0.5143764681	-0.1238019235	-0.324322
C	-1.1352703562	-0.6927959529	 1.0299609951	-0.238804
C	-1.3962927565	-2.1902526263	 0.8440292929	 0.354621
O	-1.1870795919	-2.9856831471	 1.7300748687	-0.292085
C	-1.9810816266	-2.6147345159	-0.4976925817	-0.380427
C	-1.994408683	-4.1173036	-0.6809589493	 0.174072
O	-2.9444567251	-4.7381461305	-1.0802272108	-0.241252
H	-0.0663305821	 1.7281660102	-1.0428675323	 0.12424
H	-1.6170944918	 1.6209514809	-0.1930080196	 0.122506
H	-0.111049577	 1.8529167322	 0.7304495271	 0.100923
H	 1.5434114594	-0.1517879162	 0.7510450327	 0.105737
H	 1.0471698983	-1.6064567471	-0.1382070764	 0.125041
H	 1.4521745075	-0.1301877688	-1.02877861	 0.125549
H	-0.6220501015	-0.5638688405	 1.9987099116	 0.107402
H	-2.1180371496	-0.2090875561	 1.1108456346	 0.121718
H	-3.0013948634	-2.2251495163	-0.5952665752	 0.146643
H	-1.396445402	-2.140255748	-1.2969278435	 0.157093
H	-1.0355745035	-4.6208743385	-0.435127512	 0.089872
