21
gdb 99177	4.95134	0.74606	0.69699	1.4805	79.8	-0.2669	0.0186	0.2855	1681.9622	0.181597	-424.254309	-424.244478	-424.243534	-424.290812	34.681	
C	 0.0172676839	 1.408154882	-0.1935669403	-0.239145
O	-0.0980325515	-0.006420825	 0.0010287238	-0.23389
C	-1.3552898753	-0.4956493118	-0.0484749657	 0.454953
O	-2.3270738564	 0.1900164477	-0.2481178849	-0.35789
C	-1.3625092474	-1.9928862683	 0.1879250434	-0.370626
C	-2.7289267355	-2.6196916642	-0.0347019731	 0.07854
C	-3.2865162682	-2.7377482062	-1.4810462433	-0.214159
C	-3.8520273426	-4.1340610973	-1.1048533709	-0.21079
C	-2.8724671694	-4.1613767177	 0.1001971945	-0.244788
H	 1.0819192635	 1.6321858179	-0.1244667422	 0.131418
H	-0.3713358857	 1.6965366765	-1.1736771051	 0.139553
H	-0.5383563618	 1.9513327928	 0.5752638099	 0.138967
H	-0.6045112982	-2.4471127267	-0.4618150963	 0.123699
H	-1.0117857331	-2.1665194707	 1.2142953591	 0.129785
H	-3.4649791661	-2.1138738338	 0.5971780618	 0.086346
H	-3.9826242914	-1.9671018995	-1.8159449062	 0.10939
H	-2.4760744661	-2.8179817268	-2.2142498428	 0.09151
H	-4.8938575163	-4.0738944419	-0.7771890842	 0.103164
H	-3.7684020851	-4.9340446814	-1.8440142951	 0.094621
H	-1.9379155527	-4.6730172791	-0.1548046322	 0.094777
H	-3.2344980945	-4.5588461266	 1.0519611698	 0.094566
