17
gdb 80743	4.18268	1.14781	1.12587	1.5889	72.94	-0.2421	0.026	0.2681	1118.0437	0.135639	-421.765977	-421.757998	-421.757054	-421.798604	31.029	
O	-0.1030282875	 1.4983696046	-0.109608629	-0.427917
C	-0.0090664424	 0.1200926571	 0.0484769815	 0.103003
C	-1.2673192752	-0.7350905087	 0.1529021838	-0.11986
C	-2.5756960098	-0.0592937559	-0.244586885	-0.263939
C	-2.5039045179	-0.0380627924	-1.7971670232	-0.088954
O	-1.0922822296	-0.0564234847	-2.1122253848	-0.270289
C	-0.4192307426	-0.7677984418	-1.094448221	 0.014226
C	-3.1923247139	-1.1722854583	-2.414530246	 0.363405
C	-3.7619682853	-2.1064088717	-2.9118343355	-0.472669
H	-0.292274988	 1.6459263447	-1.0471307581	 0.296617
H	 0.8411746435	-0.1787296362	 0.6554167004	 0.10136
H	-1.2827231412	-1.5675616172	 0.8455343688	 0.097026
H	-3.4474401938	-0.6100881613	 0.1097205856	 0.121898
H	-2.6216674436	 0.9636947569	 0.1391347556	 0.124317
H	-2.8951062279	 0.8955347863	-2.2137578369	 0.115219
H	 0.1549236581	-1.6218830122	-1.4365957405	 0.103043
H	-4.265134493	-2.9274932193	-3.3599070957	 0.203516
