15
gdb 43888	3.08274	1.41271	1.12366	3.7923	74.97	-0.2413	0.0022	0.2435	1068.3029	0.111867	-416.728255	-416.72044	-416.719496	-416.760517	29.987	
N	-0.0421193389	 1.1152014211	 0.7540134881	-0.547325
C	-0.0004417281	 0.0104392024	 0.147910268	 0.399535
N	 0.9849296578	-0.7941125774	-0.4396184441	-0.382729
C	 0.081764738	-1.9041021611	-0.7679959372	 0.115118
C	-0.2800122737	-2.8357103875	 0.4226429483	-0.112188
O	-1.2996412626	-1.9312726379	 0.8930028852	-0.274118
C	-1.0848956104	-1.0134819741	-0.1922388733	-0.041986
C	 0.1940530684	-2.4660357614	-2.0883170451	 0.233157
C	 0.2857044567	-2.9651082296	-3.1780994286	-0.391729
H	 0.8878478905	 1.5156811478	 0.8912367905	 0.214032
H	 1.9559006007	-0.8776512169	-0.1677397898	 0.243872
H	-0.7109968173	-3.7947241167	 0.1159588605	 0.121156
H	 0.5201656731	-2.9979317767	 1.1536368477	 0.108454
H	-1.9951437155	-0.7162227532	-0.7111788739	 0.114035
H	 0.3642156912	-3.3938876088	-4.1468697164	 0.200715
