12
gdb 21599	3.5928	2.36968	1.42885	7.0766	62.54	-0.218	-0.0485	0.1696	782.7127	0.085838	-410.834612	-410.828123	-410.827179	-410.865065	24.746	
N	 0.0109745029	 1.3964702606	 0.1145010231	-0.578383
C	-0.0813292518	 0.0426481548	 0.0365607289	 0.193696
C	-1.2143686674	-0.7119360167	 0.0170041227	-0.066085
N	-1.0717376482	-2.07477424	-0.0143673354	-0.203013
N	 0.081590856	-2.7360788045	-0.0324150306	-0.044949
N	 1.1805898926	-2.0754415576	-0.0278140639	-0.278962
C	 1.2053562436	-0.6728315386	-0.0008002002	 0.404148
O	 2.2581410093	-0.0520226916	-0.0156846991	-0.380116
H	 0.9467806426	 1.7385756761	-0.0614999949	 0.278491
H	-0.7623812217	 1.9797106579	-0.1566209322	 0.256909
H	-2.2276961715	-0.3298516919	 0.0289555558	 0.13195
H	-1.8767283264	-2.6818322485	-0.0250423343	 0.286315
