19
gdb 13940	3.37475	1.81364	1.48067	1.8993	71.46	-0.2139	0.0712	0.285	925.1568	0.165453	-365.012173	-365.00429	-365.003346	-365.044536	29.32	
C	-0.1449553194	 1.4835397859	-0.1802592084	-0.334409
N	-0.0840789391	 0.0687634047	 0.1033993088	-0.092447
C	-1.2927233197	-0.6523403931	 0.5327639272	-0.166547
C	-0.3909044082	-1.5505592995	 1.4130604488	-0.307225
C	 0.6996639533	-0.4717624936	 1.2182847387	 0.295913
C	 2.1977996712	-0.7813321772	 1.0596161361	-0.128479
O	 2.523543205	-0.0700850101	 2.2715802778	-0.274346
C	 1.1653359587	 0.3794671891	 2.4356918914	-0.136555
H	 0.8610085335	 1.870719157	-0.3737871352	 0.126237
H	-0.7423756933	 1.6481542622	-1.0836108967	 0.122583
H	-0.5932586749	 2.0833784408	 0.6330887695	 0.094619
H	-1.9839369292	-0.0355467907	 1.1309193572	 0.085013
H	-1.8593874479	-1.1238401102	-0.2776474953	 0.100746
H	-0.7176761325	-1.7334143528	 2.4376504044	 0.10822
H	-0.1341379933	-2.4997840684	 0.9379211709	 0.112776
H	 2.4852779132	-1.8394889502	 1.1071620681	 0.09925
H	 2.6537294532	-0.3241440933	 0.1706616453	 0.099215
H	 1.0749606713	 1.4668184554	 2.3114921345	 0.097851
H	 0.7510298482	 0.0972642939	 3.4120679168	 0.097587
