17
gdb 108897	3.1675	1.06671	0.84222	3.7485	76.31	-0.2379	0.0147	0.2526	1339.1707	0.135847	-417.978392	-417.969497	-417.968553	-418.012435	32.602	
O	 0.1221766922	 1.4054439742	 0.085659051	-0.419169
C	 0.0468637281	 0.0343608154	-0.1881459607	-0.126185
C	-1.3647959734	-0.4736961146	-0.0734865323	 0.346148
N	-2.3320176926	 0.3222277094	 0.1869243776	-0.320202
C	-3.5672324382	-0.4972212695	 0.1754788978	-0.138995
C	-3.064001481	-1.9787105187	 0.1701007667	-0.199335
N	-1.6848111745	-1.7998841143	-0.3044473673	-0.349493
C	-4.4662989074	-0.1975428691	 1.2825439474	 0.327068
C	-5.218115701	 0.018454235	 2.1942422818	-0.448291
H	-0.792562113	 1.6894002749	 0.2413427699	 0.298075
H	 0.4148002182	-0.1887399093	-1.2030014784	 0.116657
H	 0.6882385087	-0.5336540655	 0.5066994912	 0.10338
H	-4.0934884156	-0.2887078677	-0.766977414	 0.119789
H	-3.0967431126	-2.4038242594	 1.1805696588	 0.120164
H	-3.6449072115	-2.6153687048	-0.5004849892	 0.124538
H	-1.0026525404	-2.5033886815	-0.0586642619	 0.245905
H	-5.8794038459	 0.2253315556	 2.9990395717	 0.199946
