15
gdb 15937	3.5744	1.96181	1.54551	2.6047	61.66	-0.2379	-0.0419	0.196	826.4844	0.118907	-399.751379	-399.744403	-399.743458	-399.782845	25.649	
O	-0.7754512945	 1.1439781893	 0.7203750704	-0.255083
C	 0.1485583454	 0.878203295	-0.0081102497	 0.099961
C	 1.3821710307	 1.7230450047	-0.1425682886	 0.174742
C	 1.6685197656	 2.7732062376	 0.9518950704	-0.125632
O	 1.7994066367	 3.8413254193	-0.0196050872	-0.280425
C	 1.5166258818	 2.9599624671	-1.1062007228	 0.067495
C	 2.7722418126	 2.2722636708	-1.6858103382	-0.181762
N	 2.5173712531	 1.0836741411	-0.824150935	-0.375348
H	 0.149513437	-0.0186978841	-0.6649723126	 0.087306
H	 0.8158328637	 2.9413435533	 1.6173479756	 0.133915
H	 2.5839934164	 2.6177764762	 1.535228652	 0.101283
H	 0.7423846548	 3.3358775723	-1.7775385863	 0.100364
H	 2.7386882483	 2.0269553288	-2.7530655204	 0.112852
H	 3.6837166282	 2.8407378659	-1.4726390868	 0.115704
H	 3.2831668403	 0.7939814627	-0.2246910607	 0.224628
