15
gdb 13040	3.95008	1.46294	1.12456	3.8718	67.43	-0.2458	0.0312	0.2769	1018.487	0.117933	-362.647339	-362.639269	-362.638325	-362.680435	28.781	
O	 0.0196636573	 0.010667478	-0.0852236269	-0.348847
C	-0.0016872468	 1.2097282753	-0.0493569745	 0.421925
N	-1.0254252493	 2.1276986942	-0.0237546689	-0.317696
C	-0.174895171	 3.3166067164	 0.0434182605	-0.187591
C	 1.0517840505	 2.355176553	-0.0010875551	-0.137735
C	 1.9874096448	 2.3760328586	 1.2155716767	-0.371899
C	 3.0375944681	 1.3677109797	 1.1459691112	 0.31274
C	 3.9129072992	 0.5485390822	 1.0720367804	-0.435673
H	-2.0278400438	 2.0123722332	-0.0341092775	 0.252176
H	-0.2719050073	 3.9926629642	-0.8118319652	 0.115117
H	-0.2743678142	 3.8874499094	 0.9735600834	 0.111953
H	 1.626897389	 2.4252327867	-0.9270485637	 0.115705
H	 2.4445454957	 3.3713065939	 1.2939614979	 0.134552
H	 1.3975533782	 2.2361556963	 2.1309737357	 0.136544
H	 4.6739289898	-0.1893862609	 1.0126882459	 0.198728
