16
gdb 131478	3.82071	1.21615	1.06937	3.2435	73.2	-0.2366	-0.0166	0.22	1124.6499	0.125012	-437.861823	-437.854298	-437.853353	-437.894205	28.837	
O	 0.1443326203	 1.4241146674	 0.1144823766	-0.421553
C	 0.0369229461	 0.0437781344	 0.0893880988	 0.150222
C	-0.4941888433	-0.759580183	 1.2305402995	-0.342431
C	-1.3095043989	-0.6750459166	-0.065139667	-0.206058
C	-2.5504964826	 0.0952372612	-0.1012286247	 0.482296
C	-3.7068302965	-0.0204704402	-0.8147711846	-0.3592
C	-4.4847582574	 1.083238374	-0.3791046694	 0.04337
N	-3.872093505	 1.8145137309	 0.5166797053	-0.145262
O	-2.6326913373	 1.1830570307	 0.7001869126	-0.249963
H	-0.6398805058	 1.7937853262	 0.539887086	 0.304347
H	 0.8558550206	-0.3773321498	-0.4845582959	 0.11843
H	-0.0356881741	-1.7119423981	 1.4731859974	 0.124356
H	-0.8936509102	-0.2152767942	 2.0798319144	 0.138628
H	-1.3288156689	-1.5513043588	-0.7029743527	 0.105297
H	-3.9621508118	-0.7756034541	-1.5385400265	 0.121076
H	-5.4798198951	 1.3704003598	-0.6898010398	 0.136447
