18
gdb 114409	3.26488	1.1588	1.12649	4.12	72.52	-0.2418	0.0275	0.2693	1169.2973	0.148008	-439.078009	-439.069734	-439.06879	-439.111351	30.785	
C	-0.2248619055	 1.2525133335	 0.0518425676	-0.239009
O	 0.3492984717	-0.0243196234	-0.1325974007	-0.247641
C	 0.8037442585	-0.6116330256	 1.0534615599	 0.147673
C	-0.2423050587	-1.2060452191	 2.0539001671	-0.282818
C	 0.4191726395	-2.6126495882	 1.8903014078	-0.195246
C	 1.4064921674	-2.0203751331	 0.8272280159	-0.037937
N	 0.7201143223	-2.8315803042	-0.1754130283	-0.306029
C	-0.2193311599	-3.3567246122	 0.7000132647	 0.419134
O	-1.1798205588	-4.0564493243	 0.5316128023	-0.35597
H	 0.4981281871	 1.9619132355	 0.4833250108	 0.10787
H	-0.5329356679	 1.6139002923	-0.9317633423	 0.132286
H	-1.1066208147	 1.2147579526	 0.7076519388	 0.114642
H	 1.5148409332	 0.051708121	 1.5702441388	 0.069175
H	-0.168848423	-0.7958659435	 3.0626529979	 0.110982
H	-1.2838272103	-1.1598414513	 1.7280612086	 0.124925
H	 0.7165587497	-3.1676595637	 2.7763446726	 0.098666
H	 2.4908910757	-2.1317155751	 0.845807973	 0.085558
H	 0.5954288336	-2.6240456813	-1.1573519743	 0.253739
