21
gdb 17624	3.2218	1.4236	1.06931	1.6156	74.52	-0.2456	0.0717	0.3173	1156.0553	0.187369	-366.237377	-366.227812	-366.226868	-366.2717	35.113	
C	 0.0128752761	 1.542315117	 0.124921086	-0.392177
C	 0.0076839584	 0.0094463666	 0.0754460239	 0.017811
C	 0.3390146283	-0.5889318923	 1.4498339049	-0.392968
C	-1.3346348157	-0.5183802574	-0.47093816	 0.108865
O	-1.66035099	 0.0745580679	-1.7312250385	-0.433862
C	-1.377487808	-2.0319272987	-0.5710788918	-0.00871
C	-2.2015230839	-2.8375710138	 0.3664646091	-0.238789
N	-2.6106304676	-2.6806416394	-1.0360846445	-0.320134
H	 0.9984711809	 1.9202140043	 0.414760721	 0.106421
H	-0.2543302757	 1.9657582845	-0.8451775799	 0.126853
H	-0.7126801109	 1.9081535495	 0.8616807824	 0.10976
H	 0.7860128818	-0.313605558	-0.6344029684	 0.062414
H	 0.4119215548	-1.6793473265	 1.420230487	 0.120051
H	 1.2925497354	-0.1981441967	 1.8188438032	 0.113597
H	-0.4304262076	-0.3253192524	 2.1854204244	 0.113155
H	-2.1426853835	-0.1845972832	 0.1953121735	 0.076779
H	-1.0599109929	-0.290215727	-2.3913722078	 0.280169
H	-0.47228442	-2.4845997229	-0.9789835302	 0.084544
H	-1.8901233338	-3.8404776044	 0.6453398692	 0.117881
H	-2.7523739904	-2.3058964147	 1.1386023521	 0.111337
H	-3.3414986557	-1.9769401523	-1.1198733157	 0.237003
