19
gdb 74977	2.71088	1.58841	1.58195	2.6059	75.22	-0.232	0.0134	0.2454	984.43	0.161459	-423.036182	-423.028734	-423.027789	-423.067801	29.701	
C	-0.0212983876	 1.5015847599	 0.0371893961	-0.508994
C	-0.0026090507	 0.0074073458	-0.0265982094	 0.3281
C	-0.021348843	-0.7610791401	-1.1190343897	-0.185624
C	 0.0072563342	-2.2354773505	-0.7946717711	 0.159405
O	 1.1929958011	-2.5479472813	-0.0713323961	-0.265506
C	 1.2861160112	-1.7579160722	 1.1164888058	-0.059042
C	 0.0424101272	-0.8480340787	 1.2239547231	-0.181302
C	-1.180090256	-1.7914662885	 1.182454888	-0.059044
O	-1.1294298544	-2.5792676669	-0.0094035385	-0.265508
H	 0.8662960191	 1.8885291227	 0.5538731255	 0.128463
H	-0.0531902633	 1.9442426275	-0.9621638107	 0.128127
H	-0.8912446029	 1.8645721274	 0.599296805	 0.12849
H	-0.053511285	-0.4017333805	-2.1412828021	 0.097399
H	-0.0070405856	-2.8926387395	-1.6631136434	 0.086092
H	 1.3350519088	-2.434636209	 1.979997639	 0.100999
H	 2.2096938221	-1.1654113369	 1.085980677	 0.097174
H	 0.05929689	-0.2687340603	 2.1504144343	 0.072598
H	-1.1641835383	-2.4687845483	 2.046739852	 0.100993
H	-2.1197478166	-1.2243365605	 1.2020968952	 0.097181
