16
gdb 124327	3.91091	1.16994	0.90642	3.1842	76.53	-0.2195	-0.0305	0.1889	1231.2473	0.125175	-434.123866	-434.115474	-434.11453	-434.157023	31.068	
C	-0.136192779	 1.4912891838	 0.0062728935	-0.484766
C	 0.0220748113	-0.0079323993	 0.0165530914	 0.427336
O	 1.0800029294	-0.5933473714	 0.0328750528	-0.327673
N	-1.1805421546	-0.7372330433	 0.0054485467	-0.034456
C	-1.2864684152	-2.1029846836	 0.0019486516	 0.025549
C	-2.6168860919	-2.4023722807	-0.014064088	-0.314217
C	-3.2743200421	-1.1296473933	-0.0162204102	 0.403847
N	-4.6373704571	-0.9056905151	-0.0994936795	-0.583667
N	-2.4125105096	-0.1280167569	 0.002054297	-0.352224
H	 0.8570653057	 1.9388384708	 0.0135746182	 0.140701
H	-0.694454472	 1.8111432014	-0.87722119	 0.158441
H	-0.7115413848	 1.8215181884	 0.8748552058	 0.156509
H	-0.3989513895	-2.713041855	 0.0072469372	 0.163115
H	-3.0706715443	-3.3802008835	-0.0329596427	 0.111311
H	-5.2053143847	-1.5883851585	 0.3802870916	 0.253137
H	-4.8988126313	 0.0406474961	 0.1409210446	 0.257057
