14
gdb 28840	3.24075	1.42974	1.08929	5.8045	78.32	-0.2242	-0.0748	0.1494	1059.016	0.10188	-432.888335	-432.880744	-432.8798	-432.92038	28.694	
N	 0.1029004592	 1.3017540483	 0.4706222626	-0.574011
C	 0.0023823162	-0.0347265284	 0.118646156	 0.276431
C	-1.193114204	-0.7092753652	 0.1950252662	-0.072729
N	-1.4894816942	-1.9646204407	-0.2462763126	-0.178471
C	-0.665018755	-2.938883198	-0.396355507	-0.090124
C	 0.7518090102	-2.9321655597	 0.0741371626	 0.333501
O	 1.2053466938	-3.8060085824	 0.777076267	-0.319771
N	 1.5223698787	-1.8961263586	-0.4413675573	-0.229284
C	 1.2003449039	-0.6550248161	-0.4198501609	-0.023875
H	 0.8805721562	 1.8129746168	 0.0819810248	 0.260036
H	-0.7526664821	 1.8355658113	 0.484011958	 0.262703
H	-2.0643200932	-0.1480278872	 0.5302861882	 0.10382
H	-1.0402267792	-3.8741935195	-0.8120042289	 0.136526
H	 1.9203461096	 0.0349227694	-0.8733122788	 0.115248
