15
gdb 46641	2.47958	1.60892	1.43754	5.1074	70.73	-0.2698	-0.0029	0.2669	965.2783	0.114695	-416.825644	-416.818338	-416.817394	-416.857734	27.423	
N	-0.0894169743	 1.2371754131	 0.2804312206	-0.541684
C	-0.0183905937	 0.0137824568	-0.0134826383	 0.428323
O	 1.1262427931	-0.6581193975	-0.3526664844	-0.240178
C	 0.8338954377	-1.950863914	-0.9064267756	-0.110328
C	-0.6380277234	-2.2108029437	-0.6329424775	-0.094643
C	-1.0665747604	-2.1754463063	 0.8197728846	-0.199319
C	-0.1082809758	-2.2897366566	 1.8848843917	 0.317363
N	 0.6629160822	-2.4111678544	 2.738087391	-0.340786
C	-1.1723416524	-0.9278598749	-0.0603149588	-0.128842
H	 0.8267587834	 1.6816526513	 0.2056893945	 0.232503
H	 1.0278081007	-1.9304369286	-1.9846552457	 0.126864
H	 1.5029538607	-2.6770533517	-0.4357690596	 0.144616
H	-1.200929744	-2.8284295721	-1.3208126937	 0.122503
H	-2.0187023094	-2.6478229386	 1.037593845	 0.148186
H	-2.1564555943	-0.5259314627	-0.2542270639	 0.135421
