13
gdb 130098	5.56024	1.3875	1.11287	5.7058	65.57	-0.2284	0.0134	0.2418	993.0271	0.093875	-445.117892	-445.111306	-445.110362	-445.148677	25.313	
N	 0.0135101977	 1.3097533788	 0.1404942725	-0.593698
C	-0.0006794121	-0.0649762317	 0.0245051975	 0.445755
N	-1.0836668112	-0.8048267361	-0.0115548347	-0.307977
N	-0.5625102641	-2.0760351098	-0.0053398736	 0.108076
N	-1.0803159939	-3.3223582664	-0.0386926701	-0.268403
C	 0.0439644333	-4.0433401975	-0.0413626112	 0.024927
N	 1.2342297078	-3.3577489153	-0.0208829166	-0.402695
C	 0.7796867447	-2.1202317143	 0.0024645806	 0.494828
N	 1.1750068608	-0.7995063268	 0.0085882702	-0.458623
H	 0.6055645215	 1.7782936509	-0.5344645839	 0.264274
H	-0.9268219806	 1.6836528919	 0.1161643885	 0.278088
H	 0.0065049544	-5.1219691553	-0.0585394925	 0.126088
H	 2.0965201019	-0.4487096084	 0.2030050732	 0.289359
