20
gdb 66177	3.75322	0.84845	0.80512	3.0481	78.24	-0.2613	0.0147	0.2759	1497.9548	0.169799	-440.270296	-440.260744	-440.2598	-440.305838	34.719	
O	 0.0938930458	 1.5909801849	-0.2658893408	-0.486187
C	 0.0089972015	 0.2130272761	 0.007868352	 0.420786
C	 0.8731814227	-0.5638003732	-0.9756073327	-0.1329
O	 2.2130571551	-0.0817035074	-0.8110964258	-0.207684
C	 3.1272690311	-0.4991349247	-1.7094945412	 0.13242
N	 4.3241924086	-0.113029409	-1.6145143999	-0.435706
C	 0.1984407435	-0.2424357134	 1.4892532413	-0.275899
C	-1.0794131217	-1.1139038356	 1.3471097579	-0.215078
C	-1.4440369372	-0.3143527474	 0.0654050343	-0.271171
H	 1.0327481675	 1.8088868808	-0.3270099703	 0.288678
H	 0.8330539517	-1.6426581599	-0.7789436664	 0.108782
H	 0.5292048203	-0.3712765857	-2.0000605698	 0.113253
H	 2.713300137	-1.1688656212	-2.4757388533	 0.088853
H	 4.8803006564	-0.5135922368	-2.3669609273	 0.231647
H	 1.138028754	-0.7344818059	 1.7502262343	 0.105984
H	 0.0418642318	 0.6093364418	 2.1548075898	 0.111556
H	-0.8522035467	-2.1621815875	 1.1354508665	 0.102245
H	-1.7961970757	-1.0800936634	 2.1692228732	 0.10561
H	-2.1208515249	 0.5171818267	 0.2737552787	 0.12078
H	-1.8175267104	-0.8651641392	-0.8028588505	 0.09403
