12
gdb 16795	3.87798	2.17666	1.51694	1.8302	55.38	-0.2718	-0.0361	0.2357	764.6604	0.085955	-414.707494	-414.701526	-414.700582	-414.737686	22.545	
O	 0.0383116637	-0.0324240057	-0.0453328361	-0.343819
C	 0.0362141921	 1.1688293776	 0.0099168457	 0.443326
N	-1.0801162831	 1.9998114988	 0.0549802816	-0.373062
C	-0.7757966279	 3.361833319	 0.0317774692	 0.426634
O	-1.5570295758	 4.2664112174	 0.0868593504	-0.331411
N	 0.6558682832	 3.4934028798	-0.0787133274	-0.141205
C	 1.3333076275	 3.048674713	 1.1563082651	-0.244975
C	 1.2006882947	 2.1239116158	-0.0043343947	-0.161512
H	-2.0274499322	 1.6581100821	 0.1217177211	 0.282412
H	 2.2911704977	 3.5231846024	 1.3404188078	 0.15203
H	 0.7236135735	 2.8689612626	 2.0374707848	 0.150189
H	 2.0552180866	 1.8782728171	-0.6235257175	 0.141393
