13
gdb 10005	2.74223	1.29587	0.92365	4.0602	71.86	-0.2743	0.011	0.2852	1215.2072	0.092399	-324.266318	-324.257288	-324.256344	-324.301693	30.148	
C	 0.0095860901	 1.5017539962	 0.0136637209	-0.499719
C	-0.0082770796	 0.047320794	 0.0125485091	 0.09887
C	-0.0250626809	-1.1540668803	 0.0044410569	 0.102794
C	-0.0403884434	-2.6223713932	 0.0095157	-0.497931
C	-1.3978660498	-3.1754151713	-0.1033436683	 0.345318
C	-2.5040979154	-3.6321254908	-0.1753825192	-0.419512
C	 0.8337227851	-3.1641130328	-1.0562585914	 0.313873
N	 1.5293337325	-3.5913045175	-1.8722011736	-0.31852
H	 0.6208689075	 1.885272128	-0.8098788885	 0.161866
H	-1.0012587856	 1.9065010875	-0.1020458552	 0.159194
H	 0.4233933012	 1.8918257645	 0.9493772577	 0.156701
H	 0.3891433724	-2.97304738	 0.9609901934	 0.183353
H	-3.4852529942	-4.0332376943	-0.2471875417	 0.213714
