16
gdb 8374	5.10853	1.28963	1.17833	2.4662	65.7	-0.2457	-0.0289	0.2168	1028.944	0.127715	-383.731785	-383.723995	-383.723051	-383.764178	28.956	
C	 0.1123893704	 1.5323496541	-0.2690610268	-0.417614
C	 0.029371228	 0.0484499905	-0.0291612668	-0.018965
O	 1.2770829711	-0.6708102256	 0.0368277521	-0.28847
C	 0.4864595355	-0.5892783261	 1.2073012758	 0.423575
C	 0.9771160495	 0.0496792313	 2.5193073092	-0.433337
C	 0.2900519444	-1.1202434189	 3.2551969463	 0.404383
O	 0.0818615927	-1.362854306	 4.4066483597	-0.285366
C	-0.0691097303	-1.8276904834	 1.9323535317	-0.434873
H	 0.8871079347	 1.9868276352	 0.3536831906	 0.129823
H	 0.3512763399	 1.7382162758	-1.317438197	 0.13517
H	-0.8466619868	 2.0112777801	-0.0433999059	 0.125055
H	-0.7393469967	-0.475213198	-0.6012542511	 0.094083
H	 2.0669521254	 0.0385810901	 2.6279567811	 0.147026
H	 0.6079049838	 1.0477361979	 2.7720755943	 0.13578
H	-1.1260956315	-2.0714550657	 1.7939698022	 0.136004
H	 0.5277136899	-2.7303640212	 1.7613476846	 0.147727
