14
gdb 12474	3.7431	1.99522	1.38877	4.833	60.93	-0.2684	-0.0492	0.2192	844.9557	0.108619	-419.703416	-419.696798	-419.695854	-419.734493	24.445	
O	-0.0552724701	 0.4856062099	 1.2103956394	-0.327838
C	-0.0930118715	 1.1305706751	 0.1946980616	 0.402857
O	-1.3066746217	 1.5014516928	-0.294886405	-0.220389
C	-1.4260653954	 2.1661275996	-1.5428604621	 0.009159
O	-0.848432361	 3.4315831435	-1.5375186033	-0.224641
C	 0.4841194713	 3.4695900678	-2.0036056059	-0.141345
C	 1.415082755	 2.4688758998	-1.3979250225	-0.064615
C	 1.1622981501	 1.5009889626	-0.5124093741	-0.185087
H	-1.0125146543	 1.5390915071	-2.3453215148	 0.107037
H	-2.5013199346	 2.2928384449	-1.6767111017	 0.136585
H	 0.5142564981	 3.3535282142	-3.1017891642	 0.11833
H	 0.8480934104	 4.482555445	-1.7927814393	 0.14311
H	 2.4406879062	 2.5705720741	-1.7504946263	 0.118164
H	 1.9874836673	 0.8903333836	-0.1612473618	 0.128673
