19
gdb 55359	3.1517	1.28018	1.1743	3.6143	75.43	-0.236	-0.0103	0.2257	1139.8433	0.158754	-423.035216	-423.026678	-423.025734	-423.068996	31.709	
C	 0.0063101995	 1.5014528257	-0.0890816281	-0.486633
C	 0.0828618994	-0.006190058	 0.0682744562	 0.380836
O	 1.1227248953	-0.5936943542	 0.2337397795	-0.293385
C	-1.2674080482	-0.7350646107	 0.0430642186	 0.011667
O	-1.0700358732	-2.084470119	-0.3288952637	-0.255007
C	-2.0480713329	-2.9026513111	 0.3088265302	-0.092027
C	-2.3961145856	-2.195462016	 1.6042268519	-0.054261
C	-1.2360019688	-1.68971565	 2.420684581	-0.289788
C	-1.9138584225	-0.7746263976	 1.4311730361	-0.073153
H	 0.9710713492	 1.9492014178	 0.1512840597	 0.14484
H	-0.2587420709	 1.7486000215	-1.1241751011	 0.145309
H	-0.7755256241	 1.9272361939	 0.5493967832	 0.13487
H	-1.9458419975	-0.2189704038	-0.6583017314	 0.072123
H	-2.9475625466	-3.0081163109	-0.3188147289	 0.092532
H	-1.600494835	-3.8934241174	 0.4394018794	 0.115337
H	-3.343402556	-2.4140740419	 2.0826845581	 0.092663
H	-1.4117541102	-1.5000033288	 3.4733613295	 0.112684
H	-0.2387289716	-2.0404047119	 2.174852558	 0.14844
H	-2.4918473303	 0.0775698922	 1.7668524619	 0.092953
