22
gdb 103566	2.31165	1.2381	1.12351	2.9065	83.66	-0.255	0.0329	0.2878	1274.0361	0.192522	-404.370872	-404.360769	-404.359825	-404.405612	37.733	
C	 0.1184852773	 1.6026676778	 0.1286810189	-0.396033
C	-0.2348044464	 0.1365327241	-0.1481918495	-0.216039
C	 0.6075046638	-0.5149851168	-1.2424509611	 0.412525
C	 0.5201030741	 0.1764812134	-2.5926572519	-0.446019
O	 2.0269021661	-0.5798690167	-0.801650953	-0.299048
C	 2.0050783058	-1.9540812793	-0.7758339422	 0.431808
N	 2.8793722552	-2.7793312258	-0.4138182553	-0.553768
C	 0.5913166526	-2.0791538164	-1.3021043779	-0.188769
C	-0.3955980432	-2.91623898	-0.4987783929	-0.416451
H	 1.1871639462	 1.7062502688	 0.3376495479	 0.137693
H	-0.1285572873	 2.2535186378	-0.7149236624	 0.118804
H	-0.4339086997	 1.9691020421	 0.9986645217	 0.116045
H	-0.1050190867	-0.4374771912	 0.7747150521	 0.107343
H	-1.2926471621	 0.0467258399	-0.426223469	 0.101166
H	 0.8479371513	 1.2170445198	-2.5291910463	 0.13291
H	 1.1523168706	-0.3326679128	-3.3252605334	 0.125978
H	-0.5120802503	 0.164041829	-2.9593520002	 0.12137
H	 3.7270955408	-2.3043973228	-0.0978828565	 0.222729
H	 0.5968621634	-2.4213557383	-2.3421640905	 0.101522
H	-0.4147261554	-2.6360513461	 0.5570707791	 0.126784
H	-1.4104632791	-2.8256858365	-0.8989274657	 0.117342
H	-0.102994507	-3.96857651	-0.552467072	 0.142108
