16
gdb 77614	2.08891	1.66872	1.30489	3.9199	71.09	-0.2485	-0.0092	0.2392	1038.9562	0.122677	-437.847694	-437.839049	-437.838105	-437.88078	31.849	
C	-0.0418151766	 1.5805554123	 0.0333480632	-0.491805
C	 0.0110232627	 0.0838244686	 0.0256747636	 0.1537
C	 0.6737837561	-0.7912430219	-1.0361846339	-0.133867
O	 1.1402782137	-1.7471393571	-0.0369306157	-0.317589
C	 0.6232291507	-0.9284121981	 1.0056362914	 0.274607
C	 1.3107015084	-0.7818017751	 2.2434556873	 0.216562
N	 1.8323928455	-0.6600763914	 3.2699695984	-0.354113
C	-0.8871205165	-0.7967435432	 0.8599135147	-0.022103
O	-1.5655147648	-0.1078440331	 1.8530102015	-0.407061
H	 0.949269727	 2.0122497896	-0.1359853755	 0.132404
H	-0.7093204587	 1.9412229677	-0.7578798741	 0.132337
H	-0.4263168783	 1.9448338147	 0.9874251699	 0.158242
H	 0.0251073411	-1.2612801544	-1.7828657509	 0.11868
H	 1.5253487211	-0.3071280372	-1.5261238138	 0.126021
H	-1.4046427225	-1.6447819385	 0.4051146732	 0.106143
H	-1.5885366688	-0.6513810227	 2.6489494508	 0.307843
