19
gdb 99929	3.67785	0.70825	0.68447	1.4537	94.53	-0.2406	-0.0104	0.2302	1701.2616	0.155071	-385.838822	-385.827954	-385.82701	-385.874564	39.346	
C	-0.024515657	 1.5590383741	 0.0309414221	-0.401882
C	 0.0050695017	 0.0124477987	 0.0273766902	-0.008676
C	 0.7476092082	-0.5080756804	 1.2805863767	-0.40188
C	-1.4410212474	-0.540041935	 0.0070071746	-0.077338
O	-2.1054708927	-0.083346575	 1.1734190921	-0.424283
C	 0.678201234	-0.4660105412	-1.1799739087	 0.509438
C	 1.2314460606	-0.8644095838	-2.1808813396	-0.345523
C	 1.8559370317	-1.3104739463	-3.3048593343	 0.302297
C	 2.4091673947	-1.7068779013	-4.3025597459	-0.583848
H	 0.9910876939	 1.961932368	 0.0612686021	 0.121093
H	-0.5165705405	 1.9413814436	-0.8679504035	 0.119569
H	-0.574945358	 1.9113370202	 0.9059297927	 0.136527
H	 0.211626889	-0.1941389192	 2.1788403619	 0.136548
H	 0.8062116082	-1.6002378677	 1.2731397835	 0.119584
H	 1.7658337557	-0.1121883751	 1.3150232785	 0.121091
H	-1.9446136798	-0.1893504868	-0.9059057179	 0.097822
H	-1.40318844	-1.6387788289	-0.0299438926	 0.09782
H	-3.0041717317	-0.4239395418	 1.1621731857	 0.292683
H	 2.8971720994	-2.0542197721	-5.1789187875	 0.188957
