18
gdb 56920	3.02456	1.00096	0.88717	4.308	73.22	-0.2689	0.0122	0.2812	1337.8491	0.144771	-439.074518	-439.064566	-439.063622	-439.109502	36.197	
C	-0.0255662338	 1.5826830239	-0.1836015199	-0.446253
C	 0.0027109024	 0.0797356909	-0.0208912425	 0.384343
O	-1.1713228207	-0.5614359311	-0.4504191144	-0.465762
C	 1.2924813845	-0.6963584509	-0.1577247931	-0.351198
C	 0.5937165361	-0.5894095831	 1.1871678042	-0.060588
C	 1.196681981	 0.2057282753	 2.3269406156	-0.042379
O	 0.230357428	 0.8488056774	 3.1392906389	-0.408503
C	 2.0785834015	-0.6620806002	 3.1429293918	 0.267104
N	 2.7418113399	-1.3529941192	 3.7894497172	-0.317929
H	 0.9011117998	 2.0526353519	 0.1552913784	 0.11937
H	-0.1525223857	 1.843369009	-1.2411786248	 0.110653
H	-0.8580875718	 2.0131222691	 0.3794445878	 0.14151
H	-1.2385079112	-0.4472879414	-1.405321865	 0.283793
H	 1.2570213817	-1.6573222091	-0.657143836	 0.124877
H	 2.2164930723	-0.142951735	-0.2951329117	 0.118126
H	 0.060313148	-1.4817501272	 1.5033069667	 0.11262
H	 1.8179797152	 1.0152157844	 1.9307257148	 0.134871
H	-0.3799855573	 0.1786762754	 3.468552332	 0.295345
