19
gdb 2799	3.96421	2.00552	1.51392	1.3099	67.23	-0.2523	0.0752	0.3275	873.2179	0.1714	-310.910631	-310.902656	-310.901712	-310.942555	29.551	
C	 0.1336997535	 1.4199997218	-0.2059252864	-0.387311
C	-0.0123739682	-0.1040992453	-0.1640651292	-0.163099
C	-1.4444934341	-0.5500776811	 0.1404552224	-0.000777
C	-2.4248313985	-0.4506221905	-1.070117839	-0.226959
C	-2.2158498841	-1.9676131501	-1.3332344735	-0.257903
C	-1.663112638	-2.0875387633	 0.1122652506	 0.132425
O	-0.5024246554	-2.8509580037	 0.3498303356	-0.430413
H	 1.1636221529	 1.712901008	-0.4330459187	 0.109902
H	-0.5128757014	 1.867503122	-0.968859417	 0.113065
H	-0.1354841124	 1.8690173357	 0.7569096794	 0.111222
H	 0.3169099252	-0.5342160475	-1.1178545441	 0.094225
H	 0.6561275256	-0.5215875096	 0.5966273813	 0.108711
H	-1.7830655064	-0.0603101131	 1.0598504063	 0.06053
H	-3.4478238954	-0.2171324219	-0.7642165149	 0.098355
H	-2.1416781577	 0.2328151615	-1.874314777	 0.098959
H	-3.0878351484	-2.5700016783	-1.6010958965	 0.088211
H	-1.4209267248	-2.1491801965	-2.061742274	 0.107157
H	-2.4668137452	-2.3705712151	 0.8084298303	 0.061464
H	-0.7333798773	-3.782447133	 0.2805095645	 0.282236
