22
gdb 69848	2.21494	2.04624	1.50147	1.5387	85.	-0.2241	0.0841	0.3082	1012.7501	0.195383	-367.169808	-367.161784	-367.160839	-367.201466	33.568	
C	 0.0999816521	 1.4416859016	-0.0096119049	-0.473575
C	-0.0687227661	-0.0579751755	-0.0287838834	 0.307049
C	-0.6445503559	-0.7736420335	 1.1431490199	-0.310534
N	 0.798412908	-0.8947721765	 0.8507616119	-0.144959
C	 1.1697632445	-1.9669414456	-0.1303874697	 0.007876
C	-0.0818938561	-2.300114978	-0.983428944	-0.287456
C	 0.0534285095	-0.8037030279	-1.3848758495	 0.276574
C	-0.6458403807	-0.2278218637	-2.5953324296	-0.507929
C	 1.6090035734	-1.0803975616	-1.3305630844	-0.246922
H	 0.937253613	 1.7608314573	-0.6399745679	 0.116814
H	-0.8039559212	 1.9443762887	-0.372457417	 0.11521
H	 0.2972124942	 1.7895694175	 1.0077677165	 0.125634
H	-0.8435320539	-0.1901984826	 2.0387587327	 0.109256
H	-1.3046686806	-1.6245585374	 1.027947782	 0.111519
H	 1.8047130651	-2.7348453591	 0.3099930663	 0.069711
H	 0.1747818307	-2.9557301138	-1.8181897408	 0.095971
H	-0.9997509855	-2.6642139393	-0.5206657257	 0.091818
H	-1.7340176002	-0.237730654	-2.4631104603	 0.117933
H	-0.3448431696	 0.8085956102	-2.7815940592	 0.120182
H	-0.4138670716	-0.8075535215	-3.4944737465	 0.114634
H	 2.2728357075	-0.2433954264	-1.1016622651	 0.100373
H	 1.9753322831	-1.645098959	-2.191236971	 0.090821
