16
gdb 16986	4.01935	2.19734	2.08782	1.117	64.2	-0.2407	0.0414	0.2821	719.7229	0.132212	-383.609313	-383.603589	-383.602645	-383.638741	24.136	
C	 0.0085508946	 1.6066971907	-0.2551454546	-0.181558
O	 1.4385706935	 1.48600773	 0.1400348264	-0.355102
C	 1.0450707409	 0.3005152426	 0.8828130921	 0.355741
C	 1.1921812141	-1.2579890129	 1.0127788473	-0.329334
C	-0.3996264125	-1.0382727322	 1.1574916908	 0.049519
O	-0.5298942741	-0.3876822467	 2.4050675564	-0.252338
C	 0.4956381206	 0.6194793248	 2.2969887515	-0.119597
C	-0.1719960177	 0.0800118235	 0.0507178314	-0.049892
H	-0.5138610311	 2.3235710889	 0.3824897608	 0.12217
H	-0.0824502947	 1.8900176303	-1.3056888922	 0.122075
H	 1.4875547298	-1.763493381	 0.0951702168	 0.119552
H	 1.6880347588	-1.6819439511	 1.8905629434	 0.108174
H	-1.1178659267	-1.8518494503	 1.0659319437	 0.096517
H	 1.2496277597	 0.487118919	 3.0805882508	 0.107465
H	 0.055842575	 1.6162099425	 2.3897548998	 0.108768
H	 0.1119971499	-0.442805118	-0.8645815843	 0.097839
