16
gdb 11424	4.37784	1.44212	1.31172	2.4606	61.06	-0.2464	-0.0239	0.2225	965.0694	0.129613	-420.89472	-420.886938	-420.885994	-420.927403	27.815	
C	-0.3727178388	 1.1994012708	-0.2353772599	-0.245608
O	-0.2115415364	-0.2058485835	-0.341638409	-0.243686
C	 0.9434192442	-0.5889903334	-1.032556693	 0.205649
C	 0.9871452446	-2.1128971705	-1.0419756912	-0.357747
C	 0.2299925734	-2.4567492016	-2.3244805179	 0.374478
O	-0.2176811211	-3.5218826063	-2.6508665877	-0.297237
C	 0.1477418477	-1.1552400619	-3.1283302828	-0.18595
O	 0.9069690992	-0.1992096779	-2.4034450284	-0.261038
H	 0.4706384603	 1.6548230144	 0.3048672669	 0.110063
H	-0.4525887079	 1.6705444748	-1.2215157147	 0.128743
H	-1.2915720773	 1.3723223015	 0.3280020983	 0.131438
H	 1.8294147971	-0.0964757357	-0.611217551	 0.079803
H	 2.0177848393	-2.4717568682	-1.1336050735	 0.140518
H	 0.5290544598	-2.5674348283	-0.1637618547	 0.149048
H	 0.5767159769	-1.2760285078	-4.1275012055	 0.138199
H	-0.9047781108	-0.8582239966	-3.2349876759	 0.133328
