18
gdb 35931	2.37193	1.48176	1.26908	2.1415	78.15	-0.2401	0.018	0.2581	1079.476	0.148404	-401.917376	-401.908997	-401.908053	-401.950555	31.601	
C	-0.2914944588	-1.2609686596	-0.2195716555	-0.482583
C	-0.1527235757	-0.0707921956	-0.1189696442	 0.339076
C	 0.011451756	 1.3771999015	 0.0032988595	-0.184932
C	-0.6637146818	 1.9295408909	 1.2744090248	-0.224931
C	-0.1557437439	 1.2928278631	 2.5587083578	-0.068738
O	 1.1706593289	 1.6570830454	 2.956920002	-0.229045
C	 2.2526134247	 1.4076342563	 2.1705928799	 0.126847
N	 2.4374188864	 1.4101872693	 0.9249163085	-0.242672
C	 1.4957856462	 1.8078613016	-0.0986521934	-0.156893
H	-0.4074465302	-2.311852409	-0.3193769672	 0.199444
H	-0.4847540611	 1.8398108633	-0.8612815682	 0.109434
H	-0.5218722159	 3.0159331812	 1.3147724682	 0.108543
H	-1.7421173861	 1.7420336694	 1.2209299184	 0.114214
H	-0.7780908821	 1.6011888444	 3.4022573913	 0.116555
H	-0.2080504666	 0.2008058775	 2.4731317369	 0.12787
H	 3.1085589792	 1.2200106095	 2.8211437404	 0.117475
H	 1.8847560424	 1.4469638434	-1.056047493	 0.118052
H	 1.5092937084	 2.9067598474	-0.1529907861	 0.112284
