17
gdb 69796	2.68616	1.94084	1.34391	2.4619	73.26	-0.2454	-0.0104	0.235	963.3925	0.136664	-417.973971	-417.966479	-417.965535	-418.005618	29.473	
C	 0.0083127106	 1.5693968823	 0.0440588376	-0.489941
C	 0.1689429576	 0.0805644396	 0.0215979349	 0.36604
O	-0.769480698	-0.7034940791	 0.8055041385	-0.285362
C	 0.6219716378	-0.8054584663	 1.1109089356	-0.050228
C	 1.2906922435	-2.011954375	 0.4890959603	-0.059851
C	 0.4430141502	-2.9488844726	-0.2882570247	-0.25323
N	 1.1948779687	-1.873444131	-0.9816444625	-0.15667
C	 0.4914048816	-0.6528764014	-1.2602203631	 0.310269
N	 0.2271925367	-0.1901177442	-2.4074789992	-0.513043
H	 0.9449046393	 2.0611740511	-0.2347412195	 0.133483
H	-0.7530078278	 1.8704767263	-0.6807527969	 0.153984
H	-0.2912992312	 1.9038106122	 1.0399673838	 0.127548
H	 0.9276145742	-0.4453844783	 2.0887647335	 0.105275
H	 2.2551593552	-2.3192898794	 0.8816605175	 0.104179
H	 0.8059876049	-3.9485023604	-0.5069542968	 0.126701
H	-0.6313229691	-2.8367051601	-0.1994795143	 0.153567
H	 0.5472830157	-0.8385770037	-3.1311003849	 0.227279
