22
gdb 58223	2.15285	1.16683	1.00022	2.8519	79.42	-0.2361	0.028	0.2641	1333.3527	0.191788	-441.511143	-441.500121	-441.499177	-441.547457	39.52	
C	 0.0416154011	 1.5072836495	-0.2393066863	-0.435126
C	 0.0136140495	 0.002131118	 0.0084025734	 0.152714
O	 0.8142727076	-0.3507951773	 1.1360866812	-0.434666
C	-1.423160044	-0.5738653829	 0.1157951965	 0.004478
C	-1.4079163926	-2.1064756554	 0.1409067972	-0.409912
N	-2.1850676721	-0.0128657398	 1.2357648034	-0.04304
C	-2.0309872944	-0.5423921063	 2.588575874	-0.354294
C	-3.1633880469	 0.9143280138	 1.0194464946	 0.14969
O	-3.8796097144	 1.3962551309	 1.8728442915	-0.348599
H	 1.0748851783	 1.8531034071	-0.3307445828	 0.129366
H	-0.4902335541	 1.7701847697	-1.1590334925	 0.12248
H	-0.4345916577	 2.0482520116	 0.586704471	 0.128304
H	 0.4836362328	-0.504967174	-0.8447098984	 0.087457
H	 0.7280873083	 0.3522732477	 1.7879342332	 0.287843
H	-1.9470239156	-0.2534409013	-0.7936449426	 0.089092
H	-2.4214335284	-2.5061546157	 0.2338729166	 0.122032
H	-0.9751324758	-2.48772045	-0.7887104886	 0.120777
H	-0.8011819359	-2.482923164	 0.9676479838	 0.142572
H	-2.3993258204	 0.2102851312	 3.2860919354	 0.158944
H	-2.6184420299	-1.4572842879	 2.7332596547	 0.129221
H	-0.983735909	-0.7682323245	 2.7870837817	 0.132037
H	-3.2347769863	 1.1968204296	-0.049729247	 0.06863
