23
gdb 95809	2.38878	1.47056	1.08859	1.6728	81.6	-0.2541	0.0827	0.3368	1224.8969	0.205751	-425.445678	-425.436213	-425.435269	-425.479196	36.574	
C	-0.1091386219	 1.5178374123	-0.1299905939	-0.416811
C	 0.0562836563	 0.0131071296	 0.0120842806	 0.129122
O	 0.701753018	-0.4594890032	-1.1730853397	-0.253506
C	 0.7959604526	-1.8581909225	-1.1841420225	 0.017392
O	 1.5231651658	-2.3669588855	-0.0989297341	-0.253506
C	 0.92535699	-2.0050288577	 1.1485637757	 0.129124
C	 1.7091243814	-2.7045074964	 2.2477485404	-0.416812
C	 0.8446368333	-0.4635263019	 1.2552472431	-0.001933
C	 2.221800699	 0.1995734843	 1.3795927792	-0.400131
H	 0.8548412938	 2.0069005271	-0.2891578671	 0.131564
H	-0.7474744455	 1.74405257	-0.9883423552	 0.123047
H	-0.5717013425	 1.9391510695	 0.7680827701	 0.112916
H	-0.9471889302	-0.4475263799	 0.0647881059	 0.059145
H	-0.2209900717	-2.2983533278	-1.1881140033	 0.071546
H	 1.3325154894	-2.1389841857	-2.0930816561	 0.114077
H	-0.1114700763	-2.3882068722	 1.1576487822	 0.059145
H	 2.7668814044	-2.4332456318	 2.2111307075	 0.131566
H	 1.3124101186	-2.4358982041	 3.2318583189	 0.112917
H	 1.635007517	-3.7886793353	 2.1273682696	 0.123047
H	 0.2425772565	-0.2232001768	 2.1424214289	 0.066469
H	 2.8381179116	-0.0266655662	 0.5062799079	 0.137634
H	 2.131899621	 1.2857676514	 1.462929492	 0.111995
H	 2.7499112996	-0.1492264572	 2.2708173098	 0.111994
