20
gdb 73149	2.57478	1.58589	1.34906	2.0032	78.29	-0.2418	0.0612	0.303	1050.126	0.170994	-403.087405	-403.079151	-403.078206	-403.120038	32.277	
C	 0.1714066519	 1.5940070669	 0.1222496362	-0.513747
C	 0.0517770929	 0.089091804	 0.0618935984	 0.207737
C	-1.3495459896	-0.5535829162	-0.0346742544	-0.115105
O	-1.0573972121	-1.4845722198	 1.0307394055	-0.293931
C	 0.2430658068	-0.9039837746	 1.2551172695	 0.071766
C	 1.3717641233	-1.6441089953	 0.5003073106	-0.311234
C	 1.1251177882	-0.7197191927	-0.7026540058	 0.30943
C	 1.1822825945	-0.9916785018	-2.1548293602	-0.307986
N	 2.2185426834	-0.1666940135	-1.497511796	-0.371163
H	 1.1792177633	 1.9061318583	 0.4160485053	 0.127882
H	-0.0476500245	 2.0505432856	-0.8518329533	 0.118477
H	-0.5350715983	 2.0156730262	 0.8445263747	 0.126493
H	-2.173354882	 0.1195780373	 0.2404418658	 0.093793
H	-1.5972279025	-1.0574653853	-0.9771719543	 0.099984
H	 0.4003293459	-0.6160383363	 2.2980370605	 0.075265
H	 2.3641746059	-1.4929456395	 0.9351571964	 0.11191
H	 1.1922735862	-2.7119108448	 0.3558382684	 0.112606
H	 1.5286066435	-1.95592085	-2.5175656144	 0.121085
H	 0.4551750143	-0.5014466362	-2.7990269603	 0.107925
H	 2.0524854587	 0.8180916876	-1.6950722224	 0.228812
