17
gdb 50689	2.40309	1.47524	1.13419	3.3424	69.06	-0.2486	-0.0436	0.205	1100.3937	0.134408	-458.976646	-458.967857	-458.966913	-459.011641	30.468	
O	 0.4556479072	-0.2044353629	 0.2587731392	-0.263631
C	 0.1515656294	 0.9143776789	-0.0666193691	 0.139709
C	 1.1490893003	 2.0667160433	-0.0685972853	-0.083276
C	 0.7576660204	 3.3058289027	-0.886104297	-0.276317
C	 1.6590939694	 4.394754344	-0.2877258983	-0.0729
O	 1.966884245	 3.9910782509	 1.0574694413	-0.276433
C	 1.421790874	 2.6993903569	 1.3140643791	 0.01717
C	 0.1725044029	 2.9041376575	 2.167239007	 0.142005
O	-0.901711324	 2.4052598132	 1.9469790166	-0.235585
H	-0.8691783402	 1.161688949	-0.4211818904	 0.092054
H	 2.0988860367	 1.6535618012	-0.4240412754	 0.114499
H	 0.9163613021	 3.1802416105	-1.9593467069	 0.118788
H	-0.3006176136	 3.5383043591	-0.725591811	 0.128866
H	 2.6018206606	 4.4842848727	-0.841992445	 0.11169
H	 1.1818217828	 5.3798255625	-0.2640537041	 0.115823
H	 2.1506480908	 2.1240772531	 1.8995123351	 0.119894
H	 0.3307053362	 3.6057821174	 3.013991634	 0.107644
