16
gdb 19536	3.62841	1.8498	1.66589	2.3667	59.33	-0.2481	0.0804	0.3285	826.0655	0.13165	-420.837383	-420.830389	-420.829445	-420.868905	26.254	
O	 0.195227679	 1.0323798273	-0.6586503759	-0.426436
C	 0.0177817684	 0.0039755461	 0.3013144447	-0.091878
C	-1.3752916951	-0.6018808987	 0.2578798548	-0.099703
C	-1.8989885216	-1.1741588687	-1.0423463466	 0.026713
O	-0.907868997	-1.4199553194	-2.0275810338	-0.262628
C	-0.3937574687	-2.7072359344	-1.7179219931	 0.018742
O	-0.4633989749	-2.8507390832	-0.3112229529	-0.246901
C	-1.5904942284	-2.1000010421	 0.0886277516	 0.030382
H	 0.0935890168	 0.6082030144	-1.5189572585	 0.290615
H	 0.764678022	-0.7910653689	 0.1845734242	 0.105764
H	 0.183451797	 0.4653536366	 1.2792881087	 0.110004
H	-2.1333014765	-0.1017231848	 0.8554323876	 0.097852
H	-2.8878889151	-0.9578456602	-1.4301511841	 0.11032
H	-0.9977393756	-3.484862978	-2.2143363416	 0.099401
H	 0.6505018262	-2.763772411	-2.0357112721	 0.127622
H	-2.3262221166	-2.6498312349	 0.6648262569	 0.110131
