11
gdb 132323	2.02191	1.74914	0.93783	3.2276	57.77	-0.2495	-0.0601	0.1894	1070.2649	0.06404	-541.810654	-541.803841	-541.802897	-541.84226	25.441	
F	 0.068727063	 0.0696090491	 0.0026338012	-0.026398
C	-0.065934259	 1.3727146185	 0.0113007532	 0.454932
C	-1.2735356299	 1.9802249535	 0.0312338963	-0.524076
C	-1.2264587289	 3.3990834594	 0.0378150718	 0.390261
F	-2.3887483741	 4.0327660739	 0.0573118337	-0.053075
C	-0.0692669243	 4.1109894695	 0.0253296445	-0.43431
C	 1.1984175033	 3.444003564	 0.0042253871	 0.460286
O	 2.3076897862	 3.8807000698	-0.0090634575	-0.316833
O	 1.0907348448	 1.98446172	-0.001754914	-0.243881
H	-2.198215097	 1.4255086772	 0.0412737569	 0.14831
H	-0.0671570741	 5.1913829551	 0.0308312766	 0.144784
