23
gdb 40898	3.25302	1.24319	1.20802	0.066	89.02	-0.2469	0.083	0.3299	1189.2084	0.208586	-351.149945	-351.141817	-351.140873	-351.182892	32.511	
C	 0.1650972071	 1.6006507635	-0.1868497861	-0.211566
C	 1.6712200955	 1.5434233104	 0.2056499394	-0.298282
C	 1.4498679477	 0.1041523263	 0.7075120184	 0.382043
C	 0.0362880449	 0.0764144356	 0.1022064191	-0.305408
C	 2.3799875923	-1.0753405131	 0.7794440207	-0.115067
C	 3.8825756408	-0.8314195231	 0.7898799974	-0.216203
C	 4.1090104861	 0.2695973782	 1.8540707299	-0.217581
C	 2.9298925347	 0.1382887551	 2.8497086873	-0.215742
C	 1.7932219483	-0.4849867844	 2.0505932601	-0.109547
H	-0.4264634008	 2.2141858456	 0.4967917133	 0.101766
H	-0.054772702	 1.9173318954	-1.208658643	 0.096778
H	 2.3467851808	 1.6072357141	-0.653669103	 0.097969
H	 1.9956004255	 2.2760390821	 0.9499685285	 0.098728
H	-0.774296321	-0.2229173627	 0.7735667931	 0.095251
H	-0.0312705065	-0.5304310454	-0.8068717031	 0.096288
H	 2.0151293943	-2.0175846878	 0.3802761121	 0.071347
H	 4.3909849922	-1.758947325	 1.079988582	 0.096379
H	 4.2823132184	-0.5430607578	-0.189070068	 0.093142
H	 5.0797336594	 0.1744837073	 2.3482583273	 0.092041
H	 4.0941673367	 1.2550786057	 1.3810135175	 0.106499
H	 3.1947295497	-0.5349311888	 3.6739328542	 0.096554
H	 2.6656898004	 1.1019651533	 3.3005911504	 0.092683
H	 1.0010907955	-0.9935968545	 2.5927591924	 0.071928
