20
gdb 97453	6.41641	0.57977	0.56191	2.4875	80.9	-0.2514	0.0211	0.2724	1995.7747	0.169335	-440.250168	-440.2402	-440.239256	-440.287429	33.713	
C	-0.1483963226	 1.3546010095	-0.1032681116	-0.315077
N	-0.0484119692	-0.0863472466	-0.0092183826	-0.201921
C	 0.5339173285	-0.6886949706	-0.9457622397	 0.133776
O	 0.6552286308	-2.0327199521	-0.929663943	-0.210507
C	 1.3723102711	-2.6122387706	-2.0200120102	-0.091494
C	 1.2819805811	-4.1169231138	-1.8776095652	-0.045414
C	-0.0986887523	-4.7261957583	-2.202165182	-0.072263
O	 0.3993511702	-5.3040938415	-3.429436337	-0.270396
C	 1.7495861309	-4.9125862173	-3.1159945598	-0.092154
H	 0.3272985232	 1.81386978	 0.7707809313	 0.128731
H	 0.312397355	 1.779369301	-1.0105387761	 0.095328
H	-1.2030704893	 1.6519822019	-0.0829704305	 0.12918
H	 0.9764292817	-0.2013918507	-1.8296534084	 0.072611
H	 0.9318238169	-2.2938168974	-2.9759368432	 0.11293
H	 2.421122391	-2.2830247606	-2.0009812223	 0.108826
H	 1.714875205	-4.4253973837	-0.9243518146	 0.095408
H	-0.4428562957	-5.4937361797	-1.4983199779	 0.105767
H	-0.9113547319	-4.0118857741	-2.3768617174	 0.11226
H	 2.2109332091	-4.3311598185	-3.9251753994	 0.100691
H	 2.3894829365	-5.7760536167	-2.8936114804	 0.103719
