19
gdb 121516	9.21058	0.39007	0.37776	1.2307	101.71	-0.2279	-0.0016	0.2263	2850.8745	0.15615	-385.841802	-385.830631	-385.829687	-385.88161	36.783	
C	-0.0563663989	 1.3743479095	 0.0800812668	-0.230263
O	-0.0057166714	-0.0314501232	 0.0200252338	-0.225218
C	 0.6487432627	-0.5081456557	-1.131855636	-0.044383
C	 0.6313859979	-2.0408147057	-1.0684064074	-0.385592
C	 1.2836388022	-2.6543663394	-2.2134596284	 0.239723
C	 1.830921407	-3.1469267768	-3.1747234744	-0.172436
C	 2.4450788082	-3.7033405671	-4.2533769918	-0.207196
C	 2.9915897634	-4.1983398184	-5.2132323314	 0.250612
C	 3.6469310427	-4.7931410939	-6.3642002884	-0.518131
H	 0.9511943626	 1.8189429899	 0.0988938819	 0.106376
H	-0.6026410468	 1.8003434566	-0.7762539449	 0.106376
H	-0.5784665639	 1.6433557407	 1.0013580947	 0.12913
H	 0.1411631594	-0.1624543659	-2.0468647759	 0.099639
H	 1.68787631	-0.1439229841	-1.1757426291	 0.099639
H	 1.119016539	-2.3552463642	-0.1372119298	 0.143167
H	-0.4118159137	-2.3736068856	-0.9993817127	 0.143167
H	 3.6359834228	-5.8874599609	-6.3046798816	 0.155576
H	 3.1488392585	-4.5063172792	-7.2973813678	 0.154909
H	 4.6933370285	-4.4748308966	-6.4342270476	 0.154907
