18
gdb 17448	3.4083	2.0951	1.65992	1.2612	71.49	-0.2459	0.0781	0.3239	845.0603	0.153763	-347.755364	-347.747894	-347.74695	-347.786535	29.509	
C	-0.0204781462	 1.5531417139	-0.0053053021	-0.414889
C	 0.1155480226	 0.0495416301	 0.1130090875	-0.01209
C	 1.3700184247	-0.7356684203	-0.1756516651	-0.068822
C	 2.6163403329	-0.0230020694	 0.2897147343	-0.12237
C	 3.2793296321	-0.7938698987	 1.4141386182	-0.341923
C	 2.0499423063	 0.0298972089	 1.7070867954	 0.397626
O	 2.0927746311	 1.1336726532	 2.5481271352	-0.467768
C	 0.7890594194	-0.6711819734	 1.2572936681	-0.158464
H	 0.8579373855	 2.0739822043	 0.3795679396	 0.139894
H	-0.1651412573	 1.848260635	-1.0508725532	 0.108199
H	-0.8875784095	 1.9063044223	 0.5634460908	 0.113384
H	-0.7715388874	-0.4882475818	-0.2216128079	 0.080302
H	 1.3637092334	-1.6055957314	-0.8234867188	 0.083565
H	 3.1393872367	 0.766872818	-0.2363347534	 0.092828
H	 3.2499233886	-1.8805173624	 1.4297089229	 0.101854
H	 4.2035374483	-0.355842776	 1.7804302757	 0.108475
H	 2.1951175801	 0.8211803284	 3.4533797682	 0.284117
H	 0.2938219686	-1.4707089006	 1.7989117847	 0.076083
