17
gdb 72929	2.60997	2.06628	1.56411	1.1743	65.89	-0.2453	0.0564	0.3016	881.3886	0.137503	-458.907117	-458.900452	-458.899508	-458.937781	27.759	
O	 0.1545308376	 1.3451700778	-0.0438680321	-0.486666
C	 0.0703361031	-0.0457319588	-0.0129271919	 0.415169
C	 0.257662676	-0.7410624043	-1.3678185195	-0.145595
O	-0.9549592963	-1.5148798581	-1.179469813	-0.299948
C	-1.2933587071	-0.7908001201	 0.0266032597	 0.041799
C	-1.103046093	-1.5333599352	 1.3711002239	 0.053747
C	 0.2908505384	-2.1735727058	 1.241914211	-0.246415
C	 0.659460924	-0.6767934789	 1.269149142	-0.02383
O	-0.491373056	-0.4527684321	 2.1682129092	-0.319746
H	-0.1477830452	 1.6596348675	 0.8178431183	 0.286585
H	 0.1656984297	-0.0449879619	-2.2084736404	 0.119611
H	 1.1408025026	-1.3754827733	-1.5023858272	 0.104857
H	-2.2238878437	-0.2248870267	-0.061132897	 0.086277
H	-1.9528667025	-2.0114525253	 1.8561308622	 0.086687
H	 0.5916012962	-2.6696119229	 2.1646653419	 0.115968
H	 0.5128769729	-2.778506866	 0.3633056592	 0.123046
H	 1.6044432733	-0.283935656	 1.6444383537	 0.088455
