21
gdb 100977	2.48162	1.11819	0.99074	2.6138	74.62	-0.2525	0.0596	0.3121	1327.9212	0.179957	-461.342318	-461.332028	-461.331084	-461.377463	38.698	
C	 0.0547176776	 1.5744649445	 0.01193257	-0.385401
C	-0.0213556037	 0.0479655841	-0.0641453641	-0.206923
C	 0.7780707887	-0.530000907	-1.2372915968	 0.082305
O	 2.1649222038	-0.1669405271	-1.1645426988	-0.449093
C	 0.6797529124	-2.040090226	-1.3494130102	 0.318757
O	 1.0637418951	-2.7287218654	-0.1822075304	-0.478311
C	-0.306996887	-2.6859820522	-2.2974528262	-0.37738
C	 1.1705261335	-2.6579762919	-2.6228341921	 0.07772
O	 1.6053432659	-1.827214621	-3.6545688886	-0.429154
H	 1.0952815599	 1.9020983445	 0.0777304699	 0.133058
H	-0.3841086282	 2.0355809583	-0.8797340246	 0.115677
H	-0.4840535265	 1.9550734153	 0.8846857706	 0.10959
H	 0.357019521	-0.3887387673	 0.8696853173	 0.088314
H	-1.0660138358	-0.2757300144	-0.1637268727	 0.096333
H	 0.4205911169	-0.0864234673	-2.1713758329	 0.097031
H	 2.5478830209	-0.715010797	-0.4676624547	 0.288173
H	 0.3195839581	-2.7211414526	 0.4302485981	 0.287347
H	-0.7329524587	-3.6403278781	-2.0078910294	 0.114977
H	-0.9566068679	-2.0382208969	-2.8762103644	 0.12305
H	 1.7063811926	-3.6005084383	-2.515777358	 0.097048
H	 2.2754581414	-1.2442069243	-3.273025422	 0.296879
