12
gdb 9024	4.61834	0.93541	0.80227	5.3708	74.16	-0.2731	-0.0507	0.2225	1315.0369	0.082709	-340.31723	-340.308903	-340.307959	-340.350451	28.999	
N	-0.0594038426	 1.4948486438	 0.061781547	-0.485109
C	 0.0492474307	 0.027071217	-0.003376879	-0.367331
C	 0.705268812	-0.4945502663	-1.2150603789	 0.331507
C	 1.2313316415	-0.8721870521	-2.2269805348	-0.447359
C	 0.7311863529	-0.4698020487	 1.1975052981	 0.206833
C	 1.2937783238	-0.8852973052	 2.1806513221	 0.011044
C	 1.9322336206	-1.3509319054	 3.2945947788	 0.214162
N	 2.4756937199	-1.747100049	 4.2414740574	-0.331839
H	 0.8706417568	 1.8981299489	-0.0166639836	 0.247143
H	-0.5784272546	 1.8121580668	-0.7528001894	 0.246209
H	-0.9780706337	-0.3643752281	 0.0252798867	 0.161256
H	 1.6985119728	-1.2152658517	-3.1175003243	 0.213485
