22
gdb 11376	4.23519	1.19047	1.01744	0.2114	84.79	-0.2238	0.0341	0.2579	1258.764	0.200609	-313.099899	-313.090984	-313.09004	-313.133577	33.373	
C	 0.1258898058	 1.5456745293	-0.1605446712	-0.371516
C	-0.0940162933	 0.0431552786	 0.0911830206	-0.289421
C	 0.6410164839	-0.4797532583	 1.2909474397	 0.347806
C	 0.1022067362	-0.9746482082	 2.4082593006	-0.17877
C	 1.1385879992	-1.4600641131	 3.3907264019	-0.258882
C	 2.4591951014	-0.8560084532	 2.8404270481	 0.053442
C	 3.7013780839	-1.7120414597	 3.0811418674	-0.403228
C	 2.1554919238	-0.5625322749	 1.3480180923	-0.313745
H	 1.1825387574	 1.7744396112	-0.3311532122	 0.118031
H	-0.4320083148	 1.8782599668	-1.0414504444	 0.1112
H	-0.2090503825	 2.136887142	 0.6975146595	 0.118772
H	-1.1659895208	-0.1515617919	 0.2103208893	 0.098875
H	 0.2255074158	-0.5125435196	-0.8022462823	 0.098747
H	-0.9648609012	-1.067997629	 2.5859879609	 0.0784
H	 0.9389691695	-1.1508331191	 4.423675842	 0.096061
H	 1.1785558497	-2.5605560943	 3.4048153734	 0.096472
H	 2.6028617384	 0.1118611608	 3.3371099509	 0.073755
H	 3.601224628	-2.6917823737	 2.5993291783	 0.111379
H	 4.6010488391	-1.234129298	 2.6782060972	 0.10986
H	 3.8676402007	-1.8831703236	 4.1503564634	 0.110494
H	 2.5119025206	-1.377919627	 0.6985132341	 0.095413
H	 2.6568820095	 0.345936355	 0.9946646107	 0.096856
