19
gdb 71137	2.91936	1.62457	1.304	3.4305	78.86	-0.23	-0.0073	0.2227	1023.9966	0.160209	-385.90109	-385.893644	-385.8927	-385.932604	30.439	
C	 0.0126606669	 1.5124631739	-0.0014850952	-0.486207
C	 0.0281556412	-0.0025253996	-0.0022603449	 0.30757
C	-1.3121986748	-0.7311577417	 0.373564209	-0.279127
C	-0.5150363456	-1.616176677	 1.32509953	-0.062286
C	 0.7737841473	-2.1502463859	 0.6725540166	-0.153172
C	 0.701310786	-0.7417370097	 1.2115051791	-0.125746
C	 0.8942315563	-2.1137563016	-0.8193457018	 0.405088
O	 1.2051711861	-3.0292688252	-1.539968804	-0.33343
C	 0.6212379498	-0.6650026657	-1.2520042866	-0.368808
H	 1.0219478947	 1.9178440803	-0.1373749397	 0.117265
H	-0.6131069849	 1.8990557793	-0.813697533	 0.120872
H	-0.3830322256	 1.9050205607	 0.9413435578	 0.116712
H	-1.981591851	-0.0666148658	 0.9268864292	 0.104472
H	-1.8714872888	-1.2066518801	-0.4400476483	 0.099015
H	-0.8982675218	-2.1397492257	 2.1927297441	 0.096781
H	 1.2800448168	-2.9371569266	 1.2177718379	 0.104751
H	 1.3607218094	-0.328343711	 1.9634070195	 0.092906
H	-0.0239127435	-0.6262553191	-2.1344366116	 0.121403
H	 1.5834292715	-0.2087055696	-1.5215015681	 0.121942
