25
gdb 103282	2.33644	1.25525	1.09579	0.1834	93.	-0.2439	0.0863	0.3302	1322.3384	0.228517	-352.33527	-352.325276	-352.324332	-352.369587	38.85	
C	 0.4871650801	 1.6613496749	 0.4299951545	-0.38352
C	 0.0696029208	 0.2199243874	 0.1029106985	-0.258587
C	 0.8224830286	-0.3868991777	-1.0759449924	 0.361711
C	 0.6024387217	 0.3598833474	-2.3877533228	-0.457604
C	 2.2104457092	-0.9618728365	-0.9514952933	-0.087525
C	 2.418382052	-1.7304582921	 0.3632100944	-0.287635
C	 1.2945371655	-2.7366058416	-0.0666571148	 0.03493
C	 0.1778273945	-3.1619789589	 0.8829418617	-0.417039
C	 1.0186335003	-1.8720214735	-1.3078733421	-0.13306
H	 1.5653702177	 1.72424016	 0.613447286	 0.117729
H	 0.2476369428	 2.3547578524	-0.3813706158	 0.116312
H	-0.026478327	 2.018881923	 1.3280024289	 0.10853
H	 0.2144955857	-0.3864257329	 0.9983372811	 0.100933
H	-1.0075288905	 0.1899054229	-0.1106752818	 0.088906
H	 0.9666453805	 1.3906369507	-2.3337739835	 0.116502
H	 1.1278428166	-0.129459711	-3.2136828865	 0.112007
H	-0.463053027	 0.3952688889	-2.6439229883	 0.111182
H	 3.0160890799	-0.629742125	-1.597036798	 0.075337
H	 3.3997297856	-2.2032612163	 0.4417368904	 0.097707
H	 2.2434807796	-1.1615401562	 1.2820676724	 0.095317
H	 1.7954077147	-3.6462875569	-0.4171115536	 0.075463
H	-0.3815065889	-2.3182353536	 1.2935206939	 0.118613
H	-0.5395788576	-3.8076439364	 0.3634147726	 0.112255
H	 0.5839047945	-3.7341587321	 1.7251972544	 0.110201
H	 0.7657723006	-2.2930462966	-2.2761416159	 0.071335
