17
gdb 39231	2.55582	2.26364	1.61769	0.964	70.55	-0.2353	-0.0075	0.2278	858.6744	0.13819	-421.764194	-421.75791	-421.756965	-421.79434	27.07	
C	-0.011085771	 1.5356754552	-0.0173525625	-0.295736
C	 1.5090055742	 1.719720548	 0.0125870592	 0.084263
O	 1.9858215636	 1.4104038524	 1.3496833156	-0.299317
C	 1.072922479	 0.6685794392	 2.1979468051	-0.127518
C	 0.5334199169	-0.4804369828	 1.3670540182	 0.011119
O	-0.8172020567	-0.7049336326	 0.8851390384	-0.306952
C	 0.073793506	 0.0106320133	 0.0613211615	 0.348168
C	 1.0213572318	-0.3339140466	-1.0660087753	-0.190411
C	 1.9186507318	 0.6599955203	-1.0491766161	-0.079246
H	-0.5461440826	 2.0067054043	 0.80661359	 0.111008
H	-0.4391478313	 1.8629328432	-0.966494978	 0.107458
H	 1.8779267593	 2.7227055885	-0.208181277	 0.080087
H	 1.6878761392	 0.3266614428	 3.0335983671	 0.115006
H	 0.2781052769	 1.3069792	 2.6015741565	 0.112245
H	 1.1184495401	-1.3967230603	 1.3805449056	 0.105643
H	 1.0289039326	-1.2428812526	-1.6522572169	 0.118146
H	 2.8153645501	 0.7327719377	-1.6506502413	 0.106037
