19
gdb 83936	2.30837	1.71172	1.49024	2.716	74.79	-0.2334	-0.0225	0.2108	1001.8958	0.160423	-423.026472	-423.018571	-423.017627	-423.058602	30.855	
C	-0.1311917499	 1.5749687609	 0.0578003726	-0.427989
C	 0.0673738787	 0.0677261029	-0.0045097736	 0.006802
C	 0.8197952761	-0.6075783049	-1.2115455792	-0.162293
C	 2.1024350301	 0.1922218122	-1.5315579775	-0.2404
C	 3.0333895662	 0.1542437196	-0.3030110703	-0.074609
O	 2.3248214871	 0.2068225546	 0.9369448745	-0.271643
C	 1.1449774524	-0.5849857946	 0.9260466955	-0.003605
C	 1.1982568061	-1.683548343	-0.176531814	 0.387486
O	 1.2689164038	-2.876866708	-0.1755593923	-0.315023
H	 0.8216754797	 2.103882661	 0.1224206482	 0.132603
H	-0.6754987821	 1.940154958	-0.819329262	 0.118392
H	-0.7140504931	 1.8419171555	 0.9452535446	 0.122287
H	-0.887389057	-0.4490384972	 0.1436126905	 0.089235
H	 0.2564550214	-0.8990729793	-2.0990117708	 0.085225
H	 2.6257882871	-0.2541463458	-2.3833616517	 0.11551
H	 1.8407698134	 1.2174115063	-1.810387091	 0.115597
H	 3.6222339952	-0.7752767816	-0.3339337697	 0.115498
H	 3.7322704849	 0.9942121081	-0.291414803	 0.113345
H	 0.90018719	-0.8476457548	 1.956085329	 0.093581
