18
gdb 392	6.83866	1.88641	1.61861	1.3482	60.09	-0.2625	0.0783	0.3408	798.4108	0.164837	-272.838189	-272.830053	-272.829108	-272.870013	28.743	
C	-0.0773141448	 1.5372581865	 0.0598372788	-0.387397
C	 0.012011829	 0.0102102265	-0.0248079719	-0.171659
C	 0.7720053581	-0.5178742962	-1.2541462561	 0.056906
C	 2.2477146787	-0.0982315351	-1.2739012152	-0.389646
C	 0.6414467865	-2.0399791892	-1.333805645	-0.076757
O	 1.2192937628	-2.4841249758	-2.5539419869	-0.42438
H	 0.9085175896	 1.9984860773	 0.1707168565	 0.119527
H	-0.5405134381	 1.9557909005	-0.8407897463	 0.113904
H	-0.682157702	 1.8459146788	 0.9182703913	 0.110522
H	 0.4886482012	-0.377772006	 0.8864663977	 0.091063
H	-1.0052058704	-0.4031635466	-0.0341889812	 0.08994
H	 0.2875856409	-0.1161909276	-2.15588712	 0.078461
H	 2.7553840533	-0.4185730779	-0.3550916449	 0.102807
H	 2.7599888878	-0.5597134271	-2.1208519732	 0.132609
H	 2.360364035	 0.9862653647	-1.3562528689	 0.109565
H	 1.146665319	-2.4976774479	-0.4662183594	 0.07957
H	-0.4226174118	-2.3215431711	-1.2792218479	 0.079632
H	 1.2022702052	-3.445096124	-2.5629216175	 0.285332
