21
gdb 95561	2.32958	1.56503	1.04528	2.7178	83.81	-0.2269	-0.0114	0.2155	1198.8439	0.183392	-387.126775	-387.117942	-387.116998	-387.160238	33.888	
C	-0.1478352571	 1.5319646976	 0.0352039663	-0.392404
C	 0.0349115517	 0.0123855316	 0.0413390428	-0.081461
C	 0.6835797336	-0.4718546891	-1.2801775062	-0.181274
C	 0.7975075769	-1.9984545073	-1.4622906245	-0.266094
C	 1.8630465616	-2.6511441093	-0.6122996275	-0.042773
C	 1.8859463465	-2.6292447411	 0.7193893127	-0.06233
C	 0.8402540335	-1.9437614265	 1.5758530092	-0.341214
C	 0.8058440089	-0.4404558192	 1.2851629453	 0.386867
O	 1.36214985	 0.3460736389	 2.0163411977	-0.306059
H	 0.8203139505	 2.0373496009	-0.0161023718	 0.131106
H	-0.7491012602	 1.8423474487	-0.8249813835	 0.103944
H	-0.6431876877	 1.8745808859	 0.9469589465	 0.122396
H	-0.9520946783	-0.4717292507	 0.1042587396	 0.083449
H	 0.0754917547	-0.0677831118	-2.0985659835	 0.099677
H	 1.6779445166	-0.0196686	-1.378267521	 0.109754
H	-0.1821835081	-2.4547856917	-1.2533834234	 0.106422
H	 1.0044148414	-2.2053075113	-2.5166789146	 0.10347
H	 2.6654863388	-3.1624042074	-1.1378581979	 0.091718
H	 2.7061946332	-3.1042124696	 1.2490837537	 0.099605
H	-0.1497588196	-2.3781665113	 1.3828403737	 0.113687
H	 1.0695762032	-2.0678270071	 2.6354326864	 0.121513
