16
gdb 96841	3.53261	1.14226	0.88861	1.2703	69.01	-0.2698	-0.0198	0.25	1262.8977	0.123293	-475.069898	-475.061185	-475.060241	-475.103843	31.11	
C	 0.109392702	 1.4359064742	 0.0629627306	-0.341691
N	-0.0087875721	-0.0097249101	-0.0290808612	-0.295633
C	 0.4141387021	-0.6343066303	-1.0241378881	 0.420325
C	 0.3502049726	-2.1247856931	-1.2673869433	-0.335314
C	 1.4453598105	-2.346618031	-2.3099674528	 0.010208
O	 1.1525796992	-3.3553173851	-3.2371426812	-0.431359
C	 1.5404957929	-0.9747508711	-2.9756636889	 0.39783
O	 1.9715499462	-0.7359175289	-4.0642429674	-0.332727
O	 1.0342458456	-0.0240979581	-2.1365434624	-0.219489
H	 0.6697075246	 1.8970435062	-0.7566445228	 0.135133
H	-0.8967392151	 1.8679978675	 0.0923207479	 0.139337
H	 0.5897810576	 1.6860690207	 1.0142871913	 0.136366
H	 0.4687439046	-2.6831531796	-0.3401313526	 0.148142
H	-0.6161667679	-2.3877878199	-1.7124015417	 0.154298
H	 2.4131662287	-2.5253693177	-1.8097836041	 0.113515
H	 1.5920275183	-3.1104641937	-4.0627609834	 0.30106
