19
gdb 78525	2.32629	1.57028	1.24649	1.8366	75.95	-0.2018	0.0738	0.2756	1090.5335	0.157035	-422.942059	-422.933248	-422.932303	-422.974693	34.862	
C	-0.0156754523	 1.497811616	 0.0345568951	-0.488349
C	-0.0095749905	-0.0021384953	-0.0589629313	 0.306769
C	-0.8592853627	-0.8798599817	 0.795352062	 0.032364
O	-1.8062244511	-1.7952667888	 0.3110987389	-0.41901
C	 0.6356779623	-1.0519529079	 0.891510439	-0.261782
C	 1.3546582761	-1.6765718077	-0.3391163245	 0.394089
O	 2.7044019064	-1.9758640097	-0.2712898954	-0.456303
C	 0.4511328186	-2.1824821672	-1.428023509	-0.372961
C	 0.7008645844	-0.6897540231	-1.2632144193	-0.168664
H	 0.9836905106	 1.9096193654	-0.1473903546	 0.122939
H	-0.6935775348	 1.934600661	-0.7097571151	 0.123492
H	-0.3425929589	 1.8340047248	 1.0235122238	 0.11563
H	-1.2284435636	-0.3242045293	 1.6632548235	 0.086748
H	-1.8791326601	-2.5058251261	 0.9582854053	 0.283181
H	 1.1763340865	-0.8710788724	 1.8142051491	 0.085923
H	 2.793492097	-2.8912417976	 0.0184724034	 0.282746
H	 1.0134515239	-2.592865749	-2.2632578141	 0.106507
H	-0.5163463413	-2.6266791914	-1.2455596954	 0.132749
H	 1.1536545594	-0.1019756998	-2.0510820513	 0.093932
