15
gdb 67323	3.31517	1.44242	1.22408	4.5049	69.68	-0.2526	0.0247	0.2773	1002.0868	0.11322	-416.720733	-416.713552	-416.712608	-416.752325	27.994	
O	 0.1544547462	 1.3185692956	-0.0996462126	-0.461602
C	 0.084244542	-0.0425222591	-0.0570783513	 0.444089
C	 0.4062656632	-1.0231600816	 1.129453143	-0.11244
N	-0.992566192	-0.9000166342	 1.6528704608	-0.362506
C	-1.1626521624	-0.9743964298	 0.1647743606	-0.10195
C	 0.0425904284	-1.9407961205	-0.0813720375	-0.064823
C	 0.7209698483	-0.9795174099	-1.1020209559	-0.240837
C	 0.1893335593	-0.9539605839	-2.4561416893	 0.275029
N	-0.2448427704	-0.9482611493	-3.5276655428	-0.32915
H	-0.3474372197	 1.6639438698	 0.6501782852	 0.304749
H	 1.2938863173	-1.0565052251	 1.7615916455	 0.095372
H	-1.2919475587	-1.7725520769	 2.0952749019	 0.216573
H	-2.1274186329	-0.9529615968	-0.3404300444	 0.109228
H	 0.0201635741	-3.027616101	-0.1042125024	 0.102787
H	 1.8143222372	-0.9954504474	-1.1162632408	 0.12548
