17
gdb 113509	3.83624	0.97316	0.87015	4.4301	69.92	-0.2727	-0.0147	0.2581	1354.538	0.134488	-458.966256	-458.957604	-458.95666	-459.000192	31.047	
C	 0.3347231601	 1.499780038	 0.2117093253	-0.378115
C	-0.2813364963	 0.1521004121	-0.1838402726	-0.215585
C	 0.3987615162	-0.4508496217	-1.3870657363	-0.018645
O	 1.6866864862	-1.0608700688	-1.1735307866	-0.267878
C	 0.6164751649	-1.8942761335	-1.5311902681	 0.205191
C	 0.0894829224	-3.1111495769	-0.7755369107	-0.159283
O	-0.0059564599	-3.8248177397	-2.0509065626	-0.248889
C	 0.5385753363	-2.7771827931	-2.7681427874	 0.409997
O	 0.7827913767	-2.7265846651	-3.9273249344	-0.326498
H	 1.3949593476	 1.3827048668	 0.4535964913	 0.138694
H	 0.2530559724	 2.2268559949	-0.6030283361	 0.124348
H	-0.171546602	 1.9177807517	 1.0860573217	 0.122057
H	-0.2170183898	-0.5508699985	 0.654099825	 0.107452
H	-1.3462926624	 0.2774155624	-0.4174086449	 0.113671
H	 0.3501519514	 0.130483827	-2.3092738416	 0.120275
H	 0.8079465594	-3.5908409855	-0.1078708694	 0.14064
H	-0.8908124635	-3.0212096803	-0.3033421225	 0.132569
