19
gdb 41942	3.31917	1.47699	1.07971	2.1466	76.4	-0.2446	0.0109	0.2555	1104.1433	0.162063	-423.020756	-423.013415	-423.012471	-423.052575	28.912	
C	-0.0314673175	 1.5120034113	 0.1162658128	-0.113091
O	 1.3289822817	 1.9289238253	-0.0713204605	-0.276486
C	 2.2205209157	 0.800712999	 0.0057008025	-0.097914
C	 1.3857109001	-0.2907109821	 0.6670010065	-0.031528
C	 1.6687402306	-1.7586988428	 0.5434289465	-0.133632
C	 0.6277315147	-2.5883156797	 0.4531273156	-0.062742
C	-0.8123146756	-2.1269846907	 0.4406984082	-0.131528
O	-0.9995309671	-0.7271306085	 0.638674277	-0.27253
C	 0.032224123	-0.0051320799	 0.0147951272	 0.119971
H	-0.4027683261	 1.8202580054	 1.1040291304	 0.102756
H	-0.6521386783	 1.9809991275	-0.6535031553	 0.104607
H	 2.5515677955	 0.5095974559	-1.0028226225	 0.094504
H	 3.1009376979	 1.099260709	 0.5831923452	 0.105653
H	 1.2927542469	-0.0291771254	 1.731649143	 0.101375
H	 2.6884508759	-2.1329835589	 0.5644872732	 0.09331
H	 0.7685330165	-3.6631806244	 0.3709176233	 0.097176
H	-1.2771501876	-2.4362410445	-0.5131509681	 0.10468
H	-1.375957925	-2.6246691455	 1.2389835118	 0.122445
H	 0.0958253984	-0.2882163409	-1.0502457566	 0.072972
