16
gdb 18766	3.86072	2.36044	1.75964	1.0259	63.72	-0.232	0.0513	0.2833	761.0394	0.131483	-383.674822	-383.668641	-383.667697	-383.704941	24.665	
C	-0.0020910682	 1.4767212473	 0.0871545042	-0.246157
C	 1.562855221	 1.5583970434	-0.0346407593	-0.338634
C	 1.5883553282	 0.0531451706	 0.1596564203	 0.433903
O	 2.5559473918	-0.8882543834	-0.2624012603	-0.332642
C	 2.217765441	-1.7672305443	 0.853887914	-0.114048
C	 1.2759327572	-0.7004516548	 1.4638545807	-0.004938
O	-0.1247350145	-0.8336065113	 1.15503242	-0.304854
C	 0.0589039593	-0.0764650154	-0.066400035	 0.040685
H	-0.3926877844	 1.7764978105	 1.0610568246	 0.119899
H	-0.5532035165	 1.9978060271	-0.6971913689	 0.111931
H	 1.871928077	 1.8384118664	-1.0461669235	 0.120741
H	 2.1094597477	 2.1745308177	 0.6836412893	 0.106446
H	 1.7087212402	-2.6800694445	 0.5285069614	 0.117721
H	 3.1096154567	-2.0151232393	 1.4390858044	 0.111496
H	 1.4680932858	-0.3649943661	 2.485033217	 0.090591
H	-0.4362551523	-0.5254709039	-0.929097539	 0.087859
