20
gdb 56195	4.50144	0.75517	0.67829	3.0149	77.8	-0.2397	0.0362	0.2759	1676.042	0.170177	-440.303739	-440.293759	-440.292814	-440.341519	34.234	
C	-0.1302529642	 1.4447899358	-0.1746267449	-0.48094
C	 0.1141854683	-0.0487735408	-0.0214838616	 0.408064
O	 0.8276241176	-0.5006930352	 0.8568199009	-0.375432
N	-0.5291888177	-0.8364776293	-0.9336618224	-0.312666
C	-0.363958385	-2.2744487369	-0.9883196796	-0.175726
C	 0.1544949017	-2.6979552368	-2.3530386244	 0.153063
C	-0.0207514174	-4.1761120505	-2.7609357897	-0.300083
C	-0.9209245106	-3.6152913884	-3.8802988987	-0.058438
O	-0.7433908018	-2.2608055903	-3.4083363562	-0.305015
H	 0.828599749	 1.9411491231	-0.3469651032	 0.151152
H	-0.8141003668	 1.6985271635	-0.988630408	 0.112176
H	-0.5331420569	 1.8324010233	 0.7645858409	 0.151558
H	-1.0615493647	-0.4147222774	-1.6775139831	 0.254946
H	 0.3395345339	-2.5482258403	-0.197577551	 0.147462
H	-1.3211402597	-2.7766835223	-0.7918393325	 0.099279
H	 1.1603221329	-2.2883934557	-2.5126126302	 0.085755
H	 0.8848170737	-4.6871488281	-3.0885575488	 0.117321
H	-0.5328514479	-4.7923381514	-2.018824544	 0.114273
H	-0.5376915005	-3.7415539443	-4.900019426	 0.106599
H	-1.9729019438	-3.9228011881	-3.8577213975	 0.106651
