12
gdb 21565	4.06459	1.90994	1.30023	4.7636	61.4	-0.2377	-0.0537	0.1839	848.2871	0.084306	-414.658122	-414.651466	-414.650522	-414.688817	25.1	
N	 0.0338908084	 1.3716709368	 0.1505001736	-0.557036
C	-0.059919512	 0.014671171	 0.0549560795	 0.499152
C	-1.215093028	-0.7095986307	 0.0298386496	-0.379648
C	-1.1424297033	-2.1400126409	-0.0133272559	 0.374867
O	-2.0753656933	-2.9305424866	-0.0414695205	-0.380499
C	 0.2655103127	-2.6283270958	-0.0246209037	-0.051408
N	 1.3381710951	-1.9292619772	-0.0072648387	-0.052931
O	 1.1709416338	-0.5360798179	 0.0291005535	-0.271233
H	 0.919695592	 1.7800789453	-0.104983331	 0.27598
H	-0.7837691924	 1.9069637834	-0.0914988258	 0.275635
H	-2.1759937339	-0.2112977331	 0.0497005462	 0.111668
H	 0.4306938308	-3.7025389242	-0.0530180868	 0.155452
