17
gdb 56445	2.6238	1.18398	0.91324	3.3942	75.65	-0.2584	-0.034	0.2243	1285.5999	0.133336	-421.791852	-421.782607	-421.781663	-421.826644	33.767	
O	 0.1628229562	 1.4906690867	-0.0473726631	-0.416536
C	 0.0659258737	 0.0951845272	-0.0079279638	-0.117757
C	 0.6275598087	-0.5473743285	-1.2022320132	 0.328054
C	 1.0926351365	-1.0781505569	-2.1749452793	-0.479872
C	 0.7806725261	-0.4445615666	 1.2570333539	 0.368792
O	 1.345686314	 0.3553091292	 1.9760863696	-0.353673
C	 0.714040962	-1.8927284915	 1.5318406877	-0.099726
C	 1.8873023285	-2.5244080604	 2.2711959436	-0.247441
C	 0.605357343	-2.3182048874	 2.9947236272	-0.252815
H	 0.7507078633	 1.7151284757	 0.6950769683	 0.29696
H	-0.993261775	-0.2030137167	 0.0792119466	 0.12086
H	 1.5005640665	-1.5358094594	-3.0423912489	 0.204765
H	 0.2039311882	-2.4942555173	 0.7896752858	 0.106919
H	 2.1674544873	-3.5262564604	 1.9681582004	 0.127454
H	 2.7083056856	-1.8558716554	 2.5020731445	 0.144315
H	 0.558169913	-1.5110382703	 3.7163985175	 0.142887
H	-0.0263303677	-3.1733037681	 3.2048507231	 0.126814
