16
gdb 7472	3.95372	1.40904	1.30154	2.8782	64.37	-0.2609	0.017	0.2778	966.7738	0.130679	-379.904078	-379.895991	-379.895046	-379.936931	29.034	
N	-0.0948542925	 1.5731503669	-0.06759432	-0.558146
C	-0.0365450069	 0.1269190818	-0.0040895705	 0.242852
C	 0.8888376506	-0.5445755453	-1.0534875439	-0.398666
C	 2.2637637646	-0.0654610908	-0.9391259296	 0.254781
N	 3.3340987998	 0.3521792589	-0.8115484974	-0.305344
C	 0.1592946909	-0.4600861805	 1.414706897	-0.088917
O	-0.9997047838	-1.3063884441	 1.2594055234	-0.271595
C	-1.404342864	-0.5916162877	 0.0760578186	-0.102172
H	 0.8320339458	 1.9694393476	 0.0717322599	 0.247885
H	-0.4022291809	 1.8805198187	-0.9872492082	 0.230882
H	 0.8746919199	-1.6332169013	-0.9288884505	 0.162524
H	 0.5210545568	-0.3286784872	-2.0640114684	 0.145566
H	 1.0715810158	-1.0360992517	 1.6033623822	 0.114212
H	 0.0213635923	 0.29088799	 2.201322162	 0.113893
H	-2.230510704	 0.1031713409	 0.2701745387	 0.110937
H	-1.6707148843	-1.2680661162	-0.7448119632	 0.101307
