19
gdb 66321	4.91166	0.64219	0.62432	1.9105	73.7	-0.2553	-0.0332	0.2221	1787.5473	0.155322	-460.137619	-460.127562	-460.126618	-460.174222	35.212	
O	-0.081324636	 1.3836825832	-0.2239064156	-0.470129
C	 0.0122385122	-0.0030512892	-0.0556140831	 0.424217
C	 1.1151100295	-0.6235164349	-0.8700123119	-0.128394
O	 2.3355018175	-0.0278879541	-0.4483675171	-0.267541
C	 3.4474104428	-0.3989483974	-1.2207171205	-0.140188
C	 4.6649028633	 0.3397024124	-0.6914391188	 0.140707
O	 5.7748663443	 0.1918843954	-1.1268106365	-0.234187
C	-0.345937626	-0.5834052774	 1.2917246716	-0.313772
C	-1.2900118783	-0.7168903138	 0.1114204604	-0.313178
H	 0.7905801392	 1.7382717888	-0.0115207384	 0.286128
H	 1.1475907857	-1.7146047012	-0.7277311674	 0.092646
H	 0.9531150298	-0.4203153441	-1.9405860206	 0.101031
H	 3.6422230898	-1.4832993281	-1.172934251	 0.125024
H	 3.3148218902	-0.1434435141	-2.2860566388	 0.126072
H	 4.4336020818	 1.0391528832	 0.1424068838	 0.093698
H	 0.1792604804	-1.4663368255	 1.6396529703	 0.112729
H	-0.6179074859	 0.1255295312	 2.0647511354	 0.121139
H	-2.1756419058	-0.0923116819	 0.1071023907	 0.129875
H	-1.4170674744	-1.6907842522	-0.3490770026	 0.114125
