25
gdb 101322	3.01555	0.76273	0.71069	1.3035	89.95	-0.2572	0.078	0.3352	1752.5716	0.227038	-389.479423	-389.468178	-389.467234	-389.516329	40.917	
C	 2.3689686937	 2.0334098561	 2.410102632	-0.393503
C	 1.626908523	 0.7024536598	 2.2533452406	-0.161896
C	 2.4939262229	-0.4667774718	 1.7434152	 0.020128
C	 3.605652194	-0.8455484823	 2.7347956715	-0.396514
C	 1.6117545759	-1.6695565638	 1.4422746146	 0.00242
C	 0.8507336109	-1.7920733754	 0.1459157436	-0.300957
C	 1.9651461993	-2.7629661542	 0.4559211695	-0.003347
C	 3.2273864742	-2.7599341099	-0.3651385996	-0.101893
O	 2.9730245536	-3.4954127051	-1.5573197645	-0.421241
H	 2.835089095	 2.3395286297	 1.4663584662	 0.111287
H	 1.6813786238	 2.8300439424	 2.711573824	 0.111436
H	 3.1577307825	 1.9801323432	 3.1667938801	 0.116885
H	 1.1762997784	 0.4170249036	 3.2142983259	 0.089408
H	 0.7915663474	 0.8384324197	 1.5559350418	 0.097735
H	 2.9668140048	-0.136429579	 0.8084329114	 0.064934
H	 3.1776126886	-1.1657371321	 3.6925945351	 0.110823
H	 4.209729134	-1.6734509101	 2.3511619811	 0.114097
H	 4.2789443547	-0.0070713125	 2.9354425239	 0.111792
H	 1.0828868208	-2.0274606156	 2.3246513366	 0.07658
H	-0.1734137267	-2.1479532343	 0.1595971183	 0.108032
H	 1.0500797828	-1.0481356744	-0.6201866534	 0.108757
H	 1.6553639156	-3.7658291878	 0.7378275722	 0.086085
H	 3.5317474698	-1.7285398995	-0.5987342005	 0.082892
H	 4.0492404068	-3.2202099767	 0.2074839041	 0.08341
H	 3.7991438241	-3.5629668498	-2.0454379143	 0.282648
