21
gdb 61558	3.46151	0.84331	0.79744	2.3835	79.9	-0.2303	0.0346	0.2649	1523.9507	0.181371	-420.411253	-420.400825	-420.399881	-420.448185	37.05	
C	-0.0677295106	 1.7696995753	 0.3973947445	-0.390312
C	-0.0746725461	 0.2683766191	 0.0737822634	-0.092396
C	 0.7256103026	-0.5682084173	 1.0905038271	-0.134924
N	 2.1403584139	-0.2090628734	 1.091516862	-0.074907
C	 2.6000694273	 0.6716593878	 2.1635618384	-0.21975
C	 2.9344034135	-0.7769897825	 2.1767374958	-0.223961
C	-1.516888682	-0.2436578572	 0.076348324	 0.40674
N	-1.9477566619	-0.7980330636	-1.0937752774	-0.525534
O	-2.2273335564	-0.172759401	 1.0625444974	-0.378728
H	 0.9538929519	 2.1549580846	 0.4202986737	 0.127416
H	-0.6259974278	 2.3340310714	-0.3564713003	 0.112874
H	-0.5413890776	 1.9470162309	 1.3669431531	 0.13599
H	 0.3800135783	 0.1125696471	-0.9117909783	 0.071982
H	 0.2572362558	-0.4651989927	 2.0833862172	 0.107157
H	 0.6562887962	-1.6265069238	 0.8097960229	 0.102283
H	 3.3468641757	 1.4092848217	 1.8834151116	 0.115456
H	 1.8659733	 1.0183125116	 2.8888148889	 0.11636
H	 2.4227649739	-1.396452858	 2.9119188148	 0.111337
H	 3.9290089028	-1.1197137174	 1.9056212487	 0.115066
H	-1.3759242242	-0.8287756065	-1.9185744547	 0.258961
H	-2.8957111152	-1.1346533961	-1.1437779726	 0.258888
