27
gdb 119903	2.51332	0.85578	0.79111	0.0534	97.32	-0.2487	0.0798	0.3285	1706.4146	0.249736	-353.56339	-353.551648	-353.550704	-353.60024	43.249	
C	 2.1062000097	 0.1003019117	 1.80783956	-0.38184
C	 1.2944906313	-1.1655957413	 1.5219895507	-0.156189
C	 0.0534529782	-0.9029545349	 0.6560441418	-0.199746
C	-0.7228301874	-2.1684039162	 0.3464361191	-0.053383
C	-1.8286014519	-2.7161623159	 1.235485416	-0.045312
C	-2.2798294612	-2.0457398764	 2.516734896	-0.41594
C	-2.1576562466	-2.1912750746	-0.1518435734	 0.296979
C	-2.9346075271	-0.8978829025	-0.3243881023	-0.451251
C	-2.4973080448	-3.2238352785	-1.213348748	-0.445692
H	 2.9873738602	-0.1177501916	 2.4195125196	 0.109562
H	 2.4532400445	 0.5664612351	 0.8786984334	 0.112332
H	 1.5059601867	 0.844392007	 2.343777118	 0.111784
H	 1.9324174725	-1.9052890698	 1.020282172	 0.092747
H	 0.982894244	-1.6279297359	 2.4671003543	 0.098792
H	-0.5778730144	-0.1625647449	 1.159209941	 0.089722
H	 0.3693308044	-0.4323639696	-0.2860737091	 0.090884
H	-0.0887146087	-2.934174972	-0.0996423051	 0.069061
H	-1.8444608938	-3.8019500519	 1.3119714663	 0.072151
H	-2.2315645893	-0.9555917425	 2.4686085817	 0.114658
H	-3.3152223055	-2.3152222944	 2.7550065522	 0.114351
H	-1.6572134375	-2.3619968154	 3.3614408984	 0.115027
H	-2.7029039604	-0.1483583321	 0.4342664398	 0.112588
H	-2.7238846782	-0.4493296939	-1.3026901053	 0.11188
H	-4.0139444667	-1.087539573	-0.2801621782	 0.110535
H	-3.5625304308	-3.4852456976	-1.1861015723	 0.108754
H	-2.276783542	-2.8460158988	-2.2194895318	 0.10883
H	-1.9250634753	-4.1462119999	-1.0721041749	 0.108716
