23
gdb 116461	2.04509	1.58489	1.06235	2.141	82.28	-0.2354	0.0749	0.3103	1248.4296	0.205887	-425.432373	-425.422836	-425.421892	-425.46662	35.936	
C	-0.0262182951	 1.4445059795	-0.0701432593	-0.23428
O	-0.0048305186	 0.0476759011	 0.1014099524	-0.242707
C	-1.2770747899	-0.5784376046	 0.0190542046	 0.124373
C	-1.7244608342	-0.7769556942	-1.4393775956	-0.23911
C	-0.8204917547	-1.8027485772	-2.1345502425	-0.194257
C	-0.7686709038	-3.0878689153	-1.3077780989	-0.063249
O	-0.3366946756	-2.8400474315	 0.0183403961	-0.256368
C	-1.1815267058	-1.943721112	 0.7264207245	 0.128723
C	-0.6464667286	-1.8481618459	 2.1472349619	-0.406018
H	 0.9956890688	 1.8027386314	 0.0784734719	 0.127562
H	-0.3556952225	 1.7458428132	-1.0755272737	 0.105105
H	-0.6834464094	 1.934356389	 0.6659450922	 0.102435
H	-2.0213025344	 0.0312621932	 0.5587378234	 0.055669
H	-2.7634395149	-1.1327116464	-1.4363422705	 0.094232
H	-1.7252282544	 0.1780780979	-1.9748289611	 0.095353
H	-1.1812104985	-2.0222700882	-3.1456237514	 0.08878
H	 0.19268427	-1.3967593471	-2.2208808914	 0.116754
H	-1.7653209045	-3.5660377239	-1.2969124307	 0.077106
H	-0.0587802823	-3.8061939685	-1.7286664868	 0.102984
H	-2.2081479705	-2.3555260091	 0.7452007933	 0.054052
H	 0.3523650292	-1.4086952352	 2.1401395361	 0.140328
H	-1.3006323953	-1.2223547518	 2.7625384349	 0.104741
H	-0.5951352849	-2.8442535744	 2.5938735607	 0.117789
