16
gdb 67750	3.1587	2.08216	1.48171	2.7839	72.34	-0.2286	-0.0093	0.2193	867.6349	0.124333	-400.602569	-400.596045	-400.5951	-400.63291	27.601	
O	-0.0446097115	 1.4786399735	 0.0598442488	-0.482169
C	-0.0186165198	 0.0903856508	 0.0336478666	 0.331005
C	 0.8500316857	-0.6769309551	 1.0803340077	-0.171087
C	 0.6304206958	-1.985697119	 0.8857679076	-0.24959
C	-0.3615374741	-1.9304792608	-0.268015166	 0.250004
C	-1.3248836798	-2.433751611	-1.3549076406	-0.268996
N	-1.4306790135	-0.9105733463	-1.5634354704	-0.193243
C	-1.3179695251	-0.7286030314	-0.02874409	-0.032089
C	 0.0789225815	-0.7992327611	-1.2360603972	-0.074215
H	 0.8532840559	 1.8072779585	-0.0555462994	 0.282034
H	 1.4827942417	-0.1954431484	 1.8142548209	 0.10894
H	 1.0416328583	-2.8382259991	 1.4071746171	 0.116476
H	-0.9021535675	-2.9610712123	-2.2154855742	 0.108487
H	-2.2649159625	-2.8948644834	-1.0368564333	 0.109647
H	-2.2015393974	-0.692505097	 0.6120603753	 0.085171
H	 0.8401851323	-0.8510688679	-2.018624553	 0.079626
