21
gdb 68684	2.60082	1.81273	1.5122	1.2944	82.	-0.2386	0.009	0.2477	993.6224	0.185066	-387.10813	-387.100625	-387.099681	-387.139312	31.672	
C	 0.0414390676	 1.5078828575	 0.0928040033	-0.460456
C	-0.0351185448	-0.0021297848	-0.0262513072	 0.384515
C	 0.6693958662	-0.6237717474	-1.2487654389	-0.234893
C	 0.0981086937	-2.0560330613	-1.1752029985	-0.065328
C	 0.7884487591	-2.7413027452	 0.0307640506	-0.222843
C	 0.5178976898	-1.9395286314	 1.3209376497	-0.059277
O	 0.6050084136	-0.525806594	 1.161484616	-0.309702
C	-1.3586185691	-1.7542134964	-0.8348083768	-0.087581
C	-1.4376696416	-0.5934046494	-0.1832588557	-0.117236
H	 1.0834464262	 1.8310114375	 0.1739002402	 0.121554
H	-0.40694129	 1.9846477946	-0.7839033601	 0.113432
H	-0.4891439997	 1.8490940983	 0.9868337377	 0.119758
H	 0.3582082134	-0.1230286467	-2.1704197615	 0.09185
H	 1.7581464746	-0.574311126	-1.157280758	 0.090879
H	 0.2305831981	-2.6411765719	-2.089136499	 0.061218
H	 0.4286339029	-3.7667142919	 0.1763318066	 0.093111
H	 1.8645117064	-2.7996681075	-0.169171544	 0.100568
H	-0.4759088483	-2.2097947536	 1.7032480303	 0.091895
H	 1.2471659272	-2.1929985643	 2.0961994452	 0.101042
H	-2.176476937	-2.4394824521	-1.0283634272	 0.094849
H	-2.3224969982	-0.1549939138	 0.2635444074	 0.092644
