20
gdb 111534	4.82091	0.91125	0.86068	2.5426	80.19	-0.2333	0.0711	0.3044	1396.8336	0.171281	-403.07908	-403.070639	-403.069695	-403.112285	32.705	
O	-0.0172549814	 1.2030474051	 0.4851044037	-0.420878
C	-0.0386262355	-0.0119189156	-0.2407108287	-0.086047
C	-1.4177027012	-0.6287576326	-0.2300520689	-0.020054
C	-1.5830737169	-2.0857404682	-0.0466109406	-0.138816
N	-1.7871707727	-1.1221436796	 1.1162599971	-0.156289
C	-3.2624453899	-1.4351676802	 1.0638154483	-0.250214
C	-3.0436482414	-2.4667214579	-0.0493402443	 0.374099
C	-3.916198687	-2.8568682816	-1.2058981313	-0.32608
C	-3.6045690944	-3.853007716	-0.1097040444	-0.335331
H	-0.3834397345	 0.9903656263	 1.3523384792	 0.291222
H	 0.2653260304	 0.2277428961	-1.2650773486	 0.108396
H	 0.6864410713	-0.735563926	 0.164144827	 0.088312
H	-2.1777697387	-0.0809981403	-0.7869351992	 0.09036
H	-0.7475934188	-2.7803349816	-0.0707659566	 0.096176
H	-3.5874091699	-1.867806271	 2.0134821183	 0.114616
H	-3.8833169032	-0.5627238597	 0.8299723761	 0.106017
H	-4.9182969421	-2.4422230719	-1.2474150984	 0.115868
H	-3.451428534	-2.9987859973	-2.17626383	 0.116034
H	-2.9262931542	-4.6687273489	-0.3400849841	 0.116804
H	-4.3946644259	-4.1156395991	 0.5870622153	 0.115805
