12
gdb 132171	3.27207	1.42563	0.99326	6.4967	60.32	-0.2505	-0.0364	0.2141	1055.5089	0.077574	-513.955298	-513.947896	-513.946952	-513.987295	27.46	
N	 0.0568731402	 1.3294378419	 0.1124730615	-0.557429
C	-0.0316041525	-0.0184035113	 0.0389031414	 0.50163
N	-1.1592695884	-0.6353995411	 0.021009286	-0.390174
C	-1.1977911609	-2.0300841828	-0.0045721809	 0.305178
O	-2.2251379339	-2.6688722761	-0.0180306985	-0.345823
C	 0.1353835899	-2.6741592619	-0.0202269175	 0.098962
F	 0.1888777926	-3.9971258186	-0.0486118535	-0.047263
C	 1.2552153828	-1.9475104184	-0.0109457803	-0.076005
O	 1.208091918	-0.5802326499	 0.0196356691	-0.211562
H	 0.9337339197	 1.7750489157	-0.0948075769	 0.276613
H	-0.795395391	 1.8432525462	-0.0308867002	 0.287545
H	 2.2644146536	-2.3337300138	-0.0246529702	 0.158328
