16
gdb 9946	3.38729	1.44728	1.38438	4.2644	62.93	-0.2428	-0.0187	0.224	955.6644	0.127667	-420.861148	-420.852432	-420.851488	-420.894248	31.384	
C	-0.0528640281	 1.5518919531	 0.1016123777	-0.492422
C	-0.0359004785	 0.038146932	 0.092879286	 0.157158
C	-1.2869341716	-0.6523695309	-0.3030322285	 0.114763
O	-2.2965780155	-0.1078352168	-0.6784266997	-0.267839
C	 1.2693168518	-0.7068687956	-0.3377169247	 0.059544
O	 2.3798489529	 0.0427894651	-0.6778770956	-0.417387
C	 0.8365122234	-0.729727172	 1.0863743786	-0.018867
O	 1.566338831	 0.087842075	 1.9623546127	-0.421856
H	-0.099515905	 1.9499765732	 1.1184034744	 0.133449
H	 0.8373214301	 1.9573832027	-0.3859506676	 0.127431
H	-0.9364836382	 1.88885919	-0.4441189724	 0.150525
H	-1.2326706926	-1.7662488915	-0.2473807466	 0.061034
H	 1.164318526	-1.591790952	-0.9569214246	 0.116381
H	 2.6582443329	 0.4988883307	 0.1296399429	 0.292656
H	 0.4318278701	-1.6394422051	 1.5269503224	 0.102391
H	 2.2148101912	-0.4654741779	 2.4120847449	 0.303038
