19
gdb 82119	3.2199	1.17355	0.99121	1.6854	80.03	-0.2505	0.0557	0.3061	1226.4257	0.157331	-385.818461	-385.80956	-385.808616	-385.852095	33.783	
C	-0.1498278632	 1.5422685779	-0.142674003	-0.416928
C	 0.0071845712	 0.0312962741	-0.0389290799	-0.018303
C	 1.0770613156	-0.6224673928	-0.9291324877	 0.02248
O	 2.3528346295	-0.1255681115	-0.4989001282	-0.249509
C	 1.7657143488	-1.2152726619	 0.2257154578	-0.003045
C	 0.750361731	-0.6175557268	 1.2093299301	-0.033781
C	 1.32549522	 0.2759921484	 2.3167782589	-0.362438
C	 0.3016325268	 0.8669894611	 3.171046533	 0.298039
C	-0.5605868724	 1.330526907	 3.869385925	-0.450448
H	 0.8248620458	 2.0372158889	-0.130630251	 0.130911
H	-0.6501031727	 1.8109966635	-1.0796049218	 0.111132
H	-0.7462081321	 1.9356262506	 0.6850282028	 0.133237
H	-0.959098261	-0.4646593899	-0.1730650587	 0.079299
H	 1.0048100864	-0.9628148294	-1.9560576488	 0.101643
H	 2.3538830466	-2.1220363047	 0.314261747	 0.101567
H	 0.1233487098	-1.3962212106	 1.6522939777	 0.087802
H	 2.0051705114	-0.3259294728	 2.9353654404	 0.127783
H	 1.9409926803	 1.0602104404	 1.863621779	 0.146611
H	-1.3104466317	 1.7506878783	 4.4925678074	 0.193949
