14
gdb 21256	5.51625	1.38477	1.11476	2.3729	59.87	-0.2079	0.0473	0.2552	1002.8103	0.108029	-415.869018	-415.861433	-415.860489	-415.900927	27.443	
C	-0.5848482777	 0.7181942914	 0.2525226237	-0.249363
O	 0.6443658252	 0.8123281923	-0.4569085536	-0.258417
C	 0.9286392725	-0.2320097126	-1.2496444206	 0.512143
C	 0.2768252111	-1.4162509913	-1.5424963606	-0.463176
C	 1.1567640451	-2.041622245	-2.4585327902	 0.434405
O	 0.9402790035	-3.2434842322	-3.0324758043	-0.429769
N	 2.2426318854	-1.3368105143	-2.7183221277	-0.340189
N	 2.0803130241	-0.2102399323	-1.953270579	-0.301756
H	-1.4315971406	 0.6483664484	-0.4402430866	 0.134927
H	-0.5874222675	-0.154531608	 0.9159374888	 0.134949
H	-0.6678447552	 1.6302443944	 0.8442152578	 0.141497
H	-0.6645210287	-1.7788451423	-1.171005668	 0.110327
H	 1.6973161168	-3.417761969	-3.6062514562	 0.30107
H	 2.7767647659	 0.5130365206	-1.9591371435	 0.273353
