18
gdb 56034	4.16211	0.9627	0.81611	4.8937	68.92	-0.2389	0.0345	0.2734	1370.4016	0.148156	-476.258541	-476.249589	-476.248644	-476.29406	31.86	
N	 0.605092005	 0.1461924538	 0.7571337534	-0.507016
C	 0.0046213754	 0.0430195519	-0.4619951122	 0.359794
O	 0.356528871	 0.682074624	-1.4343087123	-0.358416
C	-1.1966931834	-0.908215209	-0.5063380466	-0.315142
C	-0.9209954088	-2.3157167197	 0.0013569748	 0.207788
O	-0.6325017344	-2.3232270745	 1.4059965901	-0.279374
C	-1.3682398824	-3.3858628701	 2.0120102489	-0.09215
C	-1.9661361415	-4.1315543268	 0.8113434717	-0.109037
O	-2.0670823653	-3.1098860198	-0.1684506805	-0.243785
H	 1.4408861065	 0.7043704356	 0.8183502941	 0.255383
H	 0.384032884	-0.5074407671	 1.4921994309	 0.271298
H	-2.0178017043	-0.4928837002	 0.0879717853	 0.127493
H	-1.5168009885	-0.9665262683	-1.5475216669	 0.140873
H	-0.0614544513	-2.7686357594	-0.5241824878	 0.082013
H	-0.6959164902	-4.0080509449	 2.6114200382	 0.114077
H	-2.1463997404	-2.9698638275	 2.6632300515	 0.113653
H	-1.2997193458	-4.938088179	 0.4710413637	 0.106481
H	-2.9617938357	-4.540226059	 0.9922167736	 0.126067
