18
gdb 66364	2.31922	1.54029	1.42103	3.2143	71.65	-0.2831	0.023	0.3061	1041.2601	0.147729	-439.106012	-439.097605	-439.096661	-439.138654	32.028	
C	 0.047581533	 1.4972265262	 0.0096495464	-0.423576
C	 0.0146419084	-0.0237991008	 0.0018099947	 0.28912
O	 0.6440558579	-0.4568375253	-1.1756703553	-0.260772
C	 0.810242857	-1.8766350554	-1.2555466371	-0.09703
C	 1.5555932336	-2.3912159679	-0.0256672987	-0.210228
C	 0.8340384304	-1.8899174269	 1.2237344653	-0.09703
O	 0.6664928403	-0.4693631962	 1.1622848182	-0.26077
C	-1.4091668576	-0.5132966449	 0.0128564793	 0.266358
N	-2.5025651247	-0.887105461	 0.0213428242	-0.353073
H	 1.0927490133	 1.8120045142	 0.001262937	 0.142245
H	-0.4585025479	 1.8851457797	-0.8757619997	 0.145369
H	-0.4413017643	 1.8755736466	 0.9087624147	 0.145369
H	-0.1738421384	-2.3601264413	-1.3439450262	 0.12018
H	 1.3635251005	-2.0545437292	-2.1798332149	 0.122143
H	 1.594518673	-3.4856105653	-0.0319031695	 0.110272
H	 2.5819136172	-2.0100164912	-0.0334772368	 0.119099
H	-0.1482173866	-2.3744311407	 1.3258221855	 0.12018
H	 1.4049432348	-2.0776597908	 2.1352709531	 0.122142
