19
gdb 108035	3.4572	1.38176	1.32131	1.3643	79.67	-0.2193	0.0033	0.2226	1063.1697	0.159666	-385.853563	-385.845915	-385.844971	-385.885679	30.583	
C	-0.0593030864	 1.4935248041	-0.1602444737	-0.373517
C	-0.0528923524	-0.0073742371	 0.1605827633	-0.300447
C	-1.4210185756	-0.6072408197	 0.0915800941	 0.502914
O	-2.400034765	-0.1246978667	 0.985607904	-0.336848
C	-3.2034277838	-1.3627145729	 0.7397045809	 0.044017
C	-4.1971335301	-0.9798384203	-0.3250879378	-0.107524
C	-3.5105940366	-0.7758121641	-1.4600661479	-0.057668
C	-2.0878010034	-1.1290901619	-1.256217456	-0.174546
C	-1.9860132719	-1.9785851377	-0.0057499419	-0.241827
H	 0.9445595218	 1.9169380345	-0.0642486668	 0.110078
H	-0.4110633433	 1.6735417962	-1.180847523	 0.11857
H	-0.7247565725	 2.0290264579	 0.5222262629	 0.139607
H	 0.5989686793	-0.5451029629	-0.5378809536	 0.102559
H	 0.3544475974	-0.1709870166	 1.1662008609	 0.110061
H	-3.5551419697	-1.7797501361	 1.6816420744	 0.081544
H	-5.2283884696	-0.7190284735	-0.1286259298	 0.100807
H	-3.8934643125	-0.3307895696	-2.3704890227	 0.101131
H	-1.4060148578	-1.302228823	-2.0803011533	 0.084227
H	-1.5624596178	-2.9725695405	 0.072241086	 0.096862
