21
gdb 69544	2.5914	1.55471	1.35745	1.8521	81.98	-0.2366	0.0692	0.3058	1084.816	0.181984	-387.040372	-387.031927	-387.030982	-387.072709	33.667	
C	-0.0115821156	 1.546938585	 0.013903445	-0.506867
C	 0.0316630247	 0.0452550792	 0.003315172	 0.363002
C	-0.8625190229	-0.8264734505	 0.8333590225	-0.353056
C	 0.6271104785	-0.9590281971	 1.0124437772	-0.171989
C	 1.3146163268	-1.7517702527	-0.1300713763	 0.321754
C	 2.8103978509	-1.9239785904	-0.003532076	-0.496081
C	 0.4795465407	-2.8495823562	-0.8308389514	-0.150169
O	-0.1633227938	-1.8689583077	-1.6874024258	-0.300813
C	 0.6472897711	-0.7989417958	-1.1420884681	 0.001114
H	 0.9460910027	 1.9823880493	-0.2943211175	 0.114691
H	-0.7825600935	 1.9261885647	-0.6681096561	 0.124541
H	-0.2414127182	 1.9262656341	 1.0151862767	 0.117766
H	-1.3657328707	-0.311376912	 1.6463255393	 0.106478
H	-1.4557370507	-1.6047459706	 0.3657929881	 0.127392
H	 1.099970486	-0.7604800458	 1.9686252394	 0.080771
H	 3.0588576683	-2.6457097396	 0.7841100987	 0.120017
H	 3.2508974443	-2.2836856676	-0.9394222132	 0.118569
H	 3.2947150173	-0.9762168502	 0.2566270947	 0.11972
H	 1.0770958354	-3.5561422067	-1.4215735402	 0.095603
H	-0.2400022838	-3.4076614062	-0.2204721494	 0.099861
H	 1.1947602124	-0.2445369932	-1.9107027396	 0.067696
