21
gdb 1814	3.69457	1.98643	1.87657	0.0705	73.84	-0.2713	0.0812	0.3525	847.1208	0.193309	-274.982053	-274.97348	-274.972535	-275.014341	32.783	
C	 0.0806598227	 1.5615755804	 0.2206813143	-0.419771
C	 0.0512698934	 0.0326436733	 0.0514057872	 0.250568
C	 0.6350489165	-0.6217280616	 1.3192424839	-0.395564
C	-1.4103422468	-0.4217269605	-0.1320251362	-0.395572
C	 0.8589899515	-0.4573914123	-1.1545154942	 0.048422
C	 0.9377172271	 0.2643654027	-2.4758249517	-0.28583
C	 2.1663606596	 0.1440715843	-1.6039727879	-0.28583
H	 1.0963755282	 1.9374149592	 0.3779574217	 0.112188
H	-0.3453406194	 2.078362035	-0.644837733	 0.11219
H	-0.5116808899	 1.850099557	 1.0953997854	 0.1105
H	 0.0654632183	-0.3334998855	 2.2098118189	 0.103888
H	 0.6097699248	-1.7146933596	 1.2466959149	 0.105304
H	 1.6769428552	-0.3215902839	 1.4720003886	 0.111206
H	-1.8501677724	 0.0232418463	-1.030645166	 0.111207
H	-1.475441732	-1.5108055542	-0.2327484082	 0.105305
H	-2.0250418875	-0.129026786	 0.7265130651	 0.103889
H	 0.8165838243	-1.5416474439	-1.2443556893	 0.07464
H	 0.8875295296	-0.3240330515	-3.3856230587	 0.106731
H	 0.482830486	 1.2447727382	-2.5627739319	 0.109899
H	 2.521153182	 1.0452046186	-1.1163618009	 0.109899
H	 2.9596971087	-0.5269108758	-1.9152022222	 0.106731
