14
gdb 26796	3.81805	1.11311	0.8664	6.0747	77.84	-0.204	-0.0256	0.1784	1241.4884	0.102424	-432.902935	-432.89467	-432.893726	-432.935682	30.533	
N	 0.1495518137	 1.3276396019	 0.1036738138	-0.598788
C	-0.0116361958	-0.0296709292	 0.0310504198	 0.385144
C	-1.1567872456	-0.7961625115	 0.0212261245	 0.125155
N	-2.4592721631	-0.2277240941	-0.0052678378	-0.621853
C	-0.7058698069	-2.1480416011	 0.0207853198	-0.348249
C	 0.6611982969	-2.1151633857	 0.0218322231	 0.244603
O	 1.0909373623	-0.7947633717	 0.0394463099	-0.203812
C	 1.6405088695	-3.1193980194	 0.0007110313	 0.211237
N	 2.4349319396	-3.9657651364	-0.0168159935	-0.352394
H	 0.977695881	 1.6885791813	-0.3490403011	 0.266797
H	-0.6978813184	 1.8205871388	-0.1458089925	 0.271421
H	-2.9329326165	-0.319264807	 0.8886277809	 0.246791
H	-3.0478222508	-0.6727769186	-0.7015766579	 0.244566
H	-1.3114399958	-3.0413565972	 0.0082860199	 0.129383
