17
gdb 97833	4.00316	0.68162	0.61647	2.3133	80.02	-0.2386	-0.0272	0.2114	1780.0842	0.133857	-421.795798	-421.786261	-421.785317	-421.832609	33.096	
O	 0.1077906453	 1.483980829	 0.7350300756	-0.401197
C	 0.0955156256	 0.2554837662	 0.021076314	-0.196852
C	-1.240348305	-0.3192021294	-0.1328595822	 0.113354
C	-2.3528435414	-0.7778985476	-0.2077363348	 0.02683
C	-3.6639590275	-1.3687732159	-0.3256634786	-0.286862
C	-4.2715310635	-1.6845812063	-1.7397941475	-0.237638
C	-4.7302311246	-3.0871723101	-1.2466171095	-0.34149
C	-3.8500565756	-2.8876252771	-0.0039502367	 0.398306
O	-3.3972474441	-3.6107354004	 0.8279936524	-0.278315
H	-0.3489883382	 1.3352503723	 1.5695842332	 0.288195
H	 0.5239871312	 0.4794711364	-0.9622974814	 0.140181
H	 0.7572872814	-0.4890888762	 0.4919192795	 0.122403
H	-4.3940106125	-0.8133731596	 0.278821294	 0.131551
H	-5.0534245516	-1.0037718976	-2.0754130997	 0.117927
H	-3.493073943	-1.7445028263	-2.5012565958	 0.128525
H	-5.7915840577	-3.1352897953	-0.9814916874	 0.137291
H	-4.4875088989	-3.9554574221	-1.8630546253	 0.137792
