17
gdb 49074	2.48937	1.6531	1.31751	2.341	68.03	-0.2481	-0.0419	0.2062	1004.2357	0.136105	-458.952568	-458.944856	-458.943912	-458.985149	28.664	
O	-0.8005257819	 1.3612684392	 0.6383682138	-0.256813
C	 0.1536860121	 0.9757208565	 0.0112706954	 0.085507
C	 1.4394517264	 1.7544837822	-0.1297431577	 0.330559
C	 1.9241131027	 2.455039455	 1.1449484335	-0.139469
O	 2.6757795084	 3.578282934	 0.7031784009	-0.251116
C	 1.9851548353	 4.105567773	-0.4202284342	-0.096335
C	 1.5121946014	 2.8855261179	-1.2116159011	-0.146604
C	 2.613128278	 1.9992123654	-1.8291024982	-0.087295
O	 2.4611637834	 0.9951199728	-0.8005498384	-0.328428
H	 0.1611379445	 0.0071107178	-0.5351341474	 0.097389
H	 1.0476893338	 2.7609287412	 1.7349887001	 0.116746
H	 2.5775244713	 1.8200258457	 1.746715583	 0.127906
H	 1.1198623196	 4.7107470838	-0.1064207003	 0.105133
H	 2.6794989951	 4.7453313122	-0.9726328799	 0.117613
H	 0.6304381433	 3.0654369375	-1.8258814907	 0.099789
H	 2.392818359	 1.5941897654	-2.8231108273	 0.109376
H	 3.6179766576	 2.4364041103	-1.8249270312	 0.116042
