18
gdb 72963	2.60547	1.52767	1.20265	4.366	77.25	-0.228	0.0205	0.2485	1076.6926	0.147978	-398.086675	-398.077788	-398.076844	-398.119732	33.547	
C	-0.030971012	 1.6064194132	-0.005082921	-0.508188
C	 0.0023780273	 0.1079053198	 0.0667512178	 0.27371
C	-1.2396789188	-0.7949376397	 0.0265527441	-0.238614
N	-0.5576667217	-1.818490652	 0.8951517846	-0.354547
C	 0.5756475264	-0.8940662373	 1.0623977288	-0.113441
C	 1.2060849213	-0.759046698	-0.3249032553	 0.155299
N	 1.1039967659	-1.7988776069	-1.3299099633	-0.589438
C	 2.4629648938	-0.0543506419	-0.3331086012	 0.238741
N	 3.4781411325	 0.5013723658	-0.3357038365	-0.348847
H	 0.9526520699	 2.0384312635	 0.1969978802	 0.150242
H	-0.3402382782	 1.939379316	-1.0027126311	 0.134395
H	-0.7399595349	 2.0183665581	 0.721576369	 0.11902
H	-2.08883073	-0.319275958	 0.5259798898	 0.115032
H	-1.55471186	-1.177043182	-0.9491596134	 0.125281
H	-1.0572985565	-1.964589956	 1.764528156	 0.234382
H	 1.1259478118	-0.7880356945	 1.9906126803	 0.110992
H	 2.0230313174	-2.1978692794	-1.4949919483	 0.2411
H	 0.5304223461	-2.5415005205	-0.9285310106	 0.254881
