20
gdb 79190	2.54375	1.92817	1.34388	2.124	78.	-0.1985	0.0745	0.273	1012.6078	0.171434	-403.093118	-403.085324	-403.08438	-403.125013	31.303	
C	-0.0273039593	 1.5349015447	 0.0014996041	-0.394708
C	 0.0334993082	 0.0110737276	-0.0188592138	 0.067036
C	 0.8380485566	-0.5649040584	-1.1863302192	 0.055109
O	 2.2230010141	-0.105332111	-1.0474983862	-0.30054
C	 2.5402558253	-1.3464443177	-0.4196449503	 0.07752
C	 1.2285123436	-2.0004290629	-0.7625073971	-0.19555
C	 1.5390259405	-1.6501970168	 0.678344667	-0.020577
N	 0.7409411518	-0.538202383	 1.1647443038	-0.074842
C	-0.1444701708	-0.8878561252	 2.2620804645	-0.330774
H	 0.9856384021	 1.9418068592	-0.0272719986	 0.142435
H	-0.5908097711	 1.9136013551	-0.8583902054	 0.104369
H	-0.5217323939	 1.8942212298	 0.9089703823	 0.112845
H	-0.9896383131	-0.4067087854	-0.0788415232	 0.054493
H	 0.4400060175	-0.3695527858	-2.1826538768	 0.082059
H	 3.5678263568	-1.689991349	-0.4562647963	 0.101785
H	 0.9568512462	-2.9464827736	-1.210136268	 0.094996
H	 1.7901853824	-2.4232659514	 1.3952339658	 0.093916
H	 0.4413604224	-1.2302975844	 3.1209440059	 0.118897
H	-0.7016671047	-0.0001498517	 2.5779413966	 0.12115
H	-0.8792118646	-1.67553575	 2.0077920249	 0.090383
