19
gdb 66683	2.50469	1.96792	1.62532	1.2449	78.37	-0.2273	0.0772	0.3045	932.5765	0.159525	-385.818066	-385.81061	-385.809665	-385.849346	30.796	
C	-0.0693309396	 1.429558535	-0.0141475768	-0.515823
C	 0.0043370664	-0.0645227886	 0.0498941648	 0.311585
C	 0.1713995575	-1.0829618793	-1.0782442604	-0.260006
C	 0.5717925338	-2.1001428724	 0.0296042631	-0.044399
C	 0.6860952069	-0.9636887961	 1.114420895	-0.103127
C	-0.4454195175	-1.6249671165	 1.9427713455	-0.256229
C	-0.9077503587	-2.1885690908	 0.5760119046	-0.121963
C	-1.1559491673	-0.9719857383	-0.3480410269	 0.350948
O	-2.3549167011	-0.4178857813	-0.7442018771	-0.465628
H	 0.9200231449	 1.8786836237	-0.1555633647	 0.113406
H	-0.7109208596	 1.7476302588	-0.8414329665	 0.129536
H	-0.4954813166	 1.8422730035	 0.9082312006	 0.119464
H	 0.4496128812	-0.9533216601	-2.1163429511	 0.084431
H	 1.2408254945	-2.9518947437	-0.0620028229	 0.066827
H	 1.6265908442	-0.6316392188	 1.5551176572	 0.05904
H	-0.0594068599	-2.4112709363	 2.5995519222	 0.093726
H	-1.1348579046	-0.9813840196	 2.4989179565	 0.094672
H	-1.5404932453	-3.0707148952	 0.4712869482	 0.056851
H	-2.7487910991	-0.9914951041	-1.4102501615	 0.286689
