18
gdb 62546	2.3265	1.41004	1.17217	3.7274	73.29	-0.2514	-0.0409	0.2106	1129.5781	0.145048	-439.122157	-439.11262	-439.111676	-439.156566	34.282	
C	-0.0674520171	 1.5522382045	 0.0077566611	-0.445859
C	-0.0590301673	 0.0260973119	-0.0042500147	 0.111531
C	-1.4357959233	-0.5646834953	 0.2967957637	-0.451422
C	 0.7484028566	-0.6208360304	-1.2121704275	-0.092642
N	 1.7428411953	-1.0548222835	-0.241326386	-0.333949
C	 1.0632347321	-0.6069036354	 0.8689803661	 0.434528
O	 1.2671766151	-0.6934132772	 2.0484912179	-0.361058
C	 0.0643432488	-1.7208735069	-1.9832889196	 0.151651
O	 0.3042477417	-2.8935065794	-1.8477144549	-0.249167
H	 0.9232409446	 1.9615614927	-0.2121012624	 0.128041
H	-0.7752487039	 1.948238467	-0.7285738581	 0.119561
H	-0.3697391501	 1.9145336412	 0.9952141972	 0.141125
H	-2.1903721559	-0.1970206906	-0.4067815076	 0.11914
H	-1.4304156789	-1.6579372502	 0.259711705	 0.140809
H	-1.7410943728	-0.2696240684	 1.304955762	 0.143294
H	 1.1117426601	 0.1293767852	-1.9287461005	 0.099925
H	 2.4304314551	-1.7896778387	-0.327354239	 0.260821
H	-0.6896548301	-1.3612974063	-2.7194842927	 0.08367
