13
gdb 3124	5.54947	2.27223	1.85868	2.5431	55.79	-0.25	-0.0287	0.2213	670.5929	0.101207	-344.416076	-344.409974	-344.409029	-344.446067	22.28	
O	-0.1115507958	-0.0177254071	 0.0431747826	-0.270299
C	-0.0253777763	 1.1878044916	-0.0069175965	 0.058797
C	 1.2395278436	 1.9215362496	 0.0193734308	 0.182876
C	 1.366343721	 3.4089041915	 0.3391919426	-0.349883
C	 1.8019629034	 2.9463223156	-0.9962401595	 0.080028
O	 3.0879575219	 2.3555390913	-0.9784527367	-0.274278
C	 2.6299572012	 1.3068799279	-0.0724083146	-0.138057
H	-0.9315039658	 1.8312398301	-0.0871087136	 0.068044
H	 0.4180036577	 3.9382089805	 0.3665694472	 0.131056
H	 2.1023267949	 3.7296306434	 1.0707749547	 0.132229
H	 1.4037337496	 3.2865342338	-1.9454708019	 0.124579
H	 3.226377291	 1.2621792834	 0.8444835494	 0.117131
H	 2.6283506138	 0.3364943284	-0.5754169644	 0.137779
