24
gdb 105251	2.04628	1.38066	1.04417	1.0627	90.21	-0.2219	0.0844	0.3063	1319.4809	0.215999	-368.368258	-368.358168	-368.357224	-368.402981	38.523	
C	-1.5088475963	 0.5339118408	-0.3219966416	-0.371437
C	-1.264027026	-0.611166248	-1.3168630931	-0.286252
C	 0.1468902111	-0.6582875371	-1.899657941	 0.363302
C	 1.3254097299	-0.7866921752	-0.9568508111	-0.329877
C	 0.9719339582	-1.9314705849	-1.8762567825	-0.023234
C	 0.4792112889	-3.2552946899	-1.336771785	-0.417802
N	 0.4597988108	 0.1381850277	-3.078273274	-0.110294
C	-0.344071779	-0.004604001	-4.284318319	-0.231599
C	-0.3609960689	 1.2637058184	-3.5012728405	-0.23147
H	-0.8700902724	 0.4284214393	 0.5601355626	 0.11766
H	-1.2948932763	 1.5133056662	-0.7589445357	 0.119952
H	-2.5496957093	 0.5378377496	 0.0179086393	 0.108349
H	-1.4814353772	-1.5581583696	-0.813723542	 0.099692
H	-1.9945290269	-0.5511904988	-2.1341917691	 0.096635
H	 2.20371257	-0.1928329701	-1.1800910473	 0.112914
H	 1.1143957956	-0.914456109	 0.100912206	 0.101466
H	 1.6155403191	-2.0222052021	-2.7468589848	 0.089417
H	-0.08674102	-3.1403539679	-0.4074860397	 0.114966
H	-0.1624868214	-3.7751197162	-2.0576651575	 0.113544
H	 1.326819891	-3.9133245494	-1.1148820143	 0.117313
H	 0.2121015322	-0.0781688291	-5.2152965954	 0.111864
H	-1.2426127184	-0.6187744611	-4.2459281425	 0.109419
H	-1.2782767665	 1.4907170941	-2.965194429	 0.112641
H	 0.1855733118	 2.1380797833	-3.8459562727	 0.112833
