17
gdb 99832	1.86493	1.5697	1.22908	2.6197	70.81	-0.241	0.0045	0.2455	1109.8397	0.134728	-455.132593	-455.122816	-455.121871	-455.166898	36.624	
N	 0.3350391811	 0.8211529034	 0.8548777416	-0.505088
C	-0.0071176363	 0.0675438087	-0.2106292845	 0.406555
O	 0.6286429715	 0.0041996698	-1.249751046	-0.392585
C	-1.3248375159	-0.7516931736	-0.0018518732	-0.078477
N	-2.2831896014	 0.1061166345	 0.7244977851	-0.556587
C	-1.8351720274	-1.1728381293	-1.4056669929	-0.096336
O	-2.0964082695	-0.0313193501	-2.1960822897	-0.432683
C	-1.0240658336	-1.9412936339	 0.7899633271	 0.370054
C	-0.8013544421	-2.9480698971	 1.4073633495	-0.470844
H	 1.1285295249	 1.4358451898	 0.778560426	 0.263068
H	-0.3549287905	 0.9598064047	 1.5772618561	 0.276953
H	-2.6918134568	 0.7379551451	 0.036595431	 0.245753
H	-3.038422323	-0.4706332031	 1.0839167699	 0.23892
H	-1.1045840828	-1.8395340399	-1.8753647814	 0.121129
H	-2.7792646251	-1.7127240181	-1.2849856746	 0.106157
H	-1.2261270514	 0.3054852295	-2.4485932242	 0.299953
H	-0.5919066617	-3.8312535005	 1.9592356802	 0.204058
