20
gdb 111818	2.37615	1.48407	1.06222	1.7939	78.92	-0.2272	-0.0253	0.2019	1196.4878	0.170705	-403.121961	-403.113182	-403.112238	-403.156149	32.533	
C	-0.1242618164	 1.5043816292	 0.1373598023	-0.3821
C	 0.004217995	-0.0222959611	 0.1066561087	-0.206309
C	 0.7305737582	-0.5348511543	-1.1289083322	-0.073523
N	 2.1835813828	-0.2029538018	-1.3892076358	-0.150904
C	 3.0869562766	-0.3040374477	-0.188877875	-0.172273
C	 3.5640777808	-1.7220813912	-0.5985442856	-0.250541
C	 2.4919719744	-1.6570264053	-1.7087123947	-0.095109
C	 1.0644130143	-2.0333028902	-1.2711616875	 0.358285
O	 0.4873872566	-3.057624779	-1.0529421419	-0.297678
H	 0.8579046972	 1.986863373	 0.1430529133	 0.130802
H	-0.6648312406	 1.8706616664	-0.7418132347	 0.120982
H	-0.6674611999	 1.8335196867	 1.0282466127	 0.116432
H	 0.4955489463	-0.3797901739	 1.0184013788	 0.10547
H	-0.9890880783	-0.4865229916	 0.1058860892	 0.121115
H	 0.1723793955	-0.2156978996	-2.0219851923	 0.110607
H	 3.8571034459	 0.4714535001	-0.2036130085	 0.113894
H	 2.5745081332	-0.2553588775	 0.7761958946	 0.107936
H	 4.5834667779	-1.7519558456	-0.9870233915	 0.119061
H	 3.4435337423	-2.5211379387	 0.135651188	 0.121815
H	 2.7720926681	-1.9227093879	-2.7318043378	 0.102038
