18
gdb 106224	3.4252	1.4746	1.28411	2.4597	75.67	-0.2324	0.	0.2324	1020.7408	0.14933	-401.89502	-401.88774	-401.886796	-401.926818	29.334	
O	 0.0285023557	 1.2703732698	-0.3725884265	-0.422927
C	 0.0267203905	-0.0238483731	 0.2035124304	-0.154249
C	-1.3688288921	-0.5817383107	 0.2898072431	 0.306864
C	-2.3737781994	-0.0699981802	 1.2575607902	-0.149668
C	-3.4061764703	-0.9200646668	 1.3253401829	-0.096671
C	-3.2214874618	-1.9899249843	 0.2783256778	-0.132219
C	-3.3148483831	-1.24531082	-1.1040019955	-0.144186
N	-1.848561463	-0.9889815436	-1.1305211253	-0.207098
C	-1.6934202895	-1.9878635305	-0.0243698156	-0.099103
H	-0.4159612452	 1.1740334635	-1.2236795131	 0.291281
H	 0.6625702519	-0.7196813829	-0.3642834334	 0.091924
H	 0.4545694832	 0.0819434642	 1.206250617	 0.109179
H	-2.2657880639	 0.877793165	 1.7684534667	 0.111542
H	-4.3263333274	-0.7777668353	 1.8788887171	 0.103818
H	-3.7677221733	-2.9233676416	 0.3975319882	 0.078097
H	-3.5381143289	-1.9324774679	-1.9236329894	 0.116124
H	-3.9601706387	-0.362913827	-1.1610418844	 0.103057
H	-1.0015622546	-2.8241483686	-0.0686240202	 0.094234
