17
gdb 83328	2.26424	1.74102	1.46991	1.5579	67.37	-0.2344	-0.02	0.2144	968.0558	0.135946	-458.959799	-458.951662	-458.950718	-458.992034	31.444	
O	 0.1000560629	 1.4402409916	 0.0708856228	-0.434918
C	-0.0238707222	 0.0458651356	 0.0240892894	 0.075317
C	 0.1217644987	-0.6810375746	 1.3940717579	-0.1878
C	-0.9384744605	 0.0574048934	 2.2514218141	-0.222737
C	-2.1216388072	 0.1369850567	 1.2263677034	-0.247496
C	-1.4829614232	-0.5934128612	 0.0306890795	 0.250143
O	-2.2694247457	-0.7474671756	-1.0958140117	-0.487157
C	-0.7521905184	-1.7492381298	 0.7162456076	 0.358594
O	-0.7431189319	-2.9377240856	 0.5641841245	-0.333602
H	-0.2578561381	 1.7977954358	-0.7490427403	 0.295298
H	 0.6070797574	-0.4028432239	-0.7541642444	 0.082656
H	 1.0899204686	-0.9100124799	 1.8302782473	 0.092647
H	-1.1959158886	-0.5055449741	 3.1513995898	 0.110776
H	-0.5855043057	 1.0464375788	 2.5441957999	 0.127476
H	-3.0269901586	-0.3724789957	 1.5633334986	 0.112972
H	-2.3743801913	 1.1665843121	 0.9659663944	 0.111961
H	-2.0645093762	-1.6065199537	-1.4850593728	 0.295869
