20
gdb 13208	3.92829	1.23773	1.01598	0.9109	71.17	-0.2431	0.0749	0.318	1185.0496	0.17617	-386.118679	-386.109544	-386.1086	-386.152798	32.618	
C	 0.0623343169	 1.6079078149	 0.0667047274	-0.403486
C	-0.0352412644	 0.0780156281	 0.0206300022	 0.014104
C	 0.7380879475	-0.5739026201	 1.1673346075	-0.08484
O	 2.1086509787	-0.2184100037	 1.0347190724	-0.426963
C	-1.4884031715	-0.3770399397	 0.0440289891	 0.158806
C	-2.3487290662	-0.1464455231	-1.2192914381	-0.296569
C	-2.54372098	-1.6750373621	-1.1906305424	-0.064437
O	-1.6334218171	-1.8156635829	-0.0810778304	-0.298165
H	 1.1090498654	 1.9177772231	 0.0743894169	 0.139495
H	-0.428577402	 2.0680177646	-0.7969190699	 0.109619
H	-0.4127579766	 2.0038218273	 0.972628251	 0.108668
H	 0.4140858939	-0.2826564354	-0.9144793794	 0.079756
H	 0.329601129	-0.2240598751	 2.1312715552	 0.076991
H	 0.5998460304	-1.6625133667	 1.120213683	 0.109354
H	 2.6013039521	-0.664540434	 1.7290965073	 0.286121
H	-1.9720012871	-0.0266194361	 0.9695201496	 0.067291
H	-3.2468362673	 0.4591231496	-1.0918594428	 0.109277
H	-1.7840028406	 0.2233555982	-2.077857696	 0.111064
H	-3.5569301903	-2.0081188909	-0.9307038074	 0.099484
H	-2.2053716208	-2.2313463562	-2.0724956452	 0.104428
