20
gdb 120413	3.22217	0.91827	0.78519	3.096	77.88	-0.2586	0.0289	0.2874	1510.3695	0.169373	-440.27543	-440.265606	-440.264661	-440.310915	34.764	
C	-0.3337973696	 1.276520148	-0.0189763865	-0.22912
O	 0.0003485008	-0.0903332806	 0.0394618521	-0.231037
C	 0.5685568245	-0.5688144959	-1.1553035021	-0.067808
C	 0.8359469648	-2.04734041	-0.990252045	 0.10606
O	-0.3882885282	-2.8521746014	-1.0938833563	-0.265977
C	 0.1105647936	-3.5518860541	-2.1711235388	 0.437352
N	-0.4092076154	-4.4463562716	-2.8796755558	-0.547774
C	 1.4516033685	-2.8421263735	-2.1753814088	-0.15844
C	 1.8648226176	-2.1399692617	-3.4643412937	-0.411326
H	 0.5507039385	 1.9054337664	-0.2088703964	 0.104008
H	-1.0764895335	 1.4820134288	-0.8055515866	 0.108989
H	-0.7599125952	 1.5487055943	 0.9492544469	 0.132506
H	-0.1057973666	-0.3972694044	-2.0095853822	 0.097825
H	 1.5200269864	-0.0513170031	-1.3738562999	 0.090635
H	 1.3074626445	-2.2237238274	-0.0195065825	 0.102298
H	-1.3579263188	-4.6629796306	-2.5688544621	 0.227217
H	 2.25311928	-3.5064595828	-1.8394425865	 0.111369
H	 1.0820030172	-1.4740765136	-3.8375959642	 0.126905
H	 2.7787342238	-1.5549535386	-3.322225104	 0.121139
H	 2.056974227	-2.8872197582	-4.2389318276	 0.145178
