16
gdb 48787	3.69906	1.38469	1.22253	2.181	68.86	-0.2382	-0.0483	0.1899	1019.0952	0.124204	-437.842986	-437.83574	-437.834796	-437.874844	27.811	
O	-0.087673385	 0.2260548065	-0.7938499807	-0.247031
C	 0.0378480611	 1.1606280211	-0.0472107271	 0.065598
C	 1.297655007	 1.9499718718	 0.1068544366	 0.322015
O	 2.2869010316	 1.8064063321	-0.9191724992	-0.269104
C	 2.6097806686	 1.2919487154	 0.3636232733	-0.007809
C	 3.4228003177	 2.2258097634	 1.2478281154	-0.201233
N	 2.621735373	 3.4437001953	 1.5022721953	-0.105715
C	 2.3115369408	 4.2820786623	 0.3374940545	-0.241978
C	 1.3189989884	 3.2839087713	 0.8141435091	-0.131677
H	-0.7907279622	 1.4983648257	 0.6147880708	 0.083734
H	 2.7211583987	 0.2105825999	 0.4189360066	 0.122285
H	 3.6162235717	 1.7353791644	 2.2084459351	 0.122368
H	 4.388452735	 2.4796744658	 0.798529595	 0.129985
H	 2.1709178191	 5.3335421194	 0.5724280504	 0.119645
H	 2.8011408458	 4.0730234284	-0.6078891159	 0.140206
H	 0.4266350786	 3.577364677	 1.3603096608	 0.098713
