20
gdb 36399	4.9135	0.78698	0.73922	4.0159	84.39	-0.2762	0.0345	0.3106	1551.4234	0.171196	-366.007323	-365.998544	-365.9976	-366.0415	33.104	
N	 0.0074989873	-1.1488137041	-0.1955098061	-0.308688
C	 0.0006296281	-0.0044145892	-0.0343343075	 0.261231
C	 0.0232873739	 1.4440670188	 0.166401932	-0.3651
C	 1.4425469584	 2.0209250163	 0.1222128567	 0.048349
C	 2.2019341891	 2.0199431624	-1.2374945442	-0.309798
C	 2.6340927734	 3.4613000185	-0.9348289723	 0.38461
C	 4.0531373337	 3.9419686334	-0.8372950751	-0.314931
C	 3.1173710035	 4.5175863311	-1.8785852847	-0.331069
C	 1.5817577327	 3.5713422537	 0.1770853096	-0.331683
H	-0.5972380604	 1.9116920813	-0.6078043332	 0.146571
H	-0.4505612366	 1.6694046128	 1.1295248936	 0.150806
H	 2.0483700082	 1.5498827924	 0.9006305837	 0.096183
H	 2.9867133496	 1.2707245408	-1.3655622613	 0.113006
H	 1.5162805437	 1.9560121939	-2.0902268675	 0.103135
H	 4.3260121862	 4.5693795442	 0.0056629618	 0.112287
H	 4.8432861479	 3.2774834712	-1.1727277364	 0.114778
H	 3.2762604639	 4.2423599992	-2.9165962109	 0.114137
H	 2.7595928747	 5.5328381526	-1.7377581642	 0.112001
H	 0.6686904244	 4.0782949029	-0.156980627	 0.09891
H	 1.8938969484	 4.0074089478	 1.1298506829	 0.105266
