23
gdb 91804	2.52167	1.40668	1.20641	1.4247	84.94	-0.2527	0.0672	0.3199	1188.1172	0.205958	-388.296693	-388.287413	-388.286468	-388.330069	36.779	
C	 0.0174045681	 1.5773105829	-0.0637453786	-0.43699
C	 0.0964459188	 0.0521761648	-0.0410976276	 0.043764
C	 0.8593977414	-0.5839025116	-1.2293686088	-0.246573
C	 1.3006913099	-1.9537977226	-0.7159667531	-0.08131
C	 2.5586110483	-2.0026908429	 0.1128705458	-0.31697
C	 1.2182322744	-1.9511837564	 0.802772412	 0.375356
C	 0.7330964289	-3.1385444128	 1.6006870736	-0.495642
C	 0.7526810979	-0.5537193354	 1.2315048852	 0.00534
O	 1.8704060484	 0.1980679341	 1.7036643888	-0.43033
H	 1.0185456162	 2.0202522799	-0.0350829604	 0.12118
H	-0.4739657705	 1.932827178	-0.97503033	 0.1175
H	-0.5554919188	 1.9670966913	 0.7868258789	 0.10503
H	-0.9244936809	-0.3533059089	-0.0632689833	 0.069692
H	 0.2216756875	-0.6633181242	-2.1149111832	 0.093649
H	 1.7199823806	 0.0338569234	-1.5143976481	 0.099779
H	 1.0159925217	-2.8395165016	-1.2745546837	 0.074561
H	 3.0947881832	-2.9454892751	 0.1629263027	 0.098428
H	 3.1894175727	-1.1221898901	 0.151260619	 0.12422
H	 1.0548297567	-4.0785302221	 1.1405918177	 0.111869
H	 1.1271839357	-3.1195824889	 2.6237179673	 0.121002
H	-0.3616607037	-3.1604179763	 1.66690125	 0.109432
H	 0.0087292807	-0.6396754081	 2.0376145901	 0.055475
H	 1.5433848127	 1.0516878324	 2.0043549757	 0.281539
