16
gdb 66530	2.97926	1.65667	1.2555	1.3263	80.4	-0.2107	0.0225	0.2332	1005.8968	0.122353	-363.463734	-363.456033	-363.455089	-363.495618	30.257	
C	 0.0722784086	 1.5221922654	 0.0423986891	-0.527415
C	-0.0038082975	 0.0412746248	-0.0781134297	 0.272259
C	 0.8269721464	-0.9706840951	-0.7842337198	-0.116644
C	-0.3263745442	-1.9983670541	-0.7695846339	-0.178363
C	-0.3142272067	-1.8989489244	 0.7245136252	-0.073923
N	 0.8444462716	-0.9111312748	 0.7261517874	-0.219664
C	-1.2162732858	-0.9487450762	-0.0485942326	 0.291165
C	-2.6155714314	-0.78449859	-0.0654334801	 0.026694
C	-3.8100553764	-0.6245309458	-0.0757747374	-0.386248
H	 1.1191140657	 1.8384539793	 0.0849547357	 0.137065
H	-0.4045266068	 2.0112812613	-0.8136491901	 0.130975
H	-0.4261137156	 1.8663932818	 0.954846086	 0.135608
H	 1.7275203401	-0.8764467475	-1.3791514533	 0.102625
H	-0.6501359249	-2.7826661473	-1.4381441507	 0.112272
H	-0.5439676678	-2.5988749822	 1.5176671833	 0.114651
H	-4.8626141355	-0.4873690253	-0.0835523393	 0.178943
