21
gdb 96090	2.98956	1.32593	1.05596	1.72	78.85	-0.2492	0.0885	0.3377	1208.3536	0.183127	-424.224186	-424.21582	-424.214876	-424.256762	33.262	
C	-0.0126551778	 1.5260870133	 0.089638881	-0.404052
C	 0.0279627911	 0.0112206839	-0.0136600749	 0.131764
C	 0.7692619742	-0.5029265529	-1.2579779296	-0.268127
C	 0.9448424164	-2.0042990424	-1.1513974	 0.43526
C	-0.0647911751	-2.95766024	-1.7503694979	-0.324371
C	 1.3423992637	-2.8500949122	-2.3126545179	-0.336478
O	 1.5210512572	-2.378557614	 0.0788786614	-0.279548
C	 0.7675980004	-1.8786898003	 1.1588126924	 0.00587
O	 0.683510586	-0.4813079739	 1.1579715134	-0.250903
H	 1.0024299103	 1.9337686692	 0.118701351	 0.126491
H	-0.5354890237	 1.9544139855	-0.771064239	 0.113723
H	-0.5317137865	 1.8330165891	 1.0016451726	 0.124587
H	-1.0015988143	-0.3880216967	-0.0303032515	 0.065366
H	 0.2185549008	-0.2395033005	-2.1670206521	 0.095748
H	 1.7551846999	-0.0244493563	-1.3054365036	 0.107784
H	-0.3011563273	-3.8495338398	-1.1814295718	 0.119133
H	-0.8877226589	-2.5539207986	-2.3307581215	 0.110407
H	 1.4839058174	-2.3691073733	-3.2745311876	 0.112851
H	 2.0236105535	-3.6672360654	-2.1047447761	 0.126146
H	-0.2469259481	-2.3186586625	 1.137672342	 0.074089
H	 1.2907778708	-2.1704014023	 2.0716603797	 0.114258
