18
gdb 106116	2.63617	1.4842	1.20741	1.5583	71.81	-0.2213	0.0699	0.2912	1090.0883	0.147313	-438.991613	-438.983399	-438.982455	-439.02441	31.561	
C	 0.1174902523	 1.4758995946	-0.2576569558	-0.328953
N	-0.028799526	 0.0478193594	 0.0106783417	-0.415915
C	 0.5737954406	-0.4138114768	 1.1812556264	 0.330132
C	 1.9861048933	-0.7355758352	 1.5410065989	 0.036247
O	 2.0027419227	-0.0381204939	 2.7862770912	-0.285663
C	 0.5574578739	-0.1138476601	 2.7707995495	-0.057062
C	 0.2634729602	-1.6265704067	 2.9830139417	 0.117855
O	-1.1142759192	-1.938746642	 2.9065452639	-0.437954
C	 0.9065435454	-1.8344306091	 1.6243664171	-0.186986
H	 1.1809166692	 1.7169877569	-0.3486022726	 0.133656
H	-0.3681919425	 1.7167470851	-1.2073618949	 0.119527
H	-0.3094993488	 2.1234715873	 0.5249449303	 0.10532
H	-0.9971540264	-0.2470512259	-0.045540234	 0.231246
H	 2.8956066148	-0.8150410751	 0.9606412237	 0.11119
H	 0.0595706483	 0.6668625124	 3.3451480428	 0.077648
H	 0.7425959999	-2.0858766795	 3.8587984361	 0.068248
H	-1.5190156435	-1.6784283539	 3.7407344348	 0.284175
H	 0.9339821658	-2.7318186575	 1.0201025993	 0.097289
