19
gdb 31707	3.43809	0.9107	0.76579	1.4856	79.49	-0.2147	0.0175	0.2322	1518.4554	0.158979	-423.056043	-423.046742	-423.045798	-423.091199	33.555	
C	-0.4082747826	 1.3732589426	 0.1126485488	-0.36578
C	 0.2417380297	-0.00951345	-0.0601229007	-0.300534
C	 0.9103896143	-0.5111443325	 1.1859120722	 0.274269
C	 2.2390302136	-0.7228904574	 1.3800631931	-0.13054
O	 2.4849380114	-1.1776038309	 2.6428276547	-0.18281
C	 1.2825628273	-1.2489718471	 3.2773679122	 0.327157
C	 1.2845016602	-1.7303814968	 4.6935436538	-0.161372
O	 0.0358648205	-2.286296686	 5.064432467	-0.406176
C	 0.2868773322	-0.8580088069	 2.4374603326	-0.383358
H	 0.3388393837	 2.1232734775	 0.3897900628	 0.121055
H	-0.890677019	 1.6966166647	-0.8150928295	 0.111549
H	-1.169057767	 1.3572831438	 0.8995057351	 0.12064
H	-0.5247279313	-0.727446734	-0.3797109078	 0.107241
H	 0.9776679587	 0.0316529674	-0.8711899558	 0.102123
H	 3.1036909707	-0.6121673995	 0.7459400053	 0.130087
H	 2.1192253337	-2.4359779328	 4.8301851349	 0.107869
H	 1.4542948035	-0.9018266299	 5.3922717991	 0.130269
H	-0.1692703022	-2.9783133098	 4.4262500075	 0.283809
H	-0.7633237073	-0.8131292024	 2.6809414447	 0.114501
