23
gdb 114732	2.23575	1.42864	1.07747	1.1298	84.37	-0.2581	0.0793	0.3374	1233.7029	0.207301	-388.285752	-388.276697	-388.275753	-388.319146	35.61	
C	-0.8650050314	 1.1966999035	-0.0805403252	-0.401269
C	-0.0372006197	-0.0938443923	-0.0921650584	-0.005325
C	 1.0184914298	-0.150207376	-1.1925587201	-0.024651
C	 2.3043257101	 0.6213169547	-1.0142351023	-0.295137
C	 2.2463763547	-0.8448465112	-0.6584151451	-0.031807
C	 1.9901437122	-1.2265380254	 0.7934032251	-0.230113
C	 0.7108973962	-0.4578795312	 1.2352411686	-0.000567
C	 1.0213631323	 0.7083412094	 2.1766679091	-0.099197
O	 1.5756203999	 0.1456810758	 3.3613612605	-0.421054
H	-0.2392110765	 2.0812118254	 0.076423942	 0.114744
H	-1.376619746	 1.326254168	-1.04014265	 0.109035
H	-1.6324391573	 1.1805840748	 0.7006434869	 0.111252
H	-0.7316397621	-0.9206652796	-0.2937382419	 0.073379
H	 0.6702143176	-0.321658846	-2.2063145637	 0.074269
H	 2.8433760899	 0.8869336236	-1.9177548151	 0.105155
H	 2.3887967316	 1.3631166593	-0.2279314353	 0.105305
H	 2.8098909475	-1.5366506417	-1.2755142554	 0.075435
H	 1.8167839214	-2.3069009412	 0.8509377628	 0.093779
H	 2.82928615	-1.0088754167	 1.4613261264	 0.109469
H	 0.0761863384	-1.1239073691	 1.8295091572	 0.081174
H	 1.7256995728	 1.4214679617	 1.7234275709	 0.086331
H	 0.0988633608	 1.2613106417	 2.4065270682	 0.085417
H	 1.8118490677	 0.8663834327	 3.952310085	 0.284374
