18
gdb 78196	3.00855	1.2452	1.04951	4.1615	76.66	-0.2671	0.023	0.2901	1181.0912	0.147266	-401.928916	-401.920233	-401.919289	-401.962115	32.628	
C	-0.014454412	 1.560107533	 0.0674954815	-0.422684
C	 0.1102867778	 0.0501284996	 0.0499623876	-0.028648
C	 1.3575635315	-0.734075689	-0.2519211451	-0.067668
C	 0.7088300311	-0.8087463757	 1.1332176508	-0.069422
C	 1.9280821487	-0.108740824	 1.7710084091	-0.228483
C	 2.6714423169	-0.8924060042	 2.7388948803	 0.272618
N	 3.28837084	-1.4911971683	 3.512411655	-0.329871
C	 2.6143000772	-0.0906775476	 0.3337260516	 0.112899
O	 3.6851059087	-0.9811524281	 0.1888098884	-0.415534
H	 0.8672681939	 2.058335266	 0.478944934	 0.121088
H	-0.1567227588	 1.9429257912	-0.9483959548	 0.126906
H	-0.8780506929	 1.8707650284	 0.6649535221	 0.126009
H	-0.7643876068	-0.4357988005	-0.3790565879	 0.100134
H	 1.4104941648	-1.4878968184	-1.0272112308	 0.105416
H	 0.171520048	-1.6239482657	 1.6005149339	 0.107779
H	 1.7215270489	 0.8741876785	 2.2076666759	 0.11691
H	 2.8743544669	 0.9163490008	-0.0227101156	 0.075955
H	 4.4003454262	-0.7177169659	 0.7790581138	 0.296598
