23
gdb 59588	3.3866	0.9507	0.77415	1.2606	88.15	-0.2258	0.0344	0.2602	1537.7675	0.204818	-388.316231	-388.306208	-388.305264	-388.35112	37.797	
C	 0.0510511473	 1.5470852807	 0.0269779344	-0.404555
C	-0.0036976512	 0.018786693	 0.0505137011	 0.12058
O	 0.6816844009	-0.4957776819	 1.1928516646	-0.432681
C	-1.4296348887	-0.5345692343	-0.0317828396	 0.020857
C	-2.1947557355	-0.1728113366	-1.337093779	-0.277714
C	-3.0130115328	-1.4088811476	-1.6150502188	-0.170297
C	-2.647352694	-2.4506787492	-0.8654951181	 0.333744
C	-3.2043463172	-3.8385052726	-0.9066405875	-0.490811
C	-1.5061658935	-2.081562319	 0.0587160901	-0.312038
H	 1.0857620821	 1.8877966667	 0.1204245031	 0.121942
H	-0.365855604	 1.9529227586	-0.8997984101	 0.120816
H	-0.5236730949	 1.9673526841	 0.8625109567	 0.103101
H	 0.5677576317	-0.3729708874	-0.8017692032	 0.084451
H	 0.2301592834	-0.1605182004	 1.9756798738	 0.273211
H	-1.9963516542	-0.1168169632	 0.8132462112	 0.059194
H	-2.8038212732	 0.7317920993	-1.2261612628	 0.099869
H	-1.5002128137	 0.0300793038	-2.1676766886	 0.100098
H	-3.7843624988	-1.4376956831	-2.3783296364	 0.080661
H	-4.0083230678	-3.9315472947	-1.6420533016	 0.120229
H	-2.425785072	-4.5702150491	-1.1592238859	 0.124085
H	-3.6007446087	-4.1367704894	 0.0725776576	 0.121921
H	-0.568401798	-2.5491645244	-0.2755224727	 0.1081
H	-1.6612282574	-2.4343086232	 1.0847995618	 0.095236
