22
gdb 58696	1.92257	1.46334	1.20804	4.0201	85.69	-0.2994	0.0339	0.3332	1214.6267	0.193565	-367.230705	-367.220827	-367.219882	-367.26524	36.921	
C	-0.3008526684	 1.4061984837	 0.0752107166	-0.408486
C	 0.0629110529	-0.0851509039	 0.0632307116	-0.028328
C	 0.7343088391	-0.4639998568	-1.2642816494	-0.408486
C	 0.9336181484	-0.4792037917	 1.2862907333	 0.181135
C	 0.169593638	-0.4137484319	 2.6599103972	-0.266278
C	 0.016045216	-1.9557293016	 2.6387130356	-0.214393
C	 1.0653559227	-2.0320978171	 1.5007998591	-0.266278
C	 2.2051356719	 0.237793816	 1.2678498158	 0.25603
N	 3.2163214572	 0.8002939639	 1.26393593	-0.367753
H	 0.5962408949	 2.0261106081	-0.0250831377	 0.140978
H	-0.9656358127	 1.6415378021	-0.7614352385	 0.117147
H	-0.8107749658	 1.7006816883	 0.9970384084	 0.116761
H	-0.8633995405	-0.6678336483	 0.1609178869	 0.077676
H	 1.6627589971	 0.0992611609	-1.4051507166	 0.140978
H	 0.9770349192	-1.5293062027	-1.316376196	 0.116761
H	 0.0720010228	-0.2331326028	-2.1041306489	 0.117147
H	 0.8120998533	-0.0612017553	 3.4686409323	 0.124647
H	-0.7463489864	 0.1800100926	 2.6590679187	 0.112246
H	 0.2643684211	-2.4801834628	 3.562860117	 0.110907
H	-0.9781159499	-2.2777510487	 2.3200304223	 0.110699
H	 0.8188027534	-2.6477070283	 0.6337718276	 0.112246
H	 2.0584303857	-2.3129132938	 1.8558973845	 0.124647
