17
gdb 6850	3.45752	1.92276	1.66108	3.2359	64.32	-0.2446	0.0281	0.2727	843.8949	0.142443	-401.011472	-401.003742	-401.002798	-401.043005	29.347	
C	-0.019634663	 1.5414408784	-0.0008138812	-0.43201
C	-0.0061632435	 0.0120394682	-0.0095206439	 0.291986
O	-1.3346865427	-0.5071450862	 0.0355505312	-0.457158
C	 0.7223898656	-0.5230443836	-1.2471038147	-0.097657
O	 0.8021666367	-1.9488691131	-1.241881676	-0.222447
C	 1.0340691061	-2.513893761	-0.029432846	 0.135951
N	 1.0421722411	-1.9809347628	 1.1141811236	-0.272298
C	 0.6982456661	-0.5681104452	 1.2252893643	-0.149757
H	 0.9929543306	 1.9571434399	-0.0148598121	 0.118942
H	-0.5560672411	 1.9310091852	-0.8744924888	 0.106987
H	-0.5311892804	 1.9021152514	 0.8959289001	 0.133964
H	-1.783225684	-0.2662711502	-0.7824315124	 0.277826
H	 0.1937542475	-0.2531276487	-2.1676726269	 0.104631
H	 1.7368423676	-0.1057767988	-1.3013313048	 0.109799
H	 1.229124226	-3.5773388199	-0.1532382307	 0.122572
H	 1.6088910109	 0.0038841161	 1.4425381619	 0.105611
H	 0.0350264465	-0.4466222997	 2.0884113063	 0.123057
