22
gdb 97588	2.46754	0.88946	0.75967	1.5992	91.69	-0.2309	0.0483	0.2792	1644.0603	0.192383	-367.160997	-367.150403	-367.149458	-367.198043	37.853	
C	-0.5020272674	 1.6239799917	 0.3255239602	-0.364957
C	-0.8976899368	 0.7389047781	-0.8704152179	-0.314957
C	-1.9348272303	-0.2366287109	-0.5465216378	 0.023016
C	-2.7804737756	-1.0496189152	-0.2649712794	 0.08951
C	-3.8206575408	-2.0293721702	 0.0836636239	-0.1029
C	-3.2973602478	-3.0605719067	 1.0951100066	-0.374171
N	-5.0801734638	-1.4648420965	 0.6045650801	-0.071974
C	-5.0219704098	-0.2887517221	 1.4663909923	-0.222746
C	-5.5590324453	-0.1928028103	 0.0799457988	-0.224253
H	 0.278119094	 2.3334038956	 0.0338652155	 0.11513
H	-1.3629009447	 2.1904952705	 0.6911714647	 0.127578
H	-0.1238236715	 1.0149523673	 1.1510041893	 0.128508
H	-1.2372299182	 1.3730899214	-1.6993974579	 0.128741
H	-0.0110525724	 0.2093695835	-1.242405704	 0.130933
H	-4.1012177142	-2.562795321	-0.8345114396	 0.108369
H	-2.4218251318	-3.5802185797	 0.6976415821	 0.119043
H	-3.009545424	-2.5673866779	 2.0280626132	 0.122542
H	-4.0829599618	-3.7883430957	 1.3129628434	 0.123451
H	-5.6899518396	-0.3054039088	 2.3229089354	 0.11156
H	-4.0518580164	 0.171384569	 1.641349848	 0.117968
H	-4.9371482247	 0.3296231838	-0.6436925661	 0.118099
H	-6.6290607172	-0.137623866	-0.1002748109	 0.11151
