18
gdb 58620	2.36932	1.45639	1.11383	3.0036	67.61	-0.2516	0.012	0.2636	1133.604	0.145787	-476.23798	-476.228421	-476.227476	-476.272231	35.571	
C	-0.0394777818	 1.5712268091	 0.4222968559	-0.42071
C	-0.0280133743	 0.1046504823	-0.0165795625	 0.06092
O	 0.8136634531	-0.6797385946	 0.8122602056	-0.434223
C	-1.4376494545	-0.4880035699	-0.0440673531	 0.276251
C	-1.6436734073	-1.9168548092	 0.2428894412	-0.214747
O	-1.9296644287	-0.9197633979	 1.2392992161	-0.300961
C	-2.4420322692	 0.2124631166	-0.9387694266	 0.337996
N	-3.7130113345	 0.2042954647	-0.4605202815	-0.530298
O	-2.1027214913	 0.7044581566	-1.9991686965	-0.371446
H	 0.9874123741	 1.9383685737	 0.4875155565	 0.126768
H	-0.5893198067	 2.1878721549	-0.2929628347	 0.143117
H	-0.5068868203	 1.67643693	 1.4085080938	 0.112733
H	 0.3819661398	 0.0286427832	-1.0275312226	 0.119752
H	 0.4055091134	-0.6853219162	 1.6876433315	 0.285727
H	-2.5169471395	-2.4223996111	-0.1629804977	 0.126472
H	-0.7715594311	-2.5299489783	 0.4491112069	 0.142935
H	-3.8827911766	-0.0914776769	 0.4867750537	 0.274406
H	-4.4245720847	 0.696341183	-0.974735276	 0.265307
