15
gdb 129598	3.18797	1.26822	0.96465	4.5504	69.07	-0.2176	0.0059	0.2235	1165.301	0.113001	-453.911206	-453.903277	-453.902333	-453.94446	29.001	
N	 0.1810341438	 1.3869619804	 0.4694164572	-0.596276
C	 0.0033199397	 0.0655632421	 0.1356884279	 0.385833
C	-1.1091320704	-0.6832778905	-0.1555150757	 0.095781
C	-0.564572029	-1.9854491127	-0.3220924989	-0.031475
N	 0.7310566224	-2.0353110679	-0.1527024613	-0.160349
O	 1.1004793533	-0.7000523787	 0.1352746696	-0.215899
C	-2.5172704139	-0.2592509763	-0.2297650962	-0.071942
C	-3.4151426791	-0.6330893447	-1.3399507167	-0.180796
O	-3.5012197591	-1.2894174041	-0.0756985365	-0.229978
H	 1.1435549511	 1.6916266112	 0.4301577147	 0.270523
H	-0.4473847257	 2.0327369361	 0.0159599364	 0.267522
H	-1.102568321	-2.897306081	-0.5408233916	 0.141006
H	-2.7538113617	 0.6600623197	 0.3097547132	 0.091548
H	-4.2604821954	 0.0055861899	-1.5949465467	 0.117472
H	-3.0211239248	-1.2372003035	-2.1559224953	 0.117029
