17
gdb 46040	2.99276	1.38083	1.15875	1.8389	68.87	-0.2587	0.011	0.2696	1087.8349	0.137511	-455.123442	-455.115584	-455.11464	-455.156655	29.014	
N	 0.3043983778	 1.0908608071	 0.2827707807	-0.529608
C	 0.182766654	-0.1124731477	-0.0626603337	 0.37667
C	-0.9018934233	-1.0732062561	 0.3718382573	-0.171115
O	-0.7490935398	-2.1837491357	-0.4972312149	-0.254708
C	 0.5724374195	-2.1582471892	-0.9965143619	 0.169441
O	 1.0185709063	-0.8024222356	-0.9015827323	-0.24363
C	 1.4973578881	-3.0932176872	-0.2424259428	-0.025061
C	 2.9634051978	-2.8820238352	-0.2680518649	-0.238723
N	 2.2000561366	-2.6741453117	 0.9759375374	-0.320136
H	 1.130429893	 1.5174436458	-0.1386680257	 0.231345
H	-0.7685678802	-1.3524087919	 1.4261671003	 0.139745
H	-1.8981055431	-0.6446278182	 0.2446015235	 0.150481
H	 0.5322546989	-2.4327570216	-2.0568696896	 0.111481
H	 1.1072197963	-4.1078485034	-0.2059695831	 0.111384
H	 3.6316309307	-3.7377873609	-0.2618867717	 0.124953
H	 3.3355258986	-2.006821331	-0.7927061291	 0.125615
H	 2.0799291887	-1.6743633476	 1.1222359805	 0.241866
