21
gdb 82884	2.51197	1.86215	1.42779	1.4994	81.24	-0.2433	0.0708	0.3142	1003.5965	0.184387	-387.059858	-387.052149	-387.051205	-387.091323	32.097	
C	-0.0650018289	 1.537602217	 0.1198327351	-0.513146
C	-0.0266959941	 0.0321920011	 0.0991029106	 0.334085
C	 0.9294273143	-0.7309289868	-0.9241202503	-0.082955
C	 1.987214123	-0.8312626888	 0.2064725579	-0.24466
C	 0.7558037764	-0.8884750502	 1.1191960515	-0.104373
C	-0.2643663652	-1.9774337134	 0.5576753995	-0.089906
C	 0.3024827504	-2.1438647739	-0.8665966903	-0.216277
C	-1.2868923787	-0.8340806597	 0.3174465989	 0.119016
O	-2.0731834366	-0.4368869209	 1.4222816146	-0.457922
H	 0.9341078706	 1.9747844396	 0.2220599096	 0.115316
H	-0.5034304589	 1.9295189567	-0.8058208853	 0.118618
H	-0.6813657752	 1.89545743	 0.9512203317	 0.118377
H	 1.1711161667	-0.3098840648	-1.9004827321	 0.058968
H	 2.6859860879	-1.6739960792	 0.1796618136	 0.087797
H	 2.5426396632	 0.0990872422	 0.3537164478	 0.097719
H	 0.8022841451	-0.7201389447	 2.1959152171	 0.058675
H	-0.5392497769	-2.8667808686	 1.1244297245	 0.06207
H	-0.4827915075	-2.3204788496	-1.6077390917	 0.094075
H	 1.0533670148	-2.9332148605	-0.9652304211	 0.093165
H	-1.9939303468	-0.9638186919	-0.508894739	 0.071783
H	-1.4920728435	-0.3053773236	 2.1795052672	 0.279573
