18
gdb 16053	3.31197	1.682	1.406	3.3052	74.28	-0.2413	-0.0158	0.2255	953.5528	0.153589	-347.795107	-347.787319	-347.786375	-347.827068	29.337	
C	-0.0421248874	 1.5532359875	 0.0394903649	-0.418676
C	 0.0873695262	 0.0452498238	 0.0758982664	-0.061216
C	 1.3211207697	-0.7324838428	-0.2209616174	-0.112012
C	 2.5961808097	-0.0679251449	 0.3156679278	-0.226672
C	 1.9878865427	-0.0358235148	 1.7530034723	-0.305733
C	 0.7205225327	-0.7163100429	 1.2299209197	 0.263978
C	 0.0326969355	-1.8287746305	 1.8863078025	 0.054971
O	 0.2807170322	-2.2337993388	 2.9993066982	-0.275283
H	 0.8567193735	 2.0598761008	 0.3978160703	 0.127253
H	-0.2274205327	 1.893609484	-0.9848905061	 0.124238
H	-0.8806412861	 1.8850178887	 0.6601527279	 0.126771
H	-0.8040203125	-0.4672443181	-0.2856173672	 0.095064
H	 1.3048111468	-1.5703047215	-0.9086385223	 0.099064
H	 3.4646391154	-0.7254716888	 0.249967858	 0.113718
H	 2.8571231416	 0.8937355865	-0.1365567568	 0.104195
H	 2.5197671912	-0.6793712569	 2.454850248	 0.129654
H	 1.853399699	 0.9460393303	 2.215030683	 0.103174
H	-0.7576843275	-2.3089622116	 1.2609844009	 0.057512
