16
gdb 127668	3.32102	1.4301	1.07791	2.586	71.14	-0.254	-0.0057	0.2483	1084.2598	0.126186	-434.065849	-434.058045	-434.057101	-434.098779	28.101	
C	 1.086545395	 0.8354432869	 0.5560487088	-0.346386
N	 0.2504527754	-0.3053160971	 0.2228341015	-0.030856
N	 0.3551920601	-0.8695839618	-1.0061935965	-0.248418
C	-0.5352219402	-1.8456754678	-0.9536275331	 0.021415
N	-1.210641876	-1.9455080346	 0.2185572931	-0.323763
C	-0.6885674567	-0.965023709	 0.9437486676	 0.363308
C	-1.1135352	-0.706413212	 2.3364657426	-0.011202
C	-0.1820891315	-0.5061996242	 3.460531878	-0.18906
O	-0.906405308	 0.5923706147	 2.9042103154	-0.230108
H	 2.1098202625	 0.5109768616	 0.7685181397	 0.142725
H	 1.1047138518	 1.5120153151	-0.2996724861	 0.158605
H	 0.6616025794	 1.3394066275	 1.4221217191	 0.176949
H	-0.7084846892	-2.5006093436	-1.7944755799	 0.126858
H	-2.0819850459	-1.1527581174	 2.5501735558	 0.131772
H	-0.4856061935	-0.8066419963	 4.4614816622	 0.134565
H	 0.8905956568	-0.502700202	 3.2752456017	 0.123596
