20
gdb 100337	2.51737	1.12102	0.95284	3.8912	75.3	-0.2828	0.0321	0.3149	1314.5933	0.167926	-440.298912	-440.288076	-440.287132	-440.334881	38.739	
C	 0.1049852039	 1.5358640103	 0.09671384	-0.401446
C	-0.018212454	 0.0111874682	 0.0376729115	-0.204154
C	-1.467386888	-0.5089834863	-0.0514290313	 0.334426
O	-2.2509225854	-0.0620142722	 1.0459937511	-0.460108
C	-2.2070655605	 0.031363849	-1.2816253495	-0.106682
O	-1.453023981	-0.321445938	-2.4321304861	-0.425914
C	-1.4261242726	-2.0625151474	-0.103820693	-0.383454
C	-2.7486253174	-2.6779036963	-0.0351550677	 0.273902
N	-3.7931287794	-3.1701979636	 0.0100805812	-0.319328
H	 1.1350550089	 1.8271428077	 0.3214757155	 0.114575
H	-0.1645838883	 1.9946579885	-0.8587121536	 0.129639
H	-0.5456421544	 1.9513018119	 0.8711284033	 0.126456
H	 0.5462935566	-0.3763259141	-0.8161175472	 0.122313
H	 0.4355146464	-0.428891439	 0.9374912921	 0.08317
H	-1.824696276	-0.34155093	 1.8633755881	 0.283976
H	-3.2147077503	-0.4036845371	-1.3022900451	 0.124087
H	-2.3120978921	 1.1188840756	-1.1776512199	 0.106142
H	-1.9853337842	-0.1390696126	-3.2110714169	 0.298247
H	-0.9414317305	-2.3707752545	-1.0353359018	 0.169069
H	-0.8182922218	-2.4452683203	 0.7246747894	 0.135082
