21
gdb 94437	2.35694	1.39913	1.28914	2.1354	78.08	-0.2385	0.0577	0.2962	1140.9317	0.181625	-424.199051	-424.189864	-424.18892	-424.233068	34.705	
C	-0.2069656201	 1.4558263697	 0.0110675592	-0.38868
C	 0.0256876736	-0.0497544528	-0.0673178327	-0.061968
C	 1.2924766623	-0.470075914	-0.8749379047	-0.228939
C	 2.0600342147	-0.6512595426	 0.4657234464	-0.306426
C	 0.7059288727	-0.648962862	 1.1945192791	 0.427427
O	 0.5902012013	 0.0303665209	 2.4584673879	-0.31655
C	-0.1483299585	-1.0616764568	 3.0441856671	-0.09372
C	 0.1155507132	-1.9466671432	 1.820792264	-0.011057
O	-1.0544201067	-2.5026383177	 1.2742211836	-0.415998
H	 0.7090780053	 1.9922194448	 0.2801973229	 0.116682
H	-0.5522209039	 1.841290196	-0.9541174029	 0.107874
H	-0.9590438375	 1.6975584338	 0.7674780938	 0.123612
H	-0.9009553968	-0.559739256	-0.3460179567	 0.072376
H	 1.1585029545	-1.4109252625	-1.4160860399	 0.090324
H	 1.6905287522	 0.272602586	-1.5704592262	 0.099933
H	 2.6931114871	-1.5351327913	 0.5898934527	 0.090024
H	 2.6434626365	 0.2342110896	 0.7320136068	 0.117129
H	 0.2751784718	-1.382265038	 4.0016878022	 0.103798
H	-1.2129166201	-0.8284636023	 3.1696633467	 0.109997
H	 0.884275919	-2.712032712	 1.9910052018	 0.075593
H	-0.8079347405	-3.0993666495	 0.5607651189	 0.288571
