19
gdb 56594	2.40745	1.19069	1.03161	4.9266	76.08	-0.2533	0.025	0.2783	1252.4959	0.158128	-419.178524	-419.168942	-419.167998	-419.213984	34.794	
C	-0.0935077002	 1.5875528008	-0.2606158719	-0.431363
C	 0.0181215738	 0.0788024245	-0.0283309233	 0.050496
C	 0.7597671519	-0.5949993276	-1.2146607308	-0.023883
O	 2.1451981969	-0.346551317	-1.1579676051	-0.415042
C	 0.4731671886	-2.0474128237	-1.2458074982	 0.272496
N	 0.2420041568	-3.1790494207	-1.2761502368	-0.324129
N	 0.7411848153	-0.3543781379	 1.1808367074	-0.104186
C	 1.3359784744	 0.6027593779	 2.1155952102	-0.225601
C	 0.123356437	-0.1730737833	 2.4854196549	-0.217442
H	 0.8908012866	 2.0303136117	-0.4357432105	 0.143582
H	-0.7161722991	 1.7821290277	-1.1391291718	 0.125741
H	-0.562624852	 2.09357199	 0.5883289065	 0.123316
H	-0.987665838	-0.3528806198	 0.0259911444	 0.106018
H	 0.405817592	-0.169203568	-2.1596240728	 0.129237
H	 2.4220731602	-0.6554346487	-0.2832542138	 0.300055
H	 2.3098760247	 0.3206669166	 2.5059686138	 0.123597
H	 1.2148741883	 1.6666752885	 1.9353010828	 0.122559
H	-0.8164488054	 0.3755719822	 2.5288045347	 0.115498
H	 0.1841357883	-1.0221448532	 3.1603261903	 0.129053
