17
gdb 85354	2.77038	1.40975	1.08812	0.2224	76.2	-0.2551	-0.095	0.1601	1112.767	0.136075	-421.883939	-421.875708	-421.874764	-421.917046	30.689	
C	-0.2158545446	 1.5248846932	 0.0936028154	-0.400285
C	 0.0189536515	 0.0026981146	-0.0024012823	-0.111986
C	 0.7953016967	-0.382806009	-1.2755490995	-0.345012
C	 2.2799610746	-0.060718851	-1.2091169809	 0.37856
O	 2.9242510642	 0.2874191377	-2.1759065593	-0.31687
C	 2.9289697056	-0.2552554809	 0.1141215757	-0.141375
C	 2.2229275804	-0.4633614448	 1.2355275356	-0.141532
C	 0.7361229854	-0.4644599473	 1.2618110308	 0.376561
O	 0.1348100486	-0.7704215852	 2.2705636999	-0.326702
H	 0.7288065191	 2.0782851575	 0.1130285055	 0.129733
H	-0.7909594417	 1.8717910161	-0.7699986056	 0.128507
H	-0.7739730583	 1.7691221893	 1.0011643929	 0.140735
H	-0.9568587435	-0.49185647	-0.0021022936	 0.107272
H	 0.7247058684	-1.4684635657	-1.4307665145	 0.135569
H	 0.3760016212	 0.0946299267	-2.1650594445	 0.129406
H	 4.0144939863	-0.2136105403	 0.1143200514	 0.128805
H	 2.7026917862	-0.631625571	 2.1956330029	 0.128612
