17
gdb 117322	2.63924	1.03235	0.79706	5.9502	67.22	-0.242	-0.0077	0.2343	1416.2973	0.134643	-492.332507	-492.322556	-492.321612	-492.368695	34.403	
C	-0.9705221419	 0.0938716946	 0.8633936387	-0.250249
O	 0.2745288125	 0.0251304601	 1.5399800141	-0.238003
C	 1.351568963	-0.3255102776	 0.6930051351	-0.189098
C	 1.5343215185	-1.8407127706	 0.4793599577	 0.371237
O	 2.1735218489	-2.2729864137	-0.4449383336	-0.310668
N	 0.9183794903	-2.581093555	 1.4777733495	-0.393973
C	 0.9922444389	-3.973731883	 1.6759054923	 0.471484
N	 0.1808934191	-4.3816100062	 2.7227535057	-0.565862
O	 1.7061756706	-4.7184947509	 1.0550576909	-0.333532
H	-1.2545091111	-0.8735984692	 0.4248194039	 0.118096
H	-1.720472028	 0.3863119051	 1.6016239397	 0.135552
H	-0.9437309028	 0.8454705033	 0.0626851159	 0.127344
H	 1.2713480633	 0.1411920827	-0.296038038	 0.130682
H	 2.2656624837	 0.0481516024	 1.1682029518	 0.145851
H	 0.4437300121	-2.0152358297	 2.168859298	 0.26122
H	-0.6654378393	-3.8694506516	 2.9177712207	 0.251879
H	 0.0940495722	-5.3843629709	 2.7877447874	 0.26804
