19
gdb 106049	2.65569	1.57128	1.26844	2.097	73.79	-0.2336	0.0746	0.3082	1063.6132	0.159137	-422.963784	-422.955715	-422.95477	-422.996358	31.631	
C	 0.0878049303	 1.4938391137	-0.1702385426	-0.377768
C	-0.0693670839	-0.0151977081	 0.0713678604	-0.319494
C	 0.656764203	-0.4764822742	 1.3021561095	 0.262174
C	 2.143278766	-0.8504353343	 1.3414692898	 0.038761
O	 2.6329078603	-0.6441416971	 2.6764884135	-0.311249
C	 1.3773929843	-1.2472573508	 3.124019426	 0.003874
C	 1.1298446157	-1.8787205154	 1.7146392209	-0.218228
C	 0.3492787823	-0.1413837502	 2.7715938829	 0.120517
O	 0.5885757515	 1.1444232408	 3.2659257189	-0.444599
H	 1.1352114743	 1.7531526291	-0.3565270334	 0.114444
H	-0.4989751101	 1.816033922	-1.0356511695	 0.109438
H	-0.2417596559	 2.0623447664	 0.703672673	 0.140971
H	-1.1345687279	-0.264553456	 0.1655221534	 0.102941
H	 0.294932828	-0.5731316341	-0.8014076743	 0.097108
H	 2.8314202019	-0.7655505785	 0.5106920189	 0.11194
H	 1.4489012727	-1.7273072763	 4.0972617153	 0.088486
H	 0.8953709559	-2.8709045151	 1.3573024873	 0.104264
H	-0.6713704571	-0.4296976368	 3.0376411659	 0.090771
H	 1.5466156085	 1.2644168849	 3.2013534243	 0.285647
