21
gdb 115531	2.42705	1.13993	0.99471	0.9976	85.43	-0.2536	0.0368	0.2903	1337.0066	0.1799	-387.049422	-387.039334	-387.03839	-387.084219	37.944	
C	 0.0929767196	 1.5592471259	 0.1453981287	-0.386453
C	-0.0876844497	 0.0466720787	-0.0231635311	-0.194654
C	 0.6904862719	-0.5030501407	-1.2096456427	 0.024883
C	 2.2453325861	-0.5366488659	-1.1860103933	-0.247125
C	 2.1920832881	-1.9095080407	-1.9048416385	-0.266915
C	 0.701975972	-2.0514381684	-1.4510055188	 0.192439
O	 0.5963762835	-2.6983324133	-0.186803171	-0.465028
C	-0.2466658219	-2.6059408127	-2.4076081941	 0.272571
C	-1.0147270385	-3.0834889601	-3.2011862869	-0.457738
H	 1.1454846977	 1.8205824222	 0.3006256345	 0.116586
H	-0.2552900775	 2.1040956551	-0.7394419748	 0.111487
H	-0.470383995	 1.9298067051	 1.0073734551	 0.112228
H	 0.2296656692	-0.474260996	 0.8855604648	 0.113105
H	-1.1519997806	-0.1861370794	-0.1545899134	 0.100348
H	 0.3523533032	-0.024044166	-2.1350269372	 0.0795
H	 2.7736506538	 0.2726818364	-1.6931530922	 0.097328
H	 2.6284517882	-0.6269438696	-0.1662213223	 0.110965
H	 2.2757135824	-1.8194141541	-2.9903631216	 0.110157
H	 2.8583062012	-2.7007389303	-1.5530590258	 0.098921
H	 0.6540992257	-3.6473810143	-0.3418015639	 0.282827
H	-1.6991004093	-3.4978696518	-3.8996341855	 0.194569
