21
gdb 73449	2.20011	1.86855	1.50931	1.8386	81.37	-0.2162	0.0823	0.2985	1026.3266	0.182953	-387.071996	-387.063681	-387.062737	-387.104206	33.042	
C	-0.016065647	 1.464468355	 0.0769135135	-0.496022
C	-0.0030598367	-0.0402869349	-0.032607531	 0.251599
C	 1.0517950473	-0.7249123731	-0.911034917	-0.279063
C	 0.4171889671	-2.0892446839	-1.2977220524	-0.214404
C	-0.696355473	-2.2408202555	-0.2700900253	 0.045841
O	-0.0827407441	-2.2139652443	 1.063436091	-0.317703
C	-0.4610055035	-0.8424349029	 1.1790070914	 0.013155
C	-1.3084031278	-0.8321346482	-0.0577976805	 0.229716
C	-2.6952654142	-0.369377644	-0.3843171492	-0.521469
H	 0.9439120825	 1.836557363	 0.4527329149	 0.121879
H	-0.1972633154	 1.9374539986	-0.8956209099	 0.1167
H	-0.7928597747	 1.8150726298	 0.7649225961	 0.115186
H	 1.2743182128	-0.1146523924	-1.7923775706	 0.093536
H	 1.9914237676	-0.8625202556	-0.3666030836	 0.107947
H	-0.0089280422	-2.0613948188	-2.3080674368	 0.094523
H	 1.1270012044	-2.9199421027	-1.2528991917	 0.105981
H	-1.3651820255	-3.0971160244	-0.3839229466	 0.074012
H	-0.5985737464	-0.4323759139	 2.1747513397	 0.092495
H	-2.8620522062	 0.656101567	-0.0400258757	 0.123626
H	-2.8770202445	-0.3831104188	-1.4661486061	 0.118708
H	-3.4534670006	-1.0042558501	 0.0879570797	 0.123757
