17
gdb 4104	3.2101	1.79812	1.22534	1.1905	75.48	-0.2182	-0.025	0.1933	984.8898	0.142334	-363.845436	-363.837548	-363.836604	-363.878051	29.448	
C	-0.0815871718	 1.5455477487	 0.0553381891	-0.391133
C	 0.042825804	 0.0184546293	 0.0223441184	-0.059827
C	 0.8351327678	-0.5236134003	-1.2036782341	-0.284008
C	 1.9320676696	-1.364846802	-0.6049154097	-0.067156
C	 1.9119983834	-1.3654155368	 0.7345626917	-0.145784
C	 0.8075237043	-0.5418047979	 1.2198915373	 0.376545
N	 0.4491939147	-0.2687570217	 2.4165065475	-0.245271
O	 1.2908552024	-0.886311571	 3.3629344694	-0.396981
H	 0.907411629	 2.0161323304	 0.0340829039	 0.116552
H	-0.6501834026	 1.9105616655	-0.8062998047	 0.108684
H	-0.5868103759	 1.8679431134	 0.9692745886	 0.134893
H	-0.9650005987	-0.411384632	 0.0245670788	 0.097719
H	 0.2034212729	-1.1078117772	-1.8839048574	 0.113625
H	 1.2514018612	 0.2941423437	-1.8074778486	 0.113075
H	 2.6546727602	-1.8950013101	-1.2160185433	 0.104718
H	 2.5962297921	-1.8801481991	 1.3934986795	 0.120222
H	 0.9013940373	-0.5984304428	 4.1947741636	 0.304128
