20
gdb 116409	2.79533	1.31393	0.96678	3.4337	76.13	-0.2218	-0.0174	0.2044	1248.3438	0.171585	-440.28961	-440.280693	-440.279749	-440.323352	33.158	
C	 0.0577011675	 1.3627526139	-0.085981823	-0.246557
O	-0.1111881592	-0.0336466185	 0.0813694857	-0.235506
C	 0.6657383195	-0.6086589454	 1.0936768519	 0.023654
C	 0.0592334895	-1.9723549015	 1.4583924663	-0.204574
C	 0.9207715772	-2.7003778603	 2.4915834862	-0.174098
N	 2.2662487487	-2.8794590414	 1.9544402764	-0.29274
C	 2.9510104238	-1.6081742123	 1.7236127763	-0.261951
C	 2.1484692338	-0.7709019496	 0.7260721967	 0.398141
O	 2.6480736596	-0.2638912328	-0.2482381202	-0.30519
H	 1.0640037462	 1.6122398934	-0.4357192719	 0.13777
H	-0.6734636699	 1.6790919974	-0.8337295133	 0.126219
H	-0.1446580165	 1.9019143402	 0.8533857239	 0.095998
H	 0.6545472692	 0.0268982499	 2.0024506297	 0.075759
H	-0.9560829059	-1.8165337775	 1.8346924	 0.106758
H	-0.0080339597	-2.575703675	 0.5474575566	 0.126686
H	 0.9112127239	-2.1328267341	 3.4434145176	 0.077996
H	 0.4959266225	-3.6869925526	 2.700639676	 0.107786
H	 2.8222444279	-3.4633410939	 2.5686665791	 0.22595
H	 3.0749761161	-1.0023052057	 2.6457122759	 0.091267
H	 3.9416112057	-1.7827185943	 1.2980367102	 0.126632
