19
gdb 26207	3.85157	1.11225	0.88017	1.4583	81.	-0.1885	0.039	0.2274	1346.585	0.158788	-419.245045	-419.235453	-419.234509	-419.279682	33.98	
C	-0.0101235657	 1.4037595508	 0.0008844936	-0.331551
N	-0.0211541441	-0.0383931021	-0.174391262	-0.171358
C	 1.1987457944	-0.7518997825	 0.1594952257	-0.340084
C	-1.2263342333	-0.667513661	-0.061575261	 0.524855
N	-2.408976098	-0.1220228501	-0.0224869749	-0.424588
C	-3.2853613803	-1.2102568023	 0.0167778439	 0.263387
C	-4.762450256	-1.0159803354	 0.0612010316	-0.489541
C	-2.5705630241	-2.3549713351	 0.0126663171	-0.145328
O	-1.2240254706	-2.0207101445	-0.0335347829	-0.20837
H	 0.8548221649	 1.8202428318	-0.5240604963	 0.120401
H	-0.9256630684	 1.8213785991	-0.4170496426	 0.16627
H	 0.0509669434	 1.6948150609	 1.0606322071	 0.116238
H	 1.4088080984	-0.7456386295	 1.2407016702	 0.117822
H	 1.1285437213	-1.7869721541	-0.1735968396	 0.154211
H	 2.0388900958	-0.2752561733	-0.3539887332	 0.126551
H	-5.1100650376	-0.4663679793	-0.8202963361	 0.134414
H	-5.2857058103	-1.9749984894	 0.0980114708	 0.119811
H	-5.0519950682	-0.4297695485	 0.9400735382	 0.134178
H	-2.7980325516	-3.4054307856	 0.0465049104	 0.132683
