18
gdb 51187	4.58534	1.09987	1.04605	3.278	77.58	-0.2483	0.0196	0.2678	1181.7228	0.148055	-401.890877	-401.883172	-401.882228	-401.924056	29.558	
N	-0.0872151664	 1.2822601195	 0.0090381071	-0.443712
C	-0.0572663617	 0.0208864705	-0.0045356102	 0.105301
O	-1.2123937373	-0.6782129641	 0.0313309981	-0.241552
C	-1.0995544983	-2.0715964149	 0.0114538161	 0.412539
C	-0.6068609196	-2.834964999	-1.2500311712	-0.291382
C	-1.5202687557	-3.9596481676	-0.7623943262	-0.063476
C	-1.4572743154	-3.9767807349	 0.7749435841	-0.06359
C	-0.5061008152	-2.8623512504	 1.2112285335	-0.291401
C	-2.3645201798	-3.0104633137	 0.0528381441	-0.144653
H	 0.8612710417	 1.6506966684	-0.0220976728	 0.22939
H	 0.8395898461	-0.6103056222	-0.0437667892	 0.091876
H	-0.9991087673	-2.3730287345	-2.1597156761	 0.114515
H	 0.4685797132	-3.0220791154	-1.3514542152	 0.089809
H	-1.8543545138	-4.8262459568	-1.3167718386	 0.093966
H	-1.7456288264	-4.8558114993	 1.3353888459	 0.093969
H	 0.5738365679	-3.050786049	 1.2203015877	 0.089846
H	-0.8223063411	-2.4211701036	 2.1599969868	 0.114488
H	-3.424696381	-2.814315693	 0.0984893161	 0.104065
