25
gdb 120743	3.04192	0.7619	0.68277	0.9862	90.9	-0.2484	0.0834	0.3318	1805.1882	0.22676	-389.473674	-389.46253	-389.461586	-389.510532	40.305	
C	-1.0541165844	 0.9640475518	 0.2646339797	-0.22462
O	-0.5539857984	-0.3471967012	 0.1852738437	-0.229934
C	-0.0529763474	-0.816568024	 1.4227673658	-0.078477
C	 0.409125518	-2.2375531051	 1.240992599	-0.030674
C	 1.77451842	-2.5311130964	 0.6670169712	-0.302948
C	 1.4759260047	-2.8790227651	 2.1035279819	 0.015701
C	 2.1785611944	-2.1834562624	 3.2590830632	 0.018707
C	 1.3216005802	-2.2184194417	 4.533437913	-0.387678
C	 3.5562225493	-2.8173628974	 3.5049214401	-0.384998
H	-0.2749105344	 1.6845560676	 0.5632050098	 0.099367
H	-1.4221890782	 1.2364179975	-0.7277576064	 0.124911
H	-1.8842197069	 1.0454009518	 0.9854329801	 0.099998
H	 0.7716884785	-0.1698020411	 1.7645985825	 0.082163
H	-0.8442854414	-0.7594975654	 2.1912631753	 0.082045
H	-0.3927000409	-2.8975008715	 0.9210262943	 0.087324
H	 1.8761745995	-3.3248624454	-0.0646512975	 0.108571
H	 2.4222369361	-1.6777931025	 0.4867431161	 0.108807
H	 1.3064758066	-3.9373050333	 2.2981597982	 0.076711
H	 2.3426677964	-1.132677976	 2.9872408714	 0.069257
H	 0.3520833092	-1.7348867046	 4.3787868414	 0.114506
H	 1.130564709	-3.2524274145	 4.8449286165	 0.11135
H	 1.8250770747	-1.7110666712	 5.3632951715	 0.108039
H	 4.1807679402	-2.7686094866	 2.6076362861	 0.114908
H	 4.0860803544	-2.3091649277	 4.3174895992	 0.106791
H	 3.455655171	-3.8732565357	 3.7836549638	 0.110173
