18
gdb 39451	2.46351	1.97734	1.32906	1.7395	70.99	-0.2489	0.0586	0.3075	973.0443	0.150085	-439.030111	-439.023092	-439.022148	-439.061425	28.097	
C	-0.0041738933	 1.5026247041	 0.0873936954	-0.146329
O	 1.4289873525	 1.4677018978	-0.137929826	-0.293539
C	 1.3939850705	 0.0669737164	-0.5076724084	 0.055899
C	 2.4344050697	-0.8229741175	 0.1741791496	-0.112056
O	 2.0467266799	-1.2747872151	 1.4569718478	-0.233264
C	 0.7937325036	-1.9462597195	 1.4275441048	-0.106882
C	-0.3384953726	-0.9746480224	 1.1267528344	-0.089813
N	-1.081746243	-0.9723325789	-0.1575242745	-0.400429
C	-0.02326845	-0.0154952018	 0.0501483741	 0.277267
H	-0.2651379137	 1.9909732313	 1.0318867213	 0.114482
H	-0.5359351006	 1.9877204534	-0.7421671383	 0.106553
H	 1.4672291545	-0.0396463135	-1.6007183736	 0.074981
H	 2.6373665368	-1.6897170279	-0.4794354463	 0.08404
H	 3.3644465439	-0.2617039027	 0.3013735323	 0.129709
H	 0.8168506887	-2.7595001917	 0.680309081	 0.085002
H	 0.6712007583	-2.3997737504	 2.4136726704	 0.11965
H	-0.9413820912	-0.6511314833	 1.9707859372	 0.105103
H	-0.7791877839	-1.7311082183	-0.7666057212	 0.229626
