25
gdb 108251	2.3303	1.27965	1.26817	0.148	92.06	-0.2496	0.0789	0.3285	1251.1821	0.228413	-352.348029	-352.338122	-352.337178	-352.384489	38.005	
C	 0.0037558447	 1.5980855222	 0.1449964704	-0.380983
C	-0.0132890737	 0.0661765524	 0.2351006502	-0.288434
C	-1.3875113473	-0.5273258855	-0.0119250366	 0.367587
C	-1.9592466076	-0.4525340004	-1.4556416958	-0.280179
C	-2.3018542692	-1.9710948717	-1.4138126052	-0.278631
C	-1.7028621808	-2.0861090077	 0.0172802083	 0.31979
C	-0.6672619906	-3.1650055131	 0.2516697994	-0.495343
C	-2.7517918972	-1.8396837985	 1.1358934146	-0.277143
C	-2.4716276133	-0.3086653301	 1.0841146966	-0.281427
H	 1.0069766818	 1.9953295834	 0.3280129726	 0.109893
H	-0.3145198312	 1.9401330133	-0.8456214408	 0.117709
H	-0.6715385467	 2.0460294828	 0.8818640239	 0.117553
H	 0.6995132983	-0.3478004923	-0.4910496341	 0.088591
H	 0.3463242054	-0.2431078611	 1.2260039236	 0.088439
H	-2.8024405793	 0.2299557331	-1.5979950927	 0.091377
H	-1.1991001508	-0.2078076237	-2.2037955104	 0.093209
H	-3.363584274	-2.2235674157	-1.4936180372	 0.09159
H	-1.7603970243	-2.5598954803	-2.1597854801	 0.093785
H	 0.1176899164	-3.1469737687	-0.5131473104	 0.109731
H	-0.1841714479	-3.0578593081	 1.2296406313	 0.109766
H	-1.1305826787	-4.1597022966	 0.2219556135	 0.113243
H	-3.7735009544	-2.1540013618	 0.9015637457	 0.090888
H	-2.4717052788	-2.2931540188	 2.0912761553	 0.09317
H	-2.0690544132	 0.0900497861	 2.0199848385	 0.093907
H	-3.3155282474	 0.321107551	 0.7873415195	 0.091911
