17
gdb 49597	2.99656	1.49568	1.20297	4.3396	72.08	-0.2282	-0.0118	0.2164	1034.5212	0.137627	-417.957306	-417.950007	-417.949063	-417.989537	28.354	
O	-0.1220232432	 0.0358280203	-0.0020493876	-0.262668
C	-0.0079363728	 1.2364992008	 0.0094318117	 0.156721
C	 1.3250521287	 1.9622922015	-0.001633486	-0.084636
C	 1.4844820125	 2.8981439864	-1.2122823479	-0.080661
N	 0.4584018113	 3.9498953238	-1.3335253981	-0.308982
C	 1.7641097645	 4.2824901307	-0.7347974134	-0.041846
C	 1.7869734501	 4.2626551252	 0.7785982551	-0.041866
N	 0.4997958105	 3.9140083845	 1.4075783122	-0.308987
C	 1.5213040952	 2.8661861615	 1.2278803896	-0.08059
H	-0.8852875938	 1.9116659009	 0.0297068964	 0.116724
H	 2.1166269926	 1.2073048461	-0.0233340143	 0.091387
H	 1.9264461294	 2.4911889921	-2.1162030763	 0.098191
H	 0.434263063	 4.2798086626	-2.2956508879	 0.23426
H	 2.4410369311	 4.9457064942	-1.261771707	 0.090231
H	 2.4798004026	 4.9120794203	 1.3020766302	 0.090234
H	 0.5048871322	 4.2185642687	 2.3783174766	 0.234263
H	 1.9901152461	 2.4357132006	 2.1070376468	 0.098227
