21
gdb 95245	2.63439	1.56519	1.2509	1.7461	78.47	-0.2377	0.0772	0.3149	1095.3121	0.183517	-424.204061	-424.195858	-424.194913	-424.23639	32.675	
C	-0.0519562377	 1.572922159	 0.011248531	-0.380647
C	 0.0652065927	 0.0431580512	-0.0002103412	 0.010803
C	 0.7088785399	-0.4559880606	-1.3033349889	-0.084588
O	 2.030914467	 0.0404705669	-1.4965135012	-0.247253
C	 3.0053471516	-0.7169622022	-0.8530591357	 0.080357
C	 4.0828995437	 0.0400734586	-0.1254961866	-0.347104
C	 3.0525235839	-0.7246867754	 0.6600206981	 0.08036
O	 2.1203066391	 0.025824526	 1.3706237183	-0.247253
C	 0.7886476688	-0.4690643936	 1.2551147387	-0.084589
H	 0.939291852	 2.0296008054	-0.0174205361	 0.140233
H	-0.6178314799	 1.9300775057	-0.8551672641	 0.107354
H	-0.5624830804	 1.9210667119	 0.9149124798	 0.107354
H	-0.9462910005	-0.3910057288	 0.029107304	 0.068867
H	 0.7082014781	-1.5561130535	-1.3382554403	 0.085509
H	 0.1273175661	-0.0958414619	-2.1592914042	 0.103218
H	 3.2748382119	-1.6387016226	-1.3716066952	 0.083483
H	 5.1031011453	-0.3243412802	-0.1591636917	 0.114458
H	 3.9703407209	 1.1179269403	-0.1164862649	 0.137231
H	 3.3535078454	-1.651583398	 1.1513377837	 0.083482
H	 0.2616517042	-0.1178723174	 2.149273292	 0.103218
H	 0.7898045978	-1.5694890707	 1.2787674444	 0.085509
