17
gdb 23205	3.25797	1.12256	0.91363	2.593	73.39	-0.225	0.0121	0.2372	1257.7387	0.134817	-455.043031	-455.034136	-455.033192	-455.076742	32.82	
O	 0.525899819	-0.072905908	 0.9756956905	-0.425098
C	-0.18439412	 0.4810485588	-0.1248420146	-0.220783
C	-1.5133175921	-0.2044424897	-0.1932479695	 0.263469
N	-2.3007149375	-0.4979914252	 1.0466204322	-0.376074
C	-1.936181798	-1.605674005	 0.1410973429	-0.103618
C	-2.9965228862	-1.6068967506	-0.9795819168	-0.321118
C	-2.4968158606	-0.1994556951	-1.3160497836	 0.406113
N	-2.6240038776	 0.6234378843	-2.2693073107	-0.272789
O	-3.5928357682	 0.1827299306	-3.191693219	-0.389338
H	 1.3078799864	 0.4632035347	 1.1329487839	 0.297638
H	-0.3350972969	 1.5642935111	-0.0002846261	 0.111594
H	 0.3532636374	 0.3298069238	-1.0729768656	 0.109044
H	-1.5963305753	-0.4940069942	 1.7877140867	 0.243939
H	-1.3220496792	-2.4314182765	 0.4739750022	 0.112984
H	-2.7985171353	-2.3068400986	-1.795845684	 0.127706
H	-4.0337987784	-1.6998237258	-0.6505514032	 0.130197
H	-3.5826348876	 0.8879231056	-3.8475191153	 0.306134
