20
gdb 63052	2.86205	1.67005	1.65974	0.5271	77.58	-0.2101	0.069	0.2791	958.0346	0.171418	-403.081927	-403.074309	-403.073365	-403.113296	31.327	
C	-0.1879579899	 1.5925844031	-0.0651207205	-0.460726
C	-0.0164659836	 0.0836649029	-0.0405584607	 0.310515
C	-1.3004641355	-0.6317291909	 0.3751726146	-0.42427
C	 0.621269438	-0.5915443052	-1.2820540743	 0.059712
O	 1.7759319173	 0.1418479992	-1.7576040172	-0.308255
C	 2.6189080714	-0.4296704948	-0.7262326963	 0.089274
C	 2.4061365658	 0.2625843088	 0.6272888618	-0.195869
N	 1.104345808	-0.4699355439	 0.8470006481	-0.201049
C	 1.4946326106	-1.4037783126	-0.3059939975	-0.049708
H	 0.6401647314	 2.0805777926	-0.5820742706	 0.13406
H	-1.1125200186	 1.8604742523	-0.5869413735	 0.115335
H	-0.2531004283	 1.9860313055	 0.9556140468	 0.121781
H	-2.1154805961	-0.4046765344	-0.3205034608	 0.109874
H	-1.1628017773	-1.7174547726	 0.3994254816	 0.116592
H	-1.5962625369	-0.3138134835	 1.3791183833	 0.125345
H	-0.00304425	-0.9590426208	-2.1009381313	 0.073141
H	 3.6181847098	-0.6695242737	-1.0962651568	 0.079979
H	 3.1267622635	-0.0821751436	 1.377550434	 0.109043
H	 2.3619532894	 1.3536846348	 0.6487528655	 0.112473
H	 1.5444715511	-2.4798760832	-0.1562334662	 0.082753
