16
gdb 69905	2.9705	1.55396	1.17231	2.8691	70.12	-0.2359	-0.045	0.1909	1028.2094	0.122351	-437.792424	-437.784536	-437.783592	-437.824636	30.458	
O	-0.1236268515	 1.4018678072	 0.1432845917	-0.442463
C	-0.0464286887	 0.027756758	 0.0682725783	 0.337577
C	-0.8058101718	-0.8497276488	 1.0017424959	-0.341668
C	 0.7016671391	-1.0022191372	 0.878021659	-0.098415
N	 1.2504913382	-1.6895869821	-0.359988404	-0.14504
C	 0.1711175077	-2.1836256384	-1.2018329744	-0.273302
C	 0.4233107842	-0.7118397381	-1.2107779451	 0.119706
C	 1.0306455641	-0.049808907	-2.3856777613	 0.078054
O	 1.5886150969	-0.63855844	-3.2816514744	-0.260513
H	 0.760308903	 1.7726781053	 0.0339390097	 0.294704
H	-1.0705899053	-0.3341873692	 1.9203336015	 0.133985
H	-1.536356839	-1.5879156828	 0.6902298315	 0.121551
H	 1.3702996794	-0.922154789	 1.7246585342	 0.116676
H	 0.5430871871	-2.7021468803	-2.0810590428	 0.153806
H	-0.7368292347	-2.590140307	-0.7724434984	 0.130199
H	 0.9234724414	 1.0567955694	-2.4025670311	 0.075142
