25
gdb 123251	6.113	0.41854	0.40381	2.2881	87.95	-0.2593	0.0837	0.343	2769.9781	0.226936	-426.624507	-426.612795	-426.611851	-426.663273	40.61	
C	 0.0027075959	 1.4801620396	-0.0944070853	-0.380512
C	 0.0227512641	-0.0478681105	-0.0048140669	-0.163611
C	 0.7642730415	-0.56881787	 1.2311961904	-0.162047
C	 0.7868567439	-2.0976700547	 1.3220652956	-0.198518
C	 1.5238095636	-2.6041734163	 2.5539155865	-0.051178
O	 1.4973772851	-4.0182367933	 2.5540715592	-0.261222
C	 2.1692715896	-4.6067093678	 3.6515229267	-0.069443
C	 2.179011875	-6.1070969376	 3.4031635764	-0.057561
O	 2.8306688889	-6.4211388014	 2.1886721533	-0.422171
H	 1.0188042332	 1.8878364602	-0.1399033199	 0.113786
H	-0.5324800059	 1.8212985776	-0.986005443	 0.112547
H	-0.490331874	 1.9219036012	 0.7788672153	 0.113557
H	-1.0067789873	-0.4291595602	 0.0049219292	 0.096326
H	 0.4902494306	-0.4630175727	-0.9073381037	 0.096362
H	 1.7944510982	-0.1860685872	 1.2224171103	 0.094132
H	 0.2958201828	-0.15371522	 2.134651208	 0.093789
H	-0.2374154756	-2.4896668766	 1.3414121286	 0.105216
H	 1.2657688816	-2.5204010451	 0.4299647643	 0.101641
H	 2.5670427703	-2.2446581823	 2.5558355891	 0.087898
H	 1.0492183153	-2.2177500191	 3.4719908822	 0.086551
H	 3.2030800576	-4.2297224189	 3.7126572679	 0.093332
H	 1.6604947335	-4.3686727454	 4.6004704661	 0.085507
H	 2.7233738211	-6.6132884639	 4.2072056992	 0.106131
H	 1.1413348948	-6.4778414198	 3.4113189643	 0.091716
H	 2.4508225761	-5.8242752457	 1.5327784562	 0.287772
