20
gdb 92513	2.87032	1.51951	1.11467	3.6802	79.28	-0.2362	0.0209	0.2572	1134.9859	0.173029	-403.182564	-403.174401	-403.173456	-403.215387	31.251	
C	-0.4683414954	 1.5058938967	-0.0879737803	-0.39342
C	-0.0284317454	 0.0477037752	-0.0318544371	-0.09736
C	 0.7277329517	-0.4898446815	-1.272085177	-0.25731
C	 1.5700971382	-1.6449426004	-0.6927693418	 0.03352
C	 3.1272131375	-1.6619826459	-0.7729556473	-0.255101
C	 3.1439443069	-1.5054698407	 0.7779476692	-0.179755
N	 1.670524318	-1.3629782641	 0.7556451323	-0.085827
C	 0.9876527571	-0.2163399256	 1.1025106932	 0.369817
O	 1.1916769662	 0.471612808	 2.0775772627	-0.370729
H	 0.3761659143	 2.1600846865	-0.3281414438	 0.118756
H	-1.2436343913	 1.6570187886	-0.845044484	 0.108903
H	-0.8597487767	 1.8195443276	 0.8831152055	 0.138306
H	-0.9034999233	-0.589428091	 0.1575664708	 0.101196
H	 0.0639411901	-0.8053829728	-2.0804713237	 0.106542
H	 1.3821606114	 0.2969874529	-1.6671930025	 0.104409
H	 1.1154907045	-2.6210615712	-0.8973109104	 0.082659
H	 3.5761126103	-2.5753957287	-1.1661770809	 0.111948
H	 3.542467194	-0.8018419516	-1.3037549114	 0.113506
H	 3.4751986118	-2.3932866758	 1.3236340819	 0.11809
H	 3.6467339903	-0.6257345164	 1.1883003245	 0.13185
