14
gdb 127208	3.44258	1.30012	0.94941	2.0543	68.01	-0.2404	-0.0804	0.16	1137.2771	0.101397	-470.050312	-470.042134	-470.04119	-470.083404	28.636	
C	-0.0105751245	 1.4667062751	 0.0170600029	-0.359818
N	 0.0063958722	 0.0170115756	 0.0404677487	-0.173243
C	-0.0029715719	-0.743627952	-1.1328059213	 0.468735
O	-0.025234649	-0.363795661	-2.281698833	-0.419694
N	 0.0197329929	-2.0340554019	-0.6229549793	-0.28728
N	 0.0401940341	-2.1012211517	 0.7281804551	-0.217363
C	 0.0316446352	-0.8520137784	 1.1162953153	 0.275138
C	 0.0481481693	-0.4286832685	 2.5285695255	 0.093657
O	 0.0699804389	-1.1883301857	 3.4641096637	-0.237177
H	 0.8867354775	 1.8832565512	 0.483493991	 0.148761
H	-0.0353433062	 1.7577717649	-1.0348912002	 0.180998
H	-0.8973770664	 1.8625432264	 0.5200692276	 0.148728
H	 0.0193658455	-2.8774496831	-1.1721404023	 0.292713
H	 0.0386110225	 0.6727895192	 2.6707774362	 0.085845
