22
gdb 15182	8.34557	0.62234	0.60841	1.6737	79.75	-0.2618	0.0915	0.3532	1893.2141	0.198936	-350.193815	-350.184084	-350.18314	-350.22952	34.226	
C	-0.1616355133	 1.5306668229	 0.0255336381	-0.379431
C	-0.1028712998	 0.0023429	 0.0933340712	-0.164064
C	 0.8240941945	-0.5181713808	 1.1972186276	-0.161509
C	 0.8764491417	-2.0467469784	 1.2769107678	-0.171573
C	 1.8060746082	-2.5672994763	 2.3815455909	-0.223498
C	 1.825229062	-4.074161233	 2.4561492312	 0.100536
C	 1.9318937621	-4.8049415636	 3.7243389232	-0.181507
O	 0.679148988	-4.6989642624	 3.0457864854	-0.237234
H	 0.8293738063	 1.9577571506	-0.1654250804	 0.112135
H	-0.8292442232	 1.8709180091	-0.7723028258	 0.110791
H	-0.5263358853	 1.9548235313	 0.967785423	 0.113263
H	-1.113060123	-0.397026595	 0.2531724298	 0.096523
H	 0.2293237815	-0.3955760492	-0.8748070544	 0.09343
H	 1.8378863031	-0.1249019187	 1.0352037353	 0.088999
H	 0.4961021766	-0.1149489503	 2.165701644	 0.092539
H	-0.1315492582	-2.4432154193	 1.451788174	 0.11294
H	 1.2015637309	-2.4517908602	 0.3083662286	 0.09096
H	 2.8298054584	-2.207733256	 2.2082598886	 0.096939
H	 1.4884173092	-2.1699398385	 3.3532955254	 0.100545
H	 2.1787277269	-4.5804490516	 1.5547270892	 0.087312
H	 2.3713464304	-5.8015635104	 3.7451631198	 0.111633
H	 2.006117543	-4.2477468801	 4.6577929673	 0.110274
