18
gdb 35740	2.91916	1.3007	1.14729	3.7847	75.37	-0.2475	0.0274	0.2749	1121.6812	0.150196	-398.112586	-398.104501	-398.103557	-398.146126	30.526	
N	 0.5787858775	-1.0957096824	 0.1548132173	-0.324693
C	 0.2666599541	 0.0174453802	 0.1225408902	 0.260378
C	-0.0869949092	 1.454507176	 0.0472445434	-0.141213
C	-0.7373072577	 1.9527075178	 1.3549349783	-0.289689
C	 0.4694382233	 2.2990193091	 2.2284087298	 0.354021
C	 0.3144497178	 3.00968442	 3.5183269991	-0.295971
N	 0.7451892686	 1.5997737313	 3.4889953861	-0.345295
C	 1.6602032471	 2.4821832121	 1.2796415803	-0.230818
N	 1.069464548	 2.342944211	-0.0636827313	-0.29771
H	-0.7492164644	 1.5839698601	-0.8147547358	 0.125121
H	-1.317687395	 2.8499294706	 1.1211730695	 0.12617
H	-1.4030153438	 1.2166431327	 1.8112345413	 0.119655
H	 1.0745703384	 3.7131346013	 3.8486826731	 0.121694
H	-0.6930742446	 3.2463127785	 3.8542078261	 0.111898
H	-0.0274912038	 0.9873195407	 3.7392414094	 0.232968
H	 2.1301979732	 3.4664286169	 1.3733136002	 0.112417
H	 2.4134448131	 1.7174448066	 1.5127599633	 0.124541
H	 1.7388685875	 2.0257704575	-0.7548467803	 0.236527
