15
gdb 66692	2.5823	2.02586	1.66543	0.5405	63.03	-0.2253	0.0416	0.2669	848.027	0.111287	-457.656229	-457.648984	-457.648039	-457.687916	28.424	
O	-0.0215715611	 1.3164029083	 0.0558040303	-0.45754
C	 0.0504341713	-0.0515040324	-0.0269040362	 0.31016
C	-0.9903703153	-1.0553595714	 0.4132101702	-0.229183
C	-0.2522466323	-2.0821228511	-0.4994998019	-0.082481
C	 0.6723775768	-0.9745522536	-1.1063613232	-0.01696
O	 1.8702168482	-1.5667663575	-0.5376978127	-0.30587
C	 0.9840046813	-2.1420948946	 0.4585862326	-0.017032
C	 0.2951406818	-0.9697306798	 1.2036366506	 0.310106
O	 0.4602992584	-0.4921903922	 2.4795270594	-0.457517
H	 0.8459788895	 1.6634702794	 0.2953794456	 0.286475
H	-2.0239132727	-0.9410295116	 0.7040126186	 0.109632
H	-0.6823059392	-2.9206282563	-1.039414625	 0.089131
H	 0.7690898773	-0.6707567818	-2.1481368348	 0.087308
H	 1.3923792946	-3.0059771744	 0.9819266826	 0.0873
H	 1.2904472216	-0.003280101	 2.5276578739	 0.286472
