14
gdb 49398	2.63197	2.05918	1.42595	6.0505	65.25	-0.2485	-0.0439	0.2046	882.4237	0.099916	-436.628443	-436.621388	-436.620444	-436.660431	26.325	
O	 0.0010212751	-0.1066112116	 0.2094538431	-0.220295
C	 0.0591553455	 1.0566642346	-0.0881640114	 0.148135
C	 1.2993336728	 1.9120156908	-0.0119780499	-0.083045
C	 1.5077524753	 2.8095296807	 1.2188550233	-0.105486
C	 2.9525977477	 2.5001843393	 1.1486102732	-0.026754
C	 2.143467233	 1.8957729958	 2.2928152923	-0.209709
C	 2.3872930914	 0.587485784	 1.6173455335	 0.45051
O	 2.6100384941	-0.5272691775	 1.9501861798	-0.304789
N	 2.6354535361	 1.260639638	 0.2867042056	-0.226666
H	-0.8414297629	 1.6172173442	-0.4325195515	 0.084764
H	 1.3853248844	 2.502525757	-0.9313020952	 0.114234
H	 1.016516961	 3.7330983076	 1.4999312613	 0.117662
H	 3.8844512002	 3.0430337818	 1.1481290348	 0.134074
H	 2.1453239662	 2.1559413654	 3.3424295911	 0.127366
