14
gdb 7730	3.41992	1.9738	1.29534	3.3135	59.51	-0.2495	-0.0271	0.2224	877.07	0.109737	-415.924117	-415.917389	-415.916445	-415.955291	25.077	
O	-0.0119484919	-0.0609042616	-0.0445254965	-0.334815
C	-0.0563743319	 1.1440117285	 0.0185749901	 0.436399
C	-1.349132142	 1.9452370247	 0.0456652183	-0.283682
N	-1.149201986	 3.2246023872	 0.7097924022	-0.31036
C	-0.1331798567	 4.0315655639	 0.0507750251	-0.283728
C	 1.2012977127	 3.3019374002	 0.0247238448	 0.436381
O	 2.2716344726	 3.8574448425	-0.0349801361	-0.334805
N	 1.1025306903	 1.9140082007	 0.0346526313	-0.355599
H	-1.6916328801	 2.029060583	-1.0050147788	 0.115904
H	-2.0876542155	 1.3477800087	 0.5834812415	 0.146699
H	-2.0228514563	 3.7336253079	 0.7691284066	 0.238173
H	-0.3724323821	 4.2916907069	-0.9996386441	 0.115943
H	 0.0211998344	 4.9668511846	 0.5920822639	 0.146674
H	 1.9779915225	 1.4038614428	 0.0048318517	 0.266816
