17
gdb 12388	2.95749	2.19614	1.3528	4.4584	64.97	-0.24	0.012	0.252	908.9233	0.143808	-401.031457	-401.023953	-401.023009	-401.063394	28.035	
C	 0.1081521095	 1.5673466046	-0.0508649401	-0.397245
C	 0.0833249751	 0.0406052424	-0.011428581	-0.099727
N	 0.6950669346	-0.5236029274	-1.2126920241	-0.308155
C	 0.7852774354	-1.9720335582	-1.12081553	-0.185587
C	 1.7787001515	-2.2794859295	-0.017586043	-0.041863
O	 1.4327851359	-1.6456625035	 1.2258883437	-0.235112
C	 0.7514847527	-0.4782240792	 1.2696195128	 0.443151
O	 0.6187243891	 0.0803695238	 2.3249133644	-0.328042
H	 1.1337629637	 1.9272853798	-0.1675560629	 0.131329
H	-0.4834463543	 1.9328715822	-0.8965807546	 0.106358
H	-0.3067287536	 1.9719534708	 0.872701119	 0.1483
H	-0.9702936216	-0.2889504043	 0.1010483938	 0.093014
H	 0.16191052	-0.2400818759	-2.027497964	 0.225124
H	-0.1826221005	-2.4606214882	-0.9008232318	 0.092165
H	 1.1612688241	-2.3827439919	-2.0631505877	 0.113156
H	 1.8256370963	-3.3495287322	 0.2007124819	 0.119415
H	 2.775564502	-1.9304098832	-0.3084730063	 0.123719
