21
gdb 84723	2.43855	1.66738	1.16382	0.548	90.58	-0.2045	-0.0196	0.1849	1132.5812	0.184669	-349.957372	-349.949266	-349.948322	-349.98986	32.678	
C	-0.1090060913	 1.5070385819	 0.0493302068	-0.401454
C	 0.0548646575	-0.0206171257	-0.0347560725	-0.039471
C	 0.7952281597	-0.401971101	-1.2963365476	-0.080154
C	 1.122893834	-1.641265903	-1.6874442613	-0.091194
C	 0.9181607734	-2.8815109667	-0.9476508068	-0.110804
C	 0.8416130562	-3.0357101402	 0.3857092907	-0.061176
C	 0.9951536271	-2.0220433007	 1.4519884897	-0.078355
C	 2.0988771663	-0.9650439392	 1.4108397178	-0.295692
C	 0.6666060398	-0.5517314106	 1.2670894236	-0.009435
H	 0.866594472	 1.9988210043	 0.1323808475	 0.119318
H	-0.609436502	 1.8975550697	-0.842345283	 0.112738
H	-0.7044710296	 1.7944594204	 0.9214130787	 0.10921
H	-0.9521052667	-0.4631802993	-0.0980980739	 0.091604
H	 1.039619006	 0.4215304481	-1.9640437879	 0.081905
H	 1.5774424429	-1.7553190296	-2.6702511376	 0.084136
H	 0.8584856738	-3.7820520699	-1.5551343469	 0.084019
H	 0.6871928463	-4.0475427657	 0.7539624011	 0.087642
H	 0.7798273329	-2.4107656778	 2.4424389106	 0.080866
H	 2.6203848869	-0.7437357513	 2.3355463819	 0.108403
H	 2.7225000733	-0.9551314725	 0.5252023303	 0.128151
H	 0.2286545814	-0.0834145213	 2.147047079	 0.079743
