21
gdb 117745	2.00565	1.06182	0.93788	3.6045	79.52	-0.2516	-0.0392	0.2124	1429.0978	0.178014	-424.25019	-424.239161	-424.238217	-424.287161	38.251	
C	-0.1546137497	 1.6952155647	-0.3299785091	-0.376695
C	 0.0349694276	 0.1808012187	-0.1965637968	-0.202831
C	-1.3084499875	-0.5501282945	-0.0726435491	-0.191725
C	-1.2486415078	-2.0936017842	 0.0542703811	 0.035373
C	-0.510310485	-2.761548655	-1.1276370004	-0.446584
C	-0.5479248727	-2.4799331403	 1.3523196761	 0.146652
O	-1.1207445662	-2.8426226898	 2.3480969113	-0.249139
C	-2.6664659402	-2.671897797	 0.1009092624	 0.158474
O	-3.6684055099	-2.0486818592	-0.1257062985	-0.252531
H	 0.8070170982	 2.2087237717	-0.4228621601	 0.11483
H	-0.7527213025	 1.9409607399	-1.214216778	 0.119806
H	-0.6716439695	 2.107486228	 0.5430943321	 0.12178
H	 0.587476751	-0.1904222781	-1.0678493666	 0.101196
H	 0.6655861911	-0.0258766453	 0.6771516734	 0.100363
H	-1.8591318455	-0.1606510951	 0.7914545404	 0.120215
H	-1.9335825037	-0.3251426302	-0.9441206492	 0.119058
H	 0.5619294631	-2.5480891827	-1.0922679785	 0.134386
H	-0.6313316972	-3.8501003718	-1.10732055	 0.130075
H	-0.9001752295	-2.3935846316	-2.0810292756	 0.139776
H	 0.5626918915	-2.4005820468	 1.3264356895	 0.084717
H	-2.7015868955	-3.7585438314	 0.3323022656	 0.092805
