20
gdb 105988	2.75084	1.52648	1.19368	1.9879	82.15	-0.2053	0.073	0.2783	1126.7986	0.16955	-365.90324	-365.894682	-365.893738	-365.936342	32.868	
C	-0.2742850307	 1.5051450099	 0.0901496719	-0.371651
C	 0.1257465856	 0.0270966916	-0.0253509159	-0.334584
C	 0.8390429521	-0.4912171475	 1.18176809	 0.318504
C	 2.1800998671	-0.1069734064	 1.8697486285	-0.123816
C	 1.6391201005	-0.4828620499	 3.2001148289	-0.048861
C	 0.2837181813	-0.8781212039	 2.5715873806	-0.228286
C	 1.036521738	-1.8864380874	 1.7303265754	 0.308719
C	 0.7122458903	-3.2497084369	 1.2290822098	-0.521576
N	 2.375547418	-1.5103156871	 2.3822033607	-0.210838
H	 0.6051636015	 2.1402941026	 0.2394439379	 0.120084
H	-0.7832032777	 1.847114367	-0.8161552686	 0.112019
H	-0.9461904149	 1.6635259817	 0.9395672379	 0.119332
H	-0.7701618952	-0.5846483627	-0.1948060619	 0.101642
H	 0.7587202135	-0.1122969492	-0.9127057882	 0.104503
H	 3.0158831276	 0.5199350265	 1.5790031758	 0.090662
H	 1.946341434	-0.2166769457	 4.2047964163	 0.09312
H	-0.7391138045	-0.8677598717	 2.9230685963	 0.088553
H	-0.2979136076	-3.2751278536	 0.8068867671	 0.122359
H	 1.4166700871	-3.5588554465	 0.4487410241	 0.129155
H	 0.759768434	-3.9854860209	 2.0395892135	 0.13096
