17
gdb 91256	4.01902	1.23264	1.00798	4.8523	77.9	-0.2204	-0.014	0.2064	1159.3482	0.137827	-418.011561	-418.003873	-418.002929	-418.043716	29.471	
C	 0.2128172671	 1.2504973153	-0.1992874584	-0.333363
N	 0.0270848468	 0.0984615481	 0.6591749119	-0.123
C	-1.1514243438	-0.8290680046	 0.5439414555	-0.215153
C	-0.1905056959	-1.9740022943	 1.0559869947	-0.047398
N	 0.1987538173	-3.1711507857	 0.3685507698	-0.359644
C	 1.5511832207	-3.0452990804	-0.0672815122	 0.414551
O	 2.2082579216	-3.967449101	-0.4897844811	-0.37326
C	 1.898491376	-1.5948992828	 0.0077569059	-0.403388
C	 0.8634364651	-1.0062341382	 0.6272785602	 0.334744
H	 1.1538578933	 1.7449918283	 0.0565497042	 0.142756
H	 0.2403035315	 0.9755279625	-1.2657807192	 0.119939
H	-0.6001924977	 1.9629419717	-0.0372042091	 0.135038
H	-2.0080184236	-0.5532702773	 1.1643119345	 0.115656
H	-1.4505292243	-0.9828338012	-0.4988750793	 0.123864
H	-0.2951065627	-2.1013563246	 2.1379816088	 0.111588
H	-0.0700811322	-4.0804086934	 0.715208787	 0.2421
H	 2.7285929408	-1.1713491925	-0.5349296533	 0.114971
