15
gdb 132367	1.97987	1.8206	0.95436	3.5168	71.93	-0.239	-0.0131	0.2259	1152.2096	0.113053	-458.176959	-458.168862	-458.167918	-458.21011	30.041	
C	-0.020801417	 1.4667918012	 0.0227828246	-0.457231
C	 0.0206803364	-0.0354633103	 0.0139711396	 0.351667
N	 0.0625454983	-0.6254573596	-1.1915752473	-0.35326
C	 0.0992026458	-1.9408393582	-1.1688106449	 0.346121
F	 0.1382451156	-2.5446642015	-2.3504462933	-0.067419
C	 0.0988125675	-2.7217370766	-0.0297331336	-0.368918
C	 0.0541030564	-2.0031012261	 1.1728718959	 0.417892
N	 0.0872139523	-2.6190432958	 2.3895515488	-0.566052
N	 0.0113898273	-0.6579986807	 1.1904339806	-0.351284
H	 0.8754073785	 1.8684249989	-0.460856958	 0.143029
H	-0.8790423514	 1.8226169177	-0.5553934193	 0.142001
H	-0.0828730151	 1.8416012274	 1.0443026406	 0.132369
H	 0.1350366623	-3.8018498119	-0.0771326439	 0.106288
H	-0.1434328651	-3.5956835894	 2.4540823877	 0.260555
H	-0.1429475919	-2.0407341651	 3.1814743624	 0.264243
