23
gdb 100980	1.9924	1.48874	1.00507	2.8021	82.45	-0.2187	0.0747	0.2934	1296.9079	0.203082	-425.403102	-425.392468	-425.391524	-425.438517	39.724	
C	-0.2531801712	 1.5235155865	 0.0839409373	-0.244963
O	-0.1571857466	 0.1406406558	 0.3632307375	-0.270098
C	-1.3210675369	-0.631115255	 0.025862811	 0.065792
C	-1.4205976609	-0.8089103698	-1.4928718046	-0.403515
C	-1.2605241008	-1.9653300469	 0.7696126989	 0.267846
C	-2.4644650904	-2.8584426058	 0.5239810752	-0.469187
C	 0.094087259	-2.6416091429	 0.951512461	-0.370957
C	-0.6250694436	-2.0527460004	 2.1429949628	 0.100498
O	-0.137575067	-0.9590563473	 2.8510891491	-0.438907
H	 0.6406471404	 1.9949937381	 0.499362233	 0.134083
H	-0.2853257105	 1.72931524	-0.9934207872	 0.119807
H	-1.1428743768	 1.9683149903	 0.5532199926	 0.115777
H	-2.2088328503	-0.0806093903	 0.3823029367	 0.072732
H	-0.5676699025	-1.386035818	-1.8619820922	 0.128845
H	-2.340180329	-1.333414845	-1.7635890306	 0.124965
H	-1.436472954	 0.1557405825	-2.0071600805	 0.114197
H	-2.4991615713	-3.2345051749	-0.5044237132	 0.11714
H	-2.4348902833	-3.7298379679	 1.1847279784	 0.118635
H	-3.4041944262	-2.3277272947	 0.7211828424	 0.114226
H	 0.1593366565	-3.7196446764	 0.8387186516	 0.100905
H	 0.962420975	-2.0947419609	 0.5998859251	 0.119982
H	-1.0904104779	-2.7531432721	 2.8310643376	 0.093427
H	 0.1250419584	-0.308833305	 2.1840948881	 0.28877
