22
gdb 61917	3.48903	0.70715	0.61857	4.2844	87.33	-0.2864	0.0388	0.3253	1807.5466	0.193355	-367.225126	-367.21496	-367.214016	-367.261153	36.878	
C	-0.1904762086	 1.4206830997	 0.1315204845	-0.399683
C	 0.0355810425	-0.0908840744	-0.0254760833	 0.00354
C	 0.7629276558	-0.4522024525	-1.334284927	-0.177095
C	-0.0374385634	-0.1023235583	-2.6062695758	-0.355013
C	 0.6405665035	-0.5362946828	-3.825777391	 0.258951
N	 1.1911323999	-0.8857839939	-4.7799203384	-0.306377
C	 0.8039862542	-0.6439680572	 1.1631197841	 0.036731
C	 0.0892427904	-0.9917441498	 2.4432930316	-0.278217
C	 0.6563728493	-2.0871863407	 1.572256164	-0.275667
H	 0.7636889026	 1.9605627352	 0.1184731102	 0.117341
H	-0.8188641016	 1.8339301804	-0.6634985772	 0.112028
H	-0.681360185	 1.6372318994	 1.0847824548	 0.123483
H	-0.9475686938	-0.5856516539	-0.0405877097	 0.068263
H	 1.7326819104	 0.0587906154	-1.3719511986	 0.115385
H	 0.9766874294	-1.5258073639	-1.3399786081	 0.122408
H	-1.0261023148	-0.5761601962	-2.5732907493	 0.148937
H	-0.2089578366	 0.9767538802	-2.6779020452	 0.153708
H	 1.79914413	-0.2184052352	 1.2782260125	 0.081853
H	 0.5778055963	-0.7759226406	 3.3869097128	 0.113776
H	-0.9897706317	-0.8757115796	 2.4670590383	 0.110468
H	-0.0454013787	-2.7014241372	 1.0166896093	 0.110164
H	 1.53339068	-2.6222352642	 1.9188027116	 0.115016
