17
gdb 127491	3.20707	1.21649	0.93011	1.5036	72.18	-0.2077	0.007	0.2147	1237.2048	0.137722	-451.351509	-451.342512	-451.341568	-451.385312	32.589	
C	 0.1937795357	 1.3659062454	 0.0334945637	-0.338898
N	 0.1076426631	-0.078500638	 0.0712468531	 0.006783
N	 0.1097155685	-0.7970848052	-1.0919193053	-0.334611
C	-0.0224477651	-2.0413349555	-0.6485079077	 0.385957
N	-0.1318856889	-3.1298808082	-1.4918207545	-0.585373
N	-0.0925306011	-2.169494126	 0.7058090888	-0.365617
C	-0.0161530611	-0.9111044879	 1.1232012423	 0.305759
C	-0.0586371079	-0.4833705822	 2.5595725557	-0.188744
O	 1.0419524324	 0.3365116169	 2.9410769074	-0.407111
H	 0.950575064	 1.6548419603	-0.6988062957	 0.150823
H	-0.7641724171	 1.8068222887	-0.261378742	 0.140786
H	 0.4851105213	 1.723163154	 1.0210485147	 0.165977
H	 0.2723448003	-2.9780758657	-2.404317979	 0.255291
H	 0.1740587477	-3.9915189514	-1.0643899717	 0.256144
H	-0.9500372147	 0.1208519018	 2.7596459315	 0.12936
H	-0.1294347975	-1.3938727439	 3.1662477017	 0.132318
H	 1.8472626004	-0.1724020131	 2.7973925768	 0.291153
