23
gdb 109251	3.32291	1.10033	0.94358	0.265	91.78	-0.2258	0.0331	0.2589	1365.1768	0.207615	-351.170463	-351.161665	-351.160721	-351.204018	34.54	
C	-0.3637403649	 1.1810316654	 0.3545001854	-0.372028
C	-0.054497601	-0.2424660809	-0.1419979591	-0.273172
C	 0.8186767045	-0.2853467552	-1.3736072024	 0.328444
C	 2.0407559738	-0.8241710193	-1.3460513974	-0.16714
C	 2.987096473	-0.8910635064	-2.5142225719	-0.269444
C	 2.3092727243	-0.7102443423	-3.8608971404	-0.01993
C	 1.1184282005	-1.5658565	-4.2213405091	-0.288822
C	 0.9306415585	-0.0996371609	-3.9157509415	-0.018313
C	 0.247199116	 0.3338444463	-2.6304890234	-0.313224
H	 0.5594464668	 1.7198605387	 0.5915661376	 0.117651
H	-0.907039963	 1.762682862	-0.3966531966	 0.118237
H	-0.9805348488	 1.1509957015	 1.2581892561	 0.111181
H	 0.4290959032	-0.80744852	 0.6626323257	 0.096296
H	-1.0057455801	-0.7519891665	-0.3543555391	 0.097165
H	 2.4082117699	-1.2400941748	-0.4095253546	 0.072024
H	 3.7608935656	-0.1171404491	-2.3942711109	 0.106211
H	 3.5309199931	-1.8460719343	-2.4920853452	 0.100982
H	 2.9848863771	-0.4636835924	-4.6747767726	 0.075923
H	 1.0117497264	-1.895571374	-5.2490583303	 0.103298
H	 0.7739440442	-2.2818261234	-3.4816844083	 0.111832
H	 0.7151427056	 0.5385162576	-4.7679966008	 0.075842
H	-0.8294325469	 0.1137911102	-2.6867191559	 0.097398
H	 0.3121227622	 1.4287466977	-2.5487489352	 0.109591
