20
gdb 92270	2.26506	1.69227	1.49517	1.408	78.04	-0.2424	0.0199	0.2622	1031.8044	0.171511	-403.165999	-403.157661	-403.156717	-403.198665	32.394	
C	 0.1305794665	 1.5836022325	-0.0469600752	-0.403372
C	 0.0445050058	 0.0672794095	 0.0321687114	-0.001282
C	 0.9156931236	-0.7766656414	-0.9541851491	-0.271501
C	 1.4097027618	-1.6457240617	 0.2240648459	 0.047085
O	 2.824183895	-1.5355687512	 0.4962168311	-0.229236
C	 2.9169525465	-0.4986870437	 1.3682715032	 0.100258
N	 1.8698411616	 0.0609220288	 1.8146940766	-0.297615
C	 0.7244360118	-0.6720305679	 1.2357357516	 0.291348
C	-0.1812669986	-1.1996567396	 2.3349669469	-0.458501
H	 1.1644201465	 1.9242676768	 0.0575054861	 0.125345
H	-0.2567909964	 1.9413749842	-1.007346365	 0.109242
H	-0.4539816674	 2.0578309606	 0.7482038448	 0.118561
H	-1.004013596	-0.2451774499	-0.0276284116	 0.068609
H	 0.3778797571	-1.3038591729	-1.7452834162	 0.104261
H	 1.7349897976	-0.2116441243	-1.4066884813	 0.110901
H	 1.143694044	-2.703281422	 0.2186270308	 0.087347
H	 3.9340992225	-0.2267248521	 1.6299479162	 0.137936
H	-0.6191779777	-0.3685272208	 2.8968491866	 0.130264
H	-0.9958835829	-1.8004961676	 1.9172550333	 0.109278
H	 0.3805852088	-1.8211305374	 3.0396188738	 0.121071
