21
gdb 41024	3.17504	1.75471	1.48063	0.2137	87.58	-0.2246	0.0793	0.3039	977.6686	0.184638	-349.828895	-349.822039	-349.821095	-349.859573	29.866	
C	 0.0519975942	 1.5553824132	 0.2785272895	-0.215503
C	 1.5395157854	 1.5636587015	-0.1870284688	-0.325588
C	 1.3860252623	 0.1252010654	-0.7122218586	 0.356077
C	-0.1004642326	 0.0595808525	-0.0712274644	-0.10947
C	 0.4728162967	-0.8898725705	 1.0661099715	-0.357192
C	 1.7099917216	-1.0839546695	 0.1651538157	 0.286951
C	 3.2139845685	-0.9288295974	-0.2218081172	-0.320186
C	 2.3623522725	-0.7360501371	-1.5635495596	-0.161399
C	 1.5411641628	-1.9606320637	-1.116232003	-0.23765
H	-0.1356129534	 1.8185932168	 1.3236197741	 0.094412
H	-0.5753854202	 2.1896042674	-0.3534822576	 0.100126
H	 1.7398499101	 2.2998308133	-0.9709051999	 0.100832
H	 2.2851663749	 1.7113037575	 0.6028457399	 0.093594
H	-1.0208568835	-0.2627088267	-0.5600727063	 0.066024
H	 0.6456506642	-0.3460564085	 1.9996298391	 0.10253
H	-0.0925242839	-1.7984404467	 1.2902729666	 0.100163
H	 3.7310618169	-0.0464472836	 0.1604432843	 0.09918
H	 3.8625995054	-1.810820852	-0.1911584221	 0.090183
H	 2.7779516348	-0.5431659199	-2.5576346334	 0.062951
H	 2.0529363994	-2.9270693531	-1.1066566862	 0.083068
H	 0.531114444	-2.0449697791	-1.5239316637	 0.090899
