23
gdb 118134	3.15064	0.78469	0.71967	1.0355	83.58	-0.2528	0.0879	0.3407	1706.0121	0.202648	-425.402919	-425.391906	-425.390962	-425.439856	38.832	
C	-1.5168801078	-1.3112473529	-1.8674192006	-0.228164
O	-1.5950710888	-2.1492483505	-0.7404561813	-0.23705
C	-0.4209411142	-2.1287474328	 0.0428364402	-0.049572
C	-0.610696145	-3.0636959479	 1.2400146281	-0.038298
C	-0.848439008	-4.5138423912	 0.7970824438	-0.399862
C	 0.6006755654	-2.9703479876	 2.1430326902	 0.058652
O	 0.8020238755	-1.7504594708	 2.8690586061	-0.27254
C	 0.5654667418	-2.950441459	 3.6159518936	 0.074862
C	-0.6832810497	-3.0118026445	 4.4579264914	-0.421627
H	-0.7017330262	-1.6114717665	-2.5453873015	 0.102516
H	-2.4668441472	-1.3900312623	-2.4019809575	 0.125271
H	-1.3542253855	-0.2591314021	-1.584327015	 0.105234
H	 0.4476011703	-2.452485997	-0.5596828815	 0.077611
H	-0.2112671014	-1.1079686246	 0.3997435604	 0.104512
H	-1.4913421211	-2.7051447685	 1.7824768136	 0.086822
H	-1.0666067003	-5.1596285154	 1.6532437671	 0.11206
H	-1.6873906363	-4.5619907444	 0.1001387827	 0.13743
H	 0.0353836037	-4.9184319674	 0.2891144808	 0.110384
H	 1.517460365	-3.3546233094	 1.6852192766	 0.082195
H	 1.4594400914	-3.3228408186	 4.122094519	 0.085584
H	-0.5582326807	-2.3999779967	 5.357532824	 0.129746
H	-1.5585087681	-2.6431693543	 3.9198835957	 0.132314
H	-0.8760851327	-4.0412172156	 4.7793639641	 0.121921
