13
gdb 9570	4.76502	1.32168	1.22323	3.669	66.3	-0.2852	-0.0206	0.2645	973.8096	0.092517	-361.416574	-361.408526	-361.407582	-361.448877	28.798	
C	-0.0544617693	 1.5421354343	-0.0445116499	-0.471759
C	-0.0372729961	 0.0329248256	 0.0502561548	 0.185251
O	 1.2394670372	-0.5966847976	-0.1617718301	-0.247669
C	 0.6915455514	-0.6684199343	 1.1496171974	-0.147437
C	 1.3682695022	 0.0753488234	 2.1902332099	 0.308297
N	 1.8906486871	 0.6590166794	 3.0401844227	-0.323826
C	-1.1657173696	-0.653730025	-0.5335687402	 0.283674
C	-2.1187481309	-1.1954017427	-1.0249830628	-0.398009
H	 0.8220508098	 1.9687554668	 0.4462682924	 0.156119
H	-0.0551200886	 1.842301329	-1.0957668916	 0.148492
H	-0.9580404488	 1.9395921815	 0.4257759715	 0.146293
H	 0.342580671	-1.6525427506	 1.4553370797	 0.149064
H	-2.9572405554	-1.6812898198	-1.4610180739	 0.211509
