17
gdb 46948	2.87808	1.85257	1.40939	3.7889	71.39	-0.2416	0.0178	0.2594	930.9238	0.139814	-418.006355	-417.999598	-417.998654	-418.037427	27.209	
O	 0.0070012926	-0.0499698376	-0.0532309222	-0.381467
C	-0.0346028893	 1.164999702	 0.0091625243	 0.403127
N	-1.2052630768	 1.8684297615	 0.0047116995	-0.329844
C	-1.2877299617	 3.3181114893	-0.0822890921	-0.167421
C	-0.0477005101	 3.9447430022	 0.5256270981	 0.026625
C	 0.3840454829	 3.4602463276	 1.9380956663	-0.277773
C	 1.5937343488	 2.8495399863	 1.245042368	-0.025297
C	 1.2220558576	 1.9882744876	 0.0915467922	-0.12621
N	 1.2487687117	 3.4583695659	-0.096934981	-0.166974
H	-2.0346985161	 1.3109611263	-0.1366141242	 0.249694
H	-1.3963855991	 3.6537918013	-1.1244804238	 0.12064
H	-2.1728423956	 3.660314006	 0.4670031314	 0.118165
H	-0.0991457019	 5.0306330252	 0.4316376857	 0.093594
H	 0.6514722787	 4.2907422502	 2.5933624348	 0.117941
H	-0.282532897	 2.7796309108	 2.4740376159	 0.118768
H	 2.6106448684	 2.8540855965	 1.6237866801	 0.104491
H	 2.0520523368	 1.4923635292	-0.4005702331	 0.121942
