19
gdb 105785	2.11167	1.59707	1.17211	2.3283	71.98	-0.2413	-0.0313	0.21	1135.1305	0.157733	-460.170564	-460.161308	-460.160364	-460.205436	33.093	
C	-0.1589517456	 1.6697629872	-0.1980902866	-0.264287
O	-0.1676032442	 0.2504227873	-0.0875947429	-0.283667
C	 0.5445946116	-0.4647707974	-1.0724067064	 0.395438
C	 0.2874889611	-1.9621719844	-0.8395480922	-0.309109
C	-0.1650559805	-2.4752899809	-2.2177564287	-0.216001
C	-0.7526629648	-1.2103545155	-2.8459244826	-0.090143
O	 0.0991998776	-0.1560650439	-2.3846162391	-0.289112
C	 2.0305401506	-0.0696779409	-1.0824896726	 0.123745
O	 2.9164522484	-0.7426313673	-0.6257408386	-0.248961
H	 0.7876197924	 2.1063912338	 0.1465051457	 0.116655
H	-0.3550596391	 1.9894608587	-1.2267608667	 0.132949
H	-0.9604777687	 2.0315121309	 0.4495772565	 0.132158
H	 1.1836971594	-2.4537512027	-0.4602174164	 0.13847
H	-0.50616991	-2.0526708357	-0.0949746593	 0.12232
H	 0.6915144958	-2.8205624359	-2.8050411916	 0.116493
H	-0.8862478398	-3.2933263329	-2.154208935	 0.108818
H	-0.734565375	-1.1954464927	-3.9382436782	 0.113429
H	-1.7844072297	-1.0377752529	-2.5082254601	 0.10508
H	 2.2331839905	 0.8994804751	-1.5858756952	 0.095723
