20
gdb 77929	2.24489	1.45747	1.42183	2.3702	76.29	-0.2136	0.0666	0.2802	1082.1351	0.16885	-440.205005	-440.195638	-440.194694	-440.238405	35.825	
C	-0.0666006104	 1.4716437457	-0.0863692107	-0.34055
N	-0.0916021119	 0.0143454171	 0.034240161	-0.176805
C	-1.1835743807	-0.6928829349	 0.8132281788	-0.143452
C	-0.2386405574	-1.9377965159	 0.7303847376	 0.161262
O	 0.0047794156	-2.504043991	-0.5082664207	-0.449614
C	 0.6441092107	-0.7108801493	 1.1681228001	 0.257163
C	 2.1298394701	-0.6337291081	 1.3481925572	-0.527184
C	-0.4898919247	-0.3867760284	 2.1747213198	 0.107275
O	-0.4873285884	 0.8996338554	 2.7373297429	-0.431777
H	-0.2593054856	 2.0243672335	 0.8361945276	 0.129135
H	 0.9152780196	 1.7641958575	-0.4750304643	 0.116828
H	-0.80910983	 1.7600307152	-0.8391999612	 0.113955
H	-2.2355828075	-0.6144476847	 0.5324902071	 0.077516
H	-0.3876022799	-2.7306800921	 1.4646450545	 0.082381
H	 0.1133432742	-1.7267686789	-1.0846200271	 0.277116
H	 2.6399178504	-0.9856436645	 0.445810542	 0.132436
H	 2.4532062229	 0.3914291063	 1.5554876783	 0.132902
H	 2.4449343024	-1.2630771946	 2.1867349491	 0.126526
H	-0.646851603	-1.1507075472	 2.9529457587	 0.066967
H	-1.3156822866	 1.0215883689	 3.2119691493	 0.287922
