17
gdb 2417	4.14045	3.34442	2.4372	0.2121	68.53	-0.28	0.106	0.386	633.3115	0.149302	-272.514099	-272.508173	-272.507229	-272.543288	24.129	
C	-0.0064793059	 1.4785624691	-0.0168053421	-0.520145
C	 0.0277042191	-0.0249256459	-0.0582241598	 0.368464
C	 0.5695429486	-0.9425312981	-1.1772412975	-0.303414
C	 0.0657230007	-1.9186908319	-0.0997357789	-0.03563
C	 0.5432173312	-0.9963501504	 1.0724939853	-0.067736
C	-0.831888972	-1.0430040178	 1.7670551622	-0.267336
C	-1.1597321654	-1.0127638731	 0.261365306	-0.067755
H	 1.0038321381	 1.8972810845	-0.0875288746	 0.118025
H	-0.5923060556	 1.8819651975	-0.8505485302	 0.118026
H	-0.4549564895	 1.8434538056	 0.9140185414	 0.118856
H	 0.0259085067	-0.9316169162	-2.1287600583	 0.084923
H	 1.6506433469	-0.9159915075	-1.3548987196	 0.084925
H	 0.0743896248	-3.0096373736	-0.0958625562	 0.065629
H	 1.5420573254	-0.9876771056	 1.5140801624	 0.063022
H	-1.0789596709	-1.9644589866	 2.3043937361	 0.08839
H	-1.1224184483	-0.1690695436	 2.3593362892	 0.088731
H	-2.1320275536	-1.0231081266	-0.2359150453	 0.063025
