19
gdb 92210	2.67187	1.90403	1.54986	2.8637	72.79	-0.2473	0.0546	0.302	927.2967	0.162254	-423.004092	-422.997251	-422.996307	-423.035612	28.392	
O	 0.1493679379	 1.3592713869	-0.2661008259	-0.440622
C	 0.0711687398	-0.0317830263	-0.0347486207	 0.128159
C	 0.7320618599	-0.4998011137	 1.2976690832	-0.25558
C	-0.3925495773	-0.9766496173	 2.2270685212	-0.034421
C	-1.2842025172	 0.1255025682	 2.8950267833	-0.253036
C	-2.3992192912	-0.1542673303	 1.8677951571	 0.121179
O	-2.2187412967	 0.5835130141	 0.6320042048	-0.324977
C	-1.4090318501	-0.485999943	 0.0556988241	 0.073454
C	-1.6010516063	-1.3600798564	 1.3106077564	-0.109072
H	-0.6472109071	 1.731570162	 0.140177488	 0.28701
H	 0.562948351	-0.5177476708	-0.8845415294	 0.078659
H	 1.4137027764	-1.333529211	 1.0941093793	 0.095283
H	 1.3294090397	 0.3108058423	 1.7242669609	 0.111063
H	-0.0602418722	-1.7433780823	 2.9285371429	 0.07221
H	-1.5853172861	-0.1492153342	 3.9102995108	 0.104504
H	-0.8984585705	 1.1486903126	 2.905307004	 0.107342
H	-3.4435079095	-0.1521364476	 2.1853042242	 0.082064
H	-1.8338350817	-0.8138055739	-0.896852907	 0.081631
H	-1.9605689787	-2.3832552193	 1.2315174827	 0.075149
