21
gdb 106811	2.40446	1.50404	1.11996	2.1315	78.36	-0.2228	0.0746	0.2974	1179.5972	0.18182	-424.219407	-424.210284	-424.20934	-424.252904	35.239	
C	 0.2167887721	 1.4659148115	 0.1970710823	-0.379587
C	-0.1697597948	 0.0238038166	-0.1503385946	-0.25358
C	 0.6147939626	-0.5354364353	-1.304620561	 0.427595
C	 2.0350781999	-1.0646392029	-1.1312028717	-0.429379
C	 0.896621836	-1.987913071	-1.5356942299	 0.312009
O	 0.4219628409	-2.9437545996	-0.6378216443	-0.47169
C	 0.6853802796	-2.2179275736	-3.0255515566	-0.297569
C	 0.7003081549	-0.7852599028	-3.5947570546	-0.098265
O	 0.309923416	 0.0873308922	-2.5324437207	-0.303763
H	 1.2698776792	 1.5311840764	 0.4904488223	 0.112205
H	 0.0682549381	 2.1236560325	-0.6639228594	 0.131873
H	-0.3889852386	 1.8452939481	 1.0256024993	 0.106744
H	-0.0239836018	-0.6358886337	 0.7112205674	 0.108695
H	-1.2345636303	-0.0246922865	-0.4081729375	 0.104472
H	 2.8077813495	-0.8068374956	-1.8481231881	 0.10967
H	 2.3775714016	-1.1624511686	-0.1061553411	 0.113734
H	 1.092029672	-3.6301240379	-0.5486203856	 0.283298
H	 1.4432401964	-2.8523975005	-3.4964552217	 0.097262
H	-0.291484112	-2.6951308284	-3.1553003881	 0.116298
H	 1.7049856049	-0.5173275591	-3.9511464417	 0.097834
H	 0.0016601937	-0.639478612	-4.4228706345	 0.112146
