20
gdb 57368	2.09941	1.5801	1.21859	2.7622	80.78	-0.2399	0.0414	0.2813	1131.8879	0.167282	-403.091922	-403.081704	-403.080759	-403.126178	38.941	
C	-0.3280299533	 1.4634917355	-0.0873803338	-0.427553
C	 0.0381334244	-0.0212085926	 0.0398337738	 0.238645
C	 0.9409834793	-0.2758429868	 1.2530480338	-0.415528
O	-1.157739527	-0.8036446903	 0.1503522513	-0.473434
C	 0.7230170868	-0.5138130217	-1.2538090468	 0.146815
C	 0.587561628	-1.9499835098	-1.6433149391	-0.278998
N	-0.1322340051	-0.9138695538	-2.3957250137	-0.366052
C	 1.9332750304	 0.1897381138	-1.6057755046	 0.278204
C	 2.9536205676	 0.7665108017	-1.8752493531	-0.405347
H	 0.5646120516	 2.0771186953	-0.2291287978	 0.139334
H	-0.9943737725	 1.620643252	-0.9401320249	 0.128736
H	-0.8365015473	 1.8087555086	 0.8205315851	 0.101117
H	 0.4620887599	 0.0889426217	 2.16884783	 0.101717
H	 1.1288709245	-1.3469093943	 1.3644518945	 0.125072
H	 1.8995719122	 0.2379316929	 1.1435789667	 0.13528
H	-1.6806791318	-0.440344335	 0.871292176	 0.284721
H	 1.4034622745	-2.4238896921	-2.1800185778	 0.122644
H	 0.0202872865	-2.5904308967	-0.9763755945	 0.13037
H	-1.0937594321	-0.8980260993	-2.058188482	 0.244375
H	 3.8504679034	 1.2749674409	-2.1297009631	 0.189882
