23
gdb 114810	2.56452	1.24995	1.11843	1.5248	85.28	-0.2365	0.0748	0.3113	1268.6126	0.204953	-388.27262	-388.263147	-388.262203	-388.306948	35.957	
C	 0.1816158536	 1.428108996	 0.2631292532	-0.383911
C	 0.0303617994	-0.0778983742	 0.0251172478	-0.187646
C	 0.646252501	-0.539757346	-1.2898941217	-0.006354
C	 2.2023989446	-0.4923881683	-1.4550174491	-0.254996
C	 2.2178776552	-1.9922747295	-1.8582006935	-0.132473
C	 2.3368804962	-2.9510223839	-0.6688882741	-0.0825
O	 0.9226244957	-2.8515917456	-0.3818023507	-0.328818
C	 0.6814893505	-2.0674245448	-1.5845285547	 0.433502
C	-0.3719630545	-2.6903179412	-2.4634867052	-0.476783
H	 1.235697737	 1.726601727	 0.2768469901	 0.115417
H	-0.3139398048	 2.0079344493	-0.5239164412	 0.109874
H	-0.257892161	 1.7237862154	 1.2209266181	 0.111436
H	 0.4897203186	-0.6406254516	 0.8449574888	 0.107973
H	-1.0349797602	-0.3440527224	 0.0362802689	 0.092539
H	 0.1631852752	-0.0197476608	-2.1268385465	 0.060897
H	 2.5528552485	 0.1893457487	-2.2328133566	 0.099632
H	 2.7565081394	-0.2736927345	-0.5362654242	 0.096093
H	 2.6901435873	-2.2691620725	-2.8003093878	 0.07131
H	 2.6157207953	-3.9803772976	-0.932017808	 0.096081
H	 2.9588478496	-2.61852099	 0.1721404282	 0.09603
H	-1.3421885532	-2.6835905245	-1.953202694	 0.127784
H	-0.4772690861	-2.135362732	-3.4013270828	 0.11432
H	-0.1223695573	-3.729766977	-2.697217145	 0.120593
