21
gdb 89820	2.95836	1.20793	0.9508	2.2513	86.75	-0.2304	0.0163	0.2466	1306.6212	0.181632	-387.097075	-387.08798	-387.087036	-387.130974	34.748	
C	 0.1341211463	 1.5991657312	-0.0562702001	-0.401445
C	 0.0185841812	 0.0724192649	 0.0450067152	-0.076767
C	 0.5972401629	-0.6764223548	-1.1862352854	-0.333127
C	 1.3923254467	-1.8498005981	-0.6115540576	 0.442801
C	 1.4460205437	-3.1941175555	-1.2093451859	-0.25089
O	 2.5531547146	-2.3000998843	-1.3322903909	-0.284675
C	 1.5056648262	-1.5887658717	 0.843386262	-0.269186
C	 0.7678604297	-0.541421936	 1.222216529	 0.326223
C	 0.6062258359	-0.0191866068	 2.6154207591	-0.49423
H	 1.1828666418	 1.9068598517	-0.1337477737	 0.119466
H	-0.3901646314	 1.9677197949	-0.9439814322	 0.116743
H	-0.3020304902	 2.0975128739	 0.8152900075	 0.113925
H	-1.0487397776	-0.1721013808	 0.1563041768	 0.079412
H	-0.1753980566	-0.9901481774	-1.8927926395	 0.102406
H	 1.2935436157	-0.0294810743	-1.730790488	 0.118765
H	 1.6147158103	-4.0668409929	-0.5777180306	 0.106592
H	 0.8970823515	-3.3930535237	-2.1303146132	 0.107309
H	 2.1090043073	-2.2107212364	 1.4954359283	 0.094028
H	 1.1627321562	-0.6227707675	 3.3370436325	 0.12536
H	 0.9558307841	 1.0168226808	 2.6996336614	 0.132113
H	-0.4498333581	-0.0158426873	 2.9155001152	 0.125178
