19
gdb 76306	1.81203	1.78543	1.27041	0.8866	76.12	-0.2551	0.0277	0.2828	1091.4968	0.157137	-422.979447	-422.96986	-422.968915	-423.013329	36.383	
C	 0.9408275999	 1.4989679649	 0.1928975539	-0.417225
C	 0.1678134429	 0.1919693485	 0.0408145307	-0.079501
C	 0.7878973612	-0.8339559518	-0.9628824352	 0.139359
O	 1.6702119824	-0.3962554444	-1.9538404279	-0.424417
C	 1.3612101947	-1.6721231907	 0.2451358071	-0.299597
C	 2.7602901715	-1.4086835319	 0.5039001278	 0.294031
C	 3.9121564264	-1.123923918	 0.7178212902	-0.439267
C	 0.3941499593	-0.8508175149	 1.1835414357	 0.139354
O	 0.8662043974	-0.430658292	 2.4296164963	-0.424413
H	 2.0057271513	 1.3362921859	 0.3869398482	 0.107611
H	 0.860381666	 2.0959731037	-0.71974138	 0.127878
H	 0.5400757824	 2.082150988	 1.0266151606	 0.127893
H	-0.885599801	 0.4167408735	-0.1506837144	 0.072585
H	 0.0119522734	-1.4074199803	-1.4760618983	 0.094987
H	 2.49533609	-0.1374808643	-1.5249619734	 0.285739
H	 1.1806516945	-2.7495711232	 0.2035779637	 0.105759
H	 4.9375408814	-0.9200752757	 0.9077287522	 0.208517
H	-0.5118313582	-1.4298079255	 1.3791857635	 0.094979
H	 1.7892529445	-0.168282332	 2.3254117595	 0.285728
