19
gdb 126758	2.57381	1.31542	0.93546	2.4356	79.64	-0.2102	0.0458	0.256	1296.0606	0.159001	-419.241141	-419.231568	-419.230624	-419.276079	34.537	
C	-0.1919602699	 1.509897407	-0.1016777213	-0.374989
C	 0.0880793627	 0.0079914759	-0.025809222	-0.142823
N	 0.8039251756	-0.4874609629	-1.1870351411	-0.020952
N	 0.1492342407	-0.6961007914	-2.3657058325	-0.342375
C	 1.0867188702	-1.0930388245	-3.219596405	 0.384287
C	 0.7276997444	-1.4311726411	-4.6320946419	-0.488629
C	 2.3649307665	-1.1402929428	-2.6079205172	-0.471297
C	 2.125874618	-0.7391566878	-1.3095610072	 0.463852
O	 2.9234579256	-0.568262796	-0.2287427552	-0.43733
H	 0.7411186574	 2.0805642254	-0.1257173497	 0.125277
H	-0.7637540844	 1.7414314143	-1.0037934058	 0.143318
H	-0.7698139817	 1.8312742263	 0.7704916919	 0.115231
H	 0.6892944733	-0.2339256278	 0.8540350229	 0.130613
H	-0.8485468856	-0.5529308696	 0.0371627096	 0.128026
H	 1.2648040013	-0.7969037456	-5.3463149443	 0.123716
H	 0.9763751666	-2.4710613608	-4.8723312145	 0.123908
H	-0.3445454658	-1.2895597822	-4.7837019815	 0.137007
H	 3.3092177049	-1.4260448111	-3.0432793175	 0.091326
H	 3.8164907602	-0.8374802351	-0.4637011179	 0.311834
