19
gdb 85684	2.48598	1.35428	1.0452	1.7611	81.72	-0.248	0.0438	0.2918	1208.3062	0.157069	-385.829013	-385.819977	-385.819033	-385.862715	34.349	
C	-1.1750024106	 0.9306198933	-0.0786684248	-0.42026
C	-0.0759121721	-0.1194441385	-0.0599237934	-0.057283
C	 1.2389665959	 0.1365541121	-0.857264371	-0.254908
C	 2.0633079798	-0.4864155059	 0.3223491165	-0.267697
C	 3.3066104675	 0.1339840359	 0.7252106881	 0.317055
C	 4.326840536	 0.6709813385	 1.0688912651	-0.44934
C	 0.7985746968	-0.2876604027	 1.1881195268	 0.438999
C	 0.7052879766	 0.3674942509	 2.4907745761	-0.263047
O	 0.4778157491	-1.0459796296	 2.3297186878	-0.275328
H	-0.7821124389	 1.9189723867	 0.1829198819	 0.116911
H	-1.6305662833	 1.0033417813	-1.0718605424	 0.120213
H	-1.9705193545	 0.682735459	 0.632412157	 0.125663
H	-0.4858966123	-1.1004700348	-0.3290833546	 0.089263
H	 1.3431541729	-0.3474569915	-1.8290093602	 0.110829
H	 1.4495924134	 1.2036084298	-0.9600346847	 0.115021
H	 2.2090314252	-1.5594061843	 0.1527276887	 0.114691
H	 5.2334955446	 1.1365664582	 1.3665371974	 0.195327
H	 1.6192950843	 0.6338971663	 3.0181018785	 0.128533
H	-0.1770687402	 0.9516987655	 2.7465866272	 0.115358
