19
gdb 35480	3.10095	1.48738	1.41871	0.9409	83.06	-0.2466	0.0582	0.3048	1009.7512	0.161159	-348.701219	-348.693933	-348.692989	-348.732719	30.108	
C	-0.0957342533	-1.2607634036	-0.1977476732	-0.498317
C	-0.0557946002	-0.0642585198	-0.0800367253	 0.357107
C	-0.0093018967	 1.3885390734	 0.0523267828	-0.196026
C	-0.6664670629	 1.9385194675	 1.3677326413	-0.226836
C	 0.5238780695	 2.3984682544	 2.2170866001	-0.035146
C	 1.5057007072	 1.2138716004	 2.5011271529	-0.238117
C	 2.3189849419	 1.6512426606	 1.2830205342	-0.053744
C	 1.5617694322	 2.9700590054	 1.2071903389	-0.095289
C	 1.4172774685	 1.9655607571	 0.1033440662	-0.032828
H	-0.1274557751	-2.3167129979	-0.3025942583	 0.191413
H	-0.5264455171	 1.817472053	-0.8142389352	 0.100587
H	-1.3132880232	 2.7879711462	 1.1233002774	 0.097473
H	-1.2773463431	 1.1818117615	 1.8667777646	 0.109331
H	 0.2515321636	 3.0100352969	 3.0772233993	 0.066011
H	 2.0657194988	 1.3739756208	 3.4262415336	 0.097634
H	 1.0850272522	 0.2032332975	 2.5045690366	 0.104155
H	 3.3755936424	 1.4673584093	 1.125782055	 0.080699
H	 1.9093506087	 3.9891787419	 1.1013783356	 0.083438
H	 1.9301796766	 2.1381077954	-0.8360734066	 0.088456
