21
gdb 63982	2.96	1.44245	1.25966	1.3367	77.09	-0.2485	0.0754	0.3238	1098.0972	0.182743	-424.223589	-424.215071	-424.214127	-424.256396	33.215	
C	 0.2047192071	 1.4979561307	 0.0257418126	-0.441568
C	 0.0428158683	-0.0173710012	-0.001918039	 0.297416
C	-1.4235169801	-0.4153644299	-0.1871238194	-0.441383
C	 0.9932647916	-0.8024019014	-0.9718607684	-0.324691
C	 1.4569295019	-1.7042659355	 0.2079107635	 0.099658
O	 2.8123219508	-1.6149561338	 0.6031782541	-0.252772
C	 2.9347723776	-0.3929543428	 1.2907821305	 0.009453
O	 1.7001363596	-0.1374503844	 1.9342870105	-0.257263
C	 0.6809068906	-0.7982244365	 1.2018861974	 0.046056
H	 1.2413281758	 1.791772919	 0.2087202738	 0.118783
H	-0.1103890105	 1.9352821454	-0.9286206878	 0.110535
H	-0.4060952561	 1.9449144716	 0.8177245187	 0.117008
H	-1.8105656507	-0.044409306	-1.142693923	 0.116144
H	-1.5524875046	-1.503810843	-0.17992985	 0.111556
H	-2.0467829765	-0.0012433649	 0.6135745293	 0.116449
H	 0.5005303124	-1.3249032614	-1.7956712377	 0.099922
H	 1.8101297711	-0.2028646247	-1.3824683078	 0.104291
H	 1.1932683514	-2.7600002893	 0.1417066604	 0.090032
H	 3.7224578392	-0.4848049232	 2.044799931	 0.119853
H	 3.1801582295	 0.4265047421	 0.5923809996	 0.084847
H	-0.0197505783	-1.2374537808	 1.9168091718	 0.075672
