19
gdb 100405	2.43027	1.14162	0.87346	1.2022	76.31	-0.2261	-0.0279	0.1983	1370.3916	0.157047	-456.365925	-456.355692	-456.354747	-456.401106	36.47	
C	 0.077592267	 1.1386728752	 0.2261549301	-0.22487
O	-0.2226020978	-0.1847657876	-0.2160578278	-0.251925
C	-1.5106298025	-0.5708978784	-0.1221403552	 0.478275
N	-1.6438549858	-1.893070624	-0.4604364615	-0.566488
N	-2.4137536757	 0.2427964698	 0.2866870458	-0.373114
C	-3.7705678222	-0.2779365898	 0.4578085202	-0.033388
C	-4.5790345469	 0.6775918039	 1.3311306705	-0.402269
C	-4.3556891082	-0.3967360435	-0.9417994486	 0.164617
O	-4.319760688	-1.4076635688	-1.6083680726	-0.271256
H	 1.156387252	 1.2475875656	 0.1059449903	 0.125785
H	-0.4521938316	 1.8799569725	-0.3774567153	 0.136178
H	-0.2088251018	 1.2739725595	 1.2722307242	 0.135687
H	-0.8316850531	-2.302441815	-0.8957433719	 0.258311
H	-2.5341065004	-2.1619074887	-0.8622170372	 0.281224
H	-3.7675874341	-1.2868102515	 0.8980005578	 0.08972
H	-4.0990978183	 0.7813245476	 2.3074750171	 0.127253
H	-4.6216658561	 1.6705930513	 0.8722844405	 0.12406
H	-5.601031736	 0.3134189007	 1.4797383654	 0.112482
H	-4.7660720706	 0.5467366913	-1.364190502	 0.089718
