21
gdb 120036	2.15117	1.27305	0.91079	1.9001	75.07	-0.2459	0.058	0.304	1351.428	0.181051	-461.340375	-461.330519	-461.329575	-461.375554	36.53	
C	 0.1594413456	 1.4841301645	 0.1495451019	-0.390665
C	 0.1663723201	-0.0277922303	 0.0123689048	-0.051308
O	 0.6463971413	-0.589542975	 1.2330865657	-0.291974
C	 0.6857990507	-2.0076714224	 1.2528181693	 0.030408
C	 2.1460674617	-2.5139911881	 1.0240548762	 0.14094
O	 2.9752438547	-1.7137306669	 0.223875088	-0.434409
C	 2.3549222247	-2.5154644154	 2.5661436926	-0.314763
C	 0.8071767094	-2.4571114582	 2.7386016814	 0.143966
O	 0.2469725125	-1.6050723742	 3.6956169228	-0.439186
H	 1.1687224919	 1.8649162577	 0.3322370764	 0.124469
H	-0.2196218883	 1.9431760961	-0.7681508798	 0.12438
H	-0.4800302982	 1.7938107522	 0.9811754688	 0.129176
H	-0.8481934168	-0.4049602461	-0.186773379	 0.101361
H	 0.8090924753	-0.3459914078	-0.8192105435	 0.113325
H	-0.124060868	-2.424530058	 0.6428038766	 0.063493
H	 2.1687479125	-3.5198337394	 0.5966365039	 0.09069
H	 2.8635676619	-0.8112182351	 0.5468885847	 0.282435
H	 2.8945786269	-3.3525032781	 3.0133601603	 0.10285
H	 2.8118927779	-1.5779728478	 2.8985730937	 0.101627
H	 0.3812187639	-3.4537236068	 2.8876802021	 0.087111
H	 0.2676063303	-0.723238791	 3.3000263731	 0.286073
