14
gdb 23652	3.89664	1.77305	1.2278	0.577	66.57	-0.2576	-0.0172	0.2403	917.385	0.107841	-386.75682	-386.75001	-386.749065	-386.788436	25.104	
C	 0.0052804091	 1.5041582719	-0.0008477734	-0.464627
C	 0.017493783	-0.0016672379	 0.0244081047	 0.35061
N	 0.14862327	-0.6166126135	-1.16099086	-0.321173
C	 0.1633526594	-1.9493521071	-1.1751794635	 0.009411
C	 0.0517082147	-2.7496537744	-0.0413164661	-0.271587
C	-0.0826137453	-2.091951113	 1.1702590787	 0.340418
F	-0.1945195903	-2.7932278669	 2.2971725932	-0.072814
C	-0.1020169512	-0.7069924152	 1.2238229124	-0.31794
H	 0.9327508842	 1.8818505657	-0.4425661461	 0.143755
H	-0.8157973724	 1.864543879	-0.6284618727	 0.14376
H	-0.1052715246	 1.9279990664	 0.9999228947	 0.119117
H	 0.2709730949	-2.4158115597	-2.1517032364	 0.115038
H	 0.0678983545	-3.8308192713	-0.0931195876	 0.11513
H	-0.2074263458	-0.200416394	 2.1754248822	 0.110904
