21
gdb 63936	2.31382	1.64475	1.42228	2.1768	77.91	-0.2361	0.0629	0.299	1062.0069	0.18041	-424.20425	-424.19504	-424.194096	-424.237517	36.063	
C	 0.2441569209	 1.4253291257	-0.164600847	-0.43666
C	 0.0247736016	-0.0636817201	 0.0573740936	 0.377116
C	-1.4413752899	-0.4457739491	-0.1226835893	-0.413952
O	 0.8551622065	-0.8662249824	-0.8445985904	-0.342282
C	 1.4328666696	-1.6247583814	 0.2303242419	 0.044105
C	 2.7883836411	-1.0413356797	 0.6957069297	-0.230829
C	 2.0501080958	-0.1801743311	 1.7688142678	-0.313045
C	 0.6854151434	-0.7459057529	 1.2920435297	 0.307942
O	-0.2368255219	-1.1547918406	 2.2538013728	-0.474204
H	 1.3041290342	 1.6869025425	-0.1340851089	 0.117672
H	-0.1429472582	 1.7163848162	-1.1463721977	 0.122992
H	-0.2847876003	 2.0108025989	 0.5949872273	 0.119519
H	-1.7493449583	-0.2071761088	-1.1454802667	 0.11431
H	-1.593756183	-1.5128655517	 0.0487852969	 0.124047
H	-2.0794119286	 0.105096936	 0.5744962719	 0.118703
H	 1.3308016997	-2.7049083353	 0.0950064972	 0.073273
H	 3.47457016	-1.7772666578	 1.1228044846	 0.098315
H	 3.3039898414	-0.4868950944	-0.0902673868	 0.113023
H	 2.2738675247	-0.5071952943	 2.7903067964	 0.091206
H	 2.1830253393	 0.9031356715	 1.7322708105	 0.107735
H	 0.2416275522	-1.5318547611	 2.9987605667	 0.281013
