16
gdb 29913	3.3529	1.30762	0.94849	6.2827	80.43	-0.2036	0.0096	0.2133	1181.5231	0.126042	-396.985983	-396.977314	-396.97637	-397.019328	31.591	
C	-0.0506446046	 1.4557394203	 0.0186176356	-0.351665
N	-0.0008164729	 0.0082658925	-0.0056022444	-0.029252
C	 0.0355090339	-0.7854495063	-1.1444711126	-0.093109
C	 0.0422465908	-2.0951369782	-0.7630819452	-0.284286
C	 0.0310597424	-2.1168358551	 0.6707114816	 0.119985
C	 0.0502642146	-3.2252321651	 1.5419944884	 0.180903
N	 0.0682053213	-4.1106243776	 2.2927140853	-0.375504
C	 0.0064796568	-0.7914033586	 1.0992163951	 0.229514
N	-0.0961387314	-0.2593642144	 2.38267695	-0.61758
H	 0.9486012209	 1.898981046	 0.1060115383	 0.138605
H	-0.5102023464	 1.8149308394	-0.9039766376	 0.148889
H	-0.6572952381	 1.7806840565	 0.8673400999	 0.161205
H	 0.05288725	-0.330157255	-2.1209308798	 0.126939
H	 0.0588358536	-2.956790742	-1.4102719748	 0.118783
H	-0.1688932867	-0.9957496303	 3.0747974967	 0.271757
H	 0.6670661658	 0.359311458	 2.6349562436	 0.254815
