13
gdb 129004	4.01727	1.78623	1.23645	5.8296	74.68	-0.2441	-0.0715	0.1726	904.7313	0.095141	-411.83192	-411.826301	-411.825357	-411.86183	22.565	
N	-0.1015915531	 1.3022319113	 0.0100119384	-0.273631
N	 1.0619008597	 1.9560478323	 0.0027422167	-0.194622
H	 0.9530709662	 2.9598317692	 0.0094481548	 0.292831
C	 2.306549788	 1.4212393364	-0.0120174956	 0.032855
C	 2.4914301032	 0.0558167545	-0.0214891208	-0.264307
C	 1.3267729518	-0.7149067452	-0.0148712	 0.317552
N	 1.0939493716	-2.025056446	-0.0200885626	-0.363509
C	-0.2776305571	-2.0706557983	-0.0074212239	 0.032606
N	-0.9629919619	-0.9274101455	 0.0055230056	-0.325598
C	 0.0371566214	-0.0075045031	 0.0012931536	 0.341272
H	 3.1149736927	 2.140827053	-0.0155672654	 0.148443
H	 3.4863262575	-0.3707201619	-0.0332812034	 0.136053
H	-0.7869494999	-3.0278121268	-0.0080386472	 0.120054
