23
gdb 83733	2.5276	1.4687	1.27299	0.1692	88.96	-0.2378	0.0828	0.3206	1149.1902	0.207412	-351.145596	-351.136975	-351.136031	-351.178728	34.3	
C	-0.3234522021	 1.4929176754	 0.0492532081	-0.42056
C	 0.0087803254	 0.0159589052	 0.0923740644	-0.00916
C	 1.3148736895	-0.6155372791	-0.3377421553	-0.066393
C	 2.5845840511	 0.2248201487	-0.4377679474	-0.220177
C	 2.7722888989	 0.9100086445	 0.9427268157	-0.31792
C	 1.8817461216	 0.1325274367	 1.9232196765	 0.409662
C	 2.473892973	-0.4845264301	 3.1687234993	-0.3227
C	 1.5407024569	 0.6974864582	 3.2794044036	-0.313688
C	 0.890245893	-0.6700044714	 1.1177382622	-0.13902
H	 0.5154176201	 2.1329555412	 0.3255035803	 0.121682
H	-0.6435033669	 1.7861643916	-0.9572666792	 0.113311
H	-1.1469898071	 1.7223566664	 0.7348225105	 0.115667
H	-0.8483172809	-0.5979897989	-0.1800591127	 0.078624
H	 1.2574802924	-1.4972112075	-0.9679277084	 0.075228
H	 3.4265910317	-0.4439694433	-0.6469793496	 0.100646
H	 2.5537180654	 0.954874284	-1.2542177187	 0.095707
H	 3.8207856867	 0.9038320204	 1.2568631468	 0.095707
H	 2.4733099185	 1.9618385964	 0.8985620199	 0.105577
H	 2.1087747546	-1.4563393585	 3.4862631695	 0.106877
H	 3.529210435	-0.3218336263	 3.3642176972	 0.105189
H	 1.9647273586	 1.6584261173	 3.5545008308	 0.104727
H	 0.5429271509	 0.525472155	 3.6697368684	 0.108089
H	 0.5205725737	-1.5880837161	 1.5642314382	 0.072923
