15
gdb 19953	3.75643	1.70939	1.40604	3.6987	61.67	-0.2486	-0.0278	0.2208	890.9069	0.118317	-399.758387	-399.751074	-399.75013	-399.790703	26.346	
O	-0.0161086323	 0.0337648219	-0.0333907708	-0.278869
C	 0.0124063995	 1.2217186181	 0.0536368185	 0.402933
C	-1.0102403903	 2.3282190205	 0.3491945614	-0.282988
N	 0.0935235492	 3.3252308434	 0.2664752747	-0.315336
C	 1.1098798607	 2.3062459381	-0.1109508719	-0.15399
C	 2.2867907364	 2.1893323064	 0.8308257165	 0.086271
C	 2.6582616362	 3.2805464625	 1.7391887749	-0.166688
O	 1.9682419	 2.1239941739	 2.2185538884	-0.233023
H	-1.7920712086	 2.4079169843	-0.4168705751	 0.12595
H	-1.4842356873	 2.2750288456	 1.3352087457	 0.146333
H	-0.0528803391	 4.0234351508	-0.4517871833	 0.228688
H	 1.4757896343	 2.3666542139	-1.1460782956	 0.09612
H	 3.0534600777	 1.4834318665	 0.5088001918	 0.103584
H	 3.6921711917	 3.3782030744	 2.0670192694	 0.114285
H	 2.063809902	 4.1907633298	 1.7265556454	 0.126732
