17
gdb 12468	3.30365	1.88957	1.26705	3.6547	71.9	-0.2145	-0.0513	0.1632	945.2866	0.144377	-363.87791	-363.870604	-363.86966	-363.909918	27.617	
O	-0.0313428655	 0.7613538302	 1.4924374927	-0.321799
C	-0.0476412737	 1.4079884167	 0.4608265085	 0.339802
C	-1.4109242454	 1.8631466767	-0.0871298712	-0.281109
N	-1.5691182824	 2.2511455145	-1.4733918358	-0.276022
C	-0.7978848448	 3.4038104494	-1.9074905629	-0.165865
C	 0.6606596658	 3.1307361904	-2.2986176914	-0.262038
C	 1.5348771957	 2.4297476364	-1.3021106699	-0.035924
C	 1.2433422816	 1.7363619444	-0.1922795674	-0.141237
H	-2.109657082	 1.0539691276	 0.1475435749	 0.131426
H	-1.7166221404	 2.7095302962	 0.5449827221	 0.133833
H	-1.4339124453	 1.4622012232	-2.09537632	 0.218751
H	-1.2971158049	 3.8646967726	-2.7695683155	 0.103925
H	-0.8290208298	 4.1444665369	-1.0991699773	 0.110782
H	 0.6815733108	 2.536436198	-3.2270825383	 0.119134
H	 1.1414920042	 4.0805405973	-2.5732515787	 0.114503
H	 2.5938523592	 2.4844424354	-1.5550049125	 0.106734
H	 2.070195357	 1.304451294	 0.3666840125	 0.105104
