15
gdb 28739	3.53124	1.1967	0.89611	1.0345	73.27	-0.1879	-0.0053	0.1826	1217.4114	0.115292	-450.190922	-450.182874	-450.18193	-450.223725	29.719	
N	 0.108149071	 1.4253810975	 0.1263404522	-0.610454
C	-0.0189379407	 0.0336600442	 0.0112530737	 0.281128
C	-1.0857839944	-0.827009444	-0.0334372416	-0.158062
N	-0.6534793629	-2.1433176455	-0.0487256318	-0.350034
C	 0.6499943779	-2.057810968	-0.0260240542	 0.479745
N	 1.507402394	-3.1560802402	-0.0522196547	-0.39165
C	 2.865910928	-3.103100653	-0.0022645311	 0.148965
O	 3.5220836192	-2.0782246812	 0.0615595518	-0.339376
N	 1.1035924297	-0.7747455034	 0.0166929279	-0.320247
H	 0.5292082882	 1.8517991112	-0.6939574183	 0.248288
H	-0.7951704031	 1.8563538062	 0.2774140027	 0.251556
H	-2.1360622775	-0.5805744313	-0.0521170675	 0.09838
H	 1.0424049945	-4.0506092732	-0.0970847778	 0.275248
H	 3.3206144003	-4.1084785307	-0.0283187443	 0.097933
H	 2.0799883459	-0.5280715985	 0.094022843	 0.28858
