15
gdb 49009	3.26758	1.34139	1.10128	1.7031	67.86	-0.2389	-0.0498	0.189	1065.1989	0.112665	-453.933647	-453.925923	-453.924979	-453.966122	28.752	
O	-0.7301324338	 0.9351367354	 0.6872773841	-0.253499
C	 0.2167262659	 0.8170678857	-0.050650322	 0.091681
C	 1.3918588838	 1.743705828	-0.0591016728	 0.251129
C	 1.5157248873	 2.8225810117	 1.0471531711	-0.227736
N	 1.803838944	 3.8750062371	 0.0346321322	-0.308635
C	 1.5298186077	 2.9515567825	-1.0813746848	-0.227488
C	 2.8422324316	 2.2501415287	-1.535545196	 0.469465
O	 3.7343397999	 2.4873884122	-2.2953530653	-0.340955
N	 2.620500746	 1.2106739452	-0.6391628789	-0.400025
H	 0.275045623	 0.0093947067	-0.8129855295	 0.089708
H	 0.556352481	 2.9389498781	 1.559843516	 0.137419
H	 2.3132746855	 2.6765220408	 1.7816926643	 0.113532
H	 1.1726677543	 4.6649302985	 0.0731462279	 0.238438
H	 0.7848527379	 3.2317228944	-1.8263303866	 0.11235
H	 3.2924335258	 0.571255825	-0.2355000997	 0.254615
