19
gdb 41441	2.84588	2.07065	1.63805	2.0192	78.57	-0.2168	0.0719	0.2887	894.6456	0.160956	-385.778566	-385.772006	-385.771062	-385.80897	28.306	
C	-0.0281828356	 1.5517608896	 0.1727611743	-0.313522
C	 1.4730212523	 1.6190138689	-0.3310855758	-0.326132
C	 1.2497261889	 0.1880463919	-0.8517240658	 0.357055
O	 0.3579071943	 0.183166022	-2.0392599946	-0.344845
C	-0.1276387399	-0.8830241179	-1.1811710441	-0.000355
C	 1.358242474	-1.369930495	-0.8793135152	-0.126711
C	 1.4133707211	-1.8984875217	 0.5479633482	-0.237298
C	 0.4741034655	-0.8772900754	 1.2731376287	-0.291194
C	 0.0494002458	-0.0109204018	 0.0979257332	 0.250064
H	-0.2211371967	 1.9585272847	 1.1670136542	 0.102635
H	-0.7207736421	 1.9912542085	-0.5430810137	 0.129663
H	 1.7379567374	 2.3719840635	-1.0766245709	 0.117789
H	 2.1832403781	 1.6591149747	 0.4987791688	 0.114246
H	-0.9629653247	-1.4913797607	-1.5454992432	 0.079038
H	 1.9069431292	-1.8774501399	-1.6736432028	 0.078642
H	 1.0431174857	-2.9268330028	 0.6045928215	 0.105322
H	 2.4278262542	-1.8951148216	 0.9579744597	 0.105253
H	-0.3689117458	-1.3653925864	 1.7729267108	 0.101667
H	 1.0081502284	-0.3015572007	 2.0367265766	 0.098682
