15
gdb 27088	3.29408	1.44453	1.01129	1.1493	71.14	-0.1735	0.0029	0.1764	1098.4089	0.113834	-453.976711	-453.969072	-453.968128	-454.009481	29.156	
O	-0.3354739053	 1.0078124629	-0.8591397931	-0.444587
C	-0.1005835887	-0.2476014505	-0.4674490397	 0.278172
C	 0.2257697981	-1.4314540192	-1.1128702551	 0.191799
O	 0.4598944201	-1.7288210402	-2.4558691066	-0.216105
C	 0.1224639029	-0.9509240131	-3.4682439389	 0.137723
N	-0.4117851167	 0.2028224753	-3.3774921091	-0.49852
C	 0.3630441426	-2.4536122542	-0.1295920347	-0.24007
C	 0.1160682013	-1.8793687957	 1.0871852757	-0.089516
N	-0.166935113	-0.5447785054	 0.865824115	-0.29055
H	-0.4376926871	 0.9495491155	-1.8495117512	 0.321953
H	 0.3765195191	-1.4519783122	-4.4045477723	 0.122519
H	-0.5792054082	 0.6060059395	-4.2937624163	 0.24125
H	 0.6177018345	-3.4827314932	-0.325509676	 0.100776
H	 0.118067014	-2.2904530396	 2.0820706333	 0.118917
H	-0.4005403438	 0.1434339301	 1.5597673791	 0.266239
