15
gdb 50503	3.94814	1.0143	0.93435	3.6147	67.98	-0.2502	-0.0402	0.21	1237.7885	0.11016	-457.720469	-457.711875	-457.710931	-457.755155	30.103	
O	-0.5116301732	 0.7066429038	 0.680368474	-0.226676
C	 0.3597063323	 0.8702410447	-0.1274826593	 0.158338
C	 1.3617904119	 2.0272440522	-0.0824459729	 0.124194
O	 2.6720134324	 1.4973230205	 0.0224483051	-0.266287
C	 3.3725321926	 1.7926057555	-1.1803145084	-0.104194
C	 2.6098409009	 3.00694792	-1.7373963988	-0.092031
O	 1.2720230574	 2.7186905082	-1.3091556122	-0.261175
C	 3.0919723806	 4.2877479629	-1.2227449522	 0.354686
C	 3.4903880831	 5.3389457506	-0.7993379663	-0.467667
H	 0.5338401717	 0.178499349	-0.981164228	 0.08422
H	 1.1615348569	 2.6751928282	 0.7811497268	 0.108575
H	 4.4140757462	 2.0060440673	-0.93412028	 0.136308
H	 3.3221869933	 0.9538033619	-1.8865048113	 0.111508
H	 2.5948989527	 3.0187086685	-2.8308111332	 0.129041
H	 3.8397436613	 6.2710680668	-0.4279829934	 0.211162
