19
gdb 18646	3.48818	1.8414	1.6941	0.747	70.99	-0.2203	0.0884	0.3087	883.5684	0.166088	-365.037976	-365.030225	-365.029281	-365.069646	29.567	
C	-0.1984955376	 1.8222281404	 0.7324958423	-0.398993
C	-0.5211251285	 0.3282881751	 0.7020747986	 0.103185
O	-0.3226748198	-0.2287712033	-0.6059758069	-0.269269
C	 0.9358700199	-0.8954817135	-0.6706240957	-0.112659
C	 1.3115803015	-1.2471203984	 0.7554406242	-0.048607
C	 0.380724087	-0.4715851971	 1.6304135059	-0.047515
N	 0.3396106096	-1.9251528794	 1.5986101892	-0.103419
C	-0.7926285124	-2.6634916781	 1.0478724736	-0.331115
H	 0.8638459897	 1.9996523928	 0.5356187535	 0.118394
H	-0.7820958693	 2.3456074572	-0.0293313938	 0.12623
H	-0.4414368129	 2.252298581	 1.7099869332	 0.115302
H	-1.5849048864	 0.1816816942	 0.9315134695	 0.085182
H	 0.8121656083	-1.7653017573	-1.326989528	 0.108971
H	 1.714835892	-0.2512493844	-1.1082483904	 0.097491
H	 2.3597285731	-1.4154826476	 0.9890533575	 0.092168
H	 0.679190892	-0.0168988793	 2.5717708723	 0.090873
H	-1.2484768201	-2.2194313434	 0.1545138875	 0.133021
H	-0.4560372228	-3.6761762553	 0.8040380646	 0.119968
H	-1.5575465333	-2.7496074236	 1.8262199629	 0.120793
