17
gdb 43147	2.39437	2.10602	1.67892	2.7768	70.22	-0.2307	-0.0238	0.2069	879.4372	0.138584	-421.820584	-421.81402	-421.813076	-421.851294	26.96	
O	 0.0037942499	 0.0315767734	 0.0910780383	-0.331959
C	-0.0136471416	 1.2259030203	 0.0222283138	 0.412548
C	-1.1672324513	 2.2402991815	 0.0148914581	-0.172575
C	-0.6885180157	 3.0904237912	 1.2130959976	-0.074366
O	 0.7642135843	 3.0540422944	 1.1326889898	-0.290073
C	 1.1051411198	 2.2781828984	-0.0324154742	 0.000154
C	 0.7145447816	 3.0801965226	-1.2666669368	-0.049174
C	-0.0581597058	 2.3769559324	-2.3594628662	-0.330687
C	-0.8129334233	 3.0489234252	-1.2407602114	-0.032011
H	-2.1726645494	 1.8308298452	 0.0902439651	 0.092849
H	-1.0286778427	 4.1309386908	 1.1565220358	 0.106053
H	-1.0007818913	 2.665172062	 2.1739232364	 0.114533
H	 2.1308148069	 1.9273132754	 0.0602144342	 0.096957
H	 1.2623920152	 3.9889355698	-1.4847754018	 0.102615
H	-0.0807754761	 2.8786763207	-3.3202476563	 0.120396
H	-0.0385105872	 1.2938961816	-2.4334132561	 0.136527
H	-1.3948402234	 3.9397837251	-1.449241996	 0.098211
