14
gdb 18318	4.173	2.08612	1.48967	3.1777	65.	-0.2106	-0.0193	0.1913	801.1623	0.10978	-378.702847	-378.696585	-378.695641	-378.733173	24.195	
O	-0.1351888368	-0.0298314235	-0.2551026687	-0.357509
C	-0.032435049	 1.1508450106	-0.0340473639	 0.415755
N	-1.0963146941	 2.0401674541	 0.1572863034	-0.31496
C	-0.6584571429	 3.3333469609	 0.4820892918	-0.070404
C	 0.6533297597	 3.447308266	 0.2298040709	 0.067402
C	 1.8779827521	 3.7751203571	 1.0592518358	-0.223939
N	 2.1088772142	 2.285531053	 1.1204305698	-0.321914
C	 1.2048179502	 2.0765236256	-0.0621395206	-0.133153
H	-2.0540377549	 1.7281218806	 0.1611215438	 0.261816
H	-1.3328202751	 4.0128221778	 0.9866454793	 0.128269
H	 2.6659939648	 4.315744116	 0.5180855453	 0.103997
H	 1.7201915862	 4.2466657307	 2.0334634117	 0.116636
H	 3.0689771456	 2.0199317572	 0.9179687425	 0.225906
H	 1.7401197799	 1.9143550938	-1.0055796513	 0.102097
