19
gdb 114176	3.81648	0.94463	0.82664	4.389	78.34	-0.2434	-0.0171	0.2263	1387.9933	0.158254	-423.004156	-422.995207	-422.994263	-423.038167	33.038	
O	-0.055226958	 1.4265580135	-0.1598965506	-0.418647
C	 0.0507002348	 0.03551937	 0.1022316587	-0.09395
C	-1.3378251473	-0.5578696071	-0.0549329966	 0.035935
C	-1.980643581	-0.6004988067	-1.4804993219	-0.318161
C	-2.1989927178	-2.1072829473	-1.3286164121	 0.28248
C	-0.8858734753	-2.816583546	-1.0814775463	-0.335695
C	-1.4869431735	-2.0823129974	 0.0647894361	-0.130139
C	-3.4310714095	-2.8344756202	-1.6387951549	 0.053459
O	-4.392983127	-2.3557944335	-2.1937750955	-0.2714
H	 0.8242747818	 1.8124240658	-0.1140060585	 0.289003
H	 0.7529910945	-0.4478092428	-0.5950880516	 0.082671
H	 0.4204065706	-0.1566892113	 1.1232091907	 0.086953
H	-2.0099127536	-0.0510575098	 0.6424500863	 0.094241
H	-2.9170515368	-0.0472113341	-1.5501194915	 0.132318
H	-1.330643597	-0.3009022323	-2.3076262886	 0.104343
H	-0.9483188077	-3.8991364013	-1.0182899099	 0.125157
H	-0.0002831777	-2.4521687099	-1.5947996496	 0.12125
H	-1.8052558678	-2.6075759308	 0.9577561063	 0.102102
H	-3.4297132118	-3.8977650589	-1.2988710806	 0.058083
