21
gdb 57646	2.74692	1.00711	0.91642	1.7557	79.17	-0.2496	-0.0206	0.2291	1379.0981	0.1792	-424.218513	-424.208327	-424.207383	-424.254229	36.865	
C	 0.2708146967	 1.6259717576	 0.3318299209	-0.429178
C	 0.0397528248	 0.1180782258	 0.0873632042	 0.152801
C	 0.6672613628	-0.6933223129	 1.2423124273	-0.421135
C	-1.4511653212	-0.221396578	-0.1170071028	-0.236105
C	-2.3607859463	 0.1669413847	 1.023011858	 0.073984
C	-3.524611084	-0.6467430535	 1.396343827	-0.181828
O	-2.3395810995	-0.6609675943	 2.1938438981	-0.23495
C	 0.8144996005	-0.2398400334	-1.1765059262	 0.151831
O	 0.3434341224	-0.6770039532	-2.1939831973	-0.25918
H	 1.3402690134	 1.8632748894	 0.3265625206	 0.119908
H	-0.2135949843	 2.2363836041	-0.4374369915	 0.123758
H	-0.1231091699	 1.9247848092	 1.3074122241	 0.131231
H	 0.1924636233	-0.4366375722	 2.1915987958	 0.149403
H	 0.538454393	-1.768934031	 1.0871880818	 0.125935
H	 1.739981436	-0.4865398274	 1.326552237	 0.111362
H	-1.8021718863	 0.2753831663	-1.0293517168	 0.114127
H	-1.5479444447	-1.2966992898	-0.2988865715	 0.110668
H	-2.4143067681	 1.2327020988	 1.2506047742	 0.092647
H	-4.3927416265	-0.176463108	 1.8560663593	 0.113943
H	-3.7304425939	-1.5663696198	 0.8499507994	 0.116256
H	 1.9124852817	-0.0566972326	-1.0873003215	 0.074525
