22
gdb 116771	3.79385	0.65959	0.59652	1.9812	83.11	-0.2331	0.0263	0.2594	1936.6701	0.190884	-441.475797	-441.46432	-441.463376	-441.513507	39.425	
C	-0.565511876	 1.5682997911	-0.1983627227	-0.382761
C	-0.3014675017	 0.118744391	 0.2153491793	-0.181039
C	-1.3976499666	-0.8490406855	-0.251562654	 0.099206
O	-1.5772267362	-0.7806939074	-1.670443554	-0.425977
C	-1.1238249055	-2.2820171626	 0.2313732508	-0.148552
N	-2.1289417098	-3.3112949488	 0.0442510119	-0.248833
C	-3.1222419725	-3.1265401675	-0.7065928951	 0.117812
O	-4.0500025701	-4.1034927034	-0.8246433407	-0.194627
C	-5.1040672003	-3.8309204645	-1.7381408256	-0.249412
H	 0.261022272	 2.2212282138	 0.0971965842	 0.11003
H	-0.6952073768	 1.641490561	-1.2811008181	 0.127843
H	-1.4783883999	 1.9505115742	 0.271718886	 0.113912
H	 0.6618198269	-0.2179069217	-0.1951670031	 0.087231
H	-0.2091127601	 0.048896125	 1.3061253883	 0.100256
H	-2.3608007146	-0.5161446474	 0.15807532	 0.088171
H	-0.7935570379	-1.1643382393	-2.08061646	 0.27983
H	-0.1877911093	-2.6347684227	-0.232313144	 0.096262
H	-0.9055316402	-2.2383635852	 1.3068489321	 0.110729
H	-3.3234697821	-2.2340372353	-1.3079152074	 0.108327
H	-5.6371514114	-2.9080085381	-1.4776697613	 0.124176
H	-4.7353685005	-3.7522152177	-2.7684007987	 0.125535
H	-5.7957437875	-4.6718004089	-1.6710063378	 0.14188
