21
gdb 61887	5.58534	0.65662	0.61803	2.5698	81.12	-0.2315	-0.0278	0.2037	1787.2881	0.1808	-420.363651	-420.353646	-420.352702	-420.399546	35.591	
C	-0.1865906637	 1.5897456473	 0.0470727369	-0.344505
N	-0.0652409669	 0.1360386088	 0.0853681809	-0.073213
C	 0.6689517394	-0.3065699267	 1.2565322805	-0.231186
C	 2.1507330055	 0.0202113669	 1.1380035325	 0.151763
O	 2.8788030754	 0.2320670165	 2.0711158496	-0.237664
C	-1.3423590223	-0.5506726681	-0.0809457902	-0.157839
C	-1.96249855	-0.3140206878	-1.4392922856	 0.011374
C	-3.4092553782	-0.5636789409	-1.6450836024	-0.246957
N	-2.884605049	 0.8118956948	-1.6802357325	-0.312076
H	 0.8039287041	 2.0475338579	 0.1313865897	 0.129038
H	-0.6247452764	 1.908114896	-0.9006735576	 0.153378
H	-0.8090577076	 1.9870191163	 0.8721081613	 0.093958
H	 0.292159105	 0.0929296057	 2.2152934482	 0.106435
H	 0.6063725088	-1.4023512667	 1.3195630027	 0.126269
H	 2.5177067692	 0.0178486271	 0.0861666431	 0.08727
H	-1.1551396053	-1.6250513649	 0.0387435502	 0.108927
H	-2.0777665785	-0.2673965471	 0.7015381224	 0.071238
H	-1.2839885581	-0.4960671274	-2.2698778232	 0.102375
H	-3.7659874189	-0.9459104471	-2.5968864384	 0.122595
H	-3.9990309963	-0.8725261516	-0.7850052803	 0.111544
H	-3.0958045864	 1.2732509909	-0.7974741879	 0.227274
