21
gdb 66633	3.20184	1.78113	1.63473	0.2039	84.35	-0.2435	0.099	0.3425	945.2258	0.186214	-349.948816	-349.942138	-349.941194	-349.979326	29.181	
C	-0.0087710852	 1.5217387754	-0.0498584598	-0.522476
C	-0.0136704075	 0.0234112584	-0.0000308694	 0.376609
C	 0.5139900192	-1.0093069228	-0.9631806413	-0.133706
C	 1.1487532326	-0.868626657	 0.4170933054	-0.111369
C	 0.6009674893	-2.0117098337	 1.3254836443	-0.046485
C	 0.095404051	-3.0436113964	 0.2873452522	-0.208018
C	-0.6063179598	-2.0032685075	-0.6023733344	-0.047515
C	-1.1712460827	-0.9121506669	 0.4234789805	-0.107078
C	-0.7457844852	-1.4217431473	 1.8101059961	-0.214858
H	 0.9553830745	 1.8997742817	-0.4074759702	 0.116363
H	-0.7842119281	 1.9043886366	-0.7240327919	 0.115343
H	-0.1861130716	 1.9574159385	 0.940939133	 0.116755
H	 1.044038826	-0.8941330024	-1.9017720119	 0.073639
H	 2.1438203052	-0.4563917945	 0.5262125695	 0.075161
H	 1.2867127206	-2.375649454	 2.0903592926	 0.052707
H	 0.9035710736	-3.5555514748	-0.2447691578	 0.08943
H	-0.5739743008	-3.7912791295	 0.7263546972	 0.085336
H	-1.2729960895	-2.350391071	-1.3896330812	 0.059141
H	-2.1939764686	-0.565420794	 0.2814978381	 0.057248
H	-1.4101097868	-2.1784888011	 2.240994953	 0.085177
H	-0.6275000664	-0.6029681976	 2.527623326	 0.088597
