27
gdb 122665	4.63554	0.60204	0.55711	0.0436	96.69	-0.2953	0.0833	0.3786	2131.3539	0.253458	-353.58828	-353.577677	-353.576733	-353.625419	38.881	
C	-0.1396479166	 1.6210505761	-0.011864645	-0.379908
C	-0.0801186127	 0.0911601536	-0.0203093493	-0.161579
C	 0.7142067151	-0.476824683	-1.2016209225	-0.163424
C	 0.7755567317	-2.0090588831	-1.212825729	-0.203841
C	 1.5230338989	-2.6054494357	-2.4082105071	 0.051603
C	 3.0306131239	-2.2732804701	-2.4718406936	-0.19836
C	 3.6732944159	-3.3817064253	-3.3507704696	-0.206279
C	 2.5878141126	-4.4838187497	-3.5091173571	-0.204906
C	 1.516984572	-4.1433540252	-2.4590893433	-0.210676
H	 0.8644818899	 2.0561918583	 0.0448797099	 0.112273
H	-0.6124306457	 2.0038063602	-0.9233905846	 0.112066
H	-0.7128946614	 1.995684611	 0.842118247	 0.109284
H	 0.3656149772	-0.2634914217	 0.9186695831	 0.092674
H	-1.1001610073	-0.3153847708	-0.041757305	 0.092378
H	 0.2656133562	-0.1246550382	-2.1415751535	 0.088253
H	 1.7323038208	-0.0658577762	-1.1807112635	 0.094629
H	 1.2507709671	-2.360713194	-0.2852288161	 0.086694
H	-0.2490455608	-2.4060072711	-1.1971051618	 0.086357
H	 1.0494055232	-2.2377863162	-3.3316246128	 0.062458
H	 3.2269440631	-1.2690874203	-2.8570664214	 0.093445
H	 3.4458214983	-2.3078057956	-1.4563872572	 0.090825
H	 3.9809792348	-2.9930375976	-4.3258467922	 0.0956
H	 4.5769501462	-3.7771468989	-2.8777674452	 0.096489
H	 2.1469751347	-4.4353532008	-4.5111545446	 0.09528
H	 2.9915403337	-5.4933881624	-3.3915005984	 0.0913
H	 1.807774009	-4.538657189	-1.4759591766	 0.089477
H	 0.5332360501	-4.5607164145	-2.6966421307	 0.087889
