22
gdb 59871	3.03513	0.96272	0.82247	2.2029	81.58	-0.2344	0.0654	0.2998	1522.8593	0.191243	-441.539018	-441.52761	-441.526666	-441.57648	39.306	
C	 0.0616148322	 1.5254048048	-0.0019163476	-0.39627
C	-0.0176240546	 0.0020107319	-0.0074054427	 0.158579
C	-1.4385860534	-0.5285792176	-0.133238843	-0.39526
O	 0.7059094864	-0.5245636926	-1.146892166	-0.288432
C	 2.0505317589	-0.6372787892	-1.0033852621	 0.52634
O	 2.6480510589	-0.3431029886	 0.0139063108	-0.434385
N	 2.6412092285	-1.1212778126	-2.1370419087	-0.140839
C	 4.077349411	-1.3217106857	-2.145823573	-0.337941
C	 1.9262197359	-1.4900754035	-3.3436611946	-0.338224
H	 1.1001900185	 1.8489047391	 0.0911081866	 0.142686
H	-0.3619589029	 1.9371752645	-0.9239622443	 0.114673
H	-0.5018729183	 1.9287909865	 0.8454964256	 0.114752
H	 0.461531811	-0.3889931738	 0.8940364879	 0.109552
H	-1.9096883219	-0.1648025757	-1.0520668851	 0.120442
H	-1.4449362018	-1.6217433354	-0.1518593368	 0.121709
H	-2.040788897	-0.1935179361	 0.7164040559	 0.119047
H	 4.3224959516	-2.3803425925	-2.3041171594	 0.118057
H	 4.5434711698	-0.7415140074	-2.9527698785	 0.118038
H	 4.4799532772	-0.99810273	-1.1878559453	 0.168175
H	 0.8684307931	-1.2682737979	-3.2338861232	 0.159261
H	 2.3199137717	-0.9343463013	-4.2049587657	 0.12016
H	 2.0455922852	-2.5616652467	-3.554249221	 0.119878
