15
gdb 18579	3.74863	2.19222	1.72605	0.9417	59.7	-0.2557	0.0082	0.2639	761.6695	0.120782	-399.794577	-399.788157	-399.787213	-399.825351	24.727	
O	 0.5798253529	 1.0438577167	-0.6256888896	-0.430184
C	 0.1288930762	-0.1483254652	-0.0507681645	 0.135028
C	 0.1611042293	-0.3163653833	 1.5071145506	-0.273985
C	-1.3409834307	-0.7311488695	 1.4829805539	-0.01453
N	-2.234425626	 0.2399783452	 2.1321404647	-0.246549
C	-2.5888882475	 1.0381139015	 1.2168603474	 0.106655
O	-2.1575499775	 0.8418582149	-0.0664137556	-0.246517
C	-1.4033319793	-0.3952387548	-0.0383850203	 0.036456
H	-0.117378184	 1.6989063095	-0.4964659566	 0.288493
H	 0.6540588005	-0.9669884777	-0.5526263085	 0.094769
H	 0.8646581567	-1.0617973319	 1.8834745339	 0.10939
H	 0.3196752432	 0.6243541286	 2.0389731746	 0.11399
H	-1.5665892277	-1.7491532737	 1.8008023468	 0.087927
H	-3.2289920609	 1.9045861218	 1.3389040952	 0.147575
H	-1.8350173851	-1.075328662	-0.7746200522	 0.091482
