19
gdb 94916	2.05584	1.75285	1.40281	1.7531	80.07	-0.2489	0.0376	0.2865	1036.0591	0.1601	-385.856397	-385.848154	-385.84721	-385.888922	32.752	
O	 0.0868821968	 1.415701457	 0.0033645634	-0.44139
C	 0.0233001949	 0.0030270586	-0.0496244695	 0.135459
C	 0.833979358	-0.7130130874	 1.0680583449	-0.260163
C	 0.0638644548	-2.006248924	 1.418239476	-0.230937
C	-1.3632976639	-1.7806924874	 0.933126801	-0.060232
C	-2.1048354183	-0.5245717987	 1.3802930143	-0.214034
C	-1.6960501387	 0.3158118025	 2.4695871134	 0.320841
C	-1.3990498924	 1.0385198837	 3.3868533183	-0.462983
C	-1.386990185	-0.5768484693	 0.0343551429	-0.091515
H	-0.2970336658	 1.6832263026	 0.8477332244	 0.283623
H	 0.4328838171	-0.2562986288	-1.0324750676	 0.088143
H	 1.8598359909	-0.9140843943	 0.7501154383	 0.100972
H	 0.8915586626	-0.0498514698	 1.9333323218	 0.116953
H	 0.4780688795	-2.8654004903	 0.8790847177	 0.104254
H	 0.1143844006	-2.2439650361	 2.4858225167	 0.10919
H	-1.9820964793	-2.6485141872	 0.7316638918	 0.090663
H	-3.1855045862	-0.6047488728	 1.294160077	 0.118015
H	-1.1339031726	 1.6630988561	 4.2038076205	 0.200489
H	-2.0132602629	-0.5247575346	-0.8491003451	 0.092651
