19
gdb 113451	4.90483	0.79002	0.74847	2.376	72.56	-0.2583	0.0581	0.3164	1522.8916	0.157206	-460.119756	-460.110467	-460.109523	-460.15452	34.384	
O	 0.0519706185	 1.2229424528	-0.6008579804	-0.41791
C	 0.0605818335	 0.0842481774	 0.2434813576	-0.080189
C	-1.3181497405	-0.5118895964	 0.3721629468	-0.073141
O	-1.8005271454	-1.161628092	-0.8268801894	-0.302429
C	-1.5663800106	-1.9523464066	 0.3357350689	 0.418078
C	-0.6210269609	-3.1591784845	 0.3035372498	-0.315592
C	-1.8480290919	-4.0635385433	 0.5816326111	 0.130805
O	-1.6053194499	-5.0184808732	 1.5859670635	-0.430425
C	-2.6850441296	-2.7962335222	 0.9538239953	-0.346786
H	-0.3280163148	 0.9374254997	-1.4397377991	 0.292647
H	 0.7600966405	-0.6833600988	-0.1198126484	 0.092555
H	 0.4150425348	 0.4273379334	 1.2217746791	 0.111675
H	-2.0607507533	 0.132894475	 0.8454922454	 0.095329
H	-0.0678974639	-3.3254334861	-0.6223049105	 0.116251
H	 0.0659764107	-3.1798515525	 1.1546310808	 0.121027
H	-2.2214242012	-4.5324106036	-0.3383650634	 0.078041
H	-2.4036852036	-5.542195808	 1.7073699316	 0.285376
H	-2.7470116073	-2.6771130494	 2.0397497357	 0.11226
H	-3.6757079354	-2.6843152115	 0.5077028356	 0.112428
