16
gdb 53467	5.0018	0.69068	0.6114	1.3902	75.28	-0.2386	-0.065	0.1736	1766.2519	0.120975	-437.913037	-437.902611	-437.901667	-437.951047	34.986	
C	 0.1034006999	 1.4976132071	 0.0367096668	-0.499261
C	 0.0350092187	 0.0456923303	-0.0337386273	 0.142827
C	-0.0215984863	-1.1543280496	-0.0919440378	 0.03466
C	-0.0972194277	-2.6020997865	-0.1609396054	-0.491229
C	-1.4939507036	-3.1708077147	 0.0410689268	 0.297671
O	-2.4892094068	-2.5202327164	 0.2445762027	-0.289266
C	-1.5661807918	-4.7164774231	-0.0340239783	 0.338547
N	-2.8221980483	-5.1746149941	 0.1506329744	-0.524565
O	-0.5755669403	-5.3924650648	-0.2381818134	-0.350051
H	 0.771323443	 1.8265792931	 0.8403834355	 0.148233
H	 0.4763758916	 1.9249470174	-0.9005768117	 0.148235
H	-0.8848341242	 1.9295922786	 0.2285384495	 0.152878
H	 0.2701082982	-2.9906678136	-1.1208091696	 0.17017
H	 0.5549622349	-3.0865440562	 0.5788152957	 0.17017
H	-3.5621617858	-4.51046675	 0.3121164244	 0.280736
H	-3.0073391216	-6.1628081476	 0.1259145677	 0.270244
