14
gdb 69193	2.03384	1.73914	1.16748	4.6771	67.62	-0.2665	-0.0386	0.2279	1040.5915	0.099662	-436.679042	-436.671036	-436.670091	-436.711792	29.544	
O	-0.1831878685	 1.3951724209	 0.0632289739	-0.452059
C	-0.0704175415	 0.0302291457	 0.0174655339	 0.415899
C	-0.331088686	-0.8013371048	-1.1814115313	-0.351422
C	-1.2483317153	-0.9708854325	 0.0432696573	-0.244234
C	-0.5415860273	-1.7764941145	 1.0770760271	 0.438793
O	-0.8180630232	-2.705151893	 1.7700383078	-0.287899
C	 0.6992662863	-0.7876828542	 1.0860065452	-0.360429
C	 2.0214375915	-1.2862090384	 0.7638976984	 0.272081
N	 3.0616418438	-1.6927146105	 0.4624165807	-0.325828
H	 0.4867402249	 1.7845637269	-0.510634059	 0.30478
H	-0.8299234931	-0.2838729677	-1.9944537201	 0.142686
H	 0.3451670577	-1.5935767986	-1.4869283999	 0.153258
H	-2.3150274736	-0.8075707993	-0.0376936093	 0.134551
H	 0.7001129542	-0.2647416699	 2.0474837253	 0.159825
