23
gdb 112127	2.64821	1.19335	0.95662	0.1656	93.81	-0.2324	0.0238	0.2562	1360.0827	0.207442	-351.167111	-351.157895	-351.156951	-351.201586	35.299	
C	 0.404202955	 0.0516622662	 1.8199335444	-0.390639
C	-0.0941582196	 0.3748081373	 0.4085553662	-0.157316
C	-1.3250638945	-0.4613644395	-0.0594440294	-0.082744
C	-1.8606594616	 0.1300521166	-1.342661015	-0.063765
C	-1.5762888995	-0.2115630567	-2.5977975949	-0.062351
C	-0.6740745268	-1.3383038367	-3.0349762274	-0.257206
C	-1.0697449158	-2.7132342813	-2.4753492028	-0.237187
C	-0.9645507156	-2.8643405428	-0.9810181508	-0.063346
C	-1.0524225454	-1.9463299244	-0.0168727059	-0.048746
H	 1.2109739332	 0.7323824188	 2.1095913697	 0.112293
H	-0.3986674051	 0.1566618295	 2.5589390807	 0.11155
H	 0.7927059058	-0.9683628451	 1.891110622	 0.121024
H	-0.3713271936	 1.4349008141	 0.3577164444	 0.094082
H	 0.7157964452	 0.233240589	-0.3163273767	 0.103346
H	-2.0981325848	-0.2915122881	 0.7070202324	 0.08062
H	-2.5150405151	 0.9873195448	-1.1907057525	 0.081579
H	-2.0331132841	 0.3727845173	-3.3938470262	 0.08137
H	-0.669834624	-1.3934302741	-4.128718407	 0.094859
H	 0.3619378789	-1.1278290373	-2.7373733454	 0.11177
H	-2.0942781851	-2.9522398101	-2.795855103	 0.111522
H	-0.4337413046	-3.4777001486	-2.9402878286	 0.096221
H	-0.7970407238	-3.8895584728	-0.6526229742	 0.078812
H	-0.932738929	-2.3168314461	 1.0000258201	 0.084254
