16
gdb 20851	3.2452	1.85325	1.28844	1.4262	66.65	-0.2124	0.0104	0.2227	949.8089	0.132602	-376.11488	-376.106868	-376.105924	-376.147632	28.953	
C	-0.1283530809	 1.5441021189	-0.0240244868	-0.374365
C	 0.1001110783	 0.0220696412	-0.0492734911	-0.30312
C	 0.7389101376	-0.5070251741	 1.1954983074	 0.276635
N	 2.0453990661	-0.7680161989	 1.2873555881	-0.263947
N	 2.1973031698	-1.1988152275	 2.5279210269	-0.09192
N	 1.0946163677	-1.2451622131	 3.2822175994	-0.280199
C	 0.1511812013	-0.808936727	 2.4494713375	 0.252359
N	-1.1953699668	-0.766268322	 2.8040617176	-0.596556
H	 0.8212744027	 2.0763152059	 0.0835959745	 0.131083
H	-0.6084032695	 1.8818035292	-0.9477471767	 0.116204
H	-0.7698716242	 1.8434144185	 0.8126080203	 0.107031
H	-0.8586343957	-0.4887999482	-0.202745221	 0.11137
H	 0.7372040108	-0.2367210402	-0.9002267169	 0.123456
H	 3.088187156	-1.5046815901	 2.8796575623	 0.28706
H	-1.3247234896	-0.8783525809	 3.8013417904	 0.254331
H	-1.6722000634	 0.0634697184	 2.4780712381	 0.250578
