20
gdb 93864	2.01574	1.70277	1.41376	2.2501	74.42	-0.2443	0.0634	0.3077	1059.9109	0.171021	-440.25808	-440.249224	-440.24828	-440.291474	33.788	
C	 0.3880770719	 1.7758875234	 0.1236324124	-0.395253
C	 0.1876414324	 0.2627978788	 0.0864159419	 0.077036
O	 0.8223918998	-0.2556941896	-1.0868681184	-0.283047
C	 1.7775192562	-1.2567356066	-0.7402775838	-0.082312
C	 2.1522064715	-1.0058434	 0.7165508283	 0.049621
O	 3.1656695399	-0.0079950752	 0.7464607076	-0.433713
C	 0.8218620615	-0.4991494953	 1.253370127	 0.270298
C	 0.5502791755	-0.215275536	 2.6790076287	-0.314974
N	 0.0482412797	-1.4569561334	 2.0586672946	-0.358536
H	 1.4511080478	 2.0054302552	 0.2268720504	 0.133623
H	 0.0232986353	 2.2185644379	-0.8075210735	 0.124435
H	-0.1610980918	 2.2281173861	 0.9561167058	 0.102535
H	-0.8890695728	 0.0338284218	 0.0350360181	 0.067752
H	 1.3451938753	-2.2625477809	-0.8463677278	 0.097986
H	 2.6377428355	-1.1629848764	-1.40848032	 0.117433
H	 2.4656309744	-1.9202845864	 1.2347960555	 0.080929
H	 3.2736181131	 0.2738010729	 1.6608725228	 0.283052
H	 1.3224946052	-0.3609588375	 3.4315364063	 0.113875
H	-0.1577146381	 0.5745828109	 2.9174615068	 0.118905
H	-0.9439170623	-1.3592479395	 1.8516416072	 0.230357
