19
gdb 108495	2.70531	1.56732	1.24006	1.8544	76.52	-0.2458	0.0107	0.2565	1075.4953	0.159338	-423.003902	-422.995726	-422.994782	-423.036683	31.068	
C	 0.1348741756	 1.4226198873	-0.1076492664	-0.259452
O	-0.020855649	 0.0258510103	 0.0368837008	-0.286612
C	 0.5990195941	-0.5157632269	 1.1750983116	 0.331058
C	 2.1503783096	-0.6031932394	 1.1651715782	-0.124659
O	 2.0911124255	-2.0192938123	 1.4309191224	-0.296572
C	 0.6578140891	-2.0621139423	 1.2255388982	 0.072432
C	-0.1055396717	-2.5297579311	 2.4689099408	-0.288972
C	-0.3918607924	-1.2325286412	 3.1923886134	-0.055624
C	-0.0213958256	-0.152560172	 2.5034804179	-0.152365
H	 1.1948815283	 1.7173507172	-0.1283724942	 0.108883
H	-0.3215406875	 1.6964902879	-1.0615290097	 0.131306
H	-0.3661043807	 1.9839451194	 0.6935202623	 0.111271
H	 2.5836267147	-0.3877021083	 0.1789024148	 0.096596
H	 2.7012304788	-0.0623168954	 1.9424364518	 0.100811
H	 0.3957466377	-2.5808021674	 0.2982445404	 0.081561
H	-1.0273957154	-3.0729064355	 2.223669337	 0.109307
H	 0.5229368141	-3.2099911383	 3.055095667	 0.124915
H	-0.850459955	-1.2088161465	 4.1756991919	 0.099332
H	-0.1275434302	 0.8706037942	 2.8451050718	 0.096786
