22
gdb 98293	2.58281	1.02783	0.86635	3.2281	83.85	-0.2379	0.0383	0.2762	1465.9723	0.192995	-404.374696	-404.364064	-404.363119	-404.411481	37.831	
C	-0.5049759482	 1.285030815	 0.6636826129	-0.333131
N	-0.285110852	-0.147512435	 0.630848969	-0.319971
C	 0.9439571557	-0.7078182584	 0.8260069589	 0.433474
O	 1.9495702686	-0.0478674025	 1.0301886307	-0.394373
C	 0.9854014599	-2.239759723	 0.7872769973	-0.1242
C	 2.0277096066	-2.6982499693	-0.2439037356	-0.390169
C	 1.3176893751	-2.750347685	 2.1816157659	 0.063377
C	 0.2334526101	-2.9635585662	 3.2058321482	-0.274775
C	 0.9403374568	-4.1491173548	 2.5921390153	-0.282798
H	 0.4640163396	 1.7541769094	 0.8379530522	 0.172076
H	-0.914336153	 1.6482304841	-0.2856553222	 0.123161
H	-1.1898692537	 1.5678736816	 1.4712147666	 0.123882
H	-1.0707625872	-0.7549417349	 0.4720006927	 0.24281
H	-0.0007567036	-2.6317730019	 0.5023231942	 0.054674
H	 2.1281937614	-3.7871985859	-0.2281092759	 0.1125
H	 1.7483684391	-2.3915215819	-1.2570035175	 0.110417
H	 2.9966103853	-2.2493841893	-0.0115057511	 0.142954
H	 2.2623019547	-2.3680955831	 2.5567163559	 0.103856
H	 0.4424852249	-2.7133385993	 4.2398684749	 0.115016
H	-0.7941224264	-2.7797411958	 2.9075135027	 0.100037
H	 0.385748692	-4.7543823235	 1.8816505391	 0.107622
H	 1.6333721144	-4.7137631303	 3.2060667458	 0.113561
