23
gdb 78220	2.12986	1.50649	1.38577	1.367	85.25	-0.2433	0.0719	0.3152	1139.8836	0.204482	-388.264787	-388.25515	-388.254206	-388.298003	38.238	
C	-0.3857401017	 1.6163405909	 0.0948062439	-0.4227
C	-0.0794316174	 0.1213194615	 0.0621551628	-0.017258
C	 0.4364515243	-0.5142690616	-1.2385843326	-0.108188
C	 1.8256493609	-0.1244258157	-1.5984524368	 0.090959
O	 2.2849572435	 1.1967806908	-1.4674944318	-0.417473
C	 1.6595097409	-1.1050969608	-0.4781737985	-0.156987
C	 1.1539517553	-0.4906694998	 0.8450547142	 0.320845
C	 2.0942339779	 0.4672102688	 1.5810154598	-0.455506
C	 0.6973006696	-1.5985877014	 1.7996570585	-0.437965
H	 0.4628540942	 2.2139821986	-0.2388053901	 0.143446
H	-1.232433524	 1.8407879826	-0.5642937865	 0.106982
H	-0.6662194527	 1.9349400657	 1.105450252	 0.103291
H	-0.9769431355	-0.4195765173	 0.3811989041	 0.066776
H	-0.2058146636	-0.9939844032	-1.9694435855	 0.0808
H	 2.1634033132	-0.6020842993	-2.5206608985	 0.08694
H	 3.2344219402	 1.1613769506	-1.309512408	 0.284687
H	 2.081771131	-2.1036949564	-0.5438045428	 0.074941
H	 1.6103798613	 0.8750972797	 2.4764117794	 0.107142
H	 2.9954119908	-0.0631148306	 1.912094513	 0.101989
H	 2.4015864593	 1.3020427607	 0.9512149648	 0.121274
H	 1.5564339171	-2.1441635926	 2.2083578549	 0.105901
H	 0.1367064357	-1.179633786	 2.6431637042	 0.109457
H	 0.0536638398	-2.3238070652	 1.2907789593	 0.110646
