23
gdb 114039	2.75275	1.14357	0.96788	1.595	86.4	-0.2359	0.0749	0.3108	1363.3973	0.204685	-388.268307	-388.258406	-388.257462	-388.302583	37.751	
C	-0.0094860113	 1.6032427272	 0.0908137584	-0.378299
C	 0.0362207109	 0.0814189127	 0.2623643401	-0.200321
C	-1.3206696567	-0.5775792395	 0.0213139859	 0.060458
C	-1.9263751387	-0.6379201162	-1.421104902	-0.305619
C	-2.1736069079	-2.1473902296	-1.253307158	 0.281491
C	-3.4234674989	-2.8562363798	-1.6933297798	-0.496883
C	-0.863441084	-2.8379154794	-1.0220013836	 0.059197
O	 0.3512078816	-2.4281157402	-1.593957733	-0.416467
C	-1.4628725858	-2.102509439	 0.1326620632	-0.176891
H	 0.9708326655	 2.0549657793	 0.2726231033	 0.108153
H	-0.3171210488	 1.8797515587	-0.924001804	 0.113572
H	-0.721343308	 2.0631468099	 0.7865340478	 0.106484
H	 0.7736960075	-0.355180042	-0.4161912082	 0.121344
H	 0.3678116458	-0.1617716686	 1.2810822056	 0.086154
H	-2.0612150984	-0.1128873917	 0.6835188854	 0.065959
H	-2.8472871231	-0.0601323651	-1.5279653107	 0.095402
H	-1.2458433929	-0.3686351293	-2.2352701131	 0.087722
H	-3.504551236	-2.8791528792	-2.7878231917	 0.114931
H	-3.4406981815	-3.8924437028	-1.3392659541	 0.116128
H	-4.322362592	-2.3589190222	-1.3104594984	 0.117298
H	-0.9565078734	-3.9220995307	-0.9275719888	 0.08016
H	 0.3155207689	-2.6255511407	-2.5361190478	 0.283263
H	-1.7128695027	-2.6283715416	 1.0488507035	 0.076767
