13
gdb 23972	6.20138	0.90028	0.78615	3.9071	84.91	-0.2314	-0.0321	0.1994	1332.6539	0.090477	-378.496683	-378.489024	-378.48808	-378.528932	28.655	
C	-0.0198883522	-1.2181450184	-0.0025140711	-0.413639
C	-0.0175000145	-0.0142419021	 0.0034905858	 0.218005
C	-0.0019415203	 1.4002351735	 0.0103581195	 0.160075
C	-1.1150305218	 2.234237979	 0.0301833757	-0.170437
N	-0.6851264017	 3.5204392384	 0.0305871029	-0.310356
C	 0.6971645329	 3.551870675	 0.0112880244	 0.249959
C	 1.1438587362	 2.244457447	-0.0015641522	-0.359278
C	 1.4098964065	 4.7696554102	 0.0073598423	 0.204254
N	 1.9804865715	 5.778800142	 0.0043879411	-0.341578
H	-0.0232237462	-2.2797991905	-0.0077948902	 0.19103
H	-2.1638984696	 1.9877131493	 0.0437008594	 0.149943
H	-1.2731213645	 4.3368925165	 0.043012164	 0.285999
H	 2.1739981338	 1.9286059201	-0.0176630015	 0.136025
