15
gdb 14509	3.35865	2.24133	1.58345	2.8348	61.55	-0.234	-0.0441	0.1899	797.3145	0.118166	-399.72183	-399.714588	-399.713643	-399.753948	26.965	
O	 0.1705960848	 1.4369714266	-0.1617067497	-0.490015
C	 0.1028969115	 0.0447419628	 0.018279024	 0.326093
C	 1.2016882171	-0.4783069646	-0.8973429121	 0.124279
O	 1.5154485198	-1.6307243577	-1.0704791618	-0.262637
C	-0.0720980894	-0.596424895	 1.4505398587	-0.085209
C	-1.5367047737	-0.0841626605	 1.4629434136	-0.236359
C	-1.2797033641	-0.7162845584	 0.0694020995	-0.085185
N	-0.6241984777	-1.8573915488	 0.8189704359	-0.324446
H	-0.4939965321	 1.8671952559	 0.3828504948	 0.290093
H	 1.7233405539	 0.3459576348	-1.4265760014	 0.109206
H	 0.6509961008	-0.6196879649	 2.2672432438	 0.093118
H	-2.2061785997	-0.6634926592	 2.098580257	 0.123254
H	-1.7326150256	 0.9879860766	 1.5411424294	 0.081431
H	-1.9844668341	-0.8812233744	-0.7470006137	 0.093117
H	 0.0899185385	-2.2920509834	 0.232388092	 0.243261
