18
gdb 79763	3.23867	1.89218	1.64822	1.9855	72.94	-0.1979	0.0798	0.2777	881.9462	0.150512	-401.90665	-401.900274	-401.899329	-401.937081	27.078	
C	-0.0759896022	 1.4728165559	 0.1139140463	-0.32182
N	 0.0327889845	 0.022754874	-0.0529549069	-0.063129
C	-1.2712221725	-0.6061312714	-0.0674687372	-0.052396
C	-1.3022118831	-2.0976907385	 0.0672941675	 0.056517
O	-0.0715511309	-2.7619600174	 0.1816357273	-0.243295
C	 0.6520198957	-2.0780073911	 1.1703315749	 0.056513
C	-0.2728711321	-1.2419810611	 2.0433282597	-0.145344
C	-1.5844350736	-1.2552654047	 1.3030785706	-0.145341
C	 0.7286330595	-0.5859972237	 1.0612097855	-0.05239
H	 0.9261786021	 1.9111485552	 0.1297250431	 0.11999
H	-0.6140082621	 1.8956537061	-0.7395915838	 0.119991
H	-0.6011658345	 1.7659952349	 1.0391552219	 0.101736
H	-2.027432967	-0.111276038	-0.6659180744	 0.091933
H	-2.0507991811	-2.685941624	-0.4494875574	 0.102812
H	 1.4901517177	-2.650287933	 1.5491652089	 0.10281
H	-0.2226004195	-1.1947539107	 3.1221199904	 0.089738
H	-2.5346124446	-1.2181880612	 1.8172163987	 0.089738
H	 1.6241266741	-0.0745287514	 1.3949311247	 0.091936
