20
gdb 89236	2.97346	1.63754	1.28125	1.9631	78.47	-0.2271	0.0699	0.297	1043.0999	0.171903	-403.094489	-403.08673	-403.085786	-403.12618	31.755	
C	-0.0995333113	 1.5352889971	-0.0052369029	-0.402667
C	 0.0518834766	 0.0198234781	-0.0326534399	 0.075367
C	 0.9428663439	-0.5445093078	-1.1669263509	-0.346389
C	 1.9468364192	-1.2899858115	-0.2919781044	 0.438954
O	 2.9328546696	-2.0657636712	-0.8990657053	-0.488678
C	 1.1769740626	-1.8988624363	 0.9171419678	-0.060056
C	 2.3933355511	-1.6631638234	 1.8318802635	-0.24464
C	 2.2297039963	-0.3957623408	 0.9742588742	-0.097371
N	 0.723536522	-0.473693466	 1.2100181973	-0.137928
H	 0.8775769804	 2.0309803743	 0.0133559477	 0.111872
H	-0.635983187	 1.8894989665	-0.8913281922	 0.113162
H	-0.6530736347	 1.8484475848	 0.8845222432	 0.126358
H	-0.9427577818	-0.4394958106	-0.0571753241	 0.076178
H	 0.4168111796	-1.2178439263	-1.8502469581	 0.104517
H	 1.4215275729	 0.2395784333	-1.766640514	 0.087687
H	 3.3672316653	-1.5351006472	-1.575014329	 0.283788
H	 0.4673349528	-2.7293379081	 0.9085543243	 0.075091
H	 2.1741010005	-1.5504637402	 2.8941360635	 0.102322
H	 3.2739995028	-2.2735621595	 1.6347221012	 0.110842
H	 2.771074169	 0.5507470149	 1.038229448	 0.07159
