17
gdb 9489	2.96804	1.68511	1.52089	3.7435	68.98	-0.2473	0.0253	0.2726	927.0374	0.142899	-360.026896	-360.018595	-360.017651	-360.059276	30.795	
C	-0.5623678296	 1.3167969675	 0.0353883086	-0.39283
C	 0.1928487686	 0.0066764644	-0.0531224618	 0.038537
N	 1.5556388565	 0.0564179478	-0.639006285	-0.334185
C	 2.0186319885	-1.0072710538	 0.2765432259	-0.205644
C	 0.843487738	-0.6153511207	 1.2389800955	 0.127075
N	 1.1333974588	 0.3861742267	 2.2552741092	-0.548319
C	 0.1221209374	-1.7321088405	 1.8424759841	 0.264944
N	-0.4335975812	-2.6353330229	 2.3020852912	-0.339921
H	 0.0225986512	 2.0866660868	 0.5421487308	 0.12424
H	-0.8012245786	 1.6757129655	-0.9715538062	 0.118312
H	-1.5019127029	 1.1816456375	 0.5796361468	 0.132638
H	-0.4412010164	-0.7598709124	-0.522925891	 0.084972
H	 1.6143959666	-0.1617405265	-1.6278861832	 0.224703
H	 1.9142000973	-2.0301732374	-0.1094609664	 0.110492
H	 3.0283708028	-0.8695487579	 0.6776227671	 0.106001
H	 1.658095686	-0.0325007077	 3.0176914954	 0.241169
H	 1.7216682269	 1.1053209734	 1.8441179289	 0.247816
