22
gdb 112875	2.45221	1.2559	1.00895	3.6963	82.69	-0.234	0.0366	0.2706	1304.7567	0.19508	-404.412585	-404.40297	-404.402026	-404.44744	35.852	
C	 0.053794998	 1.2547190698	-0.4130632934	-0.387159
C	 0.1959830622	-0.2232424346	-0.0382550224	-0.184843
C	 0.7326605169	-0.4533541208	 1.3914275901	-0.095966
C	 0.7100600909	-1.9272562589	 1.8548246229	-0.259781
C	 2.1814320146	-2.4306571999	 1.8011222559	 0.042227
C	 2.4885416846	-3.3387251566	 0.6053961062	-0.39178
N	 2.9273495458	-1.183125197	 1.7637394012	-0.299233
C	 2.2104635963	-0.0494219935	 1.5020371631	 0.402819
O	 2.6807649305	 1.0622903399	 1.3652117443	-0.389096
H	 1.0076307062	 1.7758839069	-0.3099780107	 0.155765
H	-0.2997357219	 1.3622008736	-1.4433622791	 0.103849
H	-0.6697578303	 1.7531847732	 0.2419478161	 0.109604
H	-0.7790404492	-0.7206782521	-0.1161759106	 0.093604
H	 0.8530448452	-0.7283603125	-0.7586928529	 0.099347
H	 0.1589282501	 0.1823128542	 2.0737679307	 0.096437
H	 0.3376917794	-1.9969554727	 2.8800063615	 0.109222
H	 0.0607164566	-2.5484071098	 1.2319460887	 0.104372
H	 2.4244166857	-2.9782641889	 2.7203600697	 0.083644
H	 2.2243098475	-2.8501731211	-0.3379394769	 0.127427
H	 3.5530095208	-3.594309803	 0.5679369794	 0.114364
H	 1.9227377378	-4.2732273229	 0.6809029858	 0.119953
H	 3.9349235124	-1.1442049132	 1.7794095904	 0.245226
