17
gdb 62009	4.45012	0.79766	0.7145	6.4077	70.24	-0.2434	0.0274	0.2708	1515.9487	0.136532	-451.367797	-451.357796	-451.356852	-451.403468	35.434	
N	 1.0726643245	 1.415691917	-0.3494396433	-0.519118
C	 0.2819958733	 0.1945045343	-0.1858562432	-0.09774
C	 0.5168372653	-0.9267201538	-1.2454618835	-0.176774
N	-0.1648831866	-0.6623192155	-2.5052838408	-0.339262
C	 0.418945603	 0.0996871982	-3.4933425516	 0.454243
N	-0.1997633845	 0.014857453	-4.7261292298	-0.556008
O	 1.4156534602	 0.7796286247	-3.3055644361	-0.39171
C	 0.5116359126	-0.3618389844	 1.1559140687	 0.28071
N	 0.7031229879	-0.8377415752	 2.1911655314	-0.317903
H	 2.0369745057	 1.2205962227	-0.092300681	 0.237272
H	 1.1042217224	 1.6365136579	-1.3436002996	 0.261352
H	-0.7810789534	 0.4648870724	-0.2456815878	 0.129522
H	 1.5939706238	-1.031491643	-1.4120854964	 0.140945
H	 0.1341869148	-1.8756953215	-0.8604449018	 0.124789
H	-0.8504645881	-1.3428370343	-2.7892485592	 0.247525
H	-1.1779538078	-0.2250184897	-4.7697026982	 0.253048
H	 0.0855577669	 0.7402434072	-5.3654194077	 0.269108
