19
gdb 78434	3.24817	1.34198	1.30931	1.6025	78.89	-0.2307	0.0235	0.2542	1060.0404	0.160775	-385.856003	-385.848536	-385.847592	-385.887654	30.251	
O	 0.1692933547	 1.3297658748	 0.0675414352	-0.444806
C	 0.0542832908	-0.0625238463	-0.0402788727	 0.153484
C	-1.3250306769	-0.6584541119	-0.0135606799	-0.137076
C	-0.4879728063	-0.6346481428	-1.3167565537	-0.13796
C	-0.445574524	-2.1837344393	-1.3113269715	-0.067908
C	 0.8247718639	-2.8828089572	-0.9136733443	-0.078056
C	 0.7919628991	-3.2915857115	 0.357270621	-0.063223
C	-0.5053633776	-2.9598212594	 1.0696768793	-0.283971
C	-1.3154109675	-2.1968115119	-0.0056179132	-0.028099
H	-0.5716430194	 1.7360855639	-0.3946937785	 0.281074
H	 0.8888147048	-0.5295878554	 0.4728938074	 0.106723
H	-2.1729007597	-0.0409301173	 0.2662847996	 0.078337
H	-0.6016248801	-0.0125464694	-2.1984503995	 0.079028
H	-0.9253183898	-2.611125594	-2.1966200885	 0.074503
H	 1.6662795635	-3.0163671562	-1.5852323442	 0.091273
H	 1.6029892871	-3.8106510884	 0.858918339	 0.091539
H	-1.0170286506	-3.8689405368	 1.4104362574	 0.101888
H	-0.331849642	-2.3511367429	 1.9669464945	 0.109519
H	-2.3160730801	-2.606649998	-0.1513268374	 0.073731
