24
gdb 117170	2.52857	0.88174	0.70338	1.2807	87.74	-0.2557	0.0374	0.2931	1736.03	0.21551	-405.574512	-405.563222	-405.562278	-405.611747	40.382	
C	-0.2740929042	 1.1300992775	 1.0620957625	-0.389903
C	-0.1136121304	-0.0365068042	 0.1048943303	-0.027734
O	-1.3586828494	-0.7493683169	 0.0813248603	-0.250087
C	-1.4243830908	-1.8429712379	-0.7079478341	 0.390542
N	-0.4297653926	-2.1974279268	-1.4142576612	-0.539125
C	-2.7923006536	-2.4968958469	-0.5647506165	-0.044415
C	-3.0798705762	-3.4954973146	-1.6893816798	-0.421631
C	-2.9158481624	-3.1248743447	 0.8448413586	-0.166708
C	-4.3268755864	-3.602937654	 1.199332293	-0.392858
H	 0.6568511416	 1.7028854188	 1.1110798699	 0.118874
H	-1.0735302315	 1.7997147862	 0.7317974172	 0.125222
H	-0.5158114284	 0.7791188976	 2.0696254113	 0.124321
H	 0.1284111965	 0.2954776205	-0.9102389384	 0.11749
H	 0.6845443681	-0.7184381668	 0.4168162066	 0.116559
H	-0.6471446038	-3.0359327637	-1.9472425645	 0.219486
H	-3.5235177233	-1.6798173315	-0.6227739815	 0.093479
H	-2.4217002459	-4.3700852769	-1.6266706421	 0.119447
H	-4.109139788	-3.8577867959	-1.6324425853	 0.121699
H	-2.9433375575	-3.0367770093	-2.6732138711	 0.124135
H	-2.2094841841	-3.9622383211	 0.919260571	 0.097979
H	-2.592336974	-2.3784307285	 1.5763401265	 0.114156
H	-4.3604571881	-3.9752692678	 2.2279341097	 0.115309
H	-5.0522316245	-2.7853827235	 1.1187759668	 0.115948
H	-4.6652560512	-4.4142896596	 0.5477010106	 0.117816
