16
gdb 79685	2.71605	1.5697	1.22765	3.7131	70.82	-0.2359	-0.0371	0.1988	1020.7727	0.122838	-437.792778	-437.78484	-437.783896	-437.825091	30.112	
O	-0.2616194303	 1.5299906395	-0.3471923302	-0.414305
C	-0.3063221878	 0.1423344538	-0.1927173992	 0.041277
C	-0.400248908	-0.6283818583	 1.0781879759	-0.17593
C	-1.4436226728	-0.1362787068	 2.0868927759	-0.048004
C	-2.2003411471	 1.0832509684	 1.7138175742	-0.258823
N	-2.568403133	-0.2125986098	 1.0984389779	-0.185018
C	-1.5791748984	-0.6237251961	 0.0359462957	 0.192584
C	-1.9921202654	-1.7048728889	-0.8776063592	 0.089365
O	-1.2548976888	-2.248245291	-1.6687295182	-0.277149
H	 0.6194345762	 1.8238392559	-0.0889014192	 0.294549
H	 0.2787188779	-0.4056464395	-0.9343721924	 0.134782
H	 0.2498125594	-1.4703262798	 1.2827756863	 0.118122
H	-1.5435995523	-0.6112143698	 3.0570654218	 0.109789
H	-2.9561525278	 1.399082884	 2.4281904349	 0.125305
H	-1.7581741254	 1.8626228859	 1.1126116772	 0.162751
H	-3.0577264263	-1.9956829874	-0.7633527213	 0.090705
