13
gdb 131168	3.35366	1.31564	0.94494	4.4036	64.58	-0.2198	-0.0255	0.1942	1122.3176	0.090893	-486.083867	-486.076269	-486.075325	-486.116314	27.629	
O	 0.0970168852	 1.4021853936	 0.006443086	-0.446588
C	 0.0729512476	 0.0519149969	-0.0172873916	 0.272153
C	 0.0347036938	-0.7496874208	-1.1378284146	 0.388884
N	 0.0109190275	-0.4344381971	-2.4911488755	-0.413494
C	-0.0266014286	-1.3577478391	-3.4951109503	 0.148154
O	-0.0436913853	-2.5604247055	-3.3179974987	-0.328109
N	 0.0236158387	-2.006114604	-0.6269792288	-0.226403
N	 0.0535106496	-1.9899222876	 0.7133646673	-0.128618
N	 0.0830305948	-0.7294835952	 1.0805558654	-0.271782
H	 0.1214990757	 1.6674196031	 0.9344808996	 0.312219
H	 0.0228081798	 0.547355796	-2.7233814507	 0.281461
H	-0.0401563374	-0.8874263068	-4.4926859862	 0.106387
H	-0.0029160615	-2.8586579036	-1.1687728419	 0.305736
