17
gdb 120182	5.17783	0.83742	0.81229	3.361	70.55	-0.2607	-0.0137	0.247	1428.8576	0.133818	-458.881523	-458.872944	-458.872	-458.915621	30.664	
C	-0.1560262354	 1.3487815078	-0.0522995685	-0.226408
O	-0.1178661141	-0.0581985051	-0.1138290917	-0.239031
C	 0.8099607873	-0.5396517054	-1.0640122029	-0.105329
C	 0.7549930337	-2.0533591254	-1.0193291465	-0.004891
C	-0.4876169818	-2.728593652	-1.6663573382	-0.077786
O	 0.0607169709	-2.3852270975	-3.0085127942	-0.30212
C	 1.2704781912	-2.8280000627	-2.2637109913	-0.106188
C	 0.3657831894	-4.015800501	-1.8243506552	 0.477993
O	 0.315334821	-5.1984179754	-1.7822429575	-0.305188
H	 0.8169341742	 1.7709104875	 0.2451318972	 0.105737
H	-0.4405535757	 1.791688958	-1.0194886472	 0.108611
H	-0.9031197146	 1.6224015557	 0.6963480299	 0.130536
H	 0.5667449175	-0.1780226118	-2.0725876923	 0.112925
H	 1.8292207752	-0.1964826357	-0.8171188393	 0.090289
H	 1.0551622903	-2.4440693	-0.0421832571	 0.101104
H	-1.546393907	-2.5570936662	-1.4906044531	 0.123143
H	 2.2278068779	-2.7818438406	-2.7788429621	 0.116602
