17
gdb 73591	2.42596	1.94281	1.49383	2.0896	66.03	-0.2384	0.0646	0.3029	922.4875	0.136395	-458.908816	-458.90154	-458.900596	-458.940262	28.925	
O	-0.0844137272	 1.3444987543	-0.0981096137	-0.47796
C	 0.0497610896	-0.0516894553	-0.0017351741	 0.355881
C	 0.8005965892	-0.7390300175	-1.1537367647	-0.142563
O	-0.2083769797	-1.2982538792	-1.9900977081	-0.255158
C	-1.2732231774	-1.7608799332	-1.1560643829	-0.101148
C	-1.3397993617	-0.7626546663	 0.0066197051	-0.095434
C	-1.0386632383	-1.2346043889	 1.4460803178	 0.00758
O	 0.1771397584	-1.9967896433	 1.4016011983	-0.236531
C	 0.270713741	-0.5705062041	 1.4518413383	-0.068651
H	 0.7945110267	 1.7369701218	-0.0539156727	 0.282338
H	 1.3743863965	-0.0300558325	-1.7583225618	 0.098208
H	 1.4711886424	-1.5208203656	-0.7710362081	 0.10475
H	-2.17661718	-1.7829392377	-1.7704321246	 0.108717
H	-1.065696275	-2.7750847662	-0.7876947697	 0.103276
H	-2.1536608671	-0.0391939253	-0.0531918751	 0.101183
H	-1.727027938	-1.4505904896	 2.254317287	 0.109354
H	 0.8436854206	-0.1215108116	 2.2559483891	 0.106159
