22
gdb 22404	6.0998	0.60391	0.57587	1.0973	87.84	-0.2391	0.0104	0.2495	1967.0884	0.192307	-404.306912	-404.296735	-404.295791	-404.343	37.193	
C	-0.1614640228	 1.5877065067	 0.2421125476	-0.379965
C	-0.0787442291	 0.0622067151	 0.1418145963	-0.164585
C	-1.4413785462	-0.6012451767	-0.0904966752	-0.187073
C	-1.3738884035	-2.1201645398	-0.1773238643	 0.033876
C	-1.0608157626	-2.9120912981	 1.1419966655	-0.328998
C	-2.2733286311	-3.7672017544	 0.8432243601	 0.421967
C	-2.72816624	-2.8943888646	-0.3074256926	-0.348304
N	-2.6446450952	-4.8615850099	 1.3597086685	-0.233903
O	-3.8144636078	-5.3398641087	 0.7335615376	-0.396217
H	 0.8255968265	 2.0318187115	 0.404109939	 0.112229
H	-0.5763031339	 2.0230330632	-0.6738828042	 0.114195
H	-0.8053783519	 1.8955631392	 1.0735252652	 0.114374
H	 0.6007277911	-0.216294208	-0.6746381307	 0.095222
H	 0.3701066945	-0.3405801682	 1.0592526158	 0.099941
H	-2.1294459259	-0.3170858861	 0.7190851703	 0.090422
H	-1.8844064988	-0.2078949146	-1.0162033772	 0.095
H	-0.6835017367	-2.4170562382	-0.9735365943	 0.076254
H	-0.1015481434	-3.4319510147	 1.2029073255	 0.119925
H	-1.1795152293	-2.3010386673	 2.0446845098	 0.116413
H	-3.6056633742	-2.2848776507	-0.0622308126	 0.120132
H	-2.9273044057	-3.4142343077	-1.2481031685	 0.124379
H	-3.9692879639	-6.1662027282	 1.2031879984	 0.304716
