16
gdb 123450	3.86389	1.22573	1.14447	1.37	69.3	-0.2541	-0.0349	0.2191	1085.7216	0.127303	-430.199552	-430.192162	-430.191218	-430.232501	26.722	
C	-0.1608132283	 1.5819183279	 0.8883687945	-0.186584
C	-0.6597505663	 0.2322584067	 0.395840474	 0.014581
C	-0.3507896083	-0.2798972112	-0.9593985447	-0.240746
N	 0.2338343429	-0.9145417409	 0.2366919612	-0.315127
N	 1.0542626461	 2.0404352211	 0.2322833162	 0.141323
N	 2.2427904781	 1.4701323444	 0.410411721	-0.248858
C	 3.0061038152	 2.2002320927	-0.394465406	 0.0779
N	 2.3140116904	 3.1710513958	-1.0294724127	-0.204262
N	 1.0736036543	 3.0559120896	-0.6232382983	-0.114395
H	-0.9083790782	 2.3560334204	 0.7019444984	 0.15971
H	 0.040625487	 1.5417878398	 1.9633670542	 0.149578
H	-1.6212218764	-0.015900147	 0.8427245321	 0.106043
H	-1.0832127753	-0.8803369261	-1.4908014916	 0.126182
H	 0.2913152413	 0.3194808006	-1.5991690095	 0.128669
H	 1.202148405	-0.6172708032	 0.3458841467	 0.251398
H	 4.0638331225	 2.0344779295	-0.5180798555	 0.154588
