15
gdb 132355	1.90231	1.78166	0.92525	2.6483	71.61	-0.2503	-0.014	0.2364	1177.1651	0.112472	-461.989961	-461.982148	-461.981204	-462.022513	29.488	
C	-0.0639010385	 1.5031066254	 0.0571447051	-0.464207
C	-0.022330722	 0.0007963031	-0.0156643185	 0.340798
C	 0.1777503741	-0.6635971543	-1.2179735206	-0.264463
C	 0.2061421088	-2.0624300005	-1.2193605517	 0.451752
O	 0.402366439	-2.688934048	-2.4017526195	-0.429915
C	 0.0334658203	-2.7444579577	-0.0188783194	-0.447408
C	-0.1580594821	-1.9588208072	 1.1126154557	 0.350893
F	-0.3259099513	-2.5874462671	 2.2750994795	-0.076453
N	-0.1906610758	-0.6507351366	 1.1528841753	-0.384593
H	 0.0790729567	 1.9610289044	-0.9239881075	 0.120596
H	-1.0238691153	 1.8346538479	 0.4655128503	 0.143811
H	 0.7134949996	 1.8696609968	 0.7350241868	 0.14381
H	 0.3113355809	-0.1258149892	-2.1480067192	 0.106657
H	 0.4003090777	-3.6428149911	-2.264768646	 0.304559
H	 0.044448358	-3.8258933858	 0.0506735098	 0.104163
