23
gdb 109390	3.05381	1.05669	0.85697	1.117	88.94	-0.2242	0.0217	0.2458	1440.4992	0.206978	-388.302027	-388.29275	-388.291806	-388.336264	35.355	
C	 0.2097102347	 1.625340151	-0.0932408887	-0.370076
C	-0.1503212216	 0.1405376246	 0.0920335879	-0.276254
C	 0.6121556095	-0.5274402259	 1.2151009145	 0.328198
C	-0.0189956613	-0.9276005827	 2.3238472704	-0.165264
C	 0.6023918392	-1.5666626232	 3.5436434273	-0.255867
C	 1.5378671939	-2.750513852	 3.2724636488	-0.064309
O	 2.7677313755	-2.3919546908	 2.6734835383	-0.240214
C	 2.6931519698	-2.0628557868	 1.3010924345	-0.070642
C	 2.1099039402	-0.6737759278	 1.0106345576	-0.29773
H	 1.2747598882	 1.7605346465	-0.3078500025	 0.118022
H	-0.3530713786	 2.0612040043	-0.9247096108	 0.112218
H	-0.0224677077	 2.1956211748	 0.8117522549	 0.119497
H	-1.2261678727	 0.0517084729	 0.2776012118	 0.097416
H	 0.0498742768	-0.3898990297	-0.8501375533	 0.096418
H	-1.0931079637	-0.7590976259	 2.3782814647	 0.074431
H	 1.1678564746	-0.8199418828	 4.1202579346	 0.114615
H	-0.1953484731	-1.9215119363	 4.2067660627	 0.097108
H	 1.8059378851	-3.2229592371	 4.2237940045	 0.099821
H	 1.0178544978	-3.5010085595	 2.6545950363	 0.084747
H	 3.7268965433	-2.0958635765	 0.9398479488	 0.10042
H	 2.1189885539	-2.8292773008	 0.7547199067	 0.084439
H	 2.3592192344	-0.4271248827	-0.0286160794	 0.095635
H	 2.6520613218	 0.0511937163	 1.6337766005	 0.11737
