22
gdb 6418	4.17722	0.89799	0.89501	2.7638	75.15	-0.2575	0.0657	0.3232	1443.9935	0.197461	-387.34825	-387.337799	-387.336855	-387.383541	37.941	
C	-0.0777832008	 1.5853903912	-0.0023856671	-0.378999
C	 0.0333872803	 0.0590602458	-0.0073872695	-0.192456
C	 0.7262229539	-0.4998020837	 1.241002681	 0.144265
O	 0.0558290265	-0.0952347428	 2.4367189489	-0.431582
C	 0.884498659	-2.0247316768	 1.1953531962	-0.217876
C	 1.7521198264	-2.5687295153	 2.3383364337	 0.142199
C	 1.7530868814	-4.0956072332	 2.4006228339	-0.406444
O	 3.0822406541	-2.0556032163	 2.258583361	-0.430988
H	 0.9144542338	 2.0497601617	-0.0062762825	 0.115579
H	-0.6209012056	 1.9477857813	-0.8804035458	 0.106664
H	-0.5986739403	 1.9308821622	 0.8943654338	 0.12621
H	-0.9686698836	-0.3900605294	-0.0851554681	 0.080776
H	 0.583391478	-0.2760215112	-0.8959242006	 0.093232
H	 1.7252915104	-0.0576970512	 1.3308004906	 0.100489
H	-0.8432046425	-0.4415564288	 2.3946397257	 0.272969
H	-0.1107716269	-2.4918031592	 1.2320846318	 0.079911
H	 1.3288461141	-2.3231537372	 0.2345555138	 0.080153
H	 1.3634140305	-2.1634367963	 3.2785807843	 0.103077
H	 2.1185043798	-4.5253728545	 1.4586740822	 0.102534
H	 2.4043385155	-4.4412667289	 3.2080619146	 0.124188
H	 0.7457122054	-4.4881807654	 2.5740017279	 0.113303
H	 3.4946193206	-2.4389011117	 1.475989714	 0.272798
