21
gdb 45366	2.55994	1.60869	1.44014	2.9831	80.4	-0.2332	-0.0105	0.2227	1028.9152	0.186248	-387.146284	-387.138838	-387.137893	-387.178293	30.349	
O	 0.0066587213	-0.0995739567	 0.2341070899	-0.3122
C	-0.0121592455	 1.0978884359	 0.0685860856	 0.393612
C	-1.3186373212	 1.8846951735	-0.0231771189	-0.307267
C	-1.2435454588	 3.0325393855	-1.0516343367	-0.005203
C	-0.8484357747	 2.5059866701	-2.4556248271	-0.215724
C	 0.7136474166	 2.5274973051	-2.4776219205	-0.215724
C	 1.1334804343	 3.0652687919	-1.0851062906	-0.005203
C	-0.0623069413	 3.9548877793	-0.6990813904	-0.217052
C	 1.2690638724	 1.9203238054	-0.0596166925	-0.307267
H	-2.122789863	 1.1775610227	-0.2459506114	 0.117294
H	-1.5215557716	 2.3015792051	 0.9739787077	 0.11523
H	-2.2013458647	 3.5600651567	-1.0697653039	 0.066644
H	-1.2554709036	 1.5085180548	-2.6451754943	 0.107001
H	-1.2498611473	 3.1639141445	-3.2318005939	 0.098988
H	 1.1424914492	 1.5415399196	-2.678946461	 0.107001
H	 1.0747967432	 3.1959283625	-3.2645341507	 0.098988
H	 2.0755065004	 3.6189530927	-1.1299877697	 0.066644
H	-0.0834629139	 4.8603631848	-1.3161124581	 0.093022
H	-0.0518075759	 4.2662666464	 0.3510166226	 0.08869
H	 1.4884238934	 2.3430211674	 0.9315925964	 0.115231
H	 2.0857860407	 1.2355072926	-0.3052169322	 0.117294
