15
gdb 2703	7.44271	1.07708	0.98597	4.8731	58.9	-0.2443	0.0265	0.2708	1123.1488	0.124981	-341.826906	-341.818832	-341.817888	-341.859866	27.325	
O	-0.1246745518	 1.4406804167	-0.0587705578	-0.421055
C	 0.0089630741	 0.0254607226	 0.0046503915	-0.08946
C	-1.3955926182	-0.5545961749	 0.0071999943	-0.113771
N	-2.0678591577	-0.2093435926	-1.2399091684	-0.296235
C	-3.475465541	-0.5766780227	-1.2423849022	-0.259582
C	-4.1255239584	-0.1765997485	-2.4940416681	 0.258477
N	-4.6470037433	 0.1541663596	-3.4699834242	-0.299639
H	 0.7336023889	 1.8217597743	-0.2633158389	 0.295144
H	 0.5579877809	-0.3614758192	-0.8652600562	 0.106124
H	 0.5379009648	-0.2869653725	 0.9173612494	 0.094125
H	-1.3347877219	-1.6467336016	 0.0956663029	 0.106756
H	-1.9304617546	-0.1822688952	 0.9006586279	 0.093018
H	-1.9685197662	 0.7909907007	-1.3835060158	 0.242593
H	-3.5602508511	-1.6670920998	-1.1473002941	 0.152629
H	-4.0579415443	-0.1473841968	-0.4053516402	 0.130878
