19
gdb 83202	3.22513	1.19417	1.11585	4.4864	78.98	-0.2395	0.0294	0.2689	1168.3146	0.161	-382.068183	-382.059783	-382.058839	-382.101551	31.439	
C	 0.0044936014	 1.6490494292	 0.1088800388	-0.43249
C	 0.0182150602	 0.145217124	-0.0574729166	-0.000376
C	 0.484865281	-0.589369787	-1.2659296792	-0.053521
C	 1.3250453147	 0.1623750602	-2.3099747769	-0.159105
C	 2.5790696555	 0.6755965598	-1.5302729796	-0.260137
C	 2.5204384075	-0.039078181	-0.1527394786	-0.154993
N	 1.2203719222	-0.7101058265	 0.0017691721	-0.103938
C	 1.6834581928	-0.7210125866	-3.4204019817	 0.261844
N	 1.9683071133	-1.4171395639	-4.2980413881	-0.322328
H	 0.6879925119	 2.1815392647	-0.5541576244	 0.121297
H	-1.0044678932	 2.0249355972	-0.0898774292	 0.132319
H	 0.2558868892	 1.9230740906	 1.1394205584	 0.133204
H	-0.8058003704	-0.328146413	 0.4751941794	 0.100262
H	-0.0499795899	-1.4672972827	-1.6165100045	 0.112107
H	 0.7663456825	 1.0029069472	-2.7361574651	 0.132757
H	 3.4989582535	 0.441102973	-2.0688291167	 0.13404
H	 2.5357743724	 1.7613889554	-1.4293825813	 0.121358
H	 3.2885181442	-0.8154368273	-0.0917986635	 0.124318
H	 2.692422491	 0.6542407466	 0.6764156168	 0.113381
