19
gdb 58728	3.58955	1.36117	1.1949	1.412	77.74	-0.2223	0.0662	0.2885	1087.7942	0.157973	-385.774702	-385.766616	-385.765672	-385.807327	31.987	
C	 0.0375129943	 1.5438071041	 0.1474726941	-0.40234
C	-0.0406594282	 0.0246391859	-0.0201010433	-0.043145
O	 0.709620405	-0.6549815498	 0.9855014294	-0.424616
C	-1.4542312546	-0.4814235311	-0.0333310838	 0.406126
C	-2.7162767647	-0.1138436377	-0.8822436037	-0.185884
C	-3.6132023099	-0.4904116495	 0.287287815	-0.084724
C	-3.2232947237	-1.5414415873	-0.7413402944	-0.086548
C	-1.9668245161	-1.9055072009	 0.1056298261	-0.156258
C	-2.3613692601	-0.8552437647	 1.1391519189	-0.166251
H	 1.0815504126	 1.8682568826	 0.164246278	 0.121381
H	-0.4745915594	 2.0577115055	-0.6724355079	 0.119458
H	-0.4408460942	 1.852598035	 1.0846487669	 0.10889
H	 0.4513061961	-0.2531432308	-0.9618553809	 0.09115
H	 0.364787836	-0.3669354062	 1.8384955496	 0.279283
H	-2.8794768049	 0.6058061048	-1.6736786315	 0.083932
H	-4.5918609952	-0.11273258	 0.5513720713	 0.085554
H	-3.8499136292	-2.117909416	-1.4085244277	 0.085957
H	-1.4015375539	-2.8175287328	 0.2394547608	 0.091896
H	-2.1727346599	-0.8409719913	 2.2052003228	 0.076139
