16
gdb 29861	4.94139	1.24193	1.01081	1.8304	73.31	-0.1873	0.0403	0.2276	1138.6449	0.125982	-437.885538	-437.877943	-437.876999	-437.917688	28.402	
C	 0.0202509994	 1.4188485673	 0.0095063073	-0.32957
N	-0.1485885343	-0.0167681377	 0.0028906879	 0.002249
C	-0.0784352075	-0.7986891118	-1.1471203484	-0.242501
C	 0.027470639	-2.0882389305	-0.7089851786	 0.249843
O	 0.0160143676	-3.37597611	-1.1852224939	-0.286782
C	 0.3382118632	-4.154448916	-0.0221636555	-0.003763
O	 0.0304043612	-3.3884408815	 1.1530063838	-0.286782
C	 0.0360815575	-2.0956992366	 0.6904201634	 0.249845
C	-0.064341164	-0.8109009255	 1.1435494599	-0.242501
H	 1.076178513	 1.720321926	 0.004683233	 0.131788
H	-0.4671022033	 1.8473152948	-0.8704840873	 0.136552
H	-0.4563276439	 1.8378964899	 0.8998732957	 0.136552
H	-0.1178588031	-0.3528877051	-2.1259460415	 0.124808
H	-0.2614165139	-5.0671975678	-0.023339076	 0.12923
H	 1.4151877802	-4.3840932181	-0.0300153973	 0.106226
H	-0.0916897011	-0.3755637673	 2.1274836875	 0.124807
