17
gdb 48889	3.23843	1.52768	1.37041	3.4626	72.68	-0.2451	-0.0293	0.2158	969.6204	0.136973	-421.790289	-421.783426	-421.782482	-421.82182	27.307	
O	-0.0339119519	-0.014628188	-0.2129583179	-0.251347
C	 0.029579951	 1.1810036383	-0.0547877663	 0.036477
C	 1.2906245095	 1.9631626443	 0.0167795809	 0.196767
C	 1.4740293041	 3.1819058395	 0.963253599	-0.304619
C	 2.5111642759	 3.6546833496	-0.0653587671	-0.07828
C	 3.4319281513	 2.4318594874	-0.4769776608	 0.062724
C	 2.6496788714	 1.2533769111	 0.12998149	-0.254436
O	 2.8777459527	 2.4648202471	-1.8334566281	-0.276995
C	 1.7239272976	 2.9849621914	-1.2045599198	 0.074603
H	-0.8986900382	 1.7944129542	 0.0250947174	 0.065187
H	 0.6047907427	 3.8468599783	 0.9702059692	 0.109351
H	 1.7838247695	 2.9678768998	 1.9897620275	 0.109098
H	 2.9251616398	 4.6594227194	-0.1259937694	 0.086074
H	 4.5196248953	 2.4533093794	-0.4483952292	 0.090486
H	 2.9095054454	 1.0175977187	 1.1651767058	 0.104247
H	 2.7344748788	 0.3593756222	-0.4879497117	 0.132055
H	 0.962071525	 3.4179402073	-1.8506964396	 0.098607
