25
gdb 121365	2.36925	1.06848	0.85742	0.9145	88.98	-0.2498	0.0759	0.3257	1504.455	0.229426	-389.500583	-389.490289	-389.489345	-389.536358	37.791	
C	-0.4823173186	 1.2954900017	-0.2040735551	-0.226976
O	-0.0931879377	-0.0485918888	-0.0723973814	-0.229315
C	 0.4675715382	-0.579170102	-1.257169307	-0.061203
C	 0.8515301912	-2.0364561553	-0.9986395046	-0.019372
C	-0.3784739931	-2.9072078083	-0.6710709139	-0.21154
C	-0.9463891043	-3.3573985701	-2.0439156615	-0.20724
C	 0.2059088904	-3.158670494	-3.0673536606	-0.207076
C	 1.4462298994	-2.7540205222	-2.2360888558	 0.038304
C	 2.5171274186	-2.0026180409	-3.0280051005	-0.41747
H	 0.370419172	 1.9472479133	-0.4544891644	 0.100841
H	-1.2498220044	 1.4268381246	-0.9841371959	 0.100552
H	-0.8979816614	 1.6136715953	 0.7554607359	 0.124552
H	-0.2575310044	-0.4978411755	-2.0861198766	 0.081028
H	 1.352922487	 0.0099709811	-1.5468382012	 0.083405
H	 1.5649057588	-2.033445589	-0.1667301851	 0.068632
H	-0.0555454262	-3.7809618041	-0.0947283112	 0.089744
H	-1.1058427051	-2.3689033555	-0.0601709497	 0.10901
H	-1.2860186902	-4.3962562236	-2.0084110926	 0.095157
H	-1.818728918	-2.7595456818	-2.3241503152	 0.097807
H	 0.3976655394	-4.0543901234	-3.665649102	 0.092037
H	-0.0416136146	-2.3611432295	-3.7778664439	 0.092525
H	 1.9024853147	-3.6771157179	-1.8526166248	 0.07021
H	 2.1164705014	-1.0970939508	-3.496368784	 0.114307
H	 3.357328485	-1.7067319211	-2.3902074416	 0.111252
H	 2.9176851323	-2.631748342	-3.8301924375	 0.110828
