15
gdb 30906	2.43972	1.32035	0.89517	1.7748	65.06	-0.1903	0.0392	0.2296	1226.7387	0.1132	-491.119824	-491.111163	-491.110219	-491.153391	31.894	
O	 0.2275144166	 1.2985182999	 0.3862195333	-0.421416
C	-0.0353384735	 0.1590866804	-0.4406557086	-0.194515
C	-1.3500623227	-0.4692193482	-0.1696484567	 0.163892
C	-1.7385118103	-1.7271994674	 0.204430019	 0.268049
O	-0.932379397	-2.789996781	 0.4222376046	-0.437359
N	-3.1033494687	-1.8368961718	 0.3370371431	-0.448095
C	-3.5485066776	-0.6347413921	 0.049637217	 0.446494
O	-4.8299124196	-0.2376923184	 0.0623701895	-0.420664
N	-2.5705917901	 0.2298431434	-0.2755018121	-0.356998
H	 0.1517323065	 1.0018319324	 1.2999145983	 0.278032
H	 0.0286220878	 0.5496897053	-1.4640662103	 0.111626
H	 0.7400599902	-0.6122791298	-0.3380149996	 0.116426
H	-1.5083545732	-3.5240607923	 0.6655008592	 0.301186
H	-5.3522413129	-1.0052060294	 0.3265237323	 0.315771
H	-2.6746684955	 1.216332419	-0.4420934292	 0.277573
