17
gdb 124613	4.11284	1.06796	0.93929	1.8131	70.73	-0.2547	-0.019	0.2357	1265.2106	0.136321	-451.325275	-451.316636	-451.315691	-451.359535	31.362	
C	-0.084990053	 1.4352688549	-0.1493533039	-0.387333
C	 0.00230276	-0.0785942706	 0.0734820069	 0.065828
C	 0.717957213	-0.4517907082	 1.3694585316	-0.393459
N	-1.3476394592	-0.6623872033	 0.0435665901	 0.140651
N	-2.0569557554	-0.9366590036	 1.118932094	-0.132781
N	-3.2266819298	-1.3684554595	 0.693210545	-0.307184
C	-3.1562055407	-1.3206835033	-0.6536873112	 0.477247
O	-4.1513733508	-1.685166745	-1.46389777	-0.398459
N	-1.9917521902	-0.8797082069	-1.1084006334	-0.320976
H	 0.9216121909	 1.8569725516	-0.2203868573	 0.126617
H	-0.6216287058	 1.6584097842	-1.0743993508	 0.145083
H	-0.6045408741	 1.9169342963	 0.6845453165	 0.135634
H	 0.5135890348	-0.5364265631	-0.7782088058	 0.121948
H	 0.2135729053	-0.0213159806	 2.2370843245	 0.149531
H	 0.7604481148	-1.5353335583	 1.5022660311	 0.135628
H	 1.739670068	-0.0645692617	 1.3317684476	 0.123175
H	-4.8823393177	-1.9723532029	-0.9021496549	 0.318849
