23
gdb 117849	2.04289	1.0213	0.89907	2.3347	77.79	-0.2481	0.0689	0.317	1468.8369	0.202667	-462.543236	-462.531856	-462.530912	-462.579763	41.152	
C	-0.0938543286	 1.3131828573	 0.0941200579	-0.252218
O	 0.1496744628	-0.0756482277	-0.0268313558	-0.292163
C	 0.7180489296	-0.5582875076	-1.2664088726	 0.296764
C	 0.045159828	 0.0446073222	-2.5037024565	-0.447723
C	 2.2227650508	-0.2108832039	-1.2501548748	-0.068643
O	 2.8419113738	-0.6318080378	-0.0529688826	-0.427533
C	 0.5398071639	-2.085464823	-1.2018956128	-0.212282
C	-0.9017271366	-2.5762991561	-1.045630696	-0.074065
O	-0.9713475974	-3.9942299263	-0.9773346682	-0.420214
H	 0.8038601537	 1.9213535452	-0.0827649518	 0.113991
H	-0.885901514	 1.6568289301	-0.5829668975	 0.117537
H	-0.4239104547	 1.4778436008	 1.1230667589	 0.130843
H	 0.2679748912	 1.1100399455	-2.6123310417	 0.117848
H	 0.4087242846	-0.461263977	-3.4031390972	 0.126829
H	-1.0409450734	-0.0742283249	-2.4664884489	 0.132193
H	 2.7305350392	-0.7154817643	-2.0791169546	 0.106608
H	 2.3503151274	 0.873648507	-1.4036802058	 0.079968
H	 2.2086230509	-0.4250626842	 0.6470717828	 0.285086
H	 0.9712289813	-2.5294675846	-2.1060967513	 0.102137
H	 1.1351162861	-2.4513520625	-0.3571787985	 0.099345
H	-1.3616912593	-2.1046581212	-0.1672645798	 0.101774
H	-1.5052065958	-2.3037477342	-1.9175454982	 0.104313
H	-0.4896101036	-4.2711644126	-0.191282515	 0.279607
