18
gdb 91140	2.73784	1.85812	1.55138	2.2161	69.89	-0.221	0.0377	0.2587	915.0762	0.149984	-438.99876	-438.991996	-438.991052	-439.029801	27.859	
O	 0.0689413653	 1.4250139245	 0.4124965102	-0.436955
C	 0.0279837285	 0.0732573275	 0.069246722	 0.131079
C	 0.435968692	-1.0088181935	 1.1241672364	-0.228713
N	-0.8569408837	-1.7469386009	 0.9299812506	-0.150942
C	-1.9904153734	-1.4709302918	 1.8844040124	-0.036726
C	-1.8125266015	-0.419344626	 2.9823134572	-0.100104
O	-2.0493520451	 0.6625183511	 2.0389961873	-0.311954
C	-2.4558130301	-0.2821650294	 1.0033121414	 0.084876
C	-1.3475983782	-0.6546571087	 0.0021812847	-0.04312
H	-0.5479538605	 1.5368009357	 1.1512997334	 0.292768
H	 0.5884987522	-0.029634271	-0.863938103	 0.094672
H	 1.2956437295	-1.6298355526	 0.855762902	 0.108678
H	 0.6084390367	-0.6019294966	 2.1246398144	 0.104014
H	-2.5740515889	-2.3612190805	 2.1199687652	 0.093968
H	-2.6104999517	-0.4540809443	 3.7345752503	 0.113754
H	-0.8476164742	-0.3342712611	 3.490497141	 0.120785
H	-3.4701223844	-0.0823103899	 0.6506587992	 0.089363
H	-1.7114924224	-0.9684828726	-0.9817816049	 0.074555
