21
gdb 63480	3.06941	1.05591	0.9143	4.584	83.69	-0.2496	0.0289	0.2784	1354.9034	0.180151	-383.273901	-383.263404	-383.26246	-383.309474	38.218	
C	 0.0153271209	 1.4606919291	-0.2251219717	-0.433428
C	-0.005801024	-0.0310859393	 0.0651639727	 0.261
C	-1.1703262475	-0.7218260431	-0.626686088	-0.464832
N	 1.319589815	-0.6883570704	 0.0621893191	-0.393123
C	 0.5885560572	-0.5671375243	 1.3381697763	 0.284858
C	 1.2321918079	 0.3396304006	 2.3732156081	-0.457282
C	-0.0073366999	-1.8272655752	 1.9772009372	-0.423262
C	 1.0199753792	-2.7043519905	 2.5455214582	 0.274087
N	 1.8340640496	-3.3962613263	 2.9858645647	-0.309811
H	 0.8980772118	 1.9484770292	 0.1863754157	 0.130775
H	 0.0203631855	 1.627218826	-1.3078496652	 0.121598
H	-0.8764287328	 1.9495531254	 0.1830144403	 0.115276
H	-1.1485413851	-0.4877778321	-1.6968594255	 0.129635
H	-1.1471970938	-1.8103738704	-0.5385529174	 0.115259
H	-2.1317009482	-0.3691132711	-0.236379281	 0.126246
H	 1.2495617417	-1.6341848627	-0.308683064	 0.226638
H	 1.7983412548	 1.1418333089	 1.9022179762	 0.137038
H	 0.4781062954	 0.7813523888	 3.0347071371	 0.114803
H	 1.9300932323	-0.2336228224	 2.9926554168	 0.143995
H	-0.694392	-1.5419565529	 2.7835126659	 0.154425
H	-0.5900768101	-2.4144474272	 1.2647286243	 0.146105
