18
gdb 62267	3.70683	0.63088	0.58977	2.8422	70.97	-0.2402	-0.0449	0.1953	1829.3555	0.143512	-476.211116	-476.200603	-476.199659	-476.248822	35.261	
O	-1.155558565	 0.6031975314	-0.0358109676	-0.426065
C	 0.0558979482	-0.1190623131	-0.1953892609	 0.017983
C	 1.0469805701	 0.5963978366	-1.1363167821	-0.176204
N	 0.548141609	 0.8432958044	-2.4797503788	-0.295339
C	 0.4230069258	-0.3311747019	-3.3293099348	-0.234506
C	 0.2599172778	 0.0808961728	-4.7850243654	 0.151727
O	-0.3627897925	-0.5438808409	-5.6020376712	-0.233792
C	 0.6875824986	-0.4509258042	 1.1524468496	 0.124431
O	 1.8192542118	-0.8359860543	 1.2919520782	-0.237627
H	-0.9481661427	 1.4601805664	 0.3551626586	 0.286331
H	-0.2408769565	-1.0775719939	-0.6431822894	 0.129911
H	 1.3143762706	 1.5617074045	-0.6838915169	 0.100452
H	 1.9686410327	 0.0086910865	-1.1860440513	 0.13476
H	-0.3487376264	 1.3152168481	-2.411743219	 0.227197
H	 1.3672779761	-0.8940302344	-3.2742868037	 0.136577
H	-0.3850818923	-1.0350642368	-3.0755349049	 0.117274
H	 0.7890319329	 1.0276168078	-5.0358882402	 0.087417
H	-0.0015458981	-0.302517039	 2.01642885	 0.089472
