17
gdb 45066	2.50067	1.65036	1.13653	2.9791	77.35	-0.2406	-0.0237	0.2169	1075.5038	0.135371	-384.672458	-384.664481	-384.663537	-384.705204	30.911	
O	 0.001617681	-0.010833316	-0.2082751957	-0.291386
C	-0.0339971662	 1.1618636657	 0.0342434407	 0.376064
C	-1.2920914724	 1.9887434623	 0.3262633897	-0.330872
C	-0.7976120343	 3.2613514788	 0.9820045238	-0.049444
C	 0.0854998242	 3.1031181895	 2.1951602116	-0.288863
C	 0.7138047141	 3.3363734614	 0.8472964662	-0.036259
C	 1.2082643531	 2.1090468058	 0.0899230071	-0.317255
C	 2.3984229914	 1.4680824431	 0.6229984723	 0.352319
C	 3.3782724606	 0.9428470199	 1.0782966429	-0.449356
H	-1.7889761242	 2.1966204997	-0.6307084487	 0.132451
H	-1.9893024974	 1.3974435814	 0.9273309872	 0.135777
H	-1.3967297751	 4.1595568114	 0.8909333692	 0.093221
H	 0.1151669757	 3.9208179142	 2.9060946	 0.119457
H	 0.1817064058	 2.1202198107	 2.6485376694	 0.126938
H	 1.2115973094	 4.2794882659	 0.6583783635	 0.098654
H	 1.3943611501	 2.3922371568	-0.9583173676	 0.131355
H	 4.2436374041	 0.4729635493	 1.4753964881	 0.197199
