23
gdb 89583	3.7032	1.06941	1.0255	1.4054	85.45	-0.2351	0.0817	0.3168	1318.2968	0.206689	-388.305313	-388.296394	-388.29545	-388.339529	34.459	
C	 0.3940916051	 1.5505340727	 0.1338952921	-0.399329
C	-0.0015934273	 0.0975354918	-0.0342640363	 0.170159
C	 0.4954021286	-0.6688590502	-1.2775522393	-0.390991
C	 1.1025716335	-1.6631544741	-0.2677037653	 0.472242
C	 0.4433077109	-3.0370674041	-0.1069944097	-0.251773
C	 1.3799666113	-3.7485424699	 0.8785282629	-0.20304
C	 2.7885572996	-3.3633781687	 0.3723967044	-0.203145
C	 2.613940248	-1.9638894998	-0.2819307363	-0.264151
O	 0.7392190426	-0.7834903791	 0.8428407035	-0.344464
H	 1.4632946249	 1.6860499078	-0.0571847505	 0.116462
H	-0.1689946066	 2.1846089007	-0.560136341	 0.112723
H	 0.182941618	 1.889032531	 1.1533530905	 0.125022
H	-1.082669171	-0.0177030515	 0.1330332762	 0.068308
H	-0.2676866564	-1.0686930573	-1.9485925124	 0.101487
H	 1.2385343329	-0.1200312644	-1.8623499098	 0.100977
H	-0.5922748967	-2.9569502669	 0.2343698328	 0.096714
H	 0.4443584859	-3.5544169523	-1.0763978124	 0.089847
H	 1.2148954732	-3.3406481889	 1.8817074918	 0.114353
H	 1.2235792854	-4.8294172895	 0.9289188529	 0.08853
H	 3.531743188	-3.3610715077	 1.1737163139	 0.098254
H	 3.1294130686	-4.0895707369	-0.373336542	 0.095802
H	 2.9897601206	-1.9545922719	-1.3103367288	 0.096401
H	 3.1355494709	-1.1733188006	 0.2630199627	 0.10961
