12
gdb 438	7.38256	3.60727	2.49744	2.5958	50.91	-0.2409	-0.0164	0.2245	502.2039	0.096841	-269.263802	-269.258575	-269.257631	-269.292553	19.177	
O	 0.0016497686	 0.0301139007	 0.0037714671	-0.299298
C	-0.0146585345	 1.2320052896	 0.0105960788	 0.393968
C	-1.2726770102	 2.1189202244	 0.0322430755	-0.359595
C	-0.7129261547	 3.5153294019	 0.0320766807	-0.064401
C	 0.6213878719	 3.5335349606	 0.0143897809	-0.064401
C	 1.2188296235	 2.1529147442	-0.0008045001	-0.359595
H	-1.9039190034	 1.8935071374	-0.8371700466	 0.137489
H	-1.8801951928	 1.8842760655	 0.9160060631	 0.137493
H	-1.344476331	 4.3960763445	 0.0451031844	 0.101679
H	 1.2288010225	 4.4311864587	 0.0109921962	 0.101679
H	 1.8557516915	 1.9352451172	 0.8664450952	 0.137493
H	 1.8327009187	 1.9444950455	-0.8867399053	 0.13749
