18
gdb 29648	2.39736	1.62008	0.98172	4.7632	76.71	-0.171	0.0551	0.2261	1187.2001	0.1477	-435.329486	-435.319624	-435.31868	-435.363952	35.069	
C	-0.0771716068	 1.4577734801	-0.0051074101	-0.343876
N	-0.0353252003	 0.0149788722	 0.0309031498	-0.118448
C	-0.148685143	-0.7677346395	-1.1159625069	 0.446745
O	-0.2469347699	-0.3852850717	-2.2697053802	-0.451699
N	-0.1306421299	-2.0606022636	-0.6312972191	-0.428368
C	-0.0035971515	-2.0907542441	 0.7688510455	 0.279445
C	 0.0484946554	-3.3622923059	 1.5383899897	-0.506214
C	 0.0445835762	-0.797283715	 1.1677312352	 0.167353
N	 0.0633206631	-0.202888982	 2.4392064403	-0.60845
H	 0.8983811788	 1.9030040782	 0.2256868124	 0.119588
H	-0.3567426921	 1.7408725278	-1.0214437499	 0.166742
H	-0.8129852775	 1.8388518561	 0.7083183313	 0.139847
H	-0.2259192103	-2.8546940535	-1.238617666	 0.259497
H	 0.838825077	-4.0280984174	 1.1681333621	 0.131021
H	 0.2618219854	-3.162120709	 2.5922014273	 0.121266
H	-0.8948177324	-3.9229524297	 1.4941304666	 0.131503
H	-0.1311613589	-0.8781346054	 3.1670505386	 0.247237
H	 0.9459156763	 0.2539797725	 2.6513261834	 0.246813
