20
gdb 77604	1.84022	1.78702	1.66437	1.6356	78.71	-0.235	0.0203	0.2553	1042.4545	0.169777	-403.163758	-403.154573	-403.153629	-403.19705	34.546	
C	-0.0336681318	 1.5432575139	 0.0102384207	-0.418012
C	 0.0738047871	 0.0374509414	 0.0733690587	-0.121612
C	 1.3324009433	-0.741419067	-0.2178228688	 0.347298
C	 1.4410949352	-1.857437872	-1.2139232538	-0.476882
O	 2.5471471305	 0.0099348452	-0.0921364653	-0.24152
C	 2.6161654612	 0.3709039374	 1.2128350586	 0.067997
N	 1.6964173883	-0.0027831283	 2.0067832415	-0.294302
C	 0.7483621586	-0.7485080904	 1.1989032532	 0.255537
C	 0.0577962336	-1.8962196137	 1.8867626402	-0.471923
H	 0.8252264033	 2.0388982226	 0.4670898439	 0.132579
H	-0.1026677918	 1.8842810694	-1.0282258594	 0.118983
H	-0.9296802541	 1.8859077973	 0.5377713396	 0.121693
H	-0.8076049421	-0.4819503808	-0.298752062	 0.086493
H	 1.588160626	-1.468770465	-2.2273458156	 0.131985
H	 2.2814785054	-2.5169798738	-0.9754845307	 0.129281
H	 0.5241456203	-2.4528356984	-1.2126327308	 0.125486
H	 3.4829308539	 0.9661435259	 1.4747842645	 0.138684
H	-0.5757784795	-1.5269834272	 2.6996882769	 0.132447
H	-0.5761497623	-2.4512674438	 1.188966159	 0.111606
H	 0.7857122749	-2.5905213428	 2.3186025894	 0.124182
