21
gdb 104335	2.96846	1.27796	1.13527	2.2372	79.16	-0.2473	0.0204	0.2677	1172.221	0.18255	-424.233732	-424.224768	-424.223824	-424.266857	34.987	
C	-0.1534375701	 1.6246465503	-0.0971165824	-0.427039
C	-0.0407178932	 0.0945213088	-0.0701758544	 0.32155
C	-1.4328560206	-0.5509279343	-0.0061384502	-0.075214
O	-2.1535058865	-0.148709369	 1.139937897	-0.428536
C	 0.758591559	-0.4457082524	-1.2696186297	-0.287304
C	 2.2424768765	-0.2991463313	-1.0579673271	-0.063031
C	 2.7653074738	-0.062909795	 0.1418474273	-0.063096
C	 1.9084336875	 0.0548618809	 1.3682886925	-0.125128
O	 0.5710481283	-0.3562080456	 1.154980094	-0.310328
H	 0.829279331	 2.1023146859	-0.1188367811	 0.11855
H	-0.6981371781	 1.9449365607	-0.9907869474	 0.114372
H	-0.7059744788	 1.9711351994	 0.7785613362	 0.129802
H	-2.0221340278	-0.2535644563	-0.8799811742	 0.102672
H	-1.3074471541	-1.6448286741	-0.0341877845	 0.086811
H	-1.5580529792	-0.3079292481	 1.8827739293	 0.288251
H	 0.5123182744	-1.5043267432	-1.4355998001	 0.109651
H	 0.4549166424	 0.081865975	-2.1821521326	 0.106293
H	 2.8846065893	-0.3965549113	-1.9292579458	 0.091058
H	 3.8357336189	 0.061950811	 0.2804959129	 0.09163
H	 2.2933598217	-0.5921822975	 2.1664741263	 0.11714
H	 1.9479510455	 1.0868924458	 1.7597370341	 0.101893
