16
gdb 16438	3.41927	2.21872	1.70345	1.3321	64.17	-0.2465	0.062	0.3085	789.9073	0.130384	-383.657954	-383.65108	-383.650136	-383.688528	27.378	
O	 0.193337229	 1.4305353637	-0.2027152945	-0.452259
C	 0.0716998042	 0.0325716747	-0.0890048712	 0.068489
C	 0.0452282304	-0.6408041232	 1.2986207141	-0.101762
C	-1.4619683392	-0.2792085471	 1.5531666864	-0.141586
C	-1.8309217945	-1.7403398528	 1.8769944744	-0.270818
C	-0.7824743653	-1.8578946802	 0.7512463808	-0.078307
C	-1.3272908839	-0.6055904982	 0.0018067661	 0.372137
O	-2.3315047691	-0.6587350098	-0.9402471455	-0.475605
H	-0.2816146903	 1.834460198	 0.5320743488	 0.282082
H	 0.7520378437	-0.3988865352	-0.8301931495	 0.086343
H	 0.8236480101	-0.6934896148	 2.0568848824	 0.080579
H	-1.8460458668	 0.6355374919	 2.0094986102	 0.064937
H	-1.5376647188	-2.1133408614	 2.8630418792	 0.09222
H	-2.8484675185	-2.0553747114	 1.6306360815	 0.106564
H	-0.3627262415	-2.7461019715	 0.2780314289	 0.076679
H	-2.4567809297	 0.2300738374	-1.2917404821	 0.290306
