20
gdb 59848	3.12121	0.90886	0.80513	1.8285	78.81	-0.2248	-0.0238	0.2011	1506.6871	0.170245	-436.516872	-436.506444	-436.5055	-436.552739	38.104	
C	-0.0934740657	 1.5113765437	-0.0720068784	-0.384137
C	-0.0161725627	-0.0205421871	 0.0077857793	 0.075766
C	-1.399052649	-0.6732143531	-0.01036948	-0.401102
N	 0.7883558128	-0.5778018428	-1.0729803395	-0.296838
C	 2.1424164084	-0.5368873141	-1.090245038	 0.264828
N	 2.8440519987	-0.1325841492	-0.091556625	-0.551769
C	 2.6774333953	-1.0449894386	-2.4335670387	 0.364269
N	 3.9654606054	-1.4817913731	-2.41553298	-0.531197
O	 1.9848380249	-1.0380889361	-3.4352633084	-0.366866
H	 0.9104793923	 1.9411301061	-0.0517998973	 0.141231
H	-0.5939633478	 1.8286354511	-0.9938276587	 0.108066
H	-0.6570903084	 1.912009604	 0.7770332851	 0.110577
H	 0.5002223307	-0.2867538094	 0.9359993537	 0.113137
H	-1.9285517414	-0.4448256427	-0.943600442	 0.114899
H	-1.3231878063	-1.7604730559	 0.0811160959	 0.121437
H	-2.0097838136	-0.2976324354	 0.8153553047	 0.120825
H	 0.3641979601	-0.7398331086	-1.975997339	 0.255632
H	 3.8369174133	-0.14776665	-0.3091932832	 0.207027
H	 4.412569162	-1.7127014434	-1.5448217922	 0.265252
H	 4.3197233811	-1.9055665655	-3.2581203084	 0.268965
