16
gdb 82719	2.42258	2.10382	1.65043	4.0381	67.68	-0.2318	-0.007	0.2247	865.9531	0.125654	-437.846911	-437.839933	-437.838988	-437.878236	27.363	
O	 0.007531437	 1.4312968968	 0.0355904865	-0.418118
C	-0.0080406737	 0.0367894475	-0.0564508261	 0.138297
C	-1.414501951	-0.6000334025	 0.0033876577	-0.090849
C	-2.4086515613	 0.0626621072	-0.9739311665	-0.194343
N	-1.732635393	-0.6286846337	-2.1430286787	-0.177583
C	-0.9735795751	-1.5141689901	-1.1825157815	 0.011479
C	 0.3134771427	-0.6718873385	-1.4363220141	-0.279749
C	-0.5073307887	 0.0617387274	-2.4866011976	 0.423231
O	-0.3148508664	 0.9424761743	-3.2690057853	-0.320386
H	 0.8840088651	 1.7575044265	-0.1947729635	 0.296317
H	 0.6269485895	-0.4383850646	 0.7048377307	 0.088275
H	-1.7670462863	-0.9312818634	 0.9790970045	 0.081515
H	-3.4309715732	-0.3067158641	-0.8621319783	 0.119252
H	-2.4102564556	 1.1528001145	-1.0410107222	 0.143114
H	-1.069111768	-2.5931767584	-1.2665659334	 0.089994
H	 1.3338788081	-1.0088967189	-1.6140376923	 0.089552
