18
gdb 46801	3.0145	1.60719	1.27959	4.9686	71.83	-0.2456	0.0466	0.2923	1007.1348	0.150634	-439.112959	-439.105607	-439.104663	-439.145014	28.974	
O	-0.067531373	-0.083106936	-0.2219564252	-0.376543
C	-0.0361906686	 1.10174191	 0.002159002	 0.435899
N	-1.1535882361	 1.8942021152	-0.0651290346	-0.34535
C	-1.3033695667	 3.312847024	 0.1958501188	 0.023763
C	-0.090928023	 4.1653551943	-0.2749241801	-0.235362
C	 0.5019592644	 3.9709306987	 1.149065959	-0.032666
C	-0.9412696667	 3.7105255431	 1.6560718347	-0.23222
C	 1.3989524198	 2.7332000044	 1.2185344017	-0.079193
O	 1.1612327837	 1.7207432589	 0.2306524036	-0.249736
H	-1.9914397425	 1.353098526	-0.2046119162	 0.257565
H	-2.2881212291	 3.6033295107	-0.1738723473	 0.082867
H	 0.481667294	 3.7968744282	-1.1268566597	 0.123101
H	-0.3920845181	 5.2002744816	-0.4511729368	 0.107417
H	 1.035212832	 4.8125678553	 1.5994549874	 0.076517
H	-1.4381501437	 4.6362586077	 1.9582416034	 0.104361
H	-1.088627509	 2.9480463685	 2.4259840309	 0.101726
H	 2.4379732223	 3.0187614566	 1.0342422303	 0.124587
H	 1.3485636902	 2.2780766228	 2.2171607778	 0.113269
