20
gdb 106395	3.41691	1.37547	1.22209	2.3382	78.22	-0.2263	0.073	0.2993	1079.7946	0.172809	-403.083503	-403.075876	-403.074932	-403.115414	31.083	
O	-0.0111290708	 1.4250454167	-0.0001091526	-0.423529
C	-0.0021213138	 0.0044790479	-0.0372694588	-0.209579
C	-1.4285498739	-0.4774936621	-0.0584424774	 0.353246
C	-2.5017478286	-0.0242214965	 1.0045914779	-0.238957
C	-3.4609405767	-0.5873001266	-0.0845957928	-0.003585
C	-2.462397254	 0.0063664639	-1.1128753519	-0.28737
N	-3.1701183761	-2.0545684766	 0.0631657134	-0.110707
C	-2.4479741918	-2.6881295609	-1.0542192017	-0.258965
C	-1.6815762653	-1.9936503891	 0.0126543237	-0.087021
H	 0.9000670255	 1.7314313776	 0.0126401768	 0.289108
H	 0.5255107279	-0.3681970515	-0.9308941097	 0.089387
H	 0.5141312927	-0.4128211308	 0.8435864148	 0.08625
H	-2.5071374734	-0.5385071441	 1.9688811002	 0.097221
H	-2.5458660353	 1.058424159	 1.1282711454	 0.109952
H	-4.5289663651	-0.3751498244	-0.1063188117	 0.071115
H	-2.5110389752	 1.094747634	-1.1337060557	 0.116592
H	-2.4181432096	-0.3716635684	-2.1351414993	 0.089942
H	-2.4923648371	-3.7736967772	-1.0194704502	 0.114274
H	-2.508939098	-2.2825232439	-2.0573264782	 0.114851
H	-1.1357497915	-2.5674589371	 0.7588866679	 0.087776
