21
gdb 57382	2.75594	1.35345	1.33458	2.0901	78.09	-0.2429	0.0787	0.3216	1108.6939	0.180164	-424.167637	-424.15845	-424.157506	-424.201038	36.046	
C	 0.0025483408	 1.5000012574	-0.0384410245	-0.424162
C	 0.0692765571	-0.0340178125	 0.0045812846	 0.202706
C	 0.6816337016	-0.5378172907	 1.3109465082	-0.40964
O	-1.246092381	-0.5869135729	-0.0662991058	-0.467147
C	 0.8412292025	-0.5591307565	-1.1880190654	 0.440014
C	 2.19711657	-0.1563329107	-1.8294698231	-0.278947
C	 1.4271364999	-1.0810000381	-2.8000718369	 0.040533
C	 1.0813579938	-2.0277668271	-1.6316123818	-0.264031
O	 0.1918971023	-0.3106587889	-2.5172137991	-0.36841
H	 0.9914139114	 1.9489243601	 0.0996676172	 0.110908
H	-0.3923132623	 1.836129422	-1.0014708103	 0.127701
H	-0.6581283484	 1.8571243719	 0.755875755	 0.120056
H	 0.0774835868	-0.192698532	 2.1544690053	 0.126384
H	 0.6989211384	-1.6306833619	 1.3287580754	 0.125221
H	 1.7016249455	-0.1638185572	 1.4385979541	 0.113995
H	-1.536619348	-0.4865641906	-0.9818403769	 0.288886
H	 2.2749292678	 0.8846660025	-2.1441217567	 0.110566
H	 3.1135186233	-0.5378253745	-1.3726879322	 0.098263
H	 1.6365785665	-1.3138962037	-3.8436268676	 0.098498
H	 1.8977034485	-2.5782649585	-1.1579441752	 0.096345
H	 0.1788776534	-2.624377308	-1.7613818444	 0.112261
