21
gdb 78388	2.87666	1.43853	1.13368	1.5997	83.31	-0.2037	0.0631	0.2668	1154.3081	0.181144	-386.998088	-386.989166	-386.988222	-387.031037	35.516	
C	-0.1495889417	 1.5843883296	-0.0279909884	-0.498747
C	 0.0326136227	 0.0796826567	 0.0356842304	 0.291294
C	-1.2780459572	-0.620823791	-0.3393007688	-0.423803
C	 1.2052680216	-0.7619900955	-0.4156204598	-0.091852
C	 2.6715601945	-0.4384574152	-0.000656136	-0.123611
C	 3.0066463248	 0.6866165148	 0.9113966043	 0.088158
O	 2.6695477673	 2.0364074622	 0.7562063393	-0.406595
C	 2.2333375528	-0.453898692	 1.4967324493	-0.1584
C	 0.7770066718	-0.7677666957	 1.0492423761	-0.099702
H	 0.7719604549	 2.134390047	 0.1228070483	 0.159512
H	-0.5575845774	 1.8572373764	-1.0089453082	 0.103852
H	-0.8826632225	 1.9012360563	 0.7246498244	 0.099468
H	-1.5808183836	-0.3466780776	-1.3556937693	 0.115188
H	-1.1909905064	-1.7106200116	-0.2948886535	 0.108802
H	-2.0817874025	-0.317525208	 0.3406690109	 0.113755
H	 1.0558594043	-1.5619148648	-1.1320527519	 0.082494
H	 3.4705495326	-1.0101730149	-0.4597059609	 0.090452
H	 4.0529344637	 0.5782709679	 1.2144628845	 0.096535
H	 2.5795935284	 2.4152852964	 1.6379091971	 0.284489
H	 2.6646076989	-1.0382613428	 2.3026638042	 0.086075
H	 0.256557233	-1.5679602083	 1.5632386879	 0.082636
