18
gdb 84525	2.19618	1.75484	1.41925	4.1403	80.39	-0.2455	-0.0009	0.2445	1012.9036	0.14906	-364.828166	-364.820274	-364.81933	-364.860379	30.643	
C	-0.3471014193	 1.5359712082	 0.0251542228	-0.413034
C	-0.023912007	 0.0344257045	 0.0019929971	-0.043054
C	 0.6868453	-0.4569156289	-1.2464176947	-0.066257
C	 1.7296998552	-1.241491952	-0.9687003274	-0.091838
C	 1.9456934407	-1.3541465171	 0.5043788941	-0.099738
C	 2.3502665053	-0.0527799383	 1.2077278621	-0.191432
C	 2.9180527388	 1.0488562788	 0.4826216597	 0.312276
N	 3.4059566275	 1.9404356338	-0.07119259	-0.358646
C	 0.8858767965	-0.4763677646	 1.1249751115	-0.078152
H	 0.5555802679	 2.1438698809	-0.0653527361	 0.156275
H	-1.0139229219	 1.7952409474	-0.8034396339	 0.11664
H	-0.8537977187	 1.8072819679	 0.9566315776	 0.11567
H	-0.9791527085	-0.5060006735	 0.0911460997	 0.09272
H	 0.3644943312	-0.1696288109	-2.2407890126	 0.104918
H	 2.3825952694	-1.7129777429	-1.6928637439	 0.107661
H	 2.2900668456	-2.280190561	 0.9505701799	 0.103154
H	 2.7880835432	-0.1756857358	 2.1940584763	 0.132594
H	 0.4347224442	-0.7301666166	 2.0768834278	 0.100244
