18
gdb 93286	2.12077	1.8544	1.24528	4.2182	71.96	-0.2397	0.0108	0.2505	1053.7571	0.148384	-439.110178	-439.101857	-439.100912	-439.143156	31.389	
C	-0.1188019356	 1.5669197328	-0.0536971445	-0.397172
C	 0.007292775	 0.0390279821	 0.0095889942	-0.096993
C	 0.8895101938	-0.5082980414	-1.1486123801	-0.185298
N	 2.2014834767	-0.6529095077	-0.5325732003	-0.328431
C	 2.1969325697	-0.7102470104	 0.832900883	 0.371723
O	 3.1362469446	-0.9392386611	 1.5616154181	-0.379703
C	 0.7592065247	-0.4335767432	 1.2469692774	 0.318367
C	 0.4267826652	-0.1576618271	 2.6447154265	-0.241677
O	 0.1791111743	-1.4464166467	 2.0793520967	-0.271334
H	 0.867679603	 2.0427786823	-0.0438097347	 0.130001
H	-0.6325613582	 1.8755012575	-0.9695634797	 0.119413
H	-0.6865969366	 1.9535332225	 0.797317538	 0.123253
H	-0.9845198603	-0.4188291814	-0.0113690177	 0.100214
H	 0.5131767604	-1.4694539061	-1.5227617469	 0.117258
H	 0.9275781132	 0.1901152762	-1.9907542347	 0.113255
H	 3.0253686537	-0.9196227973	-1.0483148211	 0.255251
H	 1.2366258026	-0.1192213466	 3.3706320522	 0.138743
H	-0.4609415164	 0.4283933854	 2.8786334235	 0.113131
