20
gdb 17058	3.7785	1.42044	1.22965	1.8859	75.47	-0.2337	0.0881	0.3218	1086.8838	0.176326	-348.939796	-348.9316	-348.930656	-348.972332	31.163	
C	 0.4566826955	 0.9879759995	 0.6728190241	-0.378341
C	 0.1722219629	-0.517045151	 0.7423425561	-0.216148
C	-1.2915545467	-0.8471319827	 0.4989052076	 0.037983
C	-1.8336270856	-0.8864515595	-0.9612934704	 0.02
O	-1.0401698448	-2.116564274	-1.1953980623	-0.312335
C	-1.6933270866	-2.3011478034	 0.1238997649	 0.004825
C	-3.0174211362	-1.7964382797	-0.521063749	 0.051231
C	-4.2209569402	-1.3087021297	 0.2687285188	-0.444068
H	 1.5110410801	 1.2006290955	 0.8741940836	 0.113628
H	 0.2211017277	 1.3912336808	-0.3180891762	 0.115816
H	-0.1399935131	 1.5432291682	 1.4056633448	 0.109999
H	 0.780380633	-1.0525424083	 0.008284254	 0.11845
H	 0.4588518042	-0.8951246835	 1.7326642557	 0.090592
H	-1.9391642931	-0.3504419526	 1.2275118112	 0.064322
H	-1.8029254755	-0.1192989256	-1.737082303	 0.086413
H	-1.4906819041	-3.234096325	 0.6534137198	 0.085812
H	-3.3155067728	-2.4552015595	-1.3410692504	 0.083183
H	-3.961802284	-0.640280029	 1.0932023618	 0.121843
H	-4.9123214186	-0.7710549077	-0.3891806336	 0.123409
H	-4.7683588422	-2.1590305129	 0.6897409225	 0.123387
