19
gdb 126496	3.29714	1.34979	1.01934	2.8348	82.45	-0.2327	0.0346	0.2673	1191.9173	0.161493	-382.066208	-382.058138	-382.057194	-382.099389	30.278	
C	-0.0587596033	 1.5755485079	 0.1289853511	-0.390578
C	 0.3090539012	 0.090138292	 0.2091222032	-0.192343
C	 0.6353965739	-0.5027522776	-1.1519918207	 0.053267
C	 0.7413997969	-2.0820969359	-1.2784237331	-0.416893
C	-0.4436455593	-1.9688179449	-2.2288222558	 0.380955
C	-1.4284284191	-2.3166538063	-3.1355332747	-0.395704
C	-2.012223132	-1.0572121465	-3.4486112107	 0.015305
N	-1.4450476246	-0.017569087	-2.8098203556	-0.315249
N	-0.5087371082	-0.6391840688	-2.0813602367	 0.09039
H	 0.7741644188	 2.1683769411	-0.2644728359	 0.116674
H	-0.9180266676	 1.7263847611	-0.5311406297	 0.155583
H	-0.3119910659	 1.9692097515	 1.1175112432	 0.116423
H	 1.1817237206	-0.0528312939	 0.8590569285	 0.1047
H	-0.5160219655	-0.4800320295	 0.6529782634	 0.108505
H	 1.4749522622	 0.0242954848	-1.6191755768	 0.102631
H	 1.6745214952	-2.441121097	-1.7186444421	 0.127704
H	 0.5540841418	-2.6144734878	-0.3425109464	 0.125783
H	-1.7047443745	-3.2833139154	-3.5214119009	 0.103983
H	-2.8362576706	-0.8701987375	-4.1225647903	 0.108865
