19
gdb 56991	2.90091	1.20335	0.95828	1.6271	80.69	-0.2473	0.0332	0.2805	1253.9408	0.158089	-385.815677	-385.806788	-385.805843	-385.849407	33.993	
O	 0.8377985001	-0.034746114	-1.1266740689	-0.418493
C	-0.0817179795	-0.0169509955	-0.0357155834	-0.068963
C	-1.3046005174	-0.7665824319	-0.3398867878	 0.300132
C	-2.2750386092	-1.433034687	-0.5857210917	-0.452568
C	 0.5724853174	-0.5348350731	 1.2521797446	 0.01096
C	 1.8214633741	 0.2295296557	 1.8063814968	-0.266111
C	 1.1039051527	 0.3782817462	 3.1553624255	-0.036696
C	-0.1733654389	 1.1422097113	 2.972000614	-0.275596
C	-0.1421838898	-0.3148904435	 2.5924625431	-0.061322
H	 0.9793926846	-0.9568093964	-1.3689091502	 0.282904
H	-0.3354965502	 1.0416302792	 0.09052235	 0.113952
H	-3.1449088397	-1.9995300455	-0.8103608567	 0.198345
H	 0.8068772403	-1.5952673471	 1.1112298385	 0.073122
H	 2.7111835547	-0.4015351134	 1.8429658137	 0.102918
H	 2.0794606689	 1.1636253826	 1.2973019951	 0.104726
H	 1.5643609238	 0.2536426732	 4.1275101964	 0.085729
H	-0.7252879653	 1.3577420526	 3.8812858086	 0.112153
H	-0.2436517286	 1.9260955136	 2.2212742198	 0.106863
H	-0.799183308	-1.0330743369	 3.0669791629	 0.087947
