25
gdb 101743	4.51359	0.70628	0.64181	1.3038	89.93	-0.2566	0.0691	0.3257	1851.9412	0.228129	-389.488328	-389.477775	-389.476831	-389.524409	39.187	
C	 0.027945578	 1.6046415807	-0.0448954788	-0.380845
C	 0.0007405952	 0.0779446644	 0.0575300619	-0.184217
C	-1.4191475816	-0.5042746154	 0.0376233141	 0.135417
O	-2.1267223235	-0.1041485051	-1.138101609	-0.423605
C	-1.4300692452	-2.0276040198	 0.2171983994	-0.241894
C	-2.8217680406	-2.6475529552	 0.2556120405	 0.075852
C	-3.6514151689	-2.8046063775	-1.0509307282	-0.20572
C	-4.1496487151	-4.1773602821	-0.5260148788	-0.217005
C	-2.9510732207	-4.1841814704	 0.4609368623	-0.237941
H	 1.0538846941	 1.982508818	-0.0878908201	 0.107046
H	-0.5024347134	 1.9383120483	-0.9404739305	 0.127165
H	-0.4620589789	 2.06522536	 0.8202037245	 0.11267
H	 0.5700292168	-0.3632981372	-0.7741415628	 0.082837
H	 0.5041444308	-0.2487234369	 0.9761900015	 0.094162
H	-1.9945094854	-0.051438957	 0.8570432319	 0.082471
H	-1.6872563084	-0.5115513182	-1.8931680785	 0.275098
H	-0.8437861493	-2.4899148379	-0.5927936217	 0.077379
H	-0.8999589238	-2.2698467614	 1.1488346116	 0.09419
H	-3.4286090095	-2.128487656	 1.0082438672	 0.067114
H	-4.3881113904	-2.0337985448	-1.2825780632	 0.103602
H	-2.9956961651	-2.9266370894	-1.9203387555	 0.080845
H	-5.1048770067	-4.0873644053	-0.0002383046	 0.099773
H	-4.2256527484	-5.0013660162	-1.2395931563	 0.091735
H	-2.0884562749	-4.7116256919	 0.0387155944	 0.093015
H	-3.117565695	-4.5534089138	 1.4765124885	 0.090857
