18
gdb 33661	3.05743	1.47125	1.39414	1.7656	82.91	-0.2366	0.0337	0.2703	1018.3235	0.149119	-364.74708	-364.739807	-364.738863	-364.778512	29.691	
C	-0.0172927128	-1.1750708787	-0.0311212672	-0.355099
C	-0.0322115513	 0.0277789996	-0.0034019884	 0.075441
C	 0.0056305039	 1.4471257929	 0.0438341532	 0.247439
C	-0.6943200535	 2.4756248372	 0.8957933174	-0.100185
C	 0.6116008681	 3.2494895112	 1.1086489335	-0.252738
C	 1.2570088251	 2.3883780883	-0.0223633786	-0.096724
C	 1.1050900405	 3.0857817089	-1.3741515225	-0.227546
C	-0.4324357545	 3.2721292318	-1.4652885408	-0.163472
N	-1.0405569261	 2.3061587993	-0.5197186552	-0.137746
H	-0.0198080079	-2.2362821498	-0.0586599558	 0.180439
H	-1.4915016574	 2.3359389485	 1.6178565546	 0.103698
H	 0.5949388815	 4.335310108	 0.965340836	 0.096089
H	 1.038476294	 3.025706631	 2.0890693629	 0.111925
H	 2.2346271389	 1.9577392492	 0.1864430909	 0.082632
H	 1.6473161986	 4.035405346	-1.419726048	 0.101958
H	 1.4729512407	 2.4474300469	-2.1846381012	 0.10866
H	-0.7479773177	 4.2854687033	-1.1990787161	 0.110392
H	-0.81655239	 3.0590533164	-2.4660127345	 0.114838
