19
gdb 121469	5.05537	0.77974	0.69716	5.4984	76.89	-0.2261	0.0488	0.2749	1608.5926	0.161	-456.355377	-456.346433	-456.345489	-456.390634	32.222	
O	-0.3860948108	 1.5776908766	 0.1835296319	-0.426068
C	-0.086388044	 0.2099806571	 0.3701836945	-0.042999
C	-1.2531697926	-0.673088952	-0.0770132086	-0.156388
N	-1.5932437666	-0.3024756663	-1.4446870577	-0.414955
C	-2.0973175425	-1.1574634699	-2.2226220707	 0.515948
N	-2.4000094357	-0.9485675633	-3.5607781426	-0.36139
C	-3.3254561479	-1.9764222282	-4.0104554833	-0.183746
C	-2.9093274864	-3.1157432659	-3.0692745385	-0.080128
O	-2.4264762528	-2.4449569008	-1.8963272469	-0.249963
H	-0.7930423031	 1.6155141688	-0.6932021994	 0.284829
H	 0.8192851475	-0.081197454	-0.1886256636	 0.076303
H	 0.116872798	 0.0593283257	 1.4363891803	 0.093262
H	-0.9930531919	-1.7349061519	 0.0283360598	 0.097068
H	-2.1133164824	-0.4751077971	 0.5782699382	 0.102722
H	-2.5446543664	 0.0130386037	-3.8259606865	 0.256783
H	-4.380045973	-1.6999673111	-3.8637870546	 0.112936
H	-3.1745249753	-2.2322206227	-5.0624681445	 0.123487
H	-3.7319638055	-3.7717494429	-2.7799918355	 0.128107
H	-2.0984382187	-3.7151373759	-3.4987115722	 0.124192
