17
gdb 65289	2.70491	1.34017	1.08519	2.3859	73.6	-0.2628	0.0058	0.2686	1138.7893	0.135079	-417.970853	-417.962131	-417.961187	-418.004436	31.64	
C	-0.0732197194	 1.5387448088	-0.0047852937	-0.457702
C	-0.0264066217	 0.0259117911	 0.0513055628	 0.099806
N	 1.299494087	-0.5992915156	-0.207066098	-0.396349
C	 0.725131888	-0.7073881328	 1.1152480412	 0.245958
C	 1.3427743872	-0.1924031119	 2.4106796322	-0.132471
O	 0.8538370742	-1.3561336992	 3.1137520413	-0.270365
C	 0.318932638	-1.9456530192	 1.9090637582	-0.154172
C	-1.1874260227	-0.659574507	-0.4726956112	 0.247164
N	-2.1124565965	-1.2162539427	-0.8891994247	-0.34087
H	 0.8525302904	 1.947503151	 0.4054039835	 0.141494
H	-0.1721322074	 1.8827278113	-1.0380765529	 0.146152
H	-0.9198553114	 1.9243256208	 0.5705276051	 0.140994
H	 1.200097911	-1.470103018	-0.7259518595	 0.251978
H	 2.4382504024	-0.1388322232	 2.3973175224	 0.119552
H	 0.9324153827	 0.7396053018	 2.816763296	 0.114248
H	-0.7554594311	-2.1503486962	 1.9795165615	 0.131757
H	 0.8479197092	-2.8662651689	 1.6281373858	 0.112826
