17
gdb 56377	2.0237	1.46713	1.23776	1.0731	79.83	-0.2674	0.011	0.2783	1127.9397	0.131797	-384.590661	-384.581039	-384.580095	-384.624829	36.209	
O	 0.0085355978	 1.4659921789	-0.0581311679	-0.428671
C	 0.0091446838	 0.0377435203	 0.0439663712	-0.03767
C	 0.649219386	-0.5564456206	-1.1465977393	 0.343551
C	 1.1688514864	-1.0088476297	-2.1309095487	-0.476908
C	 0.7523081499	-0.3858325906	 1.2466583478	 0.327016
C	 1.3746761349	-0.6973543616	 2.2262929771	-0.483104
C	-1.4636641078	-0.3667402714	 0.0930930559	 0.032771
C	-1.9144824984	-1.6579049825	 0.7171601866	-0.274156
C	-2.2401932565	-0.342515039	 1.3800626049	-0.284117
H	 0.9227853793	 1.7469488755	-0.1825163634	 0.287193
H	 1.6278415826	-1.4159367979	-2.9980548601	 0.202133
H	 1.9280455272	-0.974321871	 3.0899086533	 0.20484
H	-1.9780670871	-0.041405436	-0.8046297202	 0.105457
H	-2.7056303244	-2.2071056685	 0.2196653646	 0.112836
H	-1.1621591861	-2.2791706758	 1.1898392936	 0.126438
H	-1.7023905302	-0.0958648768	 2.2880774637	 0.128171
H	-3.2587627473	 0.0263386167	 1.3424110608	 0.114221
