14
gdb 10592	3.07275	1.79647	1.37481	2.8878	64.74	-0.2649	-0.0667	0.1982	902.6373	0.105326	-378.704463	-378.696489	-378.695544	-378.736671	28.233	
C	-0.3874465342	 1.3925619011	-0.0391923762	-0.338626
N	 0.0326674366	-0.0076317354	 0.0214797971	-0.100711
C	 1.4238652744	-0.332823111	-0.0604516694	-0.249531
C	 0.6847580379	-0.5350392702	 1.2494493279	 0.058969
C	 1.0582970117	 0.3685783882	 2.3950552498	 0.103366
O	 1.5526805367	 1.459104032	 2.2552299368	-0.253468
C	 0.2499970705	-1.8570174515	 1.6428514731	 0.25294
N	-0.0738251424	-2.9084122993	 1.9973507085	-0.322737
H	 0.3200986951	 2.0956870486	 0.4118075681	 0.153217
H	-0.5166322741	 1.6373465384	-1.0971922765	 0.141524
H	-1.3578598534	 1.4889739351	 0.4546642888	 0.140122
H	 1.6819828117	-1.2170616284	-0.6363478711	 0.149579
H	 2.155356695	 0.4738242461	-0.0471045704	 0.150155
H	 0.8307646045	-0.0488734836	 3.3964572936	 0.115203
