17
gdb 28340	3.19982	1.35903	0.96039	3.0471	83.89	-0.1815	-0.015	0.1665	1194.6149	0.13811	-418.095503	-418.087278	-418.086334	-418.127929	31.954	
C	-0.0122270711	 1.5224191583	 0.0709624917	-0.493258
C	-0.0077118742	 0.0307626671	-0.0700952337	 0.370638
C	-0.0339022585	-0.6541404817	-1.2448718838	-0.214993
C	-0.0340372515	-2.0779392816	-1.2472179653	-0.171407
C	-0.0100761211	-2.7897337377	-0.0778081892	 0.171167
N	-0.0647810908	-4.1632924763	 0.0458227054	-0.579457
C	 0.0397778302	-2.0833498825	 1.2041112048	 0.408129
O	 0.0993787252	-2.6480009915	 2.2939468262	-0.424319
N	 0.0266820593	-0.7027319618	 1.0972864759	-0.423732
H	 0.8790646182	 1.881207847	 0.6012316621	 0.134429
H	-0.0318563905	 1.9958278501	-0.9123195843	 0.140184
H	-0.8876661517	 1.8726101901	 0.6322490677	 0.136009
H	-0.0591202537	-0.1090492379	-2.1796518945	 0.094447
H	-0.0597620363	-2.6048127791	-2.1967767167	 0.088295
H	 0.3157777054	-4.7086641751	-0.711164098	 0.24678
H	 0.2001632078	-4.4737067925	 0.9718779587	 0.264072
H	 0.0650746331	-0.2252532451	 1.9878236532	 0.253016
