19
gdb 110013	2.15753	1.66609	1.06293	3.4239	73.21	-0.2295	0.0227	0.2522	1156.6574	0.159783	-456.348816	-456.339563	-456.338619	-456.383	34.346	
C	 0.3893437704	 0.9730887261	 0.5678257028	-0.250458
O	-0.3489554583	 0.2034156091	-0.3708185964	-0.265039
C	 0.4585128177	-0.4564488799	-1.3304207801	-0.013674
C	 1.1300272279	-1.7600492771	-0.8226723353	 0.098123
O	 0.4501140156	-2.2675984334	 0.3113951117	-0.446388
C	 0.9751494275	-2.6874076156	-2.0555933576	-0.177558
N	-0.145631542	-2.1757213403	-2.8543333022	-0.284637
C	-0.41746493	-0.995437577	-2.4514837369	 0.346339
N	-1.3648248181	-0.1649390111	-2.993070775	-0.574751
H	 1.0385725284	 0.337989645	 1.1826873058	 0.135276
H	 1.0026352072	 1.73017086	 0.0593680573	 0.118403
H	-0.3369186717	 1.4742266563	 1.2114553581	 0.133978
H	 1.2032896429	 0.2449699915	-1.7377909492	 0.093431
H	 2.1812809952	-1.6138323961	-0.5504877384	 0.070491
H	-0.3341221409	-1.7187851105	 0.4379462894	 0.289812
H	 1.8919344972	-2.7012579813	-2.6614570914	 0.095442
H	 0.7812159937	-3.7146117197	-1.7314883563	 0.115993
H	-2.0460898185	-0.623915993	-3.5803261542	 0.25688
H	-1.7507616842	 0.5061367369	-2.3451495621	 0.258336
