17
gdb 52046	3.96644	0.86551	0.75365	3.1582	78.41	-0.2511	0.0082	0.2593	1474.9058	0.134209	-417.933302	-417.92385	-417.922906	-417.968819	33.43	
N	 0.7918688273	 0.0453397218	 1.420222519	-0.432871
C	 0.0493704939	-0.2197752067	 0.4373442285	 0.132207
O	-0.8344706768	-1.2376940304	 0.5231641193	-0.199238
C	-1.5878243298	-1.5387101248	-0.6478518178	-0.176398
C	-2.7382880315	-2.4593322998	-0.2612024407	 0.103292
C	-2.550045093	-3.4405513023	 0.8483044589	-0.262851
N	-3.4071922262	-2.2623367583	 1.0420363357	-0.34125
C	-3.5874933072	-2.7757056292	-1.3824169647	 0.285808
C	-4.2505669684	-3.0242740682	-2.3536754499	-0.411206
H	 1.3870734529	 0.8422468924	 1.2046643716	 0.235062
H	 0.0225207875	 0.3025115823	-0.5282503786	 0.094943
H	-1.9899330283	-0.6174710655	-1.0896127241	 0.12551
H	-0.9527174483	-2.0313631851	-1.394885825	 0.130305
H	-3.0765269555	-4.3883281212	 0.8014182033	 0.129506
H	-1.5789551297	-3.4581344021	 1.332640694	 0.140311
H	-2.8779591997	-1.5624205391	 1.5600975582	 0.249345
H	-4.8555858772	-3.2528921438	-3.1960593778	 0.197525
