16
gdb 34697	5.17994	1.32505	1.31221	1.5453	76.9	-0.2346	0.0423	0.2769	978.4085	0.125174	-363.48319	-363.476658	-363.475714	-363.51397	26.918	
C	-0.1066686161	-1.1839892669	-0.1342726534	-0.443303
C	-0.0652111802	 0.0166360131	-0.0732374769	 0.305794
C	-0.0008961839	 1.4619433334	 0.0149248189	-0.204688
C	-0.0901570205	 2.017263441	 1.4746895322	-0.062289
C	 0.2274085113	 3.516553071	 1.3489102938	-0.069676
C	 1.6392633865	 3.3743809131	 1.7761430964	-0.059328
C	 1.4722721318	 1.8384174342	 1.6500969658	-0.078387
C	 1.4475960308	 2.0153722551	 0.1042014307	 0.006829
N	 1.3273121304	 3.5151657958	 0.3182242658	-0.157268
H	-0.1498248459	-2.2429850997	-0.1979622884	 0.194796
H	-0.6498201722	 1.9388455597	-0.7270818755	 0.106993
H	-0.8335627635	 1.671469751	 2.1886508687	 0.086574
H	-0.4389473458	 4.3693428851	 1.368052045	 0.099968
H	 2.316120929	 4.0330868183	 2.3056077409	 0.099639
H	 1.942384666	 1.0363325857	 2.2097795988	 0.086425
H	 2.2304874323	 1.7318695501	-0.5962143829	 0.087922
