14
gdb 130422	2.95862	1.34683	0.93527	1.8999	66.55	-0.2603	-0.0809	0.1794	1167.5458	0.101144	-469.993239	-469.985183	-469.984239	-470.026862	28.45	
N	-0.1303201265	 1.414863593	-0.2415964868	-0.483322
C	-0.0132551618	-0.0091319081	-0.0165132051	-0.252745
C	 0.8252784629	-0.4282130937	 1.1793267455	 0.424695
N	 1.398880973	 0.4210638619	 1.9493300309	-0.363184
C	 2.1463666515	-0.0787315582	 3.0203993639	 0.374902
O	 2.7306125544	 0.622448043	 3.8128634084	-0.323686
C	 2.1737284745	-1.5587645972	 3.1222278951	-0.046664
N	 1.5849899569	-2.3732708938	 2.3294353937	-0.042471
O	 0.8615169571	-1.7738061757	 1.2871971285	-0.245787
H	-0.5176489894	 1.8596942747	 0.5857145437	 0.244515
H	 0.7952848699	 1.8198632345	-0.3491656755	 0.244501
H	-1.0089510709	-0.4523658363	 0.1098232742	 0.151314
H	 0.4133581141	-0.4954890931	-0.9026721963	 0.151314
H	 2.7346465943	-2.019951191	 3.9303927498	 0.166618
