17
gdb 126996	3.2815	1.06541	0.83344	2.4997	71.3	-0.2041	0.0369	0.241	1362.0047	0.136009	-455.147705	-455.138655	-455.137711	-455.18301	32.279	
C	 0.1069390453	 1.5455660765	-0.119980858	-0.385102
C	-0.1724293279	 0.0717787651	-0.3486373231	-0.056487
O	 1.0448869873	-0.5491560698	-0.7765880608	-0.302391
C	 0.942336313	-1.8786633132	-1.084926027	 0.121786
C	 1.3098108755	-2.3972138112	-2.3115358498	 0.35836
O	 1.7807263229	-1.8034925984	-3.4261386185	-0.434737
N	 1.13613499	-3.7330487754	-2.2368897817	-0.253357
N	 0.6600830953	-4.1314140074	-1.0272454222	-0.239542
C	 0.549842281	-3.0061618135	-0.3271151736	-0.093367
H	 0.8823636139	 1.6761999965	 0.6399891215	 0.132384
H	 0.4475429396	 2.0233354514	-1.0432941466	 0.122092
H	-0.8006182992	 2.054119302	 0.2181985606	 0.121323
H	-0.5248338745	-0.4048515635	 0.5762438879	 0.105943
H	-0.94844939	-0.0759010907	-1.1130059826	 0.099213
H	 1.8567399654	-0.8618887801	-3.2248535177	 0.312593
H	 1.3214967585	-4.4135584248	-2.9531816926	 0.278714
H	 0.1902857438	-3.0417222935	 0.6906348341	 0.112574
