15
gdb 127171	4.32984	1.13797	0.90626	2.0527	71.76	-0.2349	-0.0257	0.2092	1206.7345	0.114133	-450.128122	-450.12009	-450.119146	-450.16139	28.345	
C	 0.012990247	 1.4723805793	-0.0259910412	-0.347113
N	 0.0034667241	 0.0112700473	 0.005756164	-0.175953
C	-0.0283291929	-0.6795539536	 1.2106138135	 0.083557
N	-0.0502201699	-0.0698482218	 2.3261491846	-0.47792
C	 0.0272713714	-0.6618520631	-1.1863687346	 0.522679
N	 0.0579090022	-0.0331798416	-2.3435534361	-0.238564
O	 0.0731274459	-1.0964612209	-3.2709881984	-0.158884
C	 0.0495759761	-2.2139597713	-2.5564732118	 0.118911
N	 0.0207808442	-2.0419329989	-1.2749895778	-0.34033
H	 0.9143926068	 1.8320678092	-0.529837411	 0.14605
H	-0.8587050843	 1.842615039	-0.5726276717	 0.146088
H	-0.0097346189	 1.8194580591	 1.0047727895	 0.175397
H	-0.0312845822	-1.7595264819	 1.0604626131	 0.142512
H	-0.07174042	-0.7412118374	 3.089908813	 0.231751
H	 0.0564355404	-3.1491932634	-3.0976438249	 0.171818
