15
gdb 45245	3.64347	1.71838	1.54174	4.6056	63.39	-0.2678	-0.0019	0.2659	862.4153	0.115807	-457.783884	-457.778121	-457.777177	-457.813972	23.968	
O	-0.0537131807	-0.0230153952	-0.1859894264	-0.341129
C	-0.0026498787	 1.1575298695	-0.0182405661	 0.454623
O	-1.1207739006	 1.9517734864	 0.115625113	-0.220778
C	-0.6413392701	 3.2488197925	 0.4825372497	 0.192142
O	-0.0647323372	 3.1418542635	 1.7793771307	-0.263865
C	 1.3075334128	 2.9049196741	 1.4167378898	 0.084074
C	 1.6318236895	 4.157863576	 0.5745421115	-0.248969
C	 0.6222434253	 3.4886233092	-0.3862883616	-0.098375
C	 1.1780377617	 2.0975064389	 0.0592840826	-0.218842
H	-1.4752775731	 3.9456760272	 0.4677043842	 0.111497
H	 1.8754522805	 2.5531399149	 2.2742490779	 0.106021
H	 1.3838150283	 5.1231402158	 1.0202746228	 0.115155
H	 2.6438851732	 4.1594738105	 0.1645001462	 0.117113
H	 0.4735192373	 3.7626461198	-1.4285288307	 0.099283
H	 2.105669252	 1.7340689769	-0.3727098936	 0.11205
