19
gdb 98424	2.6147	1.29394	1.00171	2.687	73.66	-0.2387	0.0037	0.2424	1239.3183	0.157141	-460.18693	-460.177282	-460.176337	-460.221378	35.335	
C	-0.1161519137	 1.3705974764	-0.2321524481	-0.243793
O	-0.1319355698	-0.0627098013	-0.2872080274	-0.235756
C	-1.2384107642	-0.6498330306	 0.1957029172	 0.457757
O	-2.1683051383	-0.0113112854	 0.6603439678	-0.420385
C	-1.2059559253	-2.1261971933	 0.0774676107	 0.095943
C	-0.0084081481	-2.7748846124	-0.5837029417	-0.466426
C	-1.9126051584	-2.8660126732	 1.2283755955	-0.353505
C	-2.6032234227	-2.7705971992	-0.0867570637	 0.127597
O	-3.7475840703	-2.0249763913	-0.2795544784	-0.425269
H	 0.841023891	 1.6704898059	-0.6582457534	 0.136163
H	-0.9427158648	 1.7865640634	-0.8130186556	 0.144929
H	-0.20235263	 1.7164696525	 0.8006342633	 0.143899
H	 0.9095391859	-2.5970299849	-0.0143740649	 0.126171
H	-0.1561297249	-3.8569363065	-0.6511432049	 0.114184
H	 0.1476675511	-2.3908795993	-1.5957371847	 0.130046
H	-1.4710102598	-3.8076305314	 1.5371692458	 0.118935
H	-2.2953018342	-2.2442384215	 2.0303186349	 0.134077
H	-2.610338448	-3.6524954669	-0.7203286236	 0.11193
H	-3.6068675453	-1.170212791	 0.1620080812	 0.303502
