13
gdb 129808	3.50622	1.63553	1.12198	4.7737	68.22	-0.2136	-0.0443	0.1694	978.9088	0.09137	-448.898057	-448.89108	-448.890136	-448.929245	26.845	
N	 0.1695232581	 1.4253672493	 0.0091447102	-0.614405
C	-0.0193379151	 0.0316082873	 0.0107535378	 0.087918
C	-1.0891478948	-0.838175556	-0.0194065378	 0.333031
O	-2.4194785504	-0.86029307	-0.0629184949	-0.302691
N	-2.7441269504	-2.3565548819	-0.0648122349	-0.030503
N	-1.685478397	-2.9968997156	-0.0272656291	-0.196599
C	-0.5927009506	-2.1621594923	 0.0041350126	 0.223339
C	 0.7918628857	-2.1316074339	 0.0493836672	-0.191921
N	 1.099138384	-0.804002899	 0.0520274562	-0.234766
H	-0.2073590963	 1.8634725266	-0.8247896609	 0.252556
H	-0.2609317767	 1.8726180077	 0.8117017145	 0.252556
H	 1.5448597739	-2.8994971719	 0.0782848739	 0.148275
H	 2.0309837496	-0.4214914603	 0.0803703154	 0.273209
