21
gdb 89088	5.29347	0.56349	0.54248	2.1423	86.19	-0.259	0.0555	0.3145	2053.4531	0.179504	-387.044714	-387.034273	-387.033329	-387.081376	37.345	
C	 0.3269215196	 1.4455278688	-0.3693698018	-0.419708
C	 0.036427151	 0.0274019803	 0.0511691987	 0.077156
O	 1.1537217748	-0.8396404518	 0.2803604681	-0.264337
C	 0.2952959737	-0.5350119882	 1.3881719003	 0.060614
C	 0.9064150872	 0.2110563751	 2.5498127712	-0.230306
C	 1.8328049123	-0.6891975262	 3.3782624137	-0.165386
C	 2.4660352003	 0.0585010393	 4.5683279083	-0.357943
C	 3.3431813533	-0.7851405659	 5.3707146799	 0.291336
C	 4.0605532218	-1.501658942	 6.0163240852	-0.434318
H	 1.1270123371	 1.8934572679	 0.2227110947	 0.128033
H	 0.6328329057	 1.4688282073	-1.4205689454	 0.131035
H	-0.5718902501	 2.0639428423	-0.2698398009	 0.121728
H	-0.7646428739	-0.4474576809	-0.520762714	 0.085746
H	-0.3317863025	-1.3790206316	 1.689253484	 0.08495
H	 1.4678531431	 1.0780241066	 2.1875380677	 0.10309
H	 0.0963804138	 0.5962578206	 3.1847972294	 0.099322
H	 1.2757028694	-1.5545597457	 3.7558443877	 0.109071
H	 2.6247101097	-1.084113505	 2.7337151645	 0.129812
H	 3.0318867938	 0.9230219204	 4.1962319944	 0.129924
H	 1.6721675268	 0.4700080934	 5.2062118316	 0.127008
H	 4.6974068231	-2.1260018145	 6.5921774327	 0.193173
