17
gdb 67280	3.20066	1.90547	1.72451	2.9874	69.81	-0.2237	0.0346	0.2583	857.7318	0.137031	-421.736555	-421.73022	-421.729276	-421.766912	26.526	
C	-0.0241505373	 1.5809218748	 0.0121533401	-0.538009
C	-0.0423418807	 0.0802375889	 0.0022045884	 0.326402
C	 0.7397014482	-0.8600156788	-0.9712106548	 0.008924
O	 1.6246870473	-1.3102737138	 0.0697277826	-0.270472
C	 0.6484447114	-0.8721791339	 1.0312427484	 0.008925
C	-0.6154356508	-1.8402968443	 0.9667796619	 0.07421
O	-0.3788988387	-2.8506907808	-0.0309373057	-0.271419
C	-0.5242697355	-1.8281439525	-1.0337084755	 0.074211
C	-1.2806811364	-0.8790779832	-0.0600558357	-0.18533
H	 1.0023752109	 1.9603561004	 0.0611181788	 0.131623
H	-0.4907283012	 1.9899356909	-0.891385209	 0.12218
H	-0.5709909592	 1.9792002331	 0.8745392649	 0.12218
H	 1.250542754	-0.5763923568	-1.8931115224	 0.078201
H	 1.0731626215	-0.600033367	 1.9991547127	 0.078201
H	-1.0471582638	-2.226098643	 1.8908856467	 0.080985
H	-0.8699415296	-2.2024744436	-1.9978594056	 0.080985
H	-2.3356322603	-0.6183508506	-0.1065480459	 0.078203
