19
gdb 104903	2.12447	1.50659	1.02314	5.0563	76.99	-0.2513	0.012	0.2633	1221.1103	0.156814	-419.200596	-419.190329	-419.189385	-419.235607	37.015	
C	-0.0042422612	 1.5108112754	-0.0586744163	-0.46098
C	-0.0405350239	 0.0039398888	 0.0969014809	 0.33384
C	-1.147753979	-0.6726379193	-0.6838570438	-0.466279
O	 1.2320219242	-0.662616137	 0.0424908253	-0.309011
C	 0.5361459071	-0.666995859	 1.2997671892	 0.176137
C	 1.2319365528	 0.0490771929	 2.4458934834	-0.246202
N	 2.3834765665	-0.7462818618	 2.8618814597	-0.499087
C	-0.0047732188	-1.9652267133	 1.6865326858	 0.299114
N	-0.4732525282	-2.9713002964	 2.0090725246	-0.349461
H	 0.8937165263	 1.9506501287	 0.3743552906	 0.135052
H	-0.0219513148	 1.764479544	-1.1237808175	 0.1338
H	-0.8839278246	 1.9678093498	 0.4058343716	 0.132807
H	-1.0186364743	-0.4670849844	-1.7514185225	 0.130667
H	-1.1461238638	-1.7528390945	-0.5349573848	 0.157669
H	-2.1237880894	-0.2797811063	-0.3811876847	 0.130119
H	 1.4723764089	 1.0737618491	 2.13358883	 0.097305
H	 0.5335675262	 0.1173505826	 3.2879087154	 0.12543
H	 3.0826638281	-0.743825231	 2.1256209216	 0.242647
H	 2.8132071078	-0.3425598984	 3.6867462516	 0.236434
