19
gdb 15340	3.78377	1.05039	0.88546	1.4705	82.49	-0.2186	0.0427	0.2614	1366.0224	0.16344	-327.87655	-327.866982	-327.866037	-327.912692	33.152	
C	 0.2802452559	 1.6372629738	-0.056774261	-0.375086
C	-0.2369435884	 0.2110857414	-0.2228537943	-0.111323
N	 0.5591936778	-0.4979767194	-1.2233245703	-0.079893
C	 1.7377559928	-1.2025894383	-0.7494720739	-0.243841
C	 0.5376392532	-1.973675745	-1.2174786886	-0.182248
C	-0.2563359423	-2.7254492698	-0.2828500085	 0.111258
C	-0.9494272124	-3.3748137138	 0.4596709275	 0.040445
C	-1.7752062538	-4.1624819388	 1.3631164406	-0.498845
H	 1.3106737741	 1.640474126	 0.3140896407	 0.116128
H	 0.2646730747	 2.1679705882	-1.0129011872	 0.126086
H	-0.3372359495	 2.188952555	 0.6587773916	 0.111179
H	-0.2406512081	-0.3084043531	 0.7485368541	 0.093145
H	-1.2736220601	 0.2245022233	-0.5784060416	 0.105415
H	 2.6223980807	-1.1446478592	-1.3783912635	 0.116185
H	 1.9315579352	-1.2176313103	 0.322136796	 0.114046
H	 0.5710136678	-2.3963402207	-2.2196675684	 0.109961
H	-2.821756892	-3.8388899114	 1.3347913832	 0.14874
H	-1.7508238883	-5.2242179835	 1.0935229758	 0.150647
H	-1.4287915073	-4.0769077244	 2.3990978279	 0.148002
