21
gdb 113852	3.22451	1.06044	0.9376	1.6047	79.21	-0.2478	0.0743	0.3221	1359.4961	0.181763	-424.188634	-424.179262	-424.178318	-424.223955	33.72	
C	-0.6167195718	 1.2718016963	 0.3489728529	-0.375483
C	 0.1722772681	 0.0597527371	-0.1619069233	-0.228442
C	 0.9543963812	-0.5968720176	 0.9500319509	 0.08111
O	 0.2329915361	-1.408230624	 1.8969638704	-0.266788
C	 1.2354640826	-2.0348005618	 1.0978105173	 0.025458
C	 0.8042683478	-3.1614191254	 0.1912994929	 0.101385
C	 0.131340728	-4.3539053381	 0.9206865089	-0.288316
C	-1.1151499571	-3.957946146	 0.106919708	-0.059599
O	-0.3872068887	-2.919157169	-0.5840414743	-0.276323
H	 0.0449991125	 2.0233194538	 0.7947081637	 0.109237
H	-1.1672121973	 1.7523992169	-0.465122513	 0.111964
H	-1.3384449828	 0.9674116629	 1.1132067599	 0.129863
H	-0.4933261311	-0.6737366083	-0.6171706529	 0.141017
H	 0.8848934241	 0.3788935574	-0.934373994	 0.093712
H	 1.6702523388	 0.0712731704	 1.4391504462	 0.082132
H	 2.1429045377	-2.3035950434	 1.6500976933	 0.083523
H	 1.64943865	-3.4317383024	-0.4572888303	 0.081025
H	 0.5494657305	-5.3332242539	 0.685393046	 0.111685
H	 0.0434796064	-4.239243925	 2.0015993045	 0.125256
H	-1.4993467048	-4.7119623314	-0.5893115699	 0.102808
H	-1.9450872604	-3.5475423984	 0.6926799325	 0.114777
