17
gdb 31449	5.18311	0.84843	0.77253	6.7179	84.03	-0.2254	-0.0035	0.2219	1466.5288	0.137746	-380.93929	-380.930743	-380.929798	-380.973174	31.329	
C	 0.1728066498	 1.5064473979	 0.236550467	-0.369325
C	-0.0988519393	 0.0245179683	-0.0801356219	-0.302088
C	 0.5800691412	-0.463738923	-1.3208730636	 0.343912
C	 0.0762383299	-0.8102958612	-2.5499507673	-0.352447
C	 1.178182361	-1.187416157	-3.3833547038	 0.176203
C	 2.3276483399	-1.0562320623	-2.6252229909	-0.17073
N	 1.951349917	-0.6201256819	-1.3907295229	-0.296743
C	 1.1196315864	-1.6192967221	-4.7304209502	 0.194847
N	 1.0616309851	-1.9714425732	-5.8329893749	-0.354006
H	 1.2406457126	 1.6960803214	 0.3890086853	 0.110535
H	-0.1627804248	 2.1467697716	-0.5841761326	 0.132485
H	-0.3517952992	 1.8100816078	 1.1473796811	 0.121284
H	 0.2013239396	-0.5920085403	 0.7780237632	 0.109725
H	-1.1745840916	-0.1320138355	-0.2039992683	 0.125069
H	-0.9628845011	-0.8026653628	-2.8382115763	 0.117017
H	 3.3576950192	-1.2443030532	-2.8782515005	 0.145576
H	 2.5863251842	-0.4456902345	-0.6301497032	 0.268685
