21
gdb 74408	2.86641	1.53914	1.28942	0.282	87.56	-0.2104	0.0033	0.2136	1098.823	0.183156	-349.959349	-349.951205	-349.95026	-349.991296	33.386	
C	-0.037610779	 1.5064844509	 0.0547527859	-0.509565
C	-0.0441137194	 0.017951893	-0.0268182649	 0.350142
C	-0.0539166434	-0.7893539802	-1.0888314964	-0.230092
C	 0.0288967885	-2.2505206852	-0.5899880805	 0.262397
C	-0.3623754274	-3.3342058394	-1.5797430313	-0.501087
C	-0.8320111113	-2.0775617641	 0.7029373312	-0.220808
C	 0.0493967474	-0.9032296096	 1.2158990387	-0.168843
C	 1.418970853	-1.610003537	 1.1669603376	-0.092924
C	 1.4085096679	-2.4020860176	 0.0960776926	-0.099705
H	 0.8817798583	 1.8716208193	 0.5326347569	 0.124476
H	-0.1078811462	 1.9653913032	-0.9356497492	 0.122661
H	-0.8714003605	 1.8802302279	 0.6631496934	 0.122741
H	-0.0564066096	-0.5087823761	-2.1352046023	 0.085947
H	 0.3149619622	-3.3488072317	-2.4412210404	 0.113826
H	-0.3289006629	-4.3254065898	-1.1150562826	 0.113912
H	-1.3770718704	-3.1743454651	-1.9593037798	 0.114737
H	-1.8650197309	-1.7860756733	 0.4894983073	 0.086454
H	-0.8063821264	-2.955653901	 1.3558566609	 0.086726
H	-0.2160997629	-0.438683798	 2.1665057773	 0.053022
H	 2.2291591961	-1.4291013965	 1.8608324284	 0.094513
H	 2.2090941669	-3.0195670698	-0.291599323	 0.091469
