16
gdb 123922	3.47731	1.58093	1.12774	5.32	70.38	-0.2301	-0.0258	0.2043	1026.4517	0.127897	-434.044331	-434.037563	-434.036619	-434.075462	26.802	
C	-0.0523618588	 1.5135714579	-0.014941304	-0.207262
C	 1.3427594025	 2.1474364876	 0.1032897917	-0.16789
N	 1.9649589944	 1.7648683136	 1.3725100452	-0.388492
C	 1.8791701488	 0.4384541782	 1.7070794846	 0.360649
N	 2.5676195025	-0.2020384158	 2.6148012257	-0.224152
O	 2.0463133739	-1.4904255833	 2.5978420943	-0.165664
N	 1.0494391601	-1.6166945399	 1.6728636155	-0.174427
C	 0.930197791	-0.4507996096	 1.1093416727	 0.309048
C	 0.0078660445	-0.0294760614	 0.0092926989	-0.328518
H	-0.6672794067	 1.8711732796	 0.8182190995	 0.125244
H	-0.5240348772	 1.8544249878	-0.9406803438	 0.112181
H	 1.9581290607	 1.8489843263	-0.7614705878	 0.106122
H	 1.2584443309	 3.2374457663	 0.0844270418	 0.119163
H	 2.8269590202	 2.2280482709	 1.6180708426	 0.255793
H	-0.9877842667	-0.4614273456	 0.142637487	 0.136459
H	 0.3870831199	-0.4034836625	-0.9500361239	 0.131747
