19
gdb 56728	2.24985	1.2313	1.13475	2.6197	81.69	-0.2467	-0.024	0.2226	1217.6746	0.156009	-385.858369	-385.848596	-385.847652	-385.892997	35.982	
C	 0.4242110673	 1.341064003	-0.2487694201	-0.394944
C	 0.1468570428	-0.1383498332	 0.0961958966	-0.272218
C	 0.7825377816	-0.5178217878	 1.3600772804	 0.329685
C	 1.2984169008	-0.8156421788	 2.4044625414	-0.463927
C	-1.3519760233	-0.4531216219	 0.1103221973	 0.274338
C	-2.0640737103	-0.7013454543	-1.2103185785	-0.305092
C	-1.8208583117	-1.8491895988	-0.2907851021	-0.290705
C	-2.1688610322	 0.1922026911	 1.1779143182	 0.095341
O	-3.3748825447	 0.1315969451	 1.2390945291	-0.277808
H	 1.499416584	 1.5303350835	-0.2976367508	 0.130067
H	-0.0213294608	 1.5902457193	-1.2160357283	 0.122932
H	 0.0004425132	 2.0079744084	 0.5074309902	 0.131267
H	 0.593848936	-0.7523579935	-0.6970786095	 0.108081
H	 1.7565525854	-1.0866871844	 3.3234441203	 0.200045
H	-3.0750110981	-0.3165971358	-1.2797008365	 0.142024
H	-1.4670289055	-0.6209387287	-2.1124953212	 0.117994
H	-1.0479843357	-2.5682706546	-0.5395098735	 0.123838
H	-2.6666723933	-2.2440246367	 0.2597668637	 0.140689
H	-1.5857599554	 0.735428278	 1.9513212732	 0.088392
