21
gdb 111978	3.08286	1.23912	0.98589	1.7162	80.68	-0.2485	0.013	0.2615	1267.6005	0.181882	-424.226152	-424.21673	-424.215786	-424.260373	35.428	
C	-0.6158792754	 1.007610253	-0.0269094431	-0.247368
O	 0.5748311025	 0.24641403	 0.0937247999	-0.261123
C	 0.9380478704	-0.4443118181	-1.0959026771	 0.046293
C	 2.3667562279	-0.9088730207	-1.0097443122	-0.113073
C	 2.4993813321	-2.1692701412	-1.4144044919	-0.063847
C	 1.1866578653	-2.7917182244	-1.834308641	-0.048479
C	 0.9836269931	-4.2353593437	-1.3657225145	-0.386585
C	 0.132989215	-1.7783571189	-1.2847395033	 0.088152
O	-0.4039117951	-2.1939901321	-0.0445554637	-0.439247
H	-0.5352014935	 1.7400422714	-0.8429021122	 0.112996
H	-1.4910080348	 0.3696391184	-0.2061828891	 0.127329
H	-0.7512038973	 1.540952395	 0.9168905981	 0.130557
H	 0.7858745095	 0.2278710471	-1.9562698916	 0.075753
H	 3.1593595207	-0.2451729435	-0.6853385728	 0.10064
H	 3.4394357169	-2.7087048496	-1.4748087502	 0.09528
H	 1.127393941	-2.7772644422	-2.9335391313	 0.0777
H	 1.0052051489	-4.2940527794	-0.2759870548	 0.130669
H	 0.0175974549	-4.6255913893	-1.7007871613	 0.115019
H	 1.7683020397	-4.8834135699	-1.7702753589	 0.103162
H	-0.6981632145	-1.6607231083	-1.9907532724	 0.064814
H	-0.0749994374	-1.5650662836	 0.6130415137	 0.291358
