18
gdb 50368	3.57132	1.17656	0.97192	2.9935	79.72	-0.233	-0.0302	0.2027	1214.8356	0.148463	-401.920509	-401.912646	-401.911702	-401.953514	29.799	
O	-0.7612437135	 0.9119417127	 0.4873339914	-0.247453
C	 0.2121219912	 0.890403981	-0.2195392905	 0.172007
C	 1.4556787266	 1.7270411835	 0.0107032397	-0.153644
N	 2.713124098	 1.1376554068	-0.5611114049	-0.353619
C	 3.0850914534	 2.4629161601	-1.1734536547	 0.005073
C	 3.3183037179	 2.6582863768	-2.6827350452	-0.234587
C	 2.2366106223	 3.7284086207	-3.06040628	-0.242658
C	 1.125468338	 3.4766209822	-2.0395593329	-0.206103
C	 1.6516428017	 2.8576063673	-0.989960292	 0.239293
H	 0.2753845711	 0.2652816887	-1.1371057805	 0.085572
H	 1.5126629778	 2.0261301155	 1.0647547701	 0.096398
H	 3.3619107002	 0.8076523207	 0.1473823494	 0.222553
H	 3.8064047219	 3.0183931295	-0.55713965	 0.073592
H	 4.3339301387	 2.964695687	-2.9485532792	 0.094214
H	 3.0946120946	 1.7186667192	-3.1973543617	 0.116529
H	 2.6389058842	 4.7485071964	-2.9930420826	 0.112088
H	 1.8746522505	 3.6075008973	-4.0866044441	 0.111166
H	 0.0827529653	 3.7061860447	-2.2231704421	 0.109581
