16
gdb 112501	2.50336	1.14337	0.93704	2.3945	72.54	-0.2467	-0.04	0.2067	1267.4067	0.122315	-437.828553	-437.819514	-437.81857	-437.86331	32.635	
O	 0.1142185927	 1.1530970043	-0.5839857287	-0.416806
C	 0.0853755096	-0.1401283007	-0.0203926999	-0.052387
C	-1.3651133583	-0.5687993571	 0.2312445533	-0.123656
N	-2.1774499415	-0.5164819102	-1.0217300137	-0.336026
C	-2.6112575719	-1.9470222959	-0.9106013205	-0.305918
C	-2.3761681488	-2.7875373236	-2.0658481585	 0.359129
C	-2.1625616256	-3.5061714548	-3.005037822	-0.427359
C	-1.6396013426	-2.0748117808	 0.3091432011	 0.381185
O	-1.2622037311	-2.9768041821	 0.9863408662	-0.271693
H	-0.3936826713	 1.0886960524	-1.4031775472	 0.290217
H	 0.5752535867	-0.8772343367	-0.6741910329	 0.100088
H	 0.6385561243	-0.1024869706	 0.9223871899	 0.123701
H	-1.7860614841	-0.0063447084	 1.0741868759	 0.108542
H	-2.9579832133	 0.1275495972	-0.9735213385	 0.23571
H	-3.6472537569	-2.0648729854	-0.5598854713	 0.129429
H	-1.975403838	-4.1367814476	-3.8389788334	 0.205843
