17
gdb 46208	3.06078	1.54093	1.21919	3.7143	74.14	-0.2277	-0.0211	0.2066	1035.6237	0.135444	-421.782245	-421.774612	-421.773668	-421.814707	29.033	
O	 0.0893488889	 0.026667584	-0.3145498405	-0.315796
C	 0.0378872629	 1.2035993318	-0.0885285635	 0.347701
C	-1.0950611201	 2.1737216035	 0.3101575017	-0.333862
C	-0.0126970586	 3.2844440279	 0.5175854109	-0.340901
C	 1.0539020225	 2.3097816436	-0.0136232195	 0.221358
C	 2.527625927	 2.2847996229	 0.3559490822	-0.230568
C	 3.1828442042	 1.0906440782	-0.3424348875	-0.089645
O	 2.6972741697	 1.5497260546	-1.6407868965	-0.273039
C	 2.1209043711	 2.6866467652	-1.0278574558	 0.043376
H	-1.7969851249	 2.3684464052	-0.5057522784	 0.134972
H	-1.6633544398	 1.873318121	 1.1940156146	 0.131081
H	-0.1583679378	 4.1905343058	-0.0752299758	 0.111408
H	 0.1234569633	 3.5677430525	 1.5643094766	 0.113574
H	 2.9193337094	 2.8572133879	 1.1864535525	 0.108793
H	 4.2765213591	 1.1178112193	-0.3179194362	 0.115834
H	 2.8086308591	 0.0945906052	-0.0952855001	 0.140988
H	 2.1061429139	 3.6268937615	-1.5687123348	 0.114726
