19
gdb 34392	2.5766	1.56332	1.29321	1.7935	80.88	-0.2449	0.0399	0.2847	1064.8062	0.159549	-385.852959	-385.844885	-385.84394	-385.885611	31.79	
C	 0.0930431093	-1.2408844765	-0.3797422287	-0.401886
C	 0.0613385221	-0.0666842183	-0.1241116362	 0.242749
C	 0.0486791343	 1.3603915862	 0.1343109631	 0.231714
C	-0.4757806389	 2.2759369195	-1.0253346923	-0.272762
C	 0.8557476395	 3.0755009738	-1.0093506081	-0.232805
C	 1.4166067393	 2.1498060862	 0.1082151259	-0.074291
C	 1.5137411427	 2.7426360258	 1.5150016868	-0.232534
C	 0.0452479438	 2.7765088057	 1.9629967594	-0.094659
O	-0.5528808624	 1.6130603198	 1.4001175364	-0.293232
H	 0.1143595317	-2.2809987038	-0.5926161054	 0.190456
H	-0.6718309071	 1.7338584203	-1.9515912891	 0.114173
H	-1.3734185516	 2.8301312341	-0.7423130489	 0.112596
H	 1.4184174785	 3.0371414464	-1.943995966	 0.106754
H	 0.7582084379	 4.1245266249	-0.7154978444	 0.098904
H	 2.2905011444	 1.5644284074	-0.1759394441	 0.083867
H	 2.089073651	 2.0781909642	 2.1669876519	 0.112988
H	 1.9820760368	 3.7311807185	 1.5316206067	 0.102941
H	-0.0907572044	 2.7262079236	 3.0462346595	 0.112767
H	-0.4553598072	 3.6876140524	 1.5986892336	 0.092259
