20
gdb 113362	2.6409	1.08446	0.92972	2.857	77.63	-0.2436	-0.0347	0.2089	1353.3922	0.168632	-440.262434	-440.252505	-440.251561	-440.297648	35.923	
C	 0.2061059815	 1.4730274471	-0.0752694774	-0.380811
C	 0.3006667866	-0.0476881461	-0.1653261235	-0.115841
N	 0.7015918627	-0.5969976777	 1.132079661	-0.112009
C	-0.3078521157	-1.1166045387	 2.0206850944	-0.298262
C	 0.6483801702	-2.0590511482	 1.3414927325	 0.191175
C	 0.1518707803	-3.0437945635	 0.2969965597	-0.149913
O	 1.1327645941	-3.3229552674	-0.6830557294	-0.42695
C	 1.8402470128	-2.5216303802	 2.111842455	 0.143452
O	 2.3924548153	-3.5822507834	 1.9259388297	-0.283908
H	 1.1616320171	 1.9011768048	 0.2391926605	 0.130019
H	-0.0640442446	 1.8959679253	-1.0475964337	 0.11721
H	-0.5562226514	 1.7766831993	 0.6497125767	 0.118468
H	-0.6606293801	-0.4560285048	-0.5145731888	 0.090326
H	 1.0596828826	-0.3472528359	-0.894532953	 0.129569
H	-0.2021111307	-0.8802613382	 3.0772475958	 0.121717
H	-1.3380967781	-1.1678670874	 1.6659136926	 0.119055
H	-0.1713795985	-3.9585904963	 0.8161297048	 0.105194
H	-0.7183688685	-2.6448797955	-0.2294234378	 0.108776
H	 1.8508819087	-3.7686248018	-0.2158820136	 0.299199
H	 2.2107865357	-1.7945885512	 2.8649989646	 0.093532
