16
gdb 55967	3.32403	1.12195	0.90047	4.2961	66.32	-0.2691	-0.0175	0.2516	1267.1979	0.122987	-475.045093	-475.036344	-475.0354	-475.079592	30.659	
C	 0.0466113552	 1.3794065437	-0.3190028334	-0.443553
C	 0.0360227131	-0.1190750063	-0.386109473	 0.404236
N	 0.9590721208	-0.7911698951	-0.9233421685	-0.505391
O	-1.1176884977	-0.59400774	 0.2110622098	-0.252003
C	-1.1784904018	-1.9594390631	 0.5270320608	-0.080794
C	-2.5296544563	-2.3936830947	 1.1124969299	-0.114596
O	-2.6998834897	-3.3620772788	 0.0250948415	-0.232222
C	-1.5438163142	-2.9657481839	-0.5910548406	 0.442523
O	-1.0794425243	-3.3496644754	-1.6145736373	-0.309078
H	 0.9358262444	 1.7585072683	-0.8199281552	 0.154051
H	-0.8489558612	 1.7820132289	-0.8025981026	 0.144707
H	 0.0326689302	 1.7170464615	 0.721950206	 0.138519
H	 0.7783588019	-1.7936487629	-0.9597182314	 0.240793
H	-0.2974669453	-2.2751517676	 1.0983613793	 0.129281
H	-2.5124796124	-2.8959741092	 2.0802110925	 0.137614
H	-3.2982109627	-1.6207563155	 1.0743859622	 0.145913
