19
gdb 99657	2.48102	1.22099	0.93638	3.3116	77.28	-0.2367	0.0106	0.2473	1293.8131	0.157436	-419.16557	-419.1557	-419.154756	-419.200817	34.806	
C	 0.2064948216	 1.5202792936	-0.3814473701	-0.255015
O	-0.1470376564	 0.1985005886	-0.7623030571	-0.225967
C	 0.9223895063	-0.555471403	-1.2813870529	-0.041037
C	 1.9287346548	-0.8395873333	-0.2278543872	 0.267472
N	 2.7079208977	-1.045565897	 0.6000768645	-0.319442
C	 0.4360533071	-1.8798387949	-1.873794916	-0.023483
C	-0.9534083148	-2.3624565485	-1.6398510052	-0.237444
N	-0.5125079227	-1.9656830931	-2.9732878437	-0.096822
C	-1.0760943242	-0.7598937225	-3.5697490664	-0.328238
H	 0.9484161927	 1.5194438078	 0.4272580622	 0.141589
H	 0.6074788993	 2.0872891272	-1.2337945915	 0.117464
H	-0.7090614793	 1.998240068	-0.0296059077	 0.142092
H	 1.4423002483	 0.0201783662	-2.0674755997	 0.119939
H	 1.2468600602	-2.6030173398	-1.9395294235	 0.115841
H	-1.1466231277	-3.4218554742	-1.4942828423	 0.119782
H	-1.6118112545	-1.6875492869	-1.0991394438	 0.132468
H	-1.319646219	 0.029857659	-2.8478367989	 0.123831
H	-0.3694268208	-0.36136457	-4.3056653936	 0.120119
H	-1.9886723686	-1.0383833171	-4.105271387	 0.126849
