13
gdb 53715	10.15092	0.46512	0.44596	3.2311	112.77	-0.252	-0.0935	0.1585	2282.4304	0.085779	-382.234827	-382.225373	-382.224429	-382.270217	32.277	
C	 0.0098943798	 1.5063160819	-0.0257295941	-0.480435
C	-0.0214063218	-0.0041310919	 0.0620543371	 0.181171
O	-0.050898688	-0.612928503	 1.1106110815	-0.261403
C	-0.0140338051	-0.705258606	-1.2084232054	 0.278504
C	-0.0083075582	-1.3089238921	-2.2645477596	-0.48764
C	-0.0019762592	-1.9708777325	-3.4384467487	 0.650621
C	 0.0037275292	-2.5683677881	-4.5011092519	-0.020857
C	 0.0099379197	-3.2303469017	-5.6793091269	 0.172516
C	 0.0151504226	-3.822235933	-6.7341981137	-0.687995
H	 0.9065890984	 1.8340264197	-0.5627797408	 0.151858
H	-0.8538351085	 1.8688490177	-0.5935282689	 0.151827
H	 0.000736067	 1.9284687601	 0.9801746335	 0.148352
H	 0.0199726942	-4.3439003912	-7.6596076621	 0.203481
