23
gdb 119771	4.78253	0.72277	0.66828	1.7395	90.17	-0.2243	0.0234	0.2477	1793.6048	0.204781	-388.310106	-388.299951	-388.299007	-388.346133	36.789	
C	-0.1672756592	 1.5894078009	 0.1244767596	-0.379035
C	-0.175232046	 0.0589862666	 0.1320820732	-0.161286
C	 0.8786565609	-0.5330290994	 1.0892076068	-0.300493
C	 0.9051533982	-2.0307521455	 1.1116459689	 0.310755
C	 1.873297561	-2.8538262278	 0.7165049712	-0.227046
C	 1.4819330595	-4.290190247	 0.9331268389	 0.110105
C	 2.4291349233	-5.0839709353	 1.8336218603	-0.385639
O	 0.184071073	-4.2160742241	 1.5390375952	-0.28044
C	-0.2465090197	-2.8643107987	 1.6229652167	-0.157042
H	 0.8082817348	 1.9788519422	-0.1873276752	 0.115363
H	-0.9200353551	 1.9877469506	-0.5626581317	 0.114037
H	-0.3795169396	 1.9916196578	 1.1213661114	 0.115156
H	-1.1719137275	-0.3004831995	 0.4152695498	 0.10252
H	 0.011188608	-0.3209639319	-0.8796770588	 0.103099
H	 1.8700899577	-0.1570112909	 0.810526511	 0.102023
H	 0.6776463183	-0.1565843304	 2.1031245043	 0.102584
H	 2.8305457642	-2.563786256	 0.2994997956	 0.092933
H	 1.3893688059	-4.8228769871	-0.0297540265	 0.075815
H	 2.5669583891	-4.5710556218	 2.7900438934	 0.116339
H	 2.0180079672	-6.0789206396	 2.0269817921	 0.123746
H	 3.407075943	-5.2033119488	 1.3548594765	 0.107999
H	-0.5068637708	-2.6174294048	 2.6652532491	 0.099077
H	-1.1616801163	-2.7222707694	 1.0246090781	 0.099431
