22
gdb 94196	2.81323	1.2306	1.12031	2.7789	81.53	-0.2331	0.06	0.2931	1226.5001	0.194036	-404.31298	-404.303605	-404.302661	-404.346849	36.17	
C	 0.472359982	 1.610219102	-0.1887397342	-0.429071
C	-0.0054747038	 0.2021074749	 0.1534699247	-0.028908
C	 0.5105123988	-0.9000491454	-0.8189018312	-0.229497
C	 1.5967165042	-1.2934453161	 0.2190632585	-0.274915
C	 0.8030520649	-0.5067973232	 1.3043650377	 0.365246
O	 1.5287154763	 0.3084851662	 2.2013724217	-0.487528
C	-0.0788814604	-1.4083737992	 2.1436044451	 0.005626
C	 0.3619720838	-1.8983550864	 3.4699578492	-0.25329
N	-0.71946119	-0.8950950834	 3.3612027454	-0.339434
H	 1.544812066	 1.6366336047	-0.4228131047	 0.103916
H	-0.0517389787	 1.9895460653	-1.0718005935	 0.123169
H	 0.2875160481	 2.3068246795	 0.6354160904	 0.12526
H	-1.087038924	 0.2162711463	 0.3182822447	 0.080047
H	-0.2202754675	-1.6948847505	-0.9851826738	 0.107146
H	 0.8663028804	-0.5530371963	-1.7922007871	 0.097106
H	 1.7719466428	-2.3555052585	 0.4071486931	 0.104195
H	 2.5601415767	-0.8171211025	 0.0119897016	 0.092428
H	 2.064176794	 0.923607479	 1.6925868136	 0.283141
H	-0.7258459593	-2.0486959541	 1.5464751088	 0.085152
H	 0.0458072925	-2.8773879332	 3.8191553269	 0.109422
H	 1.3293564361	-1.5647438436	 3.8304936711	 0.123072
H	-0.3155422129	 0.0181666645	 3.5611749119	 0.237719
