16
gdb 82289	2.5349	1.86568	1.23142	4.3195	70.99	-0.2503	-0.0632	0.1871	986.8508	0.125907	-437.885493	-437.878223	-437.877279	-437.917116	28.66	
O	-0.1626750207	 1.4500322768	-0.1065674204	-0.442103
C	-0.0905288436	 0.0521480894	-0.0576243282	 0.062229
C	-1.4610356627	-0.5803732483	-0.0337580475	-0.072946
N	-2.1144392321	-0.7653022907	-1.3266916489	-0.316951
C	-1.6059549776	-1.9589960886	-0.5878256092	-0.103922
C	-0.4206033004	-2.6128475324	-1.1917318852	-0.002908
C	 0.6813631792	-1.9209209157	-1.5126056546	-0.173849
C	 0.7724585121	-0.482959193	-1.2122477089	 0.347874
O	 1.5295225962	 0.2823940894	-1.779391976	-0.358178
H	 0.5281591731	 1.7108310877	-0.737675511	 0.293763
H	 0.4330108384	-0.2778055294	 0.8620813838	 0.0891
H	-2.0744690167	-0.3099716257	 0.8222988915	 0.102535
H	-3.1244551971	-0.7022184301	-1.2201442889	 0.241028
H	-2.3415838283	-2.6163270028	-0.1351049408	 0.097619
H	-0.4884802615	-3.6743978131	-1.4139179275	 0.116127
H	 1.5160977818	-2.3678963735	-2.0416466782	 0.120581
