18
gdb 61663	4.0763	0.8455	0.73562	3.6012	73.15	-0.2603	0.0099	0.2702	1495.7903	0.145881	-439.058325	-439.048988	-439.048044	-439.093892	32.589	
C	 0.0622289876	 1.5173644982	 0.1065137965	-0.400193
C	 0.0000345658	-0.0106461339	-0.0286359457	-0.019331
O	 0.6311167559	-0.6965156859	 1.0388382324	-0.253657
C	 2.0363579601	-0.7076552136	 0.9961642993	 0.090332
C	 2.8211798274	 0.3450424797	 1.8180913106	-0.096877
O	 3.5389916929	-0.6963058601	 2.5078826618	-0.269596
C	 2.6719970045	-1.7152397034	 1.9664962569	-0.103083
C	-1.3983977157	-0.4724911254	-0.0651761818	 0.280097
N	-2.5022526606	-0.8060759472	-0.121383709	-0.31043
H	 1.1012968639	 1.8539592481	 0.0629997014	 0.133172
H	-0.4876100033	 1.993425433	-0.709797781	 0.144138
H	-0.375721863	 1.8290799812	 1.057341963	 0.15082
H	 0.463418587	-0.3073938303	-0.9837785127	 0.121566
H	 2.390802918	-0.8053987566	-0.0382673208	 0.086388
H	 3.4928091854	 1.0206829614	 1.2760837826	 0.105619
H	 2.1753490932	 0.9234682446	 2.491803779	 0.108172
H	 1.9520962726	-2.0904912403	 2.7049142934	 0.119575
H	 3.2307791881	-2.5516265695	 1.5347358941	 0.113289
