20
gdb 36825	4.5265	0.62336	0.58454	1.3831	90.31	-0.2316	0.0476	0.2792	1947.8171	0.171133	-365.942519	-365.933145	-365.932201	-365.978709	33.906	
C	 0.3131539499	 1.4330508086	-0.794962902	-0.390791
C	 0.0731430366	 0.0055139486	-0.5989218406	 0.051476
C	-0.103151857	-1.1737203718	-0.4201688411	 0.099743
C	-0.3147575233	-2.5772803555	-0.2136461753	-0.155298
C	 0.1671145035	-3.2437999325	 1.0659568367	-0.251759
C	-1.3034679965	-3.0594967786	 0.8369451087	-0.25209
C	 1.406904248	 1.9874080787	 0.1063787215	 0.052305
C	 1.3392002599	 3.3935822997	 0.5705785165	-0.249332
N	 1.1292249729	 2.2813283214	 1.5171416681	-0.307197
H	 0.5851714558	 1.6182588014	-1.8433927631	 0.132957
H	-0.6132791651	 1.9992109076	-0.6203583709	 0.116596
H	-0.2518280627	-3.1865553005	-1.1108686913	 0.107588
H	 0.585902762	-4.2400229356	 0.9788955816	 0.117249
H	 0.6530808424	-2.6087029972	 1.7967762764	 0.130146
H	-1.817925894	-2.3001067145	 1.4134771525	 0.124271
H	-1.9044041532	-3.9278225065	 0.5911791361	 0.116983
H	 2.3841677053	 1.5375226468	-0.054398109	 0.100932
H	 2.2487390186	 3.9657966944	 0.7294232518	 0.1192
H	 0.4815029623	 3.9875770029	 0.2629110185	 0.108178
H	 0.1349478644	 2.1663742327	 1.7019941448	 0.22884
