19
gdb 96978	3.31896	1.26149	1.05132	3.1968	79.09	-0.2131	0.0571	0.2702	1207.5551	0.159047	-419.212096	-419.203248	-419.202303	-419.24562	33.211	
C	 0.1666535445	 1.4543766322	 0.0913537242	-0.325043
N	 0.1483134824	 0.0036878929	 0.0575239552	-0.361915
C	 0.4962165834	-0.5922004482	-0.9954300846	 0.461254
N	 0.531056454	-1.9779375689	-1.1550514533	-0.356829
C	 0.6700038299	-2.3051161491	-2.5418117327	-0.069327
C	-0.3211823757	-1.6860830475	-3.5248512836	-0.364177
C	 0.978918033	-0.9915399493	-3.1949249871	 0.415208
C	 2.0603994733	-0.7126592733	-4.1953620952	-0.467903
O	 0.9046863998	-0.0050853837	-2.1730080397	-0.283631
H	 0.1550455726	 1.9229014697	-0.9008845018	 0.114384
H	-0.7012015455	 1.8111276423	 0.6564539675	 0.114297
H	 1.0594292256	 1.8124967103	 0.620918883	 0.117599
H	-0.1118451731	-2.4897795428	-0.5696631156	 0.255085
H	 1.1975576282	-3.2212941166	-2.7820418636	 0.109875
H	-0.3955539293	-2.1408819758	-4.5071836602	 0.119094
H	-1.2447571391	-1.2744783501	-3.1316704266	 0.127187
H	 2.1158457378	-1.5199426355	-4.9304893137	 0.123739
H	 1.859479059	 0.2213027575	-4.7298166074	 0.135967
H	 3.0319048991	-0.623380144	-3.700037575	 0.135136
