27
gdb 121350	2.99478	0.85964	0.74788	0.1014	95.58	-0.2906	0.0766	0.3672	1699.9359	0.25322	-353.586585	-353.576058	-353.575114	-353.622464	39.543	
C	 0.0972191781	 1.5300284516	 0.4664470007	-0.380006
C	-0.0266853847	 0.0370446192	 0.1503881959	-0.167897
C	 0.7691921333	-0.3832144348	-1.092423801	-0.197681
C	 0.692920995	-1.8818663793	-1.398210892	 0.053881
C	-0.713207386	-2.3997890539	-1.7937842899	-0.207567
C	-0.4739579976	-3.6792273802	-2.6448404477	-0.208507
C	 1.0644450575	-3.8187255985	-2.7659714828	-0.208991
C	 1.6165689259	-2.3979266428	-2.5323324651	-0.002014
C	 1.5799831233	-1.548871153	-3.8114573961	-0.391699
H	 1.1411250641	 1.8117286292	 0.6448675278	 0.111802
H	-0.2710083261	 2.1427950842	-0.364103441	 0.112195
H	-0.477194824	 1.8000457204	 1.3583445614	 0.108896
H	 0.3165592117	-0.5495111503	 1.0133696491	 0.091498
H	-1.0844278764	-0.2190652029	 0.0118092934	 0.098178
H	 0.4089104804	 0.1897474683	-1.9575802423	 0.09127
H	 1.8211102331	-0.0955287959	-0.9529847554	 0.08522
H	 0.9992131224	-2.4193557445	-0.4883335541	 0.061641
H	-1.3335056796	-2.5981942272	-0.9156327749	 0.094873
H	-1.2423937448	-1.6392924033	-2.3798149859	 0.092739
H	-0.9208658974	-4.5671373397	-2.189150921	 0.093838
H	-0.9339953524	-3.5757647953	-3.6321525204	 0.097942
H	 1.4407559615	-4.486763482	-1.982676887	 0.090544
H	 1.3768869001	-4.2435962378	-3.7250954185	 0.086313
H	 2.6551883806	-2.4378943307	-2.182289241	 0.058678
H	 0.5649187719	-1.4536101941	-4.2127467569	 0.113039
H	 1.9624618101	-0.5384100854	-3.6389853429	 0.113592
H	 2.19790375	-2.0072053215	-4.5908334223	 0.108221
