22
gdb 98458	2.38381	1.19583	0.93628	2.3181	83.08	-0.2438	-0.0181	0.2257	1377.8415	0.192456	-404.351853	-404.341522	-404.340578	-404.387539	37.713	
C	-1.9705713099	 1.8864347933	-0.3027450663	-0.377787
C	-1.2993865422	 0.5478726742	-0.6092772501	-0.314513
C	-1.7336179007	-0.5621221074	 0.3489027595	 0.346532
O	-2.2934293974	-0.2965437905	 1.3916874046	-0.321303
C	-1.4240176994	-1.9994124271	 0.0045717827	 0.229122
C	-1.4583961087	-2.9728200824	 1.1693484735	-0.230725
C	-0.2866275723	-2.7803106538	 2.1378237841	-0.387445
C	-1.8485582609	-2.4618830479	-1.3600644561	-0.280643
N	-0.4318836476	-2.315016718	-1.0469223527	-0.347153
H	-1.5840580066	 2.6708987103	-0.9590189215	 0.110221
H	-3.0531308821	 1.8217288372	-0.4436778979	 0.127399
H	-1.7943696125	 2.1748684147	 0.7352423434	 0.141642
H	-1.4760743249	 0.2531605845	-1.6506049764	 0.115111
H	-0.2076325208	 0.6423391322	-0.5107006991	 0.132211
H	-2.4078124618	-2.8460985158	 1.6977926445	 0.116159
H	-1.4367480581	-3.989053766	 0.7625911573	 0.096901
H	-0.3171925018	-3.5268735597	 2.9369926761	 0.111153
H	 0.6677541071	-2.8856466421	 1.6123969055	 0.122648
H	-0.3204805475	-1.79154391	 2.6039207183	 0.129156
H	-2.1992650159	-3.4851826277	-1.4629401872	 0.129794
H	-2.3233582822	-1.7524315729	-2.0325360879	 0.118177
H	-0.060445474	-1.4690363851	-1.4700286542	 0.233342
