21
gdb 104861	2.28072	1.3638	1.11371	2.341	74.8	-0.2412	0.0609	0.3022	1211.5396	0.179615	-461.325634	-461.315205	-461.314261	-461.36107	37.235	
C	-0.2020683287	 1.3031903632	-0.2264822686	-0.248046
O	 0.3573607413	-0.0009898932	-0.2405033902	-0.298372
C	 0.865236978	-0.4891724019	 0.9746864148	 0.349365
C	 2.1632400803	 0.1858043928	 1.4089963036	-0.135261
O	 1.8754515737	 1.4909218984	 1.8952918595	-0.423787
C	-0.1299598385	-0.7148961428	 2.1401179631	-0.128282
O	 0.2234476169	-2.112016049	 2.2087857192	-0.296913
C	 0.984320829	-2.0395702823	 0.9762330759	 0.087947
C	 0.3261550312	-2.7915901438	-0.163628234	-0.392732
H	 0.5541312842	 2.0760064022	-0.0604228235	 0.127466
H	-0.6683716749	 1.4461339737	-1.2045621222	 0.119716
H	-0.9737748462	 1.4052501408	 0.5492464126	 0.108697
H	 2.6289993076	-0.4285600795	 2.1938913847	 0.100136
H	 2.8450274819	 0.2159083516	 0.5450903872	 0.096587
H	 2.6975120752	 1.8901363073	 2.1945111994	 0.291794
H	 0.0777560336	-0.183560567	 3.0736005453	 0.111459
H	-1.1805578536	-0.5694176405	 1.8586916673	 0.097669
H	 2.0054666498	-2.4121990989	 1.135832604	 0.069315
H	-0.6774656524	-2.4102522028	-0.36199621	 0.125569
H	 0.9160213171	-2.6917463874	-1.0800749898	 0.119196
H	 0.2588554745	-3.8529615308	 0.0943938417	 0.118475
