23
gdb 94552	2.55298	1.3255	1.14358	1.6891	84.9	-0.2592	0.0786	0.3377	1223.1506	0.204869	-388.26863	-388.259129	-388.258185	-388.302545	36.55	
C	-0.8783854411	 1.1496397273	 0.1921069824	-0.398644
C	-0.2522528957	-0.2440897462	 0.1747413087	 0.000027
C	 0.7362633766	-0.461942283	-1.009776649	-0.229379
C	 1.9235271771	-0.2159807436	-0.0428847977	-0.248659
C	 0.9638710256	-0.4783219442	 1.146335989	-0.027075
C	 1.1000494514	 0.3276239647	 2.4191868266	 0.395774
C	 0.0705523635	 0.0471430796	 3.4940470806	-0.466545
C	 2.4180980068	 0.8506355547	 2.8142286937	-0.232154
O	 1.4328135395	 1.7176037223	 2.2463068767	-0.272954
H	-0.1202755639	 1.9353998235	 0.1365248487	 0.136227
H	-1.5537924179	 1.2649780844	-0.6631409097	 0.106416
H	-1.4627808212	 1.3257974014	 1.1008305561	 0.113356
H	-1.0418931818	-0.9976321073	 0.2566501891	 0.061432
H	 0.7148100422	-1.4894981545	-1.383525962	 0.095381
H	 0.6354926395	 0.21823684	-1.859956006	 0.094632
H	 2.797804371	-0.8646583469	-0.1372056375	 0.090557
H	 2.2513211724	 0.8266105786	-0.0569088786	 0.119437
H	 0.9921545936	-1.5398150609	 1.4214317969	 0.069534
H	 0.1560232389	-0.9865095037	 3.8469453864	 0.119407
H	 0.209670029	 0.719002053	 4.3446370174	 0.125792
H	-0.9456271501	 0.1850218265	 3.1119593744	 0.129116
H	 2.6362356426	 1.0208384996	 3.8681762822	 0.107088
H	 3.2885474021	 0.6617238148	 2.1878605919	 0.111233
