14
gdb 80092	2.53857	1.8605	1.48201	3.5929	62.62	-0.2628	-0.0248	0.2381	895.5488	0.101674	-473.843082	-473.835846	-473.834902	-473.874884	27.184	
O	-0.1129110238	 1.3936087629	-0.1617696558	-0.405194
C	-0.0755908329	 0.0152175876	-0.0160739476	 0.086831
C	-0.4712454334	-0.6187840125	 1.2945333922	-0.067534
N	-0.8357187071	 0.2464603431	 2.35892042	-0.246798
C	-1.8661277311	 0.9629013172	 2.2175693561	 0.137247
O	-2.7720045265	 0.9619268624	 1.1941228191	-0.208738
C	-2.6634071756	 0.0584211579	 0.1454330418	 0.465688
O	-3.5930500744	-0.0638216196	-0.5951265893	-0.315611
C	-1.4015353576	-0.7105725336	 0.0707991284	-0.26027
H	 0.5186060248	 1.7823193821	 0.4546991406	 0.303081
H	 0.6924975471	-0.4980624189	-0.5928606396	 0.116206
H	 0.0606864544	-1.5113536225	 1.6044893351	 0.117811
H	-2.1668812983	 1.6814084717	 2.974472666	 0.146137
H	-1.5009412856	-1.6378263778	-0.4793327969	 0.131143
