21
gdb 38218	3.03996	1.69942	1.348	0.0896	87.32	-0.2387	0.0319	0.2706	1021.5839	0.186258	-349.918001	-349.911128	-349.910184	-349.948902	29.602	
C	-0.0463533076	 1.5837916364	 0.1746802894	-0.25637
C	 1.4607551306	 1.2349875418	 0.0463048932	-0.082745
C	 1.1830994033	 0.0477149706	 1.0272154503	-0.293816
C	 0.0149360965	 0.0305701899	 0.0006094022	 0.367062
C	-1.1391977049	-0.8926381078	-0.2814384035	-0.410064
C	-1.5182629657	-0.7654032715	-1.7445053306	-0.043668
C	-0.8213022125	-0.1065911676	-2.6758337193	-0.041907
C	 0.4841228742	 0.6347170766	-2.458056587	-0.328901
C	 1.0824370019	 0.25039996	-1.1057591566	 0.031369
H	-0.3802445299	 1.9437592813	 1.1524158958	 0.08262
H	-0.5048943094	 2.1639203898	-0.6275307616	 0.094963
H	 2.3034417171	 1.9273275442	 0.0861587533	 0.06577
H	 1.8803275909	-0.7949557619	 0.9879759616	 0.085631
H	 0.9381432868	 0.3183824098	 2.0584314258	 0.085073
H	-0.8690810067	-1.9357505569	-0.059811336	 0.108819
H	-2.0077507589	-0.6687204243	 0.3523055279	 0.10441
H	-2.4411901588	-1.2597312508	-2.0400438411	 0.081568
H	-1.2116237662	-0.0864695948	-3.6915813985	 0.080467
H	 1.1789442223	 0.3901535134	-3.2710028054	 0.100135
H	 0.3088237335	 1.7151915653	-2.5497610904	 0.110018
H	 1.7760441235	-0.5910900835	-1.2152801495	 0.059564
