20
gdb 19584	3.96671	1.92233	1.776	0.1042	77.68	-0.2476	0.1012	0.3488	854.9411	0.179978	-311.829298	-311.822722	-311.821778	-311.859449	27.966	
C	-0.086593268	 1.5976972376	 0.0134099221	-0.440192
C	-0.0109185629	 0.0732683892	 0.0124049519	 0.058594
C	 1.0650732472	-0.5934477255	-0.8989409098	-0.04493
C	 2.0866436816	-0.2843445234	 0.2525309202	-0.22158
C	 0.8298190921	-0.6064632974	 1.1366431998	-0.044905
C	 0.6952220444	-2.1175716442	 0.8463769506	-0.029577
C	-0.398698045	-2.6462647415	-0.049809306	-0.318536
C	 0.8700248495	-2.1079002561	-0.6661156984	-0.029571
H	 0.8815968892	 2.0908287062	 0.1275542369	 0.117615
H	-0.5286819431	 1.9550605497	-0.9235321961	 0.113676
H	-0.729838305	 1.9439608626	 0.8303276993	 0.113678
H	-1.0310789993	-0.2959722305	-0.1078385505	 0.058427
H	 1.2264553117	-0.2595991937	-1.9252485653	 0.053029
H	 2.9438700859	-0.9567154748	 0.3472941613	 0.085266
H	 2.4231281878	 0.7523265157	 0.2980633406	 0.091562
H	 0.7523725606	-0.285816872	 2.1768338268	 0.053024
H	 1.235370881	-2.808442686	 1.4842205844	 0.082773
H	-0.4873274486	-3.7288421865	-0.0669740966	 0.104238
H	-1.3541186716	-2.1473315759	-0.1570427157	 0.114637
H	 1.5424259823	-2.7914551234	-1.1726112356	 0.082773
