18
gdb 126899	3.23774	1.03594	0.79933	5.4487	78.37	-0.2103	-0.0073	0.203	1431.8519	0.145827	-435.256429	-435.24671	-435.245766	-435.292137	33.844	
C	-0.1687073068	 1.4875956026	-0.0061649521	-0.402855
C	 0.1435093526	-0.0022314763	-0.087434482	-0.122073
N	 0.6406738386	-0.4890107275	 1.1974469846	-0.399198
C	 0.8134840275	-1.8120768022	 1.4483180652	 0.450702
C	 1.4780330755	-2.4552835131	 2.4801686108	 0.13813
C	 2.2503333103	-1.8986703471	 3.6286750928	-0.519591
N	 1.2837309821	-3.7864943263	 2.2616858016	-0.138466
N	 0.602141783	-4.0373199877	 1.2469378458	-0.063626
O	 0.2559377056	-2.6983509585	 0.6469477753	-0.246244
H	 0.7291150374	 2.0692370695	 0.2329994987	 0.119519
H	-0.547058867	 1.8464476071	-0.9667725228	 0.133152
H	-0.9218320761	 1.6891200923	 0.760939687	 0.134833
H	-0.7581039769	-0.5708034003	-0.3302879338	 0.142917
H	 0.8682166005	-0.1971046166	-0.8916921432	 0.115183
H	 1.2710932112	 0.1243284694	 1.6915311674	 0.251405
H	 1.6248057192	-1.300022033	 4.3023531233	 0.129725
H	 2.6723958658	-2.7210191776	 4.2100146912	 0.155035
H	 3.0835543776	-1.2634077348	 3.3016359401	 0.121453
