14
gdb 27393	2.0153	1.87826	0.97339	7.1395	67.95	-0.2213	0.0039	0.2252	1112.084	0.102825	-470.075554	-470.067765	-470.066821	-470.107671	29.926	
N	 0.0750919313	 1.3464591592	 0.1305416921	-0.571315
C	-0.0128349033	-0.0276267814	 0.0300093194	 0.463972
N	-1.1555346598	-0.617937154	 0.0230543318	-0.372272
C	-1.2198651306	-2.029100549	 0.0105010137	 0.381974
O	-2.2900604237	-2.6055240456	 0.0268771958	-0.377383
C	 0.0612113256	-2.7464262246	-0.03725835	-0.402479
C	 1.2173929385	-2.0567394918	-0.0324990362	 0.485389
O	 2.4790800494	-2.5359898486	-0.0471341951	-0.423142
N	 1.203294311	-0.6813997065	-0.0123344482	-0.401268
H	 0.8107828374	 1.7947865905	-0.3969777076	 0.253808
H	-0.8277531335	 1.7833700209	 0.0087609087	 0.27465
H	 0.0455625054	-3.8282907342	-0.0711803986	 0.100949
H	 2.4433856231	-3.4990400782	-0.0337647279	 0.31745
H	 2.0707207692	-0.1964806968	 0.1573994721	 0.269667
