20
gdb 48363	3.35135	1.13263	0.99186	3.2605	80.21	-0.2171	-0.0195	0.1976	1256.2231	0.170204	-403.11651	-403.107709	-403.106764	-403.150407	32.857	
O	 0.1972017446	-0.2386898391	 0.2996242999	-0.275147
C	 0.4055145571	 0.6974279922	-0.4345437318	 0.122454
C	 1.1828770183	 1.9182058092	-0.0601127975	 0.228313
C	 1.2656109383	 2.2154271919	 1.4400359611	-0.290452
C	 2.4487937379	 1.6390681264	 0.7379080087	-0.287147
N	 1.1509102483	 2.9435741236	-1.0560814912	-0.140201
C	 2.1914162787	 3.9757549423	-1.2131306792	-0.168424
C	 1.0928366822	 4.9468969375	-1.7124759693	-0.232805
C	 0.0823764275	 3.9656467781	-1.0720952995	-0.172373
H	 0.033293665	 0.7200258112	-1.4822877805	 0.077767
H	 1.2992180633	 3.2611603011	 1.7255929531	 0.116935
H	 0.6899586482	 1.5644408999	 2.0878110427	 0.139899
H	 2.6821139217	 0.5934211644	 0.9029011336	 0.138505
H	 3.3014053081	 2.2806224164	 0.5452442971	 0.124778
H	 2.63322294	 4.3210103587	-0.2644613138	 0.089626
H	 3.00278828	 3.7103540772	-1.8989497267	 0.106352
H	 1.1160194725	 5.9640536133	-1.3217392981	 0.107856
H	 1.020567492	 4.9738740602	-2.800760958	 0.117224
H	-0.8089754669	 3.6924428981	-1.6462095338	 0.10597
H	-0.229787997	 4.2819133774	-0.063986257	 0.090871
