17
gdb 71554	2.63601	1.47849	1.37238	2.3417	73.62	-0.2332	-0.0341	0.1991	1023.4267	0.133763	-421.748098	-421.740069	-421.739125	-421.780775	30.311	
C	-0.0329541045	 1.4397654847	-0.0949733714	-0.52353
C	-0.0102125832	-0.0512708965	-0.0112878392	 0.418994
O	 0.5536014662	-0.8229597492	-1.1183031972	-0.352954
C	 0.1184149749	-1.8253888171	-0.1597745332	 0.040363
C	 0.5308171807	-1.0131985308	 1.1017547127	-0.136998
C	-0.8605459932	-1.171300406	 1.7557044276	-0.334072
C	-1.197520717	-1.0762117799	 0.2579113536	 0.189611
C	-2.4949844524	-1.1130294051	-0.4559546028	 0.019356
O	-3.5708096586	-1.1827855456	 0.0891781331	-0.253646
H	 0.9881632622	 1.827358923	-0.1640027068	 0.142909
H	-0.5885399698	 1.7699619047	-0.977415593	 0.142747
H	-0.5070093961	 1.8634312688	 0.7955025939	 0.138651
H	 0.2547002038	-2.8791985322	-0.4003844501	 0.107155
H	 1.5206600554	-0.9818816909	 1.557339308	 0.089442
H	-1.0680425929	-2.129969166	 2.2362788457	 0.112486
H	-1.2051913523	-0.3479261035	 2.3852958651	 0.112709
H	-2.4072993631	-1.0649058886	-1.564168476	 0.086778
