18
gdb 47161	2.33404	1.94002	1.10183	3.4133	80.34	-0.2083	-0.0014	0.2069	1082.9771	0.150024	-401.986222	-401.978592	-401.977648	-402.018486	29.324	
O	 0.0908162084	-0.047779719	 0.0561566119	-0.366922
C	 0.0139779067	 1.1610965424	 0.1340480405	 0.375095
C	-1.2995579826	 1.9537096025	 0.1650943353	-0.323509
C	-1.2255086117	 3.3676834268	 0.7882350513	-0.266919
C	 0.0045391195	 4.133414459	 0.3403737178	-0.274007
C	 1.0750684323	 3.4001810214	 0.0594225163	 0.418905
C	 2.5409832023	 3.4454948555	-0.344417013	-0.380055
C	 2.5089381187	 1.8770409238	-0.268186077	-0.170121
N	 1.0979367886	 1.995064306	 0.1218059635	-0.115158
H	-1.6062328548	 2.0358486348	-0.887044289	 0.129514
H	-2.0506208812	 1.3360083382	 0.6622199328	 0.129165
H	-2.1393185672	 3.9139861027	 0.5325488768	 0.110064
H	-1.2243485487	 3.283201241	 1.8855960989	 0.11572
H	 0.0139991465	 5.215224424	 0.3134778435	 0.094791
H	 2.7355525935	 3.8480442458	-1.3406396054	 0.131975
H	 3.2083475952	 3.9294142049	 0.3715198455	 0.131208
H	 2.6553676285	 1.3517703882	-1.2156216191	 0.131215
H	 3.1426736361	 1.4265243821	 0.4997677294	 0.129038
