21
gdb 119359	4.82204	0.83538	0.81448	2.047	80.69	-0.2535	0.082	0.3355	1493.886	0.181404	-424.166897	-424.157642	-424.156698	-424.20121	34.828	
C	-0.0263586376	 1.3232387079	-0.0035729442	-0.217345
O	 0.0018590753	-0.0831038669	 0.0062841984	-0.236744
C	 0.647217784	-0.6278771012	-1.1256736678	-0.207951
C	 0.6162596143	-2.1227525438	-1.02350663	 0.34989
C	-0.6476872244	-3.0361898656	-0.951091271	-0.281691
C	 0.5703261302	-3.9832534373	-0.9026390465	 0.391421
O	 0.4525590602	-5.3569627234	-0.8172775297	-0.46797
C	 1.2072461653	-3.1327385538	-2.0500894004	-0.340449
C	 1.2303501679	-2.9977786177	 0.1107087452	-0.315981
H	 0.9879761451	 1.7538528155	-0.0084400038	 0.101974
H	-0.5672883641	 1.7164032319	-0.8793905357	 0.102585
H	-0.5422766449	 1.6472044907	 0.9036240132	 0.126732
H	 0.1433221448	-0.3005096797	-2.0523076253	 0.085793
H	 1.6914064695	-0.2723747294	-1.1835215055	 0.084342
H	-1.2489588181	-2.9610065825	-0.0427255809	 0.101259
H	-1.2675952364	-3.0835851999	-1.850756495	 0.088529
H	 1.3364884942	-5.735679382	-0.7623320982	 0.281054
H	 0.7182070043	-3.1838318818	-3.0269132829	 0.091756
H	 2.2981276121	-3.1558338623	-2.1387135315	 0.082064
H	 2.3232378088	-3.0113913316	 0.1752928218	 0.078922
H	 0.7636671896	-2.9154930873	 1.0945591099	 0.101811
