19
gdb 50781	7.47747	0.48019	0.46747	2.8536	86.51	-0.2453	-0.0265	0.2188	2297.9799	0.156749	-385.858587	-385.848551	-385.847607	-385.896614	34.53	
O	-0.4288847766	 0.5394184071	 0.7376310918	-0.232137
C	 0.0683215793	 1.0010189607	-0.252925624	 0.17341
C	 1.3764231712	 1.7952720729	-0.2570224936	-0.41293
C	 1.3450419733	 2.9034519375	-1.2006219366	 0.046252
C	 1.2595202332	 3.8065119174	-1.9930017799	 0.083691
C	 1.1993370441	 4.9199502373	-2.9375828483	-0.376736
C	 2.5431394504	 5.6060100222	-3.1408822359	 0.045243
C	 3.5209203807	 5.0720237987	-4.1523822242	-0.247358
C	 2.8046185908	 6.3770998395	-4.4079919668	-0.277874
H	-0.387790598	 0.8703476717	-1.2584099254	 0.091765
H	 1.5799199973	 2.1206177663	 0.7685379002	 0.152032
H	 2.172988415	 1.085056203	-0.5291772197	 0.152493
H	 0.8305873417	 4.557248063	-3.9064967496	 0.124137
H	 0.4592503784	 5.6533414308	-2.5897427432	 0.130919
H	 2.9692061359	 6.0127943108	-2.2286942194	 0.093838
H	 4.5782021516	 5.1006464045	-3.9142479278	 0.114025
H	 3.2224158545	 4.2076751921	-4.7367554582	 0.113569
H	 2.0273719222	 6.388248898	-5.1655731757	 0.111329
H	 3.369782895	 7.3000993066	-4.3424491539	 0.114335
