14
gdb 129675	3.27082	1.41323	1.00818	4.5868	69.38	-0.2015	-0.0152	0.1863	1089.345	0.102205	-466.169579	-466.161838	-466.160894	-466.201978	29.087	
N	-0.6104323858	 0.5827124484	-1.1584594356	-0.592721
C	-0.2183591666	-0.359963671	-0.2680000244	 0.408481
C	-0.9210815854	-1.2121472363	 0.5660947483	 0.254164
N	-2.2880141139	-1.4250231881	 0.7836155655	-0.387687
C	-3.310602833	-1.2080412304	-0.0842820617	 0.089424
N	-3.162267665	-0.6905442484	-1.2483862738	-0.48624
N	-0.0063560209	-1.8939214041	 1.3012995701	-0.174512
N	 1.1745982738	-1.5619691939	 1.0134719789	-0.047197
O	 1.0754033009	-0.5558006054	-0.0382539603	-0.217321
H	 0.0894206757	 0.8490089995	-1.8353755379	 0.26255
H	-1.5519088284	 0.3889732483	-1.517128394	 0.282378
H	-2.5005677892	-1.8914229949	 1.6506222673	 0.270446
H	-4.2715751911	-1.5182254014	 0.3376409577	 0.107272
H	-4.0568511411	-0.6092792823	-1.7210712099	 0.230962
