20
gdb 19839	3.12632	2.35037	1.69217	0.2818	76.79	-0.2377	0.0792	0.3168	847.0506	0.180925	-311.857118	-311.850577	-311.849633	-311.887277	27.806	
C	-0.0138714352	 1.5383514497	-0.0946222589	-0.306386
C	 1.3076326211	 0.8112189041	-0.0092896394	-0.010871
C	 2.1505646898	 0.8452172796	 1.2625813133	-0.242531
C	 2.1365804549	-0.5014356263	 2.0137124302	-0.205513
C	 0.7362881314	-1.0202078934	 2.2966416676	-0.005941
C	-0.3783942029	-0.0718338333	 2.664071033	-0.30879
C	-0.3566769265	-0.7086323257	 1.2925707438	-0.024271
C	 0.0061722987	 0.0356521383	 0.033368831	-0.012717
H	-0.3260817524	 2.1201020158	 0.7670324891	 0.107622
H	-0.3095213249	 1.9657901426	-1.0468285284	 0.104334
H	 1.8744600082	 0.7385613542	-0.9324067548	 0.07818
H	 3.1842203738	 1.1030699338	 1.0116902388	 0.096655
H	 1.8032246706	 1.6398007735	 1.9328778668	 0.100388
H	 2.6702351388	-1.2507071365	 1.4129491748	 0.093847
H	 2.6958309941	-0.400150634	 2.9521597342	 0.092605
H	 0.7077423427	-2.0015290461	 2.7620390117	 0.075085
H	-1.1355603282	-0.4150312475	 3.3608282627	 0.104594
H	-0.155733425	 0.9851129841	 2.7565023642	 0.108272
H	-1.1017808545	-1.4827511816	 1.1374971873	 0.078031
H	-0.2457108945	-0.5125668714	-0.8696343169	 0.077407
