19
gdb 4113	3.16374	1.50454	1.18561	0.9309	75.38	-0.2388	0.0107	0.2495	1075.2289	0.163753	-365.019468	-365.010568	-365.009624	-365.05294	32.926	
C	-0.3263732963	 1.4876963986	-0.0727785992	-0.393591
C	 0.0196143397	 0.003783449	-0.0269292222	 0.000124
C	 1.2502168137	-0.3831239606	-0.9157607524	-0.331598
C	 2.0441977605	-0.5439820591	 0.3624235101	 0.41117
N	 3.2688853402	-0.5756017289	 0.6815095716	-0.244735
O	 4.0917028539	-0.5462823136	-0.4639830996	-0.395331
C	 0.815805257	-0.4842144021	 1.2489611383	-0.064799
C	 0.8583096825	 0.3483503778	 2.5238812451	-0.406047
H	 0.5607055702	 2.1127053652	 0.0790692204	 0.121215
H	-0.7501038055	 1.7511446605	-1.0477947927	 0.115939
H	-1.0598767246	 1.7564752032	 0.6943996647	 0.11645
H	-0.8767017705	-0.5898777972	-0.2247358164	 0.069394
H	 1.1301733852	-1.320222422	-1.468677924	 0.119931
H	 1.6184177233	 0.3790604731	-1.6083596141	 0.122805
H	 4.9736145427	-0.5532880252	-0.0771886526	 0.304346
H	 0.4963449713	-1.5053480631	 1.4955745344	 0.091429
H	 1.1753394425	 1.375732426	 2.3254079072	 0.120384
H	-0.1243563987	 0.3794318159	 3.0063535175	 0.112221
H	 1.569839703	-0.0842504275	 3.2332589639	 0.130694
