15
gdb 55413	2.47428	1.6349	1.15642	1.6016	61.62	-0.259	-0.0425	0.2165	1046.2328	0.111266	-494.950729	-494.942382	-494.941438	-494.984402	29.228	
C	 0.0234810342	 1.4436728456	 0.0477927889	-0.495924
C	 0.0102643078	-0.0651127143	 0.0358638145	 0.362358
O	-0.0688206927	-0.7616890894	 1.0156448846	-0.283003
C	 0.0705567343	-0.7156665415	-1.3678624414	-0.149875
O	 0.3787892343	-2.0864113552	-1.3280649355	-0.229295
C	-0.8425227068	-2.7858717578	-1.3590984967	 0.023454
O	-1.7954541771	-1.9331362021	-2.0041970187	-0.213637
C	-1.3264788518	-0.6649915797	-2.0030926677	 0.423432
O	-1.9301446962	 0.283000895	-2.4088703461	-0.328058
H	 1.0109740688	 1.8050500344	-0.2634240396	 0.148812
H	-0.7024346777	 1.8273495399	-0.6773796488	 0.175037
H	-0.1985760812	 1.8125651717	 1.0494442278	 0.151285
H	 0.7885772024	-0.1898449685	-2.0043041138	 0.138024
H	-0.7238942275	-3.6943729953	-1.9540806769	 0.138363
H	-1.2052312307	-3.0124960129	-0.3497554007	 0.139026
