20
gdb 116667	2.144	0.96494	0.6963	2.5297	86.29	-0.2486	0.019	0.2677	1660.8707	0.167019	-403.108995	-403.097946	-403.097002	-403.146269	38.084	
C	-0.398414179	 1.3235184294	-0.6409964991	-0.386648
C	-0.3033431117	-0.0525506157	 0.0186563335	-0.158017
C	 0.817964644	-0.1356268607	 1.0846746172	-0.112852
N	 0.5660365741	 0.8550597071	 2.1277955524	-0.244361
C	 0.5311353449	 0.5094330136	 3.337841207	 0.13398
O	 0.2858623079	 1.4313237337	 4.288961463	-0.196451
C	 0.2654472647	 0.9396953194	 5.6241373239	-0.250825
C	 0.9902381572	-1.5230153422	 1.5389081706	 0.306276
C	 1.1162420144	-2.6587775772	 1.91553628	-0.468217
H	 0.5301978505	 1.5737254818	-1.1666444253	 0.109876
H	-1.2110570371	 1.3440892614	-1.3735571054	 0.10719
H	-0.580674393	 2.1001258254	 0.1046522466	 0.143989
H	-1.2506619785	-0.3112103533	 0.5051308877	 0.105579
H	-0.1109070601	-0.825439191	-0.7334767793	 0.103413
H	 1.7526157104	 0.1701036027	 0.590866683	 0.114762
H	 0.6896133554	-0.5101215233	 3.7111252857	 0.093609
H	-0.5213122978	 0.1885521609	 5.7641191325	 0.128472
H	 1.2323312422	 0.5069909812	 5.9081648187	 0.128505
H	 0.0570743748	 1.7980786199	 6.2637811834	 0.145627
H	 1.2371923669	-3.6660697629	 2.2299747343	 0.196092
