15
gdb 44213	4.19706	1.19693	1.13916	3.5704	65.99	-0.2535	-0.0016	0.2518	1073.5596	0.112227	-457.729323	-457.722098	-457.721153	-457.761505	27.146	
O	 0.1464245335	 0.0667278205	-0.1059017757	-0.322936
C	 0.1533302928	 1.2521257747	-0.0626741085	 0.475602
O	-0.9560905036	 2.1042531742	-0.1100702337	-0.258767
C	-0.1034205305	 3.2559763719	 0.1077902894	-0.025037
C	 1.1387156878	 2.3750554039	 0.0542203109	-0.373632
C	 0.7957037802	 3.3949024241	-1.0544441559	 0.461095
C	 0.5791954936	 3.2487619279	-2.5547341989	-0.358131
C	 1.5138227224	 4.4779737941	-2.6302214918	-0.083447
O	 1.6408074105	 4.5169127403	-1.1796229246	-0.311608
H	-0.4205794104	 4.0073209485	 0.8171356035	 0.138205
H	 2.0807945931	 2.4038537665	 0.5809745147	 0.138565
H	 0.9695873306	 2.3321948014	-2.9970986782	 0.137401
H	-0.4463626741	 3.4108184538	-2.8866799094	 0.137914
H	 2.4843693735	 4.3145230406	-3.1075724371	 0.122458
H	 1.0641899106	 5.3996024476	-3.0109532048	 0.122317
