14
gdb 23216	3.0429	1.53007	1.19325	2.7791	67.13	-0.2338	-0.0682	0.1657	1001.5855	0.100904	-473.751365	-473.744214	-473.743269	-473.783079	27.348	
O	-0.0731285155	 1.293048662	 0.0289778081	-0.353398
N	 0.0171870984	-0.0880932086	-0.0200465958	-0.263638
C	-1.1183308753	-0.6594572298	-0.0061965829	 0.355848
C	-1.3446818025	-2.1534490229	 0.0044377223	-0.015827
C	-2.4558312656	-2.3581759485	-1.0563533264	-0.252545
C	-3.2329760518	-1.5857979225	 0.0355102409	-0.045359
O	-2.3869058108	-2.2335775826	 1.0461831179	-0.290819
C	-2.5664000554	-0.1899374531	 0.0118258892	 0.382408
O	-3.053619508	 0.9042600096	 0.0131105809	-0.30683
H	 0.8526294085	 1.5637292321	 0.0186649593	 0.316732
H	-0.4942279575	-2.8159458159	 0.1446987829	 0.110102
H	-2.33156748	-1.9112023051	-2.0457785628	 0.122282
H	-2.7768473647	-3.3992138458	-1.1170763877	 0.130961
H	-4.3046434098	-1.6482593888	 0.208307284	 0.110081
