14
gdb 398	5.65815	3.06401	2.39381	0.7654	59.61	-0.24	0.0571	0.2972	582.3195	0.118255	-233.255259	-233.2487	-233.247756	-233.284774	24.638	
C	-0.0333215906	 1.5095986406	 0.0044678337	-0.455691
C	 0.0076471221	-0.0115406183	 0.0025013757	 0.185076
C	 1.3455677023	-0.6978502185	-0.2344265144	-0.286768
C	 0.7362752626	-0.7160589193	 1.1382805503	-0.286773
C	-1.167638917	-0.6516202755	-0.5277413733	 0.278002
C	-2.1602411397	-1.1641168621	-0.9748808684	-0.477123
H	 0.892653475	 1.917869051	 0.4211621977	 0.112602
H	-0.1514453456	 1.8987431651	-1.0115833086	 0.127965
H	-0.8701014063	 1.8773132974	 0.6064073627	 0.12797
H	 1.3429614218	-1.6168029619	-0.8080379138	 0.125866
H	 2.2007847337	-0.0544302493	-0.4118030466	 0.116223
H	 1.1722120988	-0.085212754	 1.905642475	 0.116229
H	 0.3182271879	-1.6474336545	 1.5006147378	 0.125865
H	-3.033244285	-1.6222598108	-1.3684188279	 0.190557
