21
gdb 100322	1.83463	1.61573	1.0828	1.6569	74.46	-0.2497	0.0667	0.3165	1212.6785	0.178701	-461.314966	-461.304227	-461.303283	-461.350882	38.214	
C	-0.0546108454	 1.291782496	 0.3216598646	-0.246562
O	-0.0283668912	-0.0819701465	-0.0017390489	-0.28405
C	 0.6914620176	-0.4803979537	-1.1750523315	 0.308362
C	 2.1490111472	-0.0153908201	-1.1859835715	-0.447412
C	 0.632055771	-2.0142252894	-1.0685685956	-0.114251
O	 1.2589154556	-2.5757555235	-2.2059329258	-0.412418
C	-0.0914791007	-0.0363415749	-2.4119358917	 0.090699
C	 0.0764831871	 1.2549522737	-3.0976471669	-0.200273
O	 0.5905765228	 0.0510565379	-3.6602570852	-0.223109
H	 0.9451232915	 1.6929320727	 0.5356644388	 0.109385
H	-0.5147388379	 1.9028640314	-0.4658307051	 0.110614
H	-0.6614218973	 1.3802534091	 1.2265116475	 0.127389
H	 2.6309105147	-0.3104649983	-0.2491403008	 0.116151
H	 2.6691917088	-0.4907573814	-2.0182907509	 0.159371
H	 2.2490701896	 1.0672148072	-1.2931373239	 0.111563
H	 1.1291359912	-2.310277369	-0.1329168339	 0.090903
H	-0.4249474534	-2.3099027269	-0.9926212845	 0.092495
H	 1.1822125707	-3.5320412532	-2.1512264008	 0.292194
H	-1.0771694889	-0.5016554434	-2.4762190749	 0.090129
H	-0.775108946	 1.6920537274	-3.6184793124	 0.114261
H	 0.824512343	 1.9697307647	-2.7611015665	 0.114559
