21
gdb 39444	2.3916	1.86064	1.28889	1.9145	81.26	-0.2518	0.0797	0.3315	1054.2186	0.185274	-387.083371	-387.075939	-387.074994	-387.114896	30.781	
C	 0.0579854665	 1.5623132693	-0.1328845418	-0.238859
C	 1.6125899906	 1.4858210708	-0.0048207734	-0.325566
C	 1.3858224979	 0.1410461187	 0.6754928478	 0.460002
O	 2.2878463316	-0.9147465165	 0.9215593343	-0.312417
C	 1.6780994699	-0.2530300625	 2.0549268509	-0.059712
C	 0.6052696899	-1.008029476	 2.825589427	-0.224778
C	-0.7983876829	-0.4819907352	 2.4641635295	-0.203693
C	-1.0915576422	-0.6326575571	 0.9628155235	-0.228961
C	-0.0156097158	 0.0133397101	 0.0803331846	-0.053041
H	-0.3895492728	 2.1124237656	 0.6993962053	 0.104333
H	-0.3462781197	 1.947075864	-1.0704565719	 0.101831
H	 2.0916120556	 1.3703700654	-0.9819810783	 0.111425
H	 2.1283468172	 2.2684716151	 0.5563807436	 0.102138
H	 2.3841152077	 0.3431139211	 2.6323861471	 0.090344
H	 0.6807253214	-2.0731556442	 2.5775021829	 0.114792
H	 0.7794836372	-0.9157796399	 3.9023507354	 0.096378
H	-1.558975285	-1.0164768261	 3.0435044988	 0.095
H	-0.871260843	 0.5736143077	 2.7588167521	 0.095961
H	-1.1485111649	-1.7031871003	 0.7271139249	 0.101582
H	-2.0750656417	-0.2122862092	 0.7210896566	 0.095447
H	 0.0284179225	-0.4803663707	-0.896782599	 0.077793
