15
gdb 31939	4.68996	0.95892	0.80024	7.414	76.87	-0.2198	-0.0492	0.1705	1348.1813	0.112572	-453.974084	-453.965792	-453.964847	-454.007663	29.349	
C	 0.0071727677	 1.4378951763	 0.0453160055	-0.270561
O	 0.0068110381	 0.0182336021	-0.0006284931	-0.252571
C	 0.6074711235	-0.635695665	 1.0017972664	 0.420575
C	 0.7369643133	-2.0053803778	 1.1788376828	-0.18943
N	 1.4145595709	-2.2636321137	 2.3249161758	-0.264789
C	 1.7093733244	-1.092674796	 2.8643274481	 0.250614
N	 1.2244409944	-0.0586118735	 2.0710686087	-0.384791
C	 2.4271763378	-0.8051849351	 4.096201562	 0.087482
O	 2.890051925	-1.6207313854	 4.85882301	-0.264938
H	 1.0295533518	 1.8373875509	 0.0259795922	 0.132657
H	-0.5225969828	 1.7724647695	-0.846475029	 0.159756
H	-0.5187927424	 1.8083665647	 0.9348895567	 0.132657
H	 0.3689785377	-2.7821602768	 0.5272782513	 0.126173
H	 1.3168314651	 0.9255707946	 2.2599107377	 0.273854
H	 2.5227115557	 0.2917957449	 4.2937837649	 0.043312
