14
gdb 24950	5.06423	1.30389	1.04361	4.5801	69.6	-0.1949	-0.0232	0.1717	1059.4189	0.102721	-436.739329	-436.732463	-436.731518	-436.770679	26.472	
O	 0.043225134	-0.0032128542	 0.0019343705	-0.388384
C	-0.0301933046	 1.1922445068	 0.0097930734	 0.448479
N	-1.150747438	 2.0098501059	 0.0301724743	-0.506086
C	-0.741785883	 3.339937637	 0.0319848096	 0.294927
C	 0.5987388479	 3.3231640356	 0.0131044588	 0.295556
C	 1.1609435752	 4.700772018	 0.0127216425	-0.407069
C	-0.129791641	 5.5164682965	 0.035249734	-0.088428
C	-1.219326297	 4.7156734108	 0.0462441271	-0.190501
O	 1.0842536052	 2.0449029531	-0.0010091045	-0.253412
H	-2.0780937221	 1.6244852831	 0.0408488048	 0.276509
H	 1.7883409804	 4.9206936517	 0.8859704397	 0.147146
H	 1.7635171534	 4.9302054882	-0.8754379449	 0.14715
H	-0.1327701221	 6.5970018208	 0.0412519802	 0.111632
H	-2.2522879781	 5.0342664867	 0.0625287245	 0.112482
