19
gdb 22194	1.64389	1.16617	0.69375	3.4519	79.48	-0.2637	-0.0042	0.2595	1596.0334	0.156683	-419.190551	-419.18018	-419.179236	-419.227085	36.406	
C	 0.2900113875	 1.5616893844	-0.1241745231	-0.390402
C	 0.0121193679	 0.0568072932	-0.0885088058	-0.170249
C	 0.932707914	-0.7196362009	-1.0331623912	-0.254196
C	 0.7234922394	-2.209293684	-1.0577920671	 0.338169
C	 1.5769481222	-3.095271534	-1.9573918216	-0.419177
C	 2.5685379433	-2.3825917335	-2.7547164596	 0.257025
N	 3.3567082598	-1.8252158815	-3.389513381	-0.312029
N	-0.1798100725	-2.7183117262	-0.3136036465	-0.154822
O	-0.2462509543	-4.113000706	-0.4536907891	-0.403358
H	 1.3207423821	 1.7849322074	 0.173064111	 0.117151
H	 0.1412193215	 1.9718667379	-1.1292592708	 0.117164
H	-0.3760544794	 2.1002835484	 0.5564218264	 0.114996
H	 0.1347285241	-0.3262210428	 0.9300800059	 0.111189
H	-1.0307312423	-0.1414555507	-0.3576263829	 0.111205
H	 0.8257275654	-0.3423576679	-2.060530887	 0.130358
H	 1.9851114719	-0.5263231032	-0.7795341081	 0.130302
H	 2.0809001382	-3.8485040494	-1.3401898873	 0.181926
H	 0.9184193594	-3.6660730104	-2.6228121278	 0.18195
H	-0.9554082681	-4.3475172807	 0.1541183856	 0.312799
