16
gdb 75874	2.26782	1.86562	1.05144	3.8811	73.41	-0.2457	-0.06	0.1857	1079.1574	0.125114	-437.963764	-437.955705	-437.954761	-437.996724	30.073	
C	-0.2900004894	 1.586536774	 0.0257198175	-0.387382
C	 0.1916238425	 0.1366571967	-0.0052138087	-0.262255
C	 0.8037125363	-0.2439738679	-1.3487654248	 0.42874
O	 0.5637884281	 0.3168763595	-2.392947063	-0.343095
N	 1.6406944018	-1.3575289384	-1.317095831	-0.35608
C	 2.1747161283	-1.8858819761	-0.1613725649	 0.046193
C	 1.8980486852	-1.4139954776	 1.0692131833	-0.23228
C	 1.0165520303	-0.2609999117	 1.2376371086	 0.372031
O	 0.8859045735	 0.3357066158	 2.2879409148	-0.339156
H	 0.5547799877	 2.2744217295	-0.0695631552	 0.129542
H	-0.9770407112	 1.7770620406	-0.7995315331	 0.133619
H	-0.7830500032	 1.787311075	 0.9771234745	 0.139117
H	-0.6866449999	-0.5313472363	 0.0639227528	 0.146704
H	 2.0056955213	-1.6417035437	-2.2148002625	 0.264411
H	 2.8633582674	-2.7082970068	-0.3212736414	 0.141327
H	 2.3758958113	-1.8316831326	 1.9452103531	 0.118564
