18
gdb 121679	7.05705	0.58033	0.54612	6.4475	75.28	-0.2723	-0.0359	0.2364	1977.446	0.143799	-439.101467	-439.091007	-439.090063	-439.13906	34.852	
C	 0.0387547153	 1.4695166884	 0.0520044227	-0.385765
C	-0.0102711986	-0.0428263369	-0.0688611665	-0.033837
O	-1.3611046911	-0.4568630687	 0.0608739304	-0.222257
C	-1.528474569	-1.8313994365	-0.0385581285	-0.153698
C	-3.0057719043	-2.1904896409	 0.0615381959	 0.360919
O	-3.8928187979	-1.3855964053	 0.0685027955	-0.242783
C	-3.2573876835	-3.7115380935	 0.1689643227	-0.461912
C	-4.6327869678	-4.0927034245	-0.1210090882	 0.287507
N	-5.7155409099	-4.4160004248	-0.3569060756	-0.291497
H	 1.0691899261	 1.8235988301	-0.0448274112	 0.118755
H	-0.566028023	 1.9354588314	-0.730465111	 0.136245
H	-0.3504612845	 1.7889675677	 1.02243807	 0.134195
H	 0.3911492023	-0.3709054684	-1.0422433876	 0.092143
H	 0.6062502605	-0.5179455402	 0.7125695661	 0.090641
H	-1.1557808737	-2.229946179	-1.0026939987	 0.114847
H	-0.9759008987	-2.3814209757	 0.7474804013	 0.106849
H	-2.5736597411	-4.2577568356	-0.4913063837	 0.167267
H	-3.003547011	-4.0190598377	 1.1920035366	 0.182382
