21
gdb 122252	2.75383	0.86101	0.72385	0.865	86.17	-0.242	0.0525	0.2945	1635.8083	0.179657	-387.033697	-387.023338	-387.022394	-387.069646	37.508	
C	 0.1248880074	 1.3266862748	-0.2136159823	-0.227318
O	 0.036271042	-0.0414900402	 0.0988927616	-0.230257
C	-1.2586029313	-0.5666890139	-0.0999055063	-0.049575
C	-1.2381393219	-2.0395910425	 0.2938505076	-0.289029
C	-2.5853834891	-2.7273339686	 0.1030607809	 0.161101
C	-2.9347970178	-3.2532697652	-1.2847952442	-0.288811
C	-2.5913659936	-4.2210294875	-0.1909519418	-0.306237
C	-3.6657273872	-2.2149121663	 0.9060962628	 0.291635
C	-4.5567646659	-1.7790648682	 1.587679212	-0.477873
H	 1.1544690473	 1.6410680489	-0.0248138967	 0.12483
H	-0.1175680752	 1.5227447157	-1.270707162	 0.101005
H	-0.5519218766	 1.9339289293	 0.4086108638	 0.103616
H	-1.9978681939	-0.0203021585	 0.5078342319	 0.100167
H	-1.5626612497	-0.4566257753	-1.1554474233	 0.082992
H	-0.4826486427	-2.5540563978	-0.3100965947	 0.103142
H	-0.9226392364	-2.1209198597	 1.3398190687	 0.115347
H	-3.9679249676	-3.1831921485	-1.6028108191	 0.126918
H	-2.2056837279	-3.0825994947	-2.0697193108	 0.119404
H	-1.6276058772	-4.717608055	-0.2220430681	 0.119914
H	-3.3915165605	-4.8091830822	 0.2419533271	 0.127498
H	-5.3458706222	-1.3971499648	 2.1864595629	 0.19153
