17
gdb 85117	1.73955	1.70902	1.2581	2.2136	70.01	-0.2468	-0.0488	0.1981	1091.2007	0.132009	-458.976714	-458.967046	-458.966101	-459.012154	33.998	
C	 0.0477196793	 1.6745382646	 0.1871075383	-0.44374
C	-0.0345436254	 0.1510421548	 0.0255289204	 0.026682
C	-1.4273880796	-0.3476573198	 0.3345508024	 0.115904
O	-2.0736110689	-1.0671003185	-0.385199163	-0.250951
C	 0.6327305724	-0.4531508169	-1.2618126733	 0.067854
O	 1.0805301442	 0.454122634	-2.240413782	-0.423418
C	 1.8030175754	-1.0196070826	-0.4198457194	-0.369755
C	 1.0690051565	-0.5857970554	 0.8496398108	 0.370938
O	 1.2396669674	-0.7426339214	 2.0215828577	-0.289758
H	 1.0652296544	 2.0315822009	 0.0148599258	 0.14327
H	-0.6070401815	 2.1776339276	-0.5313681272	 0.127049
H	-0.255547882	 1.9649465345	 1.1973459691	 0.139108
H	-1.8268330686	-0.002259265	 1.3133702631	 0.095834
H	-0.004010207	-1.2341942173	-1.6880449318	 0.106377
H	 0.3394483441	 0.67297771	-2.8139797057	 0.292494
H	 2.0310348389	-2.084431112	-0.5069554608	 0.141406
H	 2.7246743205	-0.4467501375	-0.5691293545	 0.150707
