23
gdb 88602	2.63523	1.04264	0.89166	1.8976	86.98	-0.2461	0.0801	0.3263	1450.7558	0.203744	-388.265005	-388.254582	-388.253637	-388.30119	38.11	
C	-1.9796161711	 1.3592008619	 2.0810318551	-0.418361
C	-1.7358133578	-0.1239927868	 2.1964882208	 0.070244
O	-0.8143578346	-0.7199108209	 1.2769753874	-0.270471
C	-0.4862793305	-0.7439256566	 2.677463939	 0.05627
C	 0.7229862179	 0.0212875351	 3.0981406922	-0.059928
C	 1.2367465582	-0.0009788652	 4.5295526767	-0.032433
C	 0.5490571901	-0.7637898743	 5.6441107934	-0.405645
C	 2.0360780922	-0.669801362	 3.433051916	-0.031483
C	 2.2295603248	-2.1689275472	 3.3401675104	-0.40756
H	-1.05026807	 1.9196839002	 1.9658470996	 0.127468
H	-2.6113014432	 1.5700891268	 1.2116050178	 0.127832
H	-2.501871907	 1.7284536152	 2.9705433844	 0.119907
H	-2.647849488	-0.7111625398	 2.3332249823	 0.081189
H	-0.5900517402	-1.7352053318	 3.1180781683	 0.080706
H	 0.8244600535	 0.9678169716	 2.5779809801	 0.08431
H	 1.6384279135	 0.9519669886	 4.8662810109	 0.083274
H	 0.1579783663	-1.7318507973	 5.322995201	 0.116755
H	 1.2451128631	-0.9513561863	 6.4692313993	 0.117553
H	-0.292739571	-0.1897621872	 6.0469121084	 0.118256
H	 2.9153146604	-0.1159632316	 3.1126046818	 0.08404
H	 1.3668705489	-2.7355051822	 3.697848164	 0.115816
H	 2.4122747643	-2.4730193053	 2.3039834388	 0.126783
H	 3.0930821602	-2.4829255651	 3.9369168624	 0.115478
