18
gdb 105927	3.39713	1.62168	1.42776	2.3678	74.01	-0.2127	0.0789	0.2916	963.2047	0.148369	-401.838601	-401.831432	-401.830488	-401.870305	28.359	
C	 0.2525970403	 1.2621583811	 0.2080487343	-0.260354
O	-0.2432613463	 0.0546584418	-0.3524331468	-0.289164
C	 0.594482084	-0.5248643191	-1.2642565685	 0.435537
C	 0.8125082994	-0.0012276258	-2.7126058902	-0.178634
C	 0.2270026839	-1.3647722554	-2.4357932215	-0.117162
N	 1.6347348421	-1.9454101933	-2.4371478963	-0.177443
C	 2.1946075953	-0.606966625	-2.9767041331	-0.002143
C	 3.0618978245	-0.4601154216	-1.7114483623	-0.25135
C	 1.9262601824	-1.2784035771	-1.0724149107	-0.087327
H	 1.1751933501	 1.0937454918	 0.7798783117	 0.117601
H	 0.4520089764	 2.0109658303	-0.5704424748	 0.112962
H	-0.5182913474	 1.6375528664	 0.8840033544	 0.132033
H	 0.3339822775	 0.8965120064	-3.082220958	 0.091556
H	-0.6754015509	-1.8739460511	-2.7487320462	 0.103041
H	 2.6176202408	-0.5893081219	-3.9819216517	 0.07829
H	 3.9809371685	-1.0466710872	-1.7919676841	 0.114665
H	 3.2774241047	 0.540458694	-1.3281192872	 0.0967
H	 2.0615086348	-1.9188727843	-0.200483999	 0.081192
