19
gdb 86938	2.60339	1.0919	1.01168	3.9289	73.36	-0.2628	0.001	0.2637	1274.2043	0.157339	-460.172516	-460.163101	-460.162157	-460.207702	34.062	
C	-0.6000787359	 1.2260484281	 0.0988463151	-0.413702
C	 0.036340983	-0.1410522369	-0.0770540408	-0.015764
C	 1.3825651447	-0.2826337553	-0.8695732141	 0.126213
O	 2.207604195	 0.8581174944	-0.8499574407	-0.432179
C	 1.7936407252	-1.3952244896	 0.141019175	-0.27003
C	 0.7366051099	-0.8425454126	 1.1224692913	 0.075672
O	 1.3640953724	 0.1263991919	 1.982889537	-0.201487
C	 1.0056480239	 0.1824717023	 3.2805891447	 0.170661
O	 1.4614697225	 0.9803132747	 4.0419193117	-0.273098
H	 0.1171271289	 1.9556699545	 0.4804762056	 0.131598
H	-0.9749896548	 1.5983505839	-0.8594717176	 0.126644
H	-1.4445766727	 1.1830349944	 0.7952494361	 0.114345
H	-0.686971049	-0.8510375197	-0.494611978	 0.083767
H	 1.2980197858	-0.5726966864	-1.9191114938	 0.086206
H	 2.364693741	 1.1029092156	 0.0702798451	 0.294087
H	 1.5361978477	-2.3984856328	-0.2078224619	 0.112784
H	 2.8293663994	-1.3822506804	 0.48665427	 0.11904
H	 0.1550388507	-1.5452706568	 1.7277212688	 0.083202
H	 0.2596599122	-0.5901224793	 3.5486755264	 0.08204
