25
gdb 118096	2.62412	1.02382	0.8442	1.0921	89.99	-0.2459	0.0853	0.3312	1530.1319	0.226423	-389.483203	-389.47219	-389.471246	-389.519512	40.805	
C	 0.0997847919	 1.4011353946	-0.2612424824	-0.385482
C	 0.0514192075	-0.0867583404	 0.0461819269	-0.034407
O	-1.2831684881	-0.5267724551	-0.1014398913	-0.26123
C	-1.4940632122	-1.920635767	 0.0936075336	 0.070564
C	-1.610009286	-2.2402348683	 1.5895529267	-0.402676
C	-2.737805529	-2.3320680133	-0.6948196777	 0.357587
C	-3.0552052023	-3.8152889026	-0.6400688837	-0.471984
C	-3.8931122284	-1.3636056576	-0.7659078083	-0.293368
C	-3.0348094193	-1.6106910196	-1.9862022197	-0.30797
H	 1.1212762762	 1.7792106729	-0.1571086829	 0.11339
H	-0.2405166371	 1.5942497295	-1.2826678949	 0.125557
H	-0.5471923874	 1.9552496853	 0.4247938889	 0.126186
H	 0.711001791	-0.6449932348	-0.6391358959	 0.086203
H	 0.4189830234	-0.2722288713	 1.0678454459	 0.08764
H	-0.6324473714	-2.4714242084	-0.3234586195	 0.060071
H	-1.6837346705	-3.3174295695	 1.7620627907	 0.116701
H	-0.7321701903	-1.8811718668	 2.1341935927	 0.112702
H	-2.4976526557	-1.7583533646	 2.0103512954	 0.123961
H	-3.3270246382	-4.1446219631	 0.3684630405	 0.116906
H	-3.8968924222	-4.0514610123	-1.297995648	 0.113893
H	-2.1999350698	-4.4185746188	-0.9694654893	 0.110839
H	-4.9000787608	-1.7678491037	-0.7486614431	 0.099115
H	-3.7773616475	-0.4061648287	-0.2722040202	 0.121756
H	-2.3670729025	-0.8127944489	-2.2850156113	 0.116006
H	-3.4524654713	-2.1915529973	-2.8021334431	 0.098041
