19
gdb 110703	2.47456	1.40322	1.21398	1.7816	76.13	-0.2308	0.0086	0.2393	1112.0069	0.1596	-423.00238	-422.99375	-422.992806	-423.035699	32.922	
O	-0.1378451857	 1.4071239711	-0.4263334436	-0.428503
C	 0.0316418156	 0.0978462278	 0.1148511506	-0.108066
C	-1.3136795161	-0.5762669772	 0.0670853487	 0.010358
C	-1.8808890727	-1.290713259	-1.1515622213	-0.098754
C	-0.8991199947	-1.7606914527	-2.1720948365	-0.070054
C	-0.0813440598	-2.6912668029	-1.6788132999	-0.123559
C	-0.4116754867	-3.0302420247	-0.2318297321	 0.064641
O	 0.6842935593	-2.8461720206	 0.6691687379	-0.427271
C	-1.5481745976	-2.0691833734	 0.1093589668	-0.093634
H	 0.700051394	 1.8704643371	-0.3371979917	 0.282119
H	 0.7811420051	-0.4737128457	-0.4424910616	 0.095432
H	 0.3693548072	 0.1414053535	 1.1613411352	 0.090233
H	-2.0653719971	-0.0115497374	 0.6139319032	 0.093088
H	-2.9017899582	-1.0732489594	-1.4444457063	 0.087219
H	-0.8522376166	-1.3461385173	-3.1730720412	 0.100813
H	 0.7517888905	-3.1499923517	-2.2017192879	 0.087346
H	-0.7713940483	-4.0690940841	-0.1483813386	 0.072593
H	 1.3762460316	-3.4682781056	 0.4220100106	 0.280763
H	-2.32797075	-2.4310398077	 0.7681988577	 0.085236
