16
gdb 69712	4.00275	1.36712	1.25548	5.8037	68.27	-0.2408	0.0125	0.2532	1016.3835	0.124481	-437.850907	-437.843619	-437.842675	-437.88251	28.411	
C	-0.1065602947	 1.5018010627	 0.004991055	-0.522155
C	 0.1182946294	 0.0230058175	 0.017573375	 0.328837
N	-0.7559571373	-0.915784537	 0.7522948823	-0.361095
C	 0.6955556896	-0.9128474644	 1.0327810357	-0.109234
C	 1.3585887547	-1.7748666632	-0.0716488332	-0.251887
C	 0.7810402209	-0.8127839789	-1.1207927021	 0.069328
O	-0.0227067739	-1.8779584166	-1.7004769743	-0.251351
C	 0.438462849	-2.7968705081	-0.7715430068	 0.468386
O	 0.1706517793	-3.949383058	-0.7018796057	-0.323329
H	 0.7745511429	 2.0329042252	-0.3704797962	 0.130928
H	-0.9549298812	 1.7632975764	-0.6379217695	 0.142469
H	-0.3185777227	 1.8759572778	 1.012254468	 0.125037
H	-1.2162931061	-0.3834401411	 1.4898751755	 0.234867
H	 1.0826609613	-0.7292460879	 2.0266863995	 0.106309
H	 2.4162300437	-2.0093277235	 0.0194678975	 0.112627
H	 1.3697499949	-0.279651851	-1.8652866508	 0.100262
