18
gdb 73211	2.44744	1.82451	1.44077	2.7224	71.72	-0.2447	0.0234	0.268	976.9285	0.14845	-439.081637	-439.073786	-439.072842	-439.11438	29.752	
C	-0.1612760221	 1.5538210314	 0.0366224809	-0.452398
C	 0.0298984178	 0.053352111	 0.0090416201	 0.33736
C	-1.1506579213	-0.8621595793	 0.4070526584	-0.107209
O	-0.3330118861	-1.5695372402	 1.3580445723	-0.290976
C	 0.7605538848	-0.6372431753	 1.1889291102	 0.069389
C	 2.0801008539	-1.3126294168	 0.8643310058	-0.186922
N	 2.2109333931	-1.7910255464	-0.5052724598	-0.260704
C	 1.4915000795	-1.258487715	-1.3930256541	 0.124073
O	 0.5439597266	-0.288657794	-1.285743672	-0.27592
H	 0.7999948666	 2.0659433166	-0.069819518	 0.13072
H	-0.8072061328	 1.8702798246	-0.7879288153	 0.134833
H	-0.6198951201	 1.8654513693	 0.9791112466	 0.124762
H	-1.9892323145	-0.341370558	 0.8873524008	 0.099789
H	-1.5248576082	-1.5101695671	-0.392189928	 0.114633
H	 0.8578787304	 0.0120971988	 2.0700181721	 0.072555
H	 2.9003439746	-0.6078357586	 1.0607175544	 0.115072
H	 2.2244600201	-2.1557424296	 1.5492193802	 0.126954
H	 1.5942949377	-1.5444635715	-2.4382882545	 0.12399
