18
gdb 56299	7.03719	0.52787	0.4956	2.5393	75.9	-0.251	0.0292	0.2802	2104.6681	0.143717	-439.070707	-439.059706	-439.058762	-439.109916	36.71	
N	-0.1182971097	 1.3271204398	-0.0273562531	-0.52643
C	 0.0562297504	-0.0257876138	 0.0140305854	 0.416198
O	 1.1584535389	-0.5401009313	 0.0426721545	-0.358266
C	-1.2368301784	-0.8341734988	 0.0147039652	-0.335772
C	-0.9660645328	-2.3305845188	-0.0061350135	-0.036402
O	-2.2189706632	-2.9888775746	 0.0077446679	-0.253235
C	-2.083325403	-4.3956582607	-0.0075597595	-0.206955
C	-3.3977692946	-5.0245968343	 0.0084395465	 0.279091
C	-4.4679856158	-5.5689157761	 0.0211690124	-0.415358
H	 0.697685364	 1.915288317	 0.0093676664	 0.261235
H	-1.0270551154	 1.7547997378	-0.0055228527	 0.259514
H	-1.8275746152	-0.5808483256	 0.9033728519	 0.132003
H	-1.8493772514	-0.5566460342	-0.8511731818	 0.130569
H	-0.3886452433	-2.6022089823	-0.9025942404	 0.106211
H	-0.3583111354	-2.6199456296	 0.8638303046	 0.108325
H	-1.5276709014	-4.7209308977	-0.9040402259	 0.119843
H	-1.4982044026	-4.7372662256	 0.8637145914	 0.120011
H	-5.416957561	-6.0452787712	 0.0325265707	 0.199416
