16
gdb 52042	2.623	1.03397	0.81273	0.8704	66.91	-0.2621	-0.0519	0.2103	1358.5924	0.121388	-475.059566	-475.049856	-475.048911	-475.096855	32.168	
O	 0.381697497	 0.6680319034	 1.099723054	-0.329783
C	 0.2006876408	 1.4195558147	 0.1628061574	 0.150211
N	 1.1110568682	 1.6592851613	-0.8181445566	-0.26326
C	 2.4442364948	 1.0964465633	-0.7580693915	-0.182556
C	 3.4182451	 1.9529651524	 0.0834758313	-0.198399
C	 4.7216616255	 1.2135398711	 0.3413608095	 0.14183
O	 5.808140391	 1.618124089	 0.016664781	-0.232323
C	 3.6694198185	 3.3215458409	-0.5261480027	 0.168699
O	 3.0745800635	 3.7402555623	-1.4886992956	-0.256546
H	-0.7414975608	 1.9785217729	 0.0046565175	 0.086318
H	 0.9661490055	 2.4279954785	-1.4542883612	 0.266348
H	 2.3619999924	 0.1012448549	-0.3148810111	 0.146845
H	 2.8299362109	 0.9993769575	-1.7758107806	 0.135339
H	 2.9519842848	 2.1005849113	 1.0717487012	 0.148584
H	 4.5962009148	 0.2359078705	 0.8570106873	 0.103953
H	 4.4423372434	 3.9307213659	-0.0182052299	 0.114739
