20
gdb 17518	4.36491	1.65724	1.54178	0.312	77.79	-0.2415	0.0819	0.3234	928.4846	0.17814	-311.825934	-311.818645	-311.817701	-311.85728	29.233	
C	 0.0347559295	 1.5383051751	 0.0281010179	-0.380979
C	 0.0248874187	 0.0047924361	-0.0149407287	-0.305943
C	-1.3674851117	-0.5762706005	 0.0024899752	 0.356253
C	-2.294072393	-0.4355019755	 1.2510523912	-0.267758
C	-2.9583285303	-1.7239929949	 0.7777786144	-0.06063
C	-2.9956266882	-1.6804014143	-0.7584843942	-0.060605
C	-2.3535740418	-0.3660899632	-1.1894624933	-0.267771
C	-1.7488712978	-2.1213065383	-0.0320609335	-0.145707
H	 1.0576672707	 1.9264782934	 0.0141649613	 0.111446
H	-0.4946655865	 1.9628122672	-0.8315297212	 0.120025
H	-0.4516780669	 1.9129621019	 0.9350050365	 0.120022
H	 0.5492388963	-0.3406147675	-0.915981976	 0.093887
H	 0.5918701069	-0.3901298397	 0.8386941843	 0.093884
H	-1.7365595017	-0.5937703222	 2.1798402145	 0.091569
H	-2.8980795178	 0.4761503806	 1.3356833165	 0.083682
H	-3.6252170407	-2.3749883095	 1.3287625217	 0.080281
H	-3.689300755	-2.3000573004	-1.3125255366	 0.080282
H	-2.9598084582	 0.5480093144	-1.1926234423	 0.0837
H	-1.8421535209	-0.4704804689	-2.1517836067	 0.091561
H	-1.1657573717	-3.030136954	-0.072012011	 0.082802
