20
gdb 95176	2.4261	1.64327	1.13583	3.0985	78.8	-0.2325	-0.0175	0.215	1123.8701	0.172746	-403.164067	-403.155843	-403.154898	-403.196963	32.107	
C	 0.0541180401	 1.5704978846	 0.0139059748	-0.402523
C	 0.0626508611	 0.0391697143	-0.0339768543	-0.080174
C	 0.7274812257	-0.5191972475	-1.3037870825	-0.216979
C	 0.7625717211	-2.052933288	-1.3262067538	-0.229443
C	 1.4511581496	-2.6061115379	-0.0948926784	-0.020866
N	 2.6011352534	-1.8352160855	 0.3790478692	-0.332536
C	 1.3520828895	-1.8581847485	 1.1921638864	-0.144707
C	 0.6082604365	-0.5550129473	 1.2707058473	 0.434244
O	 0.3886148077	-0.0442816287	 2.3469826402	-0.333606
H	 1.0744261769	 1.9649910463	-0.0396571906	 0.121837
H	-0.5111058369	 1.9805014484	-0.8284433169	 0.107907
H	-0.3939046929	 1.9197015054	 0.9458244863	 0.138976
H	-0.9860749445	-0.3054287309	-0.034427824	 0.102448
H	 0.184168591	-0.1508955563	-2.1806845937	 0.093932
H	 1.749831351	-0.1364120857	-1.3759242472	 0.12623
H	-0.2577960805	-2.4568091567	-1.3693782797	 0.100449
H	 1.2799891981	-2.4049995985	-2.2265135912	 0.103812
H	 1.5019895594	-3.6905353653	-0.0183887496	 0.089198
H	 3.2859421903	-2.440347936	 0.8238683133	 0.241337
H	 1.3749868633	-2.3992254963	 2.1336377443	 0.100464
