18
gdb 26663	2.22917	1.60487	0.94791	0.671	77.76	-0.1712	0.0426	0.2139	1228.4203	0.145701	-439.118219	-439.108098	-439.107154	-439.153018	35.992	
C	 0.158254012	 1.4800742612	-0.0157532578	-0.49253
C	-0.0528160824	 0.0101684632	-0.0369989216	 0.254671
C	-1.1476283533	-0.7950014295	 0.0277787967	 0.083203
C	-2.5893214079	-0.4170256993	 0.1523138687	-0.51242
C	-0.6417646992	-2.1459213376	-0.0310620646	 0.081018
O	-1.3519456134	-3.3203190943	 0.0949443643	-0.451567
C	 0.711529488	-2.0606482766	-0.1310910656	 0.283718
N	 1.7098068453	-3.0166441399	-0.2887576405	-0.602711
O	 1.091224311	-0.7597891663	-0.1379441551	-0.21372
H	 0.801614103	 1.7856816269	 0.8184335033	 0.131047
H	 0.6306468976	 1.8396039153	-0.9383566177	 0.132038
H	-0.7992020056	 1.9947671931	 0.0925709582	 0.12963
H	-3.1626495004	-0.6904887475	-0.7429461927	 0.117842
H	-3.0589723187	-0.930806858	 0.9987412615	 0.134372
H	-2.7135718794	 0.6586000815	 0.3012745659	 0.12456
H	-1.9258049995	-3.422519162	-0.6720312104	 0.295151
H	 1.324298355	-3.9422980689	-0.144184994	 0.255743
H	 2.4905951779	-2.8720082112	 0.3429745912	 0.249952
