15
gdb 2976	4.36561	1.96172	1.44958	4.6186	61.24	-0.2606	0.0246	0.2852	826.9051	0.125753	-304.688358	-304.680956	-304.680012	-304.719921	26.658	
N	 0.1136892365	 1.3583189527	 0.1788115507	-0.505287
C	-0.0639171707	-0.084930044	-0.0211315287	-0.145751
C	-1.5007076735	-0.4017235629	 0.0668050381	 0.301435
N	-2.6261338244	-0.6599114867	 0.1006118113	-0.319546
C	 0.5184201207	-0.6541022062	-1.3103614627	 0.026477
C	 1.988590991	-0.9870879287	-1.3620172497	-0.287592
C	 0.9609249172	-2.0914681258	-1.3770515917	-0.258575
H	 1.1029499315	 1.5732734912	 0.086657249	 0.23748
H	-0.3616930175	 1.865869687	-0.5627507383	 0.239194
H	 0.4231989359	-0.5908083948	 0.8239083259	 0.127581
H	 0.0754301213	-0.2353076964	-2.2098823331	 0.097678
H	 2.5315767581	-0.7702886427	-2.2748211082	 0.122466
H	 2.5735944936	-0.8546301233	-0.4567409385	 0.115675
H	 0.8544007235	-2.6964995339	-0.4826057997	 0.123715
H	 0.7948856768	-2.6344440455	-2.3000333243	 0.125049
