21
gdb 97559	2.49671	0.64063	0.53836	0.2221	97.47	-0.2382	0.0478	0.286	2156.2371	0.179047	-349.913893	-349.902093	-349.901149	-349.955096	39.626	
C	-0.5844260029	 1.3544636306	-0.0084911615	-0.363543
C	 0.2605459834	 0.0818439253	-0.200492491	-0.312968
C	 0.9171216061	-0.3603428413	 1.0258178181	 0.055913
C	 1.4558707952	-0.6985228414	 2.048203099	 0.095119
C	 2.0984827562	-1.1427875743	 3.2918928809	-0.324197
C	 1.8699021771	-2.6570226583	 3.5294583249	-0.372836
C	 3.5294730638	-0.8133736075	 3.3116116095	 0.117674
C	 4.7065575298	-0.5647469656	 3.3414258361	 0.035001
C	 6.1286815127	-0.2535467219	 3.3695743933	-0.496794
H	 0.0371023227	 2.1837719928	 0.3398718975	 0.12866
H	-1.0542304039	 1.647441313	-0.9522692629	 0.112494
H	-1.3718873248	 1.1899438297	 0.7320959494	 0.126205
H	-0.3761253711	-0.7254279877	-0.5851904246	 0.126328
H	 1.019037635	 0.2595894941	-0.9737888266	 0.128792
H	 1.6199720221	-0.6067786448	 4.1252815037	 0.127436
H	 2.3269742909	-3.2387548706	 2.7257674158	 0.132849
H	 2.3189708139	-2.9588260537	 4.4792419815	 0.121368
H	 0.7989661627	-2.8745566524	 3.5536579219	 0.121257
H	 6.7320751788	-1.1565189352	 3.5147324766	 0.146259
H	 6.451063851	 0.2122660715	 2.4317384394	 0.148691
H	 6.3696253813	 0.4396065575	 4.1832091692	 0.146292
