20
gdb 110566	3.24277	1.28126	1.08737	1.6461	79.6	-0.2176	0.0739	0.2915	1191.3809	0.168727	-403.035585	-403.026963	-403.026019	-403.068809	33.184	
C	 0.4501565078	 1.0982499197	 0.6928667998	-0.37529
C	-0.4540603465	 0.7167796553	-0.4774640941	-0.127537
N	 0.2788359894	-0.0849977719	-1.4571480554	-0.112586
C	-0.5097912109	-0.6972057838	-2.5628039426	-0.128534
C	 0.5198056806	-1.8494524641	-2.7099758521	 0.084049
O	-0.4603724527	-2.915692757	-2.7060754657	-0.354943
C	-1.0119266431	-1.9610010101	-1.7428778202	 0.458113
C	-2.3096603513	-2.3391178334	-1.0997469656	-0.532284
C	 0.4193555335	-1.5480000304	-1.1907545943	-0.132432
H	 0.7786534346	 0.2111020532	 1.2450544085	 0.114528
H	 1.3416951656	 1.6184031229	 0.3317211303	 0.127274
H	-0.0772606008	 1.7507587134	 1.3953749336	 0.111677
H	-1.360748871	 0.2168197252	-0.0960328869	 0.079999
H	-0.7908950775	 1.6249129228	-0.9929799465	 0.100743
H	-1.0211128382	-0.1219923066	-3.3368207062	 0.085678
H	 1.3967717234	-1.9241295108	-3.34945416	 0.102255
H	-2.1947053754	-3.279252818	-0.5506603875	 0.137764
H	-2.65289727	-1.5694858314	-0.4052332441	 0.135454
H	-3.0771884918	-2.4841539708	-1.8668679555	 0.138055
H	 0.9947349742	-1.9717026042	-0.3664459653	 0.088017
