14
gdb 130160	2.07565	1.88778	0.98965	1.6839	73.58	-0.2052	0.0205	0.2258	1104.5665	0.101299	-432.859407	-432.850876	-432.849932	-432.892139	32.229	
N	-0.0771063757	 1.3687855926	-0.0993909127	-0.597971
C	-0.0071171897	-0.0114554695	-0.0388892307	 0.289127
N	-1.0935315146	-0.7653005482	-0.0121761773	-0.314198
N	-0.607635606	-2.0553542665	-0.0316838489	-0.271392
C	 0.7296396201	-2.0993636718	-0.0576968553	 0.367606
O	 1.3815315258	-3.2705464947	-0.0729086238	-0.423334
C	 1.1974221258	-0.7884534023	-0.0627688594	-0.037176
C	 2.5440283281	-0.3882499353	-0.0875050501	 0.120976
C	 3.7089202598	-0.0698339144	-0.0976070107	-0.42359
H	 0.7025612172	 1.8376233191	 0.3393810737	 0.254542
H	-0.9676046842	 1.7323055622	 0.2111742461	 0.254002
H	-1.2451761442	-2.8315358548	-0.0234725968	 0.280487
H	 2.3279455817	-3.0779978849	-0.1001872088	 0.317233
H	 4.7291961058	 0.2215261684	-0.1253413752	 0.183689
