19
gdb 81673	3.34277	1.25734	1.16863	2.7254	74.11	-0.2393	-0.0211	0.2182	1108.1416	0.160114	-423.040888	-423.032979	-423.032035	-423.073446	31.253	
O	 0.2654116306	 1.2654227987	-0.2550561616	-0.453604
C	 0.0576698828	-0.109914316	-0.0281115459	 0.176227
C	 0.1973455594	-0.5832558853	 1.4511431994	-0.061901
C	-1.3313303007	-0.3247468538	 1.6084280316	-0.265606
C	-1.4305112515	-0.5649599732	 0.0719143645	-0.0619
C	-1.5265214103	-2.0661218476	-0.2091984361	-0.319281
C	-0.504463925	-2.8813690226	 0.5985950729	 0.391783
O	-0.467660606	-4.0860174376	 0.5391779232	-0.314131
C	 0.4707411804	-2.0885684438	 1.4830171711	-0.319281
H	-0.2615526287	 1.7696028695	 0.3735974564	 0.281031
H	 0.6803915356	-0.6214925078	-0.7698757818	 0.08079
H	 0.8923240595	-0.0230845897	 2.0817306678	 0.071009
H	-1.8959097314	-0.992988859	 2.2659172503	 0.100978
H	-1.5608033609	 0.7058426325	 1.8929387834	 0.095748
H	-2.1592454148	 0.0112091403	-0.5037619051	 0.071009
H	-2.5216505834	-2.4600157568	 0.0292899923	 0.130895
H	-1.3560238743	-2.2876211192	-1.2703278071	 0.132669
H	 1.4864988911	-2.3195683226	 1.1380503026	 0.132669
H	 0.3937063876	-2.4927796659	 2.4993784422	 0.130895
