20
gdb 119192	1.90571	1.20077	0.85215	4.5055	80.52	-0.2782	0.0319	0.31	1431.1152	0.169217	-403.153181	-403.143063	-403.142119	-403.188552	36.586	
C	-0.0110270538	 1.5996903739	 0.099167378	-0.382247
C	-0.0551230873	 0.0809376219	 0.2852345281	-0.17373
C	-1.3470040022	-0.5382409817	-0.2619673527	-0.258036
C	-1.4038861299	-2.05516251	-0.1106855726	 0.142585
C	-1.7848326445	-2.6614659907	 1.2437954664	-0.352506
C	-2.7418848959	-2.7500633818	 0.0916664185	 0.060168
O	-3.8668224775	-1.9310056541	 0.0498260386	-0.414856
C	-0.431329571	-2.7846610101	-0.8870977307	 0.252379
N	 0.3510620575	-3.3628963009	-1.513884277	-0.353065
H	 0.9158956668	 2.0207178088	 0.4998441969	 0.116131
H	-0.0686883395	 1.870229012	-0.9608139261	 0.119763
H	-0.8482086701	 2.0879083881	 0.6105454609	 0.113779
H	 0.8072313565	-0.3774907277	-0.2137040936	 0.119891
H	 0.0410264932	-0.1656357792	 1.3502929275	 0.096552
H	-2.219550283	-0.1167433083	 0.2446030378	 0.117701
H	-1.4562331278	-0.2876660009	-1.3241349536	 0.115528
H	-1.2734024485	-3.5582207968	 1.5728018425	 0.138097
H	-2.0137145591	-1.9419474257	 2.0227849565	 0.129058
H	-2.8561024993	-3.7184694794	-0.393087438	 0.11595
H	-4.4968615845	-2.2538223376	 0.7028222427	 0.296857
