21
gdb 101140	3.56346	0.84686	0.83744	1.5064	81.55	-0.2259	0.0213	0.2472	1487.0505	0.181604	-424.223823	-424.213915	-424.212971	-424.259455	35.364	
C	-0.0194732061	 1.5700832418	 0.0438766051	-0.397493
C	-0.01721374	 0.0300482981	 0.0616945289	-0.093003
C	 0.786146466	-0.503986433	 1.2574965634	-0.076542
O	 2.1256160286	-0.056789093	 1.1156650004	-0.420672
C	-1.407381769	-0.5440076621	 0.048119838	 0.321242
C	-1.9598536671	-1.3294746872	-0.8734484179	-0.233074
C	-3.37400357	-1.6661222088	-0.5027649234	-0.102611
O	-3.5996234857	-1.0049731802	 0.7400455035	-0.265886
C	-2.4332673186	-0.2905101324	 1.1317649295	-0.156983
H	 1.0064206363	 1.9437747982	 0.0400971572	 0.136586
H	-0.5371171901	 1.9487567788	-0.8420618396	 0.115576
H	-0.5232023134	 1.9762518217	 0.9279702187	 0.112493
H	 0.500763446	-0.3219950404	-0.8387015954	 0.087944
H	 0.3437631265	-0.1374573492	 2.1980959002	 0.086411
H	 0.7313545235	-1.6033788264	 1.2708976109	 0.090997
H	 2.6239009131	-0.3453415015	 1.8854631046	 0.288437
H	-1.4830499906	-1.6880329971	-1.7777497231	 0.097927
H	-4.1025235891	-1.3149056275	-1.2516640768	 0.102423
H	-3.5351264944	-2.7498489699	-0.3833156406	 0.101971
H	-2.097892242	-0.6442060328	 2.1203494921	 0.09977
H	-2.6708610439	 0.779642133	 1.2409690142	 0.104487
