18
gdb 54193	2.74459	1.48653	1.22546	2.0167	71.35	-0.2355	-0.0239	0.2116	1071.2568	0.14554	-439.049085	-439.040296	-439.039352	-439.082698	33.153	
C	 0.0932150754	 1.376165299	 0.5491033941	-0.475054
C	 0.0584734389	 0.0752424574	-0.2190615578	 0.363228
O	 1.025195299	-0.3687054071	-0.7988584865	-0.310374
C	-1.2520494508	-0.7132243013	-0.2126043711	 0.30114
O	-2.3087415998	 0.1922581457	 0.02404522	-0.488406
C	-1.5002934117	-1.7238349932	-1.3646398353	-0.229449
N	-1.6699130485	-2.8808460712	-0.4060710574	-0.131869
C	-0.3688921488	-3.0142423093	 0.2721733978	-0.24369
C	-1.2803893756	-1.9435380473	 0.7220412449	-0.12229
H	 1.1087540027	 1.7729738857	 0.5481822133	 0.135701
H	-0.5968061217	 2.0918587019	 0.0917501712	 0.159027
H	-0.2598060985	 1.2261136027	 1.5746185449	 0.142433
H	-3.1231212309	-0.3135637483	 0.1225450998	 0.288851
H	-2.4364256059	-1.5158752093	-1.8879204089	 0.111005
H	-0.6868655915	-1.8550547013	-2.0814893071	 0.12874
H	-0.3069036262	-3.9010836089	 0.8954396972	 0.124538
H	 0.5396012826	-2.753366458	-0.2626146133	 0.14776
H	-1.7856415689	-1.9441289472	 1.6843838639	 0.09871
