21
gdb 114109	3.03056	1.11722	0.95451	1.7748	78.36	-0.2434	0.0744	0.3178	1296.1103	0.181717	-424.190484	-424.18117	-424.180226	-424.224857	35.283	
O	-0.0367725479	 1.4139342083	-0.2563789871	-0.422717
C	 0.0638776384	 0.011595328	-0.0389014488	-0.10724
C	-1.3453899363	-0.5372434492	 0.0398278729	 0.058009
C	-2.224491857	-0.5443270553	-1.2484157253	-0.311292
C	-2.6888461093	-1.9963962337	-0.9074565857	 0.429985
O	-4.0351225647	-2.1579802531	-0.5593256088	-0.487815
C	-1.981024344	-3.1175544257	-1.7025201849	-0.288421
C	-0.7777285949	-3.0208404151	-0.7145036316	-0.235651
C	-1.5916934652	-2.0576710001	 0.2078922579	-0.103319
H	 0.8515834484	 1.7661020242	-0.3632293972	 0.285459
H	 0.6203125437	-0.4697096321	-0.8581379884	 0.080085
H	 0.602410671	-0.2108725838	 0.8977315079	 0.083483
H	-1.8693765277	 0.0014050034	 0.8357477102	 0.087462
H	-3.0304547903	 0.1924714049	-1.2606175855	 0.102015
H	-1.6581014884	-0.4613693999	-2.181262283	 0.092093
H	-4.5745638556	-1.9020172107	-1.31599303	 0.274501
H	-2.5219566682	-4.061830736	-1.5967369548	 0.103769
H	-1.7823345158	-2.936621405	-2.7636215965	 0.086371
H	-0.5050749207	-3.9658884456	-0.2410715911	 0.1056
H	 0.128709009	-2.5905570181	-1.1458289184	 0.099082
H	-1.8020431746	-2.4311498653	 1.2105181682	 0.06854
