18
gdb 71033	3.95971	1.64531	1.37548	0.7183	75.24	-0.2248	0.059	0.2838	963.3953	0.147914	-401.819788	-401.812813	-401.811869	-401.850652	28.886	
C	-0.0026975385	 1.4518018312	-0.1628211822	-0.532534
C	 0.0140641424	-0.0265124856	 0.0415488833	 0.396698
O	 0.6544400894	-0.8696600849	-1.0470755364	-0.426023
C	 0.2085187983	-1.8190765335	-0.0430878713	 0.473113
C	 0.1047201759	-3.2573698689	 0.3854264891	-0.372729
C	-0.6401017965	-2.8720084263	 1.7468812845	-0.152311
N	-0.775878633	-1.3566500259	 1.7637998469	-0.178056
C	 0.5499839025	-0.934861542	 1.1719678179	-0.125806
C	-1.0917309389	-1.0723784681	 0.3127707524	-0.125844
H	 1.0156225775	 1.8422200212	-0.2483954443	 0.137791
H	-0.5501016133	 1.7100843791	-1.0740641956	 0.137861
H	-0.4925445908	 1.9333758312	 0.6890299991	 0.139861
H	-0.5101258903	-3.8814393752	-0.2670144931	 0.115423
H	 1.0646455285	-3.7495324464	 0.5571744688	 0.115423
H	-1.6357276593	-3.3182617219	 1.803712858	 0.114454
H	-0.0692710074	-3.1870535696	 2.6235461548	 0.114456
H	 1.4810886746	-0.8804508692	 1.7368376267	 0.084109
H	-2.083136721	-1.179059415	-0.1285078385	 0.084114
