17
gdb 61801	2.50446	1.01831	0.76228	1.9836	66.97	-0.2834	-0.0525	0.2309	1428.2274	0.131975	-496.128492	-496.118618	-496.117674	-496.164357	34.054	
C	 0.0269379205	 1.6256270268	 0.0295275856	-0.399877
C	 0.0410929969	 0.1048561752	 0.006724938	 0.079922
O	 0.6696549253	-0.4103642678	 1.1983013193	-0.199899
C	 1.989665324	-0.6857102091	 1.1506725354	 0.16998
O	 2.5995691901	-1.075883939	 2.09871105	-0.267453
C	-1.3848451234	-0.4881231432	-0.0169765074	 0.035422
O	-2.0871747486	 0.0081354213	-1.1193339288	-0.431815
C	-1.357004174	-2.0079680218	-0.0556122595	 0.124901
O	-1.897911895	-2.6100603056	-0.9524408	-0.258167
H	 1.0460686112	 2.0213578106	-0.0088636244	 0.124381
H	-0.5318641787	 1.999351863	-0.8307655402	 0.155978
H	-0.449991674	 1.9854956102	 0.9461365242	 0.136801
H	 0.5830078175	-0.2577416371	-0.877262405	 0.102299
H	 2.4275211046	-0.5206159834	 0.1470264957	 0.085171
H	-1.8738423341	-0.19958794	 0.9306391196	 0.111836
H	-2.3762775057	-0.7759832527	-1.615480532	 0.299971
H	-0.8304084967	-2.5229679874	 0.7671289693	 0.130549
