23
gdb 117682	2.00586	1.35066	1.026	1.7988	81.38	-0.2429	0.0817	0.3246	1305.985	0.202803	-425.397235	-425.386324	-425.38538	-425.433687	39.791	
C	 1.4563738347	 0.8701529554	-0.6583046692	-0.232318
O	 0.6620451471	-0.0640124343	 0.0381340955	-0.236976
C	-0.2742051974	-0.7674669445	-0.7560187628	-0.086383
C	 0.1251247116	-2.239286682	-0.9907474489	 0.316332
C	 0.3062143751	-2.9415293836	 0.3600713612	-0.439862
O	-1.0189207215	-2.7718381354	-1.6748625422	-0.468942
C	 1.3294234887	-2.3347705825	-1.9196897728	-0.000784
C	 2.7571676911	-2.4566165208	-1.4554402461	-0.262657
C	 2.0910705165	-3.6262903106	-2.1341104221	-0.307549
H	 2.099536242	 0.3948916781	-1.4115096273	 0.108288
H	 0.8410704023	 1.6346849997	-1.1566526945	 0.105184
H	 2.0920289374	 1.3639276142	 0.0817852161	 0.123411
H	-1.2363097818	-0.7628088493	-0.2292278433	 0.10526
H	-0.4268908817	-0.278439161	-1.7272286269	 0.091064
H	-0.6515978681	-2.9369876195	 0.8872049972	 0.122561
H	 0.6146911851	-3.9852809812	 0.2433277153	 0.104057
H	 1.0410084113	-2.4208450091	 0.9782506665	 0.135466
H	-0.7572012966	-3.6215996243	-2.0445966929	 0.277837
H	 1.181047012	-1.7505444327	-2.8246977698	 0.084833
H	 3.5201952861	-1.9091359423	-1.9978172798	 0.110505
H	 2.9432715776	-2.5373853527	-0.391228335	 0.122019
H	 1.8497147267	-4.4880915377	-1.5212777945	 0.114823
H	 2.3874760419	-3.8757368939	-3.1469231436	 0.113832
