21
gdb 106781	1.95671	1.71252	1.17023	1.6507	79.61	-0.216	0.0758	0.2919	1165.9727	0.180267	-424.182312	-424.17261	-424.171666	-424.216518	36.552	
C	-1.005856955	-1.2723162279	-0.4347111457	-0.264507
O	 0.0800112704	-0.4502009662	-0.0486154422	-0.283551
C	 0.7396870081	-0.8096016171	 1.1054053991	 0.405957
C	 0.118686786	-1.3762423117	 2.3626880615	-0.431819
C	 1.2663151913	-2.1187260521	 1.693773901	 0.312015
O	 1.1334686504	-3.4186108291	 1.2310012979	-0.465497
C	 2.593808089	-1.4507893305	 2.0509180683	-0.303663
C	 2.0546173147	-0.1021853662	 1.4491107971	-0.038636
C	 2.8380197825	 0.4036885751	 0.2441306464	-0.403464
H	-1.8572704429	-1.1705483084	 0.2529680132	 0.11055
H	-1.3148875743	-0.9331412978	-1.425823851	 0.126732
H	-0.7136322125	-2.3281944331	-0.4850897026	 0.136104
H	 0.2305002207	-0.8879612684	 3.3310048125	 0.097327
H	-0.8397358839	-1.8640151061	 2.2132969745	 0.110694
H	 1.0155693647	-4.0023858254	 1.9895726846	 0.282841
H	 2.8705028181	-1.4448665307	 3.1115322511	 0.085329
H	 3.426330593	-1.8452359578	 1.4625458133	 0.10568
H	 1.9359953613	 0.6999236291	 2.1874057011	 0.06546
H	 2.9622326085	-0.3859752554	-0.5040968817	 0.120028
H	 2.3215631092	 1.2380302614	-0.238944198	 0.124573
H	 3.8329614007	 0.7442460082	 0.5498862494	 0.107848
