16
gdb 35204	3.68338	1.15522	1.06819	4.4386	74.23	-0.247	0.008	0.255	1137.5418	0.125306	-396.857546	-396.850044	-396.8491	-396.889797	28.669	
N	-0.0930196909	-1.1390029827	-0.0479348519	-0.332064
C	-0.0554246122	 0.016147061	-0.0110249579	 0.332864
C	 0.009958164	 1.4560235632	-0.0162219413	-0.289564
N	 0.584452739	 2.1007207907	 1.1912581368	-0.358189
C	 1.3246392428	 2.1710075603	-0.0488335686	 0.362801
C	 2.7674754008	 1.6835810298	-0.1852375729	-0.243301
N	 3.1609281085	 2.9692809061	-0.8789988185	-0.117978
C	 2.3466062359	 3.0278117134	-2.1024602657	-0.237632
C	 1.7047280747	 3.4070552864	-0.8238532526	-0.132124
H	-0.8266211575	 1.9392174414	-0.5143364064	 0.134619
H	 0.0872758674	 2.9686352398	 1.381854391	 0.247482
H	 3.2693737959	 1.6004015781	 0.7799318796	 0.139368
H	 2.9476852868	 0.7838288773	-0.7806345013	 0.128207
H	 2.641120635	 3.8311924922	-2.7707328341	 0.132267
H	 2.0599611289	 2.1019422357	-2.5971981365	 0.124735
H	 1.4140377511	 4.4235402174	-0.5750947096	 0.10851
