23
gdb 58203	2.67232	1.04022	0.89888	4.2814	86.63	-0.2256	0.0353	0.2608	1423.2968	0.203639	-384.473357	-384.462368	-384.461424	-384.509176	40.309	
C	-0.1927776574	 1.5258743884	-0.0672633111	-0.400258
C	 0.0731548563	 0.0084447253	-0.0205111804	 0.06603
C	 0.7985149294	-0.4640994163	-1.2872008449	-0.403994
N	 0.7764997572	-0.463763381	 1.1906489383	-0.075806
C	 2.1251688973	 0.0742856767	 1.3520772464	-0.350258
C	 0.0060235776	-0.3431936189	 2.4338920185	-0.075665
C	-1.4372193699	-0.8743329218	 2.3414582618	-0.418963
C	 0.6963668823	-1.0955732299	 3.5019059567	 0.291426
N	 1.2065826132	-1.6786860701	 4.3590585146	-0.335114
H	 0.7396367476	 2.0962399191	-0.1215852396	 0.122459
H	-0.7851581969	 1.7772564977	-0.9526684832	 0.118544
H	-0.7489737879	 1.873597249	 0.8095425424	 0.113387
H	-0.8943484644	-0.5003074016	-0.02031785	 0.088097
H	 1.7173908207	 0.0991010344	-1.4764114903	 0.119361
H	 1.051099476	-1.5249118436	-1.2100624814	 0.126665
H	 0.1496319635	-0.3233128596	-2.1569806134	 0.116037
H	 2.1478424231	 1.1547008846	 1.5794676356	 0.098229
H	 2.6310183814	-0.4482713349	 2.1677341527	 0.151087
H	 2.7062078104	-0.0959782947	 0.4448193323	 0.126462
H	-0.0417577063	 0.7049570676	 2.7908083905	 0.102539
H	-1.8710321986	-0.9173301583	 3.343007127	 0.140799
H	-2.0626753379	-0.2185945493	 1.733348897	 0.132576
H	-1.4467971866	-1.8804550029	 1.9148552306	 0.14636
