20
gdb 75576	2.53354	1.51351	1.09782	1.8268	82.51	-0.2343	0.0043	0.2386	1165.4458	0.171818	-403.146535	-403.137918	-403.136974	-403.179754	32.784	
C	 0.0548478972	 1.4797259457	 0.4502213899	-0.456227
C	-0.008718673	 0.0403164186	-0.0103767063	 0.311449
C	-1.178558503	-0.6100611571	 0.0230941954	-0.148927
C	-1.5197663389	-2.0234070333	-0.3892160356	-0.282649
C	-1.3002746118	-2.3214300249	-1.8795013022	-0.071037
O	 0.0344932008	-2.0031361606	-2.2927964456	-0.220121
C	 0.9891459858	-2.5309174654	-1.4685605121	 0.081097
N	 1.6325422613	-1.8752382311	-0.6101003405	-0.210064
C	 1.356836563	-0.4432447635	-0.4781209892	-0.237864
H	 0.7074239929	 1.5875191545	 1.3259831592	 0.125525
H	 0.4747561359	 2.1269778551	-0.3309221522	 0.122859
H	-0.9335573106	 1.8640578608	 0.7121216926	 0.119698
H	-2.0254983661	-0.0361703285	 0.3940766545	 0.076485
H	-0.9528080604	-2.7507320446	 0.2027107835	 0.128481
H	-2.5756322827	-2.2182518464	-0.1721944304	 0.100688
H	-1.5200584238	-3.3793926954	-2.0887927593	 0.097775
H	-1.9456359245	-1.7031374739	-2.5078921974	 0.12091
H	 1.1755712697	-3.6006049683	-1.6009065897	 0.107716
H	 1.5681580136	 0.0579529324	-1.4352052042	 0.126507
H	 2.0962817343	-0.0510089942	 0.2299263495	 0.1077
