16
gdb 67931	1.98627	1.88005	1.26229	4.809	70.29	-0.2453	-0.0461	0.1992	1034.6172	0.122899	-437.888933	-437.880596	-437.879652	-437.922066	30.622	
C	 0.0622672607	 1.5824867383	 0.0814060674	-0.482968
C	 0.1102833217	 0.085908491	 0.0403919509	 0.340108
N	-1.1268792293	-0.6956206625	-0.1580025047	-0.382289
C	-0.7271850539	-1.67217178	 0.7783924524	 0.442677
O	-1.2426787662	-2.6871059368	 1.1442383978	-0.333391
C	 0.5584557069	-0.9186076427	 1.0926768132	-0.304326
C	 1.3285476315	-0.7381182449	-0.2444055949	-0.16415
C	 1.41703877	-1.8206500664	-1.2741065234	 0.150831
O	 0.5698123642	-2.0693138996	-2.0969591616	-0.258026
H	 1.0091413287	 1.9928086105	 0.4442304046	 0.127068
H	-0.1186420109	 1.993263787	-0.9178210895	 0.137201
H	-0.7440500434	 1.9199021358	 0.7386941711	 0.141918
H	-1.4215553301	-0.9782992376	-1.0870027773	 0.256609
H	 1.0475481652	-0.7743988081	 2.0462062025	 0.122675
H	 2.2824623193	-0.2392137119	-0.0746447914	 0.116142
H	 2.3606876856	-2.407919242	-1.2328365672	 0.089922
