19
gdb 96510	2.36221	1.57713	1.09048	3.3037	71.63	-0.244	-0.0306	0.2134	1139.4166	0.159488	-460.16931	-460.160531	-460.159586	-460.203096	32.153	
C	 0.0157769603	 1.6223161733	-0.0141021261	-0.408334
C	-0.0149938239	 0.0926427298	 0.0417912832	-0.13021
C	 0.5207076617	-0.4975053433	-1.2849624853	-0.07025
O	 1.0062453724	-1.8302697711	-1.2250155144	-0.237438
C	 0.2650082804	-2.7672288984	-0.4946468916	 0.014324
O	 0.7232972867	-2.9035139402	 0.823682283	-0.226249
C	 0.3748458032	-1.8653535764	 1.722962324	-0.168424
C	 0.7602512462	-0.4512527813	 1.2475410267	 0.382271
O	 1.5858758729	 0.2015743054	 1.838701541	-0.295224
H	 1.0478735115	 1.9807513451	-0.0065537278	 0.143851
H	-0.4780128733	 1.9870706902	-0.9203101877	 0.114231
H	-0.4933463897	 2.0579549104	 0.8494264007	 0.125677
H	-1.0523599142	-0.2441494288	 0.1645462842	 0.090394
H	-0.2635265938	-0.411359781	-2.0518795826	 0.102342
H	 1.3770615677	 0.0973971728	-1.6165752664	 0.126895
H	-0.8137304161	-2.5329161765	-0.5179008307	 0.079328
H	 0.4422123375	-3.7394956373	-0.9602225509	 0.123546
H	-0.7108131533	-1.8786438691	 1.9235640819	 0.098396
H	 0.9110476037	-2.0671790236	 2.6514328588	 0.134876
