13
gdb 3301	6.21661	2.17813	1.95052	1.7893	59.01	-0.24	0.0194	0.2595	670.2103	0.100897	-307.229313	-307.22321	-307.222265	-307.259085	23.254	
C	-0.037738943	-1.2267226203	-0.0631990624	-0.448617
C	 0.0090392996	-0.0280909457	 0.0125216462	 0.343005
C	 0.066331043	 1.4219519532	 0.0844442686	-0.061315
O	-0.132580388	 1.9649421184	 1.4292969301	-0.291902
C	 1.0821685342	 2.7141024829	 1.3168138711	 0.10909
C	 2.2606807392	 1.8037238095	 1.18963385	-0.296982
C	 1.4244215856	 2.1287561208	-0.0301292407	-0.131987
H	-0.0802546615	-2.2861777928	-0.1263639848	 0.202994
H	-0.677330763	 1.8657552529	-0.5884415576	 0.112096
H	 1.0887482106	 3.7255221595	 1.7043390909	 0.108395
H	 3.2318683612	 2.2886640775	 1.202579206	 0.117321
H	 2.2260646557	 0.8142430209	 1.635665531	 0.130409
H	 1.8168386462	 2.5759392833	-0.9323946084	 0.107492
