15
gdb 42484	4.51757	0.75543	0.67403	4.3081	68.77	-0.2691	-0.0724	0.1967	1582.3147	0.112003	-453.939645	-453.930867	-453.929922	-453.974883	29.999	
O	-0.0397627238	-0.0826268786	 0.3403866531	-0.330043
C	 0.072033879	 1.0766139656	 0.0474027722	 0.36605
O	 1.2003896139	 1.7774194883	-0.0303289449	-0.226749
C	 2.414904464	 1.0417007417	 0.2908818179	-0.107237
C	 3.5649106507	 1.9966643763	 0.2012216926	 0.006997
C	 4.8858906583	 1.4770689904	-0.2386639968	-0.244449
N	 4.1181015546	 2.3819179598	-1.1029517213	-0.298803
C	-1.0757662395	 1.9304674067	-0.285895202	 0.258224
N	-2.0138661691	 2.5540720554	-0.5396028419	-0.30209
H	 2.3046947218	 0.6206613501	 1.2948313727	 0.144918
H	 2.5152512772	 0.212450994	-0.4172130245	 0.129277
H	 3.5340714576	 2.811064813	 0.9209932799	 0.113485
H	 5.7941292377	 1.8985082085	 0.1808095303	 0.133657
H	 4.9575869433	 0.4254990121	-0.5064231409	 0.120199
H	 3.6635536344	 1.8614882468	-1.8498928563	 0.236563
