16
gdb 10793	4.13764	1.59221	1.24766	0.0007	64.7	-0.2504	-0.0345	0.2159	940.964	0.131106	-383.795287	-383.787978	-383.787034	-383.827385	26.991	
O	 0.0038462729	-0.0929302132	 0.0498048458	-0.296872
C	-0.0133119099	 1.1138524326	 0.0120861252	 0.386599
C	-1.308283766	 1.9187490034	 0.0081587475	-0.305557
C	-1.338089976	 2.959040174	-1.1351533725	-0.30556
C	-0.0664542424	 3.7994108087	-1.1735064205	 0.386647
O	-0.083624829	 5.0061669643	-1.2120831271	-0.29692
C	 1.2284474503	 2.9944454029	-1.1699963113	-0.30556
C	 1.2583859529	 1.9541536212	-0.0266879964	-0.305557
H	-2.1523071351	 1.2288774296	-0.0545356109	 0.130195
H	-1.3761886725	 2.4445650568	 0.9704535573	 0.130481
H	-1.417265125	 2.4311748051	-2.0954660202	 0.130514
H	-2.1988776799	 3.6253311906	-1.0495420182	 0.130198
H	 1.2960580729	 2.4686069461	-2.1323027012	 0.130514
H	 2.0725375993	 3.6842555379	-1.1075282102	 0.130198
H	 1.3378595875	 2.482000897	 0.9336068273	 0.130481
H	 2.1191008399	 1.2877977931	-0.1125287846	 0.130195
