15
gdb 11211	4.00572	1.53602	1.19595	4.4496	62.4	-0.2481	-0.0404	0.2077	964.8983	0.119395	-399.855995	-399.848579	-399.847634	-399.888304	26.614	
O	-0.1413552562	 0.0048507521	-0.1128530129	-0.244
C	-0.0493181454	 1.2010261036	-0.0193266277	 0.157408
C	 1.2644727956	 1.9510046072	 0.0300077193	-0.056343
C	 1.4307335062	 2.8205599452	 1.3119638274	-0.243834
C	 2.9430930034	 2.7662305153	 1.5813433677	-0.328414
C	 3.3937602244	 1.439479619	 0.9539051812	 0.41083
O	 4.4145127011	 0.8308975681	 1.1730691096	-0.367664
N	 2.4094980652	 1.0792234779	 0.0678723994	-0.300101
H	-0.9480577474	 1.8569227121	 0.0186112403	 0.087289
H	 1.2721073562	 2.6071441753	-0.8598421703	 0.104337
H	 1.0382331712	 3.8295629652	 1.1760474684	 0.118287
H	 0.8861653606	 2.3558533365	 2.1406123138	 0.126235
H	 3.4769367705	 3.5832565029	 1.0827005668	 0.133891
H	 3.2091221503	 2.7940899926	 2.6386597348	 0.137987
H	 2.4137169942	 0.1848784571	-0.3968968078	 0.264093
