15
gdb 47238	2.5329	1.85009	1.32542	3.8854	66.63	-0.2678	-0.0369	0.231	951.3751	0.113816	-457.766298	-457.759254	-457.75831	-457.797801	27.147	
O	 0.0091990506	 0.0224939003	 0.4800766991	-0.319324
C	 0.0217951749	 1.1595492945	 0.0866131004	 0.412296
O	-1.1426759252	 1.8038689263	-0.1107473235	-0.235285
C	-1.2511801157	 3.1447125472	-0.6510607446	-0.129385
C	-0.7101186508	 3.2511676449	-2.053002498	-0.113016
C	 0.5640251745	 3.015825026	-2.367962002	-0.024949
C	 1.616646324	 2.6650152577	-1.385670551	-0.002076
O	 1.5229400124	 3.2248227728	-0.0702339616	-0.235828
C	 1.3525123984	 1.8179712313	-0.1896384448	-0.104664
H	-2.3260519457	 3.3298603483	-0.6406851558	 0.128278
H	-0.7652192328	 3.8498266169	 0.0239768658	 0.154037
H	-1.4150570921	 3.5011419653	-2.8394693225	 0.115357
H	 0.8870661696	 3.068343591	-3.4033623847	 0.107392
H	 2.6341288176	 2.6326420058	-1.771484431	 0.116273
H	 2.1657549304	 1.2130110115	 0.2047645443	 0.130893
