13
gdb 28186	5.44367	1.36045	1.08988	4.8666	66.12	-0.1913	0.0265	0.2178	1010.073	0.092742	-448.955185	-448.948352	-448.947408	-448.986321	26.156	
N	 0.0819322445	 1.3123353073	 0.1476159484	-0.586753
C	-0.0496551751	-0.0492935297	 0.0415139313	 0.417068
N	-1.1328812257	-0.757492918	 0.0134143828	-0.401599
C	-0.6409935461	-2.0673546087	 0.0258849901	 0.260273
C	 0.7136891279	-2.0279970051	 0.0535163306	 0.371247
N	 1.179605571	-3.3048949963	-0.0270767964	-0.410262
C	 0.016076314	-4.0734685687	-0.0653497799	-0.016704
N	-1.0921189781	-3.3591983092	-0.0445018577	-0.334608
O	 1.1660701078	-0.7467382575	 0.0554863811	-0.247934
H	 0.8839803274	 1.6965434956	-0.3320359725	 0.264607
H	-0.7786659697	 1.7946414355	-0.0688170645	 0.274884
H	 2.124592346	-3.6448121638	 0.0156533879	 0.277023
H	 0.0717773062	-5.1505175413	-0.0950123411	 0.132758
