17
gdb 96823	3.00364	1.11684	0.93573	2.8862	76.62	-0.2681	-0.0097	0.2584	1284.5301	0.134635	-418.015061	-418.005666	-418.004721	-418.049957	32.579	
C	-0.3020969867	 1.428401389	-0.0898596596	-0.343605
N	-0.2922232272	-0.0235720329	-0.2051680204	-0.319804
C	 0.5535131304	-0.5892077153	-0.9214905275	 0.479291
O	 1.5830040025	-0.0563141574	-1.7082695185	-0.270354
C	 2.0201628215	-1.3841179545	-2.1063206602	-0.024908
C	 3.393663767	-1.6602094878	-1.6942364327	 0.293747
N	 4.477343653	-1.9028277157	-1.3754424802	-0.315895
C	 0.8738360787	-2.0316316147	-1.2621416513	-0.177594
C	 1.217592532	-2.9624519581	-0.1079852153	-0.412592
H	 0.5103594463	 1.9259380801	-0.6311059605	 0.132334
H	-1.2594158695	 1.8079908957	-0.4625736948	 0.134666
H	-0.2403783542	 1.698843599	 0.9691283122	 0.136022
H	 1.9306497799	-1.5130937279	-3.188379565	 0.140307
H	 0.1153792147	-2.4787379417	-1.9103348936	 0.121714
H	 2.0023453149	-2.5413652434	 0.5256786765	 0.146101
H	 0.3280514599	-3.1174260876	 0.5079290778	 0.147094
H	 1.5575752767	-3.9345964066	-0.4761350067	 0.133476
