20
gdb 61313	4.77505	0.66645	0.65192	4.9491	80.4	-0.2788	0.0294	0.3081	1749.4979	0.169765	-403.149578	-403.139731	-403.138787	-403.185235	35.574	
O	-0.3155227208	 1.3541027399	-0.0011847393	-0.417904
C	 0.0336985686	-0.0179234406	 0.0463027533	 0.139024
C	 0.7534918178	-0.458372857	-1.2504681182	-0.372359
C	-0.0218626659	-0.1754518227	-2.4554358411	 0.271761
N	-0.6346818811	 0.0355573844	-3.4116768908	-0.30303
C	 0.8750984484	-0.3588196204	 1.2836865881	-0.241189
C	 0.161871348	-0.0374062383	 2.5787952122	 0.03421
C	-0.7372048948	-1.0632347284	 3.2241851451	-0.256163
C	 0.5800935104	-0.6996471768	 3.8652234232	-0.280838
H	 0.4962347633	 1.8746864304	-0.0148692969	 0.282293
H	-0.9244642121	-0.5453311784	 0.1064871923	 0.115772
H	 1.7222111144	 0.0525134364	-1.3261376919	 0.140856
H	 0.9668431821	-1.5327243886	-1.213442214	 0.151926
H	 1.139318418	-1.4241223122	 1.2613286132	 0.097567
H	 1.8256496268	 0.1945475408	 1.2248268064	 0.089789
H	-0.168910462	 0.9937470441	 2.6507809758	 0.09667
H	-1.6528885039	-0.7244362854	 3.695286567	 0.118166
H	-0.8170229491	-2.0385358327	 2.7540254615	 0.108679
H	 1.3813568303	-1.4306087959	 3.8231384825	 0.109493
H	 0.5663541514	-0.1118803686	 4.7762984617	 0.115276
