15
gdb 62440	4.05431	1.27362	1.25038	1.7497	73.02	-0.2126	0.0101	0.2227	1020.2757	0.111993	-416.755384	-416.747292	-416.746348	-416.78779	30.769	
O	-0.1155514977	 1.3930691915	 0.0895989275	-0.455011
C	-0.0232442756	 0.0042195204	 0.0240525663	 0.144994
C	 1.075056163	-0.6004132355	 0.7218532985	 0.303126
C	 1.9904850461	-1.1239871219	 1.3020169856	-0.41559
C	-1.3448157572	-0.7726816456	 0.0276833293	-0.106743
N	-2.5067460261	-0.0308889793	-0.3589906571	-0.275156
C	-2.2652926067	 0.4922120709	-1.6094441173	 0.06022
N	-1.2041467707	 0.083267245	-2.2104122706	-0.266833
C	-0.5016462469	-0.7248770243	-1.2457282761	-0.101437
H	 0.2870962921	 1.7538638658	-0.7096844843	 0.295427
H	 2.8025171818	-1.5736263221	 1.8175394727	 0.192826
H	-1.477261727	-1.6259174743	 0.6810608575	 0.119172
H	-3.0579539642	 0.4706095017	 0.3198402737	 0.25926
H	-2.9818380732	 1.1773030537	-2.0500101799	 0.132261
H	 0.0962681822	-1.547532326	-1.6164635657	 0.113484
