20
gdb 79083	2.91016	1.7482	1.26961	1.5151	83.31	-0.2097	-0.003	0.2066	1047.9054	0.171125	-365.936825	-365.928945	-365.928001	-365.968555	32.133	
C	-0.1170009184	 1.5943929196	 0.0794881393	-0.437732
C	 0.0166472982	 0.0861131292	-0.0378519995	 0.071953
C	 0.7899510694	-0.5972511781	-1.1783622902	-0.122722
C	 2.102021147	-0.1687441122	-0.4531287362	-0.042247
C	 3.1202936794	-1.2775823784	-0.5775796648	-0.100314
C	 2.3794121232	-2.3721417213	-0.4260182918	-0.149259
C	 0.9712339578	-1.8332726095	-0.2219093385	 0.347571
C	-0.1122367407	-2.8345903344	 0.1027794395	-0.519463
N	 1.168745115	-0.5882135695	 0.7301578913	-0.194845
H	 0.7794816767	 2.1405702392	-0.2231353696	 0.117202
H	-0.9453779176	 1.9451257387	-0.5457866604	 0.11643
H	-0.3433647016	 1.8692185702	 1.1151278704	 0.128653
H	-0.9447877179	-0.3690213094	 0.2160585622	 0.063712
H	 0.586801648	-0.6070536393	-2.2588433688	 0.053354
H	 2.4378965615	 0.8655817797	-0.4470342846	 0.07176
H	 4.1846580566	-1.1638473567	-0.7236756712	 0.110067
H	 2.6606974287	-3.4160462498	-0.4105035508	 0.105847
H	 0.1174984303	-3.3433501933	 1.0447679883	 0.1334
H	-1.1036827084	-2.3867772758	 0.1973286683	 0.124518
H	-0.1644536272	-3.5941057087	-0.6848163428	 0.122115
