18
gdb 114330	2.32909	1.33217	1.148	1.622	67.3	-0.2325	0.0527	0.2852	1141.602	0.147144	-476.150267	-476.14137	-476.140426	-476.183697	33.921	
O	 0.0462545159	 1.417276837	-0.2172239587	-0.42062
C	 0.0713746155	 0.0682905638	 0.2263710898	-0.095599
C	-1.2923804509	-0.5824755525	 0.0511176271	-0.038756
N	-1.7654271065	-0.6702092063	-1.3835206555	-0.385162
C	-2.1827077756	-2.0780456321	-1.1604350652	-0.143472
C	-0.9218763375	-2.8601040535	-0.9766673325	 0.068863
O	 0.2480179654	-2.5473670572	-1.665349651	-0.43223
C	-1.4818998478	-2.0969851469	 0.2082870113	 0.275684
O	-1.8638954264	-2.6939643882	 1.393686151	-0.455231
H	-0.1478689788	 1.3866945938	-1.1608541355	 0.284157
H	 0.8380857426	-0.5186174693	-0.2953861569	 0.106049
H	 0.3328960555	 0.0951150581	 1.2900233331	 0.109218
H	-2.0339608853	-0.0569920644	 0.6630687044	 0.093899
H	-2.5672992717	-0.0695828743	-1.538079273	 0.234906
H	-3.1255973291	-2.4686935855	-1.5236080459	 0.105522
H	-1.0704468731	-3.9332203725	-0.8783805918	 0.108989
H	 0.0476612392	-1.7289852685	-2.1440720413	 0.291079
H	-1.1092717013	-3.1740992617	 1.7521441106	 0.292703
