22
gdb 6893	2.68793	1.41751	1.23982	1.3739	78.69	-0.2377	0.0751	0.3128	1147.4417	0.197632	-350.200372	-350.1903	-350.189355	-350.234609	37.277	
C	-0.5460387828	 0.5362050828	-2.6352567983	-0.372418
C	-0.2350990018	-0.4608500981	-1.5115064612	-0.204945
C	-1.4791463048	-0.8903988038	-0.7595505409	-0.040048
C	-2.3603185936	-2.0674374024	-1.1793022744	-0.081744
C	-2.0755414931	-2.9372085737	-2.3859310647	-0.414945
C	-1.5581436113	-2.1164271733	 0.106905994	 0.357279
C	-0.3894560273	-3.0571543198	 0.30070391	-0.449432
O	-2.2813183945	-1.892853618	 1.2986642354	-0.46618
H	 0.3665625966	 0.8510984969	-3.1511983727	 0.107865
H	-1.2196129552	 0.096887076	-3.3783056648	 0.118025
H	-1.0330403142	 1.4341677121	-2.2396189745	 0.115415
H	 0.2848899368	-1.3276616677	-1.9325693345	 0.091884
H	 0.4698338408	-0.0032368847	-0.804933223	 0.099753
H	-2.0402443263	-0.055182769	-0.3462497622	 0.089691
H	-3.4201124599	-1.8962011523	-1.0059013046	 0.08189
H	-1.0064913357	-3.0773422012	-2.5640659808	 0.115683
H	-2.5185391249	-3.9328186716	-2.2674330353	 0.113252
H	-2.5008983408	-2.4958373983	-3.2943935234	 0.118467
H	 0.1992430278	-3.1950032152	-0.6085634917	 0.116799
H	 0.2734759741	-2.6749367315	 1.0835131906	 0.125898
H	-0.7421310863	-4.0476936619	 0.615483414	 0.103917
H	-2.7105733135	-2.7218750051	 1.5395018831	 0.273892
