12
gdb 7884	4.09297	1.90813	1.30142	4.7858	62.17	-0.2449	-0.0643	0.1806	847.661	0.084988	-414.729616	-414.722664	-414.72172	-414.76086	25.469	
N	 0.0885454548	 1.3432261411	 0.0073579119	-0.597642
C	-0.0575412575	 0.0114887031	 0.0009300364	 0.363466
C	-1.1300279132	-0.8195187535	 0.002890902	-0.414026
C	-0.6451203175	-2.1879447257	-0.0077758446	 0.436712
O	-1.1978039989	-3.2446896741	-0.0100107905	-0.323992
O	 0.7919763475	-2.1381403744	-0.0160655874	-0.241153
C	 1.1665805429	-0.8364878785	-0.0111734186	 0.393363
N	 2.3391892969	-0.3658858808	-0.0156041106	-0.547838
H	 1.0265621205	 1.7115694131	 0.00395839	 0.287455
H	-0.694324536	 1.9711880294	 0.0159848432	 0.274675
H	-2.1810622723	-0.5794267291	 0.0106909104	 0.125002
H	 3.0424001828	-1.1054927506	-0.0239094823	 0.243979
