17
gdb 30029	3.2113	1.57929	1.12225	1.1309	81.37	-0.2067	-0.0074	0.1993	1064.6795	0.138401	-384.726042	-384.718961	-384.718017	-384.757391	28.33	
C	-0.0912454503	 1.5827672267	 0.0005840226	-0.384678
C	 0.0030898833	 0.0460266708	 0.0098314325	-0.210654
C	 0.8042370847	-0.5147192325	-1.1642560475	-0.076132
C	 1.8496616493	-1.2667898592	-0.772954341	-0.229944
C	 1.8767680438	-1.3125715694	 0.6832038614	 0.229041
C	 2.5272027796	-1.7956221571	 1.7726546299	-0.162885
O	 1.8969970634	-1.3585054325	 2.9063109242	-0.16068
C	 0.8297783172	-0.5892906616	 2.5220343335	-0.163275
C	 0.7723091944	-0.5301111835	 1.1724644695	 0.228781
H	 0.9058277889	 2.0307856472	 0.0357396002	 0.126184
H	-0.595344296	 1.9364761745	-0.9046413291	 0.113837
H	-0.6579113366	 1.9419524966	 0.8650743682	 0.117717
H	-1.0194467856	-0.3579298393	-0.0217774665	 0.099936
H	 0.5343876975	-0.3003245467	-2.1919186892	 0.098015
H	 2.5555178993	-1.7598046659	-1.4289661356	 0.103173
H	 3.3891585988	-2.4206288873	 1.9339196814	 0.136502
H	 0.2451818383	-0.1831491807	 3.3307256456	 0.135061
