23
gdb 88367	2.02453	1.35629	1.20409	0.4778	91.22	-0.2541	0.0561	0.3102	1248.9509	0.20276	-351.115734	-351.105167	-351.104223	-351.150361	40.558	
C	-1.3489608553	-1.4599151889	 2.6943874673	-0.422793
C	-0.5776749617	-1.3925011378	 1.3929899866	-0.006947
C	-0.6956966307	-0.2121666571	 0.4556618162	-0.323035
C	 0.6194721623	-0.5011760326	 1.1354946504	 0.009932
C	 1.2969407921	 0.4561546198	 2.1318800705	 0.051699
C	 2.0555324153	-0.3632034115	 3.2034728878	-0.399078
C	 2.3099167577	 1.3242412211	 1.3403809804	-0.398234
C	 0.3577676475	 1.3711114263	 2.7913754297	 0.335876
C	-0.3568425304	 2.17100202	 3.3366637	-0.496247
H	-1.4055483863	-0.4886534487	 3.188379993	 0.137665
H	-2.3734043698	-1.803724662	 2.5104975554	 0.111007
H	-0.8878452587	-2.1676263832	 3.3928662452	 0.1109
H	-0.502556917	-2.3578554541	 0.8965381748	 0.079216
H	-0.7873988813	-0.384084376	-0.6115132178	 0.102522
H	-1.2520265305	 0.6446040646	 0.8223732327	 0.122343
H	 1.3739331478	-0.9616596773	 0.5008310795	 0.078345
H	 2.7567023607	-1.0498821713	 2.7176202432	 0.110059
H	 2.6222267556	 0.2952967301	 3.8682664553	 0.11815
H	 1.3638796669	-0.9516663109	 3.8102939015	 0.128191
H	 1.8025549854	 1.8917699257	 0.5560514921	 0.127025
H	 2.8166739654	 2.0299425341	 2.0042793629	 0.119546
H	 3.0659394175	 0.6848413924	 0.8725931734	 0.109697
H	-1.0006652425	 2.8647397475	 3.8185253201	 0.194163
