13
gdb 5434	3.57511	1.92062	1.25921	3.9776	66.9	-0.2429	-0.025	0.2178	893.1616	0.096352	-361.518557	-361.511523	-361.510579	-361.550035	25.258	
C	 0.0871344811	 1.484951471	 0.061185489	-0.502204
C	-0.0412687165	 0.0074573979	 0.0430060694	 0.286014
C	-1.118421001	-0.8343984555	-0.083619058	 0.075813
C	-0.6014683717	-2.1792964061	-0.0267938811	-0.289404
C	 0.7349812632	-2.0488339637	 0.1282715895	-0.004929
O	 1.0855061735	-0.7287659054	 0.1718098584	-0.168805
C	-2.4672011357	-0.4334325314	-0.238862474	 0.194949
N	-3.5699533346	-0.101650357	-0.3657444838	-0.348642
H	 0.7309908606	 1.8351994339	-0.7527992461	 0.152252
H	-0.8977279254	 1.941678062	-0.0522922284	 0.163352
H	 0.5269425424	 1.8313446319	 1.002668381	 0.152254
H	-1.1691248256	-3.092655569	-0.0945635587	 0.138393
H	 1.5466884198	-2.7502677488	 0.2207234128	 0.150957
