16
gdb 126033	3.01192	1.63774	1.11314	2.9594	70.43	-0.2276	-0.0109	0.2167	1050.2855	0.125866	-437.868268	-437.860991	-437.860047	-437.900251	27.684	
C	-0.0104619903	 1.5841316227	-0.033029022	-0.401088
C	 0.0163720704	 0.0569432374	 0.0632651793	-0.14962
C	 0.7441645772	-0.6339260499	-1.1428544894	-0.108586
O	 1.525703735	-1.7598562703	-0.6429794466	-0.284991
C	 1.6438366071	-1.5520062732	 0.6887672966	 0.223993
C	 2.3102556545	-2.024143441	 1.7664737224	-0.082055
O	 1.9000327165	-1.3088547087	 2.855764591	-0.181563
N	 0.9525071737	-0.3511185884	 2.4759638808	-0.244711
C	 0.8236192758	-0.5217886086	 1.1902836278	 0.3205
H	 1.0047278247	 1.9896489881	-0.081770795	 0.128867
H	-0.5542353	 1.9089723952	-0.9258416513	 0.121376
H	-0.5048762843	 2.0151951345	 0.8411714291	 0.143804
H	-1.0127140015	-0.3174717076	 0.1309933492	 0.114004
H	 0.0587564782	-1.0237037095	-1.8973275047	 0.12763
H	 1.4370411224	 0.0706584438	-1.6189721798	 0.119548
H	 3.0444617907	-2.7888266345	 1.9520412825	 0.152891
