20
gdb 16886	3.75258	1.76658	1.38664	0.2973	81.04	-0.2126	0.0294	0.242	968.4947	0.179311	-311.883386	-311.876003	-311.875058	-311.914539	29.693	
C	 0.0511219374	 1.539242055	 0.0020009416	-0.477804
C	-0.037880646	 0.0387493282	-0.0018414904	 0.308949
C	-0.0025229731	-0.6833589047	-1.1276212479	-0.140329
C	-0.0461234823	-2.1656172182	-1.155417603	-0.056167
C	 0.9807465109	-2.9598120102	-0.3549470681	-0.291442
C	-0.4406943154	-2.8714726202	 0.1249023204	-0.016073
C	-0.8576932734	-2.0024401783	 1.2955668161	-0.218868
C	-0.1333883133	-0.6430154024	 1.3470837274	-0.310285
H	 0.9149576943	 1.8869601195	 0.5848865729	 0.118448
H	 0.1451327103	 1.9423272688	-1.0103414203	 0.116635
H	-0.8353438573	 1.9894598627	 0.46845831	 0.11791
H	 0.0794559477	-0.1755668239	-2.0861836804	 0.072755
H	-0.3655742699	-2.6085225857	-2.0933393134	 0.077373
H	 1.3226257778	-3.9055440482	-0.7621431717	 0.106147
H	 1.7489277517	-2.391705519	 0.1582874006	 0.113288
H	-1.0336530898	-3.7742086638	 0.0067672026	 0.080089
H	-1.9367260614	-1.8197788853	 1.2101976132	 0.100259
H	-0.7070058965	-2.5336789496	 2.2428509044	 0.094966
H	 0.8773893216	-0.7747135289	 1.7595946966	 0.10884
H	-0.6490699534	 0.0124762042	 2.0597944794	 0.095309
