16
gdb 22353	2.45709	1.36374	0.92256	3.8725	68.66	-0.2659	-0.0213	0.2446	1212.4955	0.122872	-475.033115	-475.0245	-475.023555	-475.067204	31.327	
C	-0.0542538291	 1.5566796053	-0.0041123369	-0.389754
C	 0.0428858693	 0.0377441502	 0.02882675	 0.049745
O	 0.7847325273	-0.4357491639	-1.1136938958	-0.231538
C	 1.841566217	-1.2286420697	-0.7806298985	 0.431815
O	 2.5613219919	-1.7098492575	-1.603692097	-0.328402
C	 1.920571249	-1.3725929155	 0.7342596393	-0.481568
C	 0.7926176425	-0.5225216286	 1.2247460327	 0.370655
N	 0.4399507896	-0.244769366	 2.4119995287	-0.218179
O	 1.2719876165	-0.8724336003	 3.3461015796	-0.383171
H	 0.9416249576	 2.0071393807	 0.0294148089	 0.128414
H	-0.5587467886	 1.8848212363	-0.9162563483	 0.13485
H	-0.6222085322	 1.9011998566	 0.8637169201	 0.142878
H	-0.959518493	-0.4027078666	-0.035565898	 0.120059
H	 1.816625042	-2.4239749216	 1.0229823773	 0.170036
H	 2.8965939523	-1.0451843619	 1.1051130644	 0.17095
H	 0.9024662676	-0.5793565476	 4.1865091534	 0.313209
