18
gdb 44680	2.76247	1.66651	1.24155	3.5396	78.05	-0.2372	0.0084	0.2456	1031.5055	0.150501	-401.986754	-401.979415	-401.978471	-402.01869	28.741	
O	 0.1402397048	 0.1327746397	 0.5599951005	-0.363933
C	 0.0163999618	 1.2477931348	 0.1280235713	 0.407799
C	-1.147372459	 2.2350859046	-0.1113208879	-0.398386
C	-0.0236903712	 3.2735936062	-0.4422880514	-0.017658
C	 0.2366308055	 4.3705762147	 0.5420337755	-0.068246
C	 1.2896585702	 4.3563652535	 1.3622583929	-0.060266
C	 2.3253574095	 3.2574157295	 1.4084409164	-0.260002
C	 2.3101114356	 2.3780695839	 0.1414764743	-0.191974
N	 0.948351905	 2.1749235771	-0.307547462	-0.085981
H	-1.8189744099	 1.9831512266	-0.933812105	 0.130367
H	-1.7253059391	 2.4481313057	 0.7895422344	 0.134287
H	-0.0848506811	 3.6684804328	-1.4649497973	 0.089013
H	-0.4630401344	 5.2023662042	 0.5538799278	 0.095021
H	 1.426627644	 5.1756677911	 2.0638465219	 0.095921
H	 3.3235884622	 3.689484982	 1.5484827578	 0.109691
H	 2.1436101956	 2.6301245899	 2.2918439584	 0.131403
H	 2.8811881465	 2.8594948234	-0.6606984463	 0.114675
H	 2.7556227641	 1.3983617303	 0.3291120186	 0.138272
