21
gdb 105223	2.00425	1.42652	1.09926	3.2029	74.77	-0.2507	0.0607	0.3114	1214.2267	0.180495	-461.335454	-461.325257	-461.324313	-461.370236	38.502	
C	 0.2473713342	-0.9389734056	 1.8246747416	-0.41225
C	 0.0334630622	-0.416286682	 0.3983046549	 0.067322
O	 1.0244352976	-0.9338082502	-0.477150771	-0.444753
C	-1.3970938693	-0.6720386516	-0.1120774179	 0.312867
C	-2.4836070768	 0.0793100276	 0.6257094481	-0.155639
O	-2.2466020153	 1.4725463465	 0.468458371	-0.418045
C	-1.5925263141	-0.8883435856	-1.600464837	-0.364234
C	-1.7661525162	-2.0328900969	-0.6359731587	 0.022579
O	-0.7910197573	-3.0497367129	-0.5509632367	-0.427638
H	 1.2834162912	-0.7560043684	 2.1222155374	 0.119522
H	-0.4050306212	-0.439734319	 2.5477283697	 0.10905
H	 0.0568606687	-2.0161998657	 1.8760345946	 0.1232
H	 0.1804103594	 0.6683955575	 0.390945562	 0.104401
H	 0.8605650801	-1.8857787122	-0.5258790715	 0.280088
H	-3.4664127394	-0.2020639786	 0.214254447	 0.080029
H	-2.4856512006	-0.2023031814	 1.6896813444	 0.092152
H	-2.8667859185	 1.9482630028	 1.0286039274	 0.288258
H	-2.4728821361	-0.4745219315	-2.080545342	 0.110123
H	-0.6851525739	-0.8835719688	-2.1925676579	 0.130603
H	-2.777185679	-2.393403281	-0.4465889631	 0.088044
H	-0.8573777358	-3.5891343632	-1.3465886524	 0.294321
