20
gdb 33190	5.89226	0.70878	0.64996	1.5659	84.33	-0.178	0.0406	0.2186	1756.1497	0.171427	-403.174424	-403.165144	-403.1642	-403.20978	33.771	
C	-0.0826935961	 1.5457286766	-0.1098355435	-0.381119
C	 0.2346566776	 0.054221654	 0.020610581	-0.184922
C	 0.5881624978	-0.5875444312	-1.3196599367	-0.126237
N	 0.8997857355	-2.0083160798	-1.1444489107	-0.408592
C	 1.3728487426	-2.7318452041	-2.2241970147	 0.440526
C	 1.1871479161	-4.0199162435	-2.639597397	-0.304965
C	 2.0543038539	-4.1924631513	-3.7721965388	-0.157136
C	 2.6825142777	-3.0095331243	-3.9658433873	-0.033245
O	 2.2750834755	-2.1012507368	-3.0159888646	-0.179686
H	 0.7733311351	 2.0986054978	-0.5115839547	 0.12012
H	-0.9312458267	 1.7158612283	-0.7814656405	 0.117607
H	-0.3343760703	 1.9819545369	 0.8611462304	 0.11686
H	 1.068735588	-0.0999939724	 0.7145363373	 0.111849
H	-0.6298475022	-0.4671937015	 0.455086917	 0.091159
H	-0.2338858484	-0.4319660193	-2.0392205038	 0.091742
H	 1.4730971227	-0.1040611575	-1.7425268895	 0.130623
H	 0.1649618202	-2.5115480755	-0.6655350882	 0.235791
H	 0.5212516743	-4.7466646683	-2.2028261935	 0.090621
H	 2.1776008454	-5.0859100257	-4.3645363301	 0.103975
H	 3.3937933114	-2.6386134723	-4.6831176722	 0.125029
