19
gdb 15045	2.30285	1.95679	1.12014	1.156	77.85	-0.2362	0.0467	0.2829	1088.1382	0.163402	-327.859132	-327.850159	-327.849214	-327.892649	33.09	
C	 0.0038780894	 1.5498028862	 0.0011199503	-0.396331
C	 0.0120939343	 0.0201718481	-0.0341245144	-0.167162
C	 0.7189112743	-0.5790019473	-1.2683914673	-0.169345
C	 0.7729942204	-2.0391661914	-1.1668416731	 0.356745
C	 0.8190634533	-3.2358594721	-1.068073473	-0.443687
N	 0.0138215382	-0.1952341798	-2.5020718628	-0.063982
C	 0.5578361443	 0.9466314326	-3.2371238135	-0.220843
C	 0.7315134704	-0.4375144392	-3.7498556478	-0.215306
H	 1.020686565	 1.9575211691	-0.0368469132	 0.109285
H	-0.5602760025	 1.9675019056	-0.836626872	 0.1327
H	-0.4598040369	 1.9068735512	 0.9257144331	 0.114194
H	 0.5140348804	-0.3713177762	 0.8574118774	 0.105008
H	-1.012715365	-0.3645355793	-0.0180153268	 0.11747
H	 1.7613343962	-0.2048666539	-1.2852391619	 0.081353
H	 0.8607109634	-4.2936956758	-0.98532406	 0.194222
H	-0.1766771962	 1.6153306139	-3.6767465082	 0.118166
H	 1.4397383331	 1.442397147	-2.8349157872	 0.112039
H	 1.7275704122	-0.871625309	-3.6878838761	 0.116706
H	 0.1271996556	-0.8051900997	-4.5737235634	 0.118769
