22
gdb 120137	2.86597	0.95666	0.85474	0.3886	82.12	-0.2248	0.0749	0.2997	1461.0569	0.194118	-404.292434	-404.282828	-404.281883	-404.327373	35.682	
C	-0.4921563228	 1.6361222058	 0.4660517602	-0.423444
C	-0.1541118299	 0.1508971437	 0.3907267687	 0.036011
C	 0.6072983432	-0.4762106558	-0.8092797839	-0.196762
N	 1.5552510272	-1.2229153598	 0.0992438383	-0.156823
C	 2.3290180273	-0.213830289	 0.8590197725	 0.022133
C	 2.9461741009	 1.037166287	 0.2740249016	-0.22767
C	 4.2096469361	 0.7166964174	-0.5213848094	-0.067075
O	 4.7460488603	 1.944741137	-0.9891010235	-0.423446
C	 0.93204309	-0.4643431289	 1.2763604675	-0.091395
H	 0.3801737597	 2.2771032502	 0.3184994109	 0.125745
H	-1.2343534422	 1.9015857687	-0.2950326402	 0.11589
H	-0.9213471421	 1.8835041796	 1.4434683296	 0.117511
H	-1.0755642923	-0.4201718461	 0.5440342431	 0.085521
H	 0.0186911977	-1.1900648969	-1.3884178621	 0.107995
H	 1.0959582431	 0.2130774941	-1.5050628224	 0.102612
H	 3.0367656047	-0.7445819172	 1.4980477915	 0.09081
H	 2.2626597559	 1.5841983284	-0.3763773596	 0.113538
H	 3.2116085834	 1.719919212	 1.0902446434	 0.110164
H	 4.9283551393	 0.1842728286	 0.1227947597	 0.086368
H	 3.9605759523	 0.0415948331	-1.3550074381	 0.099348
H	 5.5308543731	 1.751019339	-1.5096999814	 0.28622
H	 0.7226437151	-0.9687144706	 2.2166628134	 0.086748
