23
gdb 101364	3.18358	0.9936	0.87432	1.7316	85.19	-0.2492	0.0774	0.3266	1442.9564	0.204555	-388.25918	-388.249535	-388.248591	-388.293932	36.355	
C	 0.0388613807	 1.5779758829	-0.0605132087	-0.390253
C	 0.0784775834	 0.0490759026	 0.0342594955	-0.17263
C	 0.6828149753	-0.4987661883	 1.3408900985	 0.035931
C	-0.1742454823	-0.1567239006	 2.5685370437	-0.404482
C	 0.8973031136	-2.0104901095	 1.2420025277	-0.003673
C	 1.9762642657	-2.5690962522	 0.2337257866	-0.285173
C	 2.6802146493	-3.2272344138	 1.4257396462	 0.030276
O	 3.0235445441	-2.1819695676	 2.3443815503	-0.24569
C	 1.6871098945	-2.7003997963	 2.3733312889	 0.003208
H	 1.0401084342	 2.0058882194	 0.0629821991	 0.115091
H	-0.3412721289	 1.8994459681	-1.0353805377	 0.110296
H	-0.607124053	 2.0210473955	 0.7036236871	 0.117304
H	-0.9378439183	-0.352750595	-0.0852869047	 0.087754
H	 0.6573055292	-0.3400418617	-0.8127242759	 0.095501
H	 1.6735722976	-0.0445273553	 1.4769815716	 0.08394
H	 0.277398667	-0.5449226018	 3.4869097993	 0.117178
H	-0.2886778174	 0.9234324855	 2.6948468542	 0.115743
H	-1.1786645087	-0.5894187616	 2.4797923714	 0.106789
H	-0.0607840067	-2.5206311517	 1.0844034742	 0.069966
H	 1.5601438025	-3.2828080093	-0.4809021507	 0.10413
H	 2.579604385	-1.828940237	-0.2983798807	 0.1084
H	 3.2804993635	-4.1289799515	 1.4589027785	 0.102352
H	 1.3331321395	-3.093719691	 3.3196247157	 0.098042
