19
gdb 68025	2.58644	1.85632	1.38459	2.9054	74.39	-0.2409	0.0804	0.3213	1001.6057	0.1579	-422.979687	-422.971787	-422.970842	-423.011399	31.986	
C	 0.0114390863	 1.4942089626	 0.1359484159	-0.507648
C	 0.028303315	 0.0012266863	-0.0203139113	 0.371231
C	 0.8906785215	-0.7879228478	-1.0528840498	-0.312093
C	 0.7338869451	-1.8377115324	 0.0899226105	 0.371233
C	 1.7106476841	-2.9343526128	 0.4013929313	-0.507648
O	 0.7213243448	-0.7279341635	 1.0318149294	-0.322787
C	-0.7928770628	-2.1551934715	-0.0351413804	-0.018115
O	-1.5781699346	-1.6104396634	 1.0283398358	-0.231228
C	-1.3145373263	-0.7956042504	-0.1166438737	-0.018114
H	 1.02770758	 1.8953393507	 0.1776867186	 0.128133
H	-0.5121099794	 1.960790919	-0.7051576626	 0.120918
H	-0.5085935333	 1.7715206451	 1.0583305503	 0.140564
H	 0.4678671572	-1.0092066206	-2.038032185	 0.091447
H	 1.909651765	-0.4015702719	-1.1299160433	 0.10484
H	 2.7326932864	-2.5482941239	 0.4441761202	 0.128135
H	 1.4716468781	-3.3897927267	 1.367610868	 0.140561
H	 1.6659000543	-3.7152874772	-0.3650286411	 0.120919
H	-1.1801295144	-3.0276933662	-0.5506741994	 0.099825
H	-2.1639066671	-0.4637236254	-0.7043688833	 0.099825
