21
gdb 70362	2.62763	1.76226	1.36527	1.7444	80.88	-0.2495	0.085	0.3344	1037.4518	0.183956	-387.086128	-387.078309	-387.077364	-387.118005	31.723	
C	-0.3607003493	 1.3193523187	 0.2376207724	-0.491059
C	 0.1481216139	-0.0721611022	-0.0250967313	 0.408536
O	-0.3031406736	-1.0872452344	 0.8985399412	-0.300541
C	 1.1017871447	-0.7975912384	 0.837547023	-0.006578
C	 1.8936623112	-1.8122701332	 0.0365585751	-0.26686
C	 1.1971825011	-1.8514399787	-1.3407208587	-0.004847
C	-0.0458965206	-2.7702485571	-1.543542668	-0.218948
C	-0.8991736075	-1.5267855195	-1.9249690252	-0.222161
C	 0.259822658	-0.6019971992	-1.4476785523	-0.089404
H	 0.2633231347	 2.0640482202	-0.267925686	 0.119672
H	-1.3848429522	 1.4336364468	-0.1350664272	 0.127539
H	-0.3652331088	 1.5333308374	 1.30941819	 0.127566
H	 1.519552424	-0.3598859843	 1.742941839	 0.083963
H	 2.9332028958	-1.4723383641	-0.0491141933	 0.097556
H	 1.9117072809	-2.7937603223	 0.5238302537	 0.108971
H	 1.9160881203	-1.9442411954	-2.1574579592	 0.066582
H	 0.0534948036	-3.5393155865	-2.3139508503	 0.087331
H	-0.3767466526	-3.2385147988	-0.6154048982	 0.113501
H	-1.0798179468	-1.4453974301	-2.9997508927	 0.094047
H	-1.8503834664	-1.4119990621	-1.4008674325	 0.104812
H	 0.5565315195	 0.1989778133	-2.1309252494	 0.060322
