21
gdb 40194	2.94972	1.53578	1.23381	1.4075	81.37	-0.2401	0.0771	0.3172	1088.7137	0.18453	-387.071282	-387.06355	-387.062606	-387.103701	31.074	
C	 0.1408780254	 1.5544850134	 0.0228144182	-0.323392
C	 1.3188890255	 0.6124466084	 0.133527018	-0.32122
C	-0.0763591406	 0.0701331878	-0.0394150155	 0.379052
C	-0.7547867301	-0.6948181519	 1.0905510639	-0.168214
O	-0.7879111547	-2.0511079621	 0.6587181501	-0.260222
C	-0.9620263196	-2.0559208892	-0.747803184	 0.126108
C	-2.4022568129	-1.7665116806	-1.266465335	-0.245715
C	-1.9210994188	-0.4041611313	-1.8449377826	-0.237886
C	-0.4838349974	-0.6721071529	-1.2997735892	-0.138652
H	-0.1761400731	 2.0825431572	 0.917169122	 0.11073
H	 0.0271059277	 2.1289530307	-0.8907888502	 0.11325
H	 2.0012835808	 0.5492367117	-0.7079894651	 0.111267
H	 1.7952294994	 0.5023711347	 1.1026234487	 0.111842
H	-0.2119855703	-0.6537526613	 2.0394900261	 0.106856
H	-1.7756607005	-0.3151967157	 1.2650286323	 0.087897
H	-0.4937262169	-2.9642197857	-1.1329574971	 0.076463
H	-2.7653404802	-2.4807518673	-2.0093872987	 0.099174
H	-3.141140491	-1.7014612014	-0.4639808422	 0.107003
H	-1.9713515351	-0.3389318239	-2.934203543	 0.099394
H	-2.4068156573	 0.4827099328	-1.4290559294	 0.099003
H	 0.3044053196	-0.6800068836	-2.0547707573	 0.067261
