13
gdb 23914	2.95656	1.91707	1.66082	1.808	46.82	-0.2793	0.0728	0.3521	796.3765	0.090871	-530.092821	-530.085375	-530.08443	-530.12469	27.639	
O	-0.1837312524	 1.3455087181	-0.237459386	-0.45923
C	-0.051443419	-0.020060904	 0.0014540002	 0.264353
C	-0.4050493398	-0.5838753491	 1.3548209107	-0.328706
C	-1.3173652576	-0.7964250529	 0.1648461747	-0.302138
C	 1.0955106923	-0.6324208625	-0.7652912822	 0.232052
F	 2.24890958	-0.0082765759	-0.4485997899	-0.092335
F	 1.2480459316	-1.935723083	-0.4846156368	-0.077104
F	 0.9363595434	-0.5158246024	-2.0872375729	-0.065129
H	 0.6017008174	 1.7833087397	 0.1120591362	 0.292845
H	 0.1564443115	-1.4308018906	 1.7298878441	 0.134461
H	-0.7130256652	 0.1418855027	 2.098230314	 0.126846
H	-2.2298427619	-0.2146101025	 0.1157331579	 0.137212
H	-1.3728183003	-1.7874655575	-0.2692701201	 0.136873
