16
gdb 85575	2.8068	1.42072	1.08582	2.6894	65.6	-0.2616	-0.0062	0.2554	1095.7444	0.124799	-475.092064	-475.083712	-475.082768	-475.125703	30.245	
C	 0.1525821327	 1.5313882108	 0.0149353122	-0.393715
C	 0.0540402159	-0.0061196868	 0.0079084004	-0.133893
N	 0.6447784883	-0.6187103473	-1.1734825962	-0.313107
C	 1.9497090691	-0.9874143309	-1.2633584054	 0.383953
O	 2.5050453077	-1.3114021543	-2.292790344	-0.360717
C	 2.696273986	-0.9574883232	 0.0640772375	-0.19467
O	 1.8886268914	-1.1062074823	 1.2385660884	-0.220225
C	 0.650447669	-0.5752674709	 1.2963911701	 0.440072
O	 0.0487140053	-0.5525249562	 2.333316836	-0.325135
H	 1.1958487546	 1.8619300102	 0.00273215	 0.130163
H	-0.3440561802	 1.9424385845	-0.8686199573	 0.128082
H	-0.3322644597	 1.9305905756	 0.9090685298	 0.154494
H	-1.0019384108	-0.2869704298	 0.043573094	 0.134679
H	 0.1435932339	-0.5654330333	-2.0496373268	 0.257999
H	 3.4064716537	-1.7843035672	 0.0715928516	 0.165687
H	 3.2654353531	-0.0213775589	 0.1302083296	 0.146333
