16
gdb 66302	2.69037	1.50534	1.20145	3.6369	66.77	-0.2668	-0.043	0.2239	1041.8501	0.123799	-475.046624	-475.038336	-475.037392	-475.079677	30.566	
O	-0.1172654237	 1.4080693624	-0.2361870612	-0.473943
C	-0.0080043694	 0.0210869533	-0.0434832054	 0.219168
C	-1.3943037956	-0.6421969335	-0.1013766235	-0.277108
C	-1.5775694544	-0.8312336809	-1.6126194356	-0.094903
O	-0.2540015031	-1.0962436656	-2.1166769713	-0.243176
C	 0.6840103582	-0.6376955972	-1.2469216827	 0.392323
N	 1.935017609	-0.7254051258	-1.3818829943	-0.53466
C	 0.7726546517	-0.270503689	 1.2266800253	 0.126396
O	 1.2313943542	 0.6198109479	 1.8954917184	-0.266152
H	 0.4918089718	 1.8050690821	 0.4079838363	 0.29967
H	-1.3758619873	-1.6160623394	 0.4000929997	 0.117252
H	-2.157590443	-0.0125446191	 0.3563244053	 0.134609
H	-2.2101701454	-1.6792389162	-1.881366287	 0.126616
H	-1.9647594421	 0.0757515958	-2.0880123537	 0.136369
H	 2.181673109	-1.1633497535	-2.2715311625	 0.229413
H	 0.8941435001	-1.3376153413	 1.4942253222	 0.108126
