16
gdb 819	4.9656	1.81417	1.48451	0.6127	64.26	-0.2304	0.0138	0.2442	847.5087	0.135269	-325.72807	-325.720165	-325.719221	-325.760836	28.125	
C	 0.0428778365	 1.4702650766	-0.0013990605	-0.474818
C	-0.0023957972	-0.0353609864	 0.0424377011	 0.359881
N	 0.0255316465	-0.7089002422	 1.1300002418	-0.181193
O	 0.1291574402	 0.1303408357	 2.2542882032	-0.402937
C	-0.0425828982	-0.7897040918	-1.2385875401	-0.069164
C	 1.1929362691	-1.5552679145	-1.697280257	-0.249417
C	-0.0431689975	-2.2949134523	-1.2718068948	-0.263618
H	 0.9558552226	 1.8378284668	 0.4781201422	 0.147486
H	 0.0075912084	 1.839932907	-1.0276795227	 0.116577
H	-0.7939331725	 1.8934458705	 0.5633913341	 0.146397
H	 0.1188122531	-0.5037441517	 2.9785247729	 0.303836
H	-0.5920225811	-0.2813038348	-2.0255225974	 0.087816
H	 1.4500546136	-1.5224844182	-2.7504130812	 0.11169
H	 2.0394622105	-1.560613676	-1.0199561512	 0.122074
H	-0.0260654999	-2.8010710322	-0.3150000379	 0.135964
H	-0.6434622642	-2.7756368866	-2.0360678327	 0.109426
