16
gdb 24251	3.90526	1.60416	1.24998	1.9438	73.78	-0.2177	0.0063	0.224	970.2091	0.128081	-400.766168	-400.759934	-400.75899	-400.796672	25.456	
C	-0.0455931404	 1.4530209405	 0.0974392702	-0.278211
C	 1.2832216691	 0.7463453484	 0.042564854	-0.023081
C	 2.0415373528	 0.4266520492	 1.3546933114	-0.365091
C	 1.0719124944	-0.4987017452	 2.034962263	 0.221432
C	 0.0047711883	-0.7678295752	 1.2553342474	 0.325396
O	-0.8530288285	-1.5674348973	 1.9442401841	-0.199155
C	-0.2108942862	-1.7412547323	 3.1420940112	 0.031247
N	 0.9241462435	-1.1243168097	 3.2623869034	-0.337068
C	-0.0297439465	-0.06028945	-0.0317296191	-0.198184
H	-0.3830875243	 1.8742402947	 1.0389154238	 0.121203
H	-0.3337383476	 2.0223526372	-0.7806094878	 0.116228
H	 1.8712332523	 0.8713476105	-0.8586322459	 0.094833
H	 3.006951116	-0.0504361783	 1.1475090964	 0.117931
H	 2.2509541546	 1.3329900636	 1.9337981781	 0.123736
H	-0.7031748796	-2.3842387233	 3.8542923762	 0.145604
H	-0.3658183179	-0.535478353	-0.9454148266	 0.103179
