17
gdb 72456	2.39374	2.19904	1.54158	1.6053	65.45	-0.2515	0.0591	0.3106	884.191	0.137441	-458.934735	-458.92799	-458.927046	-458.965379	28.205	
O	-0.1083104055	 1.3612365072	 0.0185157995	-0.501732
C	 0.0152044069	-0.030411801	 0.048288126	 0.343586
C	 0.8090226747	-0.6753325852	-1.1250247342	-0.120951
O	 1.0781490451	-2.0136251252	-0.6815038821	-0.277419
C	 0.4885215239	-2.1220338512	 0.6375604092	 0.052228
C	 0.7192684943	-0.7313574664	 1.2367236592	-0.304242
C	-1.0282024471	-2.1355491716	 0.3948722383	 0.036591
O	-1.7956282919	-1.2842299659	 1.2566709604	-0.258127
C	-1.3344384983	-0.7515432157	 0.012497185	 0.023112
H	 0.7734490124	 1.7484907871	 0.050215271	 0.28197
H	 0.2405381317	-0.6910109405	-2.0624567781	 0.106594
H	 1.7540671848	-0.141090032	-1.2989248458	 0.089829
H	 0.9270895419	-2.9872331019	 1.1324550042	 0.082744
H	 1.7828822984	-0.4900738426	 1.3025891593	 0.096
H	 0.218371957	-0.5617324409	 2.1871654426	 0.133287
H	-1.53312001	-3.0056535096	-0.0108915499	 0.107865
H	-2.0939264783	-0.4624222747	-0.7072213348	 0.108666
