16
gdb 123757	4.91901	1.04352	0.95541	5.2834	70.81	-0.2515	-0.0064	0.2452	1212.3622	0.126683	-434.039395	-434.031922	-434.030978	-434.072806	26.866	
C	 0.0121079406	 1.3705968805	-0.2272789664	-0.062286
C	 1.5034617804	 1.5125339219	 0.1295023814	-0.289694
C	 1.3378542734	 0.0885442534	 0.7349234373	 0.020924
O	-0.0056254194	-0.0055719872	 0.2208642845	-0.276841
C	 2.2025381053	-1.0098640376	 0.2267444792	 0.342815
C	 2.1133373425	-1.8207803009	-0.8819955305	-0.140872
N	 3.1839356476	-2.6634200455	-0.9031445666	-0.185038
N	 3.9389144643	-2.4237329936	 0.1282329635	-0.112592
N	 3.3488400992	-1.4267574058	 0.8212778353	-0.26402
H	-0.6670710394	 1.9962704788	 0.3642055697	 0.109619
H	-0.2530024361	 1.4554632252	-1.2859706297	 0.117405
H	 2.1740481777	 1.5446094465	-0.7296983712	 0.127472
H	 1.7672763286	 2.303182073	 0.8327717555	 0.117294
H	 1.3417040391	 0.0930883106	 1.8356875334	 0.08409
H	 1.3426531254	-1.8512386683	-1.6334336267	 0.133676
H	 3.7803472508	-1.0982429411	 1.6707147215	 0.278049
