14
gdb 129837	4.24135	0.95967	0.82141	3.9386	69.22	-0.2311	-0.0054	0.2257	1316.8558	0.101631	-432.879702	-432.871624	-432.87068	-432.91317	29.338	
N	-0.1365999334	 1.316660639	-0.2246603494	-0.593496
C	-0.094167865	-0.0419892164	-0.0635527739	 0.503617
C	-0.9161785503	-1.06327586	-0.45901906	-0.43486
C	-0.3011063502	-2.2021100943	 0.1181362121	 0.417932
C	-0.7504437069	-3.6386777804	 0.0721874876	-0.444286
C	-1.0821038447	-4.0879736579	-1.2805654182	 0.265614
N	-1.3588517457	-4.4355943797	-2.3467083522	-0.307584
N	 0.7846989031	-1.9140935944	 0.7946878725	-0.218866
O	 0.9155831901	-0.5157419151	 0.6789906047	-0.211912
H	 0.7481321612	 1.785245692	-0.0925183922	 0.272619
H	-0.6444593565	 1.6398648661	-1.0334555075	 0.27201
H	-1.8020192826	-1.0138638237	-1.0682008311	 0.125989
H	 0.0423317724	-4.2695817266	 0.4849272351	 0.181627
H	-1.6362194917	-3.7764789187	 0.7043868426	 0.171596
