12
gdb 130543	3.68764	1.20485	0.90814	3.2839	69.04	-0.2804	-0.0829	0.1975	1155.5938	0.076773	-435.453474	-435.445996	-435.445052	-435.486162	26.697	
O	-0.0071121597	-0.0612402762	 0.0028734467	-0.301027
C	-0.0287051962	 1.1548076625	 0.0062803306	 0.178325
C	 1.1943670884	 1.9427553015	 0.0001161992	 0.25157
C	 2.207930471	 2.5917026858	-0.0050323738	-0.432924
C	-1.2823885478	 1.9161104463	 0.0168152927	 0.063229
C	-1.4916983342	 3.2662966145	 0.0218559213	-0.011133
O	-2.7917066312	 3.5386191789	 0.0313382228	-0.160053
N	-3.5144693411	 2.3313721137	 0.0330575159	-0.123034
C	-2.6112128921	 1.391064813	 0.0244205392	-0.031459
H	 3.1151370532	 3.1463701347	-0.0099335447	 0.220854
H	-0.8200294891	 4.110860664	 0.0195627103	 0.17882
H	-2.9108272111	 0.3534218414	 0.0236877799	 0.166833
