16
gdb 48707	3.89848	1.14247	1.011	1.7919	71.17	-0.2578	-0.0364	0.2214	1158.7014	0.123371	-437.826305	-437.818563	-437.817619	-437.85885	29.139	
O	-0.5438089097	 0.7897118688	 0.7027749372	-0.263166
C	 0.2256356254	 0.9903411803	-0.2055987983	 0.087338
C	 1.3794635039	 1.9040914325	-0.1141313947	 0.22633
C	 1.8033641561	 2.7320163457	 1.1085956161	-0.406575
C	 2.0818452952	 3.8996684957	 0.1412845071	 0.448873
C	 1.9234787535	 5.3355950901	 0.3536147721	-0.262777
O	 3.2199892637	 4.7424128861	 0.1727969128	-0.2692
C	 1.6902630052	 3.069837703	-1.0649843982	-0.174557
N	 2.4291145324	 1.8264859179	-1.1248002408	-0.352318
H	 0.1160307485	 0.5072904459	-1.1999993989	 0.089256
H	 0.9785912673	 2.9264259055	 1.7965283578	 0.142266
H	 2.6609843504	 2.342153981	 1.6640914941	 0.119238
H	 1.58723887	 5.9736261222	-0.4627599513	 0.123447
H	 1.715385699	 5.7104951289	 1.35453551	 0.125639
H	 1.1566343626	 3.3977469356	-1.9499119587	 0.11515
H	 3.3604917565	 1.8928328805	-0.7179245563	 0.251055
