19
gdb 118025	2.72586	0.97561	0.74979	5.3846	72.36	-0.2508	0.0287	0.2795	1473.8453	0.158653	-456.343726	-456.333569	-456.332625	-456.379219	36.727	
N	-1.0744180018	 1.5918354873	-0.3534418896	-0.515966
C	-0.1183318327	 0.4922290762	-0.2159390612	-0.122257
C	-0.8203036747	-0.7267326814	 0.2076622461	 0.291059
N	-1.3567246055	-1.7065333568	 0.5032468689	-0.331156
C	 0.7299047924	 0.2166357576	-1.4877637965	 0.135115
O	 1.2705128407	 1.4759616818	-1.8384273123	-0.455833
C	 1.8164774094	-0.8414596	-1.2592202972	-0.230705
C	 2.5891894851	-1.1923419896	-2.5256496891	-0.097153
O	 3.2764506233	-0.0178796001	-2.9747816313	-0.41872
H	-0.5587081658	 2.3793101661	-0.7386516906	 0.254326
H	-1.7764167986	 1.344137127	-1.0467489527	 0.234716
H	 0.5841658251	 0.7675053685	 0.581934313	 0.133052
H	 0.0413885307	-0.1425843322	-2.2748991508	 0.065511
H	 2.0379286074	 1.3044740685	-2.4048188409	 0.29718
H	 2.5186464659	-0.4748994469	-0.5003014274	 0.118373
H	 1.3595013682	-1.7594345846	-0.8740145471	 0.132035
H	 3.3082975701	-1.9963792266	-2.3170903617	 0.107015
H	 1.895758781	-1.5531576316	-3.2996548217	 0.104138
H	 3.6368385598	-0.1814083531	-3.8511647179	 0.299269
