17
gdb 55055	4.11267	0.89254	0.82713	3.3619	77.01	-0.2314	0.0071	0.2385	1394.7478	0.133935	-417.968608	-417.95899	-417.958046	-418.003748	34.556	
N	-0.3119152779	 1.0113910601	-1.6043223463	-0.536126
C	-0.3843645915	-0.3368710383	-1.7925758077	 0.423446
O	 0.2964789214	-0.9155675122	-2.6237139745	-0.374214
C	-1.373302526	-1.0307337403	-0.8944530882	-0.114793
C	-1.958413998	-2.323689467	-1.3724678277	-0.229704
N	-1.0661086183	-2.3099199754	-0.2344052138	-0.088406
C	 0.2688080521	-2.9139554575	-0.3933417234	-0.333522
C	 0.2034715115	-4.3475034183	-0.1312530773	 0.326504
C	 0.1570513061	-5.5315245202	 0.0665877159	-0.441809
H	 0.3330605693	 1.5371509724	-2.1708820804	 0.265376
H	-0.8336013749	 1.4882812039	-0.8909396796	 0.263991
H	-1.9827093757	-0.3739888097	-0.2762291397	 0.086432
H	-2.999872228	-2.5508809411	-1.1621337106	 0.119328
H	-1.5718952527	-2.6852872965	-2.3229418933	 0.142312
H	 0.699063789	-2.7329853314	-1.3864533894	 0.16571
H	 0.9316990395	-2.4362231764	 0.3387907043	 0.130266
H	 0.119654154	-6.5775454121	 0.2443606117	 0.19521
