18
gdb 62215	2.85001	0.78384	0.74404	3.8664	73.21	-0.2628	-0.032	0.2307	1577.6207	0.144536	-439.094954	-439.084764	-439.08382	-439.131734	34.475	
C	 0.3807726457	 1.5322067703	-0.3381177415	-0.405019
C	 0.0963085132	 0.0446431859	-0.0629223402	-0.102057
C	 1.0032735843	-0.5483681109	 1.0083659388	-0.072488
O	 2.3378916537	-0.5165456062	 0.5087190539	-0.237792
C	 3.2919844337	-1.0146103476	 1.4068969895	-0.1902
C	 3.5101376548	-0.1273515519	 2.5686140834	 0.251829
N	 3.6707151459	 0.5739435305	 3.4724735497	-0.30053
C	-1.3641097857	-0.1575995122	 0.2860850497	 0.153578
O	-1.7670414698	-0.7352800445	 1.2635781138	-0.243278
H	 1.4180134269	 1.6599004992	-0.6526612404	 0.147159
H	-0.2706706214	 1.9194566355	-1.1275408305	 0.122521
H	 0.2201854008	 2.1340992108	 0.562474893	 0.134364
H	 0.2633959837	-0.5079850492	-1.0009141064	 0.112313
H	 0.9256790182	 0.0321563555	 1.9384176393	 0.126675
H	 0.7074707803	-1.5814427645	 1.2368365448	 0.113561
H	 3.0202645744	-2.0131048162	 1.7834701437	 0.142829
H	 4.2335835858	-1.1074434325	 0.8573209321	 0.161832
H	-2.0724195446	 0.2858572281	-0.4511772127	 0.084702
