19
gdb 122925	4.7421	0.60043	0.57896	6.6626	74.3	-0.2558	0.0235	0.2793	1887.7764	0.158597	-456.331611	-456.321409	-456.320464	-456.367964	35.7	
O	-0.0450678153	 1.3334981553	-0.1014647881	-0.422025
C	 0.0061971828	-0.0880933578	-0.138730327	-0.088067
C	-1.4264809086	-0.585691354	-0.0441221249	-0.123185
N	-2.1933652888	-0.100737229	-1.1897783288	-0.316823
C	-3.6167917735	-0.40658374	-1.1467503441	-0.16741
C	-4.18043996	-0.2042352657	-2.5722939631	-0.01371
O	-3.3854392303	-0.885542232	-3.5123627437	-0.421711
C	-5.5662199149	-0.690908654	-2.6505732884	 0.28376
N	-6.6635216341	-1.0501794417	-2.6760950281	-0.31829
H	 0.8283900537	 1.6789735573	-0.3054537014	 0.295763
H	 0.4550127067	-0.4446827855	-1.0772477963	 0.10058
H	 0.5914591751	-0.4917773505	 0.7005541276	 0.097826
H	-1.4322803467	-1.681780912	-0.0452869388	 0.113576
H	-1.8521293498	-0.2534113434	 0.9179096573	 0.101484
H	-2.0448575603	 0.9028178464	-1.2542151785	 0.238051
H	-3.734630979	-1.4614256775	-0.8773562837	 0.130855
H	-4.1912900736	 0.1910066821	-0.4222882442	 0.112235
H	-4.2068967805	 0.8785269466	-2.7890906235	 0.109487
H	-2.4935836529	-0.8341906046	-3.1257789724	 0.287604
