18
gdb 29283	4.48131	1.02771	0.87863	0.8556	81.41	-0.1627	0.0574	0.2201	1318.6132	0.149274	-398.121379	-398.112772	-398.111828	-398.154886	32.649	
N	 0.0736198525	 1.3418906612	 0.5670567882	-0.607313
C	 0.0084589556	 0.0013166923	 0.1313554595	 0.266879
C	-1.0323009478	-0.6149061257	-0.5227832545	-0.17818
N	-0.7035036568	-1.9583597286	-0.6536617598	-0.311915
C	 0.5295893202	-2.1853255526	-0.1133277415	 0.359052
C	 1.0030027978	-0.9923958267	 0.3934376152	-0.303434
N	 1.1022297173	-3.4635198703	-0.2172652719	-0.168468
C	 2.1034728538	-3.8417416792	 0.7693968824	-0.218946
C	 0.7563310521	-4.4703759777	 0.8024756171	-0.230777
H	 1.0081454198	 1.7213963218	 0.4728272259	 0.236198
H	-0.562845937	 1.9384764512	 0.0526921301	 0.233763
H	-1.9746153491	-0.2319148002	-0.8779663913	 0.098649
H	-1.223923189	-2.6428890064	-1.1721823411	 0.255746
H	 1.9482907205	-0.8380960745	 0.8899060633	 0.079099
H	 2.9577491206	-4.386417686	 0.3787333182	 0.119621
H	 2.3305850282	-3.1293360709	 1.5582982407	 0.12644
H	 0.0845473865	-4.1624693661	 1.5996138356	 0.125267
H	 0.6074805348	-5.4774038017	 0.4250353439	 0.118319
