16
gdb 15626	3.39315	1.80543	1.20536	0.5389	68.87	-0.2256	-0.0498	0.1758	983.4363	0.131159	-379.962891	-379.95472	-379.953776	-379.996218	28.452	
C	-0.0058030471	 1.4320894037	-0.0624287396	-0.317849
N	-0.0089400362	-0.005308168	 0.0999239375	-0.350242
C	 0.6369873275	-0.6281707526	 1.1077443469	 0.299088
N	 1.2277702562	-0.075456858	 2.1078030398	-0.305506
C	 1.7645609525	-1.1228485966	 2.9907828476	-0.165967
C	 1.4293883029	-2.5000461715	 2.3755684146	-0.352553
C	 0.6843351836	-2.1329545929	 1.103016997	 0.348431
O	 0.2249328773	-2.8440307908	 0.2422576883	-0.329668
H	 0.980088315	 1.8160457104	-0.3571639281	 0.129196
H	-0.7359531194	 1.7103138873	-0.825146585	 0.125959
H	-0.2785722089	 1.910047043	 0.8826154521	 0.151169
H	-0.3038613382	-0.6032778183	-0.6559046965	 0.258542
H	 2.8452564117	-0.9769639531	 3.1027528688	 0.113872
H	 1.3333686058	-1.0045409736	 3.9917497887	 0.113759
H	 2.3116308719	-3.0987837346	 2.130296142	 0.14063
H	 0.7896601554	-3.1200932044	 3.0111110262	 0.141138
