17
gdb 96628	3.61418	0.95266	0.75772	3.5234	77.47	-0.2418	-0.0417	0.2001	1464.2347	0.135489	-451.365045	-451.355135	-451.354191	-451.400309	34.512	
C	-0.0875383682	 1.2978065914	 0.1881858662	-0.345201
N	 0.0064313558	-0.1396550374	 0.0184985321	-0.314874
C	 0.6431182863	-0.5805820132	-1.0016874204	 0.295317
N	 1.2838116617	 0.1099768014	-1.9790199564	-0.548013
C	 0.7620903777	-2.090422631	-1.2018917532	 0.413436
O	 1.3176031904	-2.5478933405	-2.1769851051	-0.350113
N	 0.1729144351	-2.7795105743	-0.1726114911	-0.329777
C	 0.0585679036	-4.1493013308	 0.0207324921	 0.082132
N	 0.5172028994	-5.0233611156	-0.7749996253	-0.401199
H	 0.9043148261	 1.7728049644	 0.2447222744	 0.119248
H	-0.6352191784	 1.7777303615	-0.6390775428	 0.113614
H	-0.6232180824	 1.5257949454	 1.1123628349	 0.128765
H	 1.1267985986	 1.093092836	-2.1085187147	 0.2631
H	 1.6246630603	-0.4423394926	-2.7522784436	 0.279408
H	-0.231318	-2.1515131068	 0.5162367469	 0.268023
H	-0.4804748732	-4.3575959718	 0.9535152516	 0.097441
H	 0.3085253972	-5.953702786	-0.4154482655	 0.228692
