20
gdb 86590	3.47686	0.99832	0.84027	2.6029	80.54	-0.2335	-0.0227	0.2108	1412.9181	0.170355	-403.130798	-403.121605	-403.120661	-403.165615	33.581	
C	 0.084432651	 1.663318402	-0.1469520128	-0.406574
C	 0.0877542102	 0.1478622986	-0.0052851343	-0.085169
C	 0.669233005	-0.7600271923	-1.1363059055	-0.278996
C	 1.425158724	-1.6297357183	-0.0763992147	-0.121153
C	 2.8561312968	-2.0268848001	-0.3019391032	 0.02755
C	 3.4444273746	-3.1791906049	 0.4228491815	-0.238787
N	 3.1963119901	-3.2657888096	-1.0272347478	-0.32825
C	 1.1321103473	-0.4882395439	 0.9274773528	 0.37654
O	 1.6464982475	-0.1398106172	 1.9505111012	-0.300685
H	 1.0705329112	 2.0310399005	-0.4486260776	 0.122148
H	-0.6431385314	 1.9897065025	-0.896529931	 0.120751
H	-0.1699957258	 2.1371339501	 0.8057226017	 0.136225
H	-0.9072461087	-0.2112594494	 0.2892703918	 0.102803
H	-0.0510186472	-1.2794750746	-1.7694114226	 0.108311
H	 1.370341788	-0.2115837534	-1.7720964224	 0.116223
H	 0.8277113169	-2.5094818013	 0.1987215656	 0.091465
H	 3.5156544522	-1.1975473921	-0.5515531244	 0.094248
H	 4.4916688858	-3.1634330652	 0.7093304792	 0.124316
H	 2.8003429872	-3.7346733703	 1.0999192157	 0.112417
H	 2.3510488549	-3.8061930411	-1.1986884432	 0.226618
