22
gdb 12413	2.75739	1.93354	1.3992	1.295	77.51	-0.2429	0.0801	0.3231	996.9684	0.201893	-350.223865	-350.215588	-350.214644	-350.255905	32.445	
C	-0.0581766522	 1.5661557154	-0.0492608292	-0.413398
C	 0.0545182995	 0.039635738	-0.0098803867	 0.038063
C	 0.6750410356	-0.5290574301	-1.2987093425	-0.201953
C	 0.7974969766	-2.0524040327	-1.2172941204	-0.077851
O	 1.5040440351	-2.4653513153	-0.0599187101	-0.244503
C	 0.8616445762	-2.0355914143	 1.1289556653	-0.083159
C	 0.8066259249	-0.5029178081	 1.2342450503	 0.012308
C	 2.2145998357	 0.0769692903	 1.4359836587	-0.394742
H	 0.9163505532	 2.0413921034	-0.200815436	 0.11801
H	-0.7085877042	 1.8850715912	-0.8709236019	 0.109371
H	-0.4802616337	 1.9583501632	 0.8827722937	 0.108744
H	-0.9679988984	-0.3628298415	 0.0569486912	 0.065525
H	 0.0623336435	-0.2565859775	-2.1670531674	 0.089679
H	 1.6685194721	-0.0945609117	-1.4630132651	 0.102328
H	-0.2097149896	-2.5065647889	-1.220957454	 0.080304
H	 1.3483975073	-2.4549569814	-2.072657367	 0.102525
H	-0.1612351177	-2.4498820437	 1.1720314904	 0.077635
H	 1.4340876564	-2.4670380576	 1.9565032682	 0.098588
H	 0.2060606117	-0.257365188	 2.1215022073	 0.063342
H	 2.8817365102	-0.1988940788	 0.6150025948	 0.127701
H	 2.2015499133	 1.1670869559	 1.5177857271	 0.111506
H	 2.6552563446	-0.315510018	 2.3587053934	 0.109975
