16
gdb 61199	3.89614	0.84121	0.78583	6.1613	71.79	-0.2798	0.0077	0.2876	1428.8518	0.121282	-437.853598	-437.843733	-437.842789	-437.88873	35.138	
O	 0.0194439535	 1.5021730152	-0.1256541409	-0.421666
C	 0.0168008764	 0.1029380263	-0.0295983797	 0.145206
C	 0.6365131049	-0.5594844329	-1.2860395606	-0.37526
C	-0.0569019179	-0.1744292949	-2.5109048515	 0.268396
N	-0.6112164221	 0.1126286443	-3.482870298	-0.303335
C	 0.7894652066	-0.3551383035	 1.2296862321	-0.096549
O	 2.0936901959	 0.2210407912	 1.097213204	-0.439323
C	 0.1324283208	 0.0693162948	 2.462716326	 0.299706
C	-0.3731008546	 0.403332906	 3.5002843541	-0.422392
H	 0.9198927843	 1.7859923692	 0.0824564749	 0.292774
H	-1.0269358054	-0.2104947964	 0.0643562522	 0.119918
H	 1.6905955723	-0.272544445	-1.3599762096	 0.165787
H	 0.6029653809	-1.651463741	-1.1930285836	 0.14644
H	 0.8625506691	-1.4537825116	 1.2251555496	 0.106486
H	 2.4870264181	 0.2832653398	 1.9732674913	 0.302816
H	-0.8351725327	 0.7056266283	 4.4081865898	 0.210994
