19
gdb 67162	2.7376	1.50419	1.45909	3.1285	78.68	-0.2316	-0.0081	0.2234	1021.7225	0.16042	-385.898805	-385.891215	-385.890271	-385.930618	30.391	
C	 0.0137715811	 1.5375977738	-0.0921715801	-0.516306
C	 0.0024683804	 0.0424993447	 0.0023746082	 0.341678
C	 0.4811404968	-1.0462485036	-0.948339372	-0.114424
C	 1.227886699	-1.7510460163	 0.1806976392	-0.243907
C	 0.4711897484	-0.8285582091	 1.2091433691	-0.207824
C	-0.7614857069	-1.5882209336	 1.6758187367	 0.419583
O	-1.0077413456	-1.965467469	 2.7914486622	-0.327805
C	-1.642642867	-1.7981062701	 0.4264997177	-0.354076
C	-1.0000450776	-0.9037535062	-0.6176161729	-0.096373
H	 1.0125058734	 1.9486894126	 0.09420034	 0.121444
H	-0.2983985614	 1.8632931672	-1.0901398605	 0.121962
H	-0.671823013	 1.9910815953	 0.6336658363	 0.124708
H	 0.826700179	-0.9481191448	-1.9714658885	 0.083971
H	 1.1141304191	-2.8352802154	 0.293910246	 0.102844
H	 2.2926390859	-1.5081171499	 0.172408579	 0.11498
H	 1.0610001411	-0.3913386434	 2.0118815557	 0.085073
H	-1.6766023729	-2.8621798153	 0.1669318056	 0.128171
H	-2.668937029	-1.4921111412	 0.6549596879	 0.128875
H	-1.6098382309	-0.5177162255	-1.4272849894	 0.087426
