15
gdb 45456	2.66877	1.68748	1.23347	5.1906	65.31	-0.2333	-0.097	0.1362	991.265	0.112759	-457.766492	-457.759109	-457.758164	-457.799115	27.17	
O	-0.0585101661	 0.2604096714	 0.8191550796	-0.271125
C	-0.0813248589	 1.2949443684	 0.2120165706	 0.305468
C	-1.2950040403	 2.0022495209	-0.3842962529	-0.353186
C	-0.8561174683	 3.4376134843	-0.7313316088	-0.10221
C	-0.8800323997	 4.4364805507	 0.4416862597	-0.073033
O	 0.5479158828	 4.3042691686	 0.6423737095	-0.285324
C	 0.6899544407	 3.5121701706	-0.5653901044	 0.006463
C	 1.1819056911	 2.1325987376	-0.154001272	 0.324315
O	 2.3112201625	 1.7308696439	-0.1044927169	-0.274631
H	-1.5737653944	 1.4490221229	-1.2903824755	 0.147665
H	-2.153347413	 1.9523407006	 0.2914615506	 0.143755
H	-1.2755274971	 3.7974142838	-1.6696339803	 0.097218
H	-1.1483443178	 5.4636300281	 0.1672853175	 0.114722
H	-1.4497445066	 4.1385741175	 1.3293169151	 0.117363
H	 1.2990960352	 4.0022797707	-1.3292567717	 0.10254
