16
gdb 35141	4.49508	0.95372	0.87203	3.6065	80.85	-0.2685	-0.0118	0.2568	1301.791	0.124514	-363.602068	-363.59382	-363.592876	-363.635411	30.712	
C	-0.0087690379	-1.294969359	 0.0117670052	-0.455245
C	 0.0079424779	-0.0935667982	-0.0159523459	 0.308549
C	 0.0323931292	 1.3641659914	-0.0394109204	-0.195534
C	-0.6801636763	 2.0167245033	 1.18348874	-0.239718
C	 0.1410071574	 3.3030648544	 1.5005745928	-0.201347
C	 1.487010666	 3.0118194742	 0.8509131403	-0.082526
C	 1.4263193105	 1.9692854278	 0.0307642828	-0.051809
C	-0.4652629435	 4.5208280382	 0.947097886	 0.268986
N	-0.9409540758	 5.4776701775	 0.5057671806	-0.324462
H	-0.0255126323	-2.3566469944	 0.0311317429	 0.201485
H	-0.4468528002	 1.6986099443	-0.9716641444	 0.129866
H	-1.7352018826	 2.2204200926	 0.9981878292	 0.134109
H	-0.6071427948	 1.3400813759	 2.0372630282	 0.130998
H	 0.2307964051	 3.4539587336	 2.5823835147	 0.131871
H	 2.3531709577	 3.6368834455	 1.0283596431	 0.122609
H	 2.2448804495	 1.5813102828	-0.5628411251	 0.122168
