14
gdb 127288	5.52466	1.31639	1.07025	4.121	71.84	-0.2343	-0.0341	0.2002	1048.6646	0.104139	-429.026721	-429.019727	-429.018782	-429.058692	25.877	
C	 0.0235451116	 1.3941162171	 0.0678842851	-0.31485
N	 0.0107867455	-0.0521776026	-0.0151493	 0.053239
C	-0.1567899454	-0.7994756005	-1.1365594826	-0.155694
C	-0.0921964334	-2.1191169547	-0.7028576944	 0.206399
N	-0.1447344161	-3.4484301765	-1.0532334779	-0.294845
N	 0.0159069721	-4.1419231105	 0.0230852283	-0.100175
N	 0.1775722229	-3.3009633514	 1.1047146026	-0.349516
C	 0.1149033637	-2.0127466537	 0.6837191521	 0.472311
N	 0.1831510318	-0.7653633165	 1.1395609666	-0.408052
H	 0.9821750528	 1.7364905146	 0.4654933218	 0.157113
H	-0.1260406879	 1.8072031599	-0.930348487	 0.144393
H	-0.7762147925	 1.7367814621	 0.7291196538	 0.15713
H	-0.3006572104	-0.3403917001	-2.1002551294	 0.150756
H	 0.3136871553	-3.701702337	 2.0164771809	 0.281792
