13
gdb 35158	2.50853	1.33495	1.0144	2.8017	77.33	-0.2695	-0.0261	0.2434	1143.2707	0.086424	-378.372319	-378.363628	-378.362684	-378.405719	31.695	
C	-0.1459658065	-1.1904309582	-0.0304100513	-0.395733
C	-0.0604197053	 0.0064956892	 0.0184424347	 0.391327
C	 0.0150740717	 1.4368158599	 0.0346979804	-0.31037
N	 0.5331271825	 2.0939778882	 1.2374891335	-0.327324
C	 1.3650560319	 2.1590682359	 0.0137661711	-0.019335
C	 2.6058854712	 1.4340055902	 0.0201155161	 0.307778
C	 3.6447857263	 0.8338769927	-0.0041631772	-0.383515
C	 1.3786747131	 3.4099301392	-0.7182570435	 0.239826
N	 1.3658979575	 4.4192235909	-1.2824144315	-0.33223
H	-0.21443937	-2.2501205432	-0.0632587512	 0.211527
H	-0.7669618748	 1.9491111352	-0.521759491	 0.143681
H	 0.0650445505	 2.9863940671	 1.3835678865	 0.263039
H	 4.5639351919	 0.3010433028	-0.0151340766	 0.211328
