20
gdb 119514	3.78411	1.01043	0.92272	1.7084	78.23	-0.2181	0.073	0.2911	1325.189	0.17048	-403.051388	-403.042735	-403.041791	-403.085096	33.193	
O	-0.0172694727	 1.3764502778	 0.1124071123	-0.420395
C	 0.0297415818	-0.037038725	-0.0200517278	-0.07259
C	-1.4075776943	-0.5471379329	 0.055086905	-0.288771
C	-1.5267793504	-2.0428749408	-0.0438293026	 0.321867
C	-2.3961206183	-2.8571342039	 0.8319475749	-0.298743
N	-0.9278940506	-2.9607637853	 0.9979066062	-0.183744
C	-0.3309716235	-3.7695704979	-0.1389426492	 0.010959
C	-1.2540458227	-4.3025634377	-1.197099847	-0.311311
C	-0.8777441672	-2.844940938	-1.2001844247	-0.120249
H	 0.8857263045	 1.7061503173	 0.1256807912	 0.285435
H	 0.4916211438	-0.3274761754	-0.9769690106	 0.082785
H	 0.6168104971	-0.5021675771	 0.7850677153	 0.106742
H	-1.8384617981	-0.2064449756	 1.0023742065	 0.11308
H	-1.9936930615	-0.0793682066	-0.7471626363	 0.109411
H	-2.8554074737	-2.3426435357	 1.6715231114	 0.120649
H	-2.9763931071	-3.6969483566	 0.4690195974	 0.117264
H	 0.667594308	-4.1565438077	 0.0190529606	 0.10129
H	-0.729488686	-4.8820120582	-1.9517166632	 0.117342
H	-2.2600118742	-4.6614653144	-1.0126328784	 0.115782
H	-0.3724979648	-2.3725322163	-2.032074191	 0.093196
