18
gdb 49314	3.25534	1.21476	0.92819	4.0458	76.28	-0.2508	-0.0615	0.1893	1243.4999	0.148306	-439.102189	-439.093826	-439.092882	-439.135903	30.566	
O	-1.0105674496	 1.3515002879	 0.2825977186	-0.246413
C	 0.1421208655	 1.0325517821	 0.4016234494	 0.131564
C	 1.316281597	 1.9076185819	 0.032791703	 0.273157
N	 2.4605199419	 1.3938818417	 0.2194526958	-0.272684
C	 3.7230325453	 2.0983432721	 0.07981179	-0.151437
C	 3.9545643253	 2.9285079839	-1.1889091457	-0.208389
C	 3.0277741517	 4.1373759107	-1.3102168543	-0.202045
C	 1.5702073455	 3.7503706822	-1.516314204	-0.070844
O	 0.9377821815	 3.137159392	-0.3858537971	-0.249053
H	 0.4706899447	 0.052878353	 0.8011153653	 0.09994
H	 3.8282291547	 2.7569944608	 0.9564400385	 0.120695
H	 4.5168528433	 1.3492862736	 0.1638521862	 0.112788
H	 4.9986716109	 3.2621809318	-1.1793072474	 0.10492
H	 3.8399626244	 2.2830464455	-2.0696193811	 0.106288
H	 3.1098521471	 4.7732929225	-0.4195999032	 0.110039
H	 3.3260380605	 4.7519319907	-2.1685178693	 0.106177
H	 0.958151527	 4.6335795458	-1.7131647414	 0.124918
H	 1.4780300932	 3.0736227419	-2.3771100135	 0.110378
