13
gdb 131082	5.1157	0.84071	0.7585	1.2658	60.82	-0.2891	-0.0534	0.2356	1379.0133	0.088074	-489.869795	-489.861939	-489.860994	-489.904498	26.477	
O	 0.2015963635	 0.0847851441	-0.2070182922	-0.258318
C	 0.2461907983	 1.2734744779	-0.2611308157	 0.176036
O	 0.8928801804	 2.0173227977	 0.6674573693	-0.176475
C	 0.9383650336	 3.4308730742	 0.4762209983	-0.198684
C	 2.3249689428	 3.8427432385	 0.1009436491	 0.234549
C	 3.482219914	 3.1351967881	 0.0381165953	-0.031395
O	 4.4607119182	 3.9533136323	-0.3427386489	-0.155537
N	 3.8674598367	 5.23647453	-0.5204282354	 0.005469
N	 2.6415394517	 5.1342206335	-0.2567774341	-0.176464
H	-0.2281778921	 1.8914288343	-1.0478948257	 0.091229
H	 0.2232052157	 3.7470080118	-0.2943099428	 0.141087
H	 0.6318659159	 3.8945400027	 1.419160714	 0.156775
H	 3.7325653315	 2.1052129049	 0.2278254888	 0.191729
