18
gdb 11296	4.43524	1.32462	1.16503	1.9872	73.61	-0.252	0.0591	0.3111	1055.3283	0.153986	-347.784456	-347.77631	-347.775366	-347.817215	30.823	
O	-0.7575552407	 1.1559217789	 0.8411514931	-0.436287
C	 0.0302126711	 0.2268216825	 0.0978678035	 0.104351
C	 0.9009917271	-0.6602731156	 1.0177085252	-0.235536
C	 0.0346477907	-1.9007384726	 1.3714114785	-0.213318
C	-1.3254194145	-1.6826126169	 0.6421502499	-0.147047
C	-0.9514445561	-0.7555786151	-0.539791857	-0.20521
C	-1.9970824818	-2.9136097913	 0.2579137875	 0.296064
C	-2.5389569265	-3.9363423227	-0.0691272776	-0.446854
H	-0.1604172906	 1.7047404422	 1.3588309037	 0.281008
H	 0.6333586752	 0.7576430987	-0.6520704637	 0.060867
H	 1.8129047311	-0.9619965247	 0.4927617811	 0.103055
H	 1.2180125424	-0.1003456993	 1.9036544872	 0.090195
H	 0.5032653814	-2.8164923515	 1.0018427873	 0.112299
H	-0.109852075	-2.0272177491	 2.4465334742	 0.108523
H	-1.9834927934	-1.1089924262	 1.3040054832	 0.118418
H	-1.8143208172	-0.2499753002	-0.9778541513	 0.116517
H	-0.4501556152	-1.3325238068	-1.3240482574	 0.10486
H	-3.0246623381	-4.8368827502	-0.3519858773	 0.188094
