21
gdb 56891	3.30218	0.93544	0.78057	1.335	84.97	-0.2617	0.0338	0.2955	1504.5276	0.180254	-387.044311	-387.034301	-387.033357	-387.079417	37.365	
C	-0.8218836975	 1.0455193719	-0.1035607111	-0.409015
C	 0.2457622544	-0.0188968396	 0.0964588284	 0.064983
C	 1.45811539	-0.0492267652	-0.8804128939	-0.253304
C	 2.4048501598	-0.2791046583	 0.3292487963	 0.002036
C	 1.2478385435	 0.1477315051	 1.2770354921	-0.248372
C	 2.8360418534	-1.7455963427	 0.4868538817	-0.059086
O	 3.604480663	-2.1933160055	-0.6270190706	-0.420075
C	 3.5480278281	-1.954070546	 1.7528657293	 0.300713
C	 4.1681886583	-2.0879728893	 2.7744594119	-0.449635
H	-0.3744058377	 2.045280625	-0.1516390427	 0.109612
H	-1.3761470575	 0.883989312	-1.0350473347	 0.114577
H	-1.5460201387	 1.0443380849	 0.7190188409	 0.113708
H	-0.2286639965	-1.0055754909	 0.1407569969	 0.071653
H	 1.4728834355	-0.8153606075	-1.6590678507	 0.11045
H	 1.625103159	 0.9255092868	-1.3490745119	 0.091597
H	 3.3027295953	 0.3465241282	 0.3642119159	 0.063904
H	 1.340949187	 1.192582464	 1.5877647619	 0.097456
H	 1.0909044009	-0.4626452467	 2.1706747071	 0.103176
H	 1.9415312696	-2.3815353307	 0.4747068723	 0.114641
H	 4.4605789628	-1.7526640597	-0.5814248224	 0.282797
H	 4.7062489873	-2.2253142258	 3.6798147832	 0.198186
