22
gdb 60288	5.27461	0.59746	0.56284	2.8579	91.5	-0.2244	0.0279	0.2523	2057.0735	0.191532	-404.341386	-404.33101	-404.330065	-404.377741	37.561	
C	-0.1731002217	 1.4728587856	 0.0506321593	-0.382271
C	 0.0406037096	-0.0388028675	 0.011236117	 0.129055
C	 0.8630836563	-0.493621885	-1.1866804259	-0.388163
O	 0.755985704	-0.4668842783	 1.1836862369	-0.215896
C	 0.0294707461	-0.6701742434	 2.2990651824	 0.112332
N	 0.5921011699	-0.8879288797	 3.4053827138	-0.223522
C	-0.2336636426	-1.1399083329	 4.5340695895	 0.078051
C	 0.2737942533	-2.1257056129	 5.5614227339	-0.272792
C	 0.2595416973	-0.6537239938	 5.8774256162	-0.272957
H	 0.7902923165	 1.9901753124	 0.0907689367	 0.132714
H	-0.7121745122	 1.8072298318	-0.8412996981	 0.118383
H	-0.7547170727	 1.7650843885	 0.9301164365	 0.121324
H	-0.9353088016	-0.5464281012	-0.0044306849	 0.081763
H	 1.850063517	-0.0215749236	-1.1711140198	 0.131992
H	 1.0007390037	-1.577668818	-1.1696047953	 0.128261
H	 0.3619288224	-0.2184024826	-2.1192193409	 0.117275
H	-1.0610376041	-0.6498226449	 2.1451145534	 0.072543
H	-1.3145964605	-1.1169549215	 4.3733527793	 0.068393
H	-0.4495055585	-2.7714077725	 6.0469981629	 0.108522
H	 1.2322604634	-2.5855964155	 5.3525221882	 0.123533
H	 1.2085405061	-0.131033067	 5.8790325966	 0.123173
H	-0.4733437518	-0.277859498	 6.5827635323	 0.108288
