14
gdb 125473	5.37162	1.29438	1.04987	3.5667	71.14	-0.2285	-0.0274	0.2011	1068.437	0.10308	-432.874404	-432.867458	-432.866514	-432.905781	26.435	
C	-0.0236302394	 1.4811012493	 0.0446145369	-0.503329
C	-0.0033803951	-0.0061456054	-0.0460525918	 0.330675
N	-0.0522858385	-0.6918412843	-1.1579815113	-0.382567
C	-0.0075073228	-2.0167830994	-0.7405240951	 0.148986
C	-0.0058858712	-3.3256033578	-1.1134171669	-0.038505
O	 0.0671998659	-4.0967555612	-0.0041997787	-0.177965
N	 0.1177590167	-3.3065362199	 1.1681376794	-0.28657
C	 0.0707770646	-2.0953086209	 0.6763632915	 0.45993
N	 0.0727487288	-0.7926275805	 1.1109230981	-0.436546
H	 0.880637201	 1.8615430069	 0.5329187693	 0.143434
H	-0.0824242542	 1.8947345773	-0.961901434	 0.167111
H	-0.8853426273	 1.8318702242	 0.6236969623	 0.143572
H	-0.047715877	-3.8605767743	-2.047903478	 0.155641
H	 0.1181538086	-0.4582884839	 2.0577903784	 0.276134
