19
gdb 83656	2.48411	1.69848	1.30279	0.818	74.9	-0.2439	0.0576	0.3014	1034.9882	0.15951	-422.968725	-422.960685	-422.959741	-423.001644	31.234	
O	 0.4466172909	 1.0823510665	-0.5133218868	-0.429635
C	 0.1746633147	-0.2089221018	-0.0279100714	 0.030776
C	 0.3380419872	-0.5043074186	 1.5006909427	-0.100004
C	-0.1361682339	 0.6113077081	 2.4426912099	-0.095605
O	-1.5066967123	 0.1453327666	 2.4058957002	-0.288786
C	-1.1483345673	-0.9688428493	 1.5557681647	-0.001948
C	-1.2974329337	-0.6613425816	 0.069122387	 0.333525
C	-2.477274666	-0.0087626032	-0.5918949945	-0.320097
C	-2.0908783127	-1.4192698405	-0.9556129047	-0.337972
H	-0.2307429181	 1.6751981539	-0.1696900129	 0.287639
H	 0.7901808245	-0.8849891568	-0.62920885	 0.091472
H	 1.1926383601	-1.1039933989	 1.8086835225	 0.079083
H	 0.2751301385	 0.5541055316	 3.457563093	 0.105867
H	-0.0266999878	 1.6418630049	 2.0801326057	 0.093919
H	-1.5132010383	-1.9239205676	 1.942469341	 0.073601
H	-3.3637852903	 0.1543063597	 0.0110715432	 0.127547
H	-2.2704604634	 0.7730347077	-1.3165832023	 0.117477
H	-1.631923921	-1.5917516282	-1.9242674531	 0.117271
H	-2.7225961711	-2.2306094823	-0.6075252245	 0.115871
