19
gdb 31337	2.82193	1.47294	0.9918	3.6585	83.13	-0.2065	0.0444	0.2509	1204.88	0.16129	-382.081585	-382.073256	-382.072311	-382.115789	30.606	
C	 0.4617644359	 1.1302253699	-0.5877607514	-0.386684
C	-0.3016328905	 0.2529849289	 0.4082952814	-0.28056
C	 0.5863774902	-0.4327099477	 1.3998183648	 0.115481
C	 1.9524236051	-0.4099246837	 1.5620486583	 0.27029
C	 3.4202689772	-0.0569860099	 1.3389465987	-0.38349
C	 3.7003823365	-0.9970988301	 2.5710147284	-0.17288
N	 2.2377181177	-1.2201735194	 2.6257136889	-0.009228
C	 1.0718637777	-1.7264285617	 3.104826103	-0.048064
N	 0.068214834	-1.2656492912	 2.379153044	-0.318893
H	 1.1783581745	 0.5392547795	-1.1683227456	 0.114408
H	-0.2227207296	 1.6106778183	-1.2927499872	 0.111262
H	 1.0202054961	 1.9200697251	-0.0738754124	 0.114315
H	-1.0404297567	 0.8588563388	 0.9484152593	 0.113382
H	-0.8853558279	-0.5029727153	-0.1324770798	 0.113385
H	 3.8610108745	-0.4002197329	 0.3999451829	 0.127114
H	 3.6933759863	 0.9888450909	 1.4983268589	 0.127281
H	 4.2728447605	-1.90264996	 2.3566250423	 0.132002
H	 4.1003802905	-0.5049179699	 3.460651778	 0.132239
H	 0.992642408	-2.3995957296	 3.9438906676	 0.12864
