14
gdb 27943	2.5879	1.31925	0.87381	3.841	69.29	-0.1932	-0.0196	0.1735	1212.1934	0.100392	-473.867654	-473.859314	-473.85837	-473.900429	30.862	
O	 0.0507324311	 1.3467749455	 0.2277137544	-0.432304
C	 0.0592387649	 0.0123261643	-0.0018109378	 0.408111
C	 0.0549942274	-0.7687852627	-1.1120056362	-0.422907
C	 0.0708592856	-2.1458548296	-0.6551614987	 0.082638
C	 0.0728419707	-3.3405761612	-1.4551233283	 0.062573
O	 0.0611529531	-3.391664044	-2.6695746855	-0.30722
C	 0.0841972721	-2.0995740255	 0.7320312171	 0.336335
O	 0.1016072569	-3.041596367	 1.6935385938	-0.418281
N	 0.0770891455	-0.7975604995	 1.1261577439	-0.350637
H	 0.033400245	 1.8003613634	-0.6208995726	 0.313292
H	 0.0424017497	-0.4547531384	-2.142624714	 0.121328
H	 0.0867362585	-4.2921677028	-0.860031337	 0.00943
H	 0.1049072784	-3.9108636941	 1.2773779883	 0.317791
H	 0.0839025712	-0.4724395084	 2.0785655326	 0.279852
