21
gdb 57698	3.15873	0.77727	0.73496	2.1959	85.69	-0.2494	-0.0233	0.2261	1620.0483	0.178018	-387.07448	-387.063514	-387.06257	-387.111044	39.383	
C	 0.0725192177	 1.6094057341	-0.0050064498	-0.414718
C	 0.0120965283	 0.0780953983	 0.0265248692	 0.152625
C	 0.8528444719	-0.4894440034	 1.1919031774	-0.428448
C	-1.4449564235	-0.4561841252	 0.0708476247	-0.204657
C	-2.2561918215	-0.0647935653	 1.3256551646	-0.379424
C	-3.6122727748	-0.5983622336	 1.2830855029	 0.292426
C	-4.7239971161	-1.0510871124	 1.2219906483	-0.427283
C	 0.6134305637	-0.493230116	-1.2553116488	 0.145969
O	 1.0616425817	 0.1505401499	-2.1672519701	-0.25133
H	 1.0979247214	 1.9485847327	-0.172700868	 0.128788
H	-0.539413191	 2.01120173	-0.817367696	 0.126382
H	-0.2767057987	 2.0391958647	 0.9381996937	 0.111109
H	 0.4774034292	-0.1358525189	 2.1559754332	 0.128023
H	 0.8342441044	-1.5847737358	 1.204642962	 0.120226
H	 1.8964052285	-0.1694257049	 1.1091999815	 0.128794
H	-1.9835129388	-0.0926665732	-0.811809192	 0.120936
H	-1.4326365472	-1.5503606922	-0.0027800922	 0.110605
H	-1.7563054303	-0.4297621769	 2.2305484234	 0.133998
H	-2.3004345635	 1.0267073979	 1.4174762669	 0.137771
H	-5.7093765557	-1.4442662107	 1.1805386364	 0.196075
H	 0.6108078644	-1.6092802691	-1.2909787974	 0.072132
