20
gdb 17458	4.04448	1.8793	1.60804	0.3029	77.29	-0.2365	0.0843	0.3208	888.1366	0.179008	-311.856191	-311.849129	-311.848185	-311.886817	29.265	
C	-0.1150514033	 1.5012104574	 0.0203956038	-0.478214
C	 0.0120112821	-0.004856312	-0.0064459964	 0.367257
C	-0.7961332802	-0.8249810103	 0.9700388399	-0.342252
C	 0.7117310075	-0.7923699863	 1.088834472	-0.074781
C	 1.5474275229	-1.8872313663	 0.45408058	-0.031234
C	 0.8717771885	-3.0209798798	-0.2789312631	-0.297508
C	 1.3487652238	-1.8148247894	-1.0484252438	-0.025814
C	 0.3865430362	-0.6606490781	-1.3486551252	-0.30623
H	 0.797306797	 1.986557389	-0.346841523	 0.111533
H	-0.9469790654	 1.8442557461	-0.6070502318	 0.114599
H	-0.3014087301	 1.8642584324	 1.0364690149	 0.111183
H	-1.3575018373	-0.2749256264	 1.7197188619	 0.101252
H	-1.2947598685	-1.7294805441	 0.6407127294	 0.106749
H	 1.1375711081	-0.2865207253	 1.9490279949	 0.07597
H	 2.5251028316	-2.0695664136	 0.8855400306	 0.078359
H	 1.4425557003	-3.9357901094	-0.4035128157	 0.104514
H	-0.1904541066	-3.1922971861	-0.1468216866	 0.109265
H	 2.1813601789	-1.9576028486	-1.7291381694	 0.079453
H	-0.4965517217	-0.9815520917	-1.9147579724	 0.098641
H	 0.9027362864	 0.0796775525	-1.9704386301	 0.097258
