12
gdb 23671	4.02734	1.81765	1.2524	0.7288	59.17	-0.2444	-0.021	0.2234	856.3824	0.085481	-422.696556	-422.690613	-422.689669	-422.726638	23.08	
O	 0.092174137	 1.3384346504	 0.0973746261	-0.414568
C	 0.070493987	-0.0075198247	 0.0583112576	 0.468093
N	 0.0804528211	-0.5835096188	-1.140050567	-0.365168
C	 0.0589294797	-1.9209332582	-1.1787649253	 0.013222
C	 0.0272040706	-2.7306891541	-0.0536386363	-0.274561
C	 0.0178522697	-2.0841890688	 1.1800832142	 0.353008
F	-0.0122842748	-2.806773343	 2.2965311945	-0.07099
C	 0.0392300485	-0.706560845	 1.2690695581	-0.37189
H	 0.112035541	 1.62905321	-0.8253077217	 0.300461
H	 0.0676476865	-2.3673802692	-2.1694489055	 0.120923
H	 0.0103539154	-3.810328238	-0.1180469062	 0.115218
H	 0.0322748824	-0.1928781505	 2.2206937516	 0.126252
