19
gdb 102732	2.7672	0.94959	0.77222	1.0029	78.66	-0.2642	0.0338	0.298	1499.9445	0.155931	-422.95275	-422.942738	-422.941794	-422.988588	35.437	
C	 0.1779718924	 1.4562687836	 0.0873322058	-0.239925
O	-0.1224376256	 0.0753560576	 0.1150695022	-0.238054
C	 0.578673381	-0.647965982	 1.1149355782	-0.067433
C	-0.06417051	-2.042692825	 1.189818386	-0.240525
C	-1.5127315406	-1.9650032942	 1.6042371528	 0.087636
C	-2.1247795865	-2.9763013244	 2.4729606508	-0.181485
O	-1.7521946594	-1.698995095	 2.9927509701	-0.242064
C	 2.017512436	-0.7324640709	 0.8313974518	 0.335214
C	 3.1930560798	-0.8127527938	 0.5929847858	-0.454618
H	 1.2362384328	 1.6369645228	-0.1440368531	 0.120891
H	-0.4409108504	 1.8997902243	-0.6957591493	 0.128648
H	-0.0591375582	 1.938767344	 1.0477295174	 0.109531
H	 0.442234798	-0.152949256	 2.0911193824	 0.110329
H	 0.0208453274	-2.5146416009	 0.2047821662	 0.120738
H	 0.4950512382	-2.6500439152	 1.9072442753	 0.115962
H	-2.1588278021	-1.4040239068	 0.9310648892	 0.109168
H	-3.1959360415	-3.1648995615	 2.4154088633	 0.114943
H	-1.5257144862	-3.816434395	 2.8232389879	 0.112031
H	 4.2328935249	-0.8789775015	 0.3865297172	 0.199013
