15
gdb 49781	2.21702	1.58969	1.01158	4.4075	74.09	-0.2348	-0.0227	0.2121	1127.8598	0.113452	-416.84856	-416.840471	-416.839527	-416.882666	28.634	
O	-0.0692762865	-0.0333839415	 0.0847925285	-0.315759
C	-0.010058604	 1.1745768366	 0.0506979761	 0.148321
N	 1.16007027	 1.8852076858	-0.0192478179	-0.057536
C	 2.444735078	 1.318910956	-0.0590158246	 0.016421
C	 3.4025409029	 2.2424462767	-0.0429357725	-0.152118
C	 2.807634653	 3.6301968362	 0.0268954616	-0.296011
C	 1.262228207	 3.3566132489	-0.0308896695	-0.138084
C	 0.6354615334	 3.9352221762	-1.2275862956	 0.289846
N	 0.1412524828	 4.4053447734	-2.1600045379	-0.310941
H	-0.8966620913	 1.8354741324	 0.0712282147	 0.094237
H	 2.5070747915	 0.2420976453	-0.093481943	 0.166416
H	 4.4641770185	 2.0480059937	-0.0679485795	 0.122957
H	 3.0705880345	 4.1521579181	 0.9532247819	 0.134693
H	 3.121388627	 4.2709497506	-0.8020374624	 0.147995
H	 0.7569688531	 3.7764688016	 0.8444007401	 0.149563
