16
gdb 78443	3.16689	1.55195	1.32043	3.9302	68.95	-0.2466	0.0001	0.2466	989.4289	0.124008	-437.818823	-437.811697	-437.810753	-437.850195	28.168	
C	-0.1545786581	 1.3478144149	-0.0479255235	-0.327542
N	 0.0547042984	-0.0932779957	 0.0346117462	-0.09527
C	 1.4348477538	-0.5545286643	-0.1831157055	-0.032558
C	 0.8400343791	-0.562424278	 1.1870482654	-0.032556
C	 0.7070424159	-2.0758953983	 1.4072775959	-0.085359
O	 1.961066497	-2.598788095	 0.8477647262	-0.288259
C	 1.5112947281	-2.0652201735	-0.4453167355	-0.085359
C	 0.111897759	-2.5505251478	 0.0452779894	 0.467702
O	-0.765002596	-3.2496282043	-0.3394321632	-0.315431
H	 0.6964163913	 1.9409321838	 0.3248672796	 0.105667
H	-0.3350473281	 1.6213595327	-1.091484912	 0.135688
H	-1.0412566389	 1.6119861968	 0.5355363718	 0.135688
H	 2.2019991089	 0.1415402206	-0.5020681555	 0.10692
H	 1.1279583618	 0.1272821595	 1.9720124472	 0.10692
H	 0.4556847097	-2.4813139316	 2.3844041453	 0.101875
H	 2.0551908482	-2.4600837498	-1.3000570417	 0.101875
