16
gdb 17999	3.68919	1.88591	1.51095	2.9029	64.36	-0.2432	-0.027	0.2162	848.3137	0.130382	-383.707305	-383.700261	-383.699317	-383.739168	25.836	
O	-0.2014369941	 0.1957152246	 0.6108575489	-0.246089
C	 0.2666663242	 0.8346928348	-0.2981836896	 0.146007
C	 1.2131449981	 1.993335451	-0.1523508483	-0.094195
C	 0.8070089688	 3.3537221887	-0.8294594373	-0.273552
C	 1.0326264481	 4.0574295291	 0.5334394294	 0.131162
O	-0.1745586118	 4.1871098136	 1.298560609	-0.291006
C	 0.1001054174	 2.9602135276	 2.0266183949	-0.088595
C	 1.3853043646	 2.7048961946	 1.2153809005	-0.098428
H	 0.0128487523	 0.5923576582	-1.357457242	 0.078723
H	 2.1780936677	 1.6543454906	-0.5500720631	 0.107474
H	 1.47363389	 3.66883683	-1.635082069	 0.109322
H	-0.2291061475	 3.4230680714	-1.1690302622	 0.121094
H	 1.6478728426	 4.9608655798	 0.5509386424	 0.08026
H	 0.2848573687	 3.1686317883	 3.0873881375	 0.103877
H	-0.7025394147	 2.2248521061	 1.9370543155	 0.130602
H	 2.2993060055	 2.5080448116	 1.7725263035	 0.083344
