23
gdb 87706	2.31379	1.28717	1.15366	1.4703	85.78	-0.2461	0.0656	0.3117	1251.11	0.204643	-388.273658	-388.263822	-388.262877	-388.308048	37.776	
C	-0.1591463535	 1.5149368999	 0.6195063369	-0.407271
C	-0.12321643	 0.0150409052	 0.4332100325	-0.054599
C	 0.9846958933	-0.6370821226	-0.3615928841	-0.367776
C	 0.9091932625	-0.8435756791	 1.1220496836	 0.320232
C	 1.8810151475	-0.4164428285	 2.2311750427	-0.328622
C	 1.2860807699	-1.5368282832	 3.1429191675	-0.014173
C	 0.3262093374	-1.0324344355	 4.2158109845	-0.412115
C	 0.5859414618	-2.1416547265	 1.8769497672	 0.064621
O	-0.747339991	-2.5844230412	 1.9570198371	-0.426304
H	 0.850934762	 1.9282893944	 0.7042756606	 0.117534
H	-0.6454801821	 2.0045477595	-0.2313306258	 0.119084
H	-0.7092525871	 1.7989545547	 1.5245240262	 0.111671
H	-1.0997743034	-0.4534090106	 0.3237339329	 0.083107
H	 0.7362683128	-1.4744874386	-1.0069123821	 0.111668
H	 1.7738961531	 0.0045425607	-0.7443016161	 0.105101
H	 2.930807164	-0.5820787376	 1.971846246	 0.099271
H	 1.7769317768	 0.6045129298	 2.611099491	 0.096832
H	 2.0271224251	-2.1999598502	 3.5983877825	 0.066694
H	-0.3904339071	-0.3053835611	 3.812872331	 0.10738
H	-0.2429037195	-1.8567964452	 4.6573513511	 0.125079
H	 0.8731353244	-0.5285366486	 5.0191824855	 0.117654
H	 1.1465979462	-2.9945032252	 1.4804830438	 0.085398
H	-1.2836567832	-1.8484882205	 2.2706234556	 0.279534
