19
gdb 85901	2.72967	1.38742	1.21887	3.0296	70.31	-0.2567	0.0654	0.3221	1099.5124	0.157676	-460.150301	-460.141408	-460.140463	-460.183295	34.429	
C	 0.0002083917	 1.5408737392	 0.026337716	-0.456253
C	 0.0222310395	 0.01611351	-0.0242961191	 0.355251
O	-1.3029884177	-0.5235421356	 0.0244366887	-0.481157
C	 0.8137658104	-0.5627150996	-1.2252971672	-0.314126
C	 1.3069637813	-1.9548235024	-0.764768363	 0.118558
O	 2.5043769071	-2.3951277248	-1.379194889	-0.441173
C	 1.5064631793	-1.7755015061	 0.7256107245	 0.036166
O	 2.1479002153	-0.5401395785	 1.0836707169	-0.264832
C	 0.7252782979	-0.6209208216	 1.1720881572	 0.036081
H	 1.0152585107	 1.9358476126	 0.1237495031	 0.139309
H	-0.4379347442	 1.9576849674	-0.8887856351	 0.106339
H	-0.5948439779	 1.8840136623	 0.8782741913	 0.122496
H	-1.8274182513	-0.0762144182	-0.6479597345	 0.278828
H	 0.1890456598	-0.6081249649	-2.1224585773	 0.082501
H	 1.6900976469	 0.0531610162	-1.4404441362	 0.122123
H	 0.5044917792	-2.6978834146	-0.8952468069	 0.07929
H	 2.3213182457	-2.5555344184	-2.3099738118	 0.28387
H	 1.7395598443	-2.6251042003	 1.3605604814	 0.099692
H	 0.2880122221	-0.5319031026	 2.163170381	 0.097038
