25
gdb 77693	2.44295	1.29642	1.14287	0.1803	92.94	-0.2565	0.0813	0.3378	1275.6478	0.227387	-352.346149	-352.336109	-352.335165	-352.38025	39.644	
C	-0.7863946297	 0.9765893935	 0.0652427359	-0.422502
C	-0.0861602326	-0.371020601	-0.035315724	-0.06687
C	 0.8336807328	-0.6797259587	-1.2284898265	 0.380671
C	 0.4620774252	-1.0159030264	-2.6392106597	-0.339739
C	 1.2028712028	 0.2682468725	-2.3351870956	-0.318212
C	 1.8274269779	-1.3939190382	-0.3077018122	-0.348902
C	 1.1170239194	-0.7292388766	 0.9196965608	 0.341658
C	 1.8901536665	 0.4938429502	 1.4183073978	-0.441922
C	 0.774050351	-1.6611263089	 2.0783411985	-0.456742
H	-0.0861116737	 1.8119549696	-0.0258187856	 0.116829
H	-1.5367402022	 1.0860582504	-0.7265564525	 0.111271
H	-1.3094413623	 1.0794324897	 1.022613237	 0.11236
H	-0.8386899973	-1.1662155096	 0.0496728226	 0.063462
H	 1.0028494418	-1.8155492367	-3.1363303032	 0.106951
H	-0.5826487839	-0.9422998371	-2.9272350487	 0.106023
H	 0.6565582332	 1.2018904805	-2.4250329968	 0.108834
H	 2.2480627908	 0.3365875508	-2.6213573862	 0.106402
H	 1.7059066297	-2.4827116302	-0.3188716204	 0.090355
H	 2.8884854485	-1.1598753102	-0.4408298248	 0.090369
H	 2.1715217865	 1.1592428578	 0.5963746711	 0.117342
H	 1.30344123	 1.0762452135	 2.1375630118	 0.109075
H	 2.8127792163	 0.1803940813	 1.9203260343	 0.107927
H	 1.6791251936	-1.9979570813	 2.597973545	 0.109096
H	 0.1384312357	-1.1584945062	 2.8174861531	 0.109065
H	 0.2398668702	-2.5508449187	 1.7279139383	 0.107198
