16
gdb 84212	3.90231	1.68141	1.5491	2.3964	73.61	-0.2105	-0.0477	0.1629	869.9153	0.125152	-400.599992	-400.593589	-400.592645	-400.630501	26.629	
O	 0.0877580616	 1.4552609459	 0.035577423	-0.424674
C	 0.094291002	 0.0444762588	-0.0204904092	 0.087092
C	 0.6707026207	-0.5301540661	 1.3013712631	-0.163926
C	-0.1832179426	-1.488222815	 1.7033500436	 0.052622
C	-1.4573528653	-1.2471124356	 2.4799496858	-0.089631
C	-2.1883963435	-0.4429701612	 1.3934516378	-0.043045
C	-1.3564853674	-0.527999016	 0.0710381958	-0.050855
C	-1.1268305301	-1.9584387355	 0.5832105934	-0.043309
N	-2.346115721	-1.9398295362	 1.5165627124	-0.169238
H	 0.953227457	 1.7787628011	-0.2343334741	 0.29129
H	 0.5542500853	-0.3067954275	-0.9580153454	 0.076551
H	 1.1897384132	 0.1505709042	 1.9693567452	 0.101959
H	-1.6953556445	-1.1480669189	 3.533370616	 0.103891
H	-3.0106368398	 0.2287730681	 1.6138391984	 0.102631
H	-1.9766430047	-0.3733319325	-0.8156519805	 0.079123
H	-0.9374806607	-2.8309955735	-0.0382771453	 0.089519
