20
gdb 22305	3.20646	1.09638	0.86378	0.5998	84.92	-0.2392	0.014	0.2533	1360.2656	0.171074	-403.133853	-403.124996	-403.124052	-403.167391	34.119	
C	-0.094359328	 1.5437673851	-0.0457754341	-0.401668
C	 0.0210480496	 0.0158364774	 0.045069761	-0.023569
C	 0.6498565208	-0.5736862443	-1.2339131693	-0.282711
C	 0.9829318831	-2.0310627086	-1.0736138537	 0.370534
C	 1.7958626081	-2.4282951421	 0.1328972777	-0.343322
C	 1.6175184972	-1.4735622593	 1.2846259523	-0.079038
C	 0.8149982184	-0.4108852184	 1.2577241158	-0.044181
N	 0.5535109899	-2.8316121569	-1.9712886791	-0.203118
O	 0.9538151693	-4.1601082338	-1.7317326371	-0.398909
H	 0.8949453261	 2.0061644925	-0.136819575	 0.117927
H	-0.6884002103	 1.8424765405	-0.9154800051	 0.114735
H	-0.5751775463	 1.9554563567	 0.8476863603	 0.113396
H	-0.998541088	-0.388577092	 0.1403895029	 0.092179
H	-0.0041575493	-0.4420211741	-2.0995484853	 0.112839
H	 1.581245089	-0.0235120844	-1.434535652	 0.10723
H	 1.5211857116	-3.4462753687	 0.4307760402	 0.14273
H	 2.8584936321	-2.4957900848	-0.147653936	 0.128834
H	 2.1657765838	-1.7145199267	 2.1922118159	 0.088474
H	 0.7117366788	 0.2047194534	 2.1490807748	 0.08268
H	 0.5257622641	-4.6295809512	-2.4549537143	 0.304958
