17
gdb 41141	3.3035	1.7549	1.35841	1.2241	73.09	-0.2329	-0.0026	0.2304	946.9426	0.137572	-421.790382	-421.783709	-421.782765	-421.82134	26.987	
C	 0.0189692337	 1.5053858168	 0.0870278766	-0.117004
O	 1.4708718875	 1.506813732	-0.02702451	-0.343727
C	 1.5110224651	 0.0778708885	-0.0177431394	 0.409563
C	 2.4974019172	-0.6902426903	-0.8131955257	-0.194298
C	 2.8592784601	-1.8006151708	-0.1621999125	-0.064156
C	 2.1998776867	-1.9519292951	 1.1969912495	-0.301388
C	 1.4198344473	-0.631776313	 1.3596643786	 0.061064
O	-0.028329545	-0.7377299575	 1.2492170398	-0.307299
C	-0.034669397	-0.0358872664	-0.0013094598	 0.000455
H	-0.3308726565	 1.9200730444	 1.0384331861	 0.113678
H	-0.4388260671	 2.0439395395	-0.7503407198	 0.108785
H	 2.8245398542	-0.3937533504	-1.8020649977	 0.106716
H	 3.5373149917	-2.5512440241	-0.5542844833	 0.104918
H	 1.5001736491	-2.7958989067	 1.216676767	 0.130017
H	 2.9322602159	-2.1262192061	 1.994143675	 0.11066
H	 1.7141428779	-0.0474883758	 2.2360642875	 0.090258
H	-0.6780762506	-0.4989688152	-0.751137962	 0.091758
