15
gdb 6651	7.12118	0.82626	0.7511	6.5149	63.74	-0.2608	-0.0256	0.2352	1430.0544	0.115192	-399.808043	-399.798794	-399.797849	-399.843929	30.002	
C	-0.0781266135	 1.4719574222	-0.0253744417	-0.485294
C	 0.0773350771	-0.0375921377	 0.0086073959	 0.361109
O	 1.1447826788	-0.5922232405	 0.0015661409	-0.257889
C	-1.2399413274	-0.8147911202	 0.0479505882	-0.156973
O	-0.9851857786	-2.1916691299	-0.0233171786	-0.213818
C	-2.1627600362	-2.9572041285	 0.0306478704	-0.183174
C	-1.8201585215	-4.3800425809	-0.0527305061	 0.270459
N	-1.5933329356	-5.5099228563	-0.1163016186	-0.287036
H	 0.895666742	 1.9404853148	 0.1192325701	 0.154532
H	-0.484066369	 1.7824001721	-0.9954064183	 0.148243
H	-0.7776272729	 1.8196501442	 0.7424243868	 0.13733
H	-1.7719442975	-0.5478631824	 0.9790907677	 0.116041
H	-1.8813234091	-0.4750455627	-0.7848269722	 0.113485
H	-2.7174774849	-2.7850433068	 0.9679230907	 0.141696
H	-2.8460445217	-2.7132031774	-0.7996893352	 0.141289
