20
gdb 60815	1.87523	1.45342	1.08108	1.6884	74.93	-0.2441	-0.0427	0.2014	1225.4494	0.169005	-440.260013	-440.250065	-440.24912	-440.295266	35.878	
C	-0.319724061	 1.7579076122	-0.9521665519	-0.410493
C	-0.1663859456	 0.4606724241	-0.1455079264	-0.028351
C	-1.5477049376	-0.1582174947	 0.1589087797	 0.027865
O	-2.1806433618	-0.7578632382	-0.9609941594	-0.432868
C	-1.5432194518	-1.1381818937	 1.3316992218	 0.133471
O	-0.7007547652	-1.1961505013	 2.1920037353	-0.247081
C	 0.7307487839	-0.5189940214	-0.8823545476	-0.000689
C	 2.1857797705	-0.5881467952	-0.6087234425	-0.247782
N	 1.3063682865	-1.7019218989	-0.2127095323	-0.341499
H	 0.6576878138	 2.1839119561	-1.1960626536	 0.120011
H	-0.8536175866	 1.5679640137	-1.8887210655	 0.132627
H	-0.8859592877	 2.507224781	-0.3896695249	 0.114923
H	 0.2910233125	 0.6825631566	 0.8262236965	 0.093889
H	-2.2322250717	 0.6476731131	 0.4661821542	 0.114123
H	-1.6279817267	-1.4906056713	-1.2566985987	 0.299288
H	-2.4259685108	-1.8161558049	 1.3292653947	 0.099095
H	 0.4163206495	-0.7241315831	-1.9058303167	 0.089641
H	 2.8830068534	-0.8123783798	-1.4110324798	 0.118168
H	 2.5846980118	 0.0567599016	 0.1707222642	 0.115355
H	 1.1217955346	-1.643260506	 0.7863493626	 0.25031
