15
gdb 21073	3.53071	2.03969	1.31262	1.9678	64.03	-0.2063	0.0406	0.247	895.492	0.120456	-395.991314	-395.983351	-395.982407	-396.024078	28.483	
C	 0.030208178	 1.4342442009	-0.0553325528	-0.326859
N	-0.0071251657	-0.0083172808	 0.0115555965	-0.029573
N	-0.08320722	-0.7565180334	-1.1289044449	-0.293462
C	-0.0488084605	-2.0176686085	-0.712633714	-0.050151
C	 0.054747865	-2.1112868159	 0.694812962	-0.028007
N	 0.1187164137	-3.1821414676	 1.6333549219	-0.628664
C	 0.0809884314	-0.7908520976	 1.1048280064	 0.458393
O	 0.170883878	-0.283359961	 2.3471289846	-0.437588
H	 1.0263072986	 1.7933296439	-0.3355302472	 0.139495
H	-0.6907502555	 1.7720534044	-0.8018983952	 0.150592
H	-0.2333706077	 1.8402219462	 0.9226178498	 0.15169
H	-0.1047816459	-2.8190720867	-1.4366388093	 0.102184
H	 0.9287007799	-3.7748109995	 1.4805273543	 0.242452
H	-0.699467151	-3.7811416001	 1.5843957542	 0.242415
H	 0.1992625917	-1.0582619244	 2.9298333135	 0.307083
