25
gdb 118962	2.34131	0.98851	0.93395	1.3126	89.05	-0.2501	0.0759	0.3261	1502.8524	0.227425	-389.494221	-389.483534	-389.48259	-389.529582	40.45	
C	-0.1116428592	 1.6041529263	 0.0637331609	-0.381105
C	-0.0643291973	 0.0733423773	 0.0382064867	-0.196077
C	 0.7430422052	-0.4756462209	-1.1462126545	-0.208791
C	 0.7499679873	-2.0054128382	-1.2530367274	 0.387838
O	 1.2849630996	-2.6048588821	-0.0840628215	-0.488897
C	-0.5908406779	-2.601441945	-1.7939505202	-0.281966
C	 0.0613152557	-2.6992725099	-3.1978711747	-0.23875
C	 1.4545643662	-2.5683189806	-2.5247491549	 0.021584
C	 2.5665274991	-1.7994339939	-3.2213998894	-0.424143
H	 0.8965186554	 2.0287928198	 0.1215030629	 0.117425
H	-0.5844678556	 1.9993594021	-0.842059216	 0.11551
H	-0.6788664084	 1.9725108074	 0.9242030187	 0.111805
H	 0.3783391817	-0.2791802024	 0.9795181271	 0.091039
H	-1.0879576338	-0.3222461002	 0.0080666097	 0.099907
H	 0.3408471208	-0.0538097944	-2.0764136681	 0.092513
H	 1.7792462852	-0.1241833641	-1.0652585764	 0.09982
H	 0.7542011815	-2.329017235	 0.6704373766	 0.274003
H	-0.7664989457	-3.5867064895	-1.3548175865	 0.102509
H	-1.4974355049	-1.9981780055	-1.6956194699	 0.088002
H	-0.1305792152	-3.6022691205	-3.7813566954	 0.096087
H	-0.1728733657	-1.8307644582	-3.8218487696	 0.096494
H	 1.8130994493	-3.5663197085	-2.2507626807	 0.082907
H	 2.2426267085	-0.7994542984	-3.5285305725	 0.11001
H	 3.441269084	-1.6861063211	-2.5717790466	 0.120854
H	 2.8926554743	-2.3292389847	-4.1233476784	 0.111421
