19
gdb 126146	3.6654	0.98335	0.82795	3.6986	77.16	-0.2663	-0.0353	0.2309	1407.0657	0.15832	-419.197243	-419.188185	-419.18724	-419.231774	32.953	
C	-0.1849013905	 1.5694748397	-0.0403141162	-0.395245
C	-0.0221371107	 0.047547978	-0.0086438491	-0.169749
C	 0.8119670592	-0.5261057508	-1.1792489406	-0.081146
C	 2.2782825353	-0.074881297	-1.1454070281	-0.410026
C	 0.7067465125	-2.0219448551	-1.2049367804	 0.260123
C	 1.6232267834	-3.0119668753	-1.0372920133	-0.056228
O	 1.0223669255	-4.1970714282	-1.1428428652	-0.167148
N	-0.3553950187	-3.9193115994	-1.3930631871	-0.006423
N	-0.4961807972	-2.6717517423	-1.4205118357	-0.180524
H	 0.7701906815	 2.0917401151	 0.0723696831	 0.118115
H	-0.6366048964	 1.8987682246	-0.982860429	 0.118567
H	-0.8367267403	 1.9031312704	 0.7726430992	 0.119052
H	 0.4408723472	-0.2619327831	 0.9376475029	 0.096554
H	-1.010825739	-0.4225682824	-0.0356768938	 0.123596
H	 0.3589260708	-0.1586677376	-2.1107125091	 0.099495
H	 2.7652878008	-0.3886508775	-0.2147371405	 0.118226
H	 2.8426570138	-0.4953019777	-1.9836440681	 0.120415
H	 2.3545375711	 1.0127796913	-1.2081233502	 0.126979
H	 2.6837659315	-3.0178976729	-0.8502025389	 0.165368
