17
gdb 67318	3.27073	1.4182	1.2133	1.47	79.16	-0.2448	0.0468	0.2917	1053.2423	0.134876	-384.578593	-384.570864	-384.56992	-384.610492	30.895	
O	-0.0894320946	 1.3283000312	-0.03266	-0.467405
C	 0.0173535929	-0.0432436991	-0.0408255917	 0.412951
C	 0.4141277215	-0.9987766144	 1.1492121193	-0.129536
C	-1.0296983549	-1.0044144998	 1.6921585167	-0.277855
C	-1.2050173013	-0.986981856	 0.1587974283	-0.081507
C	 0.03932751	-1.9156030494	-0.0590829916	-0.042307
C	 0.6884109593	-0.9662192117	-1.1044370688	-0.291102
C	 0.1776824271	-0.9609925517	-2.4592067169	 0.305608
C	-0.2530215364	-0.9510900385	-3.5825008744	-0.439579
H	 0.7943238105	 1.7094723539	 0.0146798724	 0.287255
H	 1.3648523244	-1.0069771471	 1.6855093473	 0.069094
H	-1.3537459694	-1.9102981506	 2.2131396236	 0.093452
H	-1.3544358778	-0.1103027647	 2.2307179469	 0.105815
H	-2.1136228208	-0.9859054769	-0.4415862288	 0.088046
H	 0.0353162462	-3.0027959078	-0.0640763446	 0.088009
H	 1.785449057	-0.9599702911	-1.0886796202	 0.087046
H	-0.6332929436	-0.9413377462	-4.5738071576	 0.192014
