13
gdb 33270	13.89442	0.45223	0.45208	5.0818	106.66	-0.2564	-0.0816	0.1748	2254.8704	0.089684	-378.407885	-378.399466	-378.398522	-378.442075	29.128	
N	 0.1002646175	-6.2698855545	-0.0500074337	-0.326422
C	 0.0794715645	-5.1062748582	-0.0373420365	 0.076591
C	 0.0560101228	-3.7480474544	-0.0216014352	 0.431662
C	 0.0356416754	-2.5315602775	-0.0063917966	-0.184159
C	 0.0150472516	-1.1831082954	 0.0122542406	-0.25854
C	 0.0002273059	 0.0314143467	 0.0395501519	 0.321666
C	-0.0124820894	 1.45842061	 0.0401134019	-0.215387
C	 0.5114099695	 2.1996341991	 1.2348574936	-0.221513
N	 1.2662919887	 2.2123647163	-0.0141853115	-0.292904
H	-0.8093836705	 1.9154409811	-0.5407484136	 0.138589
H	 0.0405752148	 3.1416427028	 1.4995225683	 0.141539
H	 0.8739169351	 1.6085168555	 2.0702810472	 0.137872
H	 2.0447825042	 1.5591226186	 0.0391372836	 0.251005
