20
gdb 62696	3.11135	1.67415	1.42925	0.6305	85.68	-0.205	-0.0321	0.1729	1000.5197	0.170251	-365.900342	-365.892399	-365.891454	-365.931955	32.563	
C	 0.1882003273	 1.4022850402	 0.2814836697	-0.443361
C	-0.0211404757	-0.0969374167	 0.159221001	 0.321711
C	-1.5046405437	-0.451365271	 0.1358639677	-0.414391
N	 0.6111458443	-0.7606631128	-1.1019903893	-0.176347
C	 2.0777903622	-1.283515714	-0.9790247086	-0.024353
C	 3.0965958991	-0.8880635778	 0.1079255595	-0.26777
C	 2.1368537039	-0.5875870558	 1.2520560728	-0.134239
C	 0.9120670794	-1.0612494179	 0.9311980444	-0.022414
C	 0.9662391028	-1.9587828641	-0.3065160002	-0.077558
H	 1.2382378654	 1.6771925618	 0.164161359	 0.118411
H	-0.3930601814	 1.9185569903	-0.4895900861	 0.123495
H	-0.1549111213	 1.7636878772	 1.2566868913	 0.123252
H	-2.0036029102	 0.0360593475	-0.7073099816	 0.121366
H	-1.6574986382	-1.5295134435	 0.0498592034	 0.120218
H	-1.9799777452	-0.1114561415	 1.0615723211	 0.117438
H	 2.4131755157	-1.571831929	-1.9716360687	 0.098281
H	 3.8178418637	-1.7104084637	 0.2240121079	 0.115659
H	 3.6791444771	 0.0151781223	-0.1084722401	 0.114362
H	 2.2594490207	 0.3344648778	 1.8122429614	 0.094706
H	 0.5397727443	-2.9415873693	-0.4729701145	 0.091533
