22
gdb 101228	2.85159	0.99923	0.87956	1.8271	79.1	-0.2344	0.0677	0.302	1412.8643	0.193338	-441.450934	-441.441079	-441.440135	-441.485798	36.907	
C	-0.0929819978	 1.5448522017	-0.0405356728	-0.391256
C	-0.0376890149	 0.0162844628	-0.0880503936	 0.021488
C	 0.7898886331	-0.4770716244	-1.2857022475	-0.052626
O	 2.1389630295	-0.0654167454	-1.1844473198	-0.423845
N	 0.5891624004	-0.5120134266	 1.1209926463	-0.100096
C	 0.4690389995	-1.9620471768	 1.415961059	-0.210354
C	 0.4031841363	-1.6088087062	 2.9238443941	 0.139767
O	 1.619355574	-1.7124759737	 3.6234387794	-0.434497
C	 0.0257835626	-0.1807464455	 2.4518535037	-0.208562
H	 0.9171362125	 1.9616673449	-0.0278123432	 0.131204
H	-0.6096618035	 1.9281896003	-0.9253392279	 0.11716
H	-0.6321583993	 1.901715606	 0.8414939552	 0.114826
H	-1.0679299564	-0.3790234672	-0.1937164282	 0.049933
H	 0.7127726807	-1.575000128	-1.3563136191	 0.083861
H	 0.3868647655	-0.0625149761	-2.215891836	 0.102654
H	 2.359774739	-0.1736342701	-0.2490054053	 0.276903
H	-0.4716320037	-2.4003485527	 1.045404876	 0.092347
H	 1.309031009	-2.5845573111	 1.0913136554	 0.109099
H	-0.3382995738	-2.1404371046	 3.5205715847	 0.096077
H	 2.2894186016	-1.2399714392	 3.116567294	 0.285534
H	 0.5025914563	 0.6550189438	 2.9737950489	 0.107802
H	-1.0642807708	-0.024023522	 2.4339509867	 0.092579
