16
gdb 12933	3.49174	1.58637	1.31374	2.5537	60.45	-0.2319	0.0557	0.2876	946.4081	0.129429	-420.810337	-420.802519	-420.801574	-420.842697	29.127	
O	 0.0676104138	 1.308184593	-0.3169243904	-0.417344
C	 0.0637834074	-0.0087303444	 0.2149865642	-0.096301
C	-1.3161797274	-0.6258139091	 0.1781518123	-0.09377
C	-1.9186663077	-1.246359055	-1.0650942788	-0.02387
O	-0.9133038105	-1.9234636255	-1.8320935771	-0.283459
C	-0.6706873392	-2.8576821249	-0.7463395069	-0.153764
C	-1.6364637119	-2.09718838	 0.1626775081	 0.287477
O	-2.4188489391	-2.6537281096	 1.1493240748	-0.444995
H	-0.1855727802	 1.238858047	-1.2435167685	 0.286633
H	 0.7813408343	-0.6499455384	-0.3135477416	 0.100298
H	 0.4047913905	 0.0864207466	 1.2508860911	 0.11475
H	-2.0673078725	-0.0820048547	 0.748536564	 0.107773
H	-2.8157641069	-0.9156828594	-1.5750603493	 0.110619
H	-1.0410593966	-3.856853226	-1.0123344887	 0.101679
H	 0.385381769	-2.9214829486	-0.4631943524	 0.115268
H	-2.930925573	-3.375253321	 0.7652835291	 0.289006
