19
gdb 88931	2.70799	1.01252	0.87724	1.3966	77.35	-0.2458	-0.0937	0.1522	1388.5502	0.156647	-423.03388	-423.024143	-423.023199	-423.069648	34.429	
C	-0.2363416228	 1.5537358131	 0.2794547127	-0.40704
C	 0.4262897037	 0.2212352855	 0.0065404205	-0.008549
C	 1.8839601133	-0.0069458871	 0.3191857434	-0.295503
C	 0.8209611468	-0.7474139058	 1.1019661833	-0.007384
C	 0.5780847023	-0.4560318481	 2.5794630485	-0.329215
C	 1.5754991332	-1.2298592669	 3.4110855488	 0.30445
O	 1.4092836884	-2.3539688885	 3.825742425	-0.280809
C	 2.9163777027	-0.5496742952	 3.7321858621	 0.084557
O	 3.1839996451	 0.586544673	 3.4404149893	-0.216678
H	 0.1826629333	 2.0499832363	 1.1594276497	 0.122692
H	-0.0948024407	 2.2312325973	-0.5695481923	 0.121648
H	-1.3149260985	 1.4421714991	 0.4380521356	 0.118216
H	 0.0634586781	-0.2653894387	-0.8956442781	 0.088445
H	 2.4957053851	-0.5635104113	-0.3823934948	 0.112528
H	 2.4105024987	 0.7871657192	 0.8389789215	 0.132441
H	 0.6990446352	-1.7998906453	 0.8604907907	 0.098909
H	 0.6951898833	 0.610521924	 2.7836699391	 0.126904
H	-0.4273858961	-0.7744529093	 2.8710740873	 0.125186
H	 3.607996929	-1.2178425513	 4.2877933078	 0.109203
