18
gdb 11457	5.16487	1.28613	1.12885	1.2654	71.36	-0.2465	0.0154	0.262	1105.8417	0.152717	-384.945435	-384.936966	-384.936021	-384.978574	30.188	
C	 0.0384194039	 1.2926067991	-0.2490033711	-0.237848
O	-0.0523520742	-0.1112918263	-0.092579435	-0.239799
C	-1.3560188638	-0.5601978998	 0.1783534993	 0.19151
O	-2.2321481607	-0.3881348766	-0.9278990065	-0.270572
C	-2.510999508	-1.6507838708	-1.5205591606	-0.158452
C	-1.9524578558	-2.6786440555	-0.5687086693	 0.308598
C	-2.1166639939	-4.1455799286	-0.7957029353	-0.494674
C	-1.3203197229	-2.0432873483	 0.4140867806	-0.230157
H	 1.0941463059	 1.5319026699	-0.3953759658	 0.123078
H	-0.5359704024	 1.6388110098	-1.1167890388	 0.123919
H	-0.3261265149	 1.8210193599	 0.6458048483	 0.101641
H	-1.7689338386	 0.0349393256	 1.010640886	 0.065619
H	-3.5982625337	-1.7456989865	-1.6528586097	 0.107965
H	-2.0520891832	-1.7315969644	-2.5191388091	 0.107362
H	-1.6833534956	-4.4448281477	-1.7581995279	 0.134026
H	-1.6325904305	-4.7299083985	-0.0095469967	 0.132225
H	-3.1764881741	-4.4269914272	-0.8286060104	 0.131061
H	-0.7884975077	-2.486548824	 1.245352592	 0.104498
