20
gdb 97256	3.33118	1.16185	0.92558	1.6219	78.88	-0.2436	0.0206	0.2641	1293.1346	0.171335	-440.279757	-440.270697	-440.269752	-440.314152	33.016	
C	-0.2235396728	 1.4768229278	 0.0280693959	-0.322454
N	-0.1496936001	 0.026077145	 0.0422943766	-0.272969
C	 0.6238545913	-0.5602102851	 0.8542176738	 0.375451
C	 0.6687557126	-2.0724981123	 0.8788555097	-0.303662
C	 2.0625775851	-2.7062569307	 0.7873539071	-0.079703
O	 2.7711436415	-2.7841948786	 2.013888769	-0.254184
C	 2.6317555392	-1.6896175298	 2.8975628491	-0.076719
C	 2.6248003158	-0.3123947277	 2.2426894501	-0.098416
O	 1.3497218126	 0.1418803906	 1.7817181451	-0.259934
H	 0.6662839585	 1.9743081902	 0.429857428	 0.114299
H	-0.3930862154	 1.8097850376	-1.0005807858	 0.118341
H	-1.0880601288	 1.8072528069	 0.618038737	 0.125093
H	 0.1699456242	-2.4447508913	 1.7827738653	 0.12607
H	 0.0722398307	-2.3976017533	 0.0248381533	 0.135167
H	 1.963643899	-3.7416463941	 0.4480409791	 0.116694
H	 2.6604029447	-2.1756576024	 0.0294544708	 0.097433
H	 1.7243805978	-1.7829190808	 3.5151276346	 0.102555
H	 3.4929238535	-1.748227989	 3.5721934604	 0.115286
H	 2.914358808	 0.4318269952	 2.989728121	 0.122613
H	 3.3604462625	-0.2743261283	 1.4283920798	 0.119039
