17
gdb 83596	2.35489	1.71576	1.28932	2.56	68.61	-0.2337	-0.0408	0.1928	1024.6677	0.133765	-458.937924	-458.929119	-458.928175	-458.971482	31.982	
C	-0.3630532554	 1.4488438611	-0.0248091553	-0.492414
C	 0.0908398938	 0.0196213945	 0.0236824979	 0.322332
O	-0.9934182399	-0.9477021068	 0.0674978614	-0.314983
C	-0.3894154031	-1.6597138129	 1.1805579022	-0.088514
C	 0.8448592487	-0.7546915182	 1.1706959183	-0.177272
C	 1.9478045827	-1.192587515	 0.1679568075	 0.029294
O	 2.2829120891	-2.5510941301	 0.0836769494	-0.432006
C	 1.1233312702	-0.567258451	-0.9748026982	 0.327607
O	 1.1940769849	-0.6618951775	-2.1662868774	-0.30877
H	 0.4924870029	 2.1315771056	-0.0091137741	 0.12544
H	-0.9232119629	 1.6247888253	-0.9488777218	 0.150114
H	-1.0146208604	 1.6774969798	 0.8235547236	 0.131379
H	-1.0119629309	-1.5758928461	 2.0779647452	 0.109432
H	-0.205999126	-2.713684766	 0.9524035302	 0.125199
H	 1.1736164487	-0.3005969204	 2.1025847072	 0.088548
H	 2.8432334787	-0.566802758	 0.3309649335	 0.102023
H	 2.3217938788	-2.7784674743	-0.8531738796	 0.302591
