15
gdb 24409	3.79568	1.62043	1.14372	3.8086	73.81	-0.1909	0.0037	0.1946	991.3311	0.116287	-416.84822	-416.841312	-416.840368	-416.881051	26.175	
C	-0.0091637263	 1.4876503458	 0.1301361881	-0.180066
O	 1.2409628671	 2.0387693968	-0.3391844812	-0.241006
C	 2.250189364	 1.2398633808	-0.7791499653	 0.116076
N	 2.2987730774	-0.0266618152	-0.8604386861	-0.354032
C	 1.1340955009	-0.6781185435	-0.4296763601	 0.272904
C	 0.0369825233	 0.0025871659	 0.0393306234	 0.224875
N	-0.9202514118	-0.9143302981	 0.3746855565	-0.343916
C	-0.4386727587	-2.1829621498	 0.1215411814	-0.074397
C	 0.8369812315	-2.069552872	-0.3797056705	-0.270522
H	-0.1548296135	 1.8531162826	 1.1583521731	 0.118751
H	-0.8067965893	 1.9332756678	-0.484047338	 0.11875
H	 3.0881917405	 1.8616198774	-1.0815781094	 0.126066
H	-1.8314981321	-0.7097269147	 0.746777039	 0.261533
H	-1.0466081524	-3.0502591749	 0.3206685494	 0.121903
H	 1.4861126193	-2.877882529	-0.6770709302	 0.103082
