14
gdb 25244	3.32898	1.71172	1.13993	2.5925	71.35	-0.2333	-0.0312	0.2021	983.8933	0.104778	-432.895574	-432.888998	-432.888053	-432.926525	25.422	
N	-0.0868967074	 1.3397825715	 0.0804060474	-0.557068
C	-0.0488739489	 0.068968084	 0.0007416563	 0.275527
N	 1.051062571	-0.8052334508	-0.1290989102	-0.368247
C	 0.711888149	-2.2392569412	-0.0179932436	-0.291625
C	-0.7801235427	-2.1530072858	 0.0011050108	 0.24372
C	-1.169118884	-0.8636052253	 0.0104350659	 0.297662
O	-2.5231707831	-0.8137429757	 0.0083087042	-0.184607
C	-2.8708730645	-2.1341943504	-0.0029397129	 0.043719
N	-1.8833248737	-2.9813464208	-0.0119914461	-0.342476
H	 0.8511269956	 1.7421675421	 0.0510702564	 0.20799
H	 1.9435215311	-0.4918584283	 0.218239731	 0.244341
H	 1.1014790709	-2.8075312857	-0.8717112734	 0.138595
H	 1.122466743	-2.6876710486	 0.8968440881	 0.132825
H	-3.9284814563	-2.345893305	 0.0003309461	 0.159646
