16
gdb 9834	3.93514	1.55821	1.22342	2.8304	61.95	-0.2668	-0.0044	0.2623	995.4059	0.127973	-420.887579	-420.878917	-420.877972	-420.921303	30.119	
C	-0.0941458194	 1.3461545581	 0.2992719189	-0.244159
O	-0.2340488967	-0.0716790656	 0.4653849399	-0.237044
C	-1.1853701399	-0.6458329764	-0.2941640426	 0.432359
O	-1.8852481521	-0.0442449437	-1.067037197	-0.364836
C	-1.2651280021	-2.1386877552	-0.0455392023	 0.255678
C	-0.2962324012	-2.7687960301	 0.9249043712	-0.468895
C	-2.5804740958	-2.7503304545	-0.3256926807	-0.198715
O	-1.511909451	-2.8713280477	-1.2533527037	-0.248816
H	 0.6985363581	 1.6480148016	 0.983483204	 0.135753
H	 0.1755430453	 1.5851880283	-0.7322131476	 0.146913
H	-1.0296744592	 1.854899096	 0.5443679087	 0.143785
H	-0.4097333839	-2.3399162161	 1.9241844559	 0.131437
H	-0.4762089871	-3.8451101035	 0.976548767	 0.127252
H	 0.7361850077	-2.6029223744	 0.6058279543	 0.137374
H	-2.8504271436	-3.6614423516	 0.2070466646	 0.115587
H	-3.400029649	-2.1115757452	-0.6459819506	 0.136328
