17
gdb 28608	4.92823	0.9759	0.85702	2.2655	75.37	-0.1963	0.0456	0.2418	1325.5959	0.138088	-418.038827	-418.030876	-418.029932	-418.071815	30.343	
O	 0.7081904708	 1.1623133466	 0.1304609802	-0.426724
C	 0.2019556833	-0.0759617983	-0.0077333293	 0.439747
N	-0.4663805821	-0.5406389994	-1.0269581755	-0.363815
C	-0.7553789884	-1.8520784567	-0.6762741778	-0.178118
C	-0.2508996183	-2.1663798048	 0.5544010782	 0.303394
N	 0.3708365107	-0.9871241865	 0.9818374331	-0.36771
C	-0.2829870409	-3.3824893327	 1.384561582	-0.144221
C	-0.3208003271	-4.7386339036	 0.7250743787	-0.252717
C	 0.9219421124	-4.3075304156	 1.4548796501	-0.258119
H	 0.4753466576	 1.636194404	-0.6779486471	 0.313032
H	-1.3206093979	-2.492259729	-1.3358459054	 0.106131
H	 0.8793410217	-0.8475859453	 1.838269586	 0.26818
H	-0.8494502737	-3.3002247251	 2.310750943	 0.093485
H	-0.9471880557	-5.5008085506	 1.1738218857	 0.114166
H	-0.2812169214	-4.769659027	-0.3572611227	 0.123216
H	 1.7886848656	-4.0442951867	 0.8592690351	 0.118726
H	 1.1497142133	-4.7723230193	 2.4078379657	 0.111345
