19
gdb 59102	2.15912	1.46008	1.12473	3.5616	72.01	-0.2462	-0.0275	0.2187	1169.5849	0.156382	-460.161826	-460.152121	-460.151177	-460.197136	35.636	
C	 0.1065490505	 1.5159516999	-0.1480782435	-0.41622
C	 0.0657481089	 0.0289240196	 0.2156297474	 0.130157
O	 0.6626343599	-0.2051820045	 1.4823553186	-0.435256
C	-1.3713244867	-0.5283274614	 0.1521032818	-0.142012
C	-1.640173228	-2.0622658705	-0.0087445211	 0.081934
O	-0.4602027949	-2.7921066346	 0.2235087699	-0.414233
C	-2.6366012802	-2.0232433017	 1.1981552326	-0.377063
C	-2.1374380511	-0.599940921	 1.4805001227	 0.410473
O	-2.1943836673	 0.1334345852	 2.4284116623	-0.318506
H	 1.1277270424	 1.893112622	-0.0488293376	 0.125464
H	-0.2314912803	 1.6869103351	-1.1758832889	 0.109735
H	-0.5410102133	 2.0937158627	 0.5219367802	 0.124996
H	 0.678446639	-0.5421994297	-0.489715608	 0.106801
H	 0.1396328142	 0.2735981435	 2.1375898689	 0.289822
H	-1.9630291423	 0.0255220187	-0.5859790919	 0.103625
H	-2.0999224122	-2.3372377547	-0.966032342	 0.070767
H	-0.6782980168	-3.7293721196	 0.2299129254	 0.288892
H	-3.6936274269	-2.0542369204	 0.9151372389	 0.128042
H	-2.4540086346	-2.7484334485	 1.9958940842	 0.132583
