22
gdb 81584	3.41549	1.18731	1.02615	1.0577	87.13	-0.2208	0.0958	0.3166	1263.9786	0.195199	-367.122227	-367.113888	-367.112944	-367.15538	32.996	
C	-0.1122961783	 1.614449074	-0.0526708369	-0.442735
C	 0.0640155067	 0.1024819573	-0.0405354843	 0.066613
C	 1.2886108609	-0.592772742	-0.7363802488	-0.097484
C	 2.167776745	-0.1267603792	 0.4590717145	-0.243707
C	 0.8447770557	-0.6325524845	 1.1000399901	-0.079371
C	 0.9695939669	-1.8546160538	 0.1410686481	 0.086531
N	-0.1870114441	-2.7090518574	-0.0727344281	-0.101324
C	-0.8469978587	-2.7321816435	-1.3769329737	-0.216893
C	-0.0005407969	-3.8699111564	-0.936278648	-0.22701
H	 0.8017993335	 2.1697966676	 0.1713867012	 0.115669
H	-0.4676445957	 1.9484255809	-1.0342414192	 0.113433
H	-0.8674481303	 1.913150568	 0.6831769201	 0.117091
H	-0.8945752085	-0.3679878534	-0.2697353788	 0.080704
H	 1.557557516	-0.5608507927	-1.7948681564	 0.061846
H	 3.0664444112	-0.7165532071	 0.6622968522	 0.08708
H	 2.3823509261	 0.9383551489	 0.530607496	 0.095907
H	 0.5907884235	-0.6646134104	 2.1610136972	 0.066136
H	 1.837032697	-2.4880849311	 0.3542388841	 0.066287
H	-1.9314585207	-2.8033311087	-1.3547694763	 0.11512
H	-0.4498715044	-2.0979028569	-2.1664022169	 0.115953
H	 0.9631448245	-3.9892312777	-1.4305328156	 0.106984
H	-0.4487905893	-4.7966346618	-0.5874399503	 0.113171
