12
gdb 130764	5.57214	1.03012	0.91742	4.0708	56.9	-0.2934	-0.0439	0.2495	1176.4372	0.076918	-509.742368	-509.735317	-509.734373	-509.774956	24.879	
O	 0.0952156258	 0.052117894	 0.3509769607	-0.347729
C	-0.0108320678	 1.209892142	 0.1341855053	 0.514578
O	-1.1366354995	 1.8887086655	-0.2157326309	-0.225431
N	-0.821790966	 3.2559031379	-0.3936535314	-0.171072
C	 0.4306911715	 3.3306576152	-0.1314038344	 0.464661
O	 1.0090544016	 2.1486858318	 0.1875943745	-0.227577
C	 1.2556861677	 4.5546943478	-0.1387382909	-0.068619
C	 0.6141203314	 5.8744307644	-0.1391597162	-0.159209
O	 1.1992378807	 5.3471838181	 1.0503600222	-0.207739
H	 2.2514865572	 4.4229355462	-0.5571684975	 0.135883
H	 1.1445553433	 6.7074129163	-0.5954080303	 0.136052
H	-0.4710817559	 5.9360592309	-0.1402178811	 0.156202
