25
gdb 58186	2.19662	1.22397	0.97866	0.3294	84.77	-0.2454	0.065	0.3105	1381.2959	0.224621	-426.635495	-426.623666	-426.622722	-426.671584	44.635	
C	 0.1654988778	 1.6110829595	-0.3404695246	-0.382366
C	 0.0742077865	 0.1405450277	 0.1038063472	-0.001095
C	 0.8472676259	-0.0445503823	 1.4188196742	-0.394018
C	-1.4080977071	-0.3009324652	 0.1613339341	 0.10096
O	-2.0678514438	 0.0207486788	-1.0669006188	-0.431507
C	-1.7109830264	-1.7869098681	 0.5380753354	 0.322345
C	-3.2255560408	-2.0321951346	 0.4640472788	-0.407301
C	-0.963422073	-2.7808056908	-0.3538363759	-0.407881
O	-1.2620775724	-2.0656485057	 1.8699449342	-0.454644
H	 1.2118947871	 1.9087336843	-0.4619121573	 0.105736
H	-0.3589878807	 1.7883502394	-1.2810122429	 0.116106
H	-0.2805207772	 2.2693267886	 0.4149601328	 0.110374
H	 0.5656155314	-0.472477185	-0.6676610406	 0.063298
H	 0.8923051573	-1.0846465141	 1.7380577138	 0.138967
H	 1.867609035	 0.3371540008	 1.304374628	 0.102081
H	 0.3753613206	 0.5275611816	 2.2271849787	 0.101224
H	-1.9171038399	 0.3209590781	 0.913918334	 0.067039
H	-1.5387179298	-0.3437481807	-1.7846324148	 0.279425
H	-3.6099814958	-1.8821133936	-0.5457171084	 0.128112
H	-3.4467271221	-3.0517798335	 0.7922078304	 0.113374
H	-3.7595625003	-1.3365927785	 1.1235471605	 0.099225
H	 0.118192189	-2.6918921736	-0.2274364532	 0.127195
H	-1.2492591551	-3.8025834778	-0.0903639549	 0.124235
H	-1.2087053553	-2.6252540053	-1.4090757934	 0.103891
H	-1.7829586108	-1.5265802299	 2.4752519228	 0.275225
