19
gdb 78041	2.88659	1.23031	1.11621	2.8983	76.87	-0.2387	-0.0171	0.2216	1185.9292	0.157029	-423.015062	-423.005831	-423.004887	-423.04867	34.811	
C	-0.0444984524	 1.5367740109	-0.0605714154	-0.458847
C	 0.0597494949	 0.0189588902	-0.0797058101	 0.294459
C	-1.1494386783	-0.6578117656	 0.5532193861	-0.450016
C	 0.6917058307	-0.7506560497	-1.1875788989	-0.10629
C	 1.3710780945	-0.7048261387	 0.2343375356	-0.220672
C	 2.5438748003	-0.0771411786	-0.4268486812	 0.36021
O	 3.7118497455	 0.005020649	-0.1488029902	-0.340469
C	 1.8618154448	 0.0052727468	-1.8277602756	 0.013521
O	 2.5804315114	-0.778667176	-2.7533924216	-0.445776
H	 0.8473520481	 2.0361611316	-0.4428015504	 0.129998
H	-0.8999630971	 1.8695266788	-0.6593778778	 0.122705
H	-0.2020989835	 1.8867215804	 0.9651495464	 0.124473
H	-2.0638934509	-0.3797692016	 0.0182324226	 0.125403
H	-1.0629562614	-1.7479095108	 0.5297617481	 0.121734
H	-1.2659057321	-0.3479088832	 1.5971130596	 0.125322
H	 0.2376619774	-1.6218909154	-1.6420609396	 0.113801
H	 1.4214473545	-1.4532848888	 1.0168330484	 0.108303
H	 1.6271440633	 0.9930412273	-2.2433301816	 0.08451
H	 3.5176318304	-0.6386483067	-2.5677119146	 0.297633
