16
gdb 46470	3.01822	1.53308	1.11216	4.8657	72.79	-0.2557	-0.0656	0.1901	1066.1779	0.124949	-437.902846	-437.89507	-437.894125	-437.935788	29.011	
N	-0.0796404821	 1.2393856584	 0.3233378842	-0.501804
C	-0.0147961389	 0.025791333	-0.0153202997	 0.328364
O	 1.1070812987	-0.639993691	-0.4022255935	-0.250806
C	 0.8429741616	-2.0246814396	-0.7273485888	-0.182165
C	-0.6423068904	-2.2362080765	-0.5073993093	 0.202985
C	-1.5180749532	-3.1297854082	-1.3676652188	-0.290712
C	-1.253918196	-3.5095959613	 0.049700494	-0.290586
C	-1.1921736832	-0.9296647285	-0.054300459	 0.252432
O	-2.3348288643	-0.6745110086	 0.2259463148	-0.305561
H	 0.8406652718	 1.6820175826	 0.2719731606	 0.231455
H	 1.1526224689	-2.1859075376	-1.7651447645	 0.127909
H	 1.4682422191	-2.6429022921	-0.0749111111	 0.127925
H	-2.4967888885	-2.7325939929	-1.6146474908	 0.148325
H	-1.0228256982	-3.6854958178	-2.1569435069	 0.126955
H	-0.5739421254	-4.3306561064	 0.2510327898	 0.126962
H	-2.0521041101	-3.3719472934	 0.771213649	 0.148323
