15
gdb 97617	2.52969	0.77629	0.61417	3.8199	78.44	-0.2506	-0.0383	0.2123	1731.3431	0.107786	-420.547752	-420.537342	-420.536397	-420.585909	34.59	
O	 0.4698868168	 0.3096527475	-1.0811897374	-0.406156
C	-0.0612920898	 0.2631492298	 0.2353117017	-0.214321
C	-1.4305582604	-0.2361893493	 0.191012401	 0.117646
C	-2.5685288156	-0.6260758189	 0.1817873766	 0.071585
C	-3.9262677187	-1.1688109915	 0.1348125302	-0.407986
C	-3.8537333077	-2.6440253957	-0.3480541847	 0.180618
O	-4.4021144783	-3.041878779	-1.3341652752	-0.229331
C	-4.5903023366	-1.1468192598	 1.4385531678	 0.311881
C	-5.146362563	-1.1944793025	 2.5020222064	-0.43262
H	 1.3699784141	 0.6450087342	-1.0168454294	 0.293173
H	 0.5358987214	-0.3944331832	 0.8878492339	 0.121908
H	-0.0633894973	 1.2603028204	 0.7049656036	 0.123807
H	-4.5302450004	-0.6314449792	-0.6065613364	 0.154526
H	-3.2410994998	-3.2912226373	 0.311859752	 0.106627
H	-5.6392545445	-1.2125174155	 3.44281218	 0.208644
