20
gdb 118211	4.61359	0.68071	0.61602	4.5266	73.52	-0.2341	0.0428	0.2768	1792.713	0.169092	-477.447687	-477.43709	-477.436146	-477.484467	37.426	
C	-0.4909964339	 1.1932505808	-0.0706087998	-0.2323
O	-0.4020845876	-0.1997019969	-0.2738358706	-0.253708
C	 0.7881494141	-0.6029312459	-0.9242158676	-0.073713
C	 0.6530170634	-2.0997358001	-1.1842507302	 0.081468
O	-0.5524826555	-2.3358305204	-1.9118645409	-0.43951
C	 1.8262802872	-2.6514001037	-1.9919544547	-0.291844
C	 1.9129180418	-4.179699194	-2.0914287575	 0.365567
N	 0.7232686209	-4.8111957568	-2.278983505	-0.509457
O	 2.9787843291	-4.7634580822	-2.0318103656	-0.366125
H	 0.3236416433	 1.5595552334	 0.5716582249	 0.113916
H	-0.4564470088	 1.7448537846	-1.022305531	 0.112725
H	-1.4458956487	 1.3911691449	 0.4216327495	 0.132917
H	 0.9066503521	-0.063972474	-1.8785182458	 0.095604
H	 1.6695610941	-0.3941826759	-0.2977340867	 0.098766
H	 0.6027403873	-2.6088708843	-0.2086426076	 0.087553
H	-1.235684301	-1.8249210769	-1.4593405611	 0.295403
H	 1.7689628315	-2.243565929	-3.0089583039	 0.129762
H	 2.7723896952	-2.3237397667	-1.5551558446	 0.126623
H	-0.1404974865	-4.2902108553	-2.3029258008	 0.272932
H	 0.7259905822	-5.8144360816	-2.3574349709	 0.253423
