19
gdb 39597	3.3555	1.50032	1.09846	1.6741	75.87	-0.2473	0.0122	0.2595	1088.1776	0.162752	-423.028461	-423.021547	-423.020603	-423.059554	28.434	
C	-0.0649936728	 1.5314802468	 0.0328946033	-0.329304
C	 1.4172642585	 1.8691116754	-0.05328135	-0.064338
C	 2.1873443052	 0.8681858982	 0.3882086225	-0.125799
C	 1.3136569755	-0.2520126103	 0.903004453	 0.005073
C	 1.6127228592	-1.7428793852	 0.7999848521	-0.140576
O	 0.4502829185	-2.4265048478	 1.283136216	-0.244499
C	-0.7277260477	-2.0909265339	 0.592072216	 0.013775
O	-1.0559483135	-0.7160428855	 0.6402776187	-0.260597
C	 0.0294982254	 0.0054992252	 0.0980552546	 0.159999
H	-0.514510248	 1.9358847449	 0.9511089826	 0.120137
H	-0.6535939702	 1.9000168229	-0.8122116135	 0.10738
H	 1.7775027909	 2.8272851032	-0.4096682706	 0.098448
H	 3.2694074441	 0.8851371928	 0.4521003614	 0.096254
H	 1.0821047487	-0.0658979256	 1.9636382144	 0.098965
H	 1.8286436795	-2.0363665419	-0.2406013282	 0.092374
H	 2.4417079695	-2.0723802408	 1.4319473802	 0.110236
H	-0.6387966135	-2.401459202	-0.4666158933	 0.077275
H	-1.5401460573	-2.6312069807	 1.0806884331	 0.118714
H	 0.2148242682	-0.3534306958	-0.9314535625	 0.066483
