23
gdb 122113	2.52379	0.71941	0.587	1.9708	84.54	-0.2426	-0.0293	0.2132	1958.7305	0.20197	-425.432704	-425.42122	-425.420275	-425.470833	39.352	
C	 0.1009258773	 1.5097722111	 0.2220866972	-0.380559
C	 0.0019761458	-0.0147773763	 0.1205598914	-0.167259
C	-1.443530339	-0.5144187054	 0.0272553674	-0.167186
C	-1.5428037917	-2.0403109469	-0.0715193424	-0.212345
C	-2.9885918061	-2.5399672103	-0.2014944287	 0.029406
O	-3.5323624574	-2.0257277546	-1.4005371903	-0.240766
C	-4.9407561383	-2.1184687188	-1.4698153144	-0.24208
C	-2.9875488416	-4.0666191385	-0.227648414	 0.134117
O	-2.9568423305	-4.7658864049	 0.750599565	-0.246021
H	 1.1426969467	 1.8393943	 0.2838121636	 0.11208
H	-0.3512933495	 1.9940090275	-0.6505284515	 0.114982
H	-0.4192055367	 1.8818174432	 1.111844468	 0.113818
H	 0.5614919427	-0.3608071422	-0.7585689842	 0.096578
H	 0.4912098045	-0.4731829839	 0.990298696	 0.095493
H	-2.0054543937	-0.1724268173	 0.9076051022	 0.090993
H	-1.9350929249	-0.0698259665	-0.8450069223	 0.113928
H	-0.9731482801	-2.3951362529	-0.9403540648	 0.106209
H	-1.1043236195	-2.5127937755	 0.8149947904	 0.117014
H	-3.5722038795	-2.2096208532	 0.6728797647	 0.086659
H	-5.2446883199	-1.6982797501	-2.4311124876	 0.133564
H	-5.2941978696	-3.1591523051	-1.4128676715	 0.113003
H	-5.4219859352	-1.5488079751	-0.6606901486	 0.113879
H	-2.9778904839	-4.4866777945	-1.2612423458	 0.084494
