18
gdb 61501	2.69696	0.91135	0.83388	3.4977	73.46	-0.2657	-0.039	0.2267	1450.7162	0.143461	-439.100222	-439.089835	-439.088891	-439.136844	35.588	
C	 0.147705067	 0.7550541053	-1.1862446026	-0.408186
C	 0.1174132625	-0.2920020887	-0.0773063571	 0.024275
O	 0.8214455612	 0.0906706845	 1.1028669468	-0.266385
C	 2.2317697294	 0.0359560007	 1.0433371987	 0.005826
C	 2.7723378175	 0.6025583254	 2.3554170558	-0.399633
C	 2.6999861582	-1.353631807	 0.8270588189	 0.262221
N	 3.0513465272	-2.4398745997	 0.6478483393	-0.320781
C	-1.3028185551	-0.6008910411	 0.3906844282	 0.151445
O	-2.2696589502	-0.5525900533	-0.3210002144	-0.2392
H	 1.1372049613	 0.8378980168	-1.642929519	 0.121799
H	-0.5680142818	 0.4677243074	-1.959879044	 0.153483
H	-0.1446177501	 1.7319301738	-0.7910009948	 0.134074
H	 0.5207069529	-1.2496408813	-0.4512063409	 0.125949
H	 2.6107012715	 0.6358097479	 0.2030406449	 0.12313
H	 3.8646353595	 0.5868913611	 2.3575433655	 0.141815
H	 2.426762173	 1.6326733349	 2.4654864198	 0.140155
H	 2.4056320934	 0.0130856996	 3.1984444844	 0.150301
H	-1.3589936177	-0.8964418364	 1.4602186006	 0.099711
