21
gdb 39383	2.26476	1.69175	1.11421	1.6425	83.33	-0.2408	0.0235	0.2642	1142.6825	0.185106	-387.078225	-387.070222	-387.069278	-387.110862	31.824	
C	 0.2778521625	 1.7219152536	 0.0976308786	-0.270659
C	 1.4475815946	 1.7251318607	-0.9063935825	-0.220773
C	 2.7504251789	 1.0666655938	-0.4924989028	 0.081328
O	 3.6112776612	 1.7581669611	 0.4225874128	-0.265787
C	 3.1237598477	 0.4698909907	 0.8068404697	 0.066603
C	 2.2907633465	 0.3994878665	 2.0698503368	-0.250287
C	 1.255793032	-0.733057724	 2.0755485371	-0.25047
C	 0.1054590289	-0.6483455592	 1.1060760552	-0.022921
C	-0.3070733821	 0.3448181495	 0.315650471	-0.05932
H	 0.5868409871	 2.1969058108	 1.0299899274	 0.116417
H	-0.5078631889	 2.3650969873	-0.3135342787	 0.097301
H	 1.1127652656	 1.2264811554	-1.8243851163	 0.100682
H	 1.6830009874	 2.7591494092	-1.1895908947	 0.111839
H	 3.3011473826	 0.6691405627	-1.349369085	 0.082755
H	 3.8830231778	-0.3163764042	 0.7516564358	 0.082633
H	 2.9828527381	 0.2352544081	 2.9051758816	 0.1003
H	 1.8224721163	 1.3654185142	 2.2583080355	 0.117868
H	 1.7727868167	-1.6884446115	 1.9000912141	 0.106112
H	 0.8448121166	-0.8280993254	 3.0914171481	 0.11111
H	-0.4819463214	-1.5658834879	 1.0715710433	 0.081839
H	-1.1769587782	 0.1309037685	-0.303884257	 0.08343
