19
gdb 49915	5.58719	0.80045	0.73844	4.9986	79.88	-0.2384	0.027	0.2654	1524.2886	0.159312	-419.178563	-419.16971	-419.168766	-419.214059	31.36	
O	 0.2287491675	-0.0069322318	 0.7286073395	-0.333365
C	 0.1703802171	 1.1891961652	 0.5244213097	 0.132545
N	 1.1440534857	 1.912356011	-0.0658607213	-0.04086
C	 2.4674656273	 1.5080020861	-0.5358431387	-0.183093
C	 2.7189685827	 2.9891042437	-0.9485809356	 0.030112
C	 1.3197019043	 3.336862527	-0.3543060317	-0.19724
N	 3.8214808569	 3.6175158089	-0.2567061891	-0.061544
C	 5.1111886558	 3.5923772414	-0.9449668987	-0.223503
C	 4.3318066094	 4.8559734614	-0.8434160437	-0.22504
H	-0.7032140427	 1.8174312858	 0.7980439296	 0.065327
H	 3.1275547618	 1.1547582378	 0.2623335413	 0.130389
H	 2.4468963308	 0.7731638408	-1.3461962091	 0.120734
H	 2.764928783	 3.128280905	-2.0395917208	 0.067524
H	 0.5909634781	 3.7525498708	-1.0583506558	 0.113712
H	 1.3793745951	 3.9722884285	 0.5356973997	 0.124745
H	 5.9773937521	 3.4250226955	-0.3123434613	 0.125622
H	 5.1595981024	 3.1152033305	-1.9223626388	 0.11556
H	 3.8595935429	 5.2232185	-1.7531672433	 0.11392
H	 4.6197729199	 5.6271193424	-0.1355567218	 0.124455
