19
gdb 120052	4.43754	1.03225	0.99046	1.9501	75.22	-0.2304	0.076	0.3064	1277.553	0.158502	-422.946254	-422.938123	-422.937179	-422.979899	30.615	
C	 0.0697207687	 1.4792540722	-0.0788813774	-0.385254
C	 0.3250863801	-0.0167876014	-0.0183441992	-0.040079
O	 0.4741472026	-0.5002316132	-1.3415978534	-0.258656
C	 0.648816717	-1.8792875548	-1.4237080363	 0.198106
C	 0.905914516	-2.4467884853	-2.8052160271	-0.192844
C	 2.4331091953	-2.4066640777	-2.9626587721	 0.105364
O	 2.9900395102	-1.765443367	-1.8167333091	-0.281795
C	 2.0271160763	-2.5177928896	-1.0363442405	 0.000225
C	 1.8107833953	-3.5337821815	-2.2144489861	-0.152443
H	 0.9043780626	 1.9878223565	-0.5691690249	 0.132602
H	-0.8412064568	 1.6904102258	-0.6462509456	 0.124701
H	-0.0445355079	 1.8888165471	 0.9292983422	 0.112343
H	 1.2324821251	-0.2267958049	 0.5695877639	 0.093156
H	-0.5123615592	-0.5341511977	 0.4805940012	 0.082253
H	-0.1634540639	-2.4245438429	-0.9173271513	 0.065612
H	 0.2240282661	-2.5187044544	-3.641912078	 0.095867
H	 2.9545570629	-2.3509248535	-3.9083966128	 0.112473
H	 2.3428941403	-2.7122201456	-0.0140644024	 0.085674
H	 1.8163735793	-4.609843872	-2.3059380009	 0.102695
