17
gdb 65052	2.31891	1.50993	1.24875	3.6672	72.5	-0.2657	0.0036	0.2694	1075.2421	0.134811	-417.968812	-417.960061	-417.959117	-418.002326	32.335	
C	 0.0696180671	 0.9113748412	-1.2531036172	-0.484988
C	-0.0035752682	-0.0016928412	-0.047243621	 0.214662
C	 1.2067341695	-0.734077476	 0.4090676135	-0.267131
N	 0.6653928703	 0.3863564833	 1.1999358736	-0.34832
C	-1.3566901792	-0.6434685499	 0.1584322862	 0.237924
C	-1.9636305061	-0.7778156026	 1.4966864577	-0.208426
O	-2.4101659494	 0.2266614551	 0.5859210003	-0.267079
C	-1.739201183	-1.5930053291	-0.8762707522	 0.264771
N	-2.0056636897	-2.3465555441	-1.7110940413	-0.335067
H	 1.0784127617	 1.3185664327	-1.369451987	 0.118281
H	-0.1858191967	 0.3733891609	-2.1716687351	 0.150623
H	-0.6326148322	 1.7439487494	-1.1429475957	 0.146406
H	 1.1136593226	-1.7086832698	 0.8797019031	 0.127488
H	 2.1238333425	-0.5871300164	-0.1546422459	 0.123795
H	 1.2119479478	 1.2301200482	 1.0476160812	 0.238594
H	-2.6679920202	-1.5867454999	 1.6791448335	 0.132926
H	-1.382488327	-0.4166600019	 2.3399039561	 0.155541
