17
gdb 127957	2.46794	1.62599	0.99225	1.4515	82.21	-0.2253	-0.0635	0.1618	1166.589	0.136395	-414.173478	-414.164982	-414.164038	-414.20654	31.212	
C	-0.0376294252	 1.4402747955	 0.0508084781	-0.346611
N	-0.0335700419	-0.0099589984	 0.0641806911	-0.316976
C	 0.5234187503	-0.6255019574	-0.909771561	 0.392072
N	 1.1427887945	-0.0161183835	-2.0111802754	-0.320328
N	 1.7452941959	-0.6100602038	-3.0663736374	-0.04322
N	 1.7803634107	-1.8755530867	-3.1103516899	-0.219905
C	 1.2026638619	-2.6068398261	-2.0802836726	-0.045958
C	 0.5854299124	-2.0767022467	-0.9986247567	 0.200725
C	-0.0291658108	-2.8847365161	 0.0970057491	-0.480612
H	 0.9782300132	 1.8704463771	 0.0551570523	 0.110774
H	-0.5680633425	 1.8580625881	-0.8216215959	 0.110757
H	-0.5472806406	 1.8080753039	 0.9444349872	 0.131682
H	 1.1711645038	 0.9899059272	-2.0756142435	 0.275663
H	 1.286042577	-3.680319662	-2.2120184389	 0.124276
H	 0.086102818	-3.9553268931	-0.0860598086	 0.122476
H	 0.4262435991	-2.6274884317	 1.0589021323	 0.15263
H	-1.0927477357	-2.6436504561	 0.1949460897	 0.152554
