16
gdb 22905	2.16453	1.73167	0.99257	1.6101	71.81	-0.2362	-0.0406	0.1956	1131.3342	0.124879	-471.163099	-471.154579	-471.153634	-471.196334	31.838	
O	 0.0221235891	 1.250692232	 0.3982776937	-0.345491
N	-0.0150287027	-0.1199579181	 0.262032217	-0.247682
C	-1.1584742018	-0.6169032307	 0.0063994158	 0.328983
C	-1.2663028335	-2.127383442	-0.110270024	 0.084563
O	-0.3627713689	-2.8433102329	 0.6886762829	-0.436018
C	-2.733142008	-2.3719221097	 0.2923446051	-0.198714
N	-3.373886821	-1.1336247089	-0.1406589352	-0.347866
C	-2.523793044	-0.0334580146	-0.1284616846	 0.306399
N	-2.7931037963	 1.2093083314	-0.2287555902	-0.53139
H	 0.9507258732	 1.4145531116	 0.601450474	 0.3119
H	-1.1464445975	-2.4011960614	-1.1723304683	 0.098486
H	 0.4027230319	-2.2671427828	 0.8130256689	 0.293466
H	-3.1708856422	-3.2398368081	-0.2072101207	 0.118481
H	-2.7799296921	-2.5271952152	 1.3791327136	 0.118894
H	-4.3590996417	-0.990671665	 0.0178527708	 0.242885
H	-3.8032389944	 1.3592998945	-0.2916184792	 0.203104
