16
gdb 49696	2.06108	1.72768	1.0483	3.4137	79.28	-0.2386	-0.0085	0.2301	1128.9027	0.12268	-400.688319	-400.680026	-400.679082	-400.721339	30.944	
O	 0.1025182419	 0.2511981361	 0.5169743031	-0.291607
C	 0.1081209709	 1.3989341771	 0.1445144159	 0.139224
N	 1.1539131865	 1.9983342749	-0.5439417475	-0.122641
C	 2.539152975	 1.8282464807	-0.1720947464	-0.087623
C	 3.3934262713	 2.3002571198	-1.3535822432	-0.239958
C	 2.694001065	 3.7019363754	-1.2752745643	-0.294764
C	 1.8679889217	 3.1968654642	-0.0741915359	 0.185077
C	 1.4343042755	 3.939778412	 1.0566814982	 0.202626
C	 1.0718416932	 4.6002917926	 1.994961335	-0.403689
H	-0.7591993583	 2.0770199304	 0.2381814703	 0.095697
H	 2.7930116344	 1.1403284775	 0.6247291409	 0.132968
H	 4.4552535706	 2.3555530112	-1.1080550213	 0.117961
H	 3.2596988144	 1.7316754569	-2.2758265348	 0.122905
H	 3.3832074025	 4.4989053503	-0.9929156385	 0.125616
H	 2.101983994	 4.0123111054	-2.1379097983	 0.118563
H	 0.7551372415	 5.1739554454	 2.8309503868	 0.199644
