21
gdb 81240	2.83444	1.50359	1.38597	2.0972	82.09	-0.2309	0.0756	0.3065	1066.5724	0.183644	-387.013707	-387.005835	-387.00489	-387.045979	31.833	
C	-0.0087215994	 1.5982467472	 0.0899354474	-0.436385
C	 0.0107645355	 0.0882923981	-0.0570178101	-0.005273
C	 1.2616775225	-0.6031256339	-0.6321603092	-0.019631
O	 2.0145959436	-0.2300344601	 0.6149178045	-0.377117
C	 0.7016804474	-0.7805962895	 1.0509519294	 0.436343
C	 0.1135530532	-1.2973760618	 2.3332253639	-0.368867
C	-0.8475309884	-2.4092862753	 1.751950514	-0.193241
C	-0.4406676196	-2.7149157283	 0.2456682682	-0.28848
C	 0.8712629215	-1.9393799266	 0.0836632829	 0.001246
H	 0.9531170198	 1.9600332836	 0.4577409873	 0.138821
H	-0.2189131387	 2.0792604327	-0.8718110957	 0.112159
H	-0.7923131146	 1.9123932166	 0.7884756585	 0.110922
H	-0.9442061859	-0.2970515434	-0.4243217736	 0.067762
H	 1.7945440519	-0.4321946879	-1.5693562535	 0.085496
H	 0.8946293333	-1.7418777901	 2.9579236056	 0.118401
H	-0.4239259266	-0.557009691	 2.9314014519	 0.10598
H	-0.7887713308	-3.3127078997	 2.3637746578	 0.11007
H	-1.8855837355	-2.0694487728	 1.797289647	 0.108627
H	-0.3053045285	-3.7863675928	 0.0813509299	 0.101363
H	-1.2323436165	-2.3898434785	-0.4329564903	 0.110881
H	 1.7575398658	-2.5372969665	 0.3089366037	 0.080921
