21
gdb 31638	3.35872	1.01445	0.83167	1.7089	88.4	-0.1785	0.0558	0.2343	1461.6701	0.182927	-383.309074	-383.298997	-383.298053	-383.344486	36.644	
C	-0.2611459075	 1.5436254931	 0.054456642	-0.359183
C	 0.1372420062	 0.0616907297	-0.0544567507	-0.29314
C	 0.8065429872	-0.4714892604	 1.1795202012	 0.292733
C	 2.1280317787	-0.8328279479	 1.3013126334	-0.215923
N	 2.3570959234	-1.2674797513	 2.5899153547	-0.009376
C	 3.616540432	-1.7513981108	 3.109963033	-0.342761
C	 1.1856365131	-1.1616213722	 3.3059073383	 0.278196
N	 1.1453532564	-1.6044922872	 4.6467363668	-0.608261
C	 0.2104987778	-0.6758971898	 2.4614981788	-0.340606
H	 0.6191838348	 2.17053919	 0.2286475769	 0.113297
H	-0.7528833582	 1.8900579821	-0.8609427849	 0.101924
H	-0.9506631748	 1.7053251885	 0.889293107	 0.113915
H	-0.7603541731	-0.5305435704	-0.2774300791	 0.096815
H	 0.8074515234	-0.0694291491	-0.9124007339	 0.092007
H	 2.9285791266	-0.8192962623	 0.5778073758	 0.103748
H	 4.2613925561	-0.9347957796	 3.459272593	 0.124258
H	 3.4156636131	-2.4206364468	 3.9488039596	 0.155246
H	 4.1492839304	-2.3021859063	 2.3304747445	 0.133628
H	 1.4993814976	-0.9090868228	 5.2981785498	 0.241187
H	 0.1926843199	-1.8161105607	 4.9169547142	 0.245803
H	-0.8182869127	-0.489575556	 2.7342746097	 0.076493
