18
gdb 90688	3.5814	1.12927	1.06181	3.3586	72.57	-0.2343	0.0289	0.2632	1193.1885	0.147574	-439.080481	-439.072034	-439.071089	-439.113746	32.263	
C	 0.2523091907	 1.2906394577	-0.5255234172	-0.396417
C	 0.1757322762	-0.1764312917	-0.161346117	 0.120724
O	 1.3573586841	-0.902857529	-0.657656436	-0.312387
C	 1.7802918445	-1.1491230664	 0.6910117417	 0.050557
C	 0.5482112665	-0.5176160983	 1.2805682092	-0.151992
C	 0.8114893451	-2.0143706024	 1.4465722992	-0.134886
C	-0.0350732824	-3.1517598642	 0.9205556057	 0.391977
N	-0.1126567116	-3.2726730168	-0.4342687271	-0.541923
O	-0.6038003694	-3.903902673	 1.6902338788	-0.37692
H	 1.1668453614	 1.7438625073	-0.1322007735	 0.127102
H	 0.2426376421	 1.4115542539	-1.6125934318	 0.131265
H	-0.6098992058	 1.8253730915	-0.1123421536	 0.123868
H	-0.7417289985	-0.6354401454	-0.5450730388	 0.098615
H	 2.8396542914	-1.0688062622	 0.9055190321	 0.114514
H	 0.422700216	 0.1386884742	 2.1311296409	 0.109875
H	 1.1404430767	-2.2353251709	 2.457963377	 0.120529
H	 0.4710681943	-2.7044046011	-1.0310340565	 0.271273
H	-0.6029580313	-4.0725670532	-0.799567833	 0.254226
