19
gdb 90474	3.33011	1.08292	1.03528	3.809	76.97	-0.2374	-0.0191	0.2182	1243.2413	0.158916	-423.027561	-423.019033	-423.018089	-423.061249	31.752	
C	-0.5880593123	 1.2391430463	 0.0759901026	-0.403796
C	 0.2546019616	-0.0266134732	 0.0201259837	 0.141255
C	 1.1096188754	-0.1795351487	-1.2676974699	-0.277149
C	 2.51573779	-0.4781136565	-0.7673969593	-0.107886
C	 2.4633773151	-0.323071941	 0.7057747932	 0.082543
O	 1.1729936096	-0.0240891726	 1.1333737504	-0.265749
C	 2.7720806757	-1.710869166	 0.1191073028	-0.158208
C	 1.8554760363	-2.8644984757	 0.2305336863	 0.164014
O	 2.2347248945	-4.0000004333	 0.39975433	-0.275861
H	 0.0430390942	 2.1257492159	-0.0419009146	 0.122167
H	-1.337354053	 1.2348018509	-0.7223954551	 0.118449
H	-1.1081350056	 1.3105768893	 1.0349942825	 0.131846
H	-0.4028743928	-0.8979222275	 0.1382827286	 0.091035
H	 0.7036162578	-0.9459281647	-1.9334096971	 0.118452
H	 1.1302957153	 0.7607810896	-1.8282245621	 0.114202
H	 3.3565533955	-0.1327331428	-1.3566000852	 0.107601
H	 3.2276902976	 0.1543874429	 1.3083058543	 0.117213
H	 3.8153174692	-2.004959572	 0.1850598884	 0.109149
H	 0.770680676	-2.6415011608	 0.1553249505	 0.070723
