23
gdb 117999	3.30023	0.76896	0.65823	1.3349	88.7	-0.2629	0.0327	0.2956	1766.9667	0.202086	-388.262433	-388.250948	-388.250004	-388.29952	41.53	
C	-0.0393946871	 1.6177843905	-0.1000682405	-0.377965
C	 0.017973987	 0.0901996829	-0.0036322888	-0.182067
C	-1.3744408731	-0.5470232908	 0.0784998787	-0.16501
C	-1.3761332386	-2.0859249753	 0.0999570836	 0.005028
C	-0.7801285287	-2.6578838029	 1.3929209764	-0.406852
C	-2.8195286455	-2.6141781331	-0.1230135493	-0.051647
O	-3.4228685362	-2.0701049185	-1.296464741	-0.419206
C	-2.8752730246	-4.0796449402	-0.1551441838	 0.291882
C	-2.9067631421	-5.278579904	-0.2449961524	-0.4432
H	 0.9631887088	 2.0524935098	-0.1626875812	 0.109408
H	-0.5986891356	 1.93741712	-0.9862728034	 0.114891
H	-0.5358591869	 2.050829977	 0.7755293939	 0.113842
H	 0.5471417229	-0.3114658098	-0.8784764486	 0.091939
H	 0.6179020549	-0.1920546795	 0.8697788577	 0.096943
H	-1.8912777624	-0.17843478	 0.9771278422	 0.086048
H	-1.971849206	-0.2136625562	-0.7761458284	 0.110677
H	-0.7769994966	-2.446449797	-0.7499073275	 0.06763
H	-0.7851369244	-3.7505944821	 1.3849620511	 0.129122
H	 0.2527834298	-2.3279552497	 1.530487301	 0.118807
H	-1.3540506446	-2.3240786061	 2.266131171	 0.113007
H	-3.4454322623	-2.2516448317	 0.7033185093	 0.115029
H	-3.0370609123	-2.5241814629	-2.0539988226	 0.283344
H	-2.9504926862	-6.3379849104	-0.3074994977	 0.198348
