18
gdb 31568	3.36586	1.09093	0.83254	1.9293	77.48	-0.1625	0.0659	0.2284	1368.0541	0.145907	-439.109943	-439.099793	-439.098849	-439.145877	35.437	
C	-0.5188011429	 0.4909842165	 0.5125021417	-0.242923
O	 0.4739654761	 0.85084545	-0.4313226095	-0.260206
C	 0.8060293584	-0.1228677869	-1.3077741047	 0.431117
C	 0.3800807894	-1.4211424814	-1.4865802176	-0.445705
C	 1.1322981107	-1.9212707859	-2.5989195641	 0.259897
O	 1.0543925663	-3.1732391264	-3.1505681392	-0.457972
C	 1.9753994163	-0.9432283669	-3.0588957345	 0.223225
C	 2.9575617554	-0.9433991436	-4.1775178158	-0.511559
N	 1.7539067918	 0.1671396389	-2.2391006002	-0.396558
H	-1.4578034504	 0.2187835564	 0.0135685647	 0.124988
H	-0.1876619653	-0.3526051704	 1.1317587637	 0.124977
H	-0.680207492	 1.366290267	 1.1432044679	 0.134113
H	-0.3627477833	-1.948687402	-0.9104374281	 0.085835
H	 0.3993778535	-3.6782331338	-2.6621881904	 0.29279
H	 2.726668942	-0.19163565	-4.9446657691	 0.116412
H	 3.9859756471	-0.7571582375	-3.8389033721	 0.116404
H	 2.9431070628	-1.9225099523	-4.6617969093	 0.147947
H	 2.2167536341	 1.0558282585	-2.3111037835	 0.25722
