20
gdb 6453	4.18499	1.26807	1.16822	2.8647	75.85	-0.2444	-0.0162	0.2282	1115.5915	0.174985	-349.016177	-349.007211	-349.006267	-349.049661	33.052	
C	-0.9151725448	 1.0189284095	-0.4462930944	-0.410366
C	 0.1347427453	-0.0554131898	-0.2076886492	 0.059094
C	 1.4265112647	-0.0335361818	-1.0687809404	-0.279559
C	 2.2887279272	-0.3269421026	 0.2115226616	 0.221028
C	 3.5513217445	 0.4934581058	 0.4216660388	-0.459135
C	 1.021366237	 0.0439991406	 1.0629936051	-0.279531
C	 2.5607124114	-1.8082255478	 0.3172236707	 0.140739
O	 3.6361294182	-2.3042887055	 0.5402523839	-0.264913
H	-0.4703005921	 2.0195619505	-0.3981318922	 0.112181
H	-1.3809345358	 0.9081462088	-1.4318730209	 0.117676
H	-1.7110787976	 0.9713147655	 0.3052662176	 0.117676
H	-0.3355863662	-1.0434285822	-0.2611365772	 0.076626
H	 1.4979359769	-0.7452253199	-1.8963819672	 0.104509
H	 1.6489930093	 0.9660800981	-1.4545882182	 0.105471
H	 3.3330068336	 1.5627187301	 0.3414667774	 0.104377
H	 3.9843513078	 0.3009748001	 1.4078622334	 0.12821
H	 4.3128511873	 0.2383848926	-0.3214160968	 0.128182
H	 1.1003590858	 1.0710936603	 1.4323417042	 0.105476
H	 0.7751262857	-0.6068637823	 1.9069499557	 0.104522
H	 1.6609703818	-2.4523553401	 0.1692517082	 0.067735
