19
gdb 84432	2.42462	1.68926	1.24217	2.3465	75.86	-0.24	-0.0088	0.2311	1070.8747	0.157274	-423.023654	-423.01465	-423.013706	-423.056757	34.576	
C	 0.0098685627	 1.5510187278	-0.0860713554	-0.494681
C	-0.0878859784	 0.0678756705	 0.1345799409	 0.315401
O	 1.1187439635	-0.7058446438	-0.1225017499	-0.332392
C	 0.5690396398	-0.7252398998	 1.2011221349	 0.278591
C	 1.4355165264	-0.2042619319	 2.3140757433	-0.479073
C	-0.2930403279	-1.9837798103	 1.4373704906	 0.031103
O	-0.7698785583	-2.1053785392	 2.773195547	-0.423517
C	-1.4076803156	-1.8395693035	 0.4229284898	-0.140071
C	-1.3185951528	-0.6953209177	-0.2581767331	-0.123937
H	 0.9401945927	 1.9501536578	 0.3228864164	 0.133416
H	-0.0116900652	 1.7804001771	-1.1572138996	 0.131233
H	-0.8321487954	 2.0699685276	 0.3843871656	 0.122781
H	 1.8927462124	 0.7499074773	 2.0436258257	 0.1231
H	 0.8540810063	-0.0800546252	 3.2307439538	 0.124781
H	 2.240222752	-0.9157529061	 2.5289031607	 0.132152
H	 0.307912461	-2.8830217231	 1.2593525801	 0.109021
H	-1.4673438366	-1.4502014693	 2.8883858405	 0.279601
H	-2.1646214196	-2.605244871	 0.2964606277	 0.107323
H	-2.0000123467	-0.3569999171	-1.0306247388	 0.105167
