16
gdb 6649	6.40108	0.8841	0.83171	5.877	66.17	-0.2452	-0.0309	0.2143	1343.9569	0.128614	-379.940314	-379.931144	-379.9302	-379.975496	30.823	
C	-0.1140203452	 1.3500815994	-0.2582200683	-0.47754
C	-0.1065180519	-0.1559435724	-0.0955147493	 0.374482
O	 0.7209158329	-0.8673398872	-0.6186675724	-0.294194
C	-1.2016765646	-0.759852069	 0.79676498	-0.269471
N	-1.2447144092	-2.2091116005	 0.8303780154	-0.275732
C	-1.7594439674	-2.7987970448	-0.4067020246	-0.272587
C	-1.8409845765	-4.257803322	-0.2904211467	 0.26299
N	-1.891721742	-5.4090214401	-0.2142509184	-0.298667
H	 0.7935625296	 1.6752595259	-0.7678291404	 0.151769
H	-0.9873235857	 1.6524966926	-0.8484697619	 0.147478
H	-0.1995909283	 1.8494989677	 0.7128252958	 0.141721
H	-1.0366900008	-0.3804507473	 1.8154399232	 0.137017
H	-2.1804424712	-0.365118176	 0.4937196846	 0.126701
H	-0.302137181	-2.5574613939	 0.9806200231	 0.241588
H	-2.7729651731	-2.4159294646	-0.5801845812	 0.150635
H	-1.1626941457	-2.5615277979	-1.3010628491	 0.153812
