15
gdb 74255	3.33843	1.36615	1.12763	5.0655	70.42	-0.2492	0.014	0.2632	1057.3738	0.115044	-412.990795	-412.983266	-412.982322	-413.02283	28.756	
N	 0.0570093404	 1.3328672174	-0.0840119052	-0.564471
C	-0.0268251921	-0.0209799945	-0.0366352229	 0.412739
N	-1.1138319292	-0.7007505805	-0.1082787517	-0.297512
C	-0.7301824682	-2.116830995	-0.0636077201	-0.148087
C	-1.2948052354	-2.8763137642	-1.1906299652	 0.294404
N	-1.7158805699	-3.4877721069	-2.0758553523	-0.330486
C	 0.8129511046	-2.1248847576	-0.0473273083	-0.041436
C	 1.5092021251	-1.4674693908	-1.1737031367	-0.248264
N	 1.2257751212	-0.7138925482	 0.0807573185	-0.158949
H	 0.8901050986	 1.7484464696	 0.2978239904	 0.271194
H	-0.8032899894	 1.8431768418	 0.034622912	 0.273163
H	-1.1120756992	-2.5761380809	 0.8580323382	 0.131023
H	 1.3274423449	-2.8468071662	 0.5761080808	 0.118158
H	 2.561243899	-1.668251504	-1.3454995471	 0.135025
H	 0.9305607397	-1.2041392601	-2.0544322903	 0.153498
