10
gdb 8723	5.44049	1.19849	0.98213	0.0025	49.13	-0.2554	-0.1571	0.0983	1045.9311	0.05574	-454.41244	-454.404209	-454.403265	-454.447919	25.564	
O	-0.0432087148	-0.0362826429	 0.0018228185	-0.197486
C	-0.0441202031	 1.16349422	 0.0071468867	 0.087955
C	 1.2952534275	 1.943856058	-0.000509476	 0.204204
O	 2.3592358254	 1.3778329722	-0.0122466643	-0.233313
C	 1.2129436735	 3.4758423347	 0.0089690164	 0.204203
O	 0.1489671267	 4.0418597899	 0.0215108098	-0.233313
C	 2.5523142816	 4.2562112755	 0.0010103511	 0.087955
O	 2.5514041519	 5.4559833981	 0.0071156734	-0.197485
H	-0.9644975124	 1.772844809	 0.0176063504	 0.13864
H	 3.4726807336	 3.6468656056	-0.010582716	 0.13864
