18
gdb 113277	2.35899	1.1789	0.90693	3.0139	79.13	-0.2759	-0.0503	0.2255	1325.2661	0.145855	-401.968798	-401.959291	-401.958347	-402.003393	33.969	
C	-0.3316965911	 1.3959186016	 0.108472075	-0.378974
C	 0.1675450443	-0.0413209573	-0.0940842329	-0.223508
C	 0.8393981539	-0.5654188035	 1.1570624934	-0.015588
C	 0.0941341694	-1.2131435781	 2.2611733935	-0.302896
C	 1.0327177247	-2.0929792256	 1.4213257475	 0.040535
C	 0.4032800113	-3.0911953302	 0.4989048058	 0.097863
O	-0.7336414355	-3.018876247	 0.1029780338	-0.25897
C	 2.2924991564	-2.493646805	 1.9855687336	 0.217477
N	 3.3077851365	-2.8303277909	 2.4269831436	-0.332447
H	 0.4896626798	 2.0735584252	 0.3650491127	 0.119819
H	-0.8015746807	 1.7715002724	-0.804851855	 0.124037
H	-1.0715698306	 1.4479251783	 0.9136136214	 0.124372
H	-0.6652391448	-0.6919846285	-0.3695882623	 0.141615
H	 0.8831458962	-0.0681904263	-0.9245837373	 0.110495
H	 1.7201790282	-0.0043504463	 1.4596799082	 0.123792
H	 0.389402637	-1.0367011541	 3.2884144885	 0.147156
H	-0.9551331973	-1.4369048548	 2.0975323859	 0.155581
H	 1.0725032622	-3.9226805702	 0.1989594844	 0.109641
