23
gdb 113659	3.30937	0.82904	0.75836	2.4281	88.08	-0.2389	-0.0081	0.2308	1659.8382	0.203837	-388.314659	-388.30406	-388.303115	-388.351111	38.265	
C	-0.1170059697	 1.6123033117	-0.1097412845	-0.374033
C	-0.0507260041	 0.1507094434	 0.3505495051	-0.208907
C	-1.3797451739	-0.5551707077	 0.176643429	 0.022623
C	-1.7819794071	-1.1759637434	-1.1191272843	-0.286139
C	-1.51107268	-2.0827103352	 0.0699353362	-0.14506
C	-0.3011199843	-2.9551994058	 0.0482901238	 0.388658
O	 0.6719283368	-2.7135579153	-0.6394694464	-0.333246
C	-0.3562721841	-4.1829719055	 0.9490084016	-0.284336
C	 0.9133373924	-5.0283574517	 0.9134195429	-0.377849
H	 0.845834047	 2.1123609786	 0.033130487	 0.112478
H	-0.3763237937	 1.6790831423	-1.171456219	 0.119026
H	-0.871325023	 2.1757073087	 0.4513391686	 0.108802
H	 0.7214135364	-0.3846808505	-0.2071515023	 0.136358
H	 0.2426873457	 0.1142693982	 1.4079192918	 0.09129
H	-2.1909275464	-0.1097000759	 0.7495748802	 0.087767
H	-2.8067130683	-1.090228997	-1.4627265128	 0.112705
H	-1.029084729	-1.2211062166	-1.8994005311	 0.136538
H	-2.3701964261	-2.5075265478	 0.5790411029	 0.082848
H	-0.5811201821	-3.8389720327	 1.9685578876	 0.12121
H	-1.23529503	-4.7724411134	 0.6512476384	 0.121198
H	 0.8173638594	-5.9003951438	 1.56647489	 0.106976
H	 1.1207827836	-5.3753576647	-0.1019265348	 0.131426
H	 1.7792092802	-4.445624076	 1.2380783701	 0.129664
