15
gdb 16588	2.85951	2.18548	1.81959	3.1045	61.82	-0.2356	0.0112	0.2467	796.0467	0.118404	-399.781694	-399.774145	-399.773201	-399.813396	27.626	
C	-0.1281540466	 1.2620580485	-0.3351532122	-0.346626
N	-0.043216405	-0.0725957066	 0.2260505144	-0.086669
C	-1.077277884	-1.1053115376	 0.1934097104	-0.04862
C	-1.0216176533	-1.8996616146	-1.070249319	 0.097553
O	-0.698484339	-1.2653831975	-2.2664846971	-0.412025
C	 0.011183459	-2.1686642978	 0.0240787597	-0.31209
C	 0.9853458355	-0.9904644926	 0.015883596	 0.418132
O	 2.1651602885	-0.8441290169	-0.1497325571	-0.36316
H	 0.8867962916	 1.663529248	-0.3857116082	 0.153745
H	-0.558734134	 1.2477718093	-1.3429767811	 0.139489
H	-0.7284124547	 1.9125847789	 0.3080716474	 0.124215
H	-1.9107818116	-1.0859829322	 0.8841394097	 0.115536
H	-1.7775578115	-2.6838290678	-1.154829435	 0.102866
H	-0.0446457951	-1.7995393051	-2.7303548619	 0.299316
H	 0.1317189802	-3.1289862559	 0.505111494	 0.118338
