18
gdb 68569	2.80498	1.93673	1.58306	2.1434	74.91	-0.2416	-0.0024	0.2392	911.2502	0.150126	-401.969019	-401.96207	-401.961125	-401.999744	28.965	
C	-0.1217646218	 1.5215210583	-0.0208786647	-0.472113
C	 0.0764502541	 0.0231851737	-0.0083307499	 0.376842
C	 0.8222284038	-0.6079701793	-1.1939954423	-0.266914
C	 0.9523373392	-2.0384704403	-0.6379511966	-0.039713
C	 1.3349210922	-1.7544008336	 0.8128217833	-0.073762
C	 0.8253996002	-0.5744697282	 1.1740619281	-0.105307
N	-0.3851403664	-2.6719525895	-0.6182466754	-0.269575
C	-1.3330891214	-1.8874591859	-0.3015907795	 0.124678
O	-1.2762505913	-0.5687534771	 0.0037318639	-0.273219
H	 0.8492536854	 2.0249451979	 0.0019526536	 0.124252
H	-0.6587968242	 1.835192464	-0.9204265988	 0.127536
H	-0.6993060763	 1.8406984039	 0.8519037639	 0.128676
H	 0.2587560474	-0.5553569095	-2.1292321929	 0.107529
H	 1.7979787012	-0.1333443425	-1.3242482532	 0.105041
H	 1.6426923739	-2.6855179398	-1.1805276663	 0.073233
H	 1.8327562908	-2.4711766849	 1.4544690979	 0.109134
H	 0.8181554242	-0.1366098403	 2.1649670764	 0.102108
H	-2.359551781	-2.245534487	-0.2393635674	 0.121574
