14
gdb 43040	3.04128	1.65016	1.23115	4.053	73.7	-0.2465	-0.0095	0.237	977.4248	0.100243	-399.460337	-399.453182	-399.452238	-399.491917	27.745	
O	-0.1433507622	 0.0679784197	 0.0724509151	-0.295643
C	-0.0626283807	 1.2510566428	 0.0642610168	 0.363419
N	-1.1255968109	 2.2851866215	-0.0912922009	-0.223954
C	-0.9886648716	 2.996296067	 1.2522695338	-0.201754
C	 0.3718075766	 3.5025894724	 0.7844243652	-0.119857
C	-0.0166385529	 3.2078762008	-0.6091623417	-0.067182
C	 1.0300098176	 2.2835235322	 0.0406343965	 0.098529
C	 2.4255685988	 2.1701094302	-0.1773905188	 0.099978
C	 3.6082295158	 2.0526972719	-0.3626844493	-0.367088
H	-1.7318572687	 3.7934727838	 1.3254806666	 0.131353
H	-1.0533278014	 2.3331329046	 2.1204258678	 0.130187
H	 1.0118887195	 4.2883837557	 1.1668294269	 0.121142
H	 0.0098469336	 3.6979136017	-1.5700489157	 0.138001
H	 4.6509888364	 1.9413345357	-0.5302848223	 0.192871
