19
gdb 84448	2.77549	1.60225	1.27814	2.942	75.75	-0.2463	0.0081	0.2544	1044.7125	0.160069	-423.018103	-423.01012	-423.009176	-423.050282	31.54	
C	-0.251819372	 1.5218216267	-0.0173624783	-0.479828
C	 0.032232114	 0.0272149006	-0.027812228	 0.236251
C	-1.1006752842	-0.9192179538	 0.4520801398	-0.107931
O	-0.2085115692	-1.5785959281	 1.3817250292	-0.309296
C	 0.8514297361	-0.6219086496	 1.1206723607	 0.042391
C	 2.084970989	-1.3306968937	 0.5084996986	 0.083278
O	 2.200671386	-2.6662459479	 0.9583514059	-0.437062
C	 1.8265933405	-1.1998753958	-0.9824184356	-0.114491
C	 0.7420533723	-0.4793275434	-1.2622910707	-0.134889
H	 0.6686312673	 2.0979337947	-0.157616097	 0.125391
H	-0.9383195259	 1.7949499219	-0.8269296659	 0.12079
H	-0.7089513549	 1.833079687	 0.9275110804	 0.120715
H	-1.9181407102	-0.4140803293	 0.982673034	 0.099817
H	-1.5157435058	-1.6142436668	-0.2858593087	 0.106391
H	 1.0696876419	-0.0200890997	 2.0083814686	 0.075157
H	 3.0191643744	-0.8319716814	 0.796253131	 0.084274
H	 1.289058589	-2.9802203961	 1.0496599876	 0.288204
H	 2.4751870088	-1.6758059647	-1.7096555253	 0.104323
H	 0.367146603	-0.2673339007	-2.2593555466	 0.096515
