16
gdb 130174	3.38419	1.58174	1.08684	1.9375	78.82	-0.1954	-0.0116	0.1838	1054.7181	0.128082	-396.953951	-396.946732	-396.945787	-396.98521	28.761	
N	-0.0678251971	 1.3922744693	 0.150876395	-0.593264
C	 0.0456383901	 0.0044966605	 0.0396455205	 0.194853
N	-1.0508095455	-0.7624359243	 0.0232673929	-0.310682
N	-0.5865050995	-2.0499309958	-0.0061778161	-0.360356
C	 0.7597614995	-2.0874057186	-0.0248359502	 0.382573
C	 1.2149463129	-0.7821385273	 0.0046990884	 0.180335
C	 2.716053719	-0.7995832042	 0.0100252333	-0.436008
C	 3.0070440641	-2.294617595	-0.0273883849	-0.074113
C	 1.8712686693	-3.0241058133	-0.0453574921	-0.198113
H	 0.5883666473	 1.890939361	-0.4355381676	 0.241732
H	-1.0133735168	 1.6972156076	-0.0446601517	 0.247617
H	-1.253021157	-2.8007689502	-0.0099696288	 0.266333
H	 3.172512529	-0.2917801166	-0.8513250465	 0.122732
H	 3.15673555	-0.3361174987	 0.9034454752	 0.132108
H	 4.0130176034	-2.6945592423	-0.03905724	 0.101637
H	 1.8000192513	-4.1033123921	-0.0704531773	 0.102617
