19
gdb 96999	3.47432	1.32404	1.25186	3.4079	77.9	-0.2306	0.0321	0.2628	1097.3439	0.16218	-419.212077	-419.204297	-419.203353	-419.244938	29.893	
C	-0.041076504	 1.4298714127	-0.0082336552	-0.334958
N	-0.0069922532	-0.0250111208	 0.0031788922	-0.359245
C	 0.5709387857	-0.6352455633	-0.9286164635	 0.517491
O	 1.1956279049	-0.0625295053	-2.0268266952	-0.278179
C	 1.6778268284	-1.1713941761	-2.8312430506	 0.089189
C	 2.8527085303	-1.7944742183	-2.0560377696	-0.17552
N	 2.1746288664	-2.4138700988	-0.880228608	-0.300771
C	 0.729817875	-2.1329075712	-1.1069251421	-0.130828
C	 0.5690178105	-2.216791894	-2.6426463503	-0.242956
H	 0.6244353893	 1.8119611061	 0.7752183721	 0.127117
H	 0.2550796454	 1.8805697677	-0.9623861828	 0.121434
H	-1.0532445951	 1.7621559633	 0.2449632592	 0.120814
H	 1.8956872289	-0.8017364783	-3.8314272277	 0.090162
H	 3.392869766	-2.5289429101	-2.6636827958	 0.100168
H	 3.5580559191	-1.0197710734	-1.7402908125	 0.12058
H	 2.3134487099	-3.4185064065	-0.8909721541	 0.223196
H	 0.0842130962	-2.7237520262	-0.4630835269	 0.094572
H	-0.3979855673	-1.8764297328	-3.0197608506	 0.117975
H	 0.8138180334	-3.2003810848	-3.0511674986	 0.099759
