17
gdb 98513	2.31597	1.36962	0.93508	1.1672	70.28	-0.2569	-0.0535	0.2034	1251.9541	0.13183	-458.963944	-458.954367	-458.953422	-459.00026	33.3	
C	-0.0323521125	 1.5425177423	 0.075927496	-0.384711
C	-0.2129164779	 0.0762832517	-0.3069542032	-0.295321
C	 0.9643954286	-0.4887193798	-1.0670965215	 0.324139
O	 1.9407740714	 0.1643168107	-1.3503309885	-0.298726
C	 0.9370665662	-1.9693954715	-1.4718989933	 0.183454
C	 1.9385957805	-2.399769007	-2.4872310798	-0.187438
O	 2.1449481325	-2.6787378411	-1.1241398304	-0.242471
C	-0.2749029372	-2.8449750986	-1.3720317507	 0.10114
O	-1.4167658283	-2.4666224938	-1.3122710144	-0.257545
H	 0.8495228768	 1.680198568	 0.7066633534	 0.13286
H	 0.1028676033	 2.1650319877	-0.8122209428	 0.132384
H	-0.9088286153	 1.9029573871	 0.6207483682	 0.115196
H	-0.3714712996	-0.5567855759	 0.5777446869	 0.131648
H	-1.1114358477	-0.0889852467	-0.912566243	 0.155838
H	 1.7175226062	-3.2576961903	-3.1215070459	 0.128318
H	 2.5605360518	-1.6129474579	-2.9067023257	 0.158022
H	-0.0061299489	-3.924244385	-1.3734820854	 0.10321
