21
gdb 68873	2.36965	1.87431	1.51799	1.8045	81.24	-0.2389	0.0903	0.3291	1007.1767	0.182902	-387.063032	-387.055002	-387.054057	-387.09485	32.856	
C	-0.0069895662	 1.4818663271	-0.0324931497	-0.49494
C	-0.0399663789	-0.0124006552	 0.0840746766	 0.364186
O	 1.1834733288	-0.7265407254	-0.2022699914	-0.34703
C	 0.5798246725	-0.8691934518	 1.1031389716	 0.364206
C	 1.405230819	-0.4703528759	 2.2893631966	-0.494941
C	-0.4674735566	-2.0121511426	 1.1996458001	-0.107773
C	-1.7782089674	-1.1502315358	 1.2428311286	-0.225037
C	-1.3335643601	-0.8148776044	-0.2243545554	-0.10777
C	-0.8266442341	-2.2807131802	-0.2864081768	-0.215598
H	 0.8925757672	 1.8964520791	 0.4292418347	 0.127309
H	-0.0153504439	 1.7864128386	-1.0852102297	 0.128596
H	-0.8850746188	 1.9262749031	 0.4487020718	 0.122305
H	 1.9174905212	 0.4792221364	 2.1155847963	 0.127298
H	 0.7770977735	-0.3720486502	 3.1814756119	 0.122302
H	 2.166881269	-1.2292819393	 2.5013687993	 0.128606
H	-0.2731155907	-2.8167778003	 1.9095387981	 0.058105
H	-2.691186569	-1.749498984	 1.294259905	 0.0953
H	-1.8260828055	-0.3275425103	 1.9636513368	 0.090007
H	-2.020476931	-0.4012493477	-0.9634142724	 0.058104
H	-0.0200811126	-2.5182586367	-0.9766933176	 0.116238
H	-1.6519359165	-2.9893232446	-0.3802444644	 0.090526
