16
gdb 62153	3.16074	0.74442	0.64128	4.5858	67.53	-0.2966	-0.0112	0.2854	1648.1695	0.121808	-475.048612	-475.038845	-475.037901	-475.084934	33.011	
O	 1.1530080922	 1.6167549198	 0.5492370013	-0.412386
C	 0.4608669173	 0.5782814701	-0.1087160042	 0.114068
C	 1.189808568	 0.2109074247	-1.4073882006	-0.126327
O	 0.4773338154	-0.8010802398	-2.1188638872	-0.180447
C	-0.0913257388	-0.4756334849	-3.3033082338	 0.176682
O	-0.7311509065	-1.2523352317	-3.9401938934	-0.259678
C	 0.2506089056	-0.663888875	 0.7807525291	-0.370496
C	-0.484769284	-0.3581358239	 2.0042533875	 0.271314
N	-1.0678850607	-0.1175203346	 2.9717504007	-0.295715
H	 1.9735376212	 1.2667240932	 0.9153416364	 0.29122
H	-0.5192850525	 0.9958288856	-0.3633143599	 0.125806
H	 1.3076553802	 1.114598777	-2.016043595	 0.133243
H	 2.1876906284	-0.1868710125	-1.1864032377	 0.11904
H	 0.1132489222	 0.571518723	-3.5993094064	 0.088624
H	-0.2857421788	-1.4296198519	 0.2113644122	 0.181885
H	 1.2245129808	-1.0950480591	 1.0496497208	 0.143169
