22
gdb 59462	2.89077	0.95923	0.9072	3.7526	79.08	-0.249	0.0636	0.3126	1443.5045	0.192481	-441.459665	-441.44926	-441.448316	-441.495235	38.792	
C	 0.0150243837	 1.4304879133	-0.3555467164	-0.409914
C	 0.0784448486	 0.0174775893	 0.2212727982	 0.123604
O	 0.5872667677	 0.0106122261	 1.5546362136	-0.433366
C	-1.2804607252	-0.6621130109	 0.1908687248	-0.031755
N	-1.7606609922	-1.2157794472	-1.0890557292	-0.365884
C	-1.4830932536	-2.1246130099	 0.041244085	-0.04699
C	-0.3596908678	-3.1351583643	-0.2076199125	 0.12648
C	-0.9324599645	-4.5328170687	-0.4661221942	-0.395021
O	 0.4604002963	-2.7238737861	-1.2887545955	-0.432925
H	 0.9993650942	 1.9040442591	-0.3097603626	 0.125279
H	-0.317400738	 1.4081228508	-1.3978005235	 0.12821
H	-0.6914273273	 2.0538042573	 0.209335287	 0.09687
H	 0.7825685461	-0.5867981558	-0.3542758026	 0.119898
H	 0.0545628126	 0.6211301079	 2.076571017	 0.273499
H	-2.0277398916	-0.1476709981	 0.7998815602	 0.071862
H	-2.7549471063	-1.0617483275	-1.2207658595	 0.237954
H	-2.3421522642	-2.5399127837	 0.5652341108	 0.084864
H	 0.2823626542	-3.1689238853	 0.6820739538	 0.099117
H	-1.6125749191	-4.5173192593	-1.3251825744	 0.111787
H	-0.1205182703	-5.2302310327	-0.686733806	 0.124464
H	-1.4837372268	-4.9054305949	 0.4047501009	 0.10475
H	-0.1229296565	-2.2037769995	-1.8643140647	 0.287216
