21
gdb 75049	2.45917	1.4492	1.04729	1.4715	88.83	-0.2204	-0.0208	0.1996	1215.4201	0.183884	-387.091278	-387.082699	-387.081755	-387.124122	33.543	
C	 0.0560435087	 1.6117645485	 0.0718202247	-0.460858
C	-0.0009130554	 0.1078553738	-0.0595533093	 0.281759
C	-0.0172691228	-0.4418569656	-1.2874954303	-0.159293
C	-0.1208901564	-1.8365622931	-1.7233640267	-0.071655
C	-0.8869474734	-2.8011844355	-1.1977467396	-0.095991
C	-1.7419194997	-2.6046821188	 0.0211344454	-0.122122
O	-1.0423042875	-2.8356275249	 1.2445634082	-0.254329
C	 0.1636653217	-2.1091013683	 1.3945826703	-0.077359
C	 0.0315684944	-0.5835954275	 1.2919746892	-0.299417
H	 0.9600601547	 1.9291443598	 0.6081690368	 0.122474
H	 0.0407775489	 2.1097760045	-0.9003356267	 0.120744
H	-0.7941874543	 1.9840662377	 0.6582671216	 0.125527
H	 0.0719489921	 0.2591049134	-2.118016856	 0.080158
H	 0.4483731075	-2.0714533452	-2.6224655828	 0.089947
H	-0.8647724518	-3.7929121499	-1.6414198782	 0.090382
H	-2.1652186453	-1.5897273133	 0.012471366	 0.097408
H	-2.5723438667	-3.3160743619	 0.0376302582	 0.104524
H	 0.5000181604	-2.3564342258	 2.40649502	 0.103332
H	 0.9336012431	-2.4646600946	 0.6970348603	 0.099822
H	 0.8883705378	-0.1556111059	 1.8342973323	 0.106801
H	-0.846598066	-0.2687426476	 1.8746597865	 0.118148
