14
gdb 48356	3.15134	1.26901	0.98415	2.6404	70.19	-0.2642	-0.0727	0.1915	1140.1795	0.098234	-436.640328	-436.631589	-436.630645	-436.674407	30.838	
O	-0.5656682685	 1.2880237698	 1.4029226824	-0.280839
C	-0.2605911397	 1.8331741967	 0.3673591514	 0.100002
C	 1.1303677424	 1.7533148179	-0.1843491456	 0.101502
C	 2.2318056082	 2.0348331666	 0.8219381002	-0.246452
N	 1.9944304821	 0.6890554166	 0.3640681244	-0.32939
C	 1.316281732	 2.1585046955	-1.6173696327	 0.177914
O	 0.4568674274	 2.774408455	-2.2146018533	-0.298575
C	 2.5765949902	 1.8022831376	-2.2392150059	 0.280627
C	 3.6180115193	 1.5388215933	-2.7811985526	-0.405915
H	-0.9812129312	 2.4094226917	-0.2371189481	 0.129342
H	 3.1436594599	 2.5003337803	 0.4592612112	 0.145631
H	 1.8972165182	 2.3299010119	 1.8128402586	 0.148307
H	 1.4254533127	 0.1969540003	 1.0561576639	 0.258175
H	 4.535365357	 1.2981711867	-3.2619076039	 0.219671
