23
gdb 105260	2.13977	1.37411	0.99198	1.7324	85.66	-0.2569	0.0842	0.3411	1326.6724	0.204015	-388.271376	-388.261289	-388.260345	-388.306456	37.762	
C	 0.1677206673	 1.1120088381	 1.081736152	-0.386804
C	-0.4793473868	 1.3302491734	-0.2922864862	-0.254412
C	 0.0069099724	 0.3617897514	-1.3586560298	 0.367116
O	-0.094424993	 0.8409317342	-2.71166788	-0.307638
C	 1.2171499984	 0.6319237689	-2.1626392827	 0.034262
C	 2.1174673637	 1.8347866299	-2.0372739254	-0.425404
C	-0.4405874921	-1.0659067492	-1.1749480589	-0.063904
C	-1.8007621488	-1.4864852473	-1.6790771252	-0.264756
C	-0.5507847237	-1.9971282196	-2.3516083757	-0.274245
H	-0.0478611431	 0.1149128386	 1.4779441872	 0.121527
H	 1.2559960031	 1.2221428275	 1.0312440898	 0.117986
H	-0.2089758574	 1.840416576	 1.8059954043	 0.116638
H	-1.5676677182	 1.221610546	-0.2082463661	 0.105563
H	-0.2997196524	 2.3527387062	-0.6344011015	 0.106026
H	 1.7118413111	-0.2498437028	-2.5757989288	 0.082925
H	 1.6085997447	 2.6900581744	-1.5893828437	 0.126417
H	 2.9934245095	 1.5894220156	-1.4267488381	 0.120509
H	 2.4773462926	 2.1373039703	-3.0266344959	 0.128719
H	-0.1213171365	-1.5097130826	-0.2362944949	 0.085407
H	-2.387912141	-2.1699177929	-1.0759537288	 0.107038
H	-2.3799410075	-0.7458141807	-2.2198541029	 0.122926
H	-0.321652652	-1.5849110088	-3.3274030158	 0.129161
H	-0.2714463302	-3.0354934362	-2.211868643	 0.104944
