19
gdb 13702	5.37483	0.86079	0.78863	1.5323	83.09	-0.2185	0.0398	0.2582	1503.8739	0.163973	-327.872951	-327.863581	-327.862637	-327.908244	32.921	
C	-0.0127228435	 1.6500110006	 0.0409585341	-0.363549
C	-0.0031394738	 0.1100979093	 0.0186714041	-0.3153
C	 0.6738170138	-0.4367459435	-1.1527831919	 0.053989
C	 1.2487961142	-0.8613880848	-2.1244570527	 0.096508
C	 1.890891262	-1.3556542933	-3.312654656	-0.174
C	 3.2342247131	-2.0216833475	-3.2271792834	-0.239132
N	 2.0590821349	-2.7998695288	-3.5733010372	-0.079344
C	 1.5688995163	-3.7393773907	-2.5735687811	-0.307848
H	 1.0068022208	 2.0447752951	 0.0458136516	 0.128839
H	-0.5240185675	 2.0478824221	-0.8397018214	 0.129137
H	-0.529033075	 2.0144331878	 0.9339973959	 0.114817
H	 0.4826819903	-0.2653204283	 0.9286255987	 0.1283
H	-1.0354510003	-0.2618306879	 0.0531242906	 0.128868
H	 1.664901844	-0.7917276185	-4.2153067761	 0.110291
H	 3.963554188	-1.8727533772	-4.0194618909	 0.116725
H	 3.6521161078	-2.1354173618	-2.2280972805	 0.113799
H	 1.6769211626	-3.3852911424	-1.537816007	 0.111577
H	 0.508905116	-3.9392186403	-2.7575536732	 0.125195
H	 2.1199429762	-4.6785062796	-2.6838432137	 0.121129
