18
gdb 39570	3.56066	1.54102	1.13609	1.2545	79.37	-0.22	-0.0028	0.2172	1050.2912	0.152355	-398.160265	-398.153229	-398.152285	-398.191939	27.424	
C	 0.0403277077	 1.5840027745	 0.0089332804	-0.200601
N	 1.4738548467	 1.9283508263	-0.1147842241	-0.263299
C	 2.1238889904	 0.8422372039	 0.0216070762	 0.074077
N	 1.3834804462	-0.322961144	 0.1705255022	-0.082858
C	 1.7816533857	-1.5051059736	 0.7647080565	 0.090887
N	 1.014777919	-2.3984526235	 1.2482021081	-0.271323
C	-0.4229771653	-2.1250732209	 1.2621895757	-0.154825
C	-0.7932890913	-0.6310908759	 1.216344201	-0.246761
C	-0.0435103694	 0.0316226174	 0.063877304	 0.028325
H	-0.3593185066	 2.0532044925	 0.9169844047	 0.11605
H	-0.5167052631	 1.9934839254	-0.8379127661	 0.120278
H	 3.2081439278	 0.7778968883	 0.0233539351	 0.137095
H	 2.8628889828	-1.6494205078	 0.7868224525	 0.116633
H	-0.8864314603	-2.6547265792	 0.417698369	 0.110744
H	-0.8374882196	-2.5825299894	 2.1669056403	 0.112621
H	-1.8740360223	-0.5038036833	 1.098609953	 0.107179
H	-0.504162449	-0.15024341	 2.1587232848	 0.11099
H	-0.4249522796	-0.3642101007	-0.886126903	 0.094789
