17
gdb 54821	2.81249	1.58829	1.45242	2.8864	72.41	-0.2366	0.0017	0.2383	970.8084	0.137784	-418.029269	-418.021617	-418.020673	-418.061416	29.956	
N	-0.3291260676	 1.1976645767	 0.2726143825	-0.535211
C	-0.2616061141	-0.1752816175	 0.2115417205	 0.42267
O	 0.6315853365	-0.8249469008	 0.7161249015	-0.37786
N	-1.3071190493	-0.7367300456	-0.5389668769	-0.137081
C	-1.9527143449	-1.9868278975	-0.2023159865	-0.032762
C	-1.8682213883	-2.5115342897	 1.2309100215	-0.278212
C	-2.5427439026	-1.4274305446	 2.0431680178	-0.069081
C	-3.0370634632	-0.4501171821	 1.2784180073	-0.07374
C	-2.7312456543	-0.6923043408	-0.1653846456	-0.097865
H	 0.5211845816	 1.6504235603	 0.5673779121	 0.260905
H	-0.8745147953	 1.6791020026	-0.4236723928	 0.256947
H	-2.0372247852	-2.6927128495	-1.0224701347	 0.098892
H	-2.395083117	-3.4699602816	 1.3183202635	 0.108349
H	-0.8314891754	-2.6728880855	 1.5400316326	 0.156315
H	-2.5718063731	-1.4480611119	 3.1266807961	 0.10328
H	-3.560265	 0.4305230126	 1.6295676439	 0.099281
H	-3.4116935677	-0.3718995951	-0.9487537528	 0.095173
