23
gdb 106813	2.38724	1.47944	1.07574	1.6916	85.3	-0.2456	0.0855	0.331	1244.1097	0.205408	-388.312263	-388.302797	-388.301853	-388.346209	36.483	
C	-0.4207601378	 1.4453416794	-0.2065969893	-0.377756
C	 0.2303477744	 0.0945832083	 0.1224971923	-0.279241
C	 0.9651808751	-0.5004204261	-1.0541117337	 0.369067
C	 2.2484027328	 0.1483780122	-1.5615470982	-0.280531
C	 2.7781563516	-0.8323244914	-2.6316485396	-0.215111
C	 2.2637353865	-2.2215991403	-2.1960754208	-0.275377
C	 0.9764945861	-1.9281116372	-1.4380870351	 0.351871
C	 0.2696257001	-3.0481138145	-0.7246585568	-0.486611
O	 0.1412323818	-0.9824249826	-2.140113464	-0.347341
H	 0.3255734365	 2.1968730251	-0.4827120993	 0.116745
H	-1.116503351	 1.3381359248	-1.0440000606	 0.134204
H	-0.9771946358	 1.8295579974	 0.6533985544	 0.11044
H	 0.9358076217	 0.2123460593	 0.9553351234	 0.095706
H	-0.542396128	-0.6036020918	 0.4587594105	 0.101206
H	 2.0847678551	 1.1533837122	-1.9628522119	 0.104646
H	 2.9492704983	 0.2427881408	-0.721855036	 0.096305
H	 2.3502022079	-0.5746409918	-3.6025249065	 0.117752
H	 3.8658450435	-0.797894952	-2.7304989044	 0.093323
H	 2.1009947348	-2.8963883396	-3.0432926718	 0.10174
H	 2.9692479094	-2.7169739716	-1.5164670683	 0.096511
H	 0.9351083663	-3.5258344412	 0.0026866088	 0.118392
H	-0.6221415824	-2.6938367746	-0.2034634717	 0.128359
H	-0.0450405769	-3.8150331648	-1.4413095614	 0.125699
