19
gdb 106630	2.73127	1.4525	1.29161	2.273	70.41	-0.2434	0.0689	0.3124	1067.6221	0.159347	-460.123117	-460.114874	-460.11393	-460.155909	31.978	
C	-0.0593762878	 1.3789691381	 0.0166043559	-0.263545
O	 0.1041764431	-0.0277149978	 0.023166327	-0.296171
C	 0.6704135965	-0.5571234515	-1.1192129684	 0.352156
C	 0.0068704315	-0.5296732978	-2.5407082378	-0.3161
C	 0.9944588705	-1.691895721	-2.7552175082	 0.034812
O	 2.3021225699	-1.0774358783	-2.6384677631	-0.296163
C	 2.1264250485	-0.2070406296	-1.4930635535	-0.160267
C	 0.7234022352	-2.1167136405	-1.2941423327	 0.118761
O	 1.682598466	-2.8802097573	-0.6330014321	-0.449503
H	 0.903512471	 1.9081312113	-0.0010163608	 0.114045
H	-0.6589403753	 1.7129702046	-0.8418052896	 0.11426
H	-0.584371968	 1.6400509204	 0.9377873904	 0.134059
H	-1.0367875991	-0.8479864424	-2.5233397918	 0.112825
H	 0.1453927113	 0.353150984	-3.1665435982	 0.107072
H	 0.9817827015	-2.3666216245	-3.6077649023	 0.089075
H	 2.2781191046	 0.8356138333	-1.7899560362	 0.104732
H	 2.8347047427	-0.4673960872	-0.6989849954	 0.109502
H	-0.2598954254	-2.5620345824	-1.132923025	 0.097023
H	 2.5205478032	-2.7142696612	-1.0845557981	 0.293428
