20
gdb 48849	2.79226	1.33536	1.10852	3.4333	79.18	-0.2409	-0.0209	0.22	1163.3983	0.172967	-403.157273	-403.149171	-403.148227	-403.189954	31.558	
O	-0.4595666283	 0.6475934225	 0.7580300724	-0.270221
C	 0.2039003763	 0.9699676259	-0.1960935726	 0.140052
C	 1.4038274796	 1.8575818775	-0.1343924128	 0.195675
C	 1.9543996998	 2.140493191	 1.2505209669	-0.278952
C	 2.95298202	 3.3046352846	 1.2932868303	-0.22896
C	 2.3924865428	 4.5280366289	 0.563004534	-0.187541
C	 2.1729903478	 4.246244119	-0.9319380207	-0.232012
C	 1.5132350729	 2.9003467439	-1.2222228165	-0.040937
N	 2.2946625978	 1.6667122514	-1.3033626622	-0.365175
H	-0.0370995545	 0.627066711	-1.2269680123	 0.082054
H	 1.0990216439	 2.3621662708	 1.8983033183	 0.127391
H	 2.4051723685	 1.2256344389	 1.6534904487	 0.109482
H	 3.172089754	 3.5478503147	 2.337885929	 0.105487
H	 3.912812063	 3.011191792	 0.8453040154	 0.092458
H	 1.4364155422	 4.8059854987	 1.0251930812	 0.105173
H	 3.0585041618	 5.3894477106	 0.6787239824	 0.098497
H	 1.5590940101	 5.0388292276	-1.371396538	 0.1099
H	 3.1343748674	 4.2828995971	-1.4619661811	 0.108641
H	 0.7175452119	 2.9313553189	-1.9643833976	 0.097457
H	 3.258199983	 1.8414361949	-1.0240813047	 0.23153
