22
gdb 100922	2.13229	1.11037	1.03081	2.4016	79.31	-0.2145	-0.0371	0.1774	1355.2359	0.191257	-441.471925	-441.461027	-441.460083	-441.508308	38.715	
C	-0.3321636185	 1.6565905825	 0.1597227973	-0.388548
C	-0.1109410288	 0.1431054724	 0.1567209894	-0.120032
N	 0.6730717515	-0.3100850272	-1.0003583097	-0.073454
C	 2.0761654626	 0.0691809409	-0.9338499478	-0.331387
C	 0.4654624137	-1.7024964241	-1.3809547715	-0.084119
C	 0.7647961457	-2.8133078062	-0.3495410115	-0.087371
O	-0.1768720392	-2.8831384778	 0.7020447529	-0.417665
C	-0.9401842425	-1.8309627102	-1.9555660816	 0.155017
O	-1.7153553745	-2.7202459457	-1.6941903931	-0.264601
H	 0.5992650254	 2.2128127442	 0.3013815002	 0.118261
H	-0.7824062521	 1.9825981266	-0.7826812837	 0.119134
H	-1.0022279508	 1.9326556732	 0.9798529741	 0.117125
H	 0.347081613	-0.1724532802	 1.1086125766	 0.099887
H	-1.0825528222	-0.3583353883	 0.1190093663	 0.109013
H	 2.6183976012	-0.3789290731	-0.0813821526	 0.101747
H	 2.584759738	-0.229959045	-1.8556938415	 0.116716
H	 2.1676367611	 1.154683176	-0.8466567601	 0.126026
H	 1.1270325036	-1.884595771	-2.245102563	 0.098357
H	 0.8371153682	-3.7713821504	-0.8876485996	 0.096814
H	 1.7401656511	-2.6269216558	 0.1115075378	 0.111291
H	-1.0087665911	-3.1475041673	 0.2889717871	 0.2973
H	-1.2117736155	-1.0088138336	-2.6518397361	 0.100488
