19
gdb 92066	2.74145	1.63165	1.16305	3.7569	76.2	-0.2288	0.0579	0.2867	1082.3451	0.161951	-419.242042	-419.233842	-419.232897	-419.274826	31.319	
C	-0.0906242136	 1.3840883505	-0.1661500252	-0.335379
N	-0.0109461	-0.0648396252	-0.1084093198	-0.133153
C	-1.2448221499	-0.757960935	 0.2355612991	-0.164754
C	-1.1914735469	-2.2383477819	-0.0693946924	-0.046206
C	-0.5934276722	-2.7480233775	-1.363131752	-0.312725
C	 0.1615921481	-2.8715104799	-0.0529671605	 0.023642
N	 1.260917607	-2.0024595089	 0.2499288033	-0.358815
C	 1.2413942939	-0.6322063654	 0.0462481879	 0.446572
O	 2.2778924731	 0.0115506473	-0.0027224707	-0.423611
H	 0.8879975267	 1.7708097178	-0.4439285593	 0.167748
H	-0.8366376121	 1.6847907027	-0.910389667	 0.115106
H	-0.3784163376	 1.8169170461	 0.8030411182	 0.114227
H	-1.481001582	-0.6237456744	 1.3049629106	 0.106031
H	-2.0594818451	-0.2813088996	-0.3251054709	 0.110825
H	-2.0161920988	-2.8018053219	 0.3547531812	 0.095661
H	-1.0183753252	-3.6444301646	-1.8011759607	 0.114634
H	-0.2306447852	-2.0155705517	-2.0758507804	 0.129729
H	 0.274795931	-3.8569634777	 0.3860911948	 0.102468
H	 2.1902059889	-2.3696400707	 0.1051540239	 0.248002
