17
gdb 11553	6.32023	1.00318	0.93566	1.7055	65.7	-0.246	0.0143	0.2603	1259.27	0.141304	-401.007211	-400.998388	-400.997444	-401.042252	30.581	
N	 0.0195545311	 1.2723692226	-0.3579125665	-0.48609
C	-0.1296956348	-0.067974387	 0.1789606404	-0.274699
C	 0.8831194834	-0.4526418921	 1.2547330045	 0.414903
O	 1.7466458226	 0.2712951528	 1.6798610532	-0.356799
O	 0.6677210537	-1.7180193933	 1.6779734966	-0.245056
C	 1.5470999979	-2.2087894753	 2.6765733271	 0.15373
C	 1.3367504074	-3.6346735215	 3.0625029654	-0.297892
C	 2.5642352329	-3.230217841	 2.2672600104	-0.279436
H	-0.0157444917	 1.9395982938	 0.4081800993	 0.23618
H	 0.9557342262	 1.3722468521	-0.741140734	 0.235503
H	-1.132983565	-0.1915679724	 0.6036782834	 0.139523
H	-0.060139044	-0.8054505993	-0.6292344244	 0.137118
H	 1.8057902905	-1.4639996111	 3.4183077739	 0.123178
H	 1.4482392618	-3.9055648253	 4.1061516714	 0.122434
H	 0.5610464319	-4.1752161305	 2.5323354965	 0.128733
H	 2.5859210561	-3.5088200768	 1.2199602182	 0.124474
H	 3.5315100198	-3.2141821057	 2.7563639047	 0.124196
