19
gdb 67307	3.13336	1.42099	1.20035	0.7386	86.34	-0.2503	0.0493	0.2996	1096.08	0.158312	-348.65289	-348.644839	-348.643895	-348.685092	32.157	
C	-0.0520166659	 1.4663140262	 0.0299071749	-0.525742
C	-0.0272159827	-0.0358983979	 0.01174029	 0.366556
C	 0.8223883668	-0.9826642296	-0.9150151603	-0.097494
C	 2.0149566521	-0.9857046906	 0.0615614029	-0.27812
C	 0.7720516566	-0.9948768591	 0.9737656515	-0.083111
C	-0.0167392446	-1.9323525632	 0.001412024	-0.041048
C	-1.2527107187	-0.9988633735	-0.0419153428	-0.25513
C	-2.1739319284	-1.0007575161	 1.0772712175	 0.299631
C	-2.9301879489	-0.989719548	 2.0133981631	-0.449061
H	 0.9605452975	 1.8792360282	 0.0949797755	 0.121914
H	-0.5197563764	 1.8645741952	-0.8773622821	 0.120239
H	-0.6230767129	 1.8316499987	 0.8900648424	 0.132313
H	 0.8183227434	-0.9785032803	-2.0068021902	 0.068274
H	 2.6375557764	-1.8858934919	 0.0716508357	 0.093232
H	 2.642597634	-0.0891912381	 0.0831162102	 0.093367
H	 0.7108268728	-1.0037079615	 2.062011017	 0.080209
H	 0.0021273219	-3.0225391744	-0.0024068104	 0.076055
H	-1.7916278673	-0.9956073379	-0.9974893362	 0.087446
H	-3.6002103859	-0.9860127961	 2.8369707773	 0.190471
