13
gdb 124040	3.79869	1.69225	1.19137	5.1239	68.26	-0.2237	-0.0677	0.1561	937.9988	0.090772	-452.716834	-452.710493	-452.709549	-452.747668	24.384	
C	 0.0739726706	 1.4699386551	 0.1925574925	-0.140099
O	 0.952941256	 2.1891399388	-0.7042599942	-0.266617
C	 2.019915404	 1.4584092416	-1.0629871666	 0.317508
C	 2.0778900262	 0.09504826	-1.0695643787	 0.289865
O	 3.2650565537	-0.2635959416	-1.5488541469	-0.226685
N	 3.951783153	 0.9690593305	-1.8611271484	-0.026727
N	 3.1859459945	 1.9365123359	-1.5656447553	-0.204049
C	 0.944974771	-0.7018809574	-0.6788775566	-0.171107
C	-0.055674289	-0.0097246378	-0.1110706156	-0.100431
H	 0.4369508755	 1.6106234982	 1.2250355808	 0.128459
H	-0.8907222884	 1.9745366145	 0.1090233508	 0.141558
H	 0.8994907093	-1.765035292	-0.8775408272	 0.133235
H	-0.9766323866	-0.4934723158	 0.1955556655	 0.12509
