23
gdb 63230	2.39942	1.57525	1.31181	0.2685	90.51	-0.2353	0.0293	0.2646	1129.1985	0.206726	-351.167963	-351.159194	-351.15825	-351.200609	35.592	
C	 0.2178449083	 1.4970764748	-0.025562333	-0.407548
C	-0.0535238494	-0.0211137778	-0.0123848326	 0.223299
C	-1.5805336923	-0.2569156386	 0.0728706445	-0.408013
C	 0.4530620425	-0.6409035981	-1.2969996679	-0.068217
C	 1.0558954464	-1.8244577341	-1.3943099394	-0.081005
C	 1.3462966295	-2.7237267663	-0.2232433734	-0.282847
C	 1.2874306718	-2.0042248485	 1.1132108459	-0.036789
C	 2.1120647724	-0.7570041096	 1.3208646591	-0.312806
C	 0.6103499319	-0.6573156803	 1.2088778324	-0.0196
H	 1.2887706214	 1.7062448608	-0.1028414552	 0.115884
H	-0.285037644	 1.9776749262	-0.8725019973	 0.104911
H	-0.1519972678	 1.9659061911	 0.8929361834	 0.10672
H	-2.0911492199	 0.1536583939	-0.8046391131	 0.107396
H	-1.807548271	-1.3256810878	 0.1266182925	 0.115618
H	-1.9990780022	 0.2288553554	 0.962212675	 0.106006
H	 0.2642873561	-0.0637100918	-2.2008154381	 0.076801
H	 1.352573803	-2.1922277012	-2.3739585677	 0.082844
H	 0.6237824494	-3.5538305898	-0.2237753792	 0.109077
H	 2.3291680519	-3.1977863086	-0.3546256986	 0.102951
H	 1.1865323465	-2.6606043625	 1.9726956999	 0.077087
H	 2.5691768155	-0.591802585	 2.2903867934	 0.103573
H	 2.7042649638	-0.4079889434	 0.4808039074	 0.113156
H	 0.0841572262	-0.4508297089	 2.1380466819	 0.071507
