13
gdb 6247	4.83599	1.26215	1.00092	3.5836	65.23	-0.2567	-0.0466	0.2101	1074.2116	0.095279	-394.799402	-394.79129	-394.790346	-394.832238	29.253	
N	 0.7405609176	 0.2025356566	-0.602525802	-0.542755
C	 0.031288617	 0.0968277449	 0.5408011653	 0.461055
O	 0.1366032706	 0.8069385543	 1.5203469661	-0.402084
N	-0.9199822651	-0.9573644803	 0.5630871491	-0.374415
C	-1.2402863677	-1.8981774859	-0.3923505531	 0.285543
N	-0.663938956	-1.945892147	-1.5400153942	-0.547154
C	-2.2743110068	-2.8106356435	 0.0218407764	 0.262893
C	-3.1362720121	-3.5822421228	 0.3495719356	-0.425392
H	 1.4221714868	 0.9389081906	-0.6495477287	 0.263872
H	 0.5740879989	-0.4463017921	-1.3647930909	 0.289702
H	-1.4194586789	-0.9909699893	 1.4377730479	 0.271258
H	-1.0379649402	-2.7062790505	-2.0993790905	 0.237332
H	-3.8976283841	-4.267476735	 0.6338762988	 0.220146
