21
gdb 89234	2.93609	1.56098	1.23186	2.0515	81.54	-0.2266	0.0768	0.3034	1095.6827	0.182938	-387.045865	-387.03789	-387.036945	-387.077851	32.421	
C	-0.1288930785	 1.5554786314	-0.0261833173	-0.401213
C	 0.0144316965	 0.032205782	-0.0045885818	-0.002962
C	 0.9319426324	-0.5421352238	-1.1309007256	-0.316047
C	 1.9933384819	-1.2782885209	-0.3163071361	 0.355527
C	 3.1139064773	-2.0052539507	-1.0178181817	-0.503617
C	 1.3007213901	-1.9282378784	 0.9319608235	-0.000284
O	 2.4873319894	-1.6808181366	 1.7640067004	-0.322573
C	 2.2924520964	-0.4512363174	 0.981280005	 0.012099
C	 0.7550998733	-0.5030481703	 1.2178354548	-0.033463
H	 0.8501602229	 2.0455148884	 0.0277699243	 0.11365
H	-0.6178617209	 1.8920852174	-0.9463169611	 0.115312
H	-0.7260817872	 1.9121690409	 0.8198377524	 0.114473
H	-0.9852592133	-0.4150003899	-0.0613482104	 0.07147
H	 0.3983630908	-1.2173018007	-1.8085999688	 0.097987
H	 1.3720876388	 0.2507917402	-1.7470043156	 0.096536
H	 3.7084850876	-1.3178003125	-1.6301685213	 0.113216
H	 3.7728560119	-2.474459819	-0.2825207231	 0.136885
H	 2.7241295434	-2.7835482873	-1.6836530955	 0.113095
H	 0.805827151	-2.8967957115	 1.0262088063	 0.082615
H	 3.0004091007	 0.364500805	 1.1377474993	 0.083443
H	 0.3852384355	-0.2884270061	 2.2204186824	 0.073852
