18
gdb 50568	3.04207	1.47071	1.26138	4.3033	70.46	-0.221	-0.0219	0.1991	1033.4321	0.149025	-439.064101	-439.056428	-439.055484	-439.096815	29.333	
O	-0.9709276553	 1.4459719463	 0.3418041274	-0.256193
C	 0.0555229584	 0.8749672199	 0.0836533205	 0.177645
C	 1.4046420691	 1.589008498	-0.0545802638	-0.09197
N	 2.4768084378	 0.63683273	-0.3863350917	-0.317013
C	 2.8462369684	 0.5937848415	-1.8170780632	-0.17146
C	 2.4750721384	 1.8956132039	-2.5255511729	 0.097456
C	 2.6816452707	 3.1218912484	-1.6123425079	-0.2646
C	 1.2884205256	 2.7023896853	-1.1064993908	 0.093083
O	 1.0287180321	 2.0444748277	-2.3821980043	-0.301348
H	 0.1111088928	-0.2273474795	-0.053648026	 0.088225
H	 1.6189632753	 2.0323555498	 0.9266666815	 0.104485
H	 3.295515531	 0.8481189049	 0.1659064617	 0.22844
H	 3.9183167156	 0.3841315773	-1.8966191055	 0.102254
H	 2.3119403336	-0.2226521333	-2.319605033	 0.11872
H	 2.7962759818	 1.9303075597	-3.570059188	 0.081335
H	 3.5186813646	 3.1179473591	-0.9101499043	 0.092394
H	 2.6507769608	 4.0598087585	-2.1674864076	 0.118515
H	 0.5297032592	 3.4448156525	-0.8543149619	 0.100031
