20
gdb 105091	2.79402	1.24091	1.07175	1.1774	74.81	-0.2293	0.075	0.3043	1204.7606	0.169758	-440.221158	-440.211957	-440.211013	-440.254968	34.684	
C	-0.2391270102	 1.4647885126	-0.1111197098	-0.328845
N	 0.0200084802	 0.0345711375	 0.0288282337	-0.093501
C	 1.3943221149	-0.4153966258	-0.1655134846	-0.256953
C	 0.7728744396	-0.4595073109	 1.186315414	-0.080643
C	 1.2675388155	 0.4173836152	 2.3030777426	 0.340769
C	 0.2246471051	 0.8353626271	 3.3355424237	-0.132517
O	 0.7531389234	 1.7203902464	 4.296434633	-0.4178
C	 2.678912293	 0.3541926276	 2.7106075467	-0.222957
O	 2.1763018364	 1.479294326	 1.9651961082	-0.281842
H	 0.5690761855	 2.1116634144	 0.2547153641	 0.130811
H	-0.4000029005	 1.6795437609	-1.1723385247	 0.123443
H	-1.1614545666	 1.7172956231	 0.4224039902	 0.121577
H	 1.5235567043	-1.3267084468	-0.7437746213	 0.113095
H	 2.1578381793	 0.3455101689	-0.3167005854	 0.123776
H	 0.3993967896	-1.4155034927	 1.5551957933	 0.095451
H	-0.637690436	 1.2752890769	 2.8099018569	 0.102224
H	-0.137857624	-0.0502402628	 3.8695620031	 0.119002
H	 1.2347636416	 2.3919165703	 3.7956901939	 0.291726
H	 2.941580938	 0.5767867668	 3.7410887262	 0.132903
H	 3.363388051	-0.2883316448	 2.1614538162	 0.120282
