19
gdb 82540	2.29575	1.60367	1.38627	0.9873	75.21	-0.2361	0.0681	0.3042	1042.5945	0.15781	-422.9685	-422.959659	-422.958715	-423.001535	34.153	
O	 0.0091758317	 1.3792929595	 0.0412080004	-0.434146
C	-0.0784263976	-0.0174873955	 0.0700248902	 0.04043
C	-0.4547776163	-0.832679489	 1.2876651274	-0.1601
C	-1.5455495261	-0.1082654144	 2.0880253892	-0.322824
C	-2.4269265695	-0.0899988659	 0.8210252032	 0.290424
C	-3.8789350907	-0.4238050234	 0.7410771667	-0.336953
C	-3.4040750598	 0.9532784992	 0.3283862082	-0.351124
C	-1.3497622328	-0.7957994128	 0.0185759467	 0.267556
O	-1.6397190678	-1.780992024	-0.9101441656	-0.455989
H	-0.8853023047	 1.730671334	 0.1110481402	 0.295883
H	 0.7344592305	-0.4605598599	-0.5015071722	 0.100721
H	 0.1873801064	-1.6197895633	 1.663510387	 0.09303
H	-1.971837947	-0.718782564	 2.8873665576	 0.110028
H	-1.2554983373	 0.8657772445	 2.4947117438	 0.102595
H	-4.1822775649	-1.1117416325	-0.0409175864	 0.12781
H	-4.4364954764	-0.5129178433	 1.6677940423	 0.113536
H	-3.6397840835	 1.7863472592	 0.9833870617	 0.116274
H	-3.4155559553	 1.1982733016	-0.7297285316	 0.111759
H	-1.3449351189	-1.48364028	-1.7766905488	 0.291089
