17
gdb 69870	2.73275	1.64973	1.1873	2.7153	80.64	-0.2019	0.0244	0.2264	1049.2809	0.134198	-380.730865	-380.72266	-380.721716	-380.763138	32.45	
C	-0.0799539497	 1.5476255295	 0.1193900158	-0.524097
C	 0.0671645201	 0.062109383	 0.0535971252	 0.282457
N	-0.8491241816	-0.8939930696	 0.7049657014	-0.345945
C	 0.6083559206	-0.9378794645	 1.0006681915	-0.124211
C	 1.3236079286	-1.6889445928	-0.1608018107	-0.131414
N	 0.3264342016	-2.116846376	-1.1522791021	-0.349364
C	 0.7836193375	-0.6940786567	-1.1407047167	 0.173636
C	 1.4021645719	-0.0724968036	-2.2522850067	 0.180357
C	 1.9139124143	 0.4823727087	-3.1915489688	-0.410923
H	 0.8364838878	 2.0457874363	-0.2126013632	 0.136615
H	-0.8972926769	 1.8920828519	-0.5246279021	 0.136136
H	-0.2934495769	 1.8716225031	 1.1435188092	 0.117597
H	-1.2829921441	-0.3904961377	 1.4803136852	 0.226384
H	 0.9951097898	-0.8157046602	 2.0038841513	 0.097701
H	 2.3168955841	-2.1159144926	-0.1166263081	 0.11035
H	 0.8402225747	-2.5665619339	-1.911722873	 0.237314
H	 2.3671820383	 0.9649518151	-4.0214917381	 0.187407
