16
gdb 8735	3.83735	1.28874	1.17296	1.7077	72.47	-0.2575	0.0252	0.2827	1059.8773	0.126477	-346.529286	-346.519931	-346.518986	-346.562937	33.978	
C	 0.0729117526	 1.5890470222	 0.022516602	-0.410303
C	 0.0105883267	 0.0509818519	 0.0518077724	-0.163838
C	 0.7378247487	-0.4925185833	 1.1955425915	 0.327432
C	 1.3373931886	-0.9384664731	 2.136752128	-0.46143
C	-1.4624965124	-0.4758347334	 0.0521222798	-0.056266
O	-2.203720623	-0.0031765739	 1.1660903923	-0.412517
C	-2.1286705271	-0.167432257	-1.216825152	 0.300407
C	-2.6771826759	 0.1219818855	-2.2469819731	-0.447018
H	 1.1102238106	 1.9270038381	-0.0276252782	 0.132268
H	-0.4627362889	 1.9752927116	-0.849419254	 0.127514
H	-0.3698328921	 2.0068501207	 0.9308713374	 0.128143
H	 0.4712451658	-0.3341101795	-0.8675524267	 0.11679
H	 1.8664818958	-1.3344250482	 2.967853827	 0.195329
H	-1.4199554889	-1.5631286621	 0.1777851219	 0.129933
H	-2.4968602044	 0.8924812775	 0.9676927522	 0.290529
H	-3.1702399562	 0.357428133	-3.1580625105	 0.20303
