20
gdb 52139	5.46347	0.73943	0.72797	3.3314	83.32	-0.2585	0.024	0.2825	1610.1492	0.1718	-403.086815	-403.078263	-403.077319	-403.122105	31.293	
N	 0.3942961252	 0.4666598591	 1.5088334669	-0.439993
C	 0.0326029098	-0.0955954808	 0.4376023351	 0.135462
O	-0.9321206492	-1.0320142824	 0.4573787762	-0.184776
C	-1.2170824364	-1.6831598903	-0.7882072401	-0.142097
C	-2.5103294799	-2.4477714522	-0.6048884106	 0.05589
C	-2.9605753724	-3.541228038	-1.6255897867	-0.065672
C	-1.8978184039	-4.5012938356	-1.0113988064	-0.227341
C	-2.5681870273	-3.7871665323	 0.1992656194	-0.035862
C	-3.9281801305	-4.045492791	-0.5139783547	-0.218286
H	 1.1172929053	 1.1551343021	 1.3104342117	 0.227007
H	 0.4293892983	 0.1058807689	-0.5682046601	 0.08033
H	-1.33762562	-0.9306390443	-1.5806462845	 0.104678
H	-0.3747909651	-2.3276471586	-1.0624373303	 0.109654
H	-3.2985539004	-1.7379172499	-0.3312224913	 0.075967
H	-3.1912394394	-3.3970168117	-2.682688922	 0.07007
H	-2.105020354	-5.5700213749	-1.1109808146	 0.093789
H	-0.8443143628	-4.2981832118	-1.2094869447	 0.092441
H	-2.3411991955	-3.9209072072	 1.2567651813	 0.084076
H	-4.7580510423	-3.3855965461	-0.247005161	 0.092918
H	-4.2488864793	-5.0875629031	-0.5878378337	 0.091745
