17
gdb 17866	4.29069	1.76159	1.54464	2.3368	68.99	-0.2364	0.0582	0.2946	861.3346	0.142121	-363.746264	-363.739084	-363.738139	-363.777529	27.781	
O	 0.2207161035	 1.3625707395	-0.0670494112	-0.427879
C	 0.0447254476	-0.0255434506	-0.0137997011	 0.016491
C	-0.4151287412	-0.7462078693	 1.2571512221	-0.439676
C	-1.2879541675	-0.6618852708	 0.0453003331	 0.393474
C	-2.7232591752	-0.1887405894	-0.2149658917	-0.160048
C	-2.4467811635	-0.6831386214	-1.6533500201	-0.166929
N	-1.8164261323	-1.8100076102	-0.8044070751	-0.184194
C	-3.0834073788	-1.6657394008	 0.0673162563	-0.164391
H	-0.5688777558	 1.7854376949	 0.2854181371	 0.285179
H	 0.8185660378	-0.5178279094	-0.5947257111	 0.120019
H	 0.0585620032	-1.6917140637	 1.5032477788	 0.126636
H	-0.6775352093	-0.1328119617	 2.1154903806	 0.112549
H	-3.2269334695	 0.7239490592	 0.1240679026	 0.064599
H	-3.2990494637	-1.0212477099	-2.2489275493	 0.100569
H	-1.7198686717	-0.1345021223	-2.2555767071	 0.115128
H	-2.9552108119	-2.0415656151	 1.0845192938	 0.108232
H	-3.9807638617	-2.072000809	-0.4073799776	 0.10024
