23
gdb 106620	2.53624	1.35537	1.19902	1.4423	84.37	-0.2465	0.0673	0.3139	1193.9948	0.207087	-388.291467	-388.282551	-388.281607	-388.324732	35.383	
C	-0.092556211	 1.5343878454	 0.0669889719	-0.386404
C	 0.0741779634	 0.0105798812	 0.0058282296	-0.291656
C	 0.7370272835	-0.5030089766	-1.2567139895	 0.319749
C	 0.0686971056	-0.4255946343	-2.6672001517	-0.26899
C	 1.0687858247	-1.5639710019	-3.0155852106	-0.070846
C	 2.4226198127	-0.8376954882	-2.9096668646	-0.238748
C	 2.177049521	-0.0400075768	-1.584844603	-0.273665
C	 0.8353848963	-2.0372840761	-1.5522671641	 0.136547
O	 1.7492320974	-2.8608012207	-0.8777114413	-0.452901
H	 0.8739872187	 2.0480282623	 0.0514426208	 0.116404
H	-0.6784566128	 1.9044002523	-0.781468423	 0.116379
H	-0.610268897	 1.8343570342	 0.9833058367	 0.112132
H	 0.6591534437	-0.32959645	 0.8711278476	 0.099802
H	-0.9111853223	-0.4634944164	 0.1034751179	 0.091831
H	-0.9726977057	-0.7573635659	-2.659211569	 0.095436
H	 0.1609666421	 0.5108882013	-3.2236413195	 0.090731
H	 0.9178584685	-2.2280296352	-3.8668984819	 0.059475
H	 3.2690372816	-1.5306753604	-2.8454659069	 0.089712
H	 2.6091016617	-0.1838875198	-3.765787272	 0.100568
H	 2.2423750473	 1.0408960066	-1.7321263096	 0.101702
H	 2.8839181329	-0.2987467661	-0.7878991579	 0.088261
H	-0.1389000172	-2.5194099865	-1.4362551333	 0.08149
H	 2.634932885	-2.5005564386	-0.9859840066	 0.282991
