18
gdb 110492	3.21377	1.40004	1.28639	2.8004	74.36	-0.2122	0.0001	0.2124	1039.0435	0.149403	-401.893088	-401.885659	-401.884715	-401.925172	29.205	
O	 0.3046902012	 0.5963370945	-0.9851644643	-0.424592
C	-0.0636540863	 0.40789152	 0.3766036779	-0.115361
C	-1.4022555105	-0.3075903246	 0.3703150816	 0.040049
C	-1.527360738	-1.7543774599	-0.0740939627	-0.064663
C	-1.3137408859	-2.7705997471	 1.0226830992	-0.068992
C	-0.6079629837	-2.3789704335	 2.2733841335	-0.075385
C	-1.1324946877	-1.2321386919	 2.7090231917	-0.086228
C	-2.1359225295	-0.7641874485	 1.6857252458	-0.10587
N	-2.5973778286	-2.0353542745	 0.9515793108	-0.137461
H	 1.1939292469	 0.9613762323	-1.0075510896	 0.28722
H	 0.6875636078	-0.1857901917	 0.9137119587	 0.09025
H	-0.1620791903	 1.3738587828	 0.9008503286	 0.081349
H	-2.1083015628	 0.2822157661	-0.2217533923	 0.101382
H	-1.6278528377	-2.0756972017	-1.1060730668	 0.098117
H	-1.3647307182	-3.8131876993	 0.7228954955	 0.092058
H	 0.1996448271	-2.9480688213	 2.7149022173	 0.105513
H	-0.8125963043	-0.6459793622	 3.5611504012	 0.103871
H	-2.9502210097	-0.1345334793	 2.0417187137	 0.078743
