18
gdb 26945	3.00872	1.3187	0.98725	4.7829	80.5	-0.2033	0.0269	0.2302	1205.8766	0.150131	-398.150141	-398.141817	-398.140873	-398.183638	30.766	
C	-0.2857958736	 1.5500253846	 0.2197750083	-0.511724
C	-0.023179596	 0.0968319732	 0.0120703912	 0.208185
C	 0.2190067149	-0.6627749201	-1.1091657802	 0.244802
N	 0.399952873	-1.9899111615	-0.7648930348	-0.334999
C	 0.2760730205	-2.0381114699	 0.5381857044	 0.005932
N	 0.0221321144	-0.806635551	 1.0608952447	-0.296664
C	 0.2796594002	-0.2460513087	-2.5237858216	-0.108323
C	 1.2553852392	-0.8949835359	-3.4436161389	-0.236007
N	-0.1788147484	-1.1888706724	-3.5642870882	-0.326076
H	 0.5147678745	 2.0399906866	 0.7881293404	 0.132225
H	-0.3611953265	 2.0596506237	-0.7430202494	 0.148245
H	-1.225421816	 1.7243443829	 0.758316361	 0.130009
H	 0.3551176269	-2.9227062345	 1.1525672696	 0.130494
H	-0.1171195714	-0.5878716169	 2.0334052128	 0.26283
H	 0.0015580885	 0.7872424106	-2.7152234362	 0.07642
H	 1.682062112	-0.3286842811	-4.2674965437	 0.109045
H	 1.9013643571	-1.6535038993	-3.0112207701	 0.123276
H	-0.3603835693	-2.0786100603	-3.1007975392	 0.242331
