25
gdb 95401	2.11122	1.47716	1.01949	0.1569	94.95	-0.2255	0.0364	0.2619	1319.6973	0.229614	-352.391499	-352.381643	-352.380699	-352.425455	38.489	
C	-0.1030745779	 1.5482800703	-0.0220697578	-0.416011
C	 0.0519876876	 0.023811193	-0.0109952516	 0.030401
C	 0.678599871	-0.5001712347	-1.3109665669	-0.198606
C	 0.6290482534	-2.0323022394	-1.3680283573	-0.263552
C	 0.9337219824	-2.6696284449	-0.0392810105	-0.137748
C	 1.0227323293	-2.0171050593	 1.1233071918	 0.309869
C	 1.3008375232	-2.7448560487	 2.4138111788	-0.481052
C	 0.8294087501	-0.5106401929	 1.2188744125	-0.061033
C	 2.174575855	 0.2058910005	 1.4666455576	-0.39904
H	 0.8507857858	 2.0539007393	-0.2052821833	 0.115398
H	-0.7934547976	 1.8577984527	-0.8139671231	 0.108229
H	-0.5003818129	 1.9197154105	 0.9293570039	 0.106844
H	-0.9567192473	-0.4087818891	 0.0579694067	 0.068935
H	 0.161208465	-0.0730559519	-2.1776822138	 0.085968
H	 1.7196064725	-0.1596504678	-1.3769866267	 0.096328
H	-0.367901485	-2.3613283478	-1.699910224	 0.102896
H	 1.3228990362	-2.4094072938	-2.1309551127	 0.097917
H	 1.0650595331	-3.7507704909	-0.0451559141	 0.069713
H	 1.4223391164	-3.8190795396	 2.2499217205	 0.116675
H	 2.2097895389	-2.3775395647	 2.9057799834	 0.121383
H	 0.4819195438	-2.6014128805	 3.1312218288	 0.118016
H	 0.2057477964	-0.3173760033	 2.1049460804	 0.06433
H	 2.8449342399	 0.109098054	 0.6069323364	 0.117651
H	 2.0301380391	 1.2709756349	 1.6684825698	 0.1135
H	 2.6908598618	-0.2207699258	 2.3312985512	 0.112988
