15
gdb 127550	3.29238	1.46996	1.02274	2.4057	74.14	-0.2425	-0.0577	0.1848	1098.4686	0.114634	-450.170538	-450.162543	-450.161598	-450.203829	28.937	
C	-0.008316169	 1.4397309495	-0.0391796298	-0.313747
N	 0.0097326008	-0.017976642	-0.0069962888	-0.095393
N	-0.0554914017	-0.6611599017	-1.1919378624	-0.160726
C	-0.0412250184	-1.9484714582	-1.2032072517	-0.061912
C	 0.042103804	-2.7877508621	-0.0064771717	 0.350189
N	 0.0624026124	-4.0621486923	 0.073489758	-0.52893
N	 0.1039528295	-2.0264654547	 1.1572930755	-0.417965
C	 0.0934511569	-0.6502305733	 1.2337940468	 0.526704
O	 0.1506468724	-0.0307344701	 2.2735694073	-0.390062
H	 0.9052400547	 1.8440866506	 0.4038674087	 0.152128
H	-0.082645274	 1.7333515355	-1.0846931065	 0.151307
H	-0.8620738765	 1.8239865779	 0.5243516497	 0.152496
H	-0.0952667902	-2.4264532356	-2.1753276263	 0.134263
H	 0.0106191315	-4.4786983352	-0.8546131197	 0.224895
H	 0.1642081377	-2.5186207883	 2.038400521	 0.276754
