16
gdb 1911	5.99311	2.09496	1.84293	2.6597	60.73	-0.2454	0.0697	0.3151	728.2412	0.136955	-325.736331	-325.729427	-325.728483	-325.766735	26.283	
C	 0.0430702406	 1.5337619698	 0.0120165551	-0.482419
C	-0.0519238348	 0.0396343262	 0.0750556482	 0.35137
C	-1.3457639009	-0.7905854748	 0.0117025166	-0.338192
C	-0.6830793453	-1.8159060817	 0.9995793639	 0.107958
O	-0.4400847142	-3.1276321641	 0.5338482014	-0.432797
C	 0.5803664135	-0.9573371632	 1.0136607088	-0.088095
N	 1.0861190325	-0.7708301202	-0.3431448118	-0.356266
H	 1.061096488	 1.859820335	 0.2400554713	 0.133316
H	-0.209741649	 1.8993626154	-0.9905008606	 0.120666
H	-0.6453602625	 2.0043660007	 0.7222546385	 0.11382
H	-2.2165199635	-0.2931979057	 0.4480505611	 0.101514
H	-1.6109882317	-1.1779950247	-0.9783237365	 0.091634
H	-1.1926842712	-1.8241926611	 1.9722926067	 0.072483
H	-1.2870689213	-3.5725029943	 0.4280706059	 0.285253
H	 1.262876203	-0.8239620465	 1.8455211205	 0.087528
H	 0.8311768569	-1.5530764507	-0.944018909	 0.232229
