17
gdb 84265	3.30641	1.48285	1.09196	3.0201	77.91	-0.2054	-0.0183	0.1872	1094.4053	0.137619	-417.99116	-417.983301	-417.982357	-418.023616	29.406	
C	 0.2410653568	 1.4083849958	-0.0517608582	-0.350045
N	-0.0149557183	-0.0141082846	-0.0210857851	-0.078837
C	-0.0949171015	-0.8588067082	-1.139364138	-0.069163
C	-0.5395075155	-2.0732220264	-0.7851844983	 0.044421
C	 0.0261013782	-3.4765998876	-0.8730200504	-0.222515
N	 0.4362374848	-3.2913800987	 0.5662880746	-0.321572
C	-0.535595773	-2.1535687543	 0.7185743219	-0.14389
C	-0.1195440565	-0.7414684592	 1.1727492286	 0.414581
O	-0.0301392578	-0.2712614758	 2.2825009512	-0.374739
H	 1.1668362496	 1.634950839	-0.5931729716	 0.130685
H	-0.584816834	 1.9506627924	-0.5252191562	 0.133225
H	 0.3418496665	 1.7401410261	 0.9831811956	 0.168623
H	 0.3041405736	-0.5125316327	-2.084750637	 0.123632
H	-0.726187146	-4.2643514035	-1.0136587041	 0.103425
H	 0.8596222942	-3.6463155037	-1.5605867037	 0.115405
H	 0.1906223523	-4.081353414	 1.1570036834	 0.225564
H	-1.4620652234	-2.4297966446	 1.2361427274	 0.101202
