12
gdb 679	6.30588	4.67992	3.35105	2.2543	45.53	-0.2557	0.0964	0.3521	430.9118	0.097778	-306.344083	-306.33932	-306.338376	-306.372064	17.597	
C	-0.0241970283	 1.5058038308	-0.0449988129	-0.098706
O	 1.0539660872	 1.9674033217	 0.7623170458	-0.252179
C	 2.0586300241	 0.9621444305	 0.8481867273	-0.098706
C	 1.3507315621	-0.3460445307	 0.5727329556	 0.028022
O	 0.1575678493	-0.506686861	 1.3467196257	-0.244781
C	 0.0419417226	-0.0044243723	 0.0114806695	 0.028022
H	-0.9497192008	 1.9208809218	 0.3671165877	 0.121291
H	 0.0749853791	 1.8378062838	-1.0918559829	 0.094324
H	 2.8549271472	 1.1121862058	 0.1002755664	 0.094324
H	 2.5023037938	 1.0198341592	 1.8474588816	 0.121291
H	 1.9020490975	-1.2498976886	 0.329290679	 0.103549
H	-0.4975220836	-0.623561601	-0.6997251427	 0.103549
