23
gdb 59633	3.24132	1.01812	0.82649	1.703	89.7	-0.2242	0.0226	0.2468	1493.0591	0.204199	-388.312253	-388.302114	-388.30117	-388.347392	37.533	
C	-0.0326146675	 1.5063737292	-0.1159511232	-0.389914
C	-0.0106885462	-0.0189842506	 0.0427546372	 0.036072
C	 0.8368784311	-0.4359763867	 1.2518678801	-0.398151
C	-1.44773281	-0.5693521196	 0.1537966519	 0.09973
O	-2.2251057903	-0.1445532737	-0.9761455767	-0.282532
C	-2.8084405234	-1.2620587134	-1.6290917249	-0.152585
C	-2.3342946633	-2.4754970461	-0.8706775384	 0.29577
C	-2.7244761386	-3.8627352952	-1.2635493833	-0.492571
C	-1.5726100457	-2.0695184136	 0.1419912969	-0.219118
H	 0.979551791	 1.8979659942	-0.2613067005	 0.102951
H	-0.646027613	 1.7987746976	-0.9706745104	 0.132581
H	-0.4492414848	 1.9850357568	 0.779021256	 0.106118
H	 0.4267213275	-0.4585433261	-0.8638512322	 0.069561
H	 0.3879660981	-0.0807994881	 2.1876091595	 0.112256
H	 0.9485841617	-1.522053439	 1.3244427798	 0.110903
H	 1.8407138009	-0.0044746266	 1.1864209055	 0.11315
H	-1.8993559588	-0.1409621105	 1.0678555356	 0.072122
H	-3.9084708264	-1.1770718334	-1.6177776607	 0.097505
H	-2.5024677474	-1.2850160714	-2.6879440254	 0.09921
H	-3.8148959508	-3.9862025018	-1.2526345236	 0.12949
H	-2.3953389121	-4.0941381961	-2.2845505255	 0.129587
H	-2.292137114	-4.6076960929	-0.5908100091	 0.128143
H	-1.102231398	-2.7086012428	 0.8783556115	 0.099722
