19
gdb 100864	1.92992	1.29428	0.85105	2.4079	74.01	-0.2557	-0.0557	0.2001	1371.1771	0.154272	-460.168076	-460.157383	-460.156439	-460.205015	36.199	
C	-0.2100912104	 1.4544333787	-0.1344275467	-0.240609
O	-0.0872978279	 0.0723735435	 0.1238362463	-0.258179
C	-1.2803966878	-0.6846353591	-0.0625609556	 0.127933
C	-1.6155462007	-0.8906766376	-1.5393442002	-0.42168
C	-1.0142949421	-1.9953719141	 0.6788891367	-0.186528
C	-0.4865450716	-1.7483486468	 2.0978812945	 0.155534
O	 0.1152158702	-2.5750899374	 2.7296761998	-0.252734
C	-2.2268542316	-2.9090183514	 0.8217424584	 0.132221
O	-3.3413972529	-2.6326572327	 0.4610057177	-0.235634
H	 0.7328668513	 1.9186423026	 0.1638580355	 0.133994
H	-0.3835158362	 1.6702911985	-1.197396627	 0.115085
H	-1.028475933	 1.9040284327	 0.4486409721	 0.10829
H	-2.1211543547	-0.1683032825	 0.4295214295	 0.083245
H	-2.5246510066	-1.4869197361	-1.6388343151	 0.148689
H	-1.786773658	 0.0653934605	-2.0411156868	 0.121029
H	-0.790831345	-1.400352079	-2.048076852	 0.121564
H	-0.2360271733	-2.5811843139	 0.1716549752	 0.130707
H	-0.7449610398	-0.7568785327	 2.5220303606	 0.101522
H	-1.9957663301	-3.8714352132	 1.324207787	 0.115551
