20
gdb 106191	3.70924	1.41558	1.31328	1.4358	81.06	-0.2198	0.0822	0.302	1063.005	0.172553	-365.964064	-365.956614	-365.95567	-365.995949	30.184	
C	 0.1108434817	 1.5392478595	 0.1408828731	-0.376259
C	-0.0626136035	 0.0329957807	-0.0721346436	-0.320667
C	 0.6937469263	-0.5028840952	-1.2527379528	 0.365985
C	 0.8776010805	-2.0121833695	-1.6140347604	-0.152146
C	 1.0337370215	-1.9989738427	-3.1161773654	-0.088246
C	 0.4715908824	-0.6918756852	-3.64147651	-0.175401
N	 0.7614425892	 0.2272739963	-2.5336642661	-0.160355
C	 2.0156510323	-0.1923220985	-1.8721063456	-0.127283
C	 2.2223162856	-1.688692552	-2.2341116357	-0.08789
H	 1.1573573897	 1.7893520891	 0.3440200099	 0.113805
H	-0.196068155	 2.0921837096	-0.74997206	 0.138152
H	-0.4873792116	 1.8818566926	 0.9902548496	 0.106613
H	 0.2600536289	-0.5129874034	 0.8241367237	 0.100388
H	-1.1281418155	-0.2041179007	-0.2031417934	 0.100617
H	 0.5753610906	-2.8636262136	-1.0207602833	 0.086858
H	 0.9997529047	-2.925431471	-3.6764920734	 0.089168
H	 0.96826119	-0.3439699641	-4.5532698028	 0.104545
H	-0.6085029214	-0.7294281366	-3.8179610381	 0.104363
H	 2.7757029564	 0.5457389291	-1.6480132391	 0.089227
H	 3.1469795172	-2.2466960544	-2.2112511664	 0.088526
