21
gdb 112441	2.54755	1.21193	0.93324	2.5427	78.91	-0.2362	-0.0162	0.22	1316.4162	0.181171	-424.254553	-424.245029	-424.244085	-424.289173	35.214	
C	 0.1136638946	 1.6333782924	-0.3964069339	-0.239428
O	-0.3425023312	 0.30176648	-0.4766591957	-0.244224
C	 0.5913191499	-0.5963198427	-1.0286638975	 0.133174
C	 1.7966699308	-0.9351870411	-0.1295367757	-0.355215
C	 2.197076951	-2.3565253184	-0.5418141353	 0.404083
O	 3.1918386734	-2.9369744441	-0.1940724652	-0.31219
C	 1.1174053254	-2.9048516287	-1.4819274054	-0.330249
C	-0.0867493705	-1.9611654019	-1.3141527221	-0.043571
C	-1.0186106887	-2.4095494269	-0.1805996412	-0.389107
H	 0.9686365448	 1.7406367711	 0.2869183943	 0.110164
H	 0.4108775721	 2.0198001013	-1.3840458763	 0.105797
H	-0.7149434286	 2.2360854497	-0.0171496822	 0.129654
H	 0.9674709729	-0.188744169	-1.9834487759	 0.066191
H	 2.6479598122	-0.2553841625	-0.208179028	 0.125821
H	 1.4874202714	-0.9533882491	 0.9230416763	 0.140645
H	 1.5265878872	-2.856257685	-2.500214503	 0.127584
H	 0.9069271622	-3.9566277718	-1.2726050433	 0.127416
H	-0.6712672251	-1.8906636497	-2.2362947983	 0.078944
H	-0.4788043613	-2.5492113933	 0.762740428	 0.114966
H	-1.8035265903	-1.6710046116	-0.0083188009	 0.136644
H	-1.4866304124	-3.3658388186	-0.4345748087	 0.1129
