18
gdb 87935	3.42069	1.13032	0.97343	3.0625	72.19	-0.2216	-0.0163	0.2054	1219.8162	0.147335	-439.079879	-439.071481	-439.070537	-439.113142	32.165	
O	-0.1388843287	 1.4275155364	-0.0490016958	-0.421557
C	-0.0730770553	 0.0316278227	-0.030443992	 0.024364
C	-0.4295619424	-0.733488019	 1.2267217476	-0.354817
C	-1.37590849	-0.6857978114	 0.0404318484	 0.316065
C	-2.7173440393	 0.0241986897	 0.1358345386	-0.391777
C	-3.7199032973	-1.1241684392	-0.0385052515	 0.383214
O	-4.9094036257	-1.0760834537	 0.1290083279	-0.304804
C	-2.9107693359	-2.3647090375	-0.4617055672	-0.284899
N	-1.5462372492	-1.9036324475	-0.7478236752	-0.352087
H	 0.6053187605	 1.7682215842	 0.4582684399	 0.291345
H	 0.6920508981	-0.4070610971	-0.6718446583	 0.093018
H	 0.0931356144	-1.6640450842	 1.4159292771	 0.120716
H	-0.6981647869	-0.1498616333	 2.1011521155	 0.114617
H	-2.9020960516	 0.5662925916	 1.0646962725	 0.134617
H	-2.8528031511	 0.7372187742	-0.687953774	 0.139623
H	-2.9118969819	-3.0717816209	 0.379637466	 0.1371
H	-3.3690675878	-2.8724928441	-1.3134625865	 0.131962
H	-1.4820677198	-1.6604935309	-1.7330701429	 0.223299
