18
gdb 5118	3.33445	1.97501	1.26758	1.364	76.15	-0.1845	0.0543	0.2388	973.8668	0.15417	-344.021026	-344.01209	-344.011146	-344.054826	31.846	
C	-0.0911858708	 1.4520277227	 0.0020640455	-0.339865
N	 0.0193224775	 0.0094369116	-0.0081148078	 0.002836
C	 0.1218871325	-0.7778560828	-1.1263555044	-0.101775
C	 0.1817292072	-2.0921335612	-0.7286631083	-0.263436
C	 0.0975279812	-2.1206319157	 0.6931737549	 0.247492
C	 0.1244757923	-3.3289858327	 1.5793541406	-0.505704
C	-0.0046776245	-0.8054709623	 1.1097413753	 0.144688
N	-0.0747348437	-0.2165337947	 2.3946313113	-0.61403
H	 0.5915563038	 1.8832771402	-0.735227884	 0.130181
H	-1.1102812286	 1.78542447	-0.229959863	 0.125158
H	 0.1749447666	 1.8103745532	 0.9972355613	 0.156899
H	 0.1391662565	-0.3331980373	-2.1089994822	 0.106664
H	 0.2757602219	-2.9465610021	-1.3826910892	 0.084602
H	 1.1093869949	-3.8128773769	 1.597409975	 0.120853
H	-0.1278976318	-3.0666143094	 2.6123873985	 0.09854
H	-0.5954013114	-4.0874593369	 1.2508718632	 0.122362
H	-1.0131022056	-0.2321243373	 2.7834001886	 0.240403
H	 0.5348156421	-0.6898879883	 3.0505911147	 0.244134
