18
gdb 20046	5.23699	1.31481	1.15902	1.756	75.32	-0.2313	0.0136	0.2448	1061.7011	0.15503	-347.798501	-347.791114	-347.79017	-347.830547	27.686	
C	 0.2786574121	 1.4502532205	 0.0256707353	-0.186127
O	 1.1653006079	 0.3797578104	-0.2768056148	-0.235331
C	-0.2073381496	 0.0568542362	 0.0232301201	-0.037649
C	-0.4638821178	-0.7045805424	 1.2585079404	 0.3774
C	-1.3817729591	-1.6654351271	 1.4000096995	-0.185287
C	-1.4232513146	-2.2188915506	 2.8029457235	-0.24676
C	-0.1079920933	-1.6802118102	 3.422635662	-0.211127
C	 0.2812394528	-0.4568262156	 2.5555210278	-0.314447
H	 0.460204188	 1.9563021491	 0.9723478057	 0.114023
H	 0.0236925279	 2.1033362973	-0.8084980501	 0.114967
H	-0.7786522981	-0.2666743452	-0.8471998109	 0.088505
H	-2.0537604711	-1.9966831388	 0.6147555095	 0.086339
H	-2.3100390808	-1.8505596982	 3.3394015981	 0.105581
H	-1.4843749312	-3.3127157104	 2.8295211553	 0.103714
H	-0.205753726	-1.4343659367	 4.4829270602	 0.096478
H	 0.6702941967	-2.445049517	 3.3375573206	 0.108955
H	 1.3605992064	-0.3648213348	 2.4018988076	 0.11987
H	-0.0521444803	 0.4850598236	 3.0145664601	 0.100893
