16
gdb 86652	1.97943	1.91212	1.22121	1.7978	66.93	-0.2588	-0.0405	0.2183	1042.0152	0.122859	-475.046278	-475.037795	-475.036851	-475.080043	30.302	
C	 0.6178853377	 1.3020921103	-0.1704517621	-0.400227
C	-0.0705467316	-0.0424279774	-0.0540735366	 0.20338
O	 0.2400530349	-0.9046379575	-1.1369700346	-0.247832
C	 1.1054391161	-1.9147581725	-0.6892232903	-0.076625
C	 2.5638562875	-1.7181406746	-1.1252107252	 0.143573
O	 2.9846460856	-0.7090638094	-1.6197620618	-0.229875
C	 1.0304851676	-1.8477576596	 0.8268339866	 0.375023
N	 1.5506308768	-2.6792154549	 1.6173823391	-0.535762
O	 0.341230346	-0.7246123149	 1.142833147	-0.237816
H	 1.6968115062	 1.1666244195	-0.268549947	 0.151795
H	 0.2500107517	 1.8167659384	-1.0620804221	 0.137262
H	 0.3958328065	 1.9144703718	 0.7077363897	 0.128294
H	-1.1606980224	 0.0633555653	-0.007354491	 0.106496
H	 0.7658739062	-2.8940162166	-1.0477628535	 0.135745
H	 3.2049364934	-2.6004212429	-0.9180232403	 0.112157
H	 1.395788788	-2.4156061249	 2.591058552	 0.234411
