17
gdb 62245	3.2955	0.73472	0.64129	5.3705	70.44	-0.2629	0.0064	0.2693	1667.9153	0.134788	-455.174582	-455.164574	-455.16363	-455.211094	34.198	
O	 0.4631120788	 1.50328719	 0.231535247	-0.412139
C	 0.0329405187	 0.1933569143	-0.1057891452	-0.020384
C	 0.5714188091	-0.2864896829	-1.4630269155	-0.202341
C	 0.1478567609	 0.6607269421	-2.5954641265	-0.171456
N	 0.6339919994	 0.2316085711	-3.8967474809	-0.272365
C	 0.037615429	-0.7767471069	-4.5857210274	 0.151274
O	-0.9246370909	-1.4008735035	-4.1895101288	-0.32292
C	 0.3801350572	-0.7661686632	 0.9613261941	 0.258257
N	 0.6949387351	-1.5036858299	 1.7933166809	-0.311217
H	 1.4079553324	 1.4706612537	 0.4221336165	 0.296038
H	-1.0604198658	 0.2568647921	-0.1556767884	 0.148878
H	 1.6649734604	-0.3580561696	-1.4141799772	 0.104585
H	 0.1856129125	-1.2885596276	-1.6718778207	 0.154638
H	-0.9455472915	 0.7010812846	-2.6407153419	 0.140397
H	 0.5130796889	 1.670917653	-2.4006763714	 0.124194
H	 1.4431423275	 0.6780342441	-4.2961353162	 0.252708
H	 0.5269919283	-0.9651250815	-5.5614840183	 0.081854
