19
gdb 107555	2.50069	1.60377	1.11272	1.803	76.62	-0.2362	0.0094	0.2455	1123.4806	0.158569	-423.019364	-423.010656	-423.009712	-423.0526	33.099	
C	-0.2857888311	 1.450736019	 0.005614303	-0.494072
C	-0.1471761891	-0.0387002327	-0.0086586301	 0.282224
C	-0.0592379923	-0.8468644839	-1.0714535132	-0.180001
C	 0.0723761884	-2.3083712227	-0.6969400715	-0.29701
C	 0.1239349756	-2.2634955844	 0.8246472934	-0.027679
O	 1.2410903688	-1.5425518387	 1.3547821588	-0.312386
C	-0.0479964839	-0.8629636284	 1.2484999085	 0.306202
C	-0.5866331441	-0.413191639	 2.578883836	-0.173302
O	 0.1998359244	 0.6363077836	 3.1227873256	-0.416739
H	 0.5391170108	 1.9196492744	 0.5521957764	 0.140272
H	-0.311720724	 1.8536562806	-1.0104133699	 0.118323
H	-1.2045199568	 1.7625320638	 0.5172622417	 0.128984
H	-0.0408782581	-0.5093336231	-2.1024433982	 0.093164
H	-0.7817424028	-2.9052056044	-1.0429996222	 0.111279
H	 0.9742781473	-2.7703346313	-1.1167818612	 0.124624
H	-0.2039657663	-3.1118448087	 1.4205136089	 0.093034
H	-1.6005193842	-0.0137864033	 2.470845241	 0.11212
H	-0.6325331158	-1.2751679449	 3.2604699588	 0.09599
H	 1.103853473	 0.3025370441	 3.1622419741	 0.294972
