21
gdb 41935	3.18277	1.44352	1.05523	1.748	83.42	-0.2316	0.0221	0.2536	1164.6127	0.186061	-387.109212	-387.101591	-387.100647	-387.141366	30.469	
C	-0.0412859593	 1.4209262387	 0.0409589975	-0.073417
C	 1.4225501939	 1.9546425106	-0.005255278	-0.303597
C	 2.2117058311	 0.7203675767	 0.4397877387	 0.055157
C	 3.6721299743	 0.4944224588	 0.0730730606	-0.253727
C	 4.123852681	-0.870893094	 0.6536262437	-0.257445
C	 3.046414656	-1.9355945232	 0.6660568079	-0.034037
C	 1.772957685	-1.7322298529	 0.3233538202	-0.125293
C	 1.3508770877	-0.3833894776	-0.1687937326	 0.138076
O	 0.022315668	-0.0093314438	 0.1656058108	-0.287809
H	-0.5968979339	 1.8033050258	 0.903741625	 0.105655
H	-0.5957239414	 1.6943855832	-0.8667247495	 0.095453
H	 1.6978691539	 2.2461570536	-1.0249208816	 0.10149
H	 1.5669527946	 2.8248960028	 0.639803552	 0.10169
H	 2.1068098275	 0.6211135874	 1.5290475094	 0.079969
H	 3.7793663782	 0.4909218678	-1.0194587372	 0.098906
H	 4.3203465219	 1.2925049862	 0.4501564901	 0.094936
H	 4.9978158158	-1.2421204421	 0.1030635473	 0.106475
H	 4.4770608717	-0.733010038	 1.6863710628	 0.111663
H	 3.3625903886	-2.9229819981	 0.9959251303	 0.087539
H	 1.0378784212	-2.5310374235	 0.348646653	 0.095897
H	 1.4625479042	-0.3537970985	-1.2717769605	 0.06242
