19
gdb 9520	2.74185	1.80111	1.52546	2.3614	72.06	-0.2612	0.0318	0.293	955.5832	0.16494	-365.072533	-365.063921	-365.062977	-365.105388	31.823	
C	-0.0922979337	 1.6078744216	 0.0062590153	-0.394832
C	 0.0761501345	 0.0848574864	 0.014270007	-0.232706
C	 0.7549670464	-0.4881106285	-1.2418598359	 0.177798
C	 2.1674183202	 0.0510144296	-1.4710899545	-0.451583
C	 0.6064461376	-2.0258453073	-1.3968178007	-0.129021
O	-0.236079369	-1.8381361331	-2.5770926721	-0.259258
C	-0.1252861448	-0.4676933225	-2.4860764798	 0.421643
N	-0.6060064533	 0.4379939735	-3.209660404	-0.552104
H	 0.872163083	 2.1231727048	 0.0416703151	 0.116149
H	-0.6171836299	 1.9336289407	-0.8958686809	 0.154967
H	-0.669003915	 1.9313517729	 0.8780469399	 0.111627
H	 0.6613100081	-0.2252325808	 0.890665984	 0.095987
H	-0.9094884727	-0.3852516801	 0.1198641496	 0.102836
H	 2.7957491367	-0.1241638771	-0.5907340624	 0.115924
H	 2.6403986583	-0.4338727147	-2.330495616	 0.122357
H	 2.1462556577	 1.125090697	-1.6697853854	 0.143846
H	 1.5160255674	-2.5759510787	-1.6518578724	 0.115106
H	 0.0570666045	-2.5413722781	-0.6046593188	 0.115478
H	-1.1632611159	 0.0505505843	-3.9733513681	 0.225786
