21
gdb 116930	6.77154	0.50478	0.4948	1.7625	90.48	-0.2411	0.0306	0.2717	2308.6522	0.181236	-387.048115	-387.037818	-387.036874	-387.086622	35.457	
C	-0.4154400664	 1.6801725683	 0.2076168869	-0.382007
C	-0.3697335345	 0.1512006965	 0.2233373498	-0.154032
C	 0.9976786484	-0.3894250435	 0.6893010262	-0.337883
C	 1.0680093476	-1.8453556099	 0.7160518874	 0.025409
C	 1.0961424583	-3.0502616626	 0.7350191956	 0.138019
C	 1.1458511668	-4.5004429896	 0.7520175345	-0.031095
C	 2.5373084354	-5.1837611104	 0.6306142921	-0.283424
C	 2.1782197942	-5.8340073091	 1.9792266437	-0.058214
O	 0.9495410604	-5.0827932547	 2.0709806077	-0.280034
H	 0.341069107	 2.094134722	-0.4685613513	 0.115202
H	-1.3926214825	 2.0425121114	-0.1251679685	 0.115583
H	-0.2291357809	 2.0938523071	 1.2050589353	 0.116586
H	-1.1489339248	-0.2437742909	 0.8844253572	 0.112593
H	-0.5840411227	-0.2435929402	-0.7760715439	 0.108305
H	 1.7865667884	 0.0021816657	 0.0323980687	 0.125814
H	 1.2217485818	 0.0027963663	 1.6906859729	 0.129574
H	 0.4056405353	-4.9062763198	 0.0484861184	 0.097535
H	 2.656443961	-5.8560179047	-0.2197479819	 0.112846
H	 3.3720771784	-4.4840625521	 0.666418211	 0.121511
H	 1.9929824758	-6.9151077686	 1.9420683125	 0.10021
H	 2.8516072331	-5.6187325812	 2.8167714858	 0.107502
