18
gdb 90009	2.98597	1.37434	1.11281	3.5017	72.93	-0.2321	0.0183	0.2504	1131.0912	0.147348	-439.093027	-439.084475	-439.08353	-439.126674	31.645	
C	-0.5956859504	 1.36359853	 0.2100499913	-0.400531
C	-0.0682134123	-0.047246872	 0.0421095032	 0.143563
C	 0.6476622173	-0.3691858782	-1.2909006566	-0.370098
C	 1.9208666234	-0.3801361304	-0.4315951846	 0.294315
C	 3.0469006572	-1.4524826214	-0.499223975	-0.231904
N	 3.9724242678	-0.354450201	-0.8030210562	-0.340221
C	 3.0510469782	 0.6591389502	-0.7067699802	 0.389016
O	 3.1132589714	 1.8545124269	-0.8172559645	-0.367287
O	 1.1775618935	-0.2505505736	 0.7749337567	-0.316822
H	 0.1612792287	 2.0903736611	-0.1005330109	 0.148438
H	-1.4984054439	 1.5083220637	-0.3938887319	 0.113662
H	-0.8495962814	 1.5530154201	 1.2574686135	 0.126995
H	-0.8127063791	-0.7875522154	 0.3571267721	 0.078824
H	 0.3917811984	-1.3369055531	-1.7257620736	 0.113152
H	 0.6027347552	 0.4065466893	-2.0572443507	 0.127465
H	 3.2265754031	-1.9443233583	 0.4614790656	 0.125966
H	 2.9483836952	-2.1979952233	-1.2951399557	 0.11165
H	 4.961496268	-0.3447665745	-1.0011857624	 0.253818
