23
gdb 123111	6.73203	0.4459	0.42479	1.5527	84.61	-0.2433	-0.0087	0.2346	2574.5084	0.201823	-425.444433	-425.43269	-425.431746	-425.483804	39.39	
C	-0.0512191402	 1.3825708648	-0.0668274595	-0.227032
O	 0.0104341212	-0.0219101689	-0.0459755962	-0.231233
C	 0.6614110689	-0.5268366249	 1.0998182017	-0.050426
C	 0.6735812828	-2.0476443747	 1.0238250003	-0.205626
C	 1.3629757297	-2.6908698173	 2.2301853161	-0.173906
C	 1.3769611726	-4.2170861728	 2.157293824	-0.30298
C	 2.0574244181	-4.8857232386	 3.3459980175	 0.376212
C	 2.1013254287	-6.4046262941	 3.3270651769	-0.472547
O	 2.5360285028	-4.2452934528	 4.2540426096	-0.28995
H	 0.9524516553	 1.837826321	-0.0647148159	 0.101748
H	-0.568404086	 1.6756627591	-0.9839640635	 0.124736
H	-0.6070205358	 1.7821601369	 0.7969024559	 0.101748
H	 1.6931110735	-0.1370578849	 1.1586219749	 0.083886
H	 0.1422141426	-0.192285629	 2.0154029223	 0.083886
H	-0.3624368922	-2.3998713313	 0.9438455113	 0.102779
H	 1.1750616453	-2.3451147216	 0.0944052537	 0.10278
H	 2.394290162	-2.3294500773	 2.3145238581	 0.111388
H	 0.8672437733	-2.3837453291	 3.1582297579	 0.1114
H	 0.3550554921	-4.6166248231	 2.0834578705	 0.118497
H	 1.8786521843	-4.5624855068	 1.2416665086	 0.118484
H	 2.6260521795	-6.7608281802	 2.433377687	 0.137081
H	 2.6074189167	-6.7722323942	 4.2204318201	 0.142014
H	 1.0865703649	-6.8159622303	 3.2827523487	 0.13706
