13
gdb 130194	3.52426	1.83247	1.207	2.5325	64.8	-0.2189	0.0054	0.2242	921.8302	0.093569	-445.119113	-445.112201	-445.111257	-445.150421	25.777	
N	 0.0453445872	 1.3561037978	 0.1787016873	-0.59195
C	 0.0144754769	-0.0069342728	 0.0359046422	 0.441487
N	-1.0543670428	-0.7632550029	-0.0422764908	-0.287433
N	-0.5776945617	-2.0700388455	-0.0827392717	-0.377715
C	 0.7699189142	-2.0900311402	-0.0484850848	 0.518311
N	 1.8213307477	-2.8935990923	-0.0710649314	-0.404209
C	 2.8362161145	-1.9761868736	-0.001082744	 0.041947
N	 2.5116969934	-0.6854612283	 0.0631830501	-0.301162
N	 1.146340376	-0.7839098019	 0.0335629092	-0.010943
H	 0.8670736548	 1.7950657836	-0.2126578351	 0.278529
H	-0.8175094287	 1.8083122781	-0.0870696316	 0.273304
H	-1.2256071898	-2.8322209592	-0.1512097305	 0.289721
H	 3.8741900683	-2.2773375629	 0.0020159511	 0.130113
