21
gdb 119992	3.07893	0.82073	0.78039	2.9866	75.61	-0.2333	0.0615	0.2948	1572.8553	0.180331	-461.317727	-461.307213	-461.306269	-461.353972	37.478	
C	 0.491526534	 1.1115254072	 0.4309967133	-0.244991
O	-0.2060912482	 0.0362805	-0.1820931012	-0.25388
C	 0.4921699494	-0.500203614	-1.2715565701	 0.036516
C	 1.2933952511	-1.7465957498	-0.974350219	 0.088203
O	 1.2979680299	-2.2062879706	 0.3453233118	-0.431947
C	 0.0140053545	-1.8343382997	-1.7947464291	-0.126115
C	-1.2189542134	-2.5227302362	-1.2467111302	-0.223789
C	-1.1157481393	-4.0472021494	-1.3569009504	-0.054939
O	-2.2999902161	-4.7075016172	-0.9359309731	-0.420296
H	 1.4776069987	 0.7990261783	 0.8001411229	 0.122869
H	 0.628901412	 1.9445027137	-0.2727917383	 0.118234
H	-0.1198410702	 1.4518331616	 1.2696565713	 0.132899
H	 0.8601372488	 0.2463874016	-1.9749302067	 0.088684
H	 2.249828353	-1.9140817833	-1.4594562533	 0.099635
H	 0.6964727539	-1.6285739339	 0.8341295272	 0.292038
H	 0.1645173733	-1.9670278504	-2.8641160322	 0.08968
H	-1.3688754088	-2.2479657051	-0.1976059612	 0.091027
H	-2.1114150702	-2.1845942305	-1.7856855642	 0.106808
H	-0.9725013138	-4.3396240641	-2.4033863253	 0.103757
H	-0.2358472605	-4.3932561193	-0.7952614822	 0.106043
H	-2.4045337383	-4.5439728188	 0.0066695799	 0.279566
