16
gdb 54579	3.76502	1.36012	1.16111	3.2745	68.92	-0.2401	0.0203	0.2604	1041.3671	0.124564	-437.848748	-437.841137	-437.840192	-437.881102	29.289	
N	 0.0768976119	 1.2200078954	 0.4165988026	-0.5425
C	-0.0153759504	-0.0534696258	-0.0742211647	 0.280536
O	 0.9340763287	-0.6444734113	-0.5621091157	-0.378301
C	-1.3496762164	-0.6844437546	 0.0365954384	 0.206118
C	-2.6378894725	-0.3166591193	 0.7754068631	-0.332232
C	-3.1004843386	-1.7490726233	 0.4009810688	 0.056337
O	-3.2427560334	-1.6909390679	-1.0487327146	-0.294244
C	-1.8245587889	-1.6467059826	-1.1010513945	 0.082424
C	-1.5946952524	-2.1854616902	 0.2521112968	-0.169512
H	 0.9319310747	 1.7227982257	 0.2401131987	 0.260959
H	-0.7438436997	 1.7477424211	 0.6589719126	 0.261299
H	-2.4692919204	-0.216489925	 1.8510195396	 0.11327
H	-3.2625619135	 0.5009739934	 0.4003117633	 0.103936
H	-3.9132273271	-2.267693822	 0.9032616252	 0.096703
H	-1.2987109311	-1.7498191847	-2.0391924738	 0.135125
H	-0.9548553709	-2.9489690389	 0.6695187941	 0.120081
