17
gdb 22770	2.164	1.38035	0.93599	2.9809	73.8	-0.2385	-0.033	0.2055	1248.3252	0.133408	-455.081614	-455.072215	-455.07127	-455.116461	33.428	
C	-1.0738329802	 1.2023995092	 0.2166903698	-0.381896
C	-0.2012190127	-0.0226101087	-0.0049064808	-0.033145
N	 0.9943029585	 0.1893126845	-0.8823903688	-0.344704
C	 1.9148018138	-0.4761090349	 0.0804385185	-0.159217
C	 3.1470403414	 0.3580625599	 0.4004269884	 0.188731
O	 4.2561170706	-0.0881792233	 0.5185351634	-0.242866
C	 0.7673338131	-0.4378692489	 1.083887223	 0.377514
N	 0.6144766786	-0.5915388861	 2.3274050205	-0.225163
O	 1.8198922019	-0.9359924197	 2.9518773566	-0.38236
H	-0.4647445201	 2.0527847264	 0.5333574961	 0.125804
H	-1.5931525275	 1.4736689996	-0.7079408981	 0.120086
H	-1.8239279301	 0.9990575246	 0.9869678409	 0.130574
H	-0.8215079312	-0.8736325956	-0.3250280963	 0.093237
H	 0.9460583948	-0.2594694681	-1.7896926853	 0.22951
H	 2.234520416	-1.4966457357	-0.167301799	 0.107698
H	 2.9253801789	 1.4438805666	 0.4923594566	 0.082456
H	 1.5668143142	-0.9976596199	 3.8795875046	 0.313743
