17
gdb 22899	2.82325	1.34218	1.01275	1.918	73.72	-0.2184	-0.0703	0.1482	1172.332	0.135798	-455.11103	-455.102309	-455.101364	-455.144735	32.174	
C	 0.0522570796	 1.4812530766	-0.2381633902	-0.375434
C	-0.0884787599	-0.0139117781	 0.0779338668	-0.102641
N	 0.3681352442	-0.8641793147	-1.0390185204	-0.303826
C	 1.7969417589	-1.1548593609	-0.7969676648	-0.262728
C	 1.9573995041	-1.1576425978	 0.7088878802	 0.284694
N	 2.9380582046	-1.7459612846	 1.2795612558	-0.21039
O	 2.9055535707	-1.6807819902	 2.6588718255	-0.34738
C	 0.7895963661	-0.3963894403	 1.2854231321	 0.333953
O	 0.5751763741	-0.1213021161	 2.4390100143	-0.308429
H	 1.0873354805	 1.7406649611	-0.4836818383	 0.120596
H	-0.5733213163	 1.7409543082	-1.0956010269	 0.128452
H	-0.2517659732	 2.0779227513	 0.6262890954	 0.136262
H	-1.1339905295	-0.2317312187	 0.3147156899	 0.103209
H	-0.142758947	-1.740271539	-1.0061604532	 0.227675
H	 2.0904327303	-2.1012274793	-1.2547450681	 0.131114
H	 2.4140753197	-0.3686973092	-1.2515215957	 0.129695
H	 3.6959636031	-2.175118668	 2.9063141277	 0.315178
