16
gdb 56356	5.96905	0.65299	0.62195	4.508	81.19	-0.2611	-0.0456	0.2156	1713.7503	0.122431	-396.903722	-396.893909	-396.892965	-396.93937	34.733	
N	 0.0272058274	 1.2584187539	 0.5887775353	-0.550596
C	 0.1190721727	-0.0510534543	 0.1602047266	 0.254594
N	 1.1433230493	-0.7133834176	-0.212317356	-0.251878
C	 2.435180533	-0.0565201676	-0.257616384	-0.187233
C	 3.1600244284	-0.1731116165	 1.1073989698	-0.345513
C	 4.4780392903	 0.4446661383	 1.0820481098	 0.294169
C	 5.5583588639	 0.9686533385	 1.0271101864	-0.437825
C	-1.1533911086	-0.7542956159	 0.1995311442	 0.27674
N	-2.1822619113	-1.2793796548	 0.2310696354	-0.314806
H	 0.798145811	 1.8736967329	 0.3820978293	 0.271157
H	-0.8822482161	 1.6920533378	 0.5687723901	 0.276645
H	 3.0420775575	-0.5564978789	-1.0172038327	 0.132095
H	 2.3845886134	 1.0055603911	-0.5481408773	 0.092932
H	 2.5430693924	 0.290411947	 1.8869829525	 0.137371
H	 3.2385587753	-1.2348069239	 1.3668098952	 0.152724
H	 6.5179847314	 1.4221257001	 0.9947494855	 0.199424
