17
gdb 7985	3.55123	1.71976	1.25634	2.8907	65.76	-0.266	0.0212	0.2871	970.1869	0.142743	-401.027851	-401.020106	-401.019162	-401.059835	29.282	
C	-0.0745926238	 1.5005616109	 0.135239291	-0.398713
C	 0.0145802118	 0.0138825226	-0.1492266663	 0.122967
C	 1.0994812532	-0.4189502547	-1.1460731455	-0.261359
C	 1.4232389933	-1.8358822735	-0.663242372	 0.069846
O	 2.7087122511	-2.2903466361	-0.9822517756	-0.441369
C	 1.2130304324	-1.6932815029	 0.833182171	 0.389234
N	 1.8117104146	-2.4208382529	 1.6738294009	-0.569758
O	 0.3572886208	-0.6783938849	 1.090266191	-0.246866
H	 0.8896404311	 1.8843877271	 0.4812158804	 0.130271
H	-0.3563363546	 2.0381587187	-0.7755523493	 0.125768
H	-0.826495057	 1.7058457478	 0.9019559689	 0.132837
H	-0.9660613436	-0.3667621064	-0.4639948401	 0.093595
H	 0.7603665179	-0.3696511115	-2.1822981909	 0.115415
H	 1.9937528259	 0.2041579544	-1.0376458474	 0.120641
H	 0.6566661448	-2.5339388068	-1.0447958597	 0.092141
H	 3.0246972306	-2.7452452159	-0.1868803693	 0.296843
H	 1.5863588114	-2.1697582959	 2.636028973	 0.228507
