20
gdb 108691	2.26802	1.28791	0.84346	5.7802	89.42	-0.2008	-0.0252	0.1756	1374.449	0.17135	-403.18417	-403.174721	-403.173777	-403.21877	34.063	
C	-0.5912421374	-0.7600961762	 1.1569436236	-0.330512
N	-0.0702062374	-0.0828768804	-0.0153284161	-0.375104
C	 0.6868396432	-0.67530619	-0.974790387	 0.332344
C	 1.4014436464	-0.0764250074	-1.9798102925	 0.122654
C	 1.997427675	-1.1104922829	-2.9106687858	-0.297266
C	 1.8980992628	-2.4195194099	-2.0950983063	-0.218999
C	 0.7482096771	-2.1845516041	-1.0903904757	-0.304505
C	 1.5623668774	 1.336632362	-2.1859411817	 0.037783
O	 2.1705107507	 1.8489131232	-3.1113435149	-0.306213
H	-1.115748235	-1.6763178094	 0.8733111422	 0.145145
H	 0.1872811328	-1.0202047205	 1.8884220002	 0.128889
H	-1.3130765104	-0.1038059221	 1.6482625015	 0.136486
H	-0.0335885852	 0.922475251	 0.0346731597	 0.252142
H	 1.4254708465	-1.1752953948	-3.8465772747	 0.104648
H	 3.0240087813	-0.8657454152	-3.1975362492	 0.116398
H	 1.7339512585	-3.3041394055	-2.7151703718	 0.099647
H	 2.8290396007	-2.5780382354	-1.5414044005	 0.108099
H	 0.9151749313	-2.679350998	-0.1280746195	 0.111805
H	-0.2133351263	-2.5591332657	-1.4704034643	 0.12216
H	 1.0913476979	 1.9933142913	-1.4107998672	 0.0144
