22
gdb 103946	3.11289	1.07475	0.9576	2.2262	82.6	-0.2379	0.0658	0.3038	1342.8125	0.192886	-404.313862	-404.304285	-404.303341	-404.348178	36.965	
C	-0.5752062146	 1.2413409209	 0.0990159961	-0.410933
C	-0.0749573165	-0.1989485111	 0.2491809525	-0.217938
C	 1.0798990705	-0.3636386741	 1.2430936243	 0.422457
O	 2.2159417378	 0.3922524132	 0.8681606691	-0.48831
C	 0.647650513	-0.2439153321	 2.7495682733	-0.377794
C	 0.7242126804	-1.7721912543	 2.8360319958	 0.369012
C	 0.7888951101	-2.6423086761	 4.0245433365	-0.311471
N	-0.4038576787	-2.6544315779	 3.1453884813	-0.358674
C	 1.4606231029	-1.8480122155	 1.4964535106	-0.328972
H	 0.2012980285	 1.8989086134	-0.3088793882	 0.111448
H	-1.4233959048	 1.2897398321	-0.5898469793	 0.122571
H	-0.9043364896	 1.6604287718	 1.056488415	 0.118214
H	-0.9007505133	-0.8465645337	 0.5672420116	 0.107179
H	 0.262701293	-0.5747588409	-0.724372747	 0.104451
H	 1.9591412235	 1.3189369124	 0.815717764	 0.275702
H	 1.4216787208	 0.2554568209	 3.3393498786	 0.105503
H	-0.3231401749	 0.2166062023	 2.9612295471	 0.090719
H	 1.3783822286	-3.5554772479	 4.00294864	 0.117593
H	 0.7094266051	-2.179593578	 5.0056958666	 0.108014
H	-1.1503933414	-2.1187062314	 3.5837061977	 0.224577
H	 1.0885764518	-2.5834141911	 0.7793943657	 0.106437
H	 2.5426339877	-1.9531357229	 1.6102295389	 0.110218
