23
gdb 120065	5.29869	0.80447	0.79763	0.0905	90.81	-0.2797	0.0905	0.3702	1579.1213	0.206368	-351.08565	-351.077094	-351.076149	-351.119296	33.403	
C	-0.0588120389	 1.5966215561	-0.0835300503	-0.379461
C	 0.0955930647	 0.0737075258	-0.0560691765	-0.157602
C	 0.5571966012	-0.4630084407	 1.3055455504	-0.206781
C	 0.6962091671	-1.9795896972	 1.3361589128	 0.000855
C	 1.9267237347	-2.6582207716	 0.6862583178	-0.040242
C	 2.8580691299	-2.3546870431	 1.9148623754	-0.039879
C	 3.3061968661	-3.8245430634	 2.0306786431	-0.266979
C	 1.8209570832	-3.9048985423	 1.6312290752	-0.041916
C	 1.4362286308	-2.6632581523	 2.5079045998	-0.060727
H	 0.8900691437	 2.0949686048	 0.1448194558	 0.112509
H	-0.3915831355	 1.948939709	-1.0650511423	 0.109276
H	-0.7928277008	 1.9328833702	 0.6574579938	 0.112395
H	-0.8600062068	-0.3966922857	-0.3235449478	 0.092895
H	 0.8111434737	-0.2366361069	-0.8285241689	 0.096126
H	 1.51345273	 0.004948491	 1.5747864735	 0.088936
H	-0.1610921022	-0.1511574142	 2.0772039725	 0.088304
H	-0.2589238436	-2.4577486829	 1.0764212721	 0.054898
H	 2.236947795	-2.6787649226	-0.3607095317	 0.063557
H	 3.4459489135	-1.450564419	 2.0766679203	 0.068583
H	 4.0356392839	-4.1772284191	 1.2938047096	 0.088583
H	 3.5689233891	-4.1829880775	 3.0316448633	 0.088633
H	 1.1941140063	-4.7819490778	 1.4599178832	 0.065348
H	 1.1765226449	-2.6847931306	 3.5687549489	 0.06269
