14
gdb 34361	3.08851	1.63506	1.34057	3.9662	65.43	-0.2754	-0.0196	0.2559	932.4022	0.100935	-436.613154	-436.606337	-436.605392	-436.644419	26.277	
N	-0.0235312836	-1.1442015246	-0.016313032	-0.326323
C	 0.0028895845	 0.0115548715	-0.0281862579	 0.219515
C	 0.0440273862	 1.4594166911	 0.0026965368	 0.32623
O	-0.4168823713	 2.1133741715	-1.1812965905	-0.313099
C	 0.7873428822	 2.9314955457	-1.2589619379	-0.091538
C	 1.3590853354	 2.293111764	 0.0264951721	-0.196578
C	 0.8974635036	 2.9073126539	 1.3709766635	 0.02649
O	-0.3685455	 3.5315285865	 1.1515913347	-0.215909
C	-0.3577586145	 2.1302383741	 1.3685304953	-0.054729
H	 1.3519812416	 2.7013025119	-2.1675471594	 0.121172
H	 0.5540749775	 3.9969531929	-1.2072042628	 0.131722
H	 2.3374070947	 1.8197971826	 0.006711086	 0.119318
H	 1.503968185	 3.2755723699	 2.188854172	 0.125017
H	-0.9786462413	 1.724345369	 2.1584062102	 0.128713
