16
gdb 124924	2.3285	1.84376	1.04216	2.8852	78.84	-0.2392	-0.0736	0.1656	1102.9213	0.122169	-434.036421	-434.027571	-434.026627	-434.070483	31.717	
C	 0.0843136129	 1.5276874915	 0.1670420921	-0.473639
C	-0.0686090783	 0.0385613023	 0.1357653095	 0.331643
C	-1.1969303943	-0.6854410947	-0.043692752	 0.092523
C	-2.5744055038	-0.129781226	-0.2554934029	-0.48485
C	-1.069665829	-2.1287185566	-0.0311811117	 0.335727
N	-2.0524085945	-2.9287836203	-0.1884593058	-0.501444
N	 0.2489914756	-2.6638668056	 0.1717097977	-0.160391
N	 1.2583683	-1.9974553718	 0.3323806561	 0.044891
O	 1.1430771245	-0.5451301846	 0.3216393968	-0.291723
H	 0.7830021069	 1.8448635543	-0.6140715826	 0.155688
H	-0.864139586	 2.0412558814	 0.0215766867	 0.144178
H	 0.5113487315	 1.8362510916	 1.126907764	 0.155686
H	-2.981532892	-0.4919364157	-1.2053257358	 0.151064
H	-3.2507016429	-0.5010997205	 0.5215708121	 0.151073
H	-2.6006208435	 0.9597465296	-0.253789843	 0.118396
H	-1.7186337071	-3.893390385	-0.1412992911	 0.231181
