20
gdb 58052	2.1619	1.37084	0.92932	1.3894	80.52	-0.2471	0.0394	0.2864	1296.0244	0.169013	-403.083721	-403.073722	-403.072778	-403.118821	37.068	
C	 0.1175282134	 1.4938911868	 0.0419650068	-0.389175
C	-0.0332961669	-0.0169023281	-0.0655441142	 0.122986
O	 0.7405542174	-0.5857126034	 0.9806651712	-0.431273
C	-1.5286669809	-0.4669030624	 0.0460768825	-0.201989
C	-2.2883120294	 0.0118945794	-1.1044815657	 0.304551
C	-2.8801569868	 0.3826700277	-2.0844584732	-0.453946
C	-1.6299926034	-1.9830408347	 0.2159553666	-0.008515
C	-2.7841576129	-2.7761574639	-0.2598129601	-0.253948
N	-1.472876924	-2.893321533	-0.9312727414	-0.329994
H	 1.167144355	 1.7741052061	-0.0756967919	 0.123889
H	-0.4740910029	 2.0003377052	-0.7239486411	 0.129796
H	-0.2169559044	 1.8341728901	 1.0276143787	 0.123329
H	 0.3407027822	-0.3541531603	-1.0435674268	 0.080177
H	 0.9010205231	-1.5103601306	 0.7685578836	 0.295135
H	-1.9299528692	-0.0070094374	 0.9604578532	 0.1132
H	-3.4145907205	 0.7312131688	-2.9338101344	 0.201904
H	-1.1233176255	-2.3268235767	 1.1139548831	 0.098325
H	-3.0954544258	-3.6565139415	 0.2950058915	 0.116998
H	-3.5788001419	-2.2526726726	-0.7823290451	 0.125383
H	-1.5084961267	-2.3460911795	-1.7906932333	 0.233169
