15
gdb 19276	3.58525	1.83288	1.39367	3.4733	60.44	-0.2537	-0.0238	0.2298	876.5842	0.11914	-399.76768	-399.760466	-399.759522	-399.799337	26.671	
O	 0.0764051487	 1.3906078281	 0.1491703297	-0.416886
C	 0.1209376006	 0.0108405771	-0.1537922235	-0.08601
C	-1.2824754359	-0.590697831	-0.0687353686	-0.148442
C	-1.5666873656	-2.0968700218	-0.0521061794	-0.059195
C	-1.0746150173	-2.7524539931	 1.1685582698	-0.246293
N	-2.3586192915	-1.9875582957	 1.26230888	-0.170692
C	-1.9446946446	-0.5961093485	 1.3145772464	 0.395733
O	-2.1117337196	 0.2202746643	 2.1703738309	-0.31114
H	-0.3695820242	 1.4873468164	 1.0003022367	 0.300217
H	 0.517793014	-0.0774264938	-1.1704865037	 0.117545
H	 0.8103539302	-0.5300672382	 0.5131184992	 0.091181
H	-1.9391312356	-0.0705727811	-0.77451455	 0.12891
H	-1.9893436313	-2.6538636201	-0.8790469905	 0.119278
H	-1.2295564292	-3.8210201243	 1.2743892262	 0.146345
H	-0.2048290187	-2.3708607482	 1.6959777568	 0.139448
