16
gdb 15393	4.1037	1.11737	0.94125	2.4046	68.11	-0.2575	0.0168	0.2743	1223.2267	0.127321	-383.663666	-383.654921	-383.653977	-383.697653	30.509	
C	 0.0821715533	 1.3558986179	 0.193154548	-0.224755
O	 0.0166152972	-0.0506447572	 0.1927159605	-0.235072
C	-1.2463595605	-0.5369530161	-0.2007210485	-0.090801
C	-1.1957947507	-2.0398596341	-0.1636160655	 0.062319
O	-1.5503895296	-2.6858416498	 1.0552767979	-0.237351
C	-2.4195603788	-2.8645202779	-0.0745904838	-0.157438
C	-3.7384013487	-2.2914293913	-0.0061135963	 0.339536
C	-4.8542354614	-1.8453170082	 0.0248058546	-0.43193
H	 1.092493005	 1.6347621993	 0.5011452651	 0.13049
H	-0.1141431172	 1.7740337767	-0.8072693326	 0.103494
H	-0.640029055	 1.7980601794	 0.8970592745	 0.108662
H	-2.0435721115	-0.1780724489	 0.466580562	 0.109567
H	-1.4905838522	-0.202907067	-1.225154076	 0.09292
H	-0.3327669566	-2.474543557	-0.669544994	 0.106163
H	-2.3810238495	-3.863679511	-0.5081416323	 0.119122
H	-5.8385221739	-1.4476876649	 0.0613879864	 0.205075
