21
gdb 101750	4.23552	0.70826	0.70235	3.801	75.46	-0.2462	0.0594	0.3056	1687.7211	0.181568	-461.335187	-461.325344	-461.3244	-461.371034	35.538	
O	 0.0875331465	 1.3723149266	 0.129526624	-0.424421
C	 0.071927383	-0.0375061813	 0.1449466425	-0.063961
C	-1.358419661	-0.5718082296	 0.0506664105	 0.098548
O	-2.0091879959	 0.042229019	-1.0716093295	-0.441371
C	-1.4309144936	-2.0982979424	-0.0093773395	-0.242611
C	-2.8578545599	-2.6152862168	 0.0686763937	 0.169436
C	-3.0787588279	-4.1327903317	 0.2577650119	-0.304764
C	-3.81857328	-3.7179276001	 1.5449969467	-0.057039
O	-3.4648891501	-2.3321083596	 1.3552129613	-0.293941
H	-0.5984512883	 1.6262040175	-0.5021671777	 0.284418
H	 0.6675326417	-0.457363678	-0.6888327782	 0.065629
H	 0.5424099632	-0.3668957947	 1.0780981809	 0.107933
H	-1.9247727562	-0.2190301432	 0.9189885557	 0.122228
H	-1.6035626746	-0.3114959835	-1.8729368415	 0.279519
H	-0.9664870257	-2.455204186	-0.941392852	 0.086571
H	-0.8518300544	-2.5221336841	 0.8206025704	 0.104226
H	-3.4548522162	-2.1736920034	-0.7397610997	 0.083029
H	-3.6765095049	-4.633077095	-0.5052951594	 0.110749
H	-2.1596959601	-4.6993597776	 0.4237956779	 0.108082
H	-4.905633657	-3.8669663914	 1.5224552715	 0.102812
H	-3.4275200586	-4.1163882149	 2.4882736604	 0.104929
