20
gdb 115311	2.94145	1.15983	0.91979	2.2463	75.19	-0.2319	-0.0329	0.199	1313.2409	0.170964	-440.3036	-440.294358	-440.293414	-440.337887	34.48	
C	-0.0741480157	 1.6539363672	 0.1111196868	-0.391209
C	-0.00690578	 0.147519626	-0.1376979045	-0.145873
C	-1.3684519072	-0.5422533216	 0.0618974013	-0.111599
N	-2.3694286554	-0.139430092	-0.9487827744	-0.301132
C	-2.5027665186	-1.2496996006	-1.9153083622	-0.215981
C	-2.3110780388	-2.5271904354	-1.0823081675	 0.059508
O	-1.9233972191	-3.6761176734	-1.7768728882	-0.437698
C	-1.24385077	-2.0602824271	-0.0948708167	 0.360553
O	-0.3993028257	-2.7901276895	 0.363714503	-0.337453
H	 0.8920126849	 2.1286019247	-0.0841855606	 0.114409
H	-0.8216880549	 2.114621042	-0.5407673783	 0.13294
H	-0.3491678876	 1.8716286357	 1.149708897	 0.109063
H	 0.3385880399	-0.0465042555	-1.160392721	 0.102245
H	 0.7139400182	-0.3326903998	 0.5330477547	 0.116943
H	-1.7282289722	-0.3107163111	 1.0727658692	 0.10189
H	-3.2641525007	 0.0270874272	-0.5045109819	 0.226287
H	-3.4647610057	-1.1965244234	-2.4274309983	 0.116577
H	-1.7131035203	-1.1928334093	-2.6744081541	 0.122174
H	-3.236911607	-2.70100869	-0.5004429675	 0.086331
H	-1.2106373344	-4.0739118441	-1.2535272869	 0.292026
