24
gdb 22119	3.69388	0.69391	0.66214	0.6878	89.62	-0.2383	0.0167	0.2549	1826.7257	0.213845	-405.527743	-405.516027	-405.515083	-405.565663	41.729	
C	 0.1340294445	 1.536174554	 0.0517695222	-0.392727
C	-0.0181857369	 0.0119412279	 0.0241148053	-0.163993
C	-1.4719738918	-0.4892194899	-0.0593644298	 0.039307
C	-2.1713886801	-0.0450228858	-1.351360105	-0.387266
C	-1.5041252353	-2.0305125207	 0.0843618245	-0.280144
C	-2.8852136697	-2.6055504454	 0.2578779745	 0.358121
C	-3.6739190208	-2.2993147534	 1.5044915009	-0.46914
N	-3.3186414262	-3.3475627247	-0.6901636	-0.1698
O	-4.6180852112	-3.8208946224	-0.4261842649	-0.402483
H	 1.1828159285	 1.8206953135	 0.1827972194	 0.112357
H	-0.2177305186	 2.0004551555	-0.8743529024	 0.119776
H	-0.4342381041	 1.9748091071	 0.8800254349	 0.112098
H	 0.5487023825	-0.3986785975	-0.8230016123	 0.09436
H	 0.4437780836	-0.4064591368	 0.9278446354	 0.089468
H	-2.0183634046	-0.0574121319	 0.792386844	 0.070731
H	-3.1808946579	-0.4600193102	-1.4195805202	 0.123558
H	-2.2525033957	 1.0436034323	-1.4146696659	 0.111817
H	-1.6156879686	-0.3929125835	-2.2305898426	 0.113646
H	-1.0442094881	-2.4907934868	-0.7962757694	 0.110033
H	-0.8992646015	-2.3138385522	 0.9571082846	 0.097111
H	-4.5194333761	-1.640168724	 1.2779225777	 0.144419
H	-4.0994070522	-3.2183963981	 1.9167747795	 0.14748
H	-3.0515036621	-1.8158650462	 2.2602195864	 0.11732
H	-4.7868638277	-4.3770978308	-1.1935884866	 0.303951
