19
gdb 47821	2.23509	1.93147	1.21592	3.0844	75.48	-0.2267	0.0213	0.248	1046.1516	0.162407	-419.214751	-419.207031	-419.206087	-419.246879	30.546	
O	 0.1437874966	-0.01191569	 0.2158646421	-0.370812
C	 0.029567936	 1.1895973324	 0.0665989768	 0.364936
N	-1.1830366824	 1.8186115571	 0.0042373635	-0.293548
C	-1.3668277078	 3.2604294487	-0.1080416314	-0.162699
C	-0.9415517705	 4.0432571247	 1.1517714075	-0.198656
C	 0.3603876881	 3.5022320312	 1.7546872445	-0.14686
N	 1.3814986836	 3.3225829637	 0.7207064523	-0.09434
C	 2.2831062833	 2.1827051925	 0.912844207	-0.246361
C	 1.2181702371	 2.1218684731	-0.1152273428	-0.125762
H	-1.9830135157	 1.2195196793	 0.1423835195	 0.2479
H	-0.7976767708	 3.6264917217	-0.9684058368	 0.133357
H	-2.4204189945	 3.4446059349	-0.3322912074	 0.113026
H	-0.8244945423	 5.0965556158	 0.8748391961	 0.111202
H	-1.7249939464	 3.9925339565	 1.9163963098	 0.101117
H	 0.7511642828	 4.2023808899	 2.5003363569	 0.108034
H	 0.1465119263	 2.5598408955	 2.2865122763	 0.100693
H	 3.3164644687	 2.3412966024	 0.6194820661	 0.118522
H	 2.146673384	 1.5672239411	 1.7999728548	 0.126076
H	 1.490400494	 2.2668386495	-1.1600956049	 0.114177
