15
gdb 28644	5.87019	1.02606	0.87813	0.7305	87.75	-0.2476	-0.0594	0.1882	1271.9583	0.112625	-379.69383	-379.685771	-379.684827	-379.726924	29.536	
C	-0.045783768	 1.5129202415	-0.0060074734	-0.475102
C	-0.0084975635	 0.0114788271	 0.0158737721	 0.32473
N	-0.2774535369	-0.6350286936	-1.1272087788	-0.29185
C	-0.2418971212	-1.9614997146	-1.0972945827	-0.062014
C	 0.061995488	-2.6815444611	 0.0697621217	 0.15204
N	 0.3322650013	-2.0390071583	 1.2178117815	-0.297899
C	 0.2937992813	-0.7112877941	 1.1762333163	-0.068101
C	 0.0882684753	-4.1079245053	 0.0535683573	 0.230654
C	 0.1004009068	-5.3100295695	-0.0005549784	-0.371336
H	 0.1876848944	 1.9351489266	 0.9742422607	 0.12703
H	 0.6720774256	 1.9017378959	-0.7353039349	 0.147461
H	-1.0356624888	 1.865487404	-0.3129510716	 0.147461
H	-0.4593938612	-2.488920141	-2.022071787	 0.123501
H	 0.5126227182	-0.1905724194	 2.1057866925	 0.112422
H	 0.1148828487	-6.3715858384	-0.0331136954	 0.201002
