17
gdb 51529	3.76836	0.83007	0.76316	6.391	75.45	-0.2641	0.0127	0.2768	1469.4507	0.136651	-418.037399	-418.028664	-418.02772	-418.072199	31.148	
O	 0.6112139915	-0.5563733911	 0.4271382213	-0.310641
C	 0.1909803181	 0.5685054114	 0.2749509587	 0.15348
N	 0.9452988929	 1.6484646947	-0.0864310505	-0.29386
C	 2.3596930447	 1.5793986511	-0.335064947	 0.082034
C	 2.9138788639	 2.1227603194	-1.680137923	-0.257665
C	 4.1356807938	 2.7120058167	-0.8963413815	-0.166688
C	 3.3044703394	 2.5520214762	 0.4219169354	-0.257637
C	 5.3273726346	 1.8793576114	-0.9477468269	 0.27778
N	 6.2734415135	 1.2156027814	-0.987765217	-0.320702
H	-0.8727247527	 0.8435701644	 0.416408483	 0.079848
H	 0.4785415099	 2.5376161774	-0.1814716287	 0.244731
H	 2.6490101757	 0.5398187765	-0.1765147796	 0.146894
H	 3.1209787429	 1.404159125	-2.4736194831	 0.138248
H	 2.2962544366	 2.9327761773	-2.0783158887	 0.108936
H	 4.4126614679	 3.7353897847	-1.1567932888	 0.128047
H	 2.8068608545	 3.4939188641	 0.6695760322	 0.108938
H	 3.8229531526	 2.1755920596	 1.304167604	 0.138257
