18
gdb 109116	3.16407	1.25315	0.91299	1.4823	75.96	-0.2285	-0.0068	0.2218	1244.8809	0.147977	-435.292565	-435.283311	-435.282367	-435.32778	32.703	
C	-0.0070618109	 1.469436279	-0.011545626	-0.354969
N	 0.0024171697	 0.0216974067	 0.0390147421	-0.113239
C	 0.0117305145	-0.8016126011	-1.0892813892	 0.34005
N	 0.011629164	-0.3451581091	-2.2747486303	-0.550695
C	 0.0206176914	-2.214607623	-0.5022803392	-0.279209
N	 0.01598174	-2.0475930614	 0.9525947777	-0.336558
C	 0.0060066869	-0.7835857879	 1.1655012041	 0.355821
C	-0.0014879712	-0.2250495231	 2.5607050324	-0.132926
O	 0.0047462192	-1.2510326088	 3.5121527845	-0.418894
H	 0.8850170398	 1.8914054574	 0.4632903505	 0.136922
H	-0.0172689119	 1.7511502625	-1.065354081	 0.180735
H	-0.8966573227	 1.8793745252	 0.4780012062	 0.136901
H	 0.0187218782	-1.1008660982	-2.9568838299	 0.224077
H	-0.8562608169	-2.7843017934	-0.8313313847	 0.141834
H	 0.9071592528	-2.7715515521	-0.8272238149	 0.141832
H	 0.8747296574	 0.4324341885	 2.6872745821	 0.114563
H	-0.8888360063	 0.4181095385	 2.6834579385	 0.114551
H	 0.0119306559	-2.0783063199	 3.0044553771	 0.299204
