19
gdb 54128	3.0055	1.1232	1.01416	3.7824	76.45	-0.2448	-0.0224	0.2224	1245.4096	0.155629	-423.060779	-423.051219	-423.050275	-423.095747	35.175	
C	-0.1903469046	 1.6268960159	-0.1072109458	-0.487759
C	-0.0739999993	 0.1269814372	 0.1040652698	 0.335107
O	-0.0761301596	-0.3492428851	 1.216943862	-0.301641
C	 0.0945622097	-0.7492561021	-1.1376345862	 0.208878
C	-0.8342494385	-0.3666829424	-2.2925286586	-0.472195
C	 1.609358256	-0.8347025898	-1.5836125205	-0.389175
C	 1.4601902177	-2.3661159114	-1.543668179	 0.407796
O	 2.1170668226	-3.2619182985	-1.9864783328	-0.288678
C	 0.1107824863	-2.2798418526	-0.8326262662	-0.385122
H	 0.551513628	 1.9896851602	-0.825907377	 0.139229
H	-1.1773768967	 1.8707542602	-0.5156413915	 0.149635
H	-0.0677252104	 2.1358167016	 0.8492900117	 0.146593
H	-0.668719025	 0.6603288018	-2.630310237	 0.124865
H	-0.6629386541	-1.0260197273	-3.1498745081	 0.129944
H	-1.8862763891	-0.4668150942	-2.0047291979	 0.12925
H	 1.8745023409	-0.3949960028	-2.5487983006	 0.129773
H	 2.312378305	-0.4780601425	-0.8232667401	 0.139357
H	 0.2018970747	-2.4624989401	 0.2429721137	 0.158982
H	-0.6995900535	-2.8913033078	-1.236982726	 0.12516
