18
gdb 8282	5.56041	0.99746	0.93909	3.7143	69.3	-0.245	-0.0216	0.2234	1257.0451	0.151718	-384.938479	-384.92981	-384.928866	-384.973083	30.329	
C	 0.4742788787	 1.4601861771	 0.2804773444	-0.399268
C	 0.0386975349	 0.0450851438	-0.0347367895	 0.17793
C	 0.5367021054	-0.6239965936	-1.3365268768	-0.323168
C	 1.0548109371	-1.7336362913	-0.3993988443	 0.15106
C	 2.534235474	-2.1073624788	-0.4545852692	-0.294678
C	 2.9429635986	-2.9684621189	 0.7232633031	 0.155003
O	 3.4857099663	-4.0399759159	 0.6282985814	-0.2404
O	 0.7310625952	-0.9464167326	 0.7698169827	-0.315059
H	 1.5511305503	 1.5808148678	 0.1273099255	 0.117732
H	-0.0527137793	 2.1730540284	-0.3632604594	 0.119447
H	 0.2452055293	 1.7075500447	 1.3218273422	 0.131222
H	-1.0474289567	-0.0552348565	 0.1017592665	 0.077827
H	-0.2196171269	-0.9110117588	-2.067945667	 0.112637
H	 1.3330272978	-0.0660986515	-1.8361589261	 0.108397
H	 0.4400602022	-2.6447248331	-0.4321745837	 0.085349
H	 2.7655720212	-2.641300338	-1.3816477164	 0.120194
H	 3.1246959087	-1.1816698573	-0.4194579137	 0.117465
H	 2.6967965831	-2.5311187956	 1.7147915303	 0.09831
