18
gdb 82231	2.47366	2.052	1.51735	2.5008	69.02	-0.2365	0.0608	0.2972	912.33	0.151046	-439.038585	-439.03181	-439.030865	-439.069424	28.357	
O	 0.0296219363	 1.4009244539	 0.0642833543	-0.44249
C	 0.0515111695	-0.0126227858	-0.0087157703	 0.12272
C	-1.3535396576	-0.6132801341	 0.0348047052	-0.059796
N	-2.2841703811	-0.0550457459	-0.9689705977	-0.351622
C	-1.7599718117	-1.4287827228	-1.1367909216	-0.04428
C	-0.6348874811	-1.6271973618	-2.1490514503	 0.089999
C	-0.0008106917	-0.2895097534	-2.5682489786	-0.257167
C	 0.7960895078	-0.5122198608	-1.2679715427	 0.056941
O	 0.5732552043	-1.9488018478	-1.3871560639	-0.301864
H	-0.7103576455	 1.679409264	-0.491029339	 0.292928
H	 0.6076470809	-0.3654039013	 0.8665940387	 0.091585
H	-1.7552650444	-0.850903776	 1.0151620989	 0.094008
H	-3.2369983777	-0.0858256313	-0.6163084546	 0.237403
H	-2.4463873713	-2.2570245666	-0.9869960007	 0.091346
H	-0.8572286254	-2.3861512863	-2.9020865477	 0.075153
H	 0.6344553169	-0.4086908655	-3.4467757564	 0.10649
H	-0.6429336409	 0.5836733017	-2.6625394873	 0.117986
H	 1.8552675226	-0.24660619	-1.2373370663	 0.080661
