19
gdb 92196	3.24695	1.57553	1.34171	1.0162	75.03	-0.2443	0.0602	0.3044	1010.9443	0.159959	-422.94318	-422.935871	-422.934927	-422.974548	29.919	
C	 0.0743075472	 1.5942251685	-0.1181992607	-0.418481
C	 0.0092870112	 0.0959702682	 0.0546607965	 0.01268
O	 0.9502128516	-0.636161082	-0.8250661308	-0.333383
C	 1.0684659558	-1.6650100602	 0.2203607579	 0.143039
C	 2.2678504446	-2.3229712048	 0.9450069111	-0.31485
C	 2.0497026316	-1.5211289981	 2.2886160378	 0.05432
C	 2.0797940338	-0.0868869391	 1.7533491792	-0.251984
C	 0.7319722235	-0.6061783983	 1.2236494171	 0.38057
O	 0.5762043958	-1.3642261185	 2.4688935845	-0.374436
H	 1.0814757118	 1.9707390047	 0.0766250335	 0.128496
H	-0.2046082281	 1.8687476013	-1.1399357713	 0.133689
H	-0.625137794	 2.0820603298	 0.5686074835	 0.127292
H	-1.0082242658	-0.286781632	-0.1043095624	 0.088271
H	 0.2589250314	-2.3887738318	 0.0750039814	 0.084408
H	 2.1377442554	-3.4023577202	 1.0407414805	 0.111705
H	 3.2589612871	-2.1206700031	 0.5333869586	 0.121713
H	 2.5495948716	-1.8537115744	 3.1972068791	 0.088015
H	 1.9297316301	 0.6554391428	 2.5381208856	 0.110471
H	 2.8582854655	 0.2073222974	 1.0473512091	 0.108468
