16
gdb 50173	4.47369	1.2689	1.21739	4.8899	72.19	-0.2458	0.0134	0.2592	1032.3867	0.123818	-437.760356	-437.753284	-437.75234	-437.792291	27.493	
O	-0.0255467311	 0.0255080482	-0.1615904808	-0.319222
C	 0.02221254	 1.2161564916	 0.0512905257	 0.146961
N	 1.16998708	 1.9175734376	 0.2653052337	-0.059405
C	 2.5459125895	 1.4845449171	-0.1487457664	-0.268337
C	 2.6729369771	 2.9076133688	-0.7235591405	 0.323228
C	 3.0706470878	 4.3791130413	-1.0044295447	-0.308428
C	 1.5118008153	 4.1610216816	-1.2470320794	 0.016587
O	 1.8305307425	 2.9439341388	-1.9630457053	-0.314386
C	 1.4633481535	 3.3611610382	 0.100760789	-0.033131
H	-0.8712373948	 1.8686824759	 0.1256160951	 0.07301
H	 3.1792590573	 1.2534716582	 0.7115756606	 0.130774
H	 2.5578388857	 0.6750668214	-0.8797661867	 0.160282
H	 3.3962924616	 4.9785912658	-0.1510946545	 0.114722
H	 3.6360028875	 4.5764342058	-1.9152430393	 0.129396
H	 0.8044966789	 4.8576319974	-1.7037026854	 0.108287
H	 1.570807689	 3.9062261422	 1.0392082589	 0.099661
