23
gdb 120960	3.40545	0.90148	0.88406	1.812	84.93	-0.2544	0.0895	0.3439	1482.7849	0.206678	-388.295971	-388.286918	-388.285974	-388.330142	34.622	
C	-0.3213858079	 1.5655125028	 0.3948011514	-0.37899
C	-0.1037176522	 0.0800006529	 0.0922822017	-0.171758
C	-1.4118293944	-0.7194615454	 0.0691827531	-0.168008
C	-1.2354045163	-2.2127341558	-0.2604455872	 0.00455
C	-0.5570368168	-3.0214314063	 0.8888935451	-0.255151
C	-1.6935935385	-3.7115259629	 1.6137052356	 0.057127
O	-2.7757487548	-2.8315910047	 1.9582251878	-0.256455
C	-2.9047061638	-3.6559259317	 0.7891173465	 0.058052
C	-2.5972402024	-2.9324865942	-0.5043938151	-0.268508
H	 0.6247507135	 2.1159883955	 0.4019860256	 0.108365
H	-0.971921511	 2.0311146824	-0.3540168292	 0.112011
H	-0.7951952628	 1.7036858823	 1.3729042079	 0.11632
H	 0.4019008225	-0.026779881	-0.8773092949	 0.089163
H	 0.583081625	-0.3413315218	 0.8372931575	 0.09521
H	-1.9299245869	-0.625212925	 1.0300490366	 0.116523
H	-2.0755467587	-0.2740639523	-0.6847889423	 0.084013
H	-0.6222140344	-2.2814920405	-1.1659139591	 0.068033
H	 0.1231523577	-3.7853586663	 0.492894271	 0.098323
H	 0.0308169178	-2.3844997342	 1.5570087328	 0.10911
H	-1.4992465159	-4.5074538152	 2.3289920761	 0.089066
H	-3.6895179262	-4.4072600393	 0.8370594023	 0.089408
H	-3.3882530624	-2.2307941728	-0.7888734944	 0.10612
H	-2.5169572812	-3.6743147064	-1.3086455788	 0.097477
