18
gdb 38033	3.61212	1.56871	1.25428	1.7029	76.47	-0.2265	-0.001	0.2255	1000.6926	0.150618	-401.913806	-401.907005	-401.906061	-401.944956	27.458	
C	 0.0986639153	 1.5035369107	 0.0168288493	-0.24073
C	 1.3398862306	 0.6742456592	-0.0123524063	-0.051522
C	 1.9253479674	 0.4372188552	 1.3461725563	-0.262406
C	 1.0718589009	-0.2870855667	 2.066397456	 0.287068
C	 0.7531048779	-0.5681692439	 3.5005555151	-0.165633
O	-0.6732535181	-0.7716582799	 3.513786356	-0.272634
C	-1.2454422928	-0.3716484185	 2.2608632316	-0.094565
C	-0.1370011708	-0.6703459899	 1.2427316564	-0.04319
N	-0.0113146992	 0.0407690896	-0.0422546016	-0.129188
H	-0.1198234621	 2.0270027246	 0.9441976236	 0.114493
H	-0.2496745554	 1.9994887107	-0.8851224208	 0.118745
H	 1.9453269809	 0.6110349701	-0.9122824641	 0.097983
H	 2.8461241517	 0.8986033734	 1.6818443204	 0.105762
H	 1.2251420357	-1.4808629242	 3.8867033824	 0.118004
H	 1.029153926	 0.2614696307	 4.1661378884	 0.111415
H	-2.1571230202	-0.9572972758	 2.122459466	 0.115272
H	-1.5077209781	 0.6970962627	 2.2631766251	 0.094729
H	-0.1520354198	-1.7465049179	 1.0227418462	 0.096396
