21
gdb 90848	2.9118	1.74953	1.44124	0.3395	85.08	-0.2196	0.0179	0.2375	999.6614	0.185894	-349.964643	-349.957515	-349.956571	-349.99567	30.383	
C	-0.1212564445	 1.5663508926	-0.0180526357	-0.416099
C	 0.0553623942	 0.0493746492	 0.008039928	 0.068825
C	 0.8790434563	-0.5310703441	-1.1745131777	-0.245007
C	 1.3793359724	-1.8834844871	-0.666920311	-0.048071
C	 2.5330842073	-1.9525520508	 0.3493194473	-0.084921
C	 3.1027424543	-0.6727683481	 0.8618491645	-0.081033
C	 2.1552154492	 0.0899057953	 1.4126909745	-0.081064
C	 0.779401493	-0.5426009191	 1.2592154576	-0.107034
C	 1.0944425911	-1.9899348059	 0.8084974815	-0.079764
H	 0.845595738	 2.0801126056	-0.0216179098	 0.116157
H	-0.665999968	 1.8809157022	-0.9147936726	 0.111541
H	-0.6868614235	 1.9188693406	 0.8516425326	 0.108361
H	-0.9384228708	-0.4181164943	-0.0205606924	 0.067394
H	 0.2678662284	-0.6464656163	-2.0745097411	 0.091965
H	 1.7043607158	 0.1431141257	-1.4310072612	 0.0995
H	 1.2626248175	-2.7531048567	-1.3048284973	 0.079107
H	 3.1419996503	-2.8503217579	 0.3321380936	 0.078055
H	 4.1508458582	-0.4118395327	 0.7687283158	 0.089725
H	 2.3035814086	 1.0860461519	 1.8130991947	 0.091411
H	 0.1606941394	-0.4697494408	 2.1587417511	 0.062629
H	 0.6374661729	-2.8531767195	 1.2764234077	 0.078323
