25
gdb 111802	2.64411	1.2872	1.2342	0.093	90.75	-0.2823	0.0749	0.3572	1228.5262	0.232974	-352.388952	-352.380488	-352.379544	-352.421866	34.361	
C	-0.0180320363	 1.5829343231	 0.0163787852	-0.382493
C	-0.0030817929	 0.0524109756	 0.1062744254	-0.216203
C	-1.3921057466	-0.5772351202	-0.0273664092	 0.061973
C	-2.0888473122	-0.5153830983	-1.4134189391	-0.004411
C	-1.2102824334	-1.4535582806	-2.2743886038	-0.209584
C	-0.7846197201	-2.5660745636	-1.2629262656	-0.208584
C	-1.4712650891	-2.123733835	 0.0514221976	-0.016117
C	-2.9909557753	-2.3570627608	-0.0991186639	-0.214843
C	-3.4189470192	-1.2441584183	-1.1131037001	-0.213445
H	 0.9846340322	 1.9979524774	 0.1599645187	 0.109076
H	-0.380939742	 1.9248125084	-0.9584981533	 0.116928
H	-0.6707430004	 2.0179351168	 0.7816880947	 0.112008
H	 0.6785661826	-0.3459627187	-0.6534425808	 0.096496
H	 0.4211171629	-0.2455737287	 1.0743260353	 0.090902
H	-2.0407382399	-0.1285120619	 0.7378486435	 0.053959
H	-2.2247939191	 0.4791600611	-1.8436024244	 0.050935
H	-1.764766005	-1.8509473991	-3.1298032768	 0.089941
H	-0.3398819899	-0.9274316251	-2.6775069995	 0.092389
H	-1.1112859122	-3.5635919195	-1.5717543465	 0.089667
H	 0.3024868434	-2.6083720382	-1.1505658404	 0.092793
H	-1.0414996655	-2.576623775	 0.9483072805	 0.048107
H	-3.2182521288	-3.3654176408	-0.4581132173	 0.08972
H	-3.5019574166	-2.2330021295	 0.8606673811	 0.090367
H	-4.1462841151	-0.5605335095	-0.6642947937	 0.090715
H	-3.8763037816	-1.6517027695	-2.0197424476	 0.089703
