20
gdb 18348	3.38314	2.06054	1.52458	0.1858	79.42	-0.2324	0.0256	0.258	905.7422	0.179183	-311.874307	-311.867073	-311.866129	-311.905448	28.949	
C	-0.8902703049	 1.2850368579	 0.0631829457	-0.399202
C	-0.0758680081	-0.0134046	-0.0051296505	-0.027536
C	 0.8017431541	-0.1479278877	-1.2370860701	-0.065148
C	 2.0150821232	-0.6294717647	-0.9654537485	-0.090261
C	 2.2151266969	-0.8989195673	 0.5036375494	-0.057035
C	 3.1147677135	 0.118696409	 1.2632978717	-0.223699
C	 1.8469047362	 0.95876528	 1.5829586065	-0.223093
C	 0.9452872912	-0.235688974	 1.1353713044	-0.01194
H	-0.2498185252	 2.1714017628	 0.0277937224	 0.118038
H	-1.587070463	 1.3488099275	-0.779499997	 0.110723
H	-1.480565236	 1.3319629289	 0.9844679237	 0.111721
H	-0.7992248793	-0.8443364558	 0.001748584	 0.074886
H	 0.4411871945	 0.1086281214	-2.228896463	 0.084645
H	 2.7889205563	-0.821274291	-1.7025018279	 0.086805
H	 2.4171526066	-1.9563623533	 0.7079472825	 0.066009
H	 3.5634433534	-0.3210950634	 2.1584795174	 0.095523
H	 3.903408446	 0.6102122575	 0.6866254975	 0.092627
H	 1.7305606448	 1.2929650649	 2.6164788804	 0.094499
H	 1.7525970711	 1.8296668393	 0.9311377162	 0.10325
H	 0.5175518488	-0.770006722	 1.986400675	 0.059188
