17
gdb 87319	2.16509	1.31955	0.94125	4.9263	74.48	-0.2762	-0.0513	0.2249	1256.1292	0.134236	-418.011174	-418.001774	-418.00083	-418.046117	33.06	
C	-0.0324353838	 1.4030902301	-0.1491140072	-0.409894
C	 0.1249034104	-0.0827723204	 0.0606622304	-0.025178
N	 1.4666324061	-0.6458913455	 0.0375355272	-0.346632
C	 0.7254851568	-0.7021551966	 1.3033721412	 0.204797
C	 1.2457121515	 0.1390520026	 2.4615198819	-0.429518
C	 2.3293891704	-0.5277348114	 3.1866294757	 0.267649
N	 3.1715694445	-1.0730494668	 3.759359952	-0.297207
C	 0.1438607651	-2.0341995771	 1.6639848626	 0.110176
O	-0.0203297089	-2.9164462001	 0.8560617912	-0.265967
H	 0.822757662	 1.9620731173	 0.2360718252	 0.133722
H	-0.1026035814	 1.6130676851	-1.2214344868	 0.139525
H	-0.9465591795	 1.7749502378	 0.3247742682	 0.127619
H	-0.6615702226	-0.692823159	-0.3813483588	 0.115228
H	 1.4466461631	-1.5799049853	-0.3734882394	 0.254274
H	 1.6134513861	 1.0979659706	 2.0911989282	 0.167455
H	 0.4354117009	 0.3532157498	 3.1691916878	 0.156125
H	-0.1365039607	-2.166006821	 2.7302120507	 0.097826
