15
gdb 21075	3.45609	2.05021	1.30383	1.7996	64.51	-0.1942	0.0339	0.2281	894.7797	0.119687	-395.987428	-395.979111	-395.978167	-396.02014	29.304	
C	-0.0458632358	 1.4157084321	-0.0390646933	-0.328727
N	 0.0023548857	-0.0267863304	 0.0168942324	 0.017855
N	-0.0867300047	-0.7590026349	-1.1101524768	-0.279437
C	-0.0328361089	-2.0293250963	-0.7023930612	-0.110711
C	 0.0736224597	-2.1107733215	 0.6971934733	 0.158075
O	 0.1378022656	-3.1896452459	 1.5389480115	-0.460574
C	 0.0880166183	-0.7988298334	 1.1384831041	 0.28155
N	 0.2439615205	-0.2479972968	 2.4213312834	-0.617272
H	 0.5461546375	 1.8215956553	 0.7841042256	 0.151505
H	 0.3719521234	 1.7317298599	-0.9953168931	 0.153497
H	-1.0728719785	 1.7921589855	 0.040342756	 0.129908
H	-0.072750838	-2.8316091637	-1.4257124131	 0.100194
H	 0.396659253	-3.9628067527	 1.0296583329	 0.299098
H	 0.60608478	-0.9555463318	 3.0513501358	 0.256847
H	-0.6316363678	 0.0891020445	 2.8117787824	 0.248191
