23
gdb 93091	2.03321	1.45548	0.90212	1.1568	87.26	-0.2373	0.0188	0.2561	1346.6268	0.206771	-388.30712	-388.2978	-388.296856	-388.340817	36.43	
C	-0.0053633141	 1.5782701801	 0.0716316785	-0.397947
C	-0.0142806184	 0.0436899844	 0.0136576922	 0.023629
C	 0.5348144919	-0.4351338178	-1.350271066	-0.241244
C	 0.2825429873	-1.8856246489	-1.6853433694	-0.060525
C	 0.6407526879	-2.9383523698	-0.9504909269	-0.062364
C	 1.3608355902	-2.8873371491	 0.374328413	-0.270996
C	 0.6739793205	-2.0281794528	 1.4533934767	 0.109944
O	 1.2973428907	-2.2351850543	 2.7201070293	-0.439441
C	 0.7642409169	-0.521424343	 1.2117297835	-0.16302
H	 1.0157268313	 1.9684464439	-0.0169379751	 0.113226
H	-0.5975276657	 2.0104673842	-0.741665226	 0.108085
H	-0.4174744154	 1.9416464583	 1.0185644487	 0.111721
H	-1.0573229985	-0.2936791704	 0.0889624112	 0.072382
H	 0.0962380578	 0.1875036451	-2.1373133688	 0.093593
H	 1.6161215007	-0.2283176109	-1.3757827023	 0.104704
H	-0.2340703657	-2.0748568464	-2.623807904	 0.0841
H	 0.3953405707	-3.9294512351	-1.3247893136	 0.083814
H	 1.4552430806	-3.907839392	 0.7659752394	 0.081932
H	 2.3881652307	-2.5160511027	 0.2498683844	 0.113372
H	-0.3888919966	-2.3180014702	 1.5025981272	 0.06271
H	 1.2632072994	-3.176553168	 2.9174745201	 0.277183
H	 1.8259161845	-0.2518629375	 1.1188698909	 0.093756
H	 0.4073594533	-0.0379572271	 2.1283721571	 0.101388
