21
gdb 106313	2.83874	1.15566	1.00787	0.9586	79.02	-0.2446	0.0545	0.2991	1279.9566	0.1815	-424.188603	-424.178971	-424.178027	-424.222766	36.371	
C	-0.2837323802	 1.5915434032	 0.14489419	-0.413867
C	 0.008798365	 0.0969975091	 0.0769847822	 0.048849
C	 1.0759815875	-0.4522351436	-0.9269381218	-0.303592
C	 1.7451194758	-1.232325945	 0.2164076694	 0.258983
C	 2.2300148571	-2.6483644983	 0.1208100197	-0.180525
O	 3.3715618207	-2.7901215141	-0.7203407239	-0.410836
C	 2.2149573143	-0.2681980295	 1.271780897	 0.045373
O	 2.6745349005	 1.0266360063	 0.9933571657	-0.412798
C	 0.7579867055	-0.5893462465	 1.2330405945	-0.170243
H	 0.6334680948	 2.1649397621	 0.2882095249	 0.140752
H	-0.7699517288	 1.9315843759	-0.7768569142	 0.105045
H	-0.9608928739	 1.8174238599	 0.9766678808	 0.107647
H	-0.9277692237	-0.4462063691	-0.0881828718	 0.073909
H	 0.6550981038	-1.098833659	-1.6998224756	 0.102669
H	 1.7079344987	 0.3012756389	-1.4050169727	 0.091401
H	 2.4239056698	-3.0444791181	 1.1312845968	 0.083408
H	 1.4622111362	-3.2853659676	-0.3331122964	 0.109539
H	 4.0747992608	-2.2517124711	-0.3431893281	 0.27556
H	 2.7341714926	-0.7500148464	 2.103863953	 0.082462
H	 3.5240656757	 0.9558421543	 0.5454390617	 0.283601
H	 0.2751706881	-1.0469291014	 2.0906083485	 0.082663
