12
gdb 27512	2.13893	2.04095	1.0444	4.9597	60.91	-0.2838	-0.0346	0.2492	1027.5341	0.077976	-506.016184	-506.008525	-506.007581	-506.049036	27.39	
N	 0.0602976232	 1.304891601	 0.1127555577	-0.552372
C	-0.0625377559	-0.0182211353	-0.0385440752	 0.530085
N	-1.1844341703	-0.627910947	 0.1563126787	-0.415052
C	-1.2254563258	-1.9799228331	-0.019269831	 0.443347
O	-2.1619034328	-2.7008292999	 0.1143756451	-0.316745
O	 0.0022752102	-2.6122701841	-0.4111298302	-0.25536
C	 1.1529840474	-1.9470318561	-0.605713929	 0.48171
N	 2.2541242105	-2.4357455954	-0.9464016422	-0.535253
O	 1.1074216837	-0.5806596958	-0.4064422168	-0.218341
H	 0.94363683	 1.757225756	-0.044448457	 0.291737
H	-0.749799498	 1.8329517228	 0.3866022284	 0.296133
H	 2.1700519884	-3.4431772234	-1.0639131562	 0.250111
