19
gdb 90999	3.54856	1.564	1.522	1.8003	73.67	-0.2263	0.0921	0.3184	960.4824	0.161735	-423.011342	-423.004563	-423.003619	-423.042184	28.328	
C	-0.1926870894	 1.5302604472	-0.01246693	-0.414516
C	 0.0570279395	 0.0276982255	 0.0141496528	 0.138031
O	 0.8655261346	-0.3743443538	-1.119570808	-0.293102
C	 2.0914395194	-0.8209993046	-0.6016154083	 0.129325
C	 2.0613592596	-2.1336887481	 0.2645234138	 0.049516
C	 3.1333359684	-1.4816293347	 1.1644180294	-0.258338
C	 2.3477366586	-0.1984906164	 0.8015808492	-0.113071
C	 0.877819667	-0.5062258465	 1.1951747096	 0.050766
O	 0.8621083934	-1.9469697564	 1.0351650867	-0.283946
H	 0.7389163916	 2.0950825365	 0.0895186944	 0.117261
H	-0.6563008712	 1.8130447315	-0.9615697685	 0.131196
H	-0.8673443446	 1.8230476387	 0.7993862182	 0.114647
H	-0.8909816478	-0.5186015303	-0.0373514836	 0.091127
H	 2.8789146958	-0.7538579244	-1.3510133704	 0.088604
H	 2.1064101092	-3.148249728	-0.1268255625	 0.081675
H	 3.1548234019	-1.8097506158	 2.2046584646	 0.108442
H	 4.1361547275	-1.483486983	 0.7310024475	 0.103843
H	 2.7226584822	 0.8114399306	 0.9541223048	 0.078533
H	 0.5301868941	-0.225479658	 2.1900713304	 0.080007
