19
gdb 105789	2.65293	1.2566	1.12527	2.4722	71.76	-0.2596	-0.0358	0.2238	1161.0442	0.159308	-460.170681	-460.161883	-460.160939	-460.204631	32.415	
O	 0.1794273398	 1.1879051344	 0.4014526029	-0.428215
C	-0.0093862745	-0.1953370123	 0.1917988051	-0.128805
C	-1.4777342033	-0.552461447	-0.0937341384	 0.177427
C	-1.7233935999	-2.0842347949	-0.1080679093	-0.295082
C	-2.3799567162	-2.3408082403	 1.2560162963	-0.077762
O	-3.1826213312	-1.1974510778	 1.4819100844	-0.235551
C	-2.4326510005	-0.0731915166	 1.0606504257	-0.133862
C	-1.9346053123	 0.0873748094	-1.3850182922	 0.11933
O	-1.2983354162	 0.8915603215	-2.0253277893	-0.279264
H	-0.0028852776	 1.6065570702	-0.4496648294	 0.297553
H	 0.617371763	-0.5696182295	-0.6313806234	 0.100516
H	 0.3144852439	-0.7004584714	 1.1087690955	 0.106027
H	-2.4166488686	-2.3612538429	-0.9094429557	 0.111834
H	-0.7969886587	-2.6456729864	-0.2577047947	 0.114579
H	-3.027295324	-3.2207537031	 1.2784098771	 0.117085
H	-1.614923939	-2.4503066462	 2.0421776097	 0.097037
H	-1.8177418907	 0.3388465556	 1.8722241233	 0.124601
H	-3.1424209991	 0.7013767087	 0.7526630619	 0.116923
H	-2.9515581048	-0.2224488815	-1.7177573793	 0.095629
