14
gdb 25011	5.17235	1.3146	1.05516	0.8239	69.24	-0.2122	-0.0124	0.1998	1037.676	0.104715	-432.934913	-432.92829	-432.927346	-432.966066	25.474	
O	-0.0252963914	-0.0099916217	 0.0040245153	-0.349107
C	-0.0313081081	 1.1936171923	 0.0105302059	 0.407852
C	-1.2781046649	 2.1184768666	 0.0324213357	-0.324251
N	-0.6790093171	 3.4368859072	 0.0313092788	-0.041562
C	-1.0106369649	 4.7682428129	 0.042754451	-0.003324
N	 0.0633844945	 5.5186588613	 0.0320339774	-0.265206
C	 1.1540972765	 4.662165475	 0.0126597659	-0.198013
C	 0.6922728993	 3.3765041232	 0.0122559034	 0.379305
N	 1.0670101215	 2.034461014	-0.0000202513	-0.457962
H	-1.8968733354	 1.9278961782	-0.8493289463	 0.162748
H	-1.8726466983	 1.9183800051	 0.9286172059	 0.162743
H	-2.0324079557	 5.1142025333	 0.0585144836	 0.136471
H	 2.1673478442	 5.0283256381	 0.0007575939	 0.112492
H	 2.0121255697	 1.6901015947	-0.0146440694	 0.277813
