18
gdb 16164	4.2249	1.60829	1.37353	1.4445	72.97	-0.2246	0.0256	0.2503	943.8509	0.154704	-347.795515	-347.788043	-347.787098	-347.827141	28.947	
O	 0.0064914117	 1.3590614262	 0.3774721117	-0.421789
C	 0.0301615837	 0.0142459019	-0.0917167892	-0.187152
C	-1.3781185192	-0.5092052412	-0.0841853662	 0.36216
C	-1.97809341	-1.0740878577	 1.1892505517	-0.307442
C	-1.7309300529	-1.9880011732	 0.0162760922	-0.106724
C	-2.8846883701	-2.2578780501	-0.9509855629	-0.276073
C	-3.224001571	-0.8811176446	-1.4872904209	-0.08195
C	-2.3875612036	 0.0543283483	-1.0332697231	-0.136712
H	 0.8819258292	 1.7355377487	 0.2467425069	 0.2854
H	 0.4414904314	-0.0347692443	-1.1127204439	 0.085877
H	 0.6631574098	-0.6201526197	 0.5497328126	 0.080122
H	-1.316601086	-1.1844032359	 2.043148736	 0.107684
H	-2.9967089965	-0.794996661	 1.4382085178	 0.110641
H	-0.9499957842	-2.7336352692	 0.116738864	 0.081308
H	-2.5830189351	-2.9390706916	-1.7585356452	 0.104355
H	-3.7415695427	-2.7325598708	-0.4550525085	 0.10841
H	-4.0685167296	-0.7036862852	-2.1439334885	 0.090411
H	-2.4184517349	 1.1107782894	-1.2720936444	 0.101475
