19
gdb 85258	2.50788	1.54768	1.16374	4.9351	76.17	-0.2326	0.0251	0.2577	1114.346	0.160937	-419.230492	-419.222102	-419.221158	-419.263633	32.202	
C	 0.6248231109	 1.4487921771	-0.1857555053	-0.3903
C	-0.0855131109	 0.1113866402	 0.0491007832	 0.030749
C	 0.1130327559	-0.9070246392	-1.1082924965	-0.328128
C	 1.2732078304	-1.7704515739	-0.6418119054	 0.206329
C	 1.7633156443	-2.9932853899	-1.3108230998	-0.286391
N	 2.5999969982	-1.7818342354	-1.3005591937	-0.339592
C	 1.3223657866	-1.6410977852	 0.8693245584	 0.40591
O	 1.9779263312	-2.3028870449	 1.6418320361	-0.382542
N	 0.4616043795	-0.6222652371	 1.186063365	-0.327914
H	 1.6864273443	 1.2904727574	-0.4016125766	 0.13508
H	 0.172221561	 1.9830447823	-1.0277716175	 0.118451
H	 0.5513831566	 2.0912432534	 0.6977922207	 0.117725
H	-1.1533773481	 0.2969041378	 0.2106161318	 0.08662
H	-0.7901426047	-1.5151560292	-1.2226162739	 0.119477
H	 0.301907212	-0.4069006563	-2.0624368152	 0.105336
H	 2.1401167178	-3.8016517647	-0.691163275	 0.142695
H	 1.2815315186	-3.2934441431	-2.2382287639	 0.109847
H	 2.5187283255	-1.3086440051	-2.1988385468	 0.227681
H	 0.4284271607	-0.2676684741	 2.1294316346	 0.248966
