19
gdb 80410	2.48855	1.74739	1.30964	2.591	75.1	-0.227	-0.0161	0.2109	1042.7657	0.158398	-423.034435	-423.025948	-423.025004	-423.067185	32.525	
C	-0.0368557117	 1.5401100548	 0.0127162015	-0.414223
C	 0.0364908089	 0.0152713015	-0.0453698324	-0.099655
C	 0.9916030111	-0.5620940101	-1.1119682436	 0.065902
C	 1.1742594868	-2.0406578723	-0.7167641659	-0.291002
C	 1.9430817477	-1.3412946596	 0.4378638939	 0.293847
C	 3.058515616	-1.9300793498	 1.2429207799	-0.504473
O	 2.3049490878	-0.2760699394	-0.5208492116	-0.330197
C	 0.7939242143	-0.6043508413	 1.1550944627	 0.417387
O	 0.5770094205	-0.5021303867	 2.3309954502	-0.33966
H	 0.9686425469	 1.968136183	-0.0217474024	 0.136976
H	-0.615942038	 1.9403140902	-0.8254663323	 0.114228
H	-0.5138632836	 1.8602522072	 0.9434254375	 0.136274
H	-0.9700490445	-0.415591808	-0.1069380227	 0.094926
H	 0.8906218478	-0.2268725591	-2.1438035516	 0.087258
H	 0.2925694639	-2.6446655189	-0.4845379185	 0.106268
H	 1.8601996758	-2.5698101157	-1.3803164675	 0.117825
H	 3.8143133275	-2.3853616164	 0.5979936444	 0.12713
H	 3.532920393	-1.1558959848	 1.8530844472	 0.143549
H	 2.6620133397	-2.6922188148	 1.9205528111	 0.13764
