22
gdb 79748	2.3247	1.71306	1.33304	1.6176	85.	-0.2199	0.0824	0.3023	1091.1176	0.195481	-367.172964	-367.164562	-367.163618	-367.205227	33.934	
C	-0.0573143455	 1.5566951733	 0.0477137727	-0.437452
C	 0.1093804912	 0.0473561076	 0.0351418675	-0.047068
C	 1.2886881706	-0.8429915689	-0.3618141044	-0.072812
N	 2.693781576	-0.4731261839	-0.4845586354	-0.100982
C	 3.0687877861	 0.9393577219	-0.3136988091	-0.255229
C	 3.1340698665	 0.005851173	 0.8414727767	-0.006179
C	 1.9805093324	-0.1131153557	 1.8429280469	-0.329181
C	 0.82214088	-0.7872357516	 1.0807857717	 0.321617
C	 0.1018358482	-1.9201966735	 1.7773086672	-0.481067
H	 0.6462097073	 2.0698092599	 0.7067129527	 0.124557
H	 0.0412797279	 1.9900331644	-0.9535916404	 0.125827
H	-1.0621310419	 1.8018626056	 0.4089878205	 0.113971
H	-0.8119449927	-0.4334373985	-0.2937240334	 0.081302
H	 1.0372952579	-1.6916351762	-0.9908055263	 0.088501
H	 3.9914957182	 1.2146143955	-0.8193864499	 0.110247
H	 2.3054151018	 1.7025686825	-0.346137194	 0.118832
H	 4.111994672	-0.339023218	 1.1704406784	 0.087572
H	 2.285137774	-0.7569729214	 2.6735822838	 0.105909
H	 1.7005804464	 0.8500660075	 2.2842278345	 0.106828
H	-0.43908307	-1.5675510622	 2.6640402374	 0.115088
H	-0.6307067207	-2.3887364991	 1.1123329278	 0.114294
H	 0.8023981743	-2.6979687126	 2.104224025	 0.115425
