12
gdb 123514	4.18512	1.86429	1.28976	1.881	71.61	-0.2567	-0.1034	0.1534	862.6616	0.081224	-427.850103	-427.844528	-427.843583	-427.880024	21.913	
C	 0.0005426367	 1.2979742893	 0.0095666453	-0.064942
C	 1.2922267496	 1.7922214424	-0.0003919232	-0.104551
N	 2.0782945409	 0.6792798286	-0.0142879713	 0.009443
N	 3.4205384214	 0.5974828467	-0.0279216731	-0.086101
N	 3.9084248534	-0.5912290686	-0.039341944	-0.160264
C	 3.0706212824	-1.6761220709	-0.0371669355	 0.073284
N	 1.7586099829	-1.6657305584	-0.0242268101	-0.29025
C	 1.2132055246	-0.4472950368	-0.0120812761	 0.507547
N	-0.0475901241	-0.0660120807	 0.0024456037	-0.337296
H	-0.9081977049	 1.8822003643	 0.0217521844	 0.139309
H	 1.7072217996	 2.7853853907	 0.00105061	 0.163229
H	 3.5798415976	-2.6333213863	-0.0474976301	 0.150593
