13
gdb 15298	6.15868	0.99411	0.90871	2.0974	60.27	-0.2801	-0.0627	0.2174	1176.6582	0.093486	-398.591132	-398.583323	-398.582379	-398.62438	26.552	
O	-0.42618049	 0.3959490831	 0.732780791	-0.232368
C	 0.3497711217	 0.7946870772	-0.0957170356	 0.135953
C	 1.1165463245	 2.0710420606	 0.057550108	-0.055679
O	 2.2983727204	 2.1987492664	-0.7445576685	-0.224978
C	 1.2214984491	 3.0633461779	-1.0396378893	 0.07424
C	 0.5286225637	 2.9008326792	-2.3857002705	-0.375723
C	 1.1970664985	 3.6753631949	-3.4313884205	 0.264391
N	 1.7264526841	 4.299635043	-4.2461228391	-0.287226
H	 0.5651630015	 0.2331184895	-1.0304430202	 0.098231
H	 1.1912208362	 2.4332253972	 1.081736143	 0.131917
H	 1.3766360045	 4.1001107935	-0.7396607318	 0.13312
H	 0.5066579222	 1.8487953168	-2.6820642964	 0.166348
H	-0.5100001461	 3.2434754208	-2.3068534401	 0.171775
