16
gdb 10510	2.77015	1.74182	1.25324	3.4346	61.9	-0.2693	0.0054	0.2747	977.8848	0.128337	-420.875613	-420.867143	-420.866198	-420.908865	30.124	
O	 0.4033118934	 0.9258250629	 0.5983756555	-0.415808
C	-0.2372695779	 0.3350091855	-0.5221199973	-0.13777
C	-1.428371932	-0.5069287051	-0.1180888712	 0.409453
C	-1.9471822914	-1.56532983	-1.0397590847	-0.315423
C	-1.274327724	-1.956979254	 0.2586270004	-0.316872
O	-2.4199444113	 0.2590385042	 0.5464892077	-0.236238
C	-2.260469379	 0.4483089591	 1.8804078693	 0.140513
O	-2.9617635742	 1.1913365177	 2.4994750974	-0.278574
H	 0.0052089584	 1.7872609327	 0.7537161072	 0.300814
H	-0.5607407622	 1.0972793445	-1.2434953231	 0.11149
H	 0.4992883622	-0.3045714737	-1.0205672974	 0.113165
H	-3.0239936542	-1.6716335186	-1.0962571516	 0.137459
H	-1.4215658754	-1.7314456021	-1.9737096338	 0.122326
H	-0.2795565021	-2.3873885856	 0.2267403617	 0.130402
H	-1.9087813876	-2.3442740395	 1.0473910711	 0.130752
H	-1.4407341626	-0.1539435084	 2.3036092788	 0.104312
