17
gdb 40104	3.31813	1.50172	1.27792	1.0905	66.91	-0.2497	0.05	0.2996	996.4723	0.136687	-458.922041	-458.914869	-458.913925	-458.953945	27.791	
C	-0.5261339947	 1.323576484	 0.0430905836	-0.260964
O	 0.8617550078	 0.9793441945	-0.0723872271	-0.275361
C	-0.078766214	-0.0699863898	 0.0367681396	 0.418485
C	-0.0806423861	-1.130948114	 1.1455274697	-0.356098
C	-0.4608047964	-2.1974408056	 0.0726923931	 0.073623
O	-1.8263498181	-2.5669192639	 0.0043901188	-0.255607
C	-2.4850645716	-1.5927009721	-0.7800187959	 0.012803
O	-1.5507859922	-1.109857043	-1.7228467888	-0.246774
C	-0.3047959879	-1.1306061537	-1.0588457124	-0.01445
H	-0.8133527689	 1.7905469349	 0.9843185146	 0.119006
H	-0.979348017	 1.7452719422	-0.8524123503	 0.128467
H	 0.9119459894	-1.2935851841	 1.5743764516	 0.124044
H	-0.8057598194	-1.0027203651	 1.9523610876	 0.117428
H	 0.1431377777	-3.1043842276	 0.047827095	 0.096933
H	-3.3190756397	-2.0606917528	-1.3093917111	 0.125312
H	-2.8526546878	-0.7687101205	-0.1443189248	 0.089583
H	 0.4950229487	-1.2292706935	-1.7938864732	 0.10357
