11
gdb 728	9.49204	3.5053	2.60151	4.8091	47.65	-0.251	0.0018	0.2527	483.3848	0.086723	-281.476832	-281.471555	-281.470611	-281.50559	18.283	
C	-0.0201059415	 1.5327034337	 0.0466266037	-0.503799
C	-0.0026073618	 0.0431961851	-0.0394020092	 0.330896
C	-0.0666614348	-0.8398324448	-1.0937505768	-0.138028
N	-0.0106496295	-2.1165846972	-0.6193436232	-0.184453
N	 0.0854545389	-2.0839439606	 0.6763474757	-0.1167
N	 0.0910792736	-0.7815575947	 1.0343582949	-0.222149
H	 0.8977244776	 1.9238055617	 0.4994197712	 0.143012
H	-0.1081058786	 1.9615489205	-0.9535966069	 0.150806
H	-0.8654107533	 1.8948541173	 0.6421532051	 0.142806
H	-0.1487562564	-0.6296666087	-2.1480715833	 0.120583
H	 0.1600040759	-0.5429206122	 2.0109264788	 0.277027
