16
gdb 19742	5.22882	2.12612	2.12611	0.	71.83	-0.2187	-0.0206	0.1981	705.9907	0.133295	-309.418066	-309.41272	-309.411776	-309.446951	23.515	
C	-0.0222352414	 1.4848926217	-0.0222355982	-0.103719
C	 1.2696877604	 1.8206860111	-0.0336592424	-0.103722
C	 1.99012685	 0.474352171	 0.0183200154	-0.054033
C	 1.1588754333	-0.4429858026	-0.9722685096	-0.054032
C	 1.5333930493	-1.8651746289	-0.5581868619	-0.103721
C	 1.5317723862	-1.8133774526	 0.7757047762	-0.10372
C	 1.1586193471	-0.3628156205	 1.0773248329	-0.054032
C	 0.0049981402	-0.0415235565	 0.0382463095	-0.054032
H	-0.9023576238	 2.1121951478	-0.0476581569	 0.099852
H	 1.7324416712	 2.7970231027	-0.0710164109	 0.099853
H	 3.0807779182	 0.4393971602	 0.0200031192	 0.057901
H	 1.0815641631	-0.1856324385	-2.0298773764	 0.0579
H	 1.7428923458	-2.6939211459	-1.2200477428	 0.099852
H	 1.7396386573	-2.5882707009	 1.5003443758	 0.099852
H	 1.080699947	-0.0237278753	 2.1115841339	 0.0579
H	-0.9304205438	-0.6030095727	 0.0599130662	 0.0579
