20
gdb 66564	2.2715	2.22908	1.60409	1.8006	81.47	-0.2196	0.0797	0.2993	948.556	0.171211	-365.940663	-365.933002	-365.932057	-365.972101	31.34	
C	-0.0899657044	 1.4660684722	 0.0481308418	-0.518979
C	 0.0554931493	-0.0218380958	 0.054917253	 0.320969
C	 0.2841582703	-1.0007004571	-1.0380331315	-0.121859
C	 0.6336476705	-2.0608155442	 0.0323704384	-0.12704
C	-0.869826499	-2.099341038	 0.435708676	 0.011002
C	-0.5459752483	-1.5926570797	 1.8479010358	-0.291362
C	 0.6751531345	-0.9328738927	 1.151671525	 0.281535
C	 1.9207730365	-0.4867889858	 1.8710902672	-0.513297
N	-1.0853288811	-0.869017079	-0.4376418263	-0.195795
H	 0.8853802681	 1.9626423498	 0.0953210124	 0.117445
H	-0.5983385648	 1.792206598	-0.8637406092	 0.133696
H	-0.6865741799	 1.8061600487	 0.9026884347	 0.121817
H	 0.4790190558	-0.8878205844	-2.0985197962	 0.090136
H	 1.3237716803	-2.8997917908	-0.0159452295	 0.067106
H	-1.571269632	-2.9048907184	 0.2228063202	 0.072429
H	-1.2767031127	-0.9534542854	 2.3533772506	 0.098317
H	-0.2400788347	-2.4116878888	 2.507841141	 0.097368
H	 2.327803313	-1.2881974495	 2.496591634	 0.116991
H	 2.7005224041	-0.1859071769	 1.1617088648	 0.118974
H	 1.7172109045	 0.3716990979	 2.5222689277	 0.120548
