19
gdb 37849	2.60419	2.52545	1.94806	1.7357	76.03	-0.2348	0.0667	0.3015	813.6333	0.164509	-385.866284	-385.860837	-385.859892	-385.895658	25.171	
C	-0.0271742278	 1.5514367185	 0.0697529119	-0.211184
C	 1.5161275323	 1.4223149141	-0.0041447762	-0.0679
C	 1.2983613115	 0.1186201676	-0.85148945	-0.012342
C	 2.2858181043	-0.9426524344	-0.3888125711	-0.2596
C	 2.0779211891	-0.7108217394	 1.0933405006	-0.040358
C	 2.0063663005	 0.8221711342	 1.3718454611	 0.076293
O	 0.8583338571	 0.6090384216	 2.2358455948	-0.286528
C	 0.5559712512	-0.5242262114	 1.3789991777	 0.076293
C	-0.0133962143	 0.0024627147	 0.0033983293	-0.0679
H	-0.4621600624	 2.0246947809	 0.949420663	 0.111271
H	-0.4358504556	 1.9868177979	-0.8453635347	 0.089167
H	 2.1325468704	 2.2399593901	-0.3807777895	 0.057525
H	 1.1572120281	 0.2649817615	-1.9226268895	 0.062712
H	 2.0108216317	-1.9543552056	-0.7082026601	 0.09752
H	 3.3134411519	-0.7451448048	-0.7146295568	 0.09752
H	 2.6302529751	-1.3019455085	 1.8218656258	 0.072137
H	 2.8098184539	 1.3697177174	 1.8663907783	 0.073924
H	-0.0470947276	-1.282346497	 1.8804800102	 0.073924
H	-0.8765379795	-0.5533657274	-0.3659372747	 0.057525
