19
gdb 92375	2.48094	1.85471	1.38764	2.8215	69.58	-0.241	0.059	0.3	973.0801	0.160921	-460.169563	-460.16186	-460.160916	-460.201191	31.497	
O	-0.321994589	 1.42051569	-0.0359120341	-0.455192
C	-0.085143398	 0.0125596586	-0.0165973595	 0.056302
C	 0.5991347304	-0.4949462882	 1.2856355514	-0.253942
C	-0.5235237564	-1.3404302187	 1.9306697348	 0.101483
C	-1.7854021289	-0.5510028421	 1.5772603841	-0.296663
C	-1.4820158017	-0.6472796504	 0.0572591207	 0.394653
O	-2.3994005005	-0.148430142	-0.8668647919	-0.51082
C	-1.2846141964	-2.1656208946	-0.0736764134	-0.108573
O	-0.6668149908	-2.5508144883	 1.1629882694	-0.28087
H	 0.5008344104	 1.8706679356	-0.2465592465	 0.290655
H	 0.4461549677	-0.2903012085	-0.9276613102	 0.072097
H	 1.4901372063	-1.0990229255	 1.0998646082	 0.107353
H	 0.8731854337	 0.3576815614	 1.9150735914	 0.100947
H	-0.3577511408	-1.6190739803	 2.9710490126	 0.076992
H	-2.7088013152	-1.0605159729	 1.8592193584	 0.105884
H	-1.7866104068	 0.4773375814	 1.9435986225	 0.108764
H	-2.2191431254	 0.7986276035	-0.9317172498	 0.286903
H	-2.2511974637	-2.6702067838	-0.1941346288	 0.108304
H	-0.6415491452	-2.4371416753	-0.9204360692	 0.095722
