19
gdb 65344	3.82954	0.9749	0.8996	3.4881	81.01	-0.2573	0.0303	0.2877	1332.064	0.159542	-382.045947	-382.036918	-382.035974	-382.079879	33.498	
C	 0.1943135568	 1.4880458823	-0.1025340334	-0.467717
C	 0.0445722562	-0.0213370013	 0.021504192	 0.153137
C	 1.2784321538	-0.911618225	-0.0542450324	-0.338991
C	 0.5661708859	-0.7590823545	 1.2585058327	-0.053908
C	 1.1323618713	-0.0127152853	 2.4313746975	-0.027493
C	 2.2900628717	-0.5639640768	 3.182257399	-0.237579
N	 2.4315225852	 0.6773711918	 2.4023082929	-0.309885
C	-1.1627570066	-0.5514927377	-0.5644808738	 0.239461
N	-2.1360818218	-0.9681624747	-1.031569146	-0.346204
H	 1.0999983764	 1.8293138553	 0.4025161671	 0.145575
H	 0.2464749616	 1.7853219794	-1.1538998199	 0.137377
H	-0.6583198656	 2.0007784629	 0.3520232612	 0.141306
H	 1.1995276525	-1.8575200279	-0.5763113425	 0.141759
H	 2.2191937781	-0.3934880481	-0.2112580146	 0.123306
H	-0.0434430782	-1.6099512	 1.5508911501	 0.120512
H	 0.3850542536	 0.5339714237	 3.0037419298	 0.107764
H	 2.3500408537	-0.4428240639	 4.2597556916	 0.125713
H	 2.7522668928	-1.4694272594	 2.7974974427	 0.117505
H	 2.9242400827	 0.4713775395	 1.5368596461	 0.228362
