23
gdb 37961	2.41259	1.82807	1.31998	0.1455	87.71	-0.2435	0.0799	0.3234	1071.5641	0.210287	-351.142961	-351.135589	-351.134645	-351.174235	31.48	
C	 0.0538491284	 1.5945028027	-0.1198210648	-0.267841
C	 1.5860552125	 1.5285712257	-0.1272156594	-0.071467
C	 2.1089386694	 0.9237854343	 1.1496631669	-0.000875
C	 1.5387183758	 1.1655958497	 2.5478531085	-0.229786
C	 0.6785150269	 0.0321910219	 3.1326837635	-0.176774
C	-0.7308704349	-0.0742681631	 2.5320899602	-0.186523
C	-0.8131507381	-0.6609430107	 1.1154525542	-0.215989
C	 0.0080311359	 0.0306664232	 0.0252691817	 0.03266
C	 1.5434449295	 0.0113066529	 0.0914588526	-0.096922
H	-0.3919773145	 2.1821981467	 0.6890664995	 0.093697
H	-0.3742345387	 1.9379466262	-1.0637121435	 0.097765
H	 2.2255389138	 2.101225788	-0.7888379677	 0.077934
H	 3.1963146798	 0.8796370596	 1.1387093962	 0.080724
H	 2.3824136491	 1.3439745417	 3.2243557706	 0.090034
H	 0.9525776426	 2.0940965172	 2.5632341718	 0.095901
H	 1.205619983	-0.9246040108	 3.0189248684	 0.090654
H	 0.5792937367	 0.202199511	 4.2120836255	 0.085997
H	-1.3497540061	-0.6988129609	 3.1882731434	 0.087829
H	-1.195505592	 0.9211816109	 2.5477126437	 0.091282
H	-0.4996029861	-1.7144787913	 1.1490793672	 0.090697
H	-1.8685138843	-0.6727382303	 0.8106000866	 0.087171
H	-0.2973222616	-0.3878851583	-0.9396212165	 0.071233
H	 2.158123933	-0.7572030164	-0.3652234885	 0.072598
