21
gdb 117702	3.86123	0.70538	0.69222	3.1892	75.7	-0.2428	-0.0213	0.2215	1678.1696	0.178044	-461.365563	-461.354418	-461.353474	-461.402373	39.53	
C	 0.0987537885	 1.5824519534	-0.0434862694	-0.401137
C	-0.0031708177	 0.0567851357	 0.0623215735	 0.302528
O	 0.6256732733	-0.2783202326	 1.3077498569	-0.456964
C	-1.4628891975	-0.4346368184	 0.0508551861	-0.196971
C	-2.3385212979	 0.1156506989	 1.1725840475	-0.091937
O	-3.5559990961	-0.6173779478	 1.1450778381	-0.422631
C	 0.7655530028	-0.6174544495	-1.1017810207	-0.302559
C	 2.2351513791	-0.2541356186	-1.1483638454	 0.151413
O	 2.8265403203	 0.0556520906	-2.151929155	-0.247358
H	 1.1455036472	 1.898732734	-0.0617562822	 0.13201
H	-0.3821017272	 1.9390825748	-0.9587926658	 0.122837
H	-0.3770489849	 2.062929892	 0.814160055	 0.129096
H	 0.5080126971	-1.2236800679	 1.455464854	 0.279143
H	-1.9240364487	-0.2043514977	-0.9161634741	 0.109343
H	-1.4664655389	-1.5299628759	 0.1382033647	 0.096536
H	-1.8173577825	-0.0000273378	 2.1338074459	 0.097562
H	-2.5233855263	 1.1899666275	 1.0241833371	 0.090078
H	-4.1278240685	-0.2732125196	 1.8373316689	 0.286832
H	 0.7049932332	-1.7084596637	-0.9671642693	 0.109058
H	 0.3159798203	-0.3820310238	-2.0708104863	 0.121451
H	 2.7512589644	-0.3050638734	-0.1661428593	 0.091672
