23
gdb 70721	2.49699	1.51235	1.11369	0.3904	92.15	-0.2235	0.0274	0.2509	1204.4002	0.208074	-351.161906	-351.153371	-351.152427	-351.194608	34.54	
C	-0.1372024187	 1.4816351088	-0.2161810275	-0.457392
C	-0.0566559331	-0.0130798456	 0.0684274769	 0.307832
C	-0.4035885218	-0.4477226961	 1.4920900287	-0.324408
C	 1.0307150714	-0.4534251778	 1.0270622631	-0.043352
C	 1.8836655963	-1.7061994105	 0.9346168478	-0.219058
C	 1.2321132521	-2.9714636484	 0.3731383896	-0.208277
C	 0.9402619037	-2.919993763	-1.1328567759	-0.245109
C	-0.1723125429	-2.0038871656	-1.5719099003	-0.079126
C	-0.5624385127	-0.8305551309	-1.0686766991	-0.101518
H	 0.5146465301	 1.76189838	-1.0513955864	 0.117813
H	-1.1596920965	 1.7773894213	-0.4796049639	 0.113989
H	 0.163944145	 2.0690034886	 0.6566211267	 0.109803
H	-0.7207277868	 0.3106676132	 2.2015859793	 0.102681
H	-0.9125258566	-1.3989915864	 1.5991308494	 0.113629
H	 1.6116172579	 0.3863597406	 1.4045127501	 0.077014
H	 2.7737194151	-1.4782635758	 0.3307080213	 0.09351
H	 2.2563057758	-1.9228042258	 1.9451011676	 0.094936
H	 1.9118800141	-3.8113411171	 0.5613162775	 0.091722
H	 0.3079850152	-3.2016316351	 0.9171965939	 0.099083
H	 1.8678147365	-2.6520593601	-1.663523688	 0.105875
H	 0.698058417	-3.9328015487	-1.4774119613	 0.096327
H	-0.7329808447	-2.362138666	-2.4338977897	 0.079623
H	-1.4048203063	-0.3539102696	-1.5717232198	 0.074403
