15
gdb 20716	5.56254	1.56714	1.23201	2.3516	74.12	-0.2069	-0.0496	0.1573	951.0553	0.120911	-358.86427	-358.857221	-358.856277	-358.895413	26.783	
C	-0.0240708257	 1.4949709003	-0.0345071418	-0.475072
C	-0.0001417677	-0.006721991	-0.0056281066	 0.332418
N	-0.0460719382	-0.6352404679	-1.1426931801	-0.243023
N	-0.024072043	-1.9837254687	-1.1068003299	-0.306138
C	 0.0429205989	-2.8242771093	 0.0099779032	 0.37971
N	 0.0608937145	-4.1087661984	-0.0160606956	-0.561308
C	 0.0922232791	-2.0741805358	 1.2542324574	-0.084086
C	 0.0715441883	-0.7259822045	 1.2450886093	-0.146481
H	 0.8750160205	 1.9131460668	 0.4331861039	 0.132733
H	-0.0796890328	 1.8480227906	-1.0652158953	 0.143734
H	-0.8854288748	 1.8867453444	 0.5191496726	 0.132729
H	-0.0622827642	-2.4076879609	-2.0218969467	 0.260992
H	 0.0197441515	-4.4679961052	-0.9717068052	 0.195093
H	 0.1453118587	-2.6585727806	 2.1646184535	 0.129
H	 0.1081871949	-0.1617460097	 2.1716047611	 0.1097
