19
gdb 81621	3.64709	0.90969	0.84033	1.9154	77.06	-0.2447	-0.027	0.2176	1416.9588	0.157234	-422.96174	-422.953009	-422.952064	-422.996224	32.234	
C	-0.2325730136	 1.5646097983	 0.2498597541	-0.431286
C	-0.1165280383	 0.0518720923	 0.2440487892	 0.032135
C	 1.0630675051	-0.6106921033	-0.5259669402	 0.024149
O	 1.9961861073	-0.0783585095	 0.496007133	-0.307938
C	 0.8504130216	-0.6348169888	 1.2519394468	 0.005073
C	 0.9412790358	-1.8954792415	 0.3456596292	 0.02586
C	-0.1806952144	-2.9229827619	 0.2014081836	-0.339443
C	 0.1086800575	-3.888707381	-0.9296835135	 0.165607
O	-0.6326171984	-4.1080172537	-1.8518206044	-0.234718
H	 0.7494557852	 2.0249520517	 0.3721274189	 0.140417
H	-0.6737237213	 1.922500983	-0.6865622797	 0.118195
H	-0.8814639819	 1.9006228843	 1.0658731626	 0.11595
H	-1.0901824269	-0.4290966092	 0.1214048724	 0.074416
H	 1.3555397014	-0.5073656495	-1.5719525102	 0.098157
H	 0.8875992686	-0.566079114	 2.3406140196	 0.092393
H	 1.9147587701	-2.3813100733	 0.4578647963	 0.091155
H	-0.2267830155	-3.5124885339	 1.1290846843	 0.125731
H	-1.1643802095	-2.4823570352	 0.0310293907	 0.127641
H	 1.096585757	-4.4009490851	-0.8538336028	 0.076503
