17
gdb 83567	2.96283	1.45124	1.21821	2.9442	68.39	-0.2509	-0.038	0.2129	1036.3591	0.136344	-458.938997	-458.931301	-458.930357	-458.972041	29.239	
O	 0.8064509129	 1.3047644164	-0.4771631905	-0.449849
C	 0.4431754512	-0.0270221861	-0.2918874743	 0.165956
C	-1.0787203941	-0.4155978369	-0.1461062836	-0.134773
C	-1.6313103712	 0.218497969	-1.4212360903	-0.110897
O	-0.587367589	-0.15257342	-2.3675243245	-0.299306
C	 0.3051374675	-0.9253993916	-1.5393819691	 0.042927
C	-0.6635845706	-1.828190871	-0.7277330427	-0.103118
C	-0.0997499097	-2.8174515865	 0.2538447434	 0.122692
O	 1.0071875861	-2.7941370081	 0.735462001	-0.249663
H	 0.5642907734	 1.5355067979	-1.3833908798	 0.294433
H	 1.0590736302	-0.4647998028	 0.4896206672	 0.129099
H	-1.6420218897	-0.3002010359	 0.7781614304	 0.08889
H	-2.5921923743	-0.1905536319	-1.7485690763	 0.112686
H	-1.7060465129	 1.3089993451	-1.3531945687	 0.113729
H	 1.1353592912	-1.3014324123	-2.1335303596	 0.097064
H	-1.4439413412	-2.3108295333	-1.322807282	 0.093336
H	-0.81256561	-3.628045392	 0.5268122692	 0.086794
