12
gdb 4309	4.10071	2.00428	1.35749	3.7839	58.46	-0.2843	-0.0818	0.2026	834.834	0.083999	-414.723944	-414.717204	-414.71626	-414.755315	23.798	
C	-0.0245954262	 1.4860762009	 0.0328633134	-0.45702
C	 0.0030514003	-0.0070236645	-0.0228132228	 0.359458
N	-0.0357751	-0.5992611719	-1.1808348041	-0.337776
C	-0.010351562	-1.9704189689	-1.2366616577	 0.455166
O	-0.0385694324	-2.666536392	-2.199182466	-0.310509
O	 0.0593611491	-2.6506247168	 0.041355955	-0.189518
C	 0.0929125425	-1.9228803124	 1.1438735508	 0.160535
N	 0.0700260797	-0.639930771	 1.2104801272	-0.308873
H	 0.869789923	 1.8478875111	 0.5511759697	 0.156624
H	-0.0779481788	 1.9083515025	-0.9693759368	 0.154294
H	-0.8828156229	 1.8125798416	 0.6297667672	 0.156598
H	 0.1449457677	-2.5328521086	 2.0437260041	 0.161021
