12
gdb 3762	4.06675	3.57273	1.92506	2.4733	51.72	-0.2197	0.0147	0.2344	620.2947	0.092139	-356.737615	-356.731384	-356.73044	-356.767779	21.938	
C	 0.0812290786	 1.4124020509	-0.0512331906	-0.326823
N	 0.0822205316	-0.0287634773	-0.0098031206	-0.060308
N	 0.1844690709	-0.7816016498	-1.1585617943	-0.244169
C	 0.1530495814	-2.0092281732	-0.7449087227	 0.064403
N	 0.0354436383	-2.0899046467	 0.6173686865	-0.360964
C	-0.014321016	-0.7903370234	 1.1385198148	 0.476845
O	-0.1155874566	-0.436913234	 2.2951461359	-0.433302
H	 1.0118301582	 1.7888380239	-0.4860003824	 0.141133
H	-0.7631976522	 1.7832215317	-0.6396211548	 0.141131
H	-0.0091404047	 1.7587872944	 0.9796322703	 0.167965
H	 0.2123494991	-2.8683017749	-1.3940797	 0.153688
H	-0.0116410185	-2.9143480417	 1.189765278	 0.280402
