13
gdb 48105	3.01163	1.11311	0.98256	4.6195	65.12	-0.2666	-0.1152	0.1514	1179.9808	0.087542	-452.731293	-452.722855	-452.721911	-452.765605	28.837	
O	-0.1762653983	 0.9988791049	 1.210451492	-0.218791
C	 0.5416661461	 0.707862762	 0.2897525949	 0.090005
C	 1.276507267	 1.7465955269	-0.5651385837	 0.321355
O	 1.9847641795	 1.3722499882	-1.4666684916	-0.262279
C	 1.0348370771	 3.1823731615	-0.212228035	-0.151669
N	 2.1039549752	 4.1232045859	-0.5646525177	-0.290014
C	 0.8472882023	 4.2136813937	-1.3007409263	-0.191561
C	 0.8639680158	 3.8689384806	-2.70342879	 0.357482
N	 0.8143745637	 3.6376667933	-3.8342317993	-0.322122
H	 0.7465713984	-0.3343314789	-0.0285549578	 0.124099
H	 0.4570512874	 3.340463514	 0.6927636428	 0.13563
H	 2.1577266956	 4.8690449874	 0.1247864277	 0.259586
H	 0.1547861901	 5.0180340706	-1.0640887861	 0.148278
