18
gdb 9602	4.77627	1.18926	1.10639	1.5917	75.39	-0.2407	0.0473	0.2879	1110.3652	0.151084	-347.756505	-347.747325	-347.746381	-347.789891	33.813	
C	-0.0998029924	 1.6050241623	 0.0169149991	-0.462391
C	-0.0416994235	 0.091972667	 0.0054759553	 0.348871
C	-1.304420562	-0.5851318602	-0.4786394065	-0.139638
O	-1.5100305163	-0.2231675673	-1.838257831	-0.420358
C	 1.2616586231	-0.587469682	-0.3029116651	-0.308637
C	 0.70963687	-0.6429950879	 1.1167230681	-0.266558
C	 1.3481325638	 0.0697114924	 2.1832773383	 0.329696
C	 1.8797729277	 0.6572872346	 3.0890740075	-0.453652
H	 0.8367239778	 2.0371026245	 0.375924058	 0.125085
H	-0.2972958988	 1.9760281533	-0.9923175654	 0.134168
H	-0.9030882895	 1.9601088053	 0.6728840432	 0.113817
H	-1.2064711194	-1.677558046	-0.3719842306	 0.081328
H	-2.153874649	-0.2666533143	 0.1469038469	 0.090072
H	-2.3826799025	-0.5291784363	-2.1018809771	 0.288249
H	 1.2477956152	-1.5079202714	-0.8762652155	 0.118069
H	 2.1330233027	 0.0361055822	-0.4658486383	 0.123241
H	 0.2843965166	-1.5984483819	 1.4139821185	 0.106481
H	 2.3503847465	 1.1758531256	 3.8867986747	 0.192157
