15
gdb 20358	6.21613	1.38704	1.24594	4.0975	67.09	-0.2362	0.0009	0.2371	960.3198	0.121258	-358.829751	-358.823068	-358.822123	-358.86153	24.89	
C	-0.1694218945	 1.3550306736	-0.3029842985	-0.264722
C	 1.2347363096	 1.0813009987	 0.1554406554	-0.264682
C	 0.2280717241	-0.0501811029	 0.1017686206	-0.08534
C	-0.2943850736	-0.6683306317	 1.3331601757	 0.337114
C	-0.5932763037	-0.1305316307	 2.5676173035	-0.192059
N	-1.034281083	-1.1901139476	 3.2879631519	-0.147863
N	-1.0187406278	-2.3214961318	 2.5661759043	-0.115478
N	-0.5710191835	-2.0075556333	 1.3839004712	-0.260918
H	-0.8322315951	 1.8958016892	 0.3642885344	 0.112358
H	-0.3429231874	 1.5480937662	-1.3557149678	 0.120074
H	 2.0307218529	 1.0853647319	-0.5807711067	 0.120072
H	 1.5336017788	 1.4345523871	 1.13671101	 0.112365
H	 0.3486091465	-0.7716983027	-0.6981616085	 0.104759
H	-0.5339595025	 0.8634799588	 2.9770382026	 0.142924
H	-1.3518746209	-1.2182271347	 4.2435920318	 0.281396
