12
gdb 560	9.92569	2.31264	2.09564	1.1864	46.85	-0.2557	-0.0341	0.2215	583.4738	0.095867	-306.347185	-306.341242	-306.340298	-306.377564	19.531	
O	 0.0224057865	-0.0950034211	-0.1487527168	-0.248231
C	 0.0287338412	 1.093844811	 0.0363484509	 0.162689
C	 1.2583090081	 1.9609420083	 0.0369152547	-0.126951
C	 1.1277058109	 3.2641158451	-0.7968584609	-0.084926
O	 1.1354158192	 4.0888387675	 0.3815126009	-0.262434
C	 1.3496311478	 2.9484324296	 1.2314451725	-0.084937
H	-0.9176882407	 1.6542940724	 0.2277309254	 0.081632
H	 2.1413987461	 1.3520015662	-0.1545214144	 0.105175
H	 1.9820703975	 3.4644771568	-1.4541079675	 0.11623
H	 0.2001091055	 3.3756689392	-1.3724914116	 0.112774
H	 0.568683545	 2.8513632179	 1.996256093	 0.112761
H	 2.3296293029	 2.9701022172	 1.7225606038	 0.116219
