23
gdb 76548	2.42088	1.2403	1.0916	1.3634	85.98	-0.2401	0.0673	0.3074	1280.7927	0.204128	-388.26826	-388.258105	-388.25716	-388.303765	37.944	
C	-0.141898445	 1.4581262352	-0.305952432	-0.40494
C	 0.0879350226	-0.0324436891	-0.1836599779	-0.109925
C	 1.4812565215	-0.5999527523	-0.1264921698	 0.010695
O	 2.5396398921	 0.3132536272	-0.1932146059	-0.418025
C	 0.607218457	-0.6370802084	 1.101074802	 0.32044
C	 0.9260564503	 0.0832862415	 2.4157264431	-0.297077
C	 0.5883390462	-1.2331909612	 3.1776728765	-0.222835
C	 0.1175676584	-1.897302402	 1.8433331698	-0.063809
C	-1.375794445	-2.1949165019	 1.7550199916	-0.392374
H	 0.6605445611	 2.02036361	 0.175723618	 0.132396
H	-0.1720459614	 1.7632786405	-1.3573584159	 0.116726
H	-1.0928098734	 1.7488370758	 0.1541580783	 0.109115
H	-0.6278508454	-0.6461603955	-0.7271258733	 0.0793
H	 1.6637543104	-1.5446680077	-0.6429235425	 0.075818
H	 3.2351624179	 0.0082043349	 0.399016995	 0.286269
H	 1.9538240154	 0.4453217932	 2.5168037866	 0.086403
H	 0.256969354	 0.9170888574	 2.648259355	 0.10251
H	 1.4580968553	-1.7166148951	 3.6289573452	 0.096502
H	-0.1877270511	-1.1448087423	 3.9426730238	 0.096417
H	 0.683196161	-2.8000779961	 1.5833207541	 0.0613
H	-1.9714637829	-1.3126739548	 2.0152787024	 0.112978
H	-1.6656829716	-2.5038555033	 0.7445767616	 0.111847
H	-1.6541270572	-3.0020687961	 2.4418425642	 0.110268
