17
gdb 33970	2.29357	1.81284	1.22612	2.167	80.21	-0.2283	0.0093	0.2376	1040.3149	0.13556	-380.757006	-380.749081	-380.748137	-380.78924	31.13	
C	 0.0193945748	-1.1825208504	 0.0710585447	-0.406981
C	 0.0141937115	 0.0197803151	 0.0084934573	 0.209388
C	-0.0744803097	 1.4398905126	-0.0168185802	 0.092965
C	 0.2573842604	 2.303068244	-1.1814465943	-0.271567
N	 1.1247127505	 2.4090845138	-0.0032301554	-0.16341
C	 0.3684216518	 3.2670441075	 0.9859386773	-0.238984
C	-0.7897060343	 2.2700663662	 1.0375021998	 0.287464
C	-2.2425141693	 2.3643155171	 1.2901426117	-0.314486
N	-1.3284778865	 1.7484375999	 2.2777706394	-0.36357
H	 0.0476939398	-2.2434350229	 0.1145334265	 0.197654
H	 0.741951468	 1.8253810082	-2.0272732343	 0.134885
H	-0.4083051528	 3.1270122009	-1.4337755346	 0.115613
H	 0.9116200194	 3.3207037533	 1.9307543947	 0.131822
H	 0.1623838046	 4.2759451691	 0.6140701741	 0.10982
H	-2.6863691731	 3.3043630196	 1.6067455294	 0.1227
H	-2.8991697733	 1.7211329561	 0.7088451979	 0.118288
H	-1.3851512117	 0.7320121598	 2.2312383059	 0.2384
