18
gdb 48709	3.79986	1.16938	1.03837	2.8511	78.72	-0.245	-0.0329	0.2121	1180.0753	0.146809	-401.897977	-401.88996	-401.889015	-401.930576	30.934	
O	-0.1140371334	 0.0274687664	-0.0645822519	-0.259828
C	 0.0432568744	 1.2151201908	-0.2124402919	 0.076846
C	 1.3095900007	 1.9183884242	 0.0624846646	 0.244998
C	 1.3684481415	 3.3716735465	 0.3762080464	-0.273652
N	 1.8378156099	 2.9680828173	-0.9471850406	-0.193946
C	 3.1852405303	 2.35779709	-0.7299160398	 0.399043
C	 4.1466274344	 2.2382247089	-1.8601348825	-0.336479
C	 4.4400277805	 3.1715753551	-0.6978803221	-0.325189
C	 2.6775685475	 1.2607542373	 0.2103985009	-0.406974
H	-0.7710454616	 1.8758521929	-0.5858578188	 0.079108
H	 0.4367577821	 3.9296076789	 0.3469632924	 0.129349
H	 2.0867771778	 3.7105327541	 1.1197237729	 0.127305
H	 4.7233222904	 1.3235900102	-1.9502506409	 0.119507
H	 3.8550638935	 2.6899785275	-2.8020615169	 0.129765
H	 4.3529625214	 4.2383142588	-0.8761556687	 0.123775
H	 5.2157500408	 2.8924852241	 0.0078177265	 0.119313
H	 3.0883643938	 1.2223375359	 1.222909924	 0.110497
H	 2.7030652359	 0.2618867912	-0.2287029236	 0.136562
