18
gdb 10187	2.98617	1.21579	0.98805	3.5068	69.3	-0.241	0.0259	0.2669	1228.3408	0.153046	-381.118776	-381.109338	-381.108394	-381.153608	32.85	
C	-0.1637577151	 1.5734869871	 0.1817073578	-0.390807
C	-0.2661442777	 0.0812268851	 0.481479742	-0.114058
N	-1.0588040495	-0.5889366707	-0.549851836	-0.279718
C	-1.2423203991	-2.0198189363	-0.3426411758	-0.132352
C	-2.3347199406	-2.381252598	 0.6981818792	-0.079773
O	-3.5817308517	-1.8199948857	 0.3421021304	-0.415972
C	-1.6101548803	-2.6580782282	-1.6221682926	 0.273578
N	-1.9702829921	-3.1730146949	-2.5922058428	-0.323523
H	 0.4632707752	 2.0739214546	 0.9250910513	 0.119637
H	 0.2660324157	 1.737584864	-0.8101366675	 0.134002
H	-1.1513599401	 2.0475721648	 0.206530706	 0.120642
H	 0.7355017163	-0.3674765402	 0.4731662717	 0.108471
H	-0.664930025	-0.0593326267	 1.5018981696	 0.086747
H	-1.9799240466	-0.1634407539	-0.6166514688	 0.230342
H	-0.2868400948	-2.450743159	-0.0175794025	 0.125521
H	-2.3892893322	-3.4718767698	 0.8241245414	 0.1111
H	-2.0611658516	-1.9410992245	 1.6612791705	 0.124586
H	-3.9120721208	-2.2930744077	-0.4310925839	 0.301577
