22
gdb 94697	3.30673	1.39108	1.20577	0.2608	81.84	-0.2078	0.0821	0.2899	1138.1502	0.195083	-404.3211	-404.312681	-404.311737	-404.353344	34.083	
C	-0.6738651607	 1.3492588348	 0.078812144	-0.405342
C	 0.0856183516	 0.0310450804	-0.0405490264	 0.039962
C	 0.941379869	-0.009427304	-1.3362030058	-0.090122
O	 2.0883085244	-0.8509262419	-1.2262702319	-0.30993
C	 2.6235932043	-0.9391630756	 0.0965924335	 0.417061
C	 4.0205402882	-1.5026282681	-0.0094693682	-0.468681
C	 1.5457284763	-1.5717946449	 1.0075311977	-0.211139
N	 0.9248420396	-0.2042343285	 1.1600330045	-0.132289
C	 2.3045847269	 0.3527980043	 0.8929624513	-0.243188
H	 0.0176673486	 2.1946822328	 0.1669250265	 0.115997
H	-1.3008582293	 1.5212852452	-0.8029931223	 0.112097
H	-1.3122539012	 1.3402207916	 0.9655801079	 0.126153
H	-0.6416249349	-0.7895582886	-0.0602125861	 0.081278
H	 0.357971957	-0.3820967364	-2.1839028055	 0.107151
H	 1.262490865	 1.0118865333	-1.5914854985	 0.090318
H	 4.6627340643	-0.8326885588	-0.5894053934	 0.123532
H	 4.4588567253	-1.6370056497	 0.9838349781	 0.112287
H	 4.0011668933	-2.4724377006	-0.5163758215	 0.127467
H	 0.9014241871	-2.3338960644	 0.5604435001	 0.099726
H	 1.9269480556	-1.9181075486	 1.9737546625	 0.096934
H	 2.8631482724	 0.4151117862	 1.8310376624	 0.105016
H	 2.3500264072	 1.3183066013	 0.3836982712	 0.105711
