16
gdb 13161	3.71816	1.44596	1.17629	1.3239	66.15	-0.2476	-0.0937	0.154	1024.13	0.129291	-383.747922	-383.739887	-383.738943	-383.781891	27.921	
O	-1.1161908984	 1.9229385765	 0.2424450975	-0.218715
C	-0.2003087018	 1.2818351573	-0.2015682678	 0.089604
C	 1.2021605963	 1.8588292481	-0.451599713	 0.269284
O	 2.0345453495	 1.1204622192	-0.9307052716	-0.285486
C	 1.4429212032	 3.2795266908	-0.0388002298	-0.069129
C	 1.924792456	 3.4724081515	 1.4479912457	-0.227541
C	 2.941838531	 4.5238345354	 0.9308957639	-0.206897
C	 2.7474571167	 3.9703359359	-0.5059906081	-0.240563
H	-0.2800581092	 0.2095493001	-0.4809547347	 0.10632
H	 0.5420908683	 3.8712938284	-0.2152305917	 0.103105
H	 1.1686359425	 3.7910769731	 2.1669362807	 0.11825
H	 2.4207761635	 2.5739601949	 1.825597512	 0.115774
H	 2.5559256431	 5.5416340984	 1.0331662562	 0.108797
H	 3.9489735622	 4.4902724645	 1.3514306073	 0.105721
H	 3.4975952875	 3.2217600251	-0.7717014931	 0.126371
H	 2.6595141496	 4.6912574107	-1.3212132635	 0.105105
