23
gdb 96324	2.15877	1.4093	0.94627	1.177	81.73	-0.2426	0.0776	0.3203	1312.123	0.206609	-425.435706	-425.426398	-425.425454	-425.469284	36.386	
C	 0.6254729748	 1.4586270901	 0.2347607202	-0.395283
C	-0.1490581278	 0.1910145164	-0.1351139747	 0.125378
C	 0.3993700111	-0.4584733827	-1.4144751085	-0.215661
C	-0.1069050019	-1.878611167	-1.6875769632	 0.132849
O	 0.0006064975	-2.0612360849	-3.0999764595	-0.445305
C	 0.7116080482	-2.9511118864	-0.9525581849	-0.216959
C	 0.5975371529	-2.9391912678	 0.5776934004	-0.199
C	 0.8385941184	-1.574279498	 1.2281639843	-0.077405
O	-0.245161227	-0.6923247346	 0.9835625675	-0.264233
H	 1.6741612464	 1.2305913459	 0.4551183929	 0.114018
H	 0.607377482	 2.1800609374	-0.5889271185	 0.113541
H	 0.1834936363	 1.9268944462	 1.1181777273	 0.120186
H	-1.1949719633	 0.466403333	-0.3205927248	 0.084655
H	 0.1030346213	 0.1689653111	-2.2613172159	 0.113082
H	 1.4965349597	-0.4632665408	-1.4095811455	 0.094701
H	-1.1631544506	-1.9493059854	-1.378598381	 0.069159
H	-0.2403453691	-2.9717209137	-3.2986979191	 0.276447
H	 0.4002680351	-3.9398346238	-1.3179248087	 0.079383
H	 1.7601373539	-2.8285463964	-1.2546798188	 0.101291
H	-0.4032888264	-3.2686831151	 0.8822905212	 0.106197
H	 1.3086703256	-3.663968211	 0.9938704274	 0.091549
H	 0.8944000055	-1.6940643758	 2.3162764513	 0.101564
H	 1.7978352375	-1.1451052668	 0.9044535807	 0.089847
