17
gdb 90054	3.92094	1.31683	1.21795	3.5477	74.11	-0.2422	0.0015	0.2437	1052.9473	0.135007	-421.708116	-421.700529	-421.699584	-421.739985	29.756	
C	-0.1898518321	 1.582205173	-0.1430456565	-0.408231
C	 0.0502887991	 0.1009547404	 0.0645244967	 0.082936
O	 0.9743929319	-0.5025046293	-0.9306896103	-0.342262
C	 1.8582852403	-0.7792612781	 0.137051533	 0.266531
C	 2.7336371463	 0.3626812578	 0.7704116069	-0.280973
C	 2.2027606702	-0.4080878833	 1.9830799054	-0.190906
C	 0.823323173	-0.5774112861	 1.2880981484	-0.120287
C	 2.5297032061	-1.7561196333	 1.132406754	 0.343796
O	 2.8954181497	-2.8693543293	 1.2939415029	-0.303616
H	 0.7269393357	 2.1704322113	-0.1778375605	 0.135989
H	-0.7211073839	 1.7334105391	-1.0883263716	 0.137092
H	-0.8200906072	 1.9654117223	 0.6661950959	 0.131138
H	-0.9015370275	-0.4319336895	-0.0094663104	 0.110093
H	 3.8067822816	 0.3395591759	 0.5781007182	 0.115199
H	 2.3269835356	 1.3624114332	 0.6508131253	 0.111925
H	 2.4375304162	-0.2585681329	 3.0341090606	 0.1014
H	 0.2573880651	-1.4509783213	 1.6133672121	 0.110177
