21
gdb 83260	1.82471	1.73263	1.50063	1.1227	77.48	-0.2418	0.0663	0.3081	1074.1644	0.182378	-424.222128	-424.212987	-424.212043	-424.255157	35.767	
C	-0.0901922836	 1.5789665488	-0.0545072634	-0.420538
C	-0.0040478658	 0.0509916604	-0.0146694026	-0.009141
C	 0.6817742288	-0.5837837739	-1.2467171698	-0.228873
C	 1.300023066	-1.9140828295	-0.7490846274	-0.229018
C	 1.5306501398	-1.727788362	 0.7453804718	-0.150589
C	 2.248970254	-0.4747902652	 1.2223244951	 0.007242
O	 2.9645438361	 0.3731437037	 0.3658324998	-0.418708
C	 0.7474566517	-0.5118725758	 1.1914968947	 0.361633
O	 0.0645769067	-0.5479957372	 2.412403077	-0.475681
H	 0.9085736236	 2.0198625353	-0.121597328	 0.137555
H	-0.6753113713	 1.9187566406	-0.9155801213	 0.11005
H	-0.5801453099	 1.9723671995	 0.8441444879	 0.097746
H	-1.0208256445	-0.3550948507	 0.0765462994	 0.076794
H	-0.0232608573	-0.739156643	-2.0685807811	 0.089916
H	 1.4685593493	 0.0813747975	-1.6072993001	 0.111767
H	 0.6021438726	-2.746885552	-0.8925372217	 0.103587
H	 2.2134522329	-2.171558939	-1.2973784804	 0.088784
H	 1.5988050623	-2.6025344591	 1.3835349869	 0.088993
H	 2.6636996787	-0.5542733741	 2.2280803842	 0.087303
H	 3.7656782396	-0.0866778033	 0.0929375643	 0.289432
H	 0.0744582702	 0.3409754591	 2.7842106648	 0.281746
