16
gdb 54065	2.09443	1.23377	0.9383	2.5906	72.87	-0.2577	-0.0381	0.2196	1284.5104	0.120501	-437.891458	-437.88146	-437.880516	-437.927856	34.367	
C	 0.0737896645	 1.5659107926	 0.2337754764	-0.482967
C	 0.2382694705	 0.0736400167	 0.0941099926	 0.388411
O	 1.3010708938	-0.4933563707	 0.161233244	-0.297582
C	-1.0601998826	-0.745793626	-0.1533377439	-0.242844
N	-0.7025554356	-2.0951210433	-0.536041953	-0.259503
C	-1.3150079036	-2.7222506446	-1.5774614161	 0.156374
O	-2.2775562574	-2.2915085858	-2.1757074029	-0.320032
C	-1.8953781408	-0.6834820405	 1.0505540564	 0.337422
C	-2.5495583624	-0.6138083197	 2.0560541312	-0.464306
H	 1.0113520514	 2.0144112285	 0.5629954955	 0.151427
H	-0.2086078828	 1.9878894846	-0.7383671055	 0.155277
H	-0.7321009563	 1.8009287151	 0.9340479777	 0.162743
H	-1.6150490212	-0.3033134668	-0.9909936107	 0.154357
H	 0.1995220005	-2.413455824	-0.2098989282	 0.264396
H	-0.8343301299	-3.6905904407	-1.8139287317	 0.087023
H	-3.1461115281	-0.5679725456	 2.9339294581	 0.209802
