19
gdb 83565	2.79699	1.41401	1.19925	3.6831	75.1	-0.252	-0.027	0.2249	1089.4604	0.16025	-423.021361	-423.013347	-423.012402	-423.053983	31.06	
O	-0.0033948666	 1.4381338257	-0.3078105089	-0.448353
C	-0.0246512055	 0.0565467832	-0.08902244	 0.172615
C	 0.252783261	-0.5374868774	 1.3261070521	-0.082328
C	-0.8298058785	 0.143100899	 2.1864586441	-0.242562
C	-2.0554294359	 0.0001105135	 1.2153063691	-0.250664
C	-1.3662842503	-0.7314394164	 0.0459800414	-0.066806
C	-0.5365836252	-1.8031392402	 0.8098548302	-0.079662
C	 0.2642599721	-2.7917657889	 0.0105711788	 0.119259
O	 0.3820495227	-2.8054698177	-1.1903424389	-0.244712
H	-0.5919537319	 1.8701338673	 0.3187275827	 0.283959
H	 0.6147944599	-0.381648812	-0.8526774552	 0.116698
H	 1.2581537126	-0.6149822125	 1.740692002	 0.072564
H	-0.9851870722	-0.3673334406	 3.1401918227	 0.106254
H	-0.5774407588	 1.1841090747	 2.4138266047	 0.100234
H	-2.869102495	-0.5852857624	 1.6508288399	 0.106473
H	-2.4795787574	 0.9630432696	 0.9122086148	 0.098622
H	-1.9637383633	-0.9953304191	-0.8250578795	 0.079554
H	-1.0540511167	-2.3496906842	 1.6073518803	 0.08199
H	 0.7699812789	-3.5646882117	 0.6353452595	 0.076865
