16
gdb 24610	4.75202	1.08127	0.96258	1.2635	69.62	-0.2409	0.0031	0.244	1200.4333	0.126215	-437.891536	-437.884162	-437.883218	-437.924644	26.68	
C	-0.2384503761	 0.9921976617	 0.279930178	-0.061857
C	 1.0261977128	 1.2494168496	-0.561850437	-0.283301
C	 1.7455055294	 0.4228480117	 0.5386286377	 0.029547
O	 0.4915847869	 0.1556712415	 1.2066296505	-0.289436
C	 2.4335945311	-0.8335519424	 0.1398367271	 0.236722
C	 1.9882207947	-2.1095601013	 0.2306543997	-0.104644
O	 2.9665110711	-2.933460621	-0.2593795148	-0.139543
C	 3.9574038515	-2.0921303509	-0.6250731136	 0.071815
N	 3.7121610315	-0.8408679218	-0.4151052424	-0.314539
H	-0.6566298862	 1.8756978872	 0.7774801091	 0.105514
H	-1.0505136367	 0.4436055667	-0.210367106	 0.107703
H	 1.0306970507	 0.7786391038	-1.5452654092	 0.119084
H	 1.3430071285	 2.2885085908	-0.6527859061	 0.116912
H	 2.4150295454	 1.0286390055	 1.164082067	 0.094317
H	 1.0921551097	-2.5740046734	 0.5992992319	 0.160637
H	 4.8432570857	-2.5392941974	-1.0482803219	 0.15107
