17
gdb 88022	3.0418	1.32183	1.14379	2.2278	68.84	-0.2414	0.049	0.2903	1101.2609	0.133819	-458.88668	-458.878419	-458.877474	-458.919629	31.266	
O	 0.0787842987	 1.3234084002	 0.0249989077	-0.433632
C	 0.0935514173	-0.0646751595	 0.1260931982	 0.050084
C	-0.552275507	-0.7394905898	 1.3279471255	-0.382204
C	-1.2258136764	-0.7583185849	-0.0070791883	 0.341086
O	-2.3746949108	 0.0588712111	-0.2868922489	-0.335526
C	-2.9260818345	-0.9515919835	-1.1774608212	-0.149904
C	-1.7346753741	-1.8633719659	-0.8923737074	 0.277036
C	-1.0601063226	-2.8884264369	-1.6812110443	-0.262527
O	-1.8370772858	-3.2171515801	-0.5143000266	-0.25936
H	-0.7951794903	 1.5650770572	-0.3128612908	 0.297373
H	 0.9832947813	-0.5198605156	-0.3033549422	 0.09965
H	-0.1327720716	-1.6719824405	 1.6924932745	 0.127591
H	-0.9870091424	-0.0899719773	 2.0807124318	 0.13384
H	-3.8868650921	-1.3309159572	-0.8154709769	 0.129472
H	-3.025115916	-0.5812406255	-2.2031287843	 0.118913
H	-1.4852814124	-3.2097008083	-2.6310559062	 0.123914
H	 0.0149084386	-3.0306395935	-1.5801481907	 0.124194
