23
gdb 115048	2.24444	1.28244	0.89237	1.0021	87.75	-0.2373	0.0234	0.2607	1400.6512	0.205571	-388.295853	-388.286061	-388.285117	-388.330754	36.319	
C	-0.308941501	 1.5463224281	 0.0489960971	-0.391337
C	-0.3082671857	 0.019295892	 0.1638447944	-0.155533
C	 0.7934782637	-0.5167841549	 1.1030298261	-0.080708
C	 0.566074181	-0.1451724388	 2.5528176939	-0.067984
C	 0.141362048	-1.1770833415	 3.2815778885	-0.070604
C	 0.0415899623	-2.4426241309	 2.4657041	-0.283603
C	 0.8463383451	-2.0701760169	 1.1896030203	 0.12371
O	 0.3863664436	-2.657700161	-0.0068691837	-0.241619
C	 0.6153355431	-4.0443506258	-0.0878887354	-0.233521
H	 0.6578494849	 1.9171861387	-0.3110464927	 0.110161
H	-1.0756707964	 1.8862964866	-0.6542738869	 0.110554
H	-0.5096994556	 2.0270824865	 1.0121526909	 0.113033
H	-1.2866697696	-0.3256207438	 0.5191477289	 0.09411
H	-0.1638100419	-0.4289392125	-0.8235426036	 0.110432
H	 1.7541485557	-0.1316684251	 0.7358526785	 0.069426
H	 0.6987097216	 0.8648410297	 2.9241164959	 0.092795
H	-0.1224341533	-1.135493901	 4.3328611747	 0.090217
H	 0.4457585677	-3.319734624	 2.9829890042	 0.098532
H	-1.0006610498	-2.6770498989	 2.2066562133	 0.11214
H	 1.8956888714	-2.3660057928	 1.3560156312	 0.065798
H	 0.2885143675	-4.3703353764	-1.0785414065	 0.12495
H	 1.6836567544	-4.286770633	 0.0313543815	 0.102147
H	 0.0502267935	-4.6061248443	 0.6706212893	 0.106902
