14
gdb 2140	4.09161	3.20294	1.83762	1.1166	60.23	-0.2214	-0.0032	0.2182	671.4364	0.115279	-320.782427	-320.775737	-320.774793	-320.813527	23.442	
C	 0.004278746	 1.4525189334	 0.0449133035	-0.328917
N	-0.0042986735	 0.0079318659	 0.0115270369	-0.05476
C	-0.1047850189	-0.8164431916	-1.0976333905	 0.066332
N	-0.0910953805	-2.0763431063	-0.884423053	-0.264382
C	 0.0361089956	-2.2161292218	 0.5734614704	-0.269544
C	 0.091640448	-0.7961644308	 1.1424568401	 0.338389
N	 0.1963187395	-0.3118911056	 2.3147578711	-0.550238
H	 0.9324590893	 1.8214165493	 0.4923198259	 0.149551
H	-0.083026339	 1.8349895335	-0.9741750285	 0.13057
H	-0.8295742564	 1.8283885532	 0.6459076255	 0.149517
H	-0.1892075628	-0.3642685986	-2.0812770786	 0.132651
H	-0.8150920478	-2.7743181766	 0.9803151057	 0.14024
H	 0.9406131456	-2.7813798743	 0.8264462714	 0.140238
H	 0.254121215	-1.0567292896	 3.0076315901	 0.220353
