15
gdb 132496	3.09368	1.33148	0.9362	1.0782	71.8	-0.2263	-0.0261	0.2003	1155.3187	0.11288	-461.986512	-461.978832	-461.977887	-462.018726	29.184	
C	-0.0383670466	 1.5480195483	-0.0194631894	-0.489097
C	 0.0049307775	 0.045787652	-0.0396929122	 0.201429
C	-0.0687364025	-0.7020871599	-1.2052353501	-0.291222
C	-0.0209248905	-2.0911755267	-1.1298187187	 0.243917
F	-0.0913129376	-2.8219629841	-2.2489507616	-0.080693
C	 0.0988388649	-2.7123965006	 0.0973801923	-0.124997
N	 0.1713288616	-2.0066163737	 1.2337151749	-0.358588
C	 0.1255828496	-0.6872617529	 1.1577926048	 0.368054
O	 0.2002364016	 0.0091607993	 2.3172162198	-0.416856
H	 0.8676857475	 1.9612525174	 0.4363701553	 0.143695
H	-0.1341010734	 1.9529619683	-1.0297279778	 0.122121
H	-0.8802043832	 1.9089139372	 0.5809825362	 0.1437
H	-0.1629157048	-0.2216110201	-2.1733076066	 0.1167
H	 0.1371222646	-3.7948593938	 0.1692088912	 0.123527
H	 0.2778013814	-0.6516036308	 3.0189873719	 0.298309
