20
gdb 91024	2.66835	1.68832	1.23124	1.6501	78.27	-0.2437	0.0762	0.3199	1066.5304	0.171256	-403.094013	-403.08582	-403.084876	-403.12644	32.216	
C	-0.9402767694	 1.0798011155	 0.5745328957	-0.410004
C	-0.4058866672	-0.3259682096	 0.758395476	 0.153492
O	 0.3029786379	-0.8125646893	-0.4100289223	-0.311523
C	 1.4098425931	-1.2651254438	 0.3849315634	 0.105714
C	 2.5552528953	-0.2636801343	 0.4798470362	-0.123529
N	 3.2255418182	-0.4248766167	 1.7647597075	-0.365125
C	 1.9673601662	 0.3294162407	 1.7416295916	 0.352382
C	 1.9898376543	 1.7155255792	 2.317742197	-0.494693
C	 0.7924430296	-0.6579978379	 1.691501193	-0.20757
H	-0.149683382	 1.7689229719	 0.2701504393	 0.131111
H	-1.7073594838	 1.082321547	-0.2065192671	 0.126512
H	-1.3981782298	 1.4453727129	 1.5000504166	 0.116888
H	-1.2407154157	-1.0064931967	 0.9818354353	 0.076787
H	 1.6455741627	-2.3214074215	 0.2185250284	 0.077914
H	 3.0867440074	 0.2019421976	-0.3424048245	 0.099084
H	 3.126554855	-1.3662936035	 2.1443279054	 0.225196
H	 1.1833833806	 2.3407689531	 1.9276751191	 0.121065
H	 1.8839076568	 1.6759740873	 3.4086918086	 0.120538
H	 2.9463806272	 2.1952284029	 2.0956328371	 0.135
H	 0.5590491439	-1.214508305	 2.6022239739	 0.070761
