16
gdb 124109	3.485	0.97003	0.76605	4.9525	85.97	-0.2292	-0.023	0.2062	1456.2581	0.123915	-396.922853	-396.913547	-396.912603	-396.959962	31.474	
C	-0.1126409424	 1.5115500987	-0.042184378	-0.508138
C	-0.0398641741	 0.0603195424	-0.0049710995	 0.124999
C	 0.0241503265	-1.144742289	 0.0256105705	 0.01764
C	 0.1056768066	-2.5480642971	 0.0605865737	 0.19456
C	 1.1732814162	-3.4328087269	-0.0097733879	 0.1461
C	 2.6283396802	-3.1398209697	-0.150926404	-0.508645
N	 0.680919908	-4.7000654388	 0.0732719557	-0.2302
N	-0.617175759	-4.6628685517	 0.1901913992	-0.115956
N	-0.9756112415	-3.3728804232	 0.1838281101	-0.293703
H	 0.4572108297	 1.9592926183	 0.7795576102	 0.158005
H	 0.2896297566	 1.9057975166	-0.9819821139	 0.157986
H	-1.1491852231	 1.8543324471	 0.046028623	 0.156849
H	 3.1928730113	-3.5432611628	 0.6957076966	 0.143824
H	 3.0334263066	-3.5970398817	-1.0592751138	 0.143832
H	 2.8002947285	-2.0621682069	-0.1995560691	 0.131862
H	-1.9472601502	-3.1178783254	 0.2644691372	 0.280985
