21
gdb 31022	2.46945	1.21386	0.87007	0.3131	88.28	-0.197	0.0297	0.2267	1415.6547	0.181163	-387.147165	-387.137135	-387.13619	-387.182589	36.161	
C	 0.0729802692	 1.5847541998	 0.3841550011	-0.362224
C	 0.0172475727	 0.1321408427	-0.1197357193	-0.304211
C	-1.3604152425	-0.4613793394	-0.0697358264	 0.195099
C	-2.1869351651	-0.7594933476	-1.1124549247	 0.243483
C	-2.0671730562	-0.6491831538	-2.5906460679	-0.495151
O	-3.3691004958	-1.2699381095	-0.6434301173	-0.218527
C	-3.2977699497	-1.2980966286	 0.719583074	 0.359992
C	-4.4850781061	-1.8257558388	 1.4416490515	-0.490957
C	-2.0941573661	-0.8146957243	 1.119871147	-0.373314
H	 1.0961577967	 1.9730901681	 0.3521204226	 0.108029
H	-0.5593435375	 2.2345672446	-0.2288667719	 0.117384
H	-0.2832170132	 1.6572317667	 1.4166788232	 0.118359
H	 0.4019499433	 0.0900624427	-1.1447889	 0.098047
H	 0.699975484	-0.4801299484	 0.4837138008	 0.104241
H	-2.1925985307	-1.6231426844	-3.0782039389	 0.133949
H	-2.8260365718	 0.0231803755	-3.0083653555	 0.133793
H	-1.0846211939	-0.2581392414	-2.8634687439	 0.132075
H	-4.7051348891	-2.8608873259	 1.1554143407	 0.134351
H	-4.3054248297	-1.8006401419	 2.5187960032	 0.13222
H	-5.3826496449	-1.2326539704	 1.2305578154	 0.134356
H	-1.7546705934	-0.7222204055	 2.1409088461	 0.099004
