15
gdb 114426	3.30022	1.17106	1.15517	3.3794	60.83	-0.2689	-0.0233	0.2456	1096.3878	0.112451	-494.880854	-494.873205	-494.872261	-494.913629	28.092	
O	 0.0769674006	 1.1345947005	-0.5198863493	-0.416913
C	 0.053880063	-0.2250237956	-0.1306699793	-0.085096
C	-1.3683717166	-0.6544267069	 0.1777214405	 0.094927
O	-2.2470180727	-0.4825121095	-0.9842177243	-0.320444
C	-2.7164826069	-1.8421981436	-0.8843928633	-0.06846
C	-1.7437591582	-2.1428969915	 0.2660102231	 0.024307
O	-0.9515823752	-2.9974772594	-0.6115516091	-0.255386
C	-1.8155668818	-2.8082909228	-1.6812189678	 0.45182
O	-1.738099609	-3.2750557688	-2.7666690242	-0.304569
H	-0.483173659	 1.2090896701	-1.3015179635	 0.297719
H	 0.4846602284	-0.8810619131	-0.8980744632	 0.115382
H	 0.6687343397	-0.310905334	 0.7718995035	 0.119604
H	-1.772938358	-0.0758563874	 1.0170071453	 0.10403
H	-3.8003694643	-1.9482681654	-0.9142071175	 0.123834
H	-1.9604816399	-2.6231704729	 1.2160864592	 0.119245
