19
gdb 70936	3.38926	1.47256	1.25944	2.1813	75.31	-0.2434	0.0748	0.3182	1031.0201	0.160868	-422.953157	-422.945744	-422.9448	-422.984722	30.183	
O	 0.0098975988	 1.3705990006	 0.0258402597	-0.468273
C	 0.0466233776	-0.0097248477	 0.0008068697	 0.372766
C	 0.6294577481	-0.9547709192	-1.1391584628	-0.381563
C	-0.0145340683	-1.8666629324	-0.0646492617	 0.306485
C	 0.6742469681	-0.9836175975	 1.0282399845	-0.327188
C	-0.6122699538	-3.2133172646	 0.2233933589	-0.192236
O	-1.6828915487	-2.8999771799	 1.1365990399	-0.285036
C	-2.0611587281	-1.4969913254	 1.0822466741	-0.121065
C	-1.2256324273	-0.8968368315	-0.0416862069	-0.061982
H	 0.9123644058	 1.7006641221	 0.0968211075	 0.284028
H	 0.1324334207	-0.9068598718	-2.1109013275	 0.101806
H	 1.718125846	-0.9894111743	-1.2351137984	 0.090096
H	 1.7666282979	-1.0309304041	 1.0556918901	 0.084066
H	 0.251013214	-1.000794111	 2.0321942874	 0.110461
H	-1.0039976953	-3.6889474355	-0.6880419835	 0.09602
H	 0.0549056261	-3.9183146665	 0.7292524423	 0.107396
H	-3.1330889508	-1.4376043581	 0.8667538877	 0.102182
H	-1.8904452154	-1.0525661721	 2.0689738828	 0.106269
H	-1.7771575255	-0.8376282111	-0.9844535336	 0.075767
