14
gdb 128926	3.75083	1.20691	0.96167	4.264	69.09	-0.2143	0.0083	0.2225	1146.5972	0.10288	-429.062754	-429.054802	-429.053857	-429.09596	28.416	
N	 0.0343621968	-0.5384802611	-1.1400299536	-0.323855
C	 0.0798736689	 0.3301956322	-0.376937399	 0.239466
C	 0.1821942628	 1.5056569987	 0.5129140238	-0.277987
N	 1.385221014	 2.2940106217	 0.3581074109	-0.39964
C	 1.7384476932	 2.6608042846	-0.8204151085	 0.520403
N	 2.8230389536	 3.49052039	-1.0751956983	-0.350608
C	 2.9445986722	 3.6453969275	-2.4328869763	 0.061694
N	 2.0274618301	 3.0096996308	-3.0839571717	-0.20077
N	 1.2457416009	 2.4375014207	-2.0924383493	-0.310496
H	-0.7314505405	 2.102459764	 0.3524079405	 0.144864
H	 0.1328481079	 1.1455935207	 1.5458723337	 0.156601
H	 3.4128349182	 3.8566302277	-0.3486459864	 0.284055
H	 3.7181935673	 4.2375513061	-2.8948347521	 0.159807
H	 0.6387752146	 1.6752576965	-2.3481744438	 0.296465
