18
gdb 19746	4.61972	1.99766	1.97114	1.654	70.08	-0.2281	0.0922	0.3203	769.489	0.157933	-347.794753	-347.789034	-347.78809	-347.824214	24.226	
C	-0.0207136463	 1.5032894056	-0.0151472646	-0.236815
C	 1.5124141811	 1.8055770877	-0.0287930092	-0.236815
C	 2.053039682	 0.3763573817	 0.0177920893	-0.028253
C	 1.1519840434	-0.4480385221	-0.9677787354	-0.071142
C	 1.440023748	-1.8907127508	-0.5645396768	-0.09728
O	 1.428661457	-1.7681907883	 0.8738581875	-0.284845
C	 1.1564904619	-0.3802036507	 1.0427155564	 0.125119
C	 0.0224681777	-0.0240120581	 0.0358504522	-0.028253
H	-0.5269993523	 1.9330022286	 0.8548209397	 0.098811
H	-0.5314372283	 1.8752946308	-0.908418384	 0.098805
H	 1.8283351935	 2.3405489824	-0.9294376604	 0.098805
H	 1.8325408895	 2.3982552948	 0.8338028717	 0.098811
H	 3.1343079951	 0.2287062299	 0.0321621705	 0.062955
H	 1.0956631774	-0.2103501775	-2.0314202081	 0.065337
H	 0.668076623	-2.5999984696	-0.8880739419	 0.098148
H	 2.4177556373	-2.2550132342	-0.9036389019	 0.098148
H	 1.1169649088	-0.1318976646	 2.1038644883	 0.07551
H	-0.921429029	-0.5709654257	 0.0682315666	 0.062955
