21
gdb 94770	3.50582	1.1214	0.99282	3.1686	83.96	-0.2439	-0.0125	0.2314	1269.3191	0.183079	-387.117399	-387.108771	-387.107827	-387.150477	33.454	
C	-0.0056686445	 1.585090975	 0.003437707	-0.398611
C	 0.0541819661	 0.0559456469	 0.0244398299	 0.032034
C	 0.7767165748	-0.5632850517	-1.196821716	-0.244749
C	 1.2719899043	-1.9502217119	-0.7347880792	-0.288329
C	 1.5053291705	-1.8052039534	 0.761753104	 0.262033
C	 2.2698589641	-0.5757434142	 1.239467516	-0.342473
C	 0.778954447	-0.5341844697	 1.2320142494	-0.074119
C	 1.5074711365	-2.9985979371	 1.6255374128	 0.078005
O	 1.3543489385	-4.1327064937	 1.2374594348	-0.273281
H	 1.0011816743	 2.0168551335	 0.0075342448	 0.115022
H	-0.5210281882	 1.9441884931	-0.8936689052	 0.116206
H	-0.5411621303	 1.9775011961	 0.8741406614	 0.114158
H	-0.9736295477	-0.3307712674	 0.0514044053	 0.079346
H	 0.1253445558	-0.6214304047	-2.072919738	 0.103123
H	 1.624010515	 0.0702848081	-1.4834107995	 0.100726
H	 0.5085623835	-2.7198648788	-0.887826064	 0.121014
H	 2.1657137827	-2.2793918517	-1.2739645641	 0.105683
H	 2.7598470511	-0.6523307024	 2.2050426996	 0.120408
H	 2.8384303972	-0.0231687801	 0.4991213238	 0.123497
H	 0.2691867967	-0.5305067273	 2.1904433071	 0.091993
H	 1.6567458625	-2.7782190385	 2.7098268503	 0.058315
