16
gdb 69794	2.63032	1.91982	1.30987	3.9885	68.	-0.2334	-0.0433	0.19	959.3502	0.124076	-437.850135	-437.842624	-437.84168	-437.881959	28.953	
C	-0.0065658944	 1.550990334	 0.0048280179	-0.482737
C	 0.1012065054	 0.0510723251	 0.0391884753	 0.177871
N	-0.7948036577	-0.762272667	 0.9051735686	-0.337392
C	 0.6564678662	-0.7700014733	 1.1539885946	-0.139214
C	 1.3466898972	-1.9973387056	 0.5601537546	 0.049575
O	 0.4636279457	-2.8804557929	-0.1152421556	-0.216383
C	 1.2150066686	-1.951805269	-0.9095233736	-0.099778
C	 0.4902774516	-0.6581572647	-1.256051838	 0.402735
O	 0.4099912179	-0.1789666792	-2.3584799311	-0.31167
H	 0.9023191771	 2.0037447477	-0.4025701829	 0.136754
H	-0.8406832478	 1.8604262294	-0.6324083004	 0.147632
H	-0.1691728736	 1.9510816486	 1.0108296504	 0.113664
H	-1.237065098	-0.1237636976	 1.5661684259	 0.234829
H	 1.0600245154	-0.3149367628	 2.0518969982	 0.097927
H	 2.1950599196	-2.4517630938	 1.0635027462	 0.109323
H	 1.910397407	-2.3761474991	-1.6279842902	 0.116864
