25
gdb 119727	3.16797	0.96943	0.86495	0.1046	92.56	-0.2543	0.0797	0.334	1508.2568	0.229436	-352.342049	-352.332404	-352.33146	-352.377341	36.745	
C	 0.0278159794	 1.588367812	-0.1785130531	-0.377678
C	 0.008128989	 0.0648150171	-0.0275468603	-0.163799
C	-1.4089908946	-0.5249694693	-0.0442705929	-0.297776
C	-1.439836561	-2.0337167898	 0.1046323775	 0.416118
C	-0.9287278533	-2.8906685556	-1.0931801208	-0.27948
C	-2.2537633405	-3.7114686372	-1.0851416472	-0.219491
C	-2.771217018	-2.882904636	 0.1183241852	-0.083297
C	-2.3924356836	-3.4522893929	 1.5093301753	-0.219482
C	-1.0669004651	-2.6323845357	 1.4949253233	-0.279484
H	 1.0501685105	 1.9793667123	-0.1630394401	 0.109053
H	-0.4330465087	 1.8987468059	-1.1230438783	 0.112213
H	-0.5266061905	 2.0739100637	 0.6324941998	 0.112213
H	 0.5992895938	-0.3901119934	-0.8328257144	 0.097783
H	 0.5063845709	-0.2162914913	 0.9092699214	 0.097782
H	-2.0002312268	-0.0681797788	 0.7627554354	 0.085578
H	-1.9071255487	-0.2423985849	-0.9831673769	 0.085577
H	-0.7862840144	-2.3103000289	-2.0097315628	 0.094332
H	-0.0109095935	-3.4567261114	-0.9079885751	 0.091061
H	-2.8462863495	-3.5815102154	-1.9943080616	 0.097096
H	-2.1530446287	-4.78546088	-0.9007386433	 0.09243
H	-3.7616886409	-2.4332648117	 0.0204522543	 0.054334
H	-3.0760616216	-3.1515349171	 2.3073031204	 0.097094
H	-2.2844064019	-4.5404530683	 1.5521970657	 0.092427
H	-0.1408260444	-3.214385233	 1.5226200831	 0.091064
H	-1.0154724278	-1.8812973502	 2.2889051554	 0.094335
