15
gdb 21313	7.28365	1.18646	1.03356	3.6593	62.78	-0.2547	0.0166	0.2714	1098.7737	0.120708	-395.993461	-395.98588	-395.984936	-396.02665	25.856	
C	-0.0349874415	 1.3227715781	 0.0546681473	-0.229532
O	 0.0158327214	-0.0858488478	-0.0057410407	-0.250023
C	 0.6667329428	-0.5660067721	-1.1606813148	-0.171234
C	 0.6513085265	-2.0594870418	-1.1060894134	 0.360147
N	 1.1626267034	-2.8980546604	-1.9896932704	-0.32967
C	 0.8670602311	-4.1142929648	-1.4497453575	 0.021599
N	 0.212668519	-4.0811544413	-0.3005908659	-0.215598
N	 0.0840569797	-2.7473711341	-0.0983787334	-0.214884
H	 0.9732240122	 1.7631698003	 0.0700662886	 0.115847
H	-0.5853184062	 1.7443193371	-0.7998167961	 0.115784
H	-0.553507552	 1.5891133905	 0.9779729994	 0.135666
H	 0.1614961429	-0.2213879369	-2.0775358893	 0.125426
H	 1.7069272527	-0.2059637586	-1.2136803851	 0.125656
H	 1.1425090791	-5.0476892098	-1.9173812826	 0.124336
H	-0.380838841	-2.3774818384	 0.7141227738	 0.286478
