19
gdb 53031	5.15488	0.89127	0.84611	0.2978	91.64	-0.2174	0.0496	0.267	1441.995	0.159479	-348.68536	-348.676993	-348.676049	-348.719672	31.531	
C	-0.0310115296	 1.4201888261	-0.0297042015	-0.51287
C	-0.0057211465	-0.0346966997	-0.0104688511	 0.317417
C	 0.0136150096	-1.2407595062	 0.0059966646	-0.321815
C	 0.0642685063	-2.6614406366	 0.0402456149	 0.280156
C	 1.1953145789	-3.5514619886	 0.5729320574	-0.294945
C	 0.491049822	-4.7205924142	-0.1617464144	-0.090788
C	-0.84737992	-4.8955292711	 0.6100214105	-0.231823
C	-1.2248257441	-3.5283742495	 0.048770566	-0.107467
C	-0.2375781417	-3.6545214987	-1.0785215823	-0.12302
H	 0.8762535766	 1.8363343389	 0.4228918772	 0.147246
H	-0.0935721724	 1.8071913561	-1.0533330797	 0.145183
H	-0.887867301	 1.8166844297	 0.5270982838	 0.144898
H	 2.1454351934	-3.2830599103	 0.1041250871	 0.104258
H	 1.3274602726	-3.6388451031	 1.6576304489	 0.090807
H	 1.0563141187	-5.5831277797	-0.5064529482	 0.073923
H	-1.4680873	-5.6821061054	 0.1712588857	 0.100775
H	-0.7905521114	-5.0313401874	 1.696189252	 0.090745
H	-2.1905841406	-3.0406788808	 0.0343102102	 0.091484
H	-0.3207433805	-3.5047088695	-2.144950251	 0.095837
