16
gdb 25804	4.15764	1.08931	0.86891	3.9556	79.44	-0.2061	-0.0385	0.1676	1283.8689	0.125026	-434.134071	-434.125237	-434.124293	-434.169363	31.541	
C	 0.0268964372	 1.4922373449	 0.0218619263	-0.477769
C	 0.0130203447	-0.0194774662	-0.0091905643	 0.308708
O	 1.03053748	-0.6968842591	-0.0383653619	-0.35857
C	-1.2917051012	-0.6760385632	-0.0065081837	 0.244135
N	-2.497444073	-0.1370703581	 0.0303831862	-0.292097
C	-3.3738778622	-1.1806695833	 0.0284660864	-0.160295
C	-2.6880348212	-2.3887446617	-0.0165268832	 0.329038
N	-3.1228450726	-3.7051029927	-0.1142888158	-0.606954
N	-1.3703828693	-2.0515580969	-0.0409630492	-0.316209
H	 1.0596487484	 1.8420895379	 0.0241641501	 0.132467
H	-0.5062568971	 1.8943928166	-0.8450251358	 0.149584
H	-0.5000319144	 1.8593791396	 0.9077745954	 0.14891
H	-4.4434768163	-1.0349687756	 0.0593658774	 0.104637
H	-4.1193521882	-3.7899174216	 0.0331592525	 0.261136
H	-2.6311800193	-4.3512729148	 0.4912500231	 0.255894
H	-0.5621203954	-2.6502632257	-0.1076963735	 0.277384
