18
gdb 51638	4.72145	0.95607	0.93621	3.5306	73.22	-0.2402	0.0058	0.246	1277.6429	0.149492	-439.067076	-439.059567	-439.058623	-439.100011	28.483	
O	-0.0071277468	 0.0272988062	-0.1808561017	-0.275113
C	 0.0316057335	 1.2201213905	-0.2151746166	 0.16317
O	 1.0436664881	 1.9326109374	 0.3123479334	-0.196173
C	 1.0181324819	 3.3613992059	 0.1901816201	 0.120191
C	 1.431983264	 4.0443322212	 1.5353399141	-0.204468
N	 2.6776934826	 4.7703190857	 1.1638588828	-0.119558
C	 2.2361305893	 5.3536141075	-0.1683151215	-0.185653
C	 2.1767064856	 3.8872627523	-0.6652778381	-0.061653
C	 3.360143948	 3.7074926119	 0.3205167366	-0.18108
H	-0.7507939362	 1.8584792049	-0.6711685699	 0.076523
H	 0.0347383872	 3.6731474206	-0.1778038808	 0.087139
H	 0.683317975	 4.7478875354	 1.9065808303	 0.112265
H	 1.6343564607	 3.2970667946	 2.3053152758	 0.129915
H	 1.3181622821	 5.9490002523	-0.1330238588	 0.10289
H	 3.0449103801	 5.9349313465	-0.6153585123	 0.117836
H	 2.1992730802	 3.5935985959	-1.7158120875	 0.074504
H	 4.3090823459	 4.0875783517	-0.0619872839	 0.113982
H	 3.4987639787	 2.7402570395	 0.807663308	 0.125279
