12
gdb 21405	3.93016	2.05448	1.34919	2.3076	60.79	-0.2539	-0.0624	0.1915	820.6481	0.087208	-410.883197	-410.876928	-410.875984	-410.91377	23.509	
N	-0.0840022699	 1.3347077831	 0.0081908241	-0.524293
C	 0.0202202957	 0.0624800655	 0.0008900852	 0.361538
N	-1.1357340659	-0.717028653	 0.0033336331	-0.398774
C	-1.1854249277	-2.0945302462	-0.0033574921	 0.508927
O	-2.203273562	-2.7469854063	-0.001331751	-0.380271
N	 0.0801643192	-2.6748560841	-0.0137212262	-0.302427
N	 1.2663515545	-2.0330856698	-0.0171098536	-0.13973
C	 1.2449020731	-0.7469223834	-0.0102052119	-0.054365
H	 0.8375250786	 1.7693699064	 0.0053344924	 0.227273
H	-2.0243933401	-0.2347915438	 0.0108195537	 0.278864
H	 0.1202118659	-3.6818721936	-0.0193799149	 0.286524
H	 2.2042695686	-0.2412226246	-0.0129793189	 0.136733
