20
gdb 82926	2.51394	1.77303	1.38225	1.6997	77.46	-0.2263	0.0799	0.3062	1019.5048	0.17092	-403.114051	-403.105784	-403.10484	-403.146336	32.464	
C	 1.087129109	 2.6220391712	-0.2060863494	-0.32021
N	 0.8679695724	 1.196569175	-0.3991282698	-0.095488
C	 1.9638205334	 0.2339415601	-0.3923409875	-0.024051
C	 3.3244233441	 0.6253849997	 0.192035379	-0.280033
C	 3.0479740965	 0.8346450073	 1.6738096043	-0.01445
O	 2.6229064332	-0.3552345366	 2.3491784456	-0.307664
C	 1.6233501157	 0.6182201346	 1.9806781841	 0.411578
C	 0.8639102857	 1.2515906165	 3.113185064	-0.491577
C	 0.9315780319	 0.2312752602	 0.6947989031	-0.117462
H	 1.8531168597	 2.8960433344	 0.5327244415	 0.107452
H	 1.3725692601	 3.0621730385	-1.1670704446	 0.123795
H	 0.1421283158	 3.0814979181	 0.1013043639	 0.125042
H	 1.9442576398	-0.4866908992	-1.204911288	 0.092364
H	 4.0526130947	-0.1783192502	 0.0431135927	 0.11825
H	 3.7367171135	 1.5301334518	-0.2700447177	 0.105184
H	 3.6706108143	 1.5047352517	 2.2634274664	 0.090834
H	 1.5322202976	 1.4773364527	 3.9479231917	 0.130096
H	 0.3779044019	 2.1773279176	 2.788209437	 0.126511
H	 0.0826077994	 0.5749134709	 3.4765492064	 0.130069
H	 0.1147152214	-0.4860934242	 0.7411551974	 0.089758
