16
gdb 44594	3.35441	1.78994	1.40107	3.9963	74.49	-0.2223	-0.036	0.1863	910.9831	0.126904	-400.723015	-400.7165	-400.715556	-400.753648	26.661	
O	 0.228872567	 0.0283660941	 0.3468681416	-0.359515
C	 0.1446378089	 1.1449870474	-0.0916050069	 0.376613
N	-0.9966776086	 1.9619587549	-0.0579550737	-0.333165
C	-0.7926841099	 3.2694102552	-0.6433862689	 0.003794
C	 0.3660594812	 4.3286036666	-0.3948630307	-0.067289
C	 1.5402943838	 4.1967414733	 0.5795059631	-0.272084
C	 1.8570494477	 2.7140470213	 0.4556682321	-0.071248
C	 1.1802466767	 2.1537097131	-0.5661596237	-0.050571
C	 0.4820872639	 3.2131337625	-1.3953119595	-0.127812
H	-1.7001727156	 1.7669674192	 0.6376603279	 0.251991
H	-1.6825724621	 3.7061833869	-1.0851737206	 0.107271
H	 0.0712466441	 5.3232456431	-0.7186838708	 0.087196
H	 2.3546963252	 4.8866649325	 0.3132549692	 0.116248
H	 1.2818490832	 4.41324359	 1.6243182231	 0.119454
H	 2.2480408558	 2.1422605152	 1.2915042983	 0.12319
H	 0.5977367188	 3.2819276847	-2.4714231104	 0.095928
