23
gdb 115833	4.13374	0.88663	0.80592	1.2774	85.98	-0.2589	0.0779	0.3368	1498.119	0.206728	-388.289443	-388.280205	-388.279261	-388.324297	35.548	
O	-0.1373920142	 1.4740625504	-0.0176968298	-0.424688
C	 0.0034801016	 0.0615139961	 0.0524449241	-0.099347
C	-1.378371822	-0.5604856537	-0.0576239743	 0.055624
C	-2.1022875321	-0.2884135253	-1.3892970502	-0.203996
C	-3.2321975206	-1.3294660264	-1.3909443153	-0.292981
C	-2.5897320061	-2.5733783178	-0.7668473839	 0.398393
C	-3.4338855374	-3.7394827106	-0.3262984525	-0.32004
C	-2.5322110805	-3.874071822	-1.5300182192	-0.309248
C	-1.3712902493	-2.1032895298	 0.0491263866	-0.320773
H	 0.7379599542	 1.867455587	 0.040315694	 0.285228
H	 0.6387756115	-0.3161538254	-0.7670611107	 0.079976
H	 0.4776012929	-0.2427978936	 1.0002051042	 0.081803
H	-1.9918669648	-0.1481561085	 0.754431064	 0.078355
H	-2.4520450571	 0.7420290361	-1.4788578136	 0.105795
H	-1.4137598081	-0.4778018922	-2.2241448684	 0.089803
H	-4.0592823714	-0.9749907174	-0.7616886548	 0.095625
H	-3.6444787151	-1.5203101069	-2.3865401558	 0.090233
H	-3.1530316245	-4.262827418	 0.5825960464	 0.105221
H	-4.5055366418	-3.6862762265	-0.4935808911	 0.106014
H	-2.9921392698	-3.9155880986	-2.5126325572	 0.105946
H	-1.639964902	-4.4850996326	-1.4310177293	 0.103921
H	-0.4450269418	-2.5031958919	-0.3841599026	 0.092421
H	-1.4060862814	-2.4418822926	 1.0897067095	 0.096714
