15
gdb 51976	6.89923	0.63362	0.58569	1.6996	68.28	-0.2665	-0.057	0.2095	1747.015	0.110358	-453.996226	-453.98661	-453.985666	-454.03385	31.703	
O	-0.0283396205	-0.1019735324	 0.1665346475	-0.322534
C	-0.0157736301	 1.1086431476	 0.0897255875	 0.155694
N	 1.1083750069	 1.8480333232	-0.0923001778	-0.288042
C	 2.4088352377	 1.2367929128	-0.1456340172	-0.22663
C	 3.4883399711	 2.2978856706	-0.0209521301	 0.366157
O	 3.2328765484	 3.4733794685	 0.0339946875	-0.270753
C	 4.9237558138	 1.755756639	 0.0302723137	-0.455026
C	 5.9412660668	 2.7973607756	-0.0254089652	 0.289721
N	 6.7625371677	 3.6067712261	-0.0724185736	-0.285148
H	-0.9238564173	 1.7373354884	 0.1571443642	 0.089582
H	 1.0853469343	 2.8577814292	-0.0868054829	 0.269289
H	 2.5204929608	 0.4872560956	 0.6495065913	 0.157404
H	 2.5680218959	 0.6886247144	-1.0873481304	 0.151296
H	 5.0385199014	 1.1775366049	 0.9563161793	 0.187951
H	 5.074384673	 1.0425406266	-0.7889699638	 0.18104
