12
gdb 123503	4.30814	1.79139	1.26527	2.1504	68.59	-0.2585	-0.0848	0.1737	872.4078	0.081975	-427.869132	-427.863576	-427.862632	-427.899103	21.544	
C	-0.0152692237	 1.3277938641	 0.0098987234	-0.160941
C	 1.2717836149	 1.8354019002	-0.0001357436	 0.415225
N	 1.8476140655	 3.0572797743	 0.0005946336	-0.303222
C	 3.1553615635	 3.0574541618	-0.012390508	 0.051297
N	 3.9863022379	 1.9623122834	-0.0264309524	-0.262411
C	 3.4144265405	 0.7976360137	-0.0269217814	 0.126183
N	 2.0605799363	 0.6879990288	-0.0140360426	-0.012446
N	 1.2973471261	-0.4358224504	-0.0122814906	-0.159284
N	 0.0556334665	-0.02500698	 0.0020889007	-0.160876
H	-0.9543857088	 1.8539495121	 0.0219352945	 0.147383
H	 3.6579383872	 4.0195530804	-0.012297587	 0.14275
H	 3.981185464	-0.1282586584	-0.0374018365	 0.176341
