13
gdb 11174	5.88174	1.30184	1.11382	1.4464	58.46	-0.2888	-0.0118	0.277	977.4224	0.096959	-398.657221	-398.650405	-398.649461	-398.688699	24.37	
O	 0.0441265225	 0.0026231164	 0.2478462532	-0.316094
C	-0.0313161044	 1.1911159273	 0.1908504327	 0.432751
C	-1.2863858462	 2.058512596	 0.1186072041	-0.369496
C	-0.7662541257	 3.4564049537	 0.497730466	-0.178657
C	 0.7118879606	 3.3729557833	 0.0320499541	-0.086993
O	 1.0707133433	 1.9983189034	 0.1769033429	-0.211428
C	-1.4920219086	 4.5714541133	-0.0956222703	 0.271849
N	-2.0590451905	 5.4563761365	-0.5757004234	-0.306633
H	-1.6670332984	 2.0352305827	-0.907761668	 0.165219
H	-2.0638051373	 1.6712510566	 0.7763055704	 0.162367
H	-0.789188063	 3.5694401043	 1.5868633547	 0.14763
H	 0.8148164152	 3.6723466539	-1.0164933258	 0.14157
H	 1.3857774224	 3.9725631026	 0.6451128991	 0.147916
