19
gdb 84891	2.27647	1.80669	1.2988	1.8505	76.36	-0.2398	0.0097	0.2495	1040.9388	0.159772	-423.010829	-423.002729	-423.001785	-423.04319	32.088	
O	 0.0736414758	 1.4341924441	-0.0470013709	-0.432622
C	 0.0286228603	 0.0064564483	-0.0166506208	 0.027833
C	 0.7591762437	-0.5307816596	 1.1919630647	-0.100163
C	 0.1050462533	-1.0901718743	 2.2075169831	-0.065194
C	-1.392981835	-1.2127442236	 2.2144529359	-0.140383
O	-2.011328974	-0.3946888078	 1.2323032089	-0.298499
C	-1.3927826232	-0.5218705695	-0.0259513286	 0.410664
C	-2.283630416	-0.2942381495	-1.1977800045	-0.326746
C	-1.7851753071	-1.6947337715	-0.8910644526	-0.334174
H	-0.4050530859	 1.7334492075	 0.7351995495	 0.280466
H	 0.5379952314	-0.3073632979	-0.9345921911	 0.085305
H	 1.8379056112	-0.4076296834	 1.2133143585	 0.098021
H	 0.63124823	-1.4819172393	 3.0744996891	 0.097063
H	-1.687437246	-2.2687176447	 2.0789137981	 0.103272
H	-1.8021054971	-0.889547172	 3.1783722521	 0.117335
H	-3.3241362477	-0.0804466608	-0.9821387391	 0.122853
H	-1.8728832501	 0.2369380347	-2.0489633537	 0.123653
H	-1.0389924987	-2.1401362622	-1.5404583548	 0.114017
H	-2.502774115	-2.3939174784	-0.4764579739	 0.1173
