16
gdb 105129	2.50707	1.2239	0.9563	3.6946	77.19	-0.284	-0.0201	0.2639	1242.0929	0.121124	-400.705269	-400.69591	-400.694966	-400.739637	33.619	
C	 0.1048551195	 1.435442511	-0.3922572236	-0.387527
C	-0.0235693604	 0.1048150732	 0.3571422269	-0.271354
C	-1.40964269	-0.4988637724	 0.2176106098	 0.178602
O	-1.7088230114	-1.0845572164	-1.0647376897	-0.2527
C	-1.6070163418	-1.9692445793	 0.0451849096	-0.159637
C	-0.4865408902	-2.8850720376	 0.0610287818	 0.31207
N	 0.3944798851	-3.6324892356	 0.0955485542	-0.32728
C	-2.4954652397	 0.2384469127	 0.8222488827	 0.298555
C	-3.3771363598	 0.8661998288	 1.3440986853	-0.400534
H	 1.1141428774	 1.8393959489	-0.2780877472	 0.124334
H	-0.0887635546	 1.2972438909	-1.459845379	 0.137445
H	-0.6038414217	 2.1754971875	-0.0095052016	 0.132934
H	 0.7069802331	-0.6156605744	-0.0213671643	 0.134978
H	 0.1810099697	 0.2450393251	 1.4245195596	 0.121577
H	-2.5461607581	-2.4055023072	 0.3795096183	 0.148078
H	-4.161891807	 1.4194846949	 1.7994193872	 0.210459
