19
gdb 99686	1.85844	0.86947	0.61534	2.0142	89.73	-0.241	0.0399	0.2809	1845.0929	0.1556	-385.838744	-385.82719	-385.826245	-385.878725	38.251	
C	-0.0259064984	 1.5194829281	 0.1097835484	-0.498777
C	 0.0141665512	 0.0652838072	 0.0543616977	 0.080322
C	 0.0623044894	-1.1362413655	 0.0065276089	 0.074887
C	 0.0629784942	-2.599801093	-0.038393407	-0.360741
C	-1.3907237408	-3.1557318229	 0.0457158011	-0.053294
O	-1.4130797892	-4.5626244159	 0.0543108791	-0.415979
C	 0.7214945502	-3.1295518193	-1.2393040486	 0.080738
C	 1.2147126672	-3.6085857635	-2.2286075748	 0.051918
C	 1.8430231749	-4.1562318309	-3.4231062662	-0.498843
H	 0.5480505915	 1.9015574634	 0.9611249907	 0.149104
H	 0.3948685209	 1.9620454115	-0.7997624549	 0.150311
H	-1.053446047	 1.8855818948	 0.2115414299	 0.148909
H	 0.5933448691	-2.9872794714	 0.8432882471	 0.134042
H	-1.8400891716	-2.822046518	 0.9847037841	 0.118178
H	-1.9731858219	-2.7321164297	-0.7851106113	 0.100726
H	-0.953513792	-4.8541545508	-0.7431007202	 0.283984
H	 2.3236346796	-5.118563618	-3.2160375149	 0.150448
H	 1.1115346495	-4.3143300764	-4.2230209589	 0.149743
H	 2.6119191931	-3.4771485896	-3.8072766201	 0.154323
