22
gdb 84035	2.65287	1.41075	1.13224	1.6377	81.84	-0.2148	0.0763	0.2911	1174.9189	0.196393	-404.31427	-404.305889	-404.304945	-404.346855	33.23	
C	-0.2613964537	 1.5091743916	 0.219113336	-0.31687
N	 0.0443486291	 0.1001642379	 0.0395113358	-0.112133
C	 0.5387857219	-0.427498357	-1.2318621903	-0.004248
C	 0.8682109418	 0.4098581546	-2.4604883581	-0.241201
C	 2.2337443826	 0.0337537309	-3.0636125092	-0.192376
C	 3.4392421966	 0.5791009792	-2.2858672377	-0.063007
O	 3.6221118709	 0.062005043	-0.9802350471	-0.240483
C	 2.6595966198	 0.4944161209	-0.0296889324	-0.10849
C	 1.4243052508	-0.3927922975	-0.0277009524	-0.027818
H	 0.3837540011	 2.2230904729	-0.313644162	 0.103446
H	-1.2909009296	 1.6852299621	-0.1100245048	 0.123686
H	-0.2066733779	 1.7447456613	 1.2870763558	 0.123932
H	 0.096574505	-1.3919049646	-1.4829522546	 0.088146
H	 0.0805506789	 0.2594078792	-3.2073797384	 0.100739
H	 0.8610361123	 1.480712212	-2.2296103786	 0.097042
H	 2.319605952	-1.0569387305	-3.1434978369	 0.106388
H	 2.3050351613	 0.4311714871	-4.0846778444	 0.09294
H	 4.3594973961	 0.3305687633	-2.8251955105	 0.105251
H	 3.370535707	 1.6807222548	-2.2420278551	 0.08123
H	 3.1542916657	 0.4362018551	 0.9455854347	 0.107131
H	 2.4049301357	 1.5489941316	-0.2027433223	 0.087503
H	 1.5694973225	-1.3245064177	 0.5178285725	 0.089193
