16
gdb 23482	3.65638	1.40757	1.22587	1.9305	72.43	-0.2395	-0.0065	0.233	1017.3537	0.124968	-437.780895	-437.773934	-437.77299	-437.812295	27.653	
O	-0.1725585791	 1.363487367	-0.0741721615	-0.391431
N	 0.0125938854	-0.0292848916	-0.0192859176	-0.264459
C	-1.0924739977	-0.638292577	 0.0904609876	 0.456917
C	-1.3795535417	-2.1227821717	 0.0509887594	-0.162682
C	-1.9500072994	-2.6342089416	 1.4124975199	-0.24181
C	-3.2830566475	-1.9094721487	 1.1157029624	 0.104738
O	-3.1904141302	-0.4836757607	 1.3472036951	-0.298612
C	-2.5696493136	-0.2685046463	 0.054040885	-0.006376
C	-2.8638750782	-1.7415276049	-0.3714268386	-0.092174
H	 0.7306405122	 1.6830537772	-0.1740945392	 0.308178
H	-0.7025111184	-2.7662909781	-0.5079071152	 0.08964
H	-2.0901748292	-3.7196765145	 1.3752509533	 0.107958
H	-1.4229342873	-2.3616236259	 2.3295770579	 0.117548
H	-4.2184928213	-2.3206682411	 1.4983172259	 0.084113
H	-2.894264798	 0.6536696272	-0.4256675739	 0.100247
H	-3.386144256	-2.0661742093	-1.2658163506	 0.088206
