19
gdb 98898	3.94238	1.00355	0.92688	2.2992	72.14	-0.2469	0.0142	0.2612	1332.9433	0.159512	-460.199632	-460.190446	-460.189502	-460.23539	32.013	
C	 0.135963895	 1.4114228221	-0.0993780414	-0.240698
O	 0.2750369839	-0.0109269075	 0.0178701516	-0.234879
C	 0.5651247044	-0.658469339	-1.1283491515	 0.43114
O	 0.7206924899	-0.1153919663	-2.1915163041	-0.361007
C	 0.6178927667	-2.1656419507	-0.8942797967	 0.006693
C	-0.7683460883	-2.8117620466	-1.2122315273	-0.258599
C	-0.4196283196	-3.885850836	-2.2624289466	-0.211057
C	 0.8744343251	-3.3354413555	-2.8656641477	-0.078435
O	 1.5654518138	-2.765027568	-1.7569980205	-0.24395
H	 1.0677392558	 1.8599391681	-0.4526343546	 0.144315
H	-0.6624552369	 1.6646538905	-0.8016334736	 0.13932
H	-0.1058315051	 1.7706458565	 0.9008824578	 0.133546
H	 0.9306862305	-2.3514704382	 0.1367687043	 0.100989
H	-1.2342590396	-3.2242603844	-0.315916784	 0.116164
H	-1.4533420897	-2.0701966763	-1.632332956	 0.118836
H	-0.2259494781	-4.8480918899	-1.7790714425	 0.110664
H	-1.212219426	-4.0265652471	-3.0012133147	 0.105975
H	 1.5234812998	-4.0996426315	-3.3007720935	 0.107758
H	 0.6685413284	-2.5681704002	-3.624341149	 0.113223
