21
gdb 73717	2.65071	1.81267	1.36455	1.5598	81.06	-0.2215	0.0869	0.3084	1027.31	0.18471	-387.070587	-387.063033	-387.062089	-387.101976	31.364	
C	-0.0026261872	 1.4715498878	 0.0618620764	-0.463785
C	-0.0000682986	-0.0457624395	 0.0280288744	 0.29426
C	 1.122050853	-0.6509366935	-0.8084409868	-0.263086
C	 1.124190499	-2.1887016917	-0.9113602447	-0.205949
C	-0.2862677644	-2.7849963142	-1.0428094854	-0.217751
C	-1.1872287368	-2.1959342608	 0.0358329735	 0.09196
O	-0.4796619937	-2.0961753216	 1.3177573139	-0.308733
C	-0.5913315829	-0.6760489162	 1.2722813233	 0.058363
C	-1.3801054952	-0.6731088006	-0.0132206012	-0.184969
H	 0.9332114364	 1.8566625254	 0.4826399783	 0.118093
H	-0.1107974624	 1.8869954471	-0.9469076099	 0.117002
H	-0.8275494884	 1.859624878	 0.668989934	 0.113839
H	 1.0280962734	-0.2213719085	-1.8166427934	 0.092096
H	 2.0932697884	-0.310284225	-0.4270075047	 0.094322
H	 1.7450247992	-2.4946557703	-1.7600332936	 0.085602
H	 1.5805487023	-2.6081829554	-0.0117654113	 0.120231
H	-0.7301310638	-2.5649542572	-2.0229277597	 0.097063
H	-0.2378692415	-3.8757668077	-0.9503023853	 0.099699
H	-2.1183190281	-2.7548320117	 0.1714844676	 0.078303
H	-0.7223820752	-0.1541819693	 2.2145148871	 0.097027
H	-2.2837065235	-0.1518257849	-0.3030052728	 0.086414
