22
gdb 79248	2.27643	1.6703	1.39926	1.7416	85.83	-0.2251	0.0822	0.3073	1097.2192	0.193346	-367.167931	-367.158827	-367.157883	-367.200933	35.488	
C	-0.0742595704	 1.5250296764	-0.037236242	-0.428395
C	 0.1003362957	 0.0206583537	 0.0812276978	 0.060875
N	 1.1323601005	-0.6222802644	-0.8000833175	-0.202129
C	 2.4000714229	-0.6342460947	 0.0289148399	-0.093797
C	 2.1439056663	-0.0017278069	 1.392577268	-0.294154
C	 0.7393920611	-0.6627017091	 1.3159186247	 0.238968
C	-0.045240981	-0.9934484456	 2.5583539391	-0.51206
C	 1.3575344913	-1.6660535254	 0.2386785985	 0.317294
C	 1.2790202504	-3.1380459148	 0.0164586793	-0.532455
H	 0.8577154546	 2.0685945303	 0.1361753706	 0.120964
H	-0.4222266561	 1.779149569	-1.0438053633	 0.125999
H	-0.8212292474	 1.8870346352	 0.6782716388	 0.112714
H	-0.8497549824	-0.4750927332	-0.1541609141	 0.07062
H	 3.3249103528	-0.6995165313	-0.529978364	 0.091139
H	 2.7607120829	-0.4848205112	 2.1564123903	 0.099267
H	 2.2055098795	 1.0844991492	 1.513111414	 0.091006
H	-0.3352229855	-0.0803939695	 3.0922089681	 0.121632
H	-0.9631338217	-1.5416383464	 2.3177850248	 0.116709
H	 0.5390825987	-1.6073624005	 3.2526798585	 0.116878
H	 0.2399607912	-3.4772192135	-0.0650868393	 0.122968
H	 1.7918309357	-3.4025155104	-0.9136217643	 0.135401
H	 1.7493953808	-3.6918799167	 0.836586532	 0.120555
