12
gdb 130846	2.4235	1.56036	0.94921	2.0015	73.73	-0.2651	-0.0915	0.1737	1115.0855	0.077654	-431.64351	-431.63605	-431.635106	-431.675855	26.83	
O	 0.047258412	-0.1206044382	-0.0015342128	-0.28218
C	-0.027875825	 1.0894701586	 0.0100351692	 0.060234
C	 1.1509054737	 1.948664331	 0.0036082296	 0.144734
C	 1.3442695302	 3.3264439605	 0.0134479274	 0.147929
N	 2.6946476384	 3.568530834	-0.0004381811	-0.268323
N	 3.3261834548	 2.427590528	-0.0179804586	-0.089791
N	 2.4129199015	 1.4552698386	-0.0157334014	-0.210802
C	 0.3721166527	 4.3484689037	 0.0339927271	 0.282178
C	-0.4662069294	 5.2112385322	 0.0515542097	-0.410538
H	-0.9947167707	 1.6263256129	 0.0262419863	 0.11142
H	 2.6830499556	 0.4820432879	-0.0275232385	 0.304457
H	-1.1998850839	 5.9795847509	 0.0670678132	 0.210682
