16
gdb 54294	2.33954	1.59036	1.09027	2.8817	65.69	-0.2514	-0.036	0.2153	1099.5863	0.121568	-475.050764	-475.04145	-475.040506	-475.085691	33.401	
C	 0.5020162213	 1.1330510857	-0.6231907501	-0.495931
C	 0.0671396904	-0.0200589704	 0.2432936147	 0.347976
O	 0.7489839756	-0.4664201048	 1.134656692	-0.290994
C	-1.3185722756	-0.6407619844	 0.0093136606	 0.189843
C	-1.5411962891	-1.9875989517	 0.5828738191	-0.184617
O	-2.0604080593	-0.8338012076	 1.2287323101	-0.266869
C	-2.1432063837	-0.249276618	-1.202549023	 0.300386
N	-3.4688721791	-0.1334215107	-0.9466541783	-0.524596
O	-1.6332524611	-0.0912196257	-2.2970912698	-0.365132
H	 1.4907142661	 1.4650269733	-0.3059643237	 0.137746
H	 0.4988438501	 0.8316873662	-1.6733009595	 0.179803
H	-0.2148282376	 1.9585981621	-0.5400602406	 0.142925
H	-2.2776326771	-2.6381914388	 0.1151209441	 0.129027
H	-0.7047422429	-2.4581276142	 1.0923064091	 0.153706
H	-3.8078854335	-0.2233162791	-0.0032936348	 0.278649
H	-4.0909304243	 0.1122369981	-1.6983142098	 0.268078
