21
gdb 95085	2.31735	1.84781	1.27578	2.4827	77.2	-0.2457	0.0624	0.3082	1050.191	0.184399	-424.229617	-424.221502	-424.220558	-424.261621	33.451	
O	-0.1375848397	 1.4338080094	 0.1181083821	-0.4544
C	-0.015191105	 0.0127677259	-0.0236333012	 0.051821
C	 0.8246435149	-0.5920242243	 1.1210948528	-0.234895
C	 0.3882975715	-2.0265915768	 1.5044669677	-0.210286
C	-1.1133804213	-2.2233920062	 1.2397075745	-0.015081
C	-1.8962341741	-0.8922021963	 1.4425211843	-0.297174
C	-1.4500144102	-0.5448793853	-0.0141983668	 0.447436
O	-2.2891877819	 0.2007366709	-0.8458407702	-0.503203
C	-1.3900933956	-2.0624713918	-0.2809095744	-0.268467
H	 0.6935304575	 1.8416595894	-0.1405424911	 0.288973
H	 0.4220737312	-0.2156736952	-1.007080427	 0.070645
H	 1.8930455468	-0.5550201257	 0.8821975771	 0.087478
H	 0.6764813272	 0.0705383382	 1.9794302043	 0.116344
H	 0.9526175989	-2.7737483066	 0.9331035065	 0.096612
H	 0.6234268226	-2.2009650545	 2.5604031918	 0.096368
H	-1.4981570385	-3.1213723762	 1.7264696008	 0.063297
H	-2.9752619225	-1.0610498332	 1.4621147925	 0.101601
H	-1.6156935228	-0.2247255202	 2.2612044794	 0.09287
H	-1.9842375164	 1.1158770466	-0.7775446617	 0.282252
H	-0.6433715322	-2.4361424755	-0.9899266302	 0.082556
H	-2.3793732104	-2.4322423027	-0.5615282913	 0.105255
