20
gdb 87194	3.58744	0.96243	0.88514	3.4947	75.97	-0.2382	0.0308	0.269	1383.1367	0.168581	-440.317062	-440.306855	-440.305911	-440.352683	37.172	
C	-0.0580089036	 1.2549536819	-0.4232905026	-0.428182
C	-0.178512825	-0.131963002	 0.1520073165	 0.024618
O	 0.8652843728	-1.0698556245	-0.1636048199	-0.303727
C	 0.6670744826	-0.6994956879	 1.2221045809	 0.368167
C	 1.7989657103	 0.0749790378	 1.8607742614	-0.463312
C	 0.0948211392	-1.821487784	 2.0806479926	-0.359716
C	 1.0771409783	-2.9819798036	 2.2925687788	 0.375378
N	 1.4829077206	-3.5751852616	 1.1324650831	-0.50786
O	 1.4280481965	-3.3543967003	 3.3950345825	-0.363075
H	 0.9476196922	 1.6630499074	-0.3110598547	 0.130384
H	-0.3000767696	 1.2393469706	-1.4910968519	 0.134069
H	-0.7669273563	 1.9291555479	 0.0693181217	 0.127431
H	-1.1794647931	-0.5601402211	 0.0609731639	 0.088771
H	 2.2669812955	 0.7609008581	 1.1539014252	 0.129193
H	 1.4324365585	 0.6472421199	 2.7194720395	 0.128952
H	 2.5683651052	-0.6118454265	 2.2275886506	 0.145139
H	-0.1693792808	-1.4448852548	 3.0712144746	 0.127476
H	-0.8118337081	-2.2149291654	 1.6089416239	 0.117729
H	 1.3196313854	-3.1116607963	 0.250985969	 0.273618
H	 2.2065534694	-4.2730600358	 1.1957710749	 0.254947
