20
gdb 87371	2.07857	1.61834	1.06074	2.1996	81.33	-0.2402	-0.0273	0.2129	1196.6849	0.169559	-403.141999	-403.132699	-403.131755	-403.176104	34.716	
C	-0.0289793971	 1.4438373375	-0.3578840856	-0.393652
C	 0.0430958084	-0.0323941505	-0.0554987697	-0.062895
N	 1.3579232539	-0.662935288	-0.1419823451	-0.377505
C	 0.7006217643	-0.5994575339	 1.1662146488	 0.230343
C	 1.2532008554	-0.0107433051	 2.488120481	-0.077068
C	 0.8446824973	 1.394039509	 2.9133890275	-0.408304
C	 0.570134286	-1.195770835	 3.2587190813	-0.374444
C	 0.1857082802	-1.8064204215	 1.900984606	 0.347487
O	-0.2631453611	-2.8582263701	 1.5334093319	-0.322566
H	 0.8780220558	 1.9534743338	-0.0270229682	 0.131989
H	-0.1263774674	 1.5973911138	-1.4380469208	 0.125484
H	-0.8934861539	 1.9070916285	 0.1278111181	 0.120865
H	-0.8053993994	-0.6183727656	-0.4095370503	 0.10361
H	 1.2817854585	-1.6155042379	-0.4979507193	 0.244816
H	 2.3427788543	-0.1092296737	 2.5094978532	 0.092089
H	-0.24104512	 1.5275668854	 2.8546007967	 0.115306
H	 1.1479813415	 1.581780429	 3.9488506966	 0.119227
H	 1.3126931501	 2.1597806628	 2.2882219558	 0.124482
H	 1.2136264392	-1.8201169972	 3.8834502962	 0.131539
H	-0.304140216	-0.8971361914	 3.8471263461	 0.129195
