23
gdb 105366	2.55308	1.06067	0.87413	1.6887	85.74	-0.2555	0.0822	0.3377	1445.7978	0.204646	-388.259314	-388.249503	-388.248558	-388.294672	36.751	
C	 0.7593035498	-0.2423654549	 1.5162713823	-0.379586
C	 0.1432994148	-0.1221639235	 0.1160862386	-0.259238
C	-1.3041499831	-0.5900007878	 0.0235349147	 0.404252
C	-1.7647755731	-1.1970751615	-1.2803283473	-0.307185
C	-1.5408179236	-2.0800864573	-0.0761954447	-0.321998
C	-2.3362195298	 0.2306569411	 0.7918051865	-0.324551
C	-2.5874380475	 1.5991203298	 0.1991814439	 0.114765
O	-3.4494642936	 1.656263387	-0.9430991805	-0.23336
C	-3.900096686	 2.2517097848	 0.2750266248	-0.185736
H	 1.811353562	 0.0592959732	 1.5064712411	 0.11143
H	 0.2455437741	 0.3912522122	 2.2466275601	 0.113932
H	 0.7082447491	-1.2739912342	 1.8799431377	 0.118354
H	 0.2214042946	 0.9168185093	-0.2305909869	 0.097054
H	 0.7423843583	-0.712936254	-0.5873800612	 0.094401
H	-2.7826252256	-0.9987603501	-1.5951994573	 0.125993
H	-1.0523295634	-1.2572622994	-2.0964674299	 0.105613
H	-0.6735034152	-2.7326457779	-0.0779921749	 0.10636
H	-2.4075033669	-2.50253825	 0.4216965957	 0.105613
H	-3.2902980557	-0.3081299862	 0.8118762101	 0.098615
H	-2.0231864454	 0.3523317292	 1.8373457881	 0.101254
H	-1.71545372	 2.2498820442	 0.1147431314	 0.091437
H	-4.7252792627	 1.7388269341	 0.768560006	 0.110454
H	-3.9706295411	 3.3387040619	 0.2678630615	 0.112128
