16
gdb 74128	2.06736	1.72128	0.95013	3.8368	76.85	-0.2632	-0.0476	0.2156	1186.15	0.124154	-437.953568	-437.945338	-437.944394	-437.98719	30.137	
C	 0.1105306339	 1.5131814443	 0.0354982601	-0.474131
C	-0.0204918694	 0.0228663819	-0.0572461238	 0.269343
C	 0.0273063352	-0.6473994729	-1.2119780207	-0.194396
C	-0.1005228241	-2.0947748332	-1.295391787	 0.39023
N	-0.0532660165	-2.7173292699	-2.3965911287	-0.502556
O	-0.2807630492	-2.8049828397	-0.1116036408	-0.238649
C	-0.3457300908	-2.2305175747	 1.1294749209	 0.41606
O	-0.5031905964	-2.9377808412	 2.0806878045	-0.306358
C	-0.2138972242	-0.7221318712	 1.2303923872	-0.456337
H	 0.9626014197	 1.7912220667	 0.6685035319	 0.139108
H	 0.2478506499	 1.967220237	-0.948075323	 0.139205
H	-0.7797181896	 1.9548018961	 0.5007467303	 0.13912
H	 0.1652697585	-0.1517052484	-2.1650979049	 0.123035
H	-0.1621473366	-3.7214977957	-2.2444001922	 0.234824
H	 0.6144613018	-0.5244406958	 1.9237892045	 0.16075
H	-1.1072431222	-0.3629271833	 1.7585708917	 0.160752
