18
gdb 49198	4.34922	1.08492	0.96398	4.5298	84.43	-0.2121	-0.0389	0.1731	1228.7135	0.149579	-401.95545	-401.947825	-401.94688	-401.987947	28.927	
O	-0.0554114756	-0.1515332753	-0.0629925739	-0.300888
C	 0.026656854	 1.0428565728	 0.15738167	 0.062628
C	 1.2285324469	 1.8272198824	-0.0118854824	 0.184996
C	 1.3527678656	 3.1427636435	 0.2863251924	-0.117569
N	 2.5852754153	 3.6816254834	-0.0297911253	-0.075885
C	 3.5081844074	 4.1021025492	 1.0743442481	-0.17584
C	 4.2856588471	 2.7653016714	 0.9232729842	-0.244182
C	 3.4754269145	 2.5144745257	-0.3777050712	 0.032661
C	 2.5534644612	 1.2846209844	-0.5184738431	-0.353833
H	-0.8522519868	 1.6174492202	 0.5302809133	 0.051612
H	 0.5935913581	 3.7812774017	 0.7261888525	 0.125745
H	 4.0805229604	 4.9889651668	 0.7897966196	 0.121094
H	 3.0118688242	 4.2847099321	 2.0306843684	 0.118146
H	 5.369914348	 2.8366787357	 0.8216297992	 0.113093
H	 4.0443392898	 2.0467586866	 1.7104311122	 0.120145
H	 4.0546243198	 2.717253363	-1.2817168354	 0.090722
H	 2.8933876285	 0.4221323836	 0.0665341083	 0.123604
H	 2.4838921717	 0.9476867928	-1.5581421867	 0.123752
