16
gdb 66967	2.61601	1.71581	1.2926	6.6072	72.45	-0.2223	0.0287	0.251	985.9945	0.125805	-396.855907	-396.848269	-396.847325	-396.888006	29.549	
N	 0.085904495	 1.4224745885	-0.0981495267	-0.622448
C	 0.0654336479	 0.0127772287	-0.0333202507	 0.336393
C	-0.1223545225	-0.8864957168	-1.2554192191	-0.060227
N	 0.6081176505	-2.1414300175	-0.9781719437	-0.310689
C	 0.0075889464	-2.0380562338	 0.3963348526	-0.059291
C	-1.0818696838	-1.0088777462	-0.1013472398	-0.183857
C	 0.8119421529	-0.8485516435	 1.0037078194	-0.166946
C	 2.2687197841	-0.91058092	 1.0089003361	 0.288215
N	 3.4236895802	-0.9420149288	 1.0404315913	-0.338308
H	 0.0495931185	 1.7872324271	-1.0398944886	 0.243744
H	-0.6273428053	 1.8665960413	 0.4663215253	 0.239913
H	-0.2491953831	-0.4759063826	-2.2498537664	 0.100735
H	 0.1163259623	-2.8901219614	-1.4653245948	 0.221939
H	-0.1421567721	-2.954945887	 0.9595612506	 0.093899
H	-2.1513002813	-0.9010975837	 0.0200405801	 0.100477
H	 0.4494176904	-0.6117024643	 2.0079866644	 0.116449
