19
gdb 78809	2.40597	1.70755	1.43017	1.7399	74.14	-0.2485	0.0708	0.3193	1008.0806	0.158904	-422.97504	-422.966935	-422.965991	-423.007025	32.806	
C	 0.0007162277	 1.6120244146	-0.0376790098	-0.431116
C	 0.0916331765	 0.0906244077	-0.0227245471	-0.022336
C	 0.8417462224	-0.6918968435	-1.1129740347	-0.079997
C	 2.3178450892	-0.8151020391	-0.7054544833	-0.114344
C	 1.2709996283	-1.7717453706	-0.1602928548	-0.215135
C	 1.0351257234	-0.6318213448	 0.9626889567	 0.371489
O	 0.6832970096	-0.7835859177	 2.2805553004	-0.482457
C	 2.4700824284	-0.1314503192	 0.6433889418	 0.069839
O	 3.4082308786	-0.7446016886	 1.5199416271	-0.458093
H	 0.9670859525	 2.0831789557	-0.2392579829	 0.117573
H	-0.6959623382	 1.9502938665	-0.8120898752	 0.114021
H	-0.3657007885	 1.9857745584	 0.9243818864	 0.126951
H	-0.908997086	-0.3447486947	 0.0830193153	 0.081157
H	 0.5542263968	-0.8147313491	-2.1492996216	 0.089126
H	 3.0922852047	-1.0115069113	-1.4364751522	 0.090705
H	 1.1604049967	-2.8454930243	-0.2022796878	 0.094731
H	 1.5141415718	-0.9134332501	 2.7625473029	 0.284162
H	 2.6729486511	 0.9417611425	 0.7019136984	 0.079791
H	 3.4521962849	-1.6788631425	 1.2795811305	 0.283935
