17
gdb 28415	3.07591	1.35826	0.94869	2.2173	81.02	-0.1926	-0.0108	0.1819	1200.5186	0.137508	-418.084606	-418.0762	-418.075255	-418.117274	32.248	
C	-0.0420769243	 1.5475829595	-0.0144221697	-0.488784
C	 0.0192176947	 0.0453693343	-0.0329960564	 0.201581
C	-0.0063538902	-0.6985663928	-1.2018917092	-0.216813
C	 0.0505484704	-2.1003768438	-1.1711856359	 0.260827
N	 0.093077784	-2.856691821	-2.3532285666	-0.595814
C	 0.1314270165	-2.696786008	 0.0850984629	-0.073006
N	 0.1619809127	-2.0023515986	 1.2286345759	-0.363708
C	 0.1082720432	-0.6848256492	 1.1653811275	 0.345461
O	 0.1376223343	 0.0068357679	 2.3356521924	-0.424728
H	 0.8438389265	 1.9723549185	 0.4698416758	 0.13989
H	-0.1090659064	 1.9519498424	-1.0277316994	 0.115123
H	-0.906780094	 1.9007981848	 0.5577726297	 0.138424
H	-0.0672347482	-0.1858335548	-2.1587951916	 0.087373
H	-0.4137594638	-2.4398678656	-3.1222329317	 0.244201
H	-0.1964256783	-3.8173230165	-2.2279442811	 0.244786
H	 0.1768319801	-3.7802978128	 0.1766058734	 0.092712
H	 0.1994277527	-0.6618558243	 3.0308820639	 0.292475
