25
gdb 57530	3.14619	0.91987	0.87199	1.6162	89.38	-0.2415	0.0735	0.315	1518.964	0.227048	-389.485145	-389.474529	-389.473585	-389.52127	39.678	
C	-0.0855806486	 1.5677621048	 0.0566789974	-0.398052
C	-0.0061257947	 0.029134034	 0.0404744182	 0.262793
C	 0.6175800858	-0.4686374607	 1.3579651974	-0.405539
C	-1.4307502304	-0.5447310974	-0.081196865	-0.402787
C	 0.8064757787	-0.470877262	-1.1820122774	-0.210111
C	 2.2834066751	-0.1170834452	-1.2441106206	 0.146088
C	 3.0551726255	-0.5019982131	-2.5282484912	-0.294559
C	 3.4333710679	 0.9903898767	-2.5770291717	-0.06016
O	 2.551295349	 1.293023146	-1.4780045821	-0.287616
H	 0.9046917155	 2.0224826808	 0.1258109899	 0.13778
H	-0.5554455261	 1.9452184933	-0.8581595584	 0.103391
H	-0.6869466955	 1.909422172	 0.9068623857	 0.097033
H	-0.0215370724	-0.2023163351	 2.206777965	 0.108167
H	 0.7338255707	-1.5587650067	 1.3597200949	 0.102327
H	 1.6004817188	-0.0234112529	 1.5397897414	 0.116757
H	-1.9038659457	-0.2337948227	-1.0193281053	 0.106706
H	-1.4239333167	-1.6405349399	-0.0570566607	 0.10355
H	-2.0636225633	-0.196527709	 0.7424355192	 0.106681
H	 0.7459203863	-1.5689174272	-1.2157229579	 0.08935
H	 0.3305398173	-0.1040122429	-2.1011304624	 0.089559
H	 2.7990556474	-0.4485771834	-0.3322583052	 0.072113
H	 3.8733937012	-1.2144763558	-2.4135871112	 0.10695
H	 2.4062952362	-0.8254054608	-3.345518091	 0.107933
H	 4.4815637939	 1.206808983	-2.3306960126	 0.097838
H	 3.1635081439	 1.5426774141	-3.4844614763	 0.103807
