18
gdb 41943	3.43921	1.46678	1.08262	2.1567	71.62	-0.2495	0.0149	0.2643	1076.2695	0.151354	-439.089692	-439.08252	-439.081576	-439.121536	27.613	
C	 0.004885767	 1.5610629647	 0.0876474426	-0.103356
O	 1.3898355253	 1.9118544589	-0.0666313908	-0.273786
C	 2.2227737765	 0.7503516105	 0.0575726226	-0.103463
C	 1.3169990231	-0.2899811263	 0.7100101526	 0.047288
N	 1.6589801228	-1.6947534267	 0.5894571625	-0.2942
C	 0.6544031191	-2.4694543364	 0.615794011	 0.133398
O	-0.6664351275	-2.1800326849	 0.7287524417	-0.238926
C	-1.0853347872	-0.7907004009	 0.7149101455	-0.113008
C	-0.0185889423	 0.0390015695	 0.0363905837	-0.027608
H	-0.3712678708	 1.9418997597	 1.0499050514	 0.094231
H	-0.5686049803	 2.0376334169	-0.7144377635	 0.107352
H	 2.5648106648	 0.4060776521	-0.9290648069	 0.100051
H	 3.0979908911	 1.0136637417	 0.6584853014	 0.109854
H	 1.2407865645	-0.0382333581	 1.7791295666	 0.092538
H	 0.7787795812	-3.5479772911	 0.542758365	 0.128456
H	-2.0472262262	-0.7847125126	 0.1954031014	 0.123233
H	-1.2477851413	-0.4711908684	 1.7515405412	 0.11831
H	 0.0538415301	-0.2821275887	-1.0112356781	 0.099638
