16
gdb 56076	7.0012	0.49846	0.46934	4.8922	85.09	-0.2653	-0.0395	0.2258	2178.5494	0.121471	-400.765072	-400.755066	-400.754122	-400.802108	33.51	
C	-0.051925168	 1.5155903311	 0.0106952877	-0.476264
C	 0.0679175396	 0.0045280962	 0.001720612	 0.378955
O	 1.1361138964	-0.5619961242	-0.012093335	-0.281443
C	-1.2436480847	-0.7759622963	 0.0099646855	-0.298905
C	-1.0081812804	-2.2966204216	-0.0008793656	-0.384955
C	-2.249366737	-3.0496102031	 0.00688797	 0.029069
C	-3.2935988918	-3.6580885626	 0.0135676634	 0.114478
C	-4.4716597516	-4.3473099568	 0.0212567879	 0.202077
N	-5.4761857867	-4.9311844707	 0.0278773625	-0.338019
H	 0.9413037218	 1.965271943	 0.0033967334	 0.151195
H	-0.6191557072	 1.8584478364	-0.86183929	 0.145091
H	-0.6021141024	 1.8493281899	 0.8975561974	 0.145064
H	-1.827421123	-0.4801940678	 0.8902713398	 0.142028
H	-1.8443291781	-0.4703512327	-0.8554801981	 0.142042
H	-0.4139586102	-2.5682689155	-0.8805300395	 0.164795
H	-0.3970612366	-2.5780838852	 0.8639853887	 0.164792
