18
gdb 81814	2.14161	1.71579	1.16539	3.1029	78.01	-0.2351	0.0469	0.282	1101.9739	0.14615	-401.872136	-401.863304	-401.86236	-401.905309	33.998	
C	-0.1292546456	 1.4869862591	 0.0319795504	-0.510979
C	 0.1186944149	 0.0119548608	 0.0026102333	 0.358828
N	-0.7173252169	-0.9472714315	 0.7633327608	-0.389386
C	 0.7540569791	-0.9117824047	 0.9823782769	-0.161949
C	 1.3018700765	-1.8209669439	-0.1246147954	 0.156404
O	 0.8512743348	-3.1348721874	-0.1370667925	-0.42804
C	 0.682071567	-0.7911930797	-1.1904418049	-0.328388
C	-0.2412426273	-1.2968310312	-2.1815805743	 0.347634
C	-1.010636228	-1.7306395047	-2.9977853736	-0.442601
H	 0.7366913838	 2.0379363386	-0.3499106944	 0.128731
H	-0.9933663413	 1.7505558336	-0.5881620596	 0.14086
H	-0.326589507	 1.8340790438	 1.0521644323	 0.119407
H	-1.1562597337	-0.4365377372	 1.5279990681	 0.230726
H	 1.164734202	-0.7217725543	 1.9670199629	 0.096657
H	 2.3913265646	-1.8426682338	-0.1865714292	 0.095061
H	-0.1046763159	-3.0845646965	 0.0064106077	 0.295918
H	 1.4971868407	-0.2368396559	-1.6676647787	 0.098539
H	-1.6892342676	-2.1125818154	-3.71945848	 0.192578
