21
gdb 111415	2.00742	1.42925	0.96242	1.7987	77.63	-0.253	0.0622	0.3152	1291.2039	0.181342	-424.180814	-424.171276	-424.170331	-424.215574	35.16	
C	 0.1425465403	 1.528960088	-0.2002631469	-0.390583
C	 0.031043098	 0.0007392725	-0.2315474076	-0.187599
C	-1.3766298443	-0.5256520034	 0.039661923	-0.037946
C	-1.5788456808	-2.0476285954	 0.0000481419	 0.012606
O	-0.8704424878	-2.6184011251	 1.1095151632	-0.253094
C	-2.1770151328	-2.0681068723	 1.3404369652	-0.001009
C	-2.0037952599	-0.5471918836	 1.5054599042	-0.050812
C	-1.1882700337	-0.1052431305	 2.7146930911	-0.091252
O	-1.8728040013	-0.3820024387	 3.9318061517	-0.42629
H	 1.1616780978	 1.8530656385	-0.4325905778	 0.115637
H	-0.5280736309	 1.9885197401	-0.9351416914	 0.113488
H	-0.1171380921	 1.9372136476	 0.781510957	 0.123809
H	 0.3372559924	-0.3576901947	-1.2238893369	 0.09465
H	 0.7329355707	-0.4478146032	 0.4786277384	 0.113086
H	-2.0891422418	-0.0406035219	-0.6375934856	 0.075944
H	-1.7441285016	-2.6915183485	-0.8568401962	 0.101219
H	-2.9246479876	-2.7295588483	 1.7634258978	 0.102814
H	-2.9722137011	-0.0387562688	 1.5191984451	 0.083268
H	-0.2005982558	-0.5833709444	 2.6989793453	 0.10624
H	-1.0362375875	 0.9784477666	 2.700093058	 0.10916
H	-1.8497966005	-1.3345338345	 4.0665203508	 0.286666
