15
gdb 124673	3.46903	1.13612	0.91598	1.9894	66.83	-0.2612	-0.0467	0.2145	1216.5525	0.111648	-453.954173	-453.945813	-453.944869	-453.989376	28.673	
C	-0.1752293615	 1.5322967447	 0.0582317975	-0.409203
C	 0.113786873	 0.0212827194	-0.0067451653	-0.168001
C	-1.2170836316	-0.7340577887	 0.0675440387	 0.168333
O	-1.636573301	-1.2587828651	 1.0618004547	-0.236137
C	 0.8548342876	-0.3803955288	-1.2438643255	 0.347123
N	 1.0927674216	 0.4322536034	-2.2405830204	-0.169715
O	 1.7791973765	-0.3678205571	-3.1616752799	-0.152759
C	 1.8678251085	-1.5764754699	-2.605762283	 0.107783
N	 1.3262946367	-1.6673008503	-1.4350453411	-0.297767
H	 0.7540961785	 2.1013863174	-0.0157952566	 0.144619
H	-0.8223325844	 1.8476241659	-0.765111069	 0.141518
H	-0.6660389196	 1.7747766487	 1.003664166	 0.135411
H	 0.6963612041	-0.294787766	 0.8640745355	 0.126658
H	-1.8028309707	-0.7180571659	-0.8796231657	 0.088734
H	 2.3722415521	-2.3443068377	-3.1740374958	 0.173402
