17
gdb 117873	4.18036	0.57135	0.5161	0.7319	87.72	-0.2488	-0.0249	0.2239	2038.0413	0.132225	-421.757964	-421.747424	-421.746479	-421.794316	36.971	
O	-0.0670691562	 1.4542417061	-0.0231800285	-0.423937
C	 0.0331225921	 0.0400845093	 0.0369499373	-0.081161
C	-1.3832411139	-0.5190739676	-0.0262300005	-0.176722
C	-1.4057184241	-2.0572231097	 0.0320064498	-0.123951
O	-0.7752037504	-2.5619534226	 1.2087538759	-0.411443
C	-2.7684652565	-2.5724745698	-0.111102153	 0.378995
C	-3.9037423294	-2.9850544285	-0.1930525824	-0.20955
C	-5.1785041677	-3.4508926919	-0.2887552434	 0.283265
C	-6.3099263247	-3.8640532496	-0.3731146075	-0.550414
H	 0.8158711075	 1.8214622435	 0.0770974119	 0.287156
H	 0.6239803185	-0.3562018837	-0.8060563523	 0.085155
H	 0.5192973499	-0.2961014554	 0.9628746941	 0.103326
H	-1.9722036515	-0.1141667232	 0.8052027304	 0.110185
H	-1.8665510395	-0.1848437282	-0.9505120133	 0.122447
H	-0.7949752025	-2.4495917802	-0.792059912	 0.124858
H	-1.359321813	-2.3760410636	 1.9530412131	 0.287588
H	-7.3047689986	-4.2272443149	-0.4487447397	 0.194203
