13
gdb 992	4.0274	3.14161	1.78163	3.1268	55.54	-0.1829	0.0472	0.23	664.0796	0.103814	-340.655117	-340.648528	-340.647584	-340.68519	24.948	
N	 0.2196311394	 1.4101879754	-0.0496805638	-0.626907
C	 0.0502691611	-0.0078746065	-0.01446734	 0.071456
C	-1.0692029148	-0.8097100409	 0.0992444118	-0.139907
N	-0.645353221	-2.1086649195	 0.0783713977	-0.235074
C	 0.7314238849	-2.1715210648	-0.0470411641	-0.187555
C	 1.1779164974	-0.8733493675	-0.1059803036	 0.314456
O	 2.4571759233	-0.4366248467	-0.2294325924	-0.454835
H	-0.1188061645	 1.8571361672	 0.796098131	 0.240402
H	-0.2700205631	 1.8348036166	-0.8304288039	 0.240395
H	-2.1141043569	-0.5596711316	 0.1915938559	 0.110435
H	-1.2460470099	-2.9095975076	 0.1444697887	 0.260624
H	 1.2572496434	-3.1097723543	-0.0823081953	 0.116231
H	 2.3844703307	 0.5303348102	-0.236608422	 0.290279
