20
gdb 117296	2.99189	0.87176	0.71747	2.2567	78.74	-0.2421	-0.0303	0.2118	1630.1079	0.168351	-440.350388	-440.339707	-440.338762	-440.388375	36.789	
C	-0.6507514968	 0.9561783639	-0.3972932915	-0.372476
C	 0.0014497584	-0.348926452	 0.0624964356	-0.14307
N	 0.4640284546	-1.1600126312	-1.0522551633	-0.305943
C	 1.7601122026	-1.5207928382	-1.2093827613	 0.39552
O	 2.6725618327	-1.1856132455	-0.4745196185	-0.377061
C	 2.0555032121	-2.3732791636	-2.4600928991	-0.41715
C	 1.0396356631	-3.4433151562	-2.8432874471	 0.384551
C	 1.6040952666	-4.7776434928	-3.2766012389	-0.471377
O	-0.1571155247	-3.2357912709	-2.820549907	-0.312322
H	 0.0614284607	 1.5706994991	-0.9557120314	 0.127273
H	-1.5136091604	 0.7637072375	-1.0440420124	 0.115867
H	-1.0009550078	 1.5318394039	 0.4653692717	 0.117925
H	 0.8778692524	-0.1484484285	 0.6820494914	 0.14654
H	-0.7074455922	-0.9295386165	 0.667010991	 0.106911
H	-0.2059265054	-1.5887124668	-1.6792290141	 0.262751
H	 2.1128896492	-1.6846741396	-3.3148872463	 0.158948
H	 3.0519026748	-2.7961526992	-2.3259975461	 0.136767
H	 2.3392741166	-4.6397022055	-4.0774219236	 0.146046
H	 2.1378560451	-5.2391302633	-2.4373081384	 0.154116
H	 0.8023355584	-5.4363673043	-3.6115907506	 0.146183
