14
gdb 133670	3.0181	1.17995	1.07931	2.661	50.41	-0.2901	0.07	0.3601	1096.6059	0.096259	-605.302259	-605.29395	-605.293006	-605.335921	29.904	
O	-0.1544791444	 1.381109554	-0.0006883019	-0.42279
C	-0.0505550019	-0.0162361846	-0.0117521894	-0.053917
C	 0.5992772219	-0.5164745959	-1.2959179246	 0.048282
C	 0.3314240495	 0.1617971325	-2.5661231027	-0.187957
O	 1.5554356828	 0.3923422472	-1.8493800027	-0.240218
C	 0.7385065463	-0.5001585288	 1.2122355392	 0.268005
F	 0.1486866614	-0.1299311938	 2.349676873	-0.065413
F	 0.8260544486	-1.8434246334	 1.2126376198	-0.084162
F	 1.9839903649	-0.0077096207	 1.2107709464	-0.079148
H	 0.6801596497	 1.7087515627	-0.3680729882	 0.302732
H	-1.0593287486	-0.4334375141	 0.0846057673	 0.126375
H	 0.9024843942	-1.5611493671	-1.3012251772	 0.121401
H	 0.4415673701	-0.3869780827	-3.498566644	 0.130076
H	-0.3559805544	 1.0036787246	-2.580726805	 0.136734
