19
gdb 56262	5.65019	0.59933	0.56577	3.2474	73.56	-0.2669	0.017	0.2839	1938.6386	0.156549	-460.177926	-460.167806	-460.166861	-460.215506	34.113	
C	 0.0255039407	 1.4130033656	-0.1375436397	-0.478368
C	 0.0569683922	-0.0855369512	 0.0458562664	 0.425327
O	 0.1661544231	-0.6643941383	 1.0963906911	-0.346701
O	-0.0557318857	-0.7132071243	-1.1453738957	-0.242712
C	-0.0272808234	-2.1505044179	-1.1003476363	-0.055053
C	-0.2413727831	-2.6542570356	-2.5214747207	-0.244893
C	-0.2428639439	-4.1623014011	-2.5780147182	 0.093441
C	 0.3283419929	-4.9034922851	-3.7081339439	-0.179361
O	 1.0316698029	-4.8048411161	-2.4690934357	-0.233408
H	 0.8570350741	 1.729445119	-0.7737798805	 0.149927
H	-0.8991243323	 1.7117484008	-0.6392467928	 0.148101
H	 0.0966245881	 1.898649284	 0.8347874427	 0.148542
H	 0.9354820318	-2.4847307587	-0.7022374172	 0.138221
H	-0.8079857267	-2.5058602445	-0.4195139154	 0.120924
H	-1.1968809929	-2.2731423604	-2.9022591562	 0.112155
H	 0.5504324676	-2.2652927408	-3.1698969117	 0.115305
H	-1.0291117885	-4.6530875116	-2.0004250309	 0.095815
H	-0.0507071602	-5.894208918	-3.95468751	 0.117494
H	 0.7677439734	-4.3544749957	-4.5401783453	 0.115243
