19
gdb 65148	4.01343	0.97089	0.95542	3.8396	76.38	-0.2468	0.0338	0.2807	1296.0941	0.15945	-419.205807	-419.19702	-419.196076	-419.239704	33.162	
C	 0.1239717174	 1.5578325566	-0.1285175479	-0.486236
C	 0.0609513255	 0.0457366627	-0.0666876426	 0.317394
C	 1.1988940962	-0.7358358257	-0.6272786537	-0.282294
N	 0.9850682989	-0.6731218956	 0.8298144769	-0.343536
C	-1.3128302973	-0.5965161784	-0.1045889894	 0.025279
C	-2.4443602933	-0.0487267856	 0.8211132688	-0.418888
C	-3.233770347	 0.2140593097	-0.4839081478	 0.432339
O	-4.3323310867	 0.6025335497	-0.7733246365	-0.357443
N	-2.1636339747	-0.2089241883	-1.2421970271	-0.331284
H	 1.1598868706	 1.8991661746	-0.2166148748	 0.115758
H	-0.4331489259	 1.9388691887	-0.9894855651	 0.13764
H	-0.3015775759	 2.0147096269	 0.771619547	 0.127639
H	 1.0314790373	-1.714864583	-1.0696005416	 0.115041
H	 2.0286467292	-0.1828433197	-1.0596194522	 0.113438
H	 1.6403030006	-0.017350675	 1.248302398	 0.230904
H	-1.1877949207	-1.6800715172	-0.0076070172	 0.090254
H	-2.9040082227	-0.788911032	 1.4774448829	 0.136613
H	-2.203675675	 0.8468081484	 1.3948556438	 0.130146
H	-2.1060772464	-0.4336136969	-2.2252700015	 0.247234
