17
gdb 14040	4.78767	1.63562	1.5247	1.3834	68.48	-0.2428	0.0217	0.2645	878.3175	0.14422	-363.867679	-363.860816	-363.859872	-363.899315	25.963	
C	 0.1630900651	 1.4542183295	-0.4928115393	-0.214076
C	 1.4397555706	 1.5796119821	 0.3811068837	-0.267144
C	 1.292029882	 0.0816141449	 0.7793404704	 0.327846
C	-0.1760498595	 0.1421863782	 0.2640815496	-0.267141
C	 2.2322686193	-0.9157401441	 0.0477665619	-0.167994
O	 2.8406583267	-1.6864102788	 1.1115898769	-0.219918
C	 2.312698973	-1.1857506451	 2.2522564288	 0.104165
N	 1.4732377466	-0.2377658291	 2.2000650394	-0.302101
H	-0.5637486584	 2.2663129904	-0.4321119806	 0.103732
H	 0.395493583	 1.2788108744	-1.5471349501	 0.101164
H	 2.3735685985	 1.8701731793	-0.1090122322	 0.093788
H	 1.2846484824	 2.2162633284	 1.2551234192	 0.118707
H	-0.8594324207	 0.3088818494	 1.0998379904	 0.118706
H	-0.5299742123	-0.7128288966	-0.3193012811	 0.093789
H	 1.7024193313	-1.6096024815	-0.6117272795	 0.118393
H	 3.0326408909	-0.4263081073	-0.5152444423	 0.11839
H	 2.6721042715	-1.6635021841	 3.1572176047	 0.139693
