18
gdb 113569	4.0916	1.0558	0.95934	1.646	74.33	-0.2303	0.021	0.2512	1261.433	0.147531	-439.068149	-439.059703	-439.058759	-439.101733	30.852	
C	 0.0565724034	 1.2164093006	-0.2923113276	-0.230948
O	-0.1781143804	 0.1154949788	 0.5655853432	-0.244561
C	-1.3956007513	-0.514069535	 0.3304211666	 0.071292
C	-1.4897769979	-1.5518581676	-0.7668818367	-0.378212
C	-1.4469760179	-1.9688604866	 0.6862481463	 0.282843
C	-0.25017751	-2.6826025237	 1.3226642258	-0.170554
O	-0.8774954851	-3.5714647941	 2.2830845542	-0.224922
C	-2.2079145324	-3.354903123	 2.159138304	 0.104921
N	-2.6347167871	-2.5051707758	 1.3179695706	-0.30686
H	 1.0346694318	 1.6256914749	-0.0295898106	 0.129232
H	 0.0624272849	 0.9120631996	-1.348409201	 0.111898
H	-0.7053710599	 1.9984146156	-0.1601105415	 0.111757
H	-2.2800441653	 0.0871852914	 0.5411809005	 0.100175
H	-2.4310226888	-1.6660197708	-1.2922767582	 0.126721
H	-0.5950490592	-1.7337061523	-1.3545288329	 0.117433
H	 0.328878787	-3.2910753337	 0.621833977	 0.119142
H	 0.4200688473	-2.0032617826	 1.8544752914	 0.139372
H	-2.8250031993	-3.9525540458	 2.8198957586	 0.14127
