18
gdb 64780	3.54986	1.08005	1.00976	3.0906	71.4	-0.2582	0.018	0.2763	1211.772	0.147512	-439.102439	-439.093563	-439.092619	-439.136984	32.358	
O	-0.248751255	 1.243850367	-0.1743569763	-0.472643
C	 0.0121778842	-0.140725116	 0.0060540095	 0.337366
C	 0.7637853424	-0.3662304805	 1.339471626	-0.395684
C	 2.0431767351	 0.3408225649	 1.348236989	 0.247944
N	 3.0382742657	 0.9274096003	 1.3027870363	-0.306329
C	-1.3524277971	-0.8410766729	-0.043273903	-0.252513
C	-1.5519626402	-0.9970376127	-1.5509410942	-0.077961
O	-0.2625976983	-1.3349474655	-2.0555551388	-0.259431
C	 0.7326558287	-0.7533905401	-1.224786919	-0.087962
H	 0.5899953167	 1.6990674422	-0.3161010097	 0.294765
H	 0.1494425247	 0.0130178272	 2.1625329587	 0.161881
H	 0.9381990917	-1.4330121771	 1.5130825158	 0.152994
H	-1.2961194504	-1.8225031523	 0.438082391	 0.106312
H	-2.1214030154	-0.2411236603	 0.4470285956	 0.122239
H	-2.2418180257	-1.7992295257	-1.8257326064	 0.11119
H	-1.9100772596	-0.0550720573	-1.989560625	 0.109801
H	 1.2817176009	 0.0293886718	-1.765729565	 0.103926
H	 1.4503426116	-1.5332299332	-0.9398730143	 0.104105
