14
gdb 46437	3.96598	1.2099	1.09643	1.0309	69.49	-0.2729	-0.0211	0.2518	1075.2186	0.102877	-432.862842	-432.855586	-432.854642	-432.894764	27.172	
N	-0.083768916	 1.2375704409	 0.3124921943	-0.541612
C	-0.0256061965	 0.0168101371	 0.0102516272	 0.486852
O	 1.1151585737	-0.6871115219	-0.2708353691	-0.250255
C	 0.8300294319	-1.9664574918	-0.8534814111	-0.130867
C	-0.6706241139	-2.1695434734	-0.6807060464	 0.186886
N	-1.058575017	-2.0926374496	 0.7428377778	-0.348569
C	-1.2007272985	-0.8941382321	-0.1100413166	-0.203941
C	-1.4065322989	-2.9829434705	-1.6026004771	 0.2002
N	-1.988950127	-3.6604051421	-2.3373006871	-0.324333
H	 0.8447655229	 1.6627374853	 0.3015105577	 0.234368
H	 1.1067071291	-1.9539108069	-1.9127979028	 0.138055
H	 1.4125218679	-2.7250012721	-0.3253092584	 0.145648
H	-1.9765333686	-2.5166864889	 0.868623224	 0.261517
H	-2.1770443192	-0.4902662641	-0.3414717424	 0.146052
