18
gdb 103048	2.46905	1.47147	1.09381	3.4059	76.63	-0.257	0.0199	0.2768	1141.4571	0.147275	-401.918574	-401.910001	-401.909057	-401.952017	31.841	
C	 0.1731989377	 1.469165707	-0.1839117755	-0.390252
C	-0.1361106008	-0.0056231437	 0.0959200788	-0.273348
C	 0.6665757778	-0.5696044382	 1.2625991671	 0.124284
C	 0.5320423853	 0.1511471712	 2.5059217934	 0.246781
N	 0.4216705453	 0.7375247634	 3.4977638718	-0.347781
C	 0.915889177	-2.0686271482	 1.5069312453	-0.177544
C	 1.1589347836	-2.7713959335	 0.1775741688	-0.119619
O	 2.1757590219	-1.7935132976	-0.1883169617	-0.283787
C	 2.0539221365	-1.1800997874	 1.0870821951	 0.082853
H	 1.2288343375	 1.605489744	-0.4388765172	 0.127112
H	-0.4256856954	 1.8317643909	-1.024099002	 0.119148
H	-0.048533638	 2.0963057697	 0.6846744895	 0.142118
H	-1.2042110755	-0.1356629216	 0.3042309795	 0.113593
H	 0.0964072236	-0.5960681868	-0.7932394807	 0.126711
H	 0.691430538	-2.5368871064	 2.454780837	 0.128241
H	 1.6147865561	-3.7588298135	 0.3012675705	 0.128052
H	 0.3414580487	-2.8246389066	-0.5480800268	 0.120903
H	 2.9479426307	-0.8200108725	 1.5816256272	 0.132536
