16
gdb 123855	3.96976	1.61339	1.38812	3.6877	72.97	-0.2543	0.0091	0.2634	930.6188	0.128451	-396.899562	-396.893218	-396.892274	-396.930542	24.772	
C	 0.112846595	 1.5344672255	-0.1947358973	-0.229442
C	 1.5998588702	 1.5196497576	 0.2632617316	-0.222445
C	 1.5368338686	-0.0285627764	 0.480489539	-0.186122
C	 0.0012427781	 0.0048137602	 0.0533744716	-0.005074
N	 0.4200920642	-0.824793282	-1.0963062548	 0.075693
N	 0.2041946933	-1.1275293956	-2.4006243444	-0.28027
C	 1.4631731299	-1.361830455	-2.7847642375	 0.028664
N	 2.4574020806	-1.1451717342	-1.856521095	-0.36272
C	 1.726587023	-0.8033185278	-0.8114936859	 0.340845
H	-0.5392838524	 2.1125729967	 0.4628215592	 0.119861
H	-0.0803673602	 1.8300700261	-1.2270405182	 0.134059
H	 2.3441539302	 1.8505671322	-0.4619065877	 0.130239
H	 1.7585419162	 2.0598277472	 1.1984818234	 0.116277
H	 1.8977674002	-0.4442089141	 1.4189179178	 0.10558
H	-0.8289865574	-0.3911940921	 0.6362122511	 0.107855
H	 1.6782823605	-1.7216134584	-3.7808698229	 0.126998
