16
gdb 29123	3.03222	1.36327	0.94587	4.0578	77.02	-0.1968	-0.0324	0.1644	1178.5043	0.125093	-437.960432	-437.952229	-437.951285	-437.99297	31.227	
C	-0.02975835	 1.505474481	-0.0174684143	-0.470955
C	-0.0386471009	 0.0066590988	-0.0041037465	 0.139075
C	-1.1706005328	-0.7437417492	-0.1068459772	-0.206038
C	-1.1403382396	-2.1695299255	-0.0904771995	 0.303729
O	-2.3440380815	-2.8107544556	-0.201240213	-0.444985
C	 0.0614119756	-2.7914501219	 0.0320042935	-0.118401
N	 1.2039073136	-2.0340436542	 0.1357307239	-0.367732
C	 1.2669746505	-0.6416437487	 0.1287236929	 0.379994
O	 2.3409832936	-0.0607860268	 0.2274934582	-0.404048
H	 0.5910279705	 1.8785911743	-0.8391482388	 0.144474
H	-1.039002772	 1.911385927	-0.1189811549	 0.113398
H	 0.4226622306	 1.8950967802	 0.9008224475	 0.144483
H	-2.141913668	-0.2676096829	-0.2055611085	 0.112963
H	-2.2048517225	-3.7629434824	-0.1787838308	 0.297258
H	 0.1876170162	-3.8671923712	 0.0543904019	 0.117177
H	 2.1007543268	-2.4893006529	 0.2270914156	 0.259608
