22
gdb 121633	4.16612	0.70645	0.61571	4.1577	82.85	-0.2343	0.0352	0.2695	1877.9672	0.190903	-441.499791	-441.488258	-441.487314	-441.537986	38.805	
C	-0.0178768211	 1.5123128149	-0.0340244509	-0.384522
C	 0.0166445897	-0.0061832368	-0.0240257768	-0.02685
O	 0.676100786	-0.4436808574	-1.1950882965	-0.214694
C	 0.761048339	-1.8331176516	-1.2844036224	-0.19484
C	 1.4915349646	-2.1946184937	-2.5880090782	 0.395051
O	 1.8832695139	-1.3321799249	-3.3478502604	-0.354423
N	 1.6658845175	-3.536239772	-2.8347648898	-0.090277
C	 2.3747654571	-3.9409930925	-4.0365658792	-0.341858
C	 1.2574868358	-4.6158195775	-1.95969408	-0.337339
H	 0.9975375101	 1.9170550485	-0.0585701088	 0.131812
H	-0.5516563373	 1.8761032371	-0.9161741076	 0.131911
H	-0.5231076831	 1.8879974375	 0.8607984705	 0.111728
H	 0.5437111726	-0.3771901623	 0.8723044084	 0.08286
H	-1.0069636431	-0.4180637048	 0.0142124985	 0.082848
H	 1.3064133462	-2.2544427342	-0.4210149784	 0.101806
H	-0.2434803878	-2.2931839174	-1.2788081396	 0.102629
H	 3.2946640102	-4.483543528	-3.7817952968	 0.118116
H	 1.7479253292	-4.6009012246	-4.6495121511	 0.11833
H	 2.6263230494	-3.0456721336	-4.6022819757	 0.171433
H	 0.6675994599	-4.253802596	-1.1200982568	 0.142116
H	 0.6454938918	-5.3419701648	-2.5106089178	 0.12802
H	 2.1286048592	-5.152773466	-1.5583083505	 0.126142
