15
gdb 57229	3.05732	0.82191	0.74835	2.6678	88.32	-0.263	-0.0372	0.2257	1527.3492	0.110087	-379.616867	-379.607099	-379.606155	-379.651537	35.276	
C	-0.0234792738	 1.5465003101	 0.0228326122	-0.384621
C	 0.0154733042	 0.0001604284	 0.0127686609	-0.195678
N	 0.7557264871	-0.4571992111	 1.1993898326	-0.501263
C	-1.3845686815	-0.5139025028	 0.0017478745	 0.274846
N	-2.4669645893	-0.9161849039	 0.0589574073	-0.337794
C	 0.695035223	-0.4852282389	-1.1929996417	 0.635816
C	 1.2584269337	-0.8703963719	-2.1904038434	-0.372393
C	 1.8932727582	-1.3061116484	-3.3121930153	 0.310736
C	 2.4567589845	-1.692451285	-4.3070704052	-0.560486
H	 1.0022086005	 1.9184005684	 0.0318237642	 0.15113
H	-0.5470871055	 1.925130937	-0.8564350487	 0.148701
H	-0.5433266953	 1.8954697067	 0.9196203507	 0.133984
H	 0.2482143981	-0.1794841494	 2.0357995443	 0.244724
H	 0.8072518645	-1.4718818045	 1.2049391362	 0.251167
H	 2.9516239916	-2.0328297247	-5.1829802686	 0.201132
