18
gdb 97239	2.45824	1.51134	0.97324	4.6343	77.13	-0.2479	-0.0584	0.1896	1209.4449	0.147255	-439.110306	-439.101432	-439.100488	-439.145226	31.665	
C	-0.2155269805	 1.4377740551	 0.1326470862	-0.321441
N	-0.1237370685	-0.0093599848	 0.0730920295	-0.246401
C	 0.7235619055	-0.5992861293	 0.8022420931	 0.281021
O	 1.5228480439	 0.0893866884	 1.6729564724	-0.266592
C	 2.6469702909	-0.5504372449	 2.2874987623	-0.070797
C	 2.2940762605	-1.9346650712	 2.8038335751	-0.236576
C	 1.856539991	-2.8027029497	 1.6229125504	-0.308789
C	 0.8022633697	-2.1265432225	 0.7560127247	 0.323742
O	 0.0594238368	-2.7583111022	 0.0495792237	-0.274705
H	 0.7618465831	 1.9284278943	 0.2169374466	 0.121252
H	-0.7313839952	 1.7985909868	-0.7603397022	 0.125598
H	-0.8066425855	 1.7423210988	 1.0067496834	 0.131781
H	 3.4722756067	-0.608557906	 1.5631158162	 0.11043
H	 2.9512870234	 0.1237911635	 3.0915352244	 0.123546
H	 3.1587240332	-2.3724055093	 3.313315362	 0.11441
H	 1.4885364775	-1.8496616049	 3.5424286101	 0.122594
H	 2.7200055247	-2.9935952856	 0.9689419351	 0.135227
H	 1.4703766328	-3.7802698265	 1.9222242571	 0.135699
