12
gdb 21813	7.26428	1.22065	1.11937	0.8284	56.58	-0.2807	-0.0543	0.2263	983.4805	0.084185	-410.824383	-410.817508	-410.816564	-410.857212	22.706	
O	-0.0088417513	-0.0461659434	 0.3531272495	-0.214385
C	 0.0730670529	 0.9775167623	-0.2643487267	 0.155978
C	 1.2566301229	 1.9344460093	-0.0995330966	-0.232278
N	 1.3221348139	 2.9127044695	-1.1618887621	 0.138794
N	 1.5581756528	 2.5891504836	-2.4291497064	-0.244376
C	 1.4857459377	 3.7772926968	-3.0154343265	 0.084426
N	 1.2136897737	 4.7755158418	-2.1437391436	-0.201044
N	 1.1080753613	 4.2116121438	-0.9683532391	-0.115296
H	-0.7038433833	 1.3138650421	-0.9831675649	 0.112246
H	 1.1424590433	 2.488304572	 0.8363587993	 0.185079
H	 2.1839025714	 1.3583732175	-0.0595453269	 0.175339
H	 1.6302388049	 3.9257766546	-4.073043266	 0.155517
