17
gdb 39156	2.94098	2.17382	1.54902	3.6162	71.27	-0.2401	-0.0136	0.2265	864.1646	0.139886	-417.971608	-417.965424	-417.96448	-418.001945	25.79	
C	 0.0497602058	 1.5871947035	 0.1708266887	-0.194959
N	 1.4781146634	 2.0627504764	 0.1312597186	-0.345983
C	 2.127210861	 0.8443409091	 0.5137062766	 0.237742
N	 2.6653254013	 0.6303659599	 1.6415190469	-0.191299
C	 2.5155353606	-0.8138025964	 1.9325664067	-0.184314
C	 1.4050252201	-1.2941651153	 0.9776964043	 0.11107
O	 0.0912102587	-0.7203158013	 1.2794541709	-0.322465
C	 0.0585113416	 0.02835266	 0.0218944994	 0.112471
C	 1.5151364289	-0.3547691479	-0.2158797264	-0.18742
H	-0.3872639223	 1.8523523853	 1.1374374477	 0.141219
H	-0.5256120869	 2.0699914701	-0.6233580072	 0.108908
H	 1.7062452082	 2.2973747307	-0.8320443239	 0.227801
H	 3.4494935853	-1.369942195	 1.7759044126	 0.109972
H	 2.235156985	-0.9235844447	 2.9850471606	 0.127477
H	 1.342111876	-2.3759387804	 0.8331246928	 0.079086
H	-0.7285330717	-0.3520527861	-0.6358400519	 0.082023
H	 1.9271851548	-0.6208591678	-1.1883515566	 0.088671
