15
gdb 71111	2.54916	2.19576	1.63584	2.4314	62.84	-0.2301	-0.0282	0.202	849.957	0.112521	-457.761882	-457.755013	-457.754069	-457.793022	27.148	
C	 0.0775821198	 1.4811990028	 0.0271254736	-0.504085
C	 0.0221664909	-0.0105455451	 0.0221013218	 0.285064
O	 0.6423730996	-0.6191080102	-1.1156626049	-0.277654
C	 0.5083330587	-1.9805980611	-0.7341383714	 0.051216
C	 0.5219508785	-1.9860595677	 0.754862998	 0.05136
O	 0.6626756149	-0.6274419784	 1.1440408063	-0.277631
C	-0.8182221857	-2.1592756373	 0.021922255	-0.326305
C	-1.3504346131	-0.7587459527	 0.0313951045	 0.502491
O	-2.4621398376	-0.3139220712	 0.0442655218	-0.333418
H	 1.114742149	 1.8225983602	 0.0189557862	 0.143363
H	-0.4394011874	 1.8681906374	-0.8532805679	 0.149347
H	-0.4232694024	 1.8616199258	 0.9196368133	 0.149372
H	 0.9479088977	-2.7018674027	-1.4062387651	 0.13209
H	 0.9737230378	-2.7121903252	 1.4135070545	 0.132111
H	-1.4185084705	-3.0553089447	 0.0242962243	 0.122677
