19
gdb 24611	4.89497	1.05613	0.89725	1.4075	83.72	-0.1666	0.0556	0.2222	1296.3502	0.161821	-382.077494	-382.069468	-382.068524	-382.110522	30.75	
C	-0.1881247706	 1.534375159	 0.0896026305	-0.235263
C	 1.325647338	 1.5317186397	-0.2432855666	-0.161715
N	 1.419949373	 0.186745712	 0.3404302327	-0.154135
C	-0.0418688398	 0.0089394455	 0.3278321005	-0.163636
C	 2.3019987331	-0.7771684741	-0.138972573	 0.309103
C	 3.4920478416	-0.5527241945	-0.8058517305	-0.195488
N	 4.062432464	-1.7853796471	-1.0570921602	-0.238139
C	 3.2578155436	-2.7778786033	-0.5764633893	-0.065693
C	 2.1549484255	-2.1910159119	 0.002111423	-0.256537
H	-0.4282912924	 2.0911811112	 0.9969349956	 0.111866
H	-0.8629224827	 1.8397767645	-0.7101909441	 0.106238
H	 1.5308582224	 1.5429458678	-1.3259707869	 0.087727
H	 1.9537965447	 2.2886782149	 0.2399183547	 0.099589
H	-0.4628014828	-0.4005195185	 1.2526786546	 0.101162
H	-0.3965617722	-0.5969762526	-0.5197621769	 0.093348
H	 3.9793646365	 0.3621442286	-1.09755577	 0.105235
H	 4.9360616126	-1.9260695951	-1.5304998037	 0.257429
H	 3.5274728239	-3.8163224814	-0.6827260928	 0.11282
H	 1.3356501915	-2.7062687946	 0.4787393122	 0.08609
