16
gdb 44528	4.50185	1.29371	1.15357	2.8645	76.21	-0.2414	-0.0533	0.1881	1041.6123	0.125689	-400.702976	-400.696241	-400.695297	-400.734095	27.046	
O	 0.0505076989	 0.0659720004	 0.3093963932	-0.317873
C	-0.009766293	 1.2443250866	 0.0659073714	 0.390154
C	-1.3320671854	 2.0412127891	-0.220306286	-0.377687
C	-0.7812761355	 3.3203965417	-0.8427308141	 0.00958
N	-1.0154255719	 4.80434728	-0.5128186757	-0.166196
C	-0.5816480565	 5.0384026032	 0.8693062809	-0.224158
C	 0.4825894525	 4.8742712617	-0.1623402398	-0.148044
C	 0.6218608111	 3.3974439715	-0.3375971145	 0.296666
C	 1.1186126099	 2.237376212	 0.0966293153	-0.354483
H	-2.0210979476	 1.4625796677	-0.8374199983	 0.129064
H	-1.8138938388	 2.224775893	 0.7473763332	 0.138413
H	-0.8228724156	 3.2806343125	-1.9356121799	 0.118631
H	-0.7928942964	 6.0484347677	 1.2082311487	 0.134872
H	-0.7101561372	 4.2692206884	 1.6265997658	 0.127586
H	 1.1252852985	 5.6795567919	-0.4951344055	 0.121658
H	 2.0831177368	 2.0030112225	 0.5269929353	 0.121819
