19
gdb 85311	2.42726	1.68769	1.15089	1.7895	74.78	-0.2402	-0.0232	0.217	1091.5831	0.159888	-423.043844	-423.035795	-423.034851	-423.076559	30.785	
C	 0.1035633003	 1.569647363	 0.0077296436	-0.404637
C	 0.0739011106	 0.0426890686	-0.0094080128	-0.000674
C	 0.7927303845	-0.6133862936	-1.2048445005	-0.337458
C	 1.1643186894	-2.0184377666	-0.7223074035	 0.398398
O	 1.3169491789	-2.9950295995	-1.4095015387	-0.318472
C	 1.2958578145	-1.9780131372	 0.8000528238	-0.189665
C	 2.6534855688	-1.4012260489	 1.2716903262	-0.084026
O	 2.0795849976	-0.0930809634	 1.4599976084	-0.293489
C	 0.7404508113	-0.5982691374	 1.2185338968	 0.112341
H	 1.1348790378	 1.9261821348	 0.0826869168	 0.137712
H	-0.3408383697	 1.983372463	-0.9026480077	 0.116037
H	-0.4536122929	 1.9664311789	 0.8630361716	 0.115293
H	-0.9704295534	-0.301636594	-0.0063672127	 0.081223
H	 0.2091982768	-0.6550329014	-2.1263864834	 0.125964
H	 1.7251373983	-0.0774339498	-1.4294785661	 0.135822
H	 0.953020547	-2.8963935612	 1.2739730914	 0.100741
H	 3.0081467868	-1.8323058463	 2.2159460755	 0.11199
H	 3.4756033594	-1.3998928755	 0.5466277745	 0.116262
H	 0.127698284	-0.5398440334	 2.1250279667	 0.076635
