22
gdb 78035	2.25621	1.53198	1.30689	0.801	82.19	-0.2184	0.0862	0.3046	1143.3998	0.193442	-404.333541	-404.324151	-404.323207	-404.367033	35.834	
C	-0.1733924755	 1.8154928988	 0.7564315329	-0.399024
C	-0.5018977487	 0.3228840246	 0.7192209633	 0.102887
O	-0.3450025874	-0.2203417509	-0.6001414124	-0.272013
C	 0.90286372	-0.8988970614	-0.7048975229	-0.146746
C	 1.3388459926	-1.2610138532	 0.7074845468	 0.301862
C	 2.8007565708	-1.5321428991	 0.9640145117	-0.47458
C	 0.4222603943	-0.4927332684	 1.6082242259	-0.099676
N	 0.3690220108	-1.9472475213	 1.5551408379	-0.141934
C	-0.7829099394	-2.6690785626	 1.0241966032	-0.335817
H	 0.8831199491	 1.9926691016	 0.5296715075	 0.117295
H	-0.777992925	 2.3494978943	 0.0186793421	 0.125817
H	-0.3855363731	 2.2351703068	 1.745584279	 0.114957
H	-1.5590926779	 0.1784295273	 0.979402368	 0.084002
H	 0.7516793047	-1.7710256853	-1.353480994	 0.10498
H	 1.6684256275	-0.2617836933	-1.1752371225	 0.094215
H	 3.4217431543	-0.681243703	 0.6627758245	 0.11509
H	 2.9653813139	-1.7309765139	 2.0252029326	 0.131661
H	 3.1428283717	-2.4098384654	 0.4029254149	 0.119789
H	 0.7415992193	-0.0556597371	 2.5518623951	 0.086216
H	-1.2599037562	-2.2093848751	 0.1502740689	 0.133002
H	-0.4613095329	-3.6807280711	 0.7564838412	 0.118396
H	-1.5281101028	-2.7624396223	 1.8208399763	 0.11962
