17
gdb 87066	2.47849	1.35136	1.08577	1.2705	74.94	-0.2443	0.0405	0.2848	1155.7168	0.132824	-421.743401	-421.734213	-421.733269	-421.777509	33.879	
O	 0.0368497161	 1.3601372936	 0.1128204679	-0.412292
C	-0.0111131716	-0.0245565038	 0.0496518759	 0.085268
C	-0.387433004	-0.7423012379	 1.2999678481	-0.339486
C	-1.3695498437	-0.7388034684	 0.1228954179	 0.065601
C	-2.5342711614	 0.095746865	 0.2023654697	 0.236781
C	-3.5039641408	 0.806989806	 0.2409867088	-0.432733
C	-1.4986931049	-2.0194037088	-0.6548740114	 0.048014
C	-2.7791606637	-2.6925133873	-0.8986309213	-0.200957
O	-2.1230413693	-1.9524698571	-1.934271624	-0.236608
H	-0.4943090201	 1.7157731	-0.6090360291	 0.296414
H	 0.7249103716	-0.4886634229	-0.6074111915	 0.099343
H	 0.100325626	-1.6813109904	 1.5385710319	 0.121997
H	-0.6533675618	-0.1240499928	 2.1481250915	 0.142218
H	-4.3633838534	 1.4289221607	 0.2873792464	 0.195415
H	-0.5959826455	-2.6331144288	-0.6309702941	 0.088118
H	-2.8021702888	-3.772564418	-1.0370736293	 0.114898
H	-3.6937903045	-2.2421046592	-0.5196487374	 0.128007
