18
gdb 56519	2.5877	1.2411	1.06097	5.3464	78.17	-0.2512	0.0155	0.2667	1191.0771	0.145696	-398.091094	-398.080711	-398.079767	-398.125723	38.301	
C	-0.0652791944	 1.5702820969	 0.1167077214	-0.41304
C	 0.0112667348	 0.035624112	 0.0420706231	 0.088291
N	 0.6637501676	-0.4617548248	 1.2564732312	-0.525
C	-1.3545944373	-0.5246462639	 0.014160996	 0.312038
N	-2.4115915712	-0.9900175089	 0.0093669068	-0.343987
C	 0.7315950281	-0.4340459077	-1.2832779915	-0.199085
N	 0.0356402468	 0.07955495	-2.4659160795	-0.493302
C	 2.1586203358	-0.0902595142	-1.2303196811	 0.308321
C	 3.3189065671	 0.2297066413	-1.2155024384	-0.442874
H	 0.9466644911	 1.986112201	 0.0969703061	 0.127999
H	-0.6353225821	 1.9742310187	-0.7218305332	 0.141687
H	-0.5479778056	 1.8653102763	 1.0496059772	 0.149491
H	 0.6904341279	-1.4778508644	 1.2540361064	 0.23838
H	 1.6282245795	-0.1396795653	 1.2605576651	 0.23983
H	 0.6385890205	-1.5263453398	-1.3030235182	 0.120288
H	 0.3531690625	 1.0208471329	-2.674770767	 0.240253
H	 0.2638140944	-0.4869654995	-3.2759869662	 0.245023
H	 4.3472299445	 0.4973299294	-1.2142716283	 0.205688
