23
gdb 104868	2.21998	1.34336	1.07558	1.3641	86.77	-0.233	0.0307	0.2636	1269.7796	0.205668	-388.301906	-388.292038	-388.291094	-388.336663	37.197	
C	 0.8470022831	-0.7619471244	-1.1960753137	-0.398475
C	 0.0316179298	-0.1328394465	-0.0604370947	-0.211722
C	-1.4861217372	-0.4320255214	-0.0839097242	 0.27639
C	-2.1274376576	 0.081335839	-1.385599004	-0.108465
O	-1.8910148	 1.4792522404	-1.4866490922	-0.428304
C	-1.8127221543	-1.9466914673	 0.1099470273	-0.273412
C	-2.9570471051	-2.0298378538	 1.1553702705	-0.261411
C	-2.9606151726	-0.6527211928	 1.7720309488	-0.082468
C	-2.1806279891	 0.1986727707	 1.1116401285	-0.088414
H	 1.9154248499	-0.5749101395	-1.0490775143	 0.110421
H	 0.7072058027	-1.8472096034	-1.2469650549	 0.111598
H	 0.5748219412	-0.3419466007	-2.1692426239	 0.119958
H	 0.4223553674	-0.4799348513	 0.9040670984	 0.08859
H	 0.1695430473	 0.9531035557	-0.081498113	 0.110924
H	-1.7004622341	-0.454348602	-2.2477462264	 0.08291
H	-3.2064030882	-0.1372091747	-1.3621282863	 0.083763
H	-2.3215738152	 1.8024118031	-2.282954182	 0.286952
H	-2.0740760908	-2.4394569012	-0.8317247713	 0.091599
H	-0.9254061444	-2.4585381216	 0.4950981219	 0.10145
H	-3.9274071072	-2.2529284573	 0.6902001641	 0.102322
H	-2.7883964573	-2.8246948431	 1.8915115248	 0.100965
H	-3.5671196273	-0.402299693	 2.6362522081	 0.087675
H	-2.0512481211	 1.248996995	 1.3460564184	 0.097154
