21
gdb 100866	2.39689	1.01155	0.74556	2.0872	80.95	-0.2586	0.0428	0.3014	1521.1812	0.179212	-424.183233	-424.172171	-424.171227	-424.219495	39.944	
C	-0.0711699878	 1.5673271498	-0.0734682785	-0.416625
C	 0.0196566735	 0.0355143103	-0.0322292002	 0.028693
C	 0.7221740452	-0.4908262054	-1.2872957184	-0.08821
O	-0.0509909878	-0.1073918642	-2.4163131801	-0.422066
C	 0.7329835073	-0.4782336072	 1.2468954035	-0.185707
C	 0.0727265253	 0.0386619455	 2.5517686188	-0.068682
O	 0.7125199495	-0.4473004995	 3.7101616351	-0.42227
C	 0.7767977926	-1.9405533975	 1.3087504748	 0.29637
C	 0.7752804465	-3.1382393323	 1.432149966	-0.456708
H	 0.915791611	 2.0232971509	 0.0735814377	 0.110153
H	-0.4464234015	 1.8816282071	-1.0493085428	 0.140405
H	-0.7435019151	 1.9637902145	 0.6915240301	 0.118741
H	-0.996495323	-0.3797151304	-0.0420418893	 0.093024
H	 1.740151841	-0.0679764925	-1.3406683667	 0.081647
H	 0.8179293518	-1.5833761483	-1.2273186655	 0.101904
H	 0.3928173041	-0.4274128009	-3.2065800204	 0.288036
H	 1.7674658553	-0.1052051178	 1.2436457503	 0.109232
H	 0.154034157	 1.1267704123	 2.5960646564	 0.115061
H	-0.9977976837	-0.2224432432	 2.5336297823	 0.092855
H	 0.7154571078	-1.4105584165	 3.6491202039	 0.284075
H	 0.7905432712	-4.1977619747	 1.5066589728	 0.200071
