11
gdb 23792	4.15359	1.87912	1.29379	3.8983	58.5	-0.234	-0.0667	0.1673	823.7703	0.07245	-434.831863	-434.825488	-434.824544	-434.862822	23.329	
F	 0.087415286	 0.0335734298	 0.0017162883	-0.047173
C	-0.0713095066	 1.3448869607	 0.0112713277	 0.468145
C	-1.2470139864	 1.9806770156	 0.0306660635	-0.383031
C	-1.214441457	 3.434534874	 0.0384854594	 0.403066
N	-2.2707606106	 4.1505683982	 0.0567398726	-0.516965
N	 0.085532035	 4.0604077456	 0.0244499952	-0.239511
N	 1.1552746792	 3.4087160913	 0.00639469	-0.03021
N	 1.1040272867	 2.0418770886	-0.0005602935	-0.319955
H	-2.1874592628	 1.4496917995	 0.0402856193	 0.146613
H	-2.0024639398	 5.136809572	 0.0586752553	 0.22677
H	 2.0001864364	 1.5821750247	-0.0152743878	 0.292252
