18
gdb 125326	4.48122	1.02878	0.90181	4.4229	80.06	-0.2401	0.0053	0.2454	1324.2753	0.148278	-398.119304	-398.11086	-398.109916	-398.153864	30.595	
C	 0.1079305357	 1.502604762	 0.128919607	-0.482064
C	-0.0148151735	 0.0241326897	-0.0443717163	 0.303382
C	 0.452086578	-0.7882978183	-1.0538588319	-0.195769
N	 0.0573592977	-2.0374620505	-0.7026071296	 0.061977
N	-0.6191374946	-2.0048196687	 0.4631994072	-0.153563
N	-0.6629149494	-0.7641250598	 0.8599253406	-0.253874
C	 0.2480994599	-3.2993602897	-1.3561580237	 0.095408
C	 0.225504499	-3.4060777975	-2.8560468568	-0.285373
C	 1.5198843149	-3.6023317773	-2.0993522393	-0.28537
H	 0.6614131413	 1.9509718648	-0.7000789173	 0.119721
H	-0.8781629057	 1.9754712844	 0.1766122912	 0.141966
H	 0.6297243249	 1.7467173981	 1.0597102839	 0.141983
H	 1.0086007376	-0.5798903811	-1.9518240746	 0.140407
H	-0.214659304	-4.0799751236	-0.767028587	 0.131256
H	-0.264829414	-4.2684994432	-3.2928999871	 0.131501
H	 0.1050116078	-2.4887696558	-3.4215377144	 0.128456
H	 2.264259304	-2.8161563805	-2.1592414455	 0.128456
H	 1.9307527005	-4.601395183	-2.0093593664	 0.131501
