23
gdb 74304	2.0236	1.49807	0.90049	0.6243	98.2	-0.1999	-0.0109	0.189	1377.054	0.20661	-351.187091	-351.177664	-351.17672	-351.221829	36.172	
C	 0.0293696577	 1.5384989727	 0.0381909026	-0.46849
C	 0.0528843357	 0.0325379177	-0.0268780766	 0.271821
C	 0.0999519024	-0.5893475124	-1.217460171	-0.182057
C	 0.0702315353	-2.0119536517	-1.5867061298	 0.304115
C	-0.017285214	-2.2299638382	-3.0849820719	-0.4761
C	 0.0871620097	-3.0838039139	-0.7759042576	-0.159786
C	 0.1912170662	-3.1602906326	 0.7207848297	-0.250756
C	 0.8081758699	-1.9562438402	 1.4355946793	-0.207764
C	 0.0089206877	-0.6521223121	 1.3191678367	-0.288388
H	 0.9083579019	 1.9255823316	 0.5712039973	 0.121519
H	 0.0043818275	 1.9934642873	-0.9551983403	 0.118015
H	-0.8471394462	 1.8925592179	 0.5977617456	 0.12154
H	 0.1262957429	 0.0687887875	-2.0854305168	 0.063769
H	-0.907404448	-1.7441157487	-3.5042763068	 0.120708
H	 0.848053073	-1.7910469537	-3.5977372533	 0.120955
H	-0.0582349579	-3.2915320912	-3.3395532195	 0.114297
H	 0.0172585138	-4.0565216521	-1.2604766574	 0.072416
H	-0.8047747414	-3.3655640529	 1.1441682456	 0.105248
H	 0.7862813165	-4.0496642615	 0.9698331103	 0.099467
H	 0.9089417952	-2.2061611651	 2.4983051544	 0.090644
H	 1.8231688771	-1.7885725316	 1.0566696746	 0.10366
H	 0.3825430597	 0.0538535319	 2.0715194459	 0.095607
H	-1.0398337751	-0.8368137885	 1.5967966592	 0.10956
