17
gdb 83847	2.23015	1.89253	1.35104	3.5101	67.95	-0.2648	-0.003	0.2618	989.361	0.136852	-458.983499	-458.975719	-458.974775	-459.015968	29.351	
C	-0.2243067225	 1.50672744	 0.0152666259	-0.412796
C	 0.0288209672	 0.0169122582	 0.0272708989	-0.042359
C	 1.3804234274	-0.5671382468	-0.2492940937	 0.062718
O	 2.4425742074	 0.3402370171	-0.3985703133	-0.229879
C	 3.2683825862	 0.3494352483	 0.7226952848	 0.009331
O	 2.5874720189	 0.8061133428	 1.8948206477	-0.227648
C	 1.4381485132	 0.148614383	 2.2326472248	 0.436602
O	 0.9806148601	 0.2720029547	 3.3337665634	-0.330851
C	 0.8162276843	-0.6751226629	 1.1492984927	-0.248373
H	 0.6647965446	 2.0665592116	 0.3097561042	 0.14249
H	-0.5085351585	 1.8338653995	-0.990000288	 0.124772
H	-1.0372582382	 1.7660998063	 0.6998493039	 0.13423
H	-0.8003938021	-0.5868523992	-0.3312926787	 0.103479
H	 1.4774005679	-1.4580719362	-0.8648034296	 0.106704
H	 3.6822231458	-0.6494241589	 0.9225787684	 0.108946
H	 4.0682779381	 1.0676751105	 0.5412600216	 0.136754
H	 0.4258836304	-1.620686088	 1.5047936871	 0.125879
