23
gdb 118152	3.12675	0.88157	0.73242	1.455	82.97	-0.2407	0.0821	0.3228	1630.3616	0.203713	-425.406443	-425.395874	-425.39493	-425.443393	37.29	
C	-0.0125773889	 1.5216507293	 0.0007550262	-0.382635
C	-0.1332572826	 0.0083949386	-0.0757040086	-0.033633
O	 0.7052120541	-0.4511396531	-1.117971574	-0.264997
C	 0.8107410957	-1.8616724119	-1.2371221137	 0.128931
C	-0.4336756699	-2.5142972527	-1.8399739967	-0.417191
C	 2.0373860172	-2.0960243074	-2.1117022997	 0.149812
C	 3.4188305472	-1.8116751425	-1.4890757672	-0.293435
C	 3.6754109503	-3.3133760732	-1.7264609531	-0.062587
O	 2.3405965162	-3.5046245098	-2.2464950618	-0.297548
H	 1.0214714725	 1.8150326992	 0.203047436	 0.123588
H	-0.3182197938	 1.9780369019	-0.9450680608	 0.126798
H	-0.6499303704	 1.9156852165	 0.7981051027	 0.113455
H	 0.1667504475	-0.4521925836	 0.8808019426	 0.08322
H	-1.1805215022	-0.278769779	-0.2568121367	 0.090564
H	 1.0091206237	-2.3035241923	-0.2450273262	 0.059176
H	-0.2364602845	-3.5747711801	-2.0185945054	 0.140604
H	-1.2978221246	-2.4346929121	-1.1747380808	 0.112612
H	-0.685291277	-2.0376363052	-2.7931534594	 0.119017
H	 1.8729491331	-1.6269603539	-3.0915996142	 0.077949
H	 4.0583187198	-1.1251558964	-2.0444549556	 0.111474
H	 3.3833202059	-1.5010362934	-0.4434455484	 0.110796
H	 4.4395829869	-3.5472694016	-2.4780206415	 0.101608
H	 3.8583508038	-3.9258819375	-0.8355097835	 0.102423
