17
gdb 18004	4.83879	1.48859	1.31073	4.3197	70.3	-0.2373	0.0271	0.2644	954.2792	0.143463	-363.856967	-363.849741	-363.848797	-363.88949	26.444	
O	-0.0484425731	-0.0114529782	 0.5019114128	-0.333565
C	 0.0096180848	 1.1994131764	 0.4234768718	 0.125302
N	 1.098786468	 1.8909785247	 0.0258367038	-0.026744
C	 2.4349828821	 1.4228941288	-0.3536469381	-0.179528
C	 2.8288746154	 2.9014351976	-0.6135996183	-0.044982
C	 2.4677514747	 3.4352030704	-2.0285878435	-0.226318
C	 1.0800756161	 3.9218271891	-1.5045359291	-0.225637
C	 1.3992384035	 3.3170741939	-0.1116293227	-0.004746
H	-0.8354298459	 1.8730447272	 0.6790414001	 0.063848
H	 2.9635217828	 0.9387648917	 0.4750345064	 0.121965
H	 2.4524092686	 0.7545301324	-1.2211422998	 0.121614
H	 3.7481555686	 3.2576467188	-0.1532090551	 0.083363
H	 3.1144330646	 4.2435222651	-2.3759490258	 0.109664
H	 2.4372024416	 2.6668709457	-2.805524259	 0.109441
H	 0.9950760538	 5.0113950637	-1.4748294049	 0.108527
H	 0.193825083	 3.5156749489	-1.9967228767	 0.111581
H	 1.1964537814	 3.9187274039	 0.7776437881	 0.086213
