21
gdb 58999	3.6177	1.02415	1.00176	1.3565	84.85	-0.2198	0.0222	0.242	1314.5977	0.182696	-387.089821	-387.080947	-387.080003	-387.123535	34.418	
C	-0.0572606858	 1.480975585	 0.120782432	-0.411619
C	 0.0485643056	-0.0458954286	 0.0112917032	 0.019504
O	-1.2521401447	-0.6423715482	-0.0306427681	-0.440577
C	 0.772406046	-0.4865845068	-1.228213057	 0.364342
C	 1.9411689088	-1.1348795002	-1.2734442868	-0.216048
C	 2.333276138	-1.4989697381	-2.6640037722	-0.066541
C	 1.3856586959	-2.4624548681	-3.3563649084	-0.275086
C	 1.2006527599	-0.9789283977	-3.537088306	-0.041204
C	 0.2127502478	-0.2536943072	-2.6237354507	-0.319998
H	 0.9360717293	 1.9390079639	 0.1492698458	 0.122157
H	-0.610101153	 1.8937389704	-0.7279910877	 0.127035
H	-0.5833993928	 1.7641094109	 1.0405907345	 0.102599
H	 0.6049228204	-0.4201435388	 0.885605794	 0.063765
H	-1.7613003574	-0.2853053401	 0.7043821602	 0.279378
H	 2.5245781464	-1.4176385813	-0.4033236807	 0.086201
H	 3.3732636463	-1.4700561265	-2.9703055721	 0.081347
H	 1.7675171164	-3.0156358509	-4.2085686969	 0.105064
H	 0.6829226167	-3.0097063859	-2.7358942494	 0.115076
H	 1.4042252195	-0.5628250407	-4.5166819551	 0.080959
H	-0.8104371087	-0.6360404663	-2.710267151	 0.124898
H	 0.1651990255	 0.8176059954	-2.8622567973	 0.098747
