14
gdb 20598	3.38404	1.88804	1.26151	3.0132	60.04	-0.2608	-0.0371	0.2237	909.7723	0.106256	-415.837391	-415.829677	-415.828733	-415.869954	27.113	
C	 0.2845475346	 1.4647380967	 0.0047632024	-0.503881
C	 0.1091440544	-0.0144870404	-0.0718068785	 0.171749
C	-0.0116512924	-0.8619459481	-1.1352357578	 0.282841
C	 0.000829337	-0.6686574693	-2.62354918	-0.174769
O	 0.8212117803	 0.4094199108	-3.033042847	-0.39481
O	-0.1643049886	-2.1068350427	-0.6747501314	-0.215907
N	-0.1396935758	-2.0174160678	 0.7539031034	-0.016882
N	 0.0214550479	-0.809319882	 1.0548084857	-0.160534
H	 1.1451090385	 1.7226974922	 0.6297975061	 0.143366
H	 0.4366589885	 1.8759552258	-0.9938425339	 0.151348
H	-0.5948500766	 1.9415163776	 0.4503257082	 0.144892
H	 0.2865206174	-1.6174748547	-3.0984158272	 0.130482
H	-1.0078049048	-0.425188475	-2.975741129	 0.148069
H	 1.7309843296	 0.197334267	-2.7977312711	 0.294034
