20
gdb 81945	2.30369	1.78608	1.18207	1.6359	77.99	-0.2253	-0.0238	0.2015	1100.3743	0.170636	-403.158228	-403.149485	-403.148541	-403.191431	33.332	
C	 0.1973358987	 1.657858085	 0.0320136819	-0.397974
C	 0.1218947728	 0.1316450416	-0.0105945937	-0.106619
C	 0.8116781472	-0.5697711408	-1.1660747437	-0.030361
C	 2.295395994	-0.6115642713	-1.1412513054	-0.258856
N	 1.5289636135	-1.7887686245	-0.7038738382	-0.107037
C	 1.3723732609	-1.875324455	 0.759135176	-0.064876
C	 2.6388322484	-2.2647242693	 1.5106769299	-0.391423
C	 0.7563800983	-0.5417949483	 1.2172637988	 0.359252
O	 0.7669603838	-0.1011742925	 2.3376344819	-0.320036
H	 1.2320284447	 2.0025336542	-0.056278382	 0.121326
H	-0.3796120309	 2.1056911179	-0.7819359959	 0.117001
H	-0.198522542	 2.0208408659	 0.984424567	 0.139133
H	-0.9368331563	-0.1703393835	 0.0015075053	 0.108321
H	 0.2837040234	-0.6654405865	-2.1102758363	 0.094462
H	 2.8553031065	-0.7495584168	-2.0609968234	 0.122666
H	 2.8099327191	-0.011754925	-0.3913212626	 0.117981
H	 0.6040552289	-2.6415019717	 0.9451690912	 0.110555
H	 3.4529748684	-1.5626588964	 1.3078018275	 0.120734
H	 2.4421236753	-2.2492058464	 2.5856117338	 0.139193
H	 2.9674552655	-3.2653192365	 1.219747538	 0.126557
