18
gdb 92517	2.35049	1.73982	1.38441	3.4933	70.71	-0.2196	-0.0361	0.1835	1004.7716	0.148638	-439.073917	-439.065875	-439.064931	-439.106886	30.321	
C	 0.3172361314	 1.5006679378	-0.1615114341	-0.376629
C	-0.0296311667	 0.0099439399	-0.0166112331	-0.101422
N	 0.3660787467	-0.7988479689	-1.1884092934	-0.311583
C	 1.5644664357	-1.5849866328	-0.8681023601	-0.063775
C	 2.904726205	-0.8376175834	-1.0300997768	-0.068964
O	 3.0150704159	-0.6463236834	 0.4046825206	-0.29297
C	 1.8434226266	-1.4668117908	 0.6470354746	 0.002243
C	 0.7033294405	-0.6000143624	 1.1920732287	 0.405531
O	 0.4322519003	-0.4209531752	 2.3501966838	-0.311553
H	 1.3954545288	 1.6428288678	-0.2703935023	 0.135652
H	-0.1806922373	 1.9163685583	-1.0412748706	 0.121319
H	-0.0104301093	 2.0464318594	 0.7280849924	 0.132733
H	-1.1071758672	-0.0812503853	 0.1551202672	 0.103234
H	-0.3880368601	-1.4211063704	-1.4467951652	 0.228097
H	 1.5133844268	-2.5758367333	-1.3189346849	 0.086777
H	 3.7357408157	-1.4435225113	-1.4112354137	 0.106158
H	 2.8493042138	 0.1073292568	-1.5792027757	 0.114234
H	 2.0567025134	-2.3458770229	 1.2609573725	 0.090919
