13
gdb 133142	2.32291	1.86885	1.04237	3.1734	65.91	-0.2594	-0.0742	0.1852	1040.2438	0.087254	-497.839011	-497.831272	-497.830327	-497.871649	27.844	
C	 0.0449397668	 1.5242057416	 0.0393395426	-0.479202
C	-0.0340930875	 0.0345833562	 0.0345385645	 0.271531
C	-1.1568325332	-0.6955475633	-0.1606462105	 0.065363
F	-2.3186262713	-0.0837426788	-0.3711033861	-0.05434
C	-1.1235747682	-2.1423860966	-0.1457532628	 0.274198
O	-2.0723895859	-2.8889245676	-0.3099010671	-0.35813
C	 0.2515934923	-2.6274410747	 0.1018776681	-0.062438
N	 1.3127134974	-1.9245590821	 0.2862740814	-0.041653
O	 1.167939262	-0.5498083918	 0.2519911907	-0.265515
H	 0.7346514211	 1.8692227177	-0.7373405658	 0.162198
H	-0.9410984488	 1.9521108596	-0.1388625327	 0.162435
H	 0.424980915	 1.8800665993	 1.0020981936	 0.162199
H	 0.4076754603	-3.7023851694	 0.1363129441	 0.163353
