16
gdb 133778	3.15831	1.01257	0.94133	2.2599	58.32	-0.2867	0.0694	0.3561	1271.7629	0.119161	-569.376563	-569.367581	-569.366637	-569.411703	31.741	
C	-0.1145790022	 1.5667470738	-0.3169008203	-0.381439
C	 0.0013632867	 0.1918330981	 0.353255229	-0.229028
C	-1.3240702324	-0.5302381335	 0.358052751	 0.087087
O	-1.7884514635	-1.1140842639	-0.8728338034	-0.242542
C	-1.5336809484	-1.9789856198	 0.2196045671	-0.129958
C	-0.4214205042	-2.9940697814	 0.0535258059	 0.281097
F	 0.5455822899	-2.5898763302	-0.773056667	-0.064058
F	 0.1351857658	-3.2686328785	 1.2449699124	-0.077002
F	-0.9142410705	-4.1431511447	-0.4316354046	-0.074593
H	 0.8457056843	 2.089471487	-0.3002997758	 0.120146
H	-0.4274631204	 1.4618681443	-1.3598693647	 0.137358
H	-0.8493829897	 2.1992986174	 0.1929842881	 0.116889
H	 0.75551245	-0.4117330703	-0.1528479814	 0.125907
H	 0.3243271378	 0.3080245366	 1.3957415589	 0.110156
H	-2.1165784345	-0.0041427688	 0.8961331867	 0.099961
H	-2.4101535986	-2.4356704761	 0.6805608681	 0.12002
