13
gdb 131215	3.25338	1.41948	0.98828	4.6742	64.58	-0.227	-0.0505	0.1764	1077.8496	0.090749	-489.930846	-489.92354	-489.922596	-489.962484	28.232	
O	 0.0408603007	 1.3679320228	 0.010235125	-0.421984
C	-0.0119433073	 0.0235340949	 0.0030640052	 0.357252
C	-1.1798447561	-0.6654341636	 0.0033434783	-0.343852
C	-1.1832328827	-2.1193638638	-0.0047598139	 0.446187
O	-2.1626372393	-2.8453743348	-0.0056598991	-0.40062
N	 0.1050533506	-2.6678551664	-0.0122384568	-0.295182
N	 1.2839336912	-2.0117297621	-0.0127404414	-0.292054
C	 1.2213437499	-0.7264495436	-0.0053658574	 0.346336
O	 2.3560243386	 0.0201357951	-0.0057389478	-0.440833
H	 0.9699878798	 1.6355378723	 0.0091649189	 0.318581
H	-2.135940924	-0.1592485626	 0.0095086081	 0.137949
H	 0.1719987637	-3.6753730863	-0.0182589778	 0.273625
H	 3.1106573251	-0.5833487619	-0.0105211413	 0.314595
