19
gdb 52852	2.54361	1.14536	0.98645	1.63	79.62	-0.2449	0.0477	0.2926	1325.1604	0.157082	-423.007122	-422.997148	-422.996204	-423.044388	34.498	
C	-0.2148429281	 1.3258791313	 0.142688783	-0.502268
C	-0.078952101	-0.1212155495	 0.0645318668	 0.036934
C	 0.0359938714	-1.318092198	-0.0038082703	 0.130702
C	 0.1744715451	-2.7896339918	-0.0838833082	 0.196029
C	 1.0326341312	-3.2270206521	-1.258986148	-0.431007
O	 0.7311591867	-3.3030876887	 1.1166848812	-0.254135
C	-0.3442544424	-3.4252728615	 2.039263316	-0.109646
C	-1.6088677416	-3.4953767528	 1.1418556942	-0.109655
O	-1.1009241018	-3.4047376771	-0.1834247508	-0.25413
H	 0.337161058	 1.8189256413	-0.6648862352	 0.152227
H	-1.2639182369	 1.6309124581	 0.0623997508	 0.151323
H	 0.172457081	 1.7101859841	 1.0926133511	 0.151302
H	 2.0335866714	-2.8012490865	-1.1651923954	 0.134596
H	 1.0960465056	-4.3170450752	-1.2631259074	 0.127935
H	 0.5851763132	-2.8816060176	-2.1930390974	 0.134597
H	-0.1800090116	-4.3307827227	 2.6290581964	 0.115518
H	-0.3823986027	-2.5617818946	 2.7149705757	 0.107077
H	-2.1516407003	-4.4400506847	 1.2300010976	 0.115519
H	-2.2964004572	-2.6678456121	 1.3566664401	 0.107079
