21
gdb 114127	4.57734	0.88665	0.81862	1.191	79.02	-0.2331	0.0689	0.302	1474.5353	0.181152	-424.184192	-424.174662	-424.173718	-424.218826	35.496	
C	-0.1241282011	 1.498685324	 0.1763831247	-0.378484
C	 0.03982989	-0.0246517289	 0.1976803615	-0.20043
C	-1.2891291605	-0.7486479978	 0.0883353835	 0.151772
O	-2.0179341579	-0.4546714191	-1.1504026686	-0.348315
C	-2.2105455877	-1.8560627981	-1.3800724464	 0.453108
C	-3.5625658424	-2.2690094078	-1.8942951695	-0.186577
O	-3.6408699635	-3.6524355167	-2.1870734483	-0.406584
C	-0.8971655326	-2.5339885546	-1.6182284897	-0.35509
C	-1.3599818059	-2.2481039479	-0.196806186	-0.206675
H	 0.8453181946	 2.0014664212	 0.2401485515	 0.111157
H	-0.6151558234	 1.8167523502	-0.747629833	 0.136961
H	-0.7362930959	 1.8438598585	 1.0169308851	 0.112861
H	 0.6970924865	-0.3417867694	-0.6192777475	 0.099536
H	 0.520012252	-0.3433617321	 1.1324102247	 0.098194
H	-1.9342818272	-0.4821162077	 0.9372677143	 0.078918
H	-4.3276565824	-2.0696817044	-1.1366141132	 0.121065
H	-3.8057032761	-1.6442991422	-2.7689963111	 0.103363
H	-3.0905111678	-3.8167236932	-2.9593910573	 0.28804
H	-0.9541146541	-3.5864860749	-1.8773274776	 0.112806
H	-0.076250425	-1.9866317989	-2.0722122946	 0.111895
H	-1.4994194796	-3.0298106102	 0.5374462275	 0.102481
