19
gdb 55135	3.45568	1.28668	1.12699	3.8906	74.62	-0.2412	-0.0107	0.2306	1137.3973	0.159212	-423.023777	-423.015547	-423.014602	-423.058024	30.896	
C	 0.0177566772	 1.2996417958	-0.5072713079	-0.477774
C	 0.072054876	-0.0561697834	 0.1761122667	 0.375818
O	 1.0543132183	-0.4275079219	 0.7755525731	-0.293512
C	-1.1920148703	-0.9064021566	 0.1143103207	-0.100727
C	-1.711513205	-1.2773714145	-1.3214456519	-0.252635
C	-1.6559527606	-2.8112784748	-1.1471229145	 0.088622
C	-2.2980328748	-3.0628898291	 0.2338566886	-0.243182
C	-0.9848966602	-2.3503180099	 0.6245972396	 0.082341
O	-0.3471721602	-2.9890731095	-0.5268280181	-0.295333
H	-0.1003503261	 1.1809649242	-1.5896304987	 0.143542
H	-0.8481387618	 1.872471313	-0.1563625842	 0.132643
H	 0.935853473	 1.8513303681	-0.302126084	 0.143139
H	-1.9667701896	-0.3759937804	 0.6826753381	 0.092626
H	-2.7127504843	-0.8950547212	-1.5353061501	 0.102976
H	-1.0354165685	-0.955325382	-2.1165592071	 0.114359
H	-1.8288689508	-3.4409492188	-2.0197611967	 0.082021
H	-3.2586680764	-2.5991546461	 0.4753580966	 0.091591
H	-2.2819488007	-4.1190720627	 0.5030920865	 0.115449
H	-0.4576369352	-2.4923132702	 1.5645228134	 0.098036
