23
gdb 105394	2.01992	1.14747	0.92817	2.7496	86.44	-0.2437	-0.0199	0.2238	1418.7136	0.202889	-388.296678	-388.28591	-388.284966	-388.333682	38.721	
C	-0.8771402707	 1.2356997444	 0.6150729671	-0.385879
C	-0.1070769246	 0.0020692191	 0.1244210187	-0.257362
C	 0.8996526991	-0.5417407271	 1.1334604526	 0.349031
C	 2.0058330687	 0.4378567416	 1.5225395323	-0.350122
C	 2.8604401921	 0.8267623941	 0.3347954656	 0.165386
O	 3.0686871836	 1.9565291911	-0.0275394587	-0.244768
C	 0.3989506642	-1.4700987536	 2.2203200863	-0.344685
C	 1.281165288	-2.0141319421	 1.1215833128	-0.037617
C	 0.7681775269	-3.0199990601	 0.11334677	-0.417263
H	-0.2174770907	 2.0965802459	 0.7579720077	 0.131773
H	-1.6402560997	 1.527135685	-0.1129370419	 0.113787
H	-1.3795256631	 1.0332285703	 1.566981688	 0.116436
H	-0.8258916678	-0.7830555266	-0.1283655511	 0.096712
H	 0.4092167256	 0.2507888218	-0.8128262972	 0.104295
H	 1.6103551206	 1.3501923173	 1.9784690241	 0.119799
H	 2.6661591191	-0.0427110091	 2.2575149468	 0.112301
H	 3.2999966034	-0.0393897352	-0.2138250132	 0.072759
H	 0.801266791	-1.3721264348	 3.2233483359	 0.107483
H	-0.6525778374	-1.7403578609	 2.1917124294	 0.109606
H	 2.3101721764	-2.2051749381	 1.4198231131	 0.079529
H	-0.2883462102	-2.870333421	-0.1229939191	 0.119982
H	 1.3301259851	-2.9711193435	-0.8261803435	 0.118723
H	 0.8699022203	-4.0373329984	 0.5070606145	 0.120093
