21
gdb 74957	2.37434	1.80768	1.40557	1.8665	82.58	-0.229	0.0181	0.2471	1038.7054	0.183517	-387.10262	-387.094444	-387.093499	-387.134641	33.032	
C	-0.060154748	 1.4885594785	 0.029165996	-0.513443
C	 0.0636722434	 0.0012759024	-0.0299119029	 0.312669
C	 0.0575251757	-0.8004390394	-1.1041405747	-0.195668
C	 0.038218018	-2.2243211876	-0.5824599354	 0.056076
C	 0.9208982773	-2.0951831401	 0.6645952726	-0.247954
C	 0.0734816585	-0.9095882181	 1.2058338377	 0.185719
C	 0.4538585902	-0.2992842	 2.542216258	-0.498423
C	-1.3216392134	-1.6183152077	 1.169533235	-0.090492
O	-1.2775605714	-2.4542479953	 0.0124052186	-0.279241
H	 0.7859330456	 1.9447550374	 0.5577280617	 0.127051
H	-0.107346372	 1.921604738	-0.9736924943	 0.126114
H	-0.96456034	 1.7944604532	 0.5710819875	 0.128443
H	-0.0612893916	-0.5064906272	-2.1397548885	 0.092196
H	 0.2270513379	-3.032267386	-1.287069105	 0.069583
H	 0.8933372343	-2.9838559573	 1.303110538	 0.093681
H	 1.9521356066	-1.8105243247	 0.4480743066	 0.097249
H	 1.4559792497	 0.1408396814	 2.5085758469	 0.119373
H	-0.2449182589	 0.4903361688	 2.8401072412	 0.117352
H	 0.4494717461	-1.0583827834	 3.3316819347	 0.11745
H	-1.4705332264	-2.236989569	 2.0651995256	 0.091186
H	-2.1506303316	-0.9030701338	 1.0956139908	 0.091077
