19
gdb 90725	4.4415	1.16603	1.07275	1.0369	76.17	-0.2318	0.0638	0.2955	1187.8417	0.158246	-422.970228	-422.962143	-422.961199	-423.002859	31.408	
C	-0.4002062173	 1.2104513677	-0.2133211444	-0.40583
C	 0.2387597862	-0.1505704388	-0.0295860948	 0.126119
O	 1.5365384103	-0.227097763	-0.6992492872	-0.310353
C	 2.2193028557	-0.4719608861	 0.539965139	-0.045411
C	 0.8999608668	-0.4400527248	 1.335639739	 0.042233
O	 0.9981052595	-1.8412783284	 1.6503229498	-0.32273
C	 2.2572669078	-1.9343766346	 0.9583615199	 0.44849
C	 2.6743274873	-3.1425177123	 0.1989920844	-0.326937
C	 3.389559171	-2.7512025332	 1.4871928761	-0.343317
H	 0.2378653543	 2.0022754557	 0.1922165504	 0.120477
H	-0.5571899746	 1.4127184777	-1.2769652356	 0.132657
H	-1.3708364364	 1.2490384751	 0.2931492148	 0.119397
H	-0.4234122522	-0.9595565704	-0.3592770016	 0.091947
H	 3.1097269054	 0.1450562582	 0.672291935	 0.088279
H	 0.6474108749	 0.1787374709	 2.198046581	 0.088684
H	 2.01120531	-3.9996631669	 0.2429257389	 0.127063
H	 3.1797614055	-3.0040129443	-0.7507412617	 0.12652
H	 4.3941408716	-2.3446073732	 1.4254957626	 0.116718
H	 3.1924520543	-3.3508474493	 2.3693067743	 0.125994
