18
gdb 115427	3.78875	1.03689	0.92232	3.7969	72.57	-0.2791	0.019	0.2981	1286.7631	0.147918	-439.101893	-439.093093	-439.092148	-439.136132	31.543	
C	 0.2617103741	 1.0656901481	 0.3626162266	-0.246449
O	-0.0962355382	-0.297054226	 0.202922221	-0.243909
C	-1.4194886498	-0.4905012816	-0.2034872836	 0.234835
C	-1.6596706373	-1.9895665239	-0.3440812152	-0.256168
C	-1.9776713079	-2.3851353829	 1.1048783513	-0.256137
C	-2.7563290239	-1.1461544756	 1.6064724992	-0.018503
O	-2.3451125573	-0.0475761465	 0.7897756564	-0.272146
C	-4.2167561645	-1.3175759503	 1.481926933	 0.272977
N	-5.3586129755	-1.4696605647	 1.3933772982	-0.320051
H	 1.3162967586	 1.0864868348	 0.6441397205	 0.130247
H	 0.1301891855	 1.6232655695	-0.5766117827	 0.110923
H	-0.3355518542	 1.5485926097	 1.1442130297	 0.129073
H	-1.6355147124	 0.1042486886	-1.1014941411	 0.083922
H	-2.5187355929	-2.166394724	-0.9972357278	 0.127598
H	-0.7873177558	-2.499040985	-0.7535033864	 0.127095
H	-2.5551687533	-3.3052501227	 1.1978273761	 0.132165
H	-1.055725454	-2.4845412694	 1.6810282027	 0.132613
H	-2.5336359911	-0.9200435482	 2.6546963821	 0.131917
