10
gdb 1204	9.39209	1.08877	1.00782	3.6824	55.99	-0.2777	-0.0821	0.1956	1048.1109	0.064778	-359.314227	-359.306583	-359.305638	-359.347182	24.38	
N	-0.0187128981	 1.3252083233	 0.2363121657	-0.521409
C	 0.0177586397	 0.0565718851	-0.2534350618	 0.282993
O	 0.9909505583	-0.4554385431	-0.7674480818	-0.32012
C	-1.2451782828	-0.6669588005	-0.1249797362	 0.091203
C	-2.2524092616	-1.3292590003	-0.0406905197	-0.006511
C	-3.4634667239	-2.1140500844	 0.0242874635	 0.02459
O	-3.9131280301	-2.5786623419	 1.0445465288	-0.215826
H	 0.8333051944	 1.8626475017	 0.2254283625	 0.275413
H	-0.8173774554	 1.6757566392	 0.7365974124	 0.275405
H	-3.9598773805	-2.2583578092	-0.9556826735	 0.114261
