18
gdb 77315	2.41089	1.30358	1.14428	3.7594	75.43	-0.2537	-0.0336	0.2201	1156.1525	0.147891	-402.003588	-401.994914	-401.993969	-402.03744	31.973	
C	-0.0498578221	 1.5409791536	 0.0021150921	-0.412226
C	 0.0027459356	 0.006041443	-0.0082021886	-0.099861
C	 0.760699037	-0.5765368347	-1.2364432986	-0.180827
C	 2.2098808043	-0.8353502837	-0.7183595065	-0.235379
C	 2.0152104796	-1.2890742864	 0.7326948343	-0.321176
C	 0.7917519572	-0.5093139771	 1.2141608953	 0.412863
O	 0.4879454006	-0.2903894441	 2.3567388793	-0.312066
C	 0.1474740513	-1.8200729168	-1.7059450911	 0.271565
N	-0.3336740951	-2.8084178554	-2.0642255208	-0.322383
H	 0.94761819	 1.9793083469	-0.1110906884	 0.122641
H	-0.6792390725	 1.9136243435	-0.810994246	 0.128096
H	-0.4629997492	 1.8855996965	 0.9530383539	 0.150885
H	-1.0175968175	-0.382231473	 0.0541271403	 0.128988
H	 0.7624494637	 0.1279133526	-2.0735024727	 0.127679
H	 2.7440216457	-1.5568726494	-1.3380141133	 0.132025
H	 2.7636944138	 0.1081654698	-0.7527645916	 0.119761
H	 1.7643690635	-2.3573646237	 0.7748731718	 0.153212
H	 2.8717593541	-1.1270177515	 1.3892199707	 0.136204
