23
gdb 97550	3.04091	0.69497	0.66505	1.4652	91.86	-0.2415	0.0571	0.2986	1866.3218	0.202226	-388.27307	-388.261196	-388.260252	-388.311647	41.952	
C	-0.0484037079	 1.5603694849	-0.0158879823	-0.362246
C	-0.004078161	 0.0222956083	 0.0372456618	-0.314851
C	 0.7062077356	-0.4917136235	 1.2048382681	 0.055535
C	 1.3020145649	-0.8952620987	 2.1718888672	 0.056236
C	 2.02148121	-1.391013542	 3.3509646958	 0.066473
C	 2.0330690176	-2.9366357925	 3.3496325748	-0.399629
C	 3.4704429164	-0.8531527664	 3.3501517675	-0.399724
C	 1.2765286455	-0.8770277736	 4.6038249085	-0.076017
O	 1.9568383563	-1.3463826472	 5.7586596628	-0.427342
H	 0.9621165561	 1.976871123	-0.0462952685	 0.127029
H	-0.5878654244	 1.8974471155	-0.9062535734	 0.11222
H	-0.5523617189	 1.9650092075	 0.8661708535	 0.124955
H	-1.0282590387	-0.372919738	 0.0282329738	 0.125482
H	 0.4716900175	-0.3604385059	-0.8750876874	 0.127151
H	 2.5679382154	-3.3144042009	 2.4740617961	 0.114337
H	 2.5240113452	-3.305604471	 4.2531712936	 0.130107
H	 1.0135389927	-3.332568922	 3.320951495	 0.112775
H	 3.4784504124	 0.2405211921	 3.3194853347	 0.112225
H	 3.9883561258	-1.1791468506	 4.2550491144	 0.130071
H	 4.0145978685	-1.2208875827	 2.4760118157	 0.114148
H	 1.2482287218	 0.2225187916	 4.5757213605	 0.090717
H	 0.2385728974	-1.2407566772	 4.5755291122	 0.091095
H	 1.4902366918	-1.0239023008	 6.5344570256	 0.289253
