17
gdb 10543	2.98097	1.52655	1.14764	3.6218	69.93	-0.2727	0.0195	0.2922	1080.431	0.140507	-363.856257	-363.847642	-363.846697	-363.88979	30.824	
C	-0.1404637971	 1.5079498376	 0.0251224328	-0.386584
C	-0.0732593075	 0.0083457072	 0.2464685812	-0.066229
O	-1.2970957839	-0.5601904479	-0.230280906	-0.278116
C	-1.3913127631	-1.9360685162	-0.0761998033	 0.304593
C	-1.8049037303	-2.4946668524	 1.2773561069	-0.313743
C	-2.7837657719	-2.4730864148	 0.1342989712	-0.309297
C	-0.4655700743	-2.7126764433	-0.8791946354	 0.239869
N	 0.2881054268	-3.3151313367	-1.5172609311	-0.353893
H	 0.7811125242	 1.9810840368	 0.3762501998	 0.122748
H	-0.2637297745	 1.7339873221	-1.0374644746	 0.135342
H	-0.9834848635	 1.9424511427	 0.569807066	 0.126999
H	 0.7749262049	-0.4311359764	-0.296624071	 0.119245
H	 0.053532601	-0.2306607166	 1.3125292685	 0.096538
H	-1.3885973195	-3.4437157507	 1.59334597	 0.141059
H	-1.9300546947	-1.7560171459	 2.0605223954	 0.13594
H	-3.5608055509	-1.7181010794	 0.1460921991	 0.143119
H	-3.0461279457	-3.4066763258	-0.3480522295	 0.142411
