13
gdb 21105	3.60639	2.08508	1.33233	3.0054	56.85	-0.2082	0.0114	0.2197	851.2228	0.095291	-431.908904	-431.901092	-431.900148	-431.94107	27.347	
C	-0.0747614229	 1.4226060381	-0.0460811981	-0.329809
N	-0.0205230949	-0.0195794897	 0.0480441277	 0.016436
N	-0.1330908316	-0.7969807139	-1.054411475	-0.178631
N	-0.0476596168	-2.0452552248	-0.6563014825	-0.274715
C	 0.1170693334	-2.0739308195	 0.6791433263	 0.254398
O	 0.2408804772	-3.2028748731	 1.4194566371	-0.451892
C	 0.1374930868	-0.7816208328	 1.153958468	 0.30321
O	 0.2712779519	-0.2224454948	 2.3764108626	-0.438731
H	 0.8538177473	 1.8682331551	 0.3209648104	 0.150553
H	-0.2103585532	 1.6658212987	-1.0996601725	 0.16851
H	-0.9125578691	 1.8158828155	 0.5361712814	 0.150536
H	 0.1882226314	-3.9467466923	 0.8071168482	 0.308838
H	 0.3702488706	-0.9332752567	 3.0199926563	 0.321297
