25
gdb 122190	3.3491	0.73185	0.69282	1.4429	89.45	-0.2508	0.0749	0.3257	1805.7912	0.227574	-389.492358	-389.481687	-389.480743	-389.52849	39.798	
C	 0.1578983729	 1.4632411047	-0.2044811836	-0.381716
C	 0.0115139865	-0.0593834649	-0.1442496189	-0.162946
C	-1.4417488999	-0.5205186256	 0.0184627181	-0.188989
C	-1.5860849855	-2.0445125741	 0.1079040287	-0.229563
C	-3.0326791947	-2.5458579442	 0.1974148597	 0.417394
O	-3.6972579241	-2.0265943045	 1.3364256717	-0.484718
C	-3.8163952614	-2.479020065	-1.1557166326	-0.276527
C	-3.5178855784	-3.988484241	-1.3637589982	-0.211276
C	-3.1450659678	-4.0895966537	 0.1399385302	-0.256665
H	 1.2048518753	 1.7598331545	-0.3216965437	 0.11252
H	-0.4030617904	 1.8826380808	-1.0472722375	 0.113238
H	-0.2205392928	 1.9339801138	 0.709873194	 0.113624
H	 0.4303800437	-0.5056070309	-1.0558111938	 0.095824
H	 0.6096056644	-0.4538392566	 0.6876068225	 0.097885
H	-1.8528359514	-0.0571128943	 0.9266678871	 0.087258
H	-2.0367184783	-0.1362880255	-0.8219148998	 0.095999
H	-1.10710753	-2.5051227919	-0.7663110088	 0.092229
H	-1.0452986943	-2.4096860732	 0.9908313586	 0.098769
H	-3.7006352113	-1.0657152674	 1.2732843225	 0.274522
H	-4.876554152	-2.2954229721	-0.9634562327	 0.102588
H	-3.4645191699	-1.7799345042	-1.9195336903	 0.08838
H	-4.3426266066	-4.6127317056	-1.7127124663	 0.099326
H	-2.6596547912	-4.1572365039	-2.0195366583	 0.101325
H	-2.2558159508	-4.6639997396	 0.4130362735	 0.091564
H	-3.9870957522	-4.4214492656	 0.7518194877	 0.109953
