18
gdb 33070	4.53489	0.79093	0.7085	1.6934	75.22	-0.2304	0.0084	0.2387	1585.4495	0.147334	-439.125347	-439.116108	-439.115164	-439.16043	32.598	
C	 0.0523716002	 1.4639587833	-0.0725905174	-0.48851
C	-0.0438237046	-0.0173764	-0.0062723727	 0.383146
N	-1.1011639135	-0.7624289016	-0.0797951551	-0.344442
C	-0.631628769	-2.0736201902	 0.0334409601	 0.242901
C	-1.5606316283	-3.2415543483	 0.0172037201	-0.331387
C	-2.4730862056	-3.2818846807	 1.2553745046	-0.055651
O	-3.3662517336	-4.3821952104	 1.2340067207	-0.41673
C	 0.7142122156	-2.029767183	 0.1738543542	-0.131194
O	 1.1086311305	-0.7180649886	 0.1485769028	-0.171913
H	 0.6795402707	 1.7807876208	-0.9122860238	 0.146318
H	-0.9479758132	 1.8783352525	-0.1985566772	 0.156382
H	 0.4961386248	 1.8713920129	 0.8416639918	 0.146452
H	-2.1912562771	-3.1868621775	-0.8803949588	 0.105911
H	-0.9952056721	-4.1769736064	-0.0403996068	 0.111224
H	-1.86350106	-3.4065968491	 2.156338097	 0.112285
H	-3.0041193422	-2.3240121741	 1.3479430097	 0.110371
H	-3.9913989785	-4.239108803	 0.5163143813	 0.282096
H	 1.4918233959	-2.7651874065	 0.2877732495	 0.14274
