19
gdb 86439	2.2069	1.49096	0.93464	2.5516	80.38	-0.2226	-0.0341	0.1885	1235.773	0.159555	-423.02343	-423.014608	-423.013663	-423.057574	33.656	
O	 0.0184717735	 1.4130196803	 0.1284605379	-0.437733
C	 0.0385340376	-0.0068506852	-0.004707397	 0.067732
C	-1.4095068366	-0.4687971695	 0.1671108794	-0.199021
C	-1.5665361287	-1.9418321932	 0.5365755161	 0.069946
O	-2.9679373785	-2.127201748	 0.7534881632	-0.437035
C	-1.0629266696	-2.9412413169	-0.4763983596	-0.098166
C	-0.2092768779	-2.7831911223	-1.497207797	-0.078502
C	 0.5273972524	-1.5984265159	-1.9361260724	-0.070568
C	 0.6510635046	-0.415111803	-1.3235498266	-0.114266
H	 0.9228046851	 1.7325252371	 0.0476736212	 0.280848
H	 0.6435912911	-0.4443901751	 0.8110885015	 0.078026
H	-1.8549111545	 0.1212340122	 0.9722043429	 0.120928
H	-1.9774328536	-0.2617433529	-0.7445718546	 0.118284
H	-1.0284356267	-2.1215361679	 1.4853921645	 0.075248
H	-3.1158824627	-3.0501752049	 0.9827817625	 0.280442
H	-1.4729044851	-3.9413428263	-0.3311789138	 0.079371
H	-0.0157582806	-3.6678167886	-2.1005711349	 0.089085
H	 1.0564493839	-1.7252946848	-2.8776911724	 0.089871
H	 1.2530164362	 0.353536465	-1.8047176807	 0.08551
