17
gdb 30314	2.97871	1.63919	1.11097	0.9431	74.74	-0.192	0.0175	0.2095	1071.6267	0.137671	-421.840206	-421.832706	-421.831762	-421.872462	28.693	
C	-0.0006551662	 1.5942762628	-0.0304450575	-0.398333
C	 0.0072421591	 0.0662500773	 0.0956862388	-0.157284
C	 0.7752375208	-0.6401093564	-1.0882642836	-0.097724
O	 1.6157464849	-1.7142014457	-0.5657173717	-0.289666
C	 1.6426984977	-1.4952891097	 0.7778932326	 0.317408
C	 0.8148726011	-0.5209286417	 1.2031869309	 0.232459
O	 0.8506631609	-0.4113171229	 2.5572063994	-0.196406
C	 1.7547170188	-1.3507211256	 2.9695447579	-0.005205
C	 2.2807811716	-2.0575613615	 1.9211415689	-0.351781
H	 1.0204660974	 1.9865636409	-0.069508919	 0.121587
H	-0.5271626883	 1.9094827158	-0.937746709	 0.116184
H	-0.5072972323	 2.0506027367	 0.8250077499	 0.128831
H	-1.0353244868	-0.283742053	 0.131269766	 0.091304
H	 0.1058099648	-1.0790571865	-1.8304622079	 0.120526
H	 1.4333416485	 0.0834581899	-1.5841300028	 0.113683
H	 1.9309688041	-1.3867034063	 4.0318804424	 0.134058
H	 3.009138524	-2.8494930042	 1.9826283448	 0.12036
