18
gdb 128852	4.0047	0.94915	0.82901	4.9661	74.51	-0.2508	0.0068	0.2576	1396.8205	0.148523	-435.252338	-435.24367	-435.242726	-435.287101	30.45	
C	 1.0652538165	 0.9021129874	 0.0866663416	-0.233046
O	 0.7931605566	-0.4327401191	-0.2806354989	-0.231872
C	-0.1034536166	-0.5368517516	-1.3634669759	-0.062393
C	-0.2515207804	-2.0081113655	-1.7260991109	-0.171438
N	 0.9492279219	-2.5715072471	-2.3174659311	 0.072311
C	 2.177477745	-2.7502451334	-1.7746276564	-0.092527
C	 2.9141373563	-3.3097943626	-2.7903630991	-0.06923
N	 2.1171179262	-3.4443990321	-3.8860144595	-0.191919
N	 0.928176766	-2.9977250319	-3.6004088339	-0.150372
H	 1.525405906	 1.4646454207	-0.7396078998	 0.11529
H	 0.1510462744	 1.4301002332	 0.3982100706	 0.111054
H	 1.7610338241	 0.8727581374	 0.9279665964	 0.133645
H	-1.0934299195	-0.1345026807	-1.0910465424	 0.098883
H	 0.2615974714	 0.0304829727	-2.2342970918	 0.111241
H	-0.5170629558	-2.5764950384	-0.829026509	 0.136135
H	-1.0400002484	-2.1352558299	-2.4700933881	 0.147949
H	 2.4000646503	-2.4564557165	-0.7642923284	 0.154345
H	 3.9470914958	-3.6177703325	-2.7983071434	 0.121944
