21
gdb 94109	3.44521	0.87206	0.73451	3.6606	79.97	-0.2435	-0.0179	0.2255	1562.202	0.181434	-424.253362	-424.243684	-424.24274	-424.289749	34.382	
C	 0.123621395	 1.4984290401	 0.4235648535	-0.410243
C	 0.1406501213	 0.0121872002	 0.1161544403	 0.159755
C	 0.8846793783	-0.3945774331	-1.1784400693	-0.239355
C	 1.5938169775	-1.7201677603	-0.8040578313	-0.243952
C	 1.1612664094	-1.9593768161	 0.6600404046	 0.13252
C	 2.2289472999	-2.5783013718	 1.5613147352	-0.30435
C	 1.7431459313	-2.7863445356	 2.9811991893	 0.153664
O	 1.8302183215	-3.8264998938	 3.5833292938	-0.24315
O	 0.8274643662	-0.6726530451	 1.1624789666	-0.273896
H	 1.1454478259	 1.885637316	 0.4864210612	 0.121788
H	-0.4076823809	 2.0438271338	-0.3624335993	 0.118161
H	-0.3784387524	 1.6920407313	 1.375504856	 0.126801
H	-0.8953346099	-0.3652720228	 0.068969599	 0.065351
H	 0.1946437543	-0.5064881803	-2.018295549	 0.105334
H	 1.6133632503	 0.3736150572	-1.4528941304	 0.105879
H	 1.3107814999	-2.5553580077	-1.4492016938	 0.107524
H	 2.6808097265	-1.6126004798	-0.8633248528	 0.106354
H	 0.2604414646	-2.598088062	 0.6707793302	 0.07218
H	 2.5689808517	-3.5379732193	 1.1622002586	 0.120146
H	 3.0827556228	-1.8870851097	 1.5929216805	 0.123463
H	 1.2860466569	-1.8861127612	 3.4446794071	 0.096027
