23
gdb 105365	2.91221	0.99667	0.82886	1.583	85.65	-0.256	0.0886	0.3446	1492.8343	0.204618	-388.262998	-388.253155	-388.252211	-388.298368	36.876	
C	 0.1327655678	 1.5694661612	-0.1978099175	-0.397926
C	 0.4479170382	 0.0717850397	-0.1948322128	-0.244151
C	 0.8682460549	-0.5074545986	 1.1490385817	 0.41591
C	 1.1519076873	-2.0040312426	 1.1718718671	-0.287762
C	-0.069498075	-2.8565688149	 0.8843367047	 0.041212
C	-0.3813614451	-3.343950489	-0.5103166596	-0.252999
C	 0.089248746	-4.31563235	 0.5432123778	-0.284966
C	 1.4809881632	 0.3312494093	 2.1916025585	-0.236907
O	 0.1059808546	-0.0552420108	 2.2838614294	-0.27656
H	 1.0327129679	 2.1781706668	-0.0657014025	 0.113343
H	-0.3219257598	 1.8618856155	-1.1485710207	 0.111211
H	-0.5665769179	 1.8135839447	 0.6062689506	 0.138193
H	-0.43496184	-0.4847514634	-0.5295666807	 0.118555
H	 1.2378515901	-0.1517162171	-0.9238329564	 0.096852
H	 1.9442463421	-2.2345486602	 0.4470029067	 0.091456
H	 1.5441953656	-2.2613310214	 2.1628528368	 0.100908
H	-0.9257773867	-2.6045803766	 1.5039422525	 0.098022
H	-1.4182081251	-3.3857163562	-0.8257548637	 0.111442
H	 0.3119656847	-3.0882126353	-1.3052061242	 0.108192
H	 1.097635957	-4.7076492366	 0.4545592092	 0.108266
H	-0.6250356693	-5.0223703003	 0.9508715185	 0.111352
H	 2.1444505661	-0.1273410583	 2.9245791792	 0.10576
H	 1.6533888235	 1.391603774	 2.0208568455	 0.110598
