17
gdb 28294	5.03857	1.27108	1.02791	2.9316	82.53	-0.2043	-0.0101	0.1942	1145.7537	0.138192	-380.925274	-380.917867	-380.916923	-380.957095	28.67	
C	-0.002550962	 1.4752408771	 0.0628758561	-0.486201
C	 0.0077277611	-0.0158267886	-0.0277475961	 0.27225
C	-0.0806604487	-0.7979373235	-1.1585182111	-0.24413
N	-0.0255961934	-2.0955579685	-0.6976792761	 0.012002
C	-0.047416925	-3.4308403362	-1.1360139958	-0.024358
C	 0.0534583104	-4.250825887	-0.0809640228	-0.1338
C	 0.1535666171	-3.4381691986	 1.2005124229	-0.413862
C	 0.0910129555	-2.0348556062	 0.6669479897	 0.379506
N	 0.1150374522	-0.8045049291	 1.1113811642	-0.408101
H	 0.9161731049	 1.8487721577	 0.5283362912	 0.131691
H	-0.092021438	 1.9290864218	-0.9280205079	 0.114304
H	-0.8386528271	 1.8276162968	 0.67692047	 0.131681
H	-0.1722981429	-0.5510210094	-2.2027070825	 0.126226
H	-0.1353117487	-3.6600219558	-2.1876039927	 0.135961
H	 0.0628606205	-5.3293412198	-0.1213522855	 0.114494
H	-0.6664283035	-3.6574259299	 1.8951066461	 0.146169
H	 1.0850898776	-3.636088481	 1.7445981102	 0.146169
