16
gdb 22772	2.46671	1.25665	0.98072	3.1285	69.63	-0.2502	-0.0327	0.2175	1201.5378	0.121476	-474.966723	-474.957611	-474.956667	-475.001285	32.548	
O	-0.2455280372	 1.4249112472	-0.0963602853	-0.403258
N	 0.0224607519	 0.0445146025	 0.064850748	-0.237725
C	-1.0649865453	-0.5987137682	 0.1353963989	 0.369844
C	-2.5390251852	-0.2602090931	-0.025682748	 0.059958
O	-2.8907772337	 0.5559177683	-1.1112379603	-0.430929
C	-2.8020549752	-1.7803955489	-0.2325271033	-0.259521
C	-1.337355175	-2.0973547575	 0.1909970742	-0.202605
C	-0.4966586	-2.9314051415	-0.7552152904	 0.152463
O	-0.9283707837	-3.4911272378	-1.7278679904	-0.229348
H	 0.6371927064	 1.7995557947	-0.1868115617	 0.31459
H	-2.9648477446	 0.1071355206	 0.9218686926	 0.089233
H	-2.3286092129	 1.3388270365	-1.0639821297	 0.298838
H	-3.5938669717	-2.2230767164	 0.3708778367	 0.113023
H	-2.9588216859	-2.0158849131	-1.2860888927	 0.149694
H	-1.2237513351	-2.5005290056	 1.2048848328	 0.118355
H	 0.5813895273	-2.9746006276	-0.4893898614	 0.097388
