21
gdb 83807	2.04203	1.81003	1.24058	1.5638	84.15	-0.2233	0.0166	0.2399	1114.1898	0.183693	-387.094404	-387.085812	-387.084868	-387.127282	33.871	
C	-0.1278679625	 1.5255859679	 0.1247655473	-0.478937
C	 0.0169269379	 0.0291939356	 0.0358383156	 0.293156
C	 0.0782500119	-0.6313916506	-1.1275599043	-0.163657
C	 0.1738920826	-2.1354815663	-1.2273561837	-0.244784
C	 0.9395999513	-2.7632695448	-0.0467479789	-0.243596
C	 0.5718542465	-2.1542229352	 1.3026490003	-0.09549
C	 1.4640304595	-1.0710371983	 1.8719377663	 0.113683
O	 2.6296533644	-0.681867365	 1.2115272958	-0.42084
C	 0.0968315835	-0.7080087287	 1.3281375741	-0.181268
H	 0.7062329682	 1.9707786055	 0.6811557243	 0.130539
H	-0.1688170624	 1.9874629184	-0.8655579293	 0.118749
H	-1.0427338232	 1.7988593578	 0.6660084651	 0.124355
H	 0.0096188336	-0.0728470508	-2.0590361583	 0.08091
H	-0.8433729855	-2.551890836	-1.2783501373	 0.110888
H	 0.6546842939	-2.4177231833	-2.1708723857	 0.09972
H	 0.7632082409	-3.8426599579	-0.0231288905	 0.097178
H	 2.0152760457	-2.6283363972	-0.2118966287	 0.112167
H	 0.1093766746	-2.8233553811	 2.0211829923	 0.081939
H	 1.6123224222	-1.0377152609	 2.9464414585	 0.099303
H	 2.3771131137	-0.3369594556	 0.3451457794	 0.281425
H	-0.6543715669	-0.4316329236	 2.0643918977	 0.084561
