16
gdb 9713	3.58652	1.61318	1.55665	4.697	70.49	-0.2524	-0.0075	0.2448	894.8554	0.131971	-342.801877	-342.794225	-342.793281	-342.833925	28.54	
N	-0.1769837047	 1.3838147367	-0.1326205656	-0.532746
C	 0.0360177594	-0.0658547671	 0.0683969738	 0.102682
C	-1.3326990735	-0.8251927241	 0.0958503861	-0.246358
C	-1.4453202577	-1.5608338455	-1.2625312059	-0.267808
C	-0.0409936369	-1.5137149828	-1.8086885183	-0.071138
C	 0.7690025932	-0.748751504	-1.0813517161	-0.103916
C	 0.7674965242	-0.2255893506	 1.3367489785	 0.277887
N	 1.3640090227	-0.3680312776	 2.3162159148	-0.342945
H	 0.7199646249	 1.8637287899	-0.1439328305	 0.238317
H	-0.5792582363	 1.5158933221	-1.0578996307	 0.23181
H	-1.332949801	-1.5473148911	 0.9142015328	 0.133975
H	-2.1392202251	-0.1141346102	 0.2819851698	 0.127082
H	-1.8082802072	-2.5871066206	-1.1404315349	 0.120247
H	-2.1488409066	-1.0708108626	-1.9486914277	 0.115079
H	 0.247973203	-2.0330367682	-2.7160359844	 0.108137
H	 1.8150302415	-0.5447711342	-1.2789796917	 0.109697
