17
gdb 51835	3.47368	1.10047	0.87591	4.2202	71.3	-0.2315	-0.0421	0.1894	1288.554	0.136327	-455.14699	-455.138435	-455.137491	-455.181122	30.727	
N	 0.0362075179	 1.2533963736	 0.0087434799	-0.44247
C	 0.0183407227	-0.0029765176	-0.0864498771	 0.138946
O	-1.1134542258	-0.6751086132	 0.2396299624	-0.187899
C	-1.1137041809	-2.0724662798	 0.0399637363	 0.003848
C	-2.3525320846	-2.7387464216	 0.6533774761	-0.220894
N	-2.592210823	-3.9541097502	-0.1444218659	-0.294934
C	-2.2439602673	-3.6108960562	-1.5289445602	-0.283495
C	-1.2273833268	-2.4680030263	-1.4521291795	 0.377387
O	-0.6398650273	-1.9372555204	-2.3560126116	-0.299925
H	 0.9555412406	 1.6069627495	-0.247709421	 0.231331
H	 0.8411493093	-0.6538062933	-0.4015647927	 0.0988
H	-0.195416626	-2.5282970594	 0.4433628441	 0.102556
H	-2.2398416167	-2.9859503453	 1.709755193	 0.122314
H	-3.2032142439	-2.054047316	 0.5538522913	 0.137455
H	-1.9813220916	-4.694563039	 0.1833757663	 0.228391
H	-1.8557356589	-4.4646571225	-2.0897304718	 0.139597
H	-3.1265759277	-3.2433350122	-2.0717850897	 0.148992
