19
gdb 32979	3.20547	1.0087	0.81963	2.6301	78.13	-0.2149	0.0305	0.2454	1396.0657	0.160241	-419.239539	-419.230196	-419.229251	-419.274683	33.067	
C	 0.064225156	 1.4188927124	 0.1002164979	-0.347008
N	 0.0320639784	-0.0288904901	 0.0650619343	-0.040587
C	-0.0303485692	-0.8026341594	-1.0591218007	-0.004082
N	-0.0856387839	-2.0842491141	-0.7840699739	-0.272583
C	-0.0611187691	-2.14909036	 0.5878469733	-0.164246
C	 0.0090960985	-0.8960163162	 1.1474123898	 0.259149
C	 0.0971502295	-0.4477463924	 2.5694821938	-0.341457
C	 1.540956181	-0.2077494052	 3.0526623047	-0.055923
O	 1.5949933817	 0.2794660476	 4.381194016	-0.412336
H	 0.9830312545	 1.7883185437	 0.5659180486	 0.145957
H	 0.0204653738	 1.7952479558	-0.9234459709	 0.146643
H	-0.7919216175	 1.8190351341	 0.6523447704	 0.146414
H	-0.0358688873	-0.3621892654	-2.0460568613	 0.122292
H	-0.1021767154	-3.0951335788	 1.1082059317	 0.101768
H	-0.4777799132	 0.4706580121	 2.7387055051	 0.110674
H	-0.3594362028	-1.2190918487	 3.2016339399	 0.108793
H	 2.1241332287	-1.1323858778	 2.928212196	 0.100872
H	 2.0234942107	 0.5585775796	 2.4364820752	 0.111723
H	 1.2767447957	-0.4162692072	 4.9653088802	 0.283938
