22
gdb 68020	2.55054	1.72909	1.30588	1.4273	85.7	-0.2222	0.0879	0.3101	1081.4259	0.19532	-367.173436	-367.165328	-367.164384	-367.205194	33.893	
C	-0.0556211306	 1.5255301483	 0.0517201044	-0.507283
C	 0.0274287944	 0.0162386486	 0.0450153666	 0.335675
C	 0.9160640126	-0.7898095108	-0.9738569537	-0.285511
C	 0.7410934354	-1.934235644	 0.0925170392	 0.335673
C	 1.6510985628	-3.1390158418	 0.1653069215	-0.507283
C	 0.7851835387	-0.7861467252	 1.1427674459	-0.301592
C	-0.7797040977	-2.173776376	-0.06703205	-0.078317
N	-1.62641438	-1.6709062023	 1.0456121204	-0.349482
C	-1.2864434212	-0.7888404417	-0.1007547369	-0.078318
H	 0.9392744557	 1.9795463183	 0.1080512187	 0.111576
H	-0.541898849	 1.902824696	-0.8560778714	 0.109778
H	-0.6352322044	 1.8827432959	 0.9104515416	 0.1215
H	 0.512294164	-0.9619975672	-1.977679397	 0.078342
H	 1.9426130671	-0.4157367331	-1.0369388197	 0.086945
H	 2.7031410847	-2.8412288887	 0.2257288307	 0.111576
H	 1.4250282048	-3.7487169409	 1.0474216595	 0.121499
H	 1.5374261062	-3.7793536494	-0.7178468973	 0.109779
H	 1.8035250638	-0.4103988485	 1.2719545069	 0.080555
H	 0.2984991671	-0.9408048462	 2.1040823388	 0.1184
H	-1.1453847172	-2.9693276731	-0.707780207	 0.080833
H	-2.5729167797	-2.020664443	 0.904506213	 0.224821
H	-2.0689218877	-0.445271275	-0.7692382444	 0.080833
