19
gdb 42012	3.19419	1.52434	1.13319	2.1169	77.	-0.2372	0.0072	0.2444	1085.2776	0.162078	-423.034769	-423.027315	-423.026371	-423.067088	28.962	
C	 0.0717427036	 1.468951873	-0.2688502595	-0.256822
C	 1.5146971585	 1.877492835	 0.1265960824	-0.235628
C	 2.0617669272	 0.6719617978	 0.9195064906	 0.076865
O	 3.4597013793	 0.4330449754	 0.7084475062	-0.26772
C	 3.7139626598	-0.8266131097	 0.1365390794	 0.012843
O	 3.1108418487	-1.8732693752	 0.8520178234	-0.245971
C	 1.6844132389	-1.866720996	 0.725628199	-0.174395
C	 1.1966932555	-0.4780952398	 0.4457159091	 0.261805
C	 0.1219718824	-0.0408873498	-0.2083628228	-0.212735
H	-0.6651775019	 1.8656871352	 0.4433272855	 0.111333
H	-0.2234452858	 1.8443140834	-1.2548728405	 0.107054
H	 2.1332749705	 1.9899477808	-0.7691035185	 0.113978
H	 1.5623255245	 2.8146250456	 0.6857530143	 0.101386
H	 1.9400169411	 0.8202562679	 2.0033366852	 0.086624
H	 3.3871809533	-0.8498097297	-0.9185953991	 0.080755
H	 4.7933967613	-0.9808522327	 0.1926614088	 0.118453
H	 1.3645809475	-2.5654023675	-0.0620505524	 0.105891
H	 1.2986059843	-2.2460694151	 1.6805833615	 0.122415
H	-0.6512163488	-0.6730187085	-0.6335176124	 0.09387
