20
gdb 96488	2.63597	1.42292	1.00675	1.4337	76.97	-0.2374	0.0209	0.2582	1203.5618	0.171847	-440.276646	-440.267963	-440.267019	-440.31027	32.736	
C	-0.2886954886	 1.510809941	 0.0536882377	-0.398157
C	-0.0361820002	 0.0073077551	 0.0099860583	 0.125839
C	 0.8486201731	-0.3820036757	-1.2009399826	-0.186733
N	 0.5572632577	-1.6841531339	-1.7722672362	-0.262242
C	 0.8192776184	-2.8212557082	-1.2998930946	 0.132797
O	 1.424023688	-3.2793441227	-0.1741603146	-0.225994
C	 1.8218458232	-2.4352335267	 0.9091892848	-0.088025
C	 0.6719513953	-1.6770706471	 1.5964278394	-0.089541
O	 0.5611674149	-0.3174834629	 1.2581777363	-0.247569
H	 0.6590991702	 2.0581498104	 0.0861934943	 0.123612
H	-0.8453848	 1.8329326234	-0.8305143805	 0.119858
H	-0.8627225096	 1.7702611767	 0.9464461196	 0.123857
H	-0.9943284526	-0.5281436435	-0.0858552163	 0.07846
H	 0.6599974863	 0.3457435971	-1.9970013625	 0.105234
H	 1.8987304244	-0.2534318657	-0.9109741905	 0.107688
H	 0.5253419391	-3.7013719574	-1.8743442634	 0.118401
H	 2.2624023272	-3.1386791335	 1.6204676739	 0.119194
H	 2.603496277	-1.7330359162	 0.6047745354	 0.124832
H	-0.2687867359	-2.2217509906	 1.4171256882	 0.105106
H	 0.8612583621	-1.6852462395	 2.6750851733	 0.113382
