16
gdb 22855	2.20016	1.72764	0.97938	2.6931	78.87	-0.2331	-0.0682	0.1649	1156.3556	0.123132	-437.880871	-437.872381	-437.871437	-437.914024	31.441	
C	-0.0262058931	 1.4891188988	 0.0992602933	-0.491852
C	-0.0083531861	-0.0038359822	 0.0323676231	 0.274537
C	-0.0230607259	-0.77905215	-1.0672125047	-0.188638
C	 0.0032270209	-2.2495099773	-0.758424129	-0.378918
C	 0.0380083199	-2.2903301518	 0.7780197474	 0.329345
O	 0.067066558	-3.2801348994	 1.4612964298	-0.292111
C	 0.0298314279	-0.8457043141	 1.2317285766	 0.219323
N	 0.0501088093	-0.3345004733	 2.4118054788	-0.233513
O	 0.0851974874	-1.2718876459	 3.4227406548	-0.343512
H	 0.8587094176	 1.8644760408	 0.6246525453	 0.140843
H	-0.056001482	 1.9298208681	-0.9001596767	 0.121362
H	-0.8942072067	 1.8416171596	 0.666959981	 0.140846
H	-0.050949507	-0.3932325645	-2.0800796586	 0.105029
H	-0.8760735806	-2.7931128339	-1.1263963671	 0.141185
H	 0.8791935541	-2.7700133708	-1.1656511961	 0.141233
H	 0.0961162862	-0.721264034	 4.214850502	 0.314841
