19
gdb 113031	5.10834	0.87937	0.80689	1.2391	84.6	-0.2486	0.0046	0.2532	1443.4096	0.158022	-385.853172	-385.844032	-385.843088	-385.887572	33.803	
C	-0.7420605234	 0.878383758	 0.3092241876	-0.235366
O	 0.0821355722	-0.2389227159	 0.0742301679	-0.24962
C	 0.864430052	-0.1452864751	-1.1156740204	 0.081833
C	 1.8017688186	-1.364783732	-1.1680206915	-0.247305
C	 1.0885587896	-2.4034001163	-2.0849779036	-0.194284
C	 0.1393424935	-1.5243947007	-2.8867336302	-0.061582
C	 0.0337786303	-0.300921409	-2.376546265	-0.09769
C	 1.9994894285	-3.1946821468	-2.9041705254	 0.316858
C	 2.7519172651	-3.8415977999	-3.5829974626	-0.473644
H	-0.1617141139	 1.8151170224	 0.3294172095	 0.100715
H	-1.5362912032	 0.9829128817	-0.4446773979	 0.105041
H	-1.2095615148	 0.7349480765	 1.2866872525	 0.127028
H	 1.4215154753	 0.8048182245	-1.0917647101	 0.064616
H	 2.7508050764	-1.0808971409	-1.628416666	 0.117607
H	 2.0029566653	-1.7467762943	-0.165973725	 0.119483
H	 0.4931033582	-3.0961500055	-1.4725322766	 0.121349
H	-0.3841492073	-1.9040316016	-3.7565945352	 0.110499
H	-0.6035098771	 0.4835790317	-2.7675964131	 0.100243
H	 3.4154197245	-4.4156621268	-4.1808216248	 0.194218
