11
gdb 23816	3.37026	2.28692	1.36243	1.1002	58.62	-0.2455	-0.0661	0.1793	791.0759	0.072267	-438.642949	-438.636876	-438.635931	-438.673333	22.634	
F	 0.0261891949	 0.0556373218	 0.15217309	-0.045149
C	 0.0097806014	 1.3753423609	 0.0441663583	 0.187015
C	-1.1579239711	 2.035042976	-0.0147302828	-0.025444
O	-1.2613824378	 3.3816777555	-0.1253090495	-0.230816
N	-0.1165493988	 4.1557835853	-0.1837886266	-0.047782
C	 1.012643214	 3.5439280176	-0.1289657676	-0.016528
C	 1.2622035195	 2.0988354663	-0.0097078245	 0.171672
N	 2.40533533	 1.5205478718	 0.0424345089	-0.52541
H	-2.1277808369	 1.5561644237	 0.0203349689	 0.164255
H	 1.8696922508	 4.2128456674	-0.1800676373	 0.146556
H	 3.1587844239	 2.2096356835	-0.0107387778	 0.221631
