16
gdb 123609	3.12022	2.21315	1.48428	3.64	73.63	-0.2118	-0.0298	0.182	854.7255	0.12809	-396.839408	-396.833094	-396.83215	-396.870077	25.45	
C	-0.11096082	 1.4897048189	-0.0482704233	-0.164285
C	 1.4392427577	 1.6966203634	 0.0633735445	-0.10875
C	 2.1210944796	 2.1969168736	 1.381939639	-0.179852
N	 2.3036028101	 0.9944952742	 2.2830760062	-0.357597
C	 1.6205692178	-0.0753303915	 1.6298337164	 0.063813
C	 1.3768813937	 0.2265384927	 0.3305129112	 0.123112
N	 0.0568418453	-0.0633844284	-0.0127387199	-0.081644
N	-0.4971873242	-0.7767788418	 1.0686547363	-0.213896
C	 0.4378076209	-0.8219671962	 2.0000641189	-0.041523
H	-0.6663776363	 1.8061101606	 0.8352874631	 0.144554
H	-0.5900811615	 1.8167887869	-0.9703569156	 0.137593
H	 1.9030989952	 2.0777721208	-0.8471604146	 0.093204
H	 3.0876015911	 2.6582678549	 1.1555620978	 0.113192
H	 1.5144336936	 2.9499832123	 1.9010095964	 0.116519
H	 3.2789221472	 0.8258265439	 2.4985217815	 0.234418
H	 0.2404966597	-1.3570334942	 2.9212887122	 0.121141
