18
gdb 126667	6.44772	0.72548	0.66011	2.7675	75.45	-0.2224	0.0005	0.2229	1682.8289	0.148301	-435.262051	-435.253214	-435.25227	-435.296794	31.418	
C	 0.0071225191	 1.5132910417	 0.00850253	-0.38383
C	-0.0445299845	-0.0169311136	 0.0028300156	-0.189134
C	-1.4726484943	-0.5367372761	 0.0135398679	-0.046207
O	-1.4118872261	-1.9707894382	 0.0074099981	-0.281262
C	-2.587896445	-2.6114322868	 0.0148215138	 0.408737
C	-2.7767835505	-3.9783370953	 0.0104581431	-0.204117
N	-4.129558529	-4.0928430843	 0.0219271644	-0.141165
N	-4.7392218647	-2.9038549129	 0.0322379544	-0.128496
N	-3.7959250816	-1.9928785107	 0.0280774618	-0.274762
H	 1.0410379885	 1.8693870321	 0.0006475802	 0.118342
H	-0.4963440956	 1.9330243289	-0.869135354	 0.120452
H	-0.4804768704	 1.9259300956	 0.898377221	 0.120453
H	 0.4679285134	-0.4111901226	-0.8822737099	 0.107497
H	 0.4836547553	-0.4182302967	 0.8754373007	 0.107503
H	-2.0181190691	-0.1977147093	 0.9027330267	 0.117234
H	-2.0338929518	-0.1908369961	-0.8630958599	 0.11724
H	-2.1039501134	-4.8166710063	 0.0009055948	 0.147224
H	-4.6888147504	-4.9307124896	 0.0232310411	 0.284291
