23
gdb 63460	2.66393	1.28915	1.03679	1.4059	86.08	-0.2392	0.0835	0.3227	1274.7176	0.203493	-388.268147	-388.258016	-388.257072	-388.302445	39.182	
C	-0.1035320986	 1.4649201496	-0.0197705652	-0.442545
C	 0.0510985772	-0.0444499929	 0.040427008	 0.28961
C	-1.0497654364	-0.7937190778	-0.688703406	-0.455394
C	 1.4620045059	-0.6174525302	-0.0111736212	-0.406954
C	 0.6660796907	-0.6546149698	 1.2785861177	 0.370798
O	 1.0164699557	 0.2947829986	 2.2610427406	-0.470818
C	 0.1837429698	-1.9339894996	 1.897723019	-0.05854
C	 0.4083050014	-3.3016273144	 1.3106511067	-0.26443
C	 1.1910366303	-2.878937833	 2.5252478657	-0.285574
H	 0.6857060092	 1.973025676	 0.534800597	 0.130354
H	-0.0775510423	 1.8069499264	-1.0611471916	 0.105219
H	-1.0642629578	 1.7764377649	 0.4067342384	 0.111
H	-1.0731985571	-0.4990405256	-1.7446207729	 0.111499
H	-0.916537736	-1.87647408	-0.6468278062	 0.121463
H	-2.0325581921	-0.5604777917	-0.2617023512	 0.112851
H	 1.6267960286	-1.5303690936	-0.5746923256	 0.102388
H	 2.2858492376	 0.0879756498	-0.0412635365	 0.10671
H	 1.6782094803	-0.1184406411	 2.8269298411	 0.27808
H	-0.7396986322	-1.8112709637	 2.4585424301	 0.091297
H	-0.3802999089	-4.0358464092	 1.4337493479	 0.113366
H	 0.9466045684	-3.3863338702	 0.3738579279	 0.115626
H	 2.2443043003	-2.6600990876	 2.3778400057	 0.110706
H	 0.9561537659	-3.3287542749	 3.4832196908	 0.113289
