19
gdb 94775	3.74925	1.15172	1.0199	3.0399	77.21	-0.2494	-0.0222	0.2272	1208.0647	0.159058	-423.039135	-423.03075	-423.029806	-423.072049	31.844	
C	 0.0747301461	 1.5755963445	-0.049049713	-0.400645
C	 0.0555354742	 0.0584928557	 0.0518707843	 0.13102
O	 0.7341002841	-0.4836568058	-1.0808813333	-0.27136
C	 1.1485039825	-1.8104617524	-0.7683145077	-0.156533
C	 1.4632272355	-1.7960910052	 0.7186077621	 0.231167
C	 2.2582966117	-0.5948776533	 1.2119167087	-0.338613
C	 0.7705748358	-0.5419689699	 1.2596856985	-0.10867
C	 1.4792550291	-3.0492166667	 1.4910842769	 0.073547
O	 1.2911460603	-4.1460204126	 1.0201592713	-0.269583
H	 1.1006931917	 1.9527778298	-0.0189138173	 0.123832
H	-0.3846782231	 1.8953966572	-0.9882349071	 0.13183
H	-0.4864796646	 2.0207215135	 0.7781177404	 0.117275
H	-0.9900415475	-0.2946479745	 0.067362111	 0.073837
H	 0.3563798612	-2.5465269701	-0.9664611662	 0.114507
H	 2.0068647471	-2.0460112367	-1.4039384828	 0.117481
H	 2.7879860005	-0.7103126071	 2.1517446747	 0.123701
H	 2.7824441158	-0.0213483889	 0.454728417	 0.13872
H	 0.2589131673	-0.5615180659	 2.2152550318	 0.102169
H	 1.6830419523	-2.9159683013	 2.5795827809	 0.066317
