20
gdb 61924	2.63706	0.9746	0.78199	2.5558	81.62	-0.2376	0.0249	0.2625	1495.5287	0.168559	-403.071552	-403.061477	-403.060533	-403.107565	36.193	
C	 0.0017332576	 1.505085433	-0.0176330302	-0.404089
C	 0.0264973551	-0.026144358	 0.0366358371	 0.114515
O	-1.2886506944	-0.5747739398	 0.0462648039	-0.266049
C	-1.9475724371	-0.5216298763	 1.2978184989	-0.212428
C	-3.2139743799	-1.2373007851	 1.2132809996	 0.278525
C	-4.2629035816	-1.8198208697	 1.1681041624	-0.413265
C	 0.743720083	-0.611862347	-1.1686760611	 0.01128
C	 0.5057460593	-2.0068888819	-1.6017882685	-0.24612
N	 0.0055230512	-0.8765535102	-2.4114827933	-0.323738
H	 1.0231122851	 1.8978377153	-0.0376506971	 0.121932
H	-0.5157075671	 1.8434364902	-0.9199672688	 0.135804
H	-0.5000967132	 1.9349094025	 0.8541233916	 0.116256
H	 0.5570320917	-0.3475685906	 0.9494170594	 0.073588
H	-1.3162563228	-0.9747525161	 2.0804589088	 0.12219
H	-2.1371236961	 0.5185901302	 1.6047346831	 0.125631
H	-5.1897597344	-2.3364085408	 1.1234486185	 0.203574
H	 1.7301250661	-0.1790611694	-1.3266032835	 0.087304
H	 1.3103703349	-2.5777970128	-2.0565966876	 0.111607
H	-0.2198259202	-2.5869566809	-1.0406952502	 0.120902
H	-0.9880544671	-0.7694811927	-2.2147135532	 0.242581
