19
gdb 19905	4.46625	1.49705	1.34534	1.5145	74.64	-0.2132	0.0651	0.2783	997.0095	0.166031	-327.826999	-327.81957	-327.818626	-327.858805	29.17	
C	-0.2549608857	 1.5686478759	 0.1369176883	-0.40682
C	 0.1389704792	 0.118548207	-0.1719863211	-0.211834
C	 0.803080965	-0.5415697362	 1.0375819329	 0.031639
C	 0.7998697597	-1.9339258099	 1.5531250504	-0.075787
C	 0.9686897916	-3.0989751117	 0.5622620344	-0.068094
C	 1.0586632009	-2.6683468054	-0.8747267472	-0.300936
C	 2.2027916913	-2.3863651433	 0.0658686404	-0.00288
N	 2.0911129101	-1.280979615	 1.0999504548	-0.173304
H	 0.6219484514	 2.1642534514	 0.4115489483	 0.125569
H	-0.7248256801	 2.041367009	-0.7307988013	 0.112954
H	-0.9651807815	 1.617074721	 0.9694394915	 0.119706
H	-0.7547083587	-0.437112309	-0.4752565931	 0.114796
H	 0.8263056718	 0.1094672411	-1.0232404971	 0.121162
H	 0.8249166247	 0.1518910551	 1.8807176341	 0.096589
H	 0.6412537825	-2.1362331239	 2.6094844412	 0.092767
H	 0.8474500595	-4.130326264	 0.8648484624	 0.093558
H	 1.2852286378	-3.4920025807	-1.5473979873	 0.113395
H	 0.418586482	-1.9207924886	-1.3153253427	 0.11542
H	 3.2035426787	-2.7558477127	-0.1167956091	 0.102101
