18
gdb 84474	3.93429	1.20523	1.04581	3.2054	78.47	-0.2322	-0.0258	0.2064	1167.775	0.147118	-401.940405	-401.932229	-401.931285	-401.973042	31.26	
C	-0.2032640747	 1.5941623253	 0.0537134163	-0.394354
C	 0.0399732129	 0.0849877336	-0.0089757952	-0.007607
C	 0.6883230368	-0.4268756451	-1.282144876	-0.092556
C	 1.7384808636	-1.1998036381	-1.0130004741	-0.159737
C	 1.9601089996	-1.2528142756	 0.460025278	 0.212091
C	 2.2828241979	 0.0770766097	 1.0936465941	-0.276693
N	 0.9116116073	-0.4024135168	 1.1007516641	-0.146732
C	 2.3586393435	-2.5061490631	 1.1493224796	 0.086029
O	 2.7760843737	-3.4857202675	 0.5826926172	-0.261137
H	 0.7194594653	 2.1616534105	-0.0973875927	 0.119484
H	-0.911990138	 1.8923239764	-0.7248136816	 0.122782
H	-0.6256584977	 1.870764675	 1.0236064272	 0.132795
H	-0.9310041293	-0.4118643413	 0.1290454336	 0.100613
H	 0.3162863986	-0.1765327882	-2.2690349069	 0.106826
H	 2.3632957086	-1.7325190529	-1.7165259055	 0.125008
H	 2.7462031851	 0.1153924666	 2.0767166129	 0.124504
H	 2.5925855959	 0.8562206454	 0.4023846584	 0.127816
H	 2.2524372107	-2.4629635239	 2.2558911406	 0.080869
