17
gdb 125722	5.63293	0.98261	0.90053	1.8143	76.52	-0.2609	-0.0128	0.2481	1318.6245	0.136577	-418.015438	-418.007335	-418.006391	-418.048705	29.669	
C	-0.1931019718	 1.4575700661	 0.0057297925	-0.48836
C	-0.0096446213	-0.0207619791	-0.002456011	 0.349472
N	 0.2105456886	-0.6898892738	-1.1036479026	-0.175097
O	 0.3191228987	-2.0199779243	-0.6573018475	-0.216864
C	 0.1492560695	-1.9911939433	 0.6731716332	 0.44015
N	-0.0569398838	-0.7935949332	 1.1394408372	-0.369021
C	 0.2108360432	-3.2465681377	 1.4204660512	-0.120252
C	-0.3124530834	-4.5317685032	 0.7985493854	-0.261383
C	 1.1608225076	-4.3501436007	 0.9823461778	-0.261391
H	 0.5664622814	 1.9291461376	 0.636404704	 0.147955
H	-0.1177555604	 1.8548333673	-1.0074270644	 0.148464
H	-1.1711668881	 1.7146262679	 0.4232622884	 0.147951
H	 0.0605881839	-3.1028775559	 2.4826645879	 0.120281
H	-0.8421261972	-5.2102881481	 1.4568696785	 0.127485
H	-0.7101171933	-4.4612378513	-0.2067527828	 0.141562
H	 1.7612291979	-4.1565836931	 0.1015566583	 0.141567
H	 1.6618221486	-4.9016104653	 1.7692464638	 0.127482
