18
gdb 70511	2.35603	1.95149	1.25037	3.1277	78.89	-0.2323	-0.0518	0.1805	1023.8291	0.148191	-401.958474	-401.950519	-401.949574	-401.990693	30.908	
C	 0.2316100155	 1.4898645203	-0.0540228661	-0.454726
C	-0.0025796781	-0.0022554285	-0.0198240607	 0.191759
C	-0.858363374	-0.6149505589	 1.0561249984	-0.279523
N	 0.5846601674	-0.7406917308	 1.1204625234	-0.141253
C	 1.1626087507	-2.0640220111	 0.8931884371	-0.214058
C	 0.7580533597	-2.7667937545	-0.3713035662	-0.057457
C	 0.1785068936	-2.1336368524	-1.3960204935	-0.163693
C	-0.0830515361	-0.680334734	-1.3609241602	 0.347602
O	-0.334562491	-0.0493652116	-2.3713368522	-0.341774
H	 1.1929613665	 1.7217429571	-0.5227708055	 0.126109
H	-0.5489101728	 1.9811066224	-0.6396843732	 0.139069
H	 0.2356320019	 1.8931564509	 0.9609700265	 0.119635
H	-1.3029774478	 0.0421847543	 1.799325744	 0.123434
H	-1.452833505	-1.4880185156	 0.7956807696	 0.119934
H	 2.2579089658	-1.9646234316	 0.9070208833	 0.133271
H	 0.9137804459	-2.6878815841	 1.7617345406	 0.125902
H	 0.9866425869	-3.8290852321	-0.4357402903	 0.111082
H	-0.0684824691	-2.6361976497	-2.3255286551	 0.114689
