16
gdb 9497	2.92389	1.7026	1.53551	5.0997	65.09	-0.2566	0.0183	0.2749	903.1207	0.130507	-379.911629	-379.903475	-379.902531	-379.943822	30.499	
N	 0.0071263009	 1.4764126584	-0.0497762652	-0.546997
C	 0.0227245057	 0.0188324185	-0.037447474	 0.089365
C	 0.1728327398	-0.5447526444	 1.4102572909	-0.248724
C	-1.36170721	-0.7743502675	 1.4696363192	-0.285829
C	-1.4013764006	-0.684775916	-0.0779530281	 0.130523
O	-2.4441393058	-0.0239906079	-0.7259093512	-0.415524
C	 0.9781438467	-0.4654634394	-1.0327867786	 0.272116
N	 1.7021241622	-0.8957861724	-1.8247752047	-0.340425
H	-0.4239466016	 1.824736152	-0.9014877293	 0.244835
H	-0.5072991699	 1.8429156015	 0.7441518896	 0.232852
H	 0.7399848996	-1.4761257994	 1.4250065649	 0.135781
H	 0.6178158151	 0.1524793354	 2.1225054803	 0.123414
H	-1.7221714461	-1.6985877086	 1.9233467787	 0.120109
H	-1.8900309704	 0.0637677227	 1.9362946625	 0.099679
H	-1.3246910813	-1.6715165125	-0.5404824574	 0.116686
H	-2.5482980044	 0.8441172996	-0.3201403677	 0.272139
