23
gdb 120545	3.03907	0.758	0.67316	0.871	82.96	-0.2425	0.0804	0.3228	1770.1788	0.204434	-425.414393	-425.403941	-425.402997	-425.450939	37.569	
C	-0.5621914499	 1.3298170648	-0.4131199726	-0.379718
C	-0.1801233034	-0.1358499863	-0.1874168113	-0.188578
C	 0.8950457866	-0.6087559907	-1.1494561255	 0.18083
C	 1.1841246443	-2.1215232978	-1.2572717204	-0.342653
C	 0.8590785403	-1.9389941663	-2.7546671784	 0.158961
C	-0.2490135076	-2.7763867339	-3.3649917497	-0.191148
C	-0.6508535599	-2.2888655803	-4.751487673	-0.073142
O	-1.6857092969	-3.1376632481	-5.2276949885	-0.423348
O	 0.4635121436	-0.5604714463	-2.5345049536	-0.318212
H	 0.292195647	 1.9938740598	-0.2410610201	 0.112119
H	-0.9007512371	 1.4787644798	-1.442359381	 0.136152
H	-1.3669598984	 1.6386350577	 0.2604987383	 0.110622
H	 0.1856231737	-0.2842299251	 0.8376641332	 0.094008
H	-1.0630954791	-0.7758427321	-0.3068680228	 0.096972
H	 1.8052224139	-0.003569486	-1.0188812547	 0.066872
H	 2.196667795	-2.4456490213	-1.0131846357	 0.105555
H	 0.4646473635	-2.7470466269	-0.7222335791	 0.105978
H	 1.7540027512	-1.9743604882	-3.3946280569	 0.068251
H	 0.0837900156	-3.820223545	-3.431876372	 0.10363
H	-1.1291626799	-2.7548751436	-2.7124092605	 0.104503
H	-0.9838188329	-1.2432266111	-4.6826624511	 0.106948
H	 0.2243981356	-2.3132058635	-5.4221303507	 0.080563
H	-1.9928986452	-2.7901431096	-6.069858174	 0.284837
