18
gdb 55975	3.31553	0.93627	0.82226	2.6083	75.67	-0.2441	-0.027	0.2171	1434.2289	0.145813	-439.130176	-439.120625	-439.119681	-439.166365	33.453	
C	 0.2921243102	 1.4775871063	 0.0458624269	-0.493809
C	 0.1324119682	-0.0208196589	 0.2375342159	 0.409591
O	 0.9893317533	-0.7183287242	 0.7452005478	-0.361133
N	-1.0561815615	-0.537362764	-0.2210229406	-0.33066
C	-1.2976514221	-1.9452699061	-0.2769454547	-0.033504
C	-2.4277680172	-2.6412834855	 0.5609308764	-0.259721
C	-2.7830995638	-3.5276847147	-0.670685594	-0.335343
C	-2.0026318859	-2.5128107426	-1.5223485015	 0.364653
O	-2.0826197973	-2.1310467025	-2.6540235864	-0.298936
H	 0.9474197847	 1.8639367593	 0.8269566241	 0.154373
H	 0.7677632695	 1.6688249064	-0.9221046172	 0.154786
H	-0.662414791	 2.0106579337	 0.0686091159	 0.123095
H	-1.6779429716	 0.0649161026	-0.7377230115	 0.250403
H	-0.3426649018	-2.4507700702	-0.0993219077	 0.147938
H	-2.1003656225	-3.1518979191	 1.4662704633	 0.123046
H	-3.2321150599	-1.9437100566	 0.8053128307	 0.114794
H	-2.2919111609	-4.5052868816	-0.6505674394	 0.137728
H	-3.8340034904	-3.6634139325	-0.9320589879	 0.132699
