18
gdb 45521	3.23857	1.45839	1.12234	2.9293	78.2	-0.2491	0.0096	0.2587	1089.826	0.150396	-401.966241	-401.958946	-401.958002	-401.99815	28.821	
N	 0.0132210988	 1.2177956941	-0.5611266877	-0.548919
C	 0.0204081225	 0.0390975692	-0.1364352855	 0.430569
O	 1.0645051932	-0.7738145739	 0.2548891113	-0.270811
C	 0.1423427507	-1.8508544034	 0.6528645646	 0.10854
C	 0.1490561137	-2.0961948376	 2.1573890368	-0.224573
C	-1.2575923125	-2.4594357669	 2.6691013201	-0.266242
C	-2.2733291128	-1.4303012804	 2.2322548294	-0.053886
C	-2.1558242549	-0.7407420929	 1.0980077275	-0.071249
C	-1.0474921508	-1.0114880196	 0.1294653021	-0.195822
H	 0.9579750504	 1.6036389093	-0.6070458181	 0.227074
H	 0.3629189642	-2.7534696321	 0.0777844272	 0.091629
H	 0.8778519471	-2.8685914263	 2.4217348658	 0.104103
H	 0.4656264969	-1.1681687139	 2.644223291	 0.122362
H	-1.550767996	-3.4591150462	 2.3158665875	 0.114133
H	-1.2389598088	-2.5278281259	 3.761809676	 0.112076
H	-3.11990694	-1.2484051396	 2.8886205573	 0.095597
H	-2.8825226619	 0.0158567326	 0.818059294	 0.108742
H	-1.44891472	-1.3898461364	-0.8178841992	 0.116677
