19
gdb 73694	2.35061	1.7712	1.37489	1.0286	69.6	-0.2446	0.0661	0.3107	1002.769	0.161234	-460.163184	-460.155424	-460.15448	-460.195432	30.294	
O	-0.0872562645	 1.3828667292	 0.0206456751	-0.48244
C	 0.032361096	-0.0303524552	 0.0137057304	 0.365594
C	 0.669262593	-0.5887428198	-1.2768692134	-0.156687
O	-0.0102771785	-1.8050410815	-1.5351292064	-0.245591
C	-1.3841614765	-1.5390943661	-1.2577366941	-0.112319
C	-1.3848312637	-0.673696835	 0.0110307139	-0.066426
C	-1.4319053627	-1.4531278196	 1.3427555122	-0.099271
O	-0.438305426	-0.8729087766	 2.1744879095	-0.238394
C	 0.6493526855	-0.5883044833	 1.3154300736	-0.139135
H	 0.7928320637	 1.7622837958	 0.1139278375	 0.278881
H	 0.5146042958	 0.1425617246	-2.086490582	 0.093201
H	 1.7376264216	-0.8117833307	-1.1949061625	 0.102772
H	-1.8473556324	-1.0010961567	-2.0992942888	 0.095784
H	-1.8914053279	-2.5009299605	-1.1397742601	 0.110065
H	-2.1391504727	 0.1137445354	-0.0168157952	 0.098276
H	-2.3899779073	-1.3784681107	 1.8625624917	 0.111596
H	-1.2112755484	-2.5193220695	 1.1661532081	 0.092154
H	 1.2221960602	-1.5050538978	 1.0960555888	 0.093402
H	 1.3058418746	 0.1295193381	 1.8165039216	 0.098536
