19
gdb 78963	2.59535	2.11152	1.58252	1.6976	77.13	-0.2188	0.0728	0.2915	921.5278	0.159758	-381.975815	-381.968387	-381.967443	-382.007158	30.029	
C	-0.1522295769	 1.5256519498	 0.0068758305	-0.338267
N	 0.0163483612	 0.0820621147	 0.021240322	-0.102781
C	 1.0541931802	-0.5206262018	-0.8329673529	-0.051223
C	 2.465267683	-0.0864006877	-0.3203137206	-0.057948
C	 2.2148132739	-0.1053093222	 1.1443150673	-0.107957
N	 2.7125041469	-1.345228433	 0.4600723754	-0.183089
C	 1.2361389037	-1.6620227802	 0.2020493015	-0.055861
C	 0.7118941529	-0.5546944309	 1.1668356851	 0.336144
C	-0.0152336317	-0.734180064	 2.469649966	-0.519899
H	 0.7894839961	 2.0757179134	 0.1746295602	 0.102756
H	-0.5624730922	 1.8348529804	-0.960007616	 0.121952
H	-0.8666178597	 1.8216221462	 0.7816703426	 0.122109
H	 0.8611260522	-0.6201443335	-1.8999622806	 0.07708
H	 3.2705614049	 0.4450502584	-0.8121376197	 0.09594
H	 2.8082991425	 0.4108785487	 1.8895262128	 0.092777
H	 0.8793068091	-2.6858417574	 0.1254383287	 0.086252
H	 0.5700316459	-1.3583238055	 3.1522685892	 0.131141
H	-0.1827418064	 0.2300143541	 2.9641026792	 0.121442
H	-0.9876575556	-1.2077464296	 2.3078978192	 0.12943
