15
gdb 12428	3.59358	2.02061	1.3537	3.4077	70.17	-0.221	-0.0353	0.1857	875.0528	0.121319	-362.704499	-362.697561	-362.696617	-362.73649	25.902	
O	-0.0062785254	-0.0620514267	-0.4425403243	-0.36979
C	-0.0050080145	 1.1187128384	-0.1350555892	 0.362355
N	-1.2137219813	 1.790033485	-0.0257305426	-0.340902
C	-1.5006993652	 3.1462977953	 0.1378638274	 0.019271
C	-0.7716960888	 4.0562683288	 0.7837029718	-0.096054
C	 0.4990632246	 3.7746775981	 1.5486015669	-0.327141
C	 1.5063507665	 2.9514371664	 0.7857384035	-0.066801
C	 1.2686049215	 1.8443467714	 0.077688645	-0.117095
H	-1.9816225009	 1.1900438777	-0.2932994894	 0.252288
H	-2.4384288256	 3.4359293452	-0.3267471073	 0.110633
H	-1.1349455452	 5.0776700242	 0.7754007898	 0.098702
H	 0.9615357015	 4.7208421662	 1.8421531496	 0.115008
H	 0.260120142	 3.2594945202	 2.4930029172	 0.134686
H	 2.5400768906	 3.2853111286	 0.8499176373	 0.10773
H	 2.1002602602	 1.3097252811	-0.3699685857	 0.117108
