20
gdb 83043	2.14503	1.81177	1.37691	1.7868	79.42	-0.2175	0.0107	0.2282	1039.5267	0.171996	-403.122456	-403.114024	-403.11308	-403.155049	33.077	
C	 0.2736007542	 1.7512364026	 0.1098619711	-0.446368
C	 0.0951824761	 0.2527487705	-0.0251581754	 0.007515
C	 0.5030034027	-0.5659499784	-1.2075496331	-0.063945
C	 1.1984040347	 0.0222768793	-2.4291479381	 0.067387
O	 0.3619493922	 0.9398754037	-3.140082514	-0.436602
C	 2.5512170574	 0.6056095858	-2.1320246278	-0.111698
C	 3.1624267376	 0.4823347689	-0.956970273	-0.049763
C	 2.5650905241	-0.2365424444	 0.2206574562	-0.205936
N	 1.1894162382	-0.7176109198	 0.0893915125	-0.129551
H	 1.1448136219	 2.1358201204	-0.4227298571	 0.129949
H	-0.620047014	 2.266330938	-0.261431289	 0.123381
H	 0.3808426648	 2.0269880173	 1.1651497831	 0.125897
H	-0.7993860288	-0.0962241668	 0.4919452562	 0.0904
H	-0.1354692529	-1.4132889445	-1.452212538	 0.090627
H	 1.3368959682	-0.7949178054	-3.1494020627	 0.100936
H	 0.2113980109	 1.6969934912	-2.5647605379	 0.282012
H	 3.023416292	 1.1249011089	-2.9619455145	 0.098201
H	 4.1575206463	 0.8968485563	-0.8071464956	 0.092218
H	 3.1941604883	-1.108598873	 0.4523607719	 0.121595
H	 2.624328756	 0.4045456094	 1.1113167249	 0.113744
