16
gdb 68938	2.30658	1.65289	1.16375	3.4856	71.36	-0.2547	-0.042	0.2127	1060.9619	0.122772	-437.896961	-437.888526	-437.887582	-437.929979	31.097	
C	 0.1961759088	 1.4459433519	 0.203447983	-0.47752
C	 0.0420461101	-0.0355369315	 0.0613476543	 0.324236
C	 1.0771993989	-0.978907155	-0.4143061678	-0.349268
C	 0.5534952675	-1.1426022297	 1.0317662831	 0.000728
C	 1.4326386111	-0.9563010552	 2.1946625256	 0.064809
O	 2.4741287551	-0.3388550403	 2.1555079163	-0.277316
C	-0.8508859432	-1.7178393404	 0.9399684075	 0.377066
O	-1.4208534649	-2.6714994932	 1.3866505734	-0.337391
N	-1.283320426	-0.6716329543	 0.1038950977	-0.390403
H	 1.2192471891	 1.6871172539	 0.5041344319	 0.156607
H	-0.0081487019	 1.9514394372	-0.7471184682	 0.132422
H	-0.4963766205	 1.8351248614	 0.954397416	 0.139571
H	 0.8342345873	-1.7557544052	-1.1327152255	 0.131513
H	 2.0984924308	-0.6100338745	-0.4412912119	 0.156254
H	 1.0635992583	-1.4108980649	 3.1370129898	 0.101464
H	-1.8743861303	-0.8094373505	-0.7086398152	 0.247229
