21
gdb 93795	2.8798	1.31198	0.94173	4.0313	80.87	-0.2248	0.0595	0.2844	1284.9543	0.18425	-420.469179	-420.459825	-420.458881	-420.503345	34.702	
C	-0.0792643863	 1.554966929	 0.023641812	-0.406487
C	 0.0752943452	 0.0359217714	-0.0257124392	 0.064478
C	 0.7949711819	-0.4439263572	-1.2850639857	-0.20934
C	 1.0267404639	-1.9500517326	-1.2154425115	-0.160191
N	 1.6622989041	-2.3366521524	 0.0343014371	-0.121901
C	 2.2306108118	-3.668811072	 0.092502047	-0.33779
C	 1.4948815862	-1.6408476797	 1.2165812246	 0.46839
O	 1.9190289163	-2.0400099644	 2.2911081589	-0.429294
N	 0.8546200662	-0.4207165446	 1.1149493225	-0.365833
H	 0.8995933839	 2.0430193009	-0.0153877422	 0.128006
H	-0.6818074401	 1.9069385315	-0.8191950042	 0.119777
H	-0.5805998857	 1.8693958091	 0.9454915444	 0.117156
H	-0.9333929044	-0.4133515073	-0.0135640391	 0.075013
H	 0.2047991733	-0.2024724474	-2.1742741701	 0.103169
H	 1.756498123	 0.0758973191	-1.3652229263	 0.11364
H	 0.0708526924	-2.4856014029	-1.3466633488	 0.098898
H	 1.6747538814	-2.2676292635	-2.0416464835	 0.107039
H	 3.0247322387	-3.7785437693	-0.65626	 0.113197
H	 2.6430314653	-3.8193622366	 1.0886466167	 0.168984
H	 1.4708591603	-4.4399902322	-0.1017193389	 0.109993
H	 0.6530844626	-0.0279904889	 2.0214312263	 0.243094
