19
gdb 109344	3.17089	1.39172	1.08086	1.7285	77.24	-0.2279	0.0302	0.2581	1154.89	0.161254	-419.194455	-419.186379	-419.185434	-419.227031	30.83	
C	 0.0702172335	 1.3506560427	 0.1029410691	-0.221493
O	 0.0525719634	-0.0680267282	-0.042070765	-0.234957
C	 0.5840701852	-0.550476563	-1.1771942208	 0.429574
N	 1.04631361	 0.2147419752	-2.0789680403	-0.33176
C	 1.6724758837	-0.3927945377	-3.245751196	-0.173157
C	 1.089377033	-1.7610103348	-3.6319041248	-0.23581
C	 0.8498991284	-2.6306473349	-2.4191040842	 0.004049
C	 1.7831367434	-2.6841671077	-1.2684643428	-0.25723
N	 0.4898397808	-1.9683559416	-1.1513983181	-0.158834
H	 1.0928451737	 1.7364176132	 0.05956965	 0.129781
H	-0.5109009191	 1.8305135699	-0.6896260735	 0.132986
H	-0.3748927148	 1.5510890212	 1.0786287742	 0.124661
H	 1.5711213455	 0.2996701796	-4.0880770174	 0.107868
H	 2.7531595479	-0.4812086456	-3.0653905816	 0.106244
H	 0.1253295384	-1.6120052066	-4.1331235939	 0.114795
H	 1.7442745408	-2.2702718054	-4.3478270115	 0.107488
H	 0.2412358469	-3.5144585175	-2.5997343116	 0.100126
H	 1.8566866557	-3.581324399	-0.6613238086	 0.126174
H	 2.6861918638	-2.0814647198	-1.3034008233	 0.129495
