19
gdb 101885	5.89233	0.57954	0.54429	2.8489	75.35	-0.2611	0.0203	0.2814	1965.0562	0.155702	-460.102873	-460.092276	-460.091332	-460.139616	37.238	
O	 0.0305402937	 1.4104294502	-0.1958243835	-0.427368
C	 0.0952142237	 0.0054724376	-0.0776257403	-0.048267
C	-1.2930191388	-0.5872730319	 0.1408097811	 0.089442
O	-2.0762569438	-0.1628024978	-0.9678386813	-0.453366
C	-1.2923737341	-2.1071285917	 0.2302120626	-0.074622
O	-2.6514612085	-2.5010713365	 0.3278106498	-0.263567
C	-2.8297609121	-3.9055072243	 0.280907729	-0.2046
C	-4.2486570082	-4.2270509236	 0.3442062485	 0.27476
C	-5.4129870803	-4.5158280195	 0.3928883881	-0.408029
H	-0.6806871558	 1.5869865204	-0.8237713608	 0.294577
H	 0.5422513496	-0.4547108353	-0.9746216037	 0.087516
H	 0.7419408971	-0.2187204129	 0.7772443433	 0.1051
H	-1.7089276383	-0.1803235703	 1.0759858428	 0.084074
H	-2.9228565637	-0.6191573082	-0.8968014673	 0.297173
H	-0.8340754446	-2.5394386526	-0.6739302152	 0.097235
H	-0.720860152	-2.4516811085	 1.1070846693	 0.095472
H	-2.3943063367	-4.3161331008	-0.6455385739	 0.124709
H	-2.3001478677	-4.3858973765	 1.1204017866	 0.124661
H	-6.4439007596	-4.7674232376	 0.437938685	 0.205099
