17
gdb 11005	3.91149	1.74354	1.47636	3.0664	68.74	-0.2403	-0.0209	0.2194	894.0007	0.143182	-363.878587	-363.871328	-363.870384	-363.909875	28.01	
C	-0.0075723373	 1.5131939109	-0.0322040207	-0.464483
C	-0.0335168142	 0.0091401489	 0.057103623	 0.332693
C	-1.2899238356	-0.7410784156	-0.394940274	-0.281683
C	-1.2047640249	-2.138635134	 0.2536675491	-0.360197
C	-0.2270670262	-1.9757106731	 1.4326640198	 0.41887
O	-0.1854901135	-2.6739980108	 2.4146043457	-0.32347
C	 0.6082022091	-0.7587877012	 1.178419756	-0.177558
N	 1.2332161641	-0.676944124	-0.1659402915	-0.358261
H	 0.9550099777	 1.9013125376	 0.3084652264	 0.13597
H	-0.154395187	 1.838581449	-1.0685332018	 0.124105
H	-0.8035339773	 1.9557005353	 0.5757414988	 0.121425
H	-2.175886848	-0.2081941942	-0.0332792358	 0.115894
H	-1.3617595929	-0.7739027808	-1.4877532584	 0.108787
H	-2.1616487803	-2.5068157137	 0.6280511529	 0.137854
H	-0.8274732582	-2.9051020631	-0.4331766418	 0.130686
H	 1.1675496012	-0.3153300349	 1.9944785381	 0.106009
H	 1.1165943033	-1.5487205664	-0.6790031558	 0.233356
