17
gdb 51331	4.73079	0.99158	0.94909	3.4402	71.62	-0.2405	-0.0194	0.2211	1236.2058	0.135102	-421.759141	-421.751521	-421.750577	-421.792559	28.484	
O	-0.6798561889	 0.7364399552	 0.6931806534	-0.240852
C	 0.1064946922	 0.9130588697	-0.2022467567	 0.156527
C	 1.357860142	 1.7521834651	-0.1056901594	-0.303425
C	 1.3795127858	 2.882399817	-1.1412650098	-0.00381
C	 2.6052163398	 3.7940181039	-1.2373936418	-0.14159
C	 3.5527633168	 3.0701670816	-2.2117261121	 0.093963
O	 2.9565436112	 1.8213818934	-2.5670470624	-0.288467
C	 1.695347524	 2.5446872662	-2.6333798259	 0.047501
C	 2.4546230152	 3.917069855	-2.7518370258	-0.148505
H	-0.0605560706	 0.4480677111	-1.202680247	 0.071748
H	 1.4318087893	 2.1515383749	 0.9103000554	 0.116422
H	 2.2231917967	 1.1055492142	-0.2976885311	 0.135777
H	 0.4723312811	 3.4932061961	-1.0915684726	 0.091341
H	 2.9463486412	 4.5411008954	-0.5322255005	 0.09735
H	 4.6300505193	 3.1640114538	-2.2227685925	 0.116106
H	 0.9754881299	 2.1004385918	-3.3171346786	 0.092767
H	 2.407475415	 4.7597368857	-3.4260957924	 0.107145
