14
gdb 28380	3.22108	1.43659	0.99959	1.9539	71.28	-0.2284	-0.0663	0.1621	1105.9015	0.100015	-473.88369	-473.875799	-473.874855	-473.916175	29.225	
C	-0.0300394781	 1.5057727778	-0.0055700779	-0.461889
C	-0.0085368504	 0.0064980705	-0.0435025277	 0.167452
N	-0.0429960694	-0.6358377283	-1.1714847209	-0.259905
C	-0.0230020488	-2.0011066641	-1.197574172	-0.187834
C	 0.0333364429	-2.7047667584	-0.0387580315	 0.447699
O	 0.0569015075	-4.0359345351	 0.0405550417	-0.390654
O	 0.0705899555	-2.0926477313	 1.149226937	-0.245167
C	 0.0528878671	-0.67827264	 1.2506733474	 0.370207
O	 0.0886220992	-0.199394373	 2.3478879546	-0.314438
H	 0.8624489453	 1.8967556929	 0.4952282994	 0.14348
H	-0.0777034759	 1.8941304743	-1.0234133014	 0.139464
H	-0.8899873759	 1.8697987428	 0.5672435431	 0.143503
H	-0.0528403494	-2.5043055755	-2.1537489707	 0.129923
H	 0.0974828004	-4.2850990226	 0.9739744789	 0.318159
