22
gdb 14122	3.54149	1.56707	1.33523	0.3355	81.74	-0.2426	0.084	0.3266	1047.3219	0.200103	-313.051614	-313.043004	-313.042059	-313.084457	33.32	
C	-0.1981244077	 1.56730855	-0.125695084	-0.383984
C	-0.0130583318	 0.0442552642	-0.0144074911	-0.07958
C	-1.3561671165	-0.6561014051	 0.2285655536	-0.400344
C	 0.7371158904	-0.4877737883	-1.2156819529	 0.413615
C	 0.1078073489	-0.8891835202	-2.5234937933	-0.323755
C	 0.9180139162	-1.9095322277	-1.7653601975	-0.116464
C	 2.4111795352	-1.6638436641	-1.9966165126	-0.220039
C	 2.2319213115	-0.2050209245	-1.4626814163	-0.293779
H	 0.7608676958	 2.0776519102	-0.2613926643	 0.114085
H	-0.8341376078	 1.818350194	-0.9820233708	 0.114549
H	-0.6696624302	 1.9736289136	 0.7753982167	 0.105946
H	 0.6205550202	-0.1482152201	 0.8646785908	 0.068066
H	-2.0734125662	-0.4360627632	-0.5696371434	 0.115496
H	-1.2383962324	-1.7427891641	 0.2890004635	 0.11337
H	-1.8005184812	-0.3150450581	 1.1691151481	 0.110885
H	-0.9651370384	-1.0493978799	-2.5054925685	 0.106842
H	 0.4773459951	-0.4846642671	-3.4645535091	 0.095841
H	 0.4744093518	-2.8388032227	-1.4257703961	 0.079372
H	 3.0545707814	-2.2633248644	-1.3484636605	 0.099533
H	 2.7606790064	-1.773533689	-3.0291294993	 0.092117
H	 2.4599637563	 0.6086019678	-2.1595715016	 0.090989
H	 2.7879566229	-0.0326341412	-0.5367986415	 0.097239
