23
gdb 79256	2.29145	1.96034	1.48933	0.0477	87.23	-0.2581	0.0821	0.3402	1029.1275	0.208363	-351.181159	-351.173256	-351.172311	-351.212707	33.369	
C	-0.1438800486	 1.5619133618	-0.0336193617	-0.425632
C	 0.0264220734	 0.0430131982	 0.0003461529	 0.017129
C	 0.9169833923	-0.526472766	-1.1019730467	-0.059503
C	 2.3261650616	-0.6231909709	-0.5422716364	-0.059379
C	 2.2739414498	-0.1242939241	 0.8956542088	-0.253057
C	 0.8166463998	-0.5582189107	 1.2089969584	 0.280845
C	 0.2888773313	-0.2611420728	 2.5993809362	-0.488203
C	 0.8701436703	-2.0542493965	 0.7940292513	-0.249639
C	 1.4437514758	-1.8571815964	-0.603873341	-0.073809
H	 0.8170029425	 2.0850532939	-0.0352643803	 0.117486
H	-0.6781733256	 1.8647385967	-0.9407860172	 0.111094
H	-0.7249279183	 1.9212383168	 0.8224125806	 0.111109
H	-0.9706875174	-0.4176329817	-0.0333319515	 0.059605
H	 0.7316164164	-0.3388103369	-2.1523132814	 0.072752
H	 3.1994710715	-0.5152808171	-1.1722749881	 0.07521
H	 2.9948213033	-0.6308459535	 1.5478996887	 0.088336
H	 2.4311951317	 0.9543280731	 0.9927247336	 0.090614
H	 0.3064195221	 0.8120544257	 2.8171469009	 0.113526
H	-0.7452418913	-0.606184252	 2.7135548398	 0.110063
H	 0.8904999618	-0.761828478	 3.3662408654	 0.110769
H	 1.5224576315	-2.6427755761	 1.4494350128	 0.086744
H	-0.1228935103	-2.5182495336	 0.7907265345	 0.08766
H	 1.6537560064	-2.67912242	-1.2759070497	 0.076279
