18
gdb 63424	3.56989	1.02189	0.97232	5.348	77.97	-0.2714	-0.0059	0.2655	1267.2324	0.147028	-401.976192	-401.967345	-401.966401	-402.009767	33.43	
C	 0.3964983093	 1.5245404493	-0.0405935429	-0.44454
C	-0.1657730549	 0.1034711286	 0.0980416287	 0.364383
O	-1.5915104817	 0.1466469715	 0.1735400633	-0.468315
C	 0.1918062958	-0.8133700462	-1.0988319761	-0.26883
C	 1.3784492874	-1.698248435	-0.6177673016	-0.190278
C	 1.2780743235	-1.6063783269	 0.8978552949	-0.073564
C	 0.4548682616	-0.6340031395	 1.271164003	-0.120411
C	 1.3320451452	-3.0699722974	-1.1273360067	 0.266246
N	 1.3003253077	-4.154111327	-1.5267994859	-0.324188
H	 1.4798452565	 1.5118070497	-0.1954400713	 0.124095
H	-0.074755966	 2.0318513682	-0.8879467384	 0.130548
H	 0.2014614218	 2.1113140212	 0.8652640185	 0.110864
H	-1.8397702956	 0.8212821948	 0.8146968645	 0.277802
H	-0.6779158964	-1.4412945362	-1.3002653605	 0.146771
H	 0.4300956601	-0.2577564135	-2.0077437932	 0.113919
H	 2.3354436924	-1.2726606275	-0.9511062244	 0.131906
H	 1.8529694126	-2.2550036655	 1.5474498745	 0.121915
H	 0.2488594809	-0.3452817987	 2.2967258537	 0.101679
