20
gdb 78385	2.73486	1.60371	1.3221	2.9621	78.57	-0.2212	0.0728	0.2939	1049.8659	0.171928	-403.072849	-403.065181	-403.064237	-403.10451	31.532	
C	-0.2038619393	 1.2560986933	-0.0532741361	-0.325758
N	 0.0612011494	-0.177250619	 0.0562586633	-0.121954
C	 1.4898366971	-0.5102394066	-0.1276299475	-0.041987
C	 0.8777951331	-0.5263115062	 1.2395524779	-0.03424
C	 0.9994825436	-2.0634968043	 1.3081089057	-0.091774
C	-0.1943654431	-2.9145350466	 0.738001282	 0.137097
O	-1.4886204083	-2.4016041993	 0.8563036548	-0.435979
C	 0.4849705443	-2.8999354409	-0.67947597	-0.277223
C	 1.6524392974	-2.047841605	-0.1135590896	-0.058039
H	 0.6219711766	 1.8844049085	 0.3175435073	 0.10474
H	-0.3828922343	 1.5082754423	-1.1029481128	 0.12874
H	-1.103735702	 1.5008741341	 0.5194133186	 0.129708
H	 2.1368551566	 0.2217492485	-0.597641655	 0.092269
H	 0.953844549	 0.1843923552	 2.0543577583	 0.09451
H	 1.5306326159	-2.440524159	 2.1821948804	 0.065892
H	-0.2139116749	-3.9178047871	 1.1734676514	 0.081063
H	-1.4347707019	-1.5214570287	 0.4513711247	 0.28393
H	 0.7951140052	-3.8890421471	-1.0262880972	 0.095283
H	-0.1158354182	-2.4214688501	-1.4552999911	 0.103171
H	 2.6746823139	-2.3925337018	-0.2662075949	 0.070552
