20
gdb 110394	4.66002	0.98785	0.93743	1.3867	80.03	-0.2096	0.0728	0.2824	1316.9428	0.170373	-403.035151	-403.02678	-403.025836	-403.068139	32.329	
C	-0.0535946755	 1.5561020964	-0.247751141	-0.325209
N	 0.0113156193	 0.1074005362	-0.0845503446	-0.120138
C	-1.0680337497	-0.5049002563	 0.7482638596	-0.015636
C	-0.1453105676	-1.6873500943	 1.1709325674	-0.083706
C	-0.5156977383	-1.5300282337	 2.6603145406	-0.012289
C	 0.4846833641	-1.956833343	 3.7147063515	-0.107506
O	 0.077064312	-1.3840311971	 4.9511613805	-0.422234
C	-0.477927831	-0.0760128908	 2.1445342431	-0.068513
C	 0.7074044175	-0.3797824546	 1.1455553042	-0.016214
H	 0.9110279982	 1.9193548117	-0.6181106715	 0.116896
H	-0.8104836759	 1.7991955812	-1.0011126884	 0.117377
H	-0.2973549556	 2.1103522543	 0.6742053466	 0.09499
H	-2.1147853067	-0.5486807919	 0.4409795675	 0.077609
H	 0.0461751717	-2.5838984624	 0.5811152743	 0.078175
H	-1.5159703872	-1.8890312986	 2.9292085651	 0.072539
H	 0.5110716544	-3.0573283278	 3.776255947	 0.083925
H	 1.4971675482	-1.6220836684	 3.4364668688	 0.082238
H	 0.6884220371	-1.6750045556	 5.6340002051	 0.286099
H	-0.6693959841	 0.8366718268	 2.7064198416	 0.083108
H	 1.7813699089	-0.2625130418	 1.2989175824	 0.078489
