16
gdb 64831	3.08589	1.15265	1.11693	3.3119	75.86	-0.2592	-0.0688	0.1904	1145.4881	0.124057	-400.800269	-400.791993	-400.791049	-400.83349	30.735	
C	-0.0193779566	 1.5448524762	 0.0223498904	-0.426314
C	-0.0238384333	-0.0025152094	-0.0224735089	 0.0757
C	 0.7625932078	-0.5694908609	-1.2386035197	-0.384744
C	 1.9908309212	-1.2774633313	-0.6419204134	 0.382715
O	 2.8990776164	-1.7601422239	-1.2711698812	-0.313023
C	 1.8338518567	-1.2474289272	 0.8334020806	-0.190777
C	 0.7333398103	-0.575545444	 1.174804174	-0.060741
C	-1.4152649725	-0.4767863847	-0.0020217838	 0.255888
N	-2.5117236496	-0.8419713186	 0.0220294522	-0.335519
H	 1.0119719585	 1.9066559538	-0.0072944293	 0.135265
H	-0.563085585	 1.953610688	-0.8331071649	 0.146224
H	-0.4922505022	 1.9115214685	 0.9372758876	 0.140153
H	 0.1767847643	-1.2967967639	-1.8064689225	 0.16006
H	 1.073561024	 0.2128621955	-1.9347535641	 0.143453
H	 2.5475561339	-1.7093729378	 1.5030433115	 0.132957
H	 0.374965166	-0.3968589402	 2.1824613116	 0.138704
