23
gdb 76804	2.62701	1.53635	1.27464	0.4406	91.26	-0.2258	0.0789	0.3046	1131.5703	0.206325	-351.041396	-351.032964	-351.03202	-351.073749	34.395	
C	-0.2585671489	 1.6353991612	-0.0249593691	-0.410785
C	-0.0364737104	 0.1261542289	 0.0284349432	-0.044541
C	 0.9588574591	-0.5691596708	-1.0331809324	-0.105354
C	 1.4680808527	 0.2062875906	-2.2384009648	-0.40901
C	 1.9021788195	-0.8139936276	 0.1665604466	 0.303407
C	 2.6308272112	-1.7206255893	 1.2110495228	-0.312424
C	 2.093222147	-0.4376989214	 1.9928182144	-0.083998
C	 2.6479804112	 0.3979462171	 0.8269100309	-0.242314
C	 0.7659152548	-0.6324685816	 1.1754982623	-0.025971
H	 0.6587214647	 2.2232268294	-0.0875075584	 0.121987
H	-0.867114894	 1.8955705921	-0.8989884538	 0.112297
H	-0.8041767615	 1.9672006058	 0.864911569	 0.118737
H	-1.0266693961	-0.3364793142	-0.0285677206	 0.076657
H	 0.4981990131	-1.5072075721	-1.3624752915	 0.075544
H	 1.9668670869	 1.1339327147	-1.9408108973	 0.116846
H	 2.1903302092	-0.3905842502	-2.8062290797	 0.11595
H	 0.6491741448	 0.4695307794	-2.9172513725	 0.112068
H	 2.1468279882	-2.6724465188	 1.4458164084	 0.093125
H	 3.7199189661	-1.8243805943	 1.1555452462	 0.087545
H	 2.2268028409	-0.2483649371	 3.0627260192	 0.064039
H	 3.73496596	 0.4094885714	 0.7025848633	 0.08306
H	 2.2351706837	 1.3957436088	 0.7004083668	 0.092326
H	 0.2260717178	-1.5455848518	 1.445208037	 0.060809
