16
gdb 54285	2.17964	1.43719	1.13702	2.3548	69.98	-0.2495	0.013	0.2625	1128.5908	0.12188	-437.863305	-437.854085	-437.853141	-437.897684	33.816	
N	 0.4446414804	 0.6563310476	 1.0791620402	-0.530921
C	 0.1791432964	-0.0203230857	-0.0678011634	 0.346379
O	 0.9626644481	-0.1763282794	-0.9839360537	-0.366933
C	-1.2101206529	-0.6399827318	-0.1091506622	 0.309845
C	-1.8486617879	-0.67763002	-1.4888869056	-0.435202
C	-2.2158900327	 0.6496350237	-1.9707598603	 0.318409
C	-2.5184124533	 1.7468714888	-2.3542485472	-0.446637
C	-1.5416898394	-1.658309753	 0.9036521418	-0.214592
O	-2.067259444	-0.3307972806	 0.9943739665	-0.274428
H	 1.3148532154	 1.1576043298	 1.1465747821	 0.265451
H	-0.3147401735	 0.878668474	 1.7020152487	 0.276119
H	-1.1236407557	-1.1334654279	-2.1718104622	 0.164495
H	-2.7334605167	-1.3224823391	-1.4571702085	 0.131467
H	-2.7835131857	 2.7143998217	-2.7019441032	 0.198739
H	-2.2698619401	-2.4304407895	 0.6610937148	 0.127111
H	-0.8057937785	-1.9230443287	 1.6601697323	 0.130698
