17
gdb 33864	4.07109	1.29589	1.15956	4.2137	76.38	-0.2508	0.0196	0.2704	1062.3902	0.13818	-380.846152	-380.838983	-380.838038	-380.877619	28.57	
N	-0.0001000035	-1.120269048	-0.0849841767	-0.347388
C	-0.0091997834	 0.0366178907	-0.0466382729	 0.207612
C	-0.0250062451	 1.4693270792	 0.0051458149	 0.186475
C	 0.4325032167	 2.2509242152	-1.2180651683	-0.331304
C	 1.2644790452	 2.2972192901	 0.0303890906	-0.034829
N	 1.1599546844	 3.356584452	 1.0214554222	-0.099773
C	 0.221706144	 4.4568170081	 0.750489255	-0.251256
C	-0.2058331863	 3.3119108365	 1.5921281389	-0.00721
C	-0.9995960692	 2.1554713669	 0.9785492765	-0.331376
H	 0.8306395872	 1.6670684334	-2.0403391427	 0.14134
H	-0.1636444152	 3.0999405425	-1.5280739324	 0.129252
H	 2.2281847841	 1.802345012	 0.0206209028	 0.126507
H	 0.4963876124	 5.3967550682	 1.2209183254	 0.126215
H	-0.2034938854	 4.5711516152	-0.2414204274	 0.117851
H	-0.2772440418	 3.4430648429	 2.6684318407	 0.105074
H	-1.9161296272	 2.485263148	 0.4795372936	 0.125935
H	-1.2910491969	 1.4479159372	 1.7581482698	 0.136874
