21
gdb 114107	3.1106	1.18273	1.01025	1.7157	78.94	-0.2379	0.0727	0.3106	1260.1735	0.181361	-424.188281	-424.179068	-424.178124	-424.222299	34.841	
C	-0.5474359739	 1.6210719351	 0.020422589	-0.237363
O	-0.3703801564	 0.3617846303	 0.6275055957	-0.239756
C	-1.2357317623	-0.6232008096	 0.1289907138	 0.162302
C	-0.9511060727	-1.223697183	-1.2890268631	-0.346354
C	-1.0226036004	-2.6550205884	-0.6655090059	 0.420279
O	-2.0804544573	-3.4706092338	-1.0833290238	-0.485214
C	 0.3520393569	-3.293898089	-0.3662152795	-0.29025
C	 0.4258722119	-2.4535953883	 0.9463722132	-0.228154
C	-1.0564894993	-2.011484878	 0.7631811916	-0.112733
H	 0.1595204349	 2.3111990617	 0.487308222	 0.125932
H	-0.3485492827	 1.5896940426	-1.0615784151	 0.107013
H	-1.5695818625	 2.0035556031	 0.1700521208	 0.104182
H	-2.2799393674	-0.282450551	 0.2025512351	 0.068017
H	-1.720786366	-1.0291150344	-2.0392641142	 0.098235
H	 0.0298544875	-0.9559122364	-1.692289816	 0.098095
H	-1.9254503593	-3.7163332248	-2.0025049588	 0.274902
H	 0.239110002	-4.3621009441	-0.1610437398	 0.102478
H	 1.1455582152	-3.1534255856	-1.107099545	 0.086733
H	 0.6155403489	-3.0360819123	 1.8491507525	 0.103041
H	 1.1263079539	-1.6177671461	 0.919229294	 0.119042
H	-1.7599393611	-2.3189888178	 1.5363317035	 0.069574
