21
gdb 90996	3.35326	1.52593	1.48103	1.4994	80.66	-0.231	0.0909	0.3219	1010.1226	0.185862	-387.08771	-387.080672	-387.079728	-387.118777	29.753	
C	-0.190577357	 1.5251855751	 0.0184407423	-0.417151
C	 0.0383003277	 0.0113331906	-0.0020123966	 0.034556
C	 0.9078362973	-0.4720464623	-1.2094194124	-0.257729
C	 2.2292461053	-0.8882349144	-0.5539940146	-0.02194
C	 2.1521982153	-2.1336849441	 0.390246096	 0.094348
C	 3.1357485601	-1.4175458916	 1.3408967895	-0.244689
C	 2.3477492688	-0.1818365274	 0.840990427	-0.078253
C	 0.8706305676	-0.5022223659	 1.1830965391	 0.097361
O	 0.8913637417	-1.9508304766	 1.0557402578	-0.296392
H	 0.7549485365	 2.0785079382	-0.0027143818	 0.114214
H	-0.773906514	 1.8408843134	-0.8527357946	 0.116283
H	-0.7377544109	 1.8345211795	 0.9159188373	 0.112643
H	-0.9298321429	-0.4986115935	 0.0094554261	 0.076712
H	 0.4403168668	-1.3048822712	-1.7427272731	 0.104086
H	 1.0623168677	 0.3329582787	-1.935629044	 0.093245
H	 3.1228961168	-0.859759016	-1.1775004635	 0.068578
H	 2.251902986	-3.1664462415	 0.0573028624	 0.073242
H	 3.0845611034	-1.6901158007	 2.3975617251	 0.097534
H	 4.1685588854	-1.4175111669	 0.9852473624	 0.096868
H	 2.6921381411	 0.8430808559	 0.9707593276	 0.070513
H	 0.5094201873	-0.2218584994	 2.1754284478	 0.065969
