20
gdb 19069	3.4374	2.31463	1.96066	0.1531	76.83	-0.2515	0.0853	0.3368	796.2535	0.181479	-311.855095	-311.848982	-311.848038	-311.88476	26.65	
C	-0.0004474548	 1.5308854931	-0.1673913908	-0.309622
C	 1.3005479802	 0.777301842	 0.0095302436	-0.013157
C	 2.0978812861	 0.7989611219	 1.3176479234	-0.228147
C	 1.424677399	-0.0344980784	 2.423843229	 0.004378
C	-0.066814044	 0.3650666264	 2.5852577215	-0.231864
C	-0.3540861735	-0.5897475423	 1.3918064308	-0.024071
C	 0.9034894843	-1.3899223596	 1.8570815997	-0.215812
C	-0.021234247	 0.0392044624	 0.0443018146	-0.007579
H	-0.3424467943	 2.1866890244	 0.6252180922	 0.110755
H	-0.2263549066	 1.8991576179	-1.1628393504	 0.102832
H	 1.9015162372	 0.6787607108	-0.8888342086	 0.078965
H	 3.0946111149	 0.3832035315	 1.125890761	 0.09484
H	 2.2555546091	 1.8269601593	 1.6703360756	 0.093625
H	 2.0473022594	-0.0613564237	 3.3218729558	 0.053674
H	-0.4894611498	-0.0398776968	 3.5090061081	 0.093
H	-0.3405975702	 1.4201977545	 2.5122267947	 0.089183
H	-1.3217953066	-1.0969861267	 1.3741713853	 0.056108
H	 1.4969187045	-1.8916720899	 1.086858803	 0.085762
H	 0.6714155253	-2.094955978	 2.6601302268	 0.090122
H	-0.2770558632	-0.5778166191	-0.8129058353	 0.077009
