21
gdb 95242	2.75824	1.43482	1.08034	2.4638	78.67	-0.2492	0.0785	0.3276	1179.235	0.183456	-424.216927	-424.208544	-424.2076	-424.24976	32.724	
C	-0.3210990564	 1.4529189464	 0.0726749382	-0.394303
C	 0.0375814827	-0.0283974816	-0.0083685031	 0.130652
C	 0.736001074	-0.3749684869	-1.3303188449	-0.187088
C	 0.7949669439	-1.8655427559	-1.6751569695	-0.264276
C	 1.5607195209	-2.7603646385	-0.7255488748	 0.067695
O	 2.721341602	-2.2432901348	-0.0582369995	-0.249074
C	 1.6061707487	-2.6434467285	 0.7385512416	 0.052888
C	 0.9063919847	-1.6031903946	 1.5961157496	-0.128474
O	 0.8825313569	-0.290369727	 1.1081533765	-0.239495
H	 0.5803006636	 2.0658026875	-0.0277147862	 0.126942
H	-1.0188384969	 1.7299551816	-0.7228925841	 0.11061
H	-0.7808719312	 1.6791312052	 1.038024427	 0.119158
H	-0.883920808	-0.6293274712	 0.089378945	 0.057977
H	 0.2143516512	 0.1369325327	-2.1477218671	 0.090808
H	 1.7496304175	 0.0365091284	-1.2849401719	 0.123479
H	-0.223063762	-2.2720458764	-1.7631182878	 0.102497
H	 1.2440559676	-1.9757578206	-2.6706172677	 0.107209
H	 1.7101322822	-3.7682935441	-1.1220465212	 0.084338
H	 1.7658467301	-3.5734064559	 1.2940189218	 0.084328
H	-0.1131681186	-1.9733750397	 1.8101332978	 0.088024
H	 1.4350255171	-1.5469186362	 2.5550769106	 0.116105
