16
gdb 72063	2.49676	1.69941	1.31425	2.7431	77.77	-0.2259	0.0193	0.2452	1001.6044	0.123499	-400.629384	-400.621666	-400.620722	-400.661258	30.535	
O	-0.2615057469	 1.3110481908	-0.0636181531	-0.454774
C	-0.0222558056	-0.0395809119	-0.0210885647	 0.310904
C	 0.899985013	-0.8783314864	-0.8889746302	-0.237011
N	 0.0889878426	-2.0994525011	-0.4958795361	-0.206519
C	 0.392959622	-2.2082922161	 0.989404827	-0.182095
C	-0.3474080958	-0.907095965	 1.2101923559	-0.210199
C	-1.0693535123	-1.1264959741	-0.1139530641	 0.308604
C	-2.4148500587	-1.1838043404	-0.5161138429	 0.015437
C	-3.5663452366	-1.229888898	-0.8652941768	-0.368195
H	 0.2865567639	 1.7469882228	 0.5983458112	 0.29343
H	 0.7630018187	-0.676727414	-1.9538793183	 0.123814
H	 1.9673780782	-0.9466842744	-0.6505164484	 0.096808
H	-0.1251888365	-3.0772082338	 1.4025709682	 0.120286
H	 1.4611525267	-2.2661522714	 1.2261110869	 0.099828
H	-0.7644738832	-0.4634420022	 2.106341641	 0.106133
H	-4.5804188395	-1.2707015848	-1.1767034156	 0.183549
