21
gdb 66347	2.23949	1.41434	1.33332	4.4219	81.87	-0.2352	0.0365	0.2717	1134.0085	0.184684	-383.300538	-383.291791	-383.290846	-383.33337	34.364	
C	 0.0065971089	 1.529953199	 0.0366670903	-0.428535
C	-0.021617955	-0.0074293872	-0.0010869101	 0.093071
C	 0.6553864137	-0.5441803307	-1.2930970473	-0.206184
C	 0.806999411	-2.0712823239	-1.2710700033	-0.215499
C	 1.5136460284	-2.5307065365	 0.0114256521	-0.190255
C	 0.7935014435	-1.9738194336	 1.2480019546	-0.171538
N	 0.6098182493	-0.5167532855	 1.2277064181	-0.299296
C	-1.4374268995	-0.4456193161	 0.0071261027	 0.315551
N	-2.5416085922	-0.7857571463	-0.0192875386	-0.356926
H	 1.0456365854	 1.8754438686	 0.0147256567	 0.117151
H	-0.5118958168	 1.9505642416	-0.8280573623	 0.136348
H	-0.4660201715	 1.8964655112	 0.9502521559	 0.145489
H	 0.0914065379	-0.218128227	-2.1736556827	 0.110275
H	 1.6454974182	-0.0727397104	-1.3506084598	 0.093293
H	-0.1861933163	-2.5346141778	-1.3282762417	 0.122289
H	 1.3577656383	-2.4005677549	-2.1582053638	 0.098639
H	 1.5504983083	-3.624889927	 0.0602150787	 0.099018
H	 2.5544443736	-2.1773166494	 0.0067816126	 0.087787
H	-0.2005094804	-2.4312583819	 1.3313215807	 0.128748
H	 1.3337666779	-2.2263765238	 2.1656863603	 0.104349
H	 1.5103124072	-0.0557586985	 1.324238747	 0.216227
