18
gdb 50630	3.30883	1.11648	0.87664	1.7608	74.35	-0.2603	-0.0332	0.2271	1279.4789	0.148268	-439.114737	-439.106359	-439.105414	-439.148386	30.762	
N	 0.05008085	 1.2637247456	 0.3997967687	-0.496366
C	 0.0358825922	 0.0452906982	 0.0588372088	 0.373669
C	-1.2664316502	-0.7215345668	-0.0161458242	-0.281388
C	-1.2809667833	-1.7537285455	-1.1621301114	-0.103404
C	-0.0195865172	-2.6097852017	-1.0790959662	-0.211433
C	 1.2062403503	-1.7089681677	-1.1270525736	-0.091777
O	 1.1875926144	-0.6611340122	-0.1427091798	-0.251943
C	-2.5617835865	-2.5615436673	-1.1310664861	 0.138569
O	-2.6113813431	-3.7636292691	-1.0858672671	-0.237306
H	 1.0144859652	 1.6023718478	 0.4345369296	 0.221009
H	-1.3868029151	-1.2544494789	 0.9371794724	 0.136559
H	-2.0795438791	 0.002205213	-0.0913273323	 0.13746
H	-1.2949731829	-1.1984934547	-2.1146954207	 0.104072
H	-0.0315459264	-3.1882241485	-0.148995017	 0.123136
H	 0.0241920617	-3.3303531778	-1.9010249586	 0.121114
H	 2.1236067035	-2.2680541121	-0.9293749592	 0.124609
H	 1.2995339527	-1.2471003799	-2.1205321243	 0.108651
H	-3.492238796	-1.9481458222	-1.1489635692	 0.084768
