13
gdb 19336	5.16942	1.70075	1.51941	3.9348	63.59	-0.2302	-0.0006	0.2296	808.4553	0.096348	-357.538173	-357.531974	-357.53103	-357.568397	24.188	
N	 0.0910735278	-1.1431607397	-0.123239507	-0.344213
C	 0.065300155	 0.0124615157	-0.0439860165	 0.1784
C	 0.0214668363	 1.4257818967	 0.0755976961	 0.240577
N	 0.202548102	 2.3434419775	-1.08413907	-0.331416
C	 1.1430554102	 2.417434122	 0.0379834302	-0.114596
C	 0.4820979892	 3.2004706267	 1.218636862	-0.053459
N	-0.8813454506	 3.6041702411	 0.8046972039	-0.30021
C	-0.6284801144	 2.2270122213	 1.2616858645	-0.123551
H	 0.6509308294	 1.799773627	-1.822940946	 0.251582
H	 2.2013140878	 2.2244363437	-0.0760193263	 0.126224
H	 1.0176717047	 3.6891260326	 2.0204177268	 0.11214
H	-1.2943178219	 4.1030640234	 1.5930315731	 0.241397
H	-1.1441488256	 1.770009132	 2.0947037692	 0.117124
