21
gdb 94571	3.15357	1.0946	0.88075	0.4333	77.8	-0.2461	0.0699	0.3161	1340.5825	0.182399	-424.182066	-424.172892	-424.171948	-424.217617	32.728	
C	-0.4844784796	 1.3980475599	-0.0382945776	-0.408209
C	 0.1423274471	 0.018810193	-0.0458283381	 0.147071
O	 1.4241627038	-0.0081549017	-0.7196174	-0.28996
C	 2.0082231543	-0.7998989012	 0.3321989607	-0.090808
C	 0.7729184634	-0.5965490729	 1.2394362348	-0.074656
C	 0.9885348094	 0.3173525511	 2.4305591968	-0.030265
C	-0.2192917422	 0.5749960457	 3.3630065087	-0.090311
O	 0.4551428051	-0.0247544919	 4.4863698693	-0.270508
C	 1.6189099748	-0.3252533969	 3.6911812547	-0.093198
H	 0.1661777944	 2.1373462086	 0.4355502764	 0.121706
H	-0.6680236214	 1.7224973107	-1.067484869	 0.130231
H	-1.445941598	 1.3830256555	 0.486586405	 0.118813
H	-0.5483247053	-0.6912719437	-0.5257880169	 0.07106
H	 2.1814881311	-1.8378845153	 0.018136422	 0.097251
H	 2.9545622055	-0.3747155372	 0.689050697	 0.100668
H	 0.2894787117	-1.5210621713	 1.5693726026	 0.076431
H	 1.4991303484	 1.2334626285	 2.1235158742	 0.086385
H	-0.4712594851	 1.6264918921	 3.547196727	 0.102248
H	-1.1375105297	 0.0326683234	 3.0988317605	 0.096577
H	 1.8023036818	-1.4064471904	 3.6231398268	 0.097695
H	 2.5204439804	 0.162051754	 4.0820098652	 0.101777
