15
gdb 57169	3.2142	1.22587	0.89243	1.8353	70.86	-0.2697	-0.0701	0.1995	1206.8881	0.112414	-450.178997	-450.169757	-450.168812	-450.213702	32.518	
C	-1.0795733965	 1.183094504	-0.3065462195	-0.362789
N	-0.2392896256	 0.0157958079	-0.0017040874	-0.20308
C	-0.2090182177	-0.3891726351	 1.384795422	 0.488369
N	 0.5619961304	-1.4572574291	 1.6646231915	-0.553882
O	-0.8566462312	 0.2295786037	 2.2044295024	-0.393652
C	 0.4440788555	-0.5962228457	-1.0269387793	 0.368484
N	 1.2111903228	-1.6198160502	-0.904777352	-0.548072
C	 0.2479875604	 0.0044511643	-2.3388613142	 0.221752
N	 0.1492370579	 0.4166769444	-3.4147210621	-0.320835
H	-0.4799638893	 1.9967757334	-0.7222648675	 0.148637
H	-1.8693068137	 0.9199375068	-1.0146019669	 0.148801
H	-1.5233705875	 1.5008019112	 0.6334234183	 0.188341
H	 1.079599628	-1.9326220494	 0.9324895938	 0.296004
H	 0.5854297509	-1.7436225223	 2.6278449638	 0.267871
H	 1.6079289756	-1.8967489639	-1.7973221429	 0.254053
