15
gdb 42784	2.55913	1.71828	1.44405	4.1941	67.48	-0.2446	-0.0352	0.2094	939.6098	0.114328	-453.940243	-453.93309	-453.932146	-453.971918	27.505	
N	-0.107214807	 1.2493951489	-0.3455176604	-0.542347
C	-0.0226444872	 0.0257712917	-0.0013520498	 0.420844
N	 1.0938657533	-0.6769595441	 0.4178820939	-0.355027
C	 1.0942687738	-2.1266196847	 0.6190678719	-0.168098
C	-0.3509883066	-2.6175064635	 0.5656524625	-0.046459
O	-0.9600634056	-2.1015237989	-0.6487017098	-0.287872
C	-1.2666743261	-0.8408785872	 0.0233571565	-0.107602
C	-1.2688173323	-1.6478445849	 1.3405072674	 0.437136
O	-1.8265364413	-1.6239312591	 2.3896192194	-0.294638
H	 0.7996701323	 1.7209328643	-0.3010535171	 0.20331
H	 1.9880364137	-0.2335866517	 0.273855081	 0.243874
H	 1.6727820978	-2.6360920948	-0.1634455697	 0.125139
H	 1.5342965735	-2.3806873051	 1.5918047702	 0.127755
H	-0.4494744085	-3.6979845406	 0.6844726925	 0.114455
H	-2.1469723599	-0.3259333304	-0.3548158885	 0.12953
