21
gdb 15834	2.97049	1.36195	1.05522	2.5179	75.37	-0.2353	0.0805	0.3158	1205.9768	0.187653	-366.234154	-366.224652	-366.223707	-366.26904	33.94	
C	 0.1249745194	 1.2510226433	-0.5206835702	-0.38569
C	 0.0272016952	-0.110407722	 0.1473049646	-0.037235
O	-1.1497435053	-0.7490494405	-0.3127856851	-0.263538
C	-1.3229445887	-2.0946079189	 0.1093372462	 0.104777
C	-1.8062421774	-2.1908936454	 1.5595951944	-0.397912
C	-2.3082091693	-2.7502354	-0.844736762	 0.010273
C	-3.4350858613	-1.9827976131	-1.4248755585	-0.233534
N	-2.2997329578	-2.4088030541	-2.2704820398	-0.333822
H	 1.0225682302	 1.7767402218	-0.18166591	 0.117324
H	 0.1746369943	 1.1451041616	-1.6082418385	 0.125721
H	-0.7480444961	 1.8624141612	-0.2753406625	 0.128232
H	 0.9082107759	-0.7265678495	-0.0966854005	 0.090168
H	 0.0060280071	 0.0056158439	 1.2415608457	 0.0934
H	-0.3561298723	-2.6203325392	 0.0177440406	 0.069592
H	-1.0726440087	-1.7779576091	 2.2577807453	 0.115776
H	-2.7476387677	-1.6470122716	 1.679776992	 0.127253
H	-1.9730246366	-3.237166843	 1.8354384602	 0.119001
H	-2.4500753011	-3.8107708398	-0.6447320856	 0.086906
H	-4.3784386694	-2.4776679777	-1.6376338931	 0.110372
H	-3.5093866236	-0.9306523292	-1.1689179133	 0.121003
H	-1.685986557	-1.6034892085	-2.3838990497	 0.231934
