19
gdb 41246	2.90335	2.07421	1.68822	1.8122	77.8	-0.2378	0.0763	0.3141	875.3478	0.162716	-385.809115	-385.803052	-385.802108	-385.839085	26.82	
C	 0.0334834229	 1.4798896933	-0.2428364673	-0.154463
O	 1.4368811319	 1.5696777131	 0.1752848627	-0.358017
C	 1.2840425161	 0.3322988178	 0.8696265883	 0.448965
C	 2.0228294508	-1.0037985116	 1.0153940094	-0.322393
C	 0.7967956627	-1.2727191792	 1.9538861883	-0.043413
C	-0.6252935461	-0.804017314	 1.3006684348	-0.081801
C	-0.7271852853	 0.2393938838	 2.4392270647	-0.252128
C	 0.8048553703	 0.2266850349	 2.3740775103	-0.084957
C	 0.002969043	-0.0292344311	 0.138015548	-0.054196
H	-0.5971248657	 2.1541615869	 0.3455049782	 0.108559
H	-0.0773248582	 1.7058900584	-1.3069388411	 0.10852
H	 2.1876153538	-1.5970056522	 0.112126485	 0.097706
H	 2.9296277062	-0.9766382241	 1.627624515	 0.104317
H	 0.7855294721	-2.084328838	 2.6781017434	 0.078702
H	-1.4279571268	-1.5139872241	 1.1035952495	 0.062281
H	-1.283250308	 1.1614063899	 2.2486049881	 0.094325
H	-1.0799031981	-0.2064366433	 3.3741870218	 0.098204
H	 1.4689616049	 0.6211398452	 3.142174278	 0.06979
H	 0.1744904337	-0.6499730658	-0.743997857	 0.079998
