15
gdb 125624	2.00722	1.90235	0.98382	4.8276	75.34	-0.2268	0.0018	0.2286	1132.9106	0.11428	-413.039256	-413.03061	-413.029666	-413.072554	31.334	
C	-0.01488139	 1.4777970491	-0.0485779902	-0.500159
C	-0.0213568183	-0.0133223487	 0.0174483826	 0.277022
N	-0.0421968345	-0.7518394472	-1.0748678736	-0.286782
N	-0.0368086593	-2.0464747338	-0.6250471814	-0.264736
C	-0.0122718206	-2.1436315121	 0.7190404093	 0.336105
N	-0.0720365219	-3.3382366633	 1.400776975	-0.608449
C	 0.0022431576	-0.8307544762	 1.1926704397	-0.001213
C	 0.0551086932	-0.4525634123	 2.54775831	 0.168803
N	 0.1037840445	-0.1696117568	 3.6724176457	-0.369567
H	 0.8800623095	 1.8910503654	 0.4284204618	 0.142415
H	-0.038620865	 1.8007062232	-1.0908154977	 0.145505
H	-0.8813597202	 1.8990847398	 0.4717847138	 0.143127
H	-0.1053424127	-2.7946535401	-1.2935023312	 0.276466
H	 0.4530563122	-4.1016915678	 0.9975481262	 0.261905
H	 0.1096750757	-3.2420777292	 2.3906556399	 0.279559
