23
gdb 96336	1.92157	1.43917	0.89326	2.8388	81.11	-0.2564	0.0696	0.326	1347.5161	0.207203	-425.436271	-425.426863	-425.425919	-425.470088	36.662	
O	-0.1906929245	 1.480076291	 0.115596712	-0.441641
C	-0.0003527473	 0.0698185087	-0.0019314259	 0.11264
C	 0.807194993	-0.4686454401	 1.1916961164	-0.212254
C	 1.5131213276	-1.8248352117	 0.986877722	-0.199627
C	 0.7606325541	-2.8844223755	 0.1579247572	-0.201907
C	-0.7580077158	-2.9667109346	 0.384130163	-0.210546
C	-1.5565757311	-1.9693085294	-0.470910762	 0.111835
O	-2.9547231476	-2.2378808103	-0.396464582	-0.439072
C	-1.4186779219	-0.50154494	-0.0715512686	-0.161259
H	 0.6750790275	 1.8875285203	 0.2178489323	 0.27552
H	 0.5370850212	-0.1528645187	-0.9405307587	 0.058188
H	 1.5745015708	 0.2727542422	 1.4508958083	 0.079388
H	 0.1362255802	-0.5114711848	 2.0577706077	 0.104548
H	 2.485996709	-1.6560192742	 0.5094090954	 0.095901
H	 1.7379070878	-2.2369057495	 1.9777888035	 0.099275
H	 0.9360009073	-2.7040982827	-0.9108674327	 0.097147
H	 1.214518543	-3.8594275089	 0.3662498823	 0.094887
H	-1.0996959925	-3.9738670876	 0.1086477407	 0.07844
H	-1.0153492694	-2.836368459	 1.4427311837	 0.100975
H	-1.2111654719	-2.0820782724	-1.5144469022	 0.060044
H	-3.0928577677	-3.1547795392	-0.6545615956	 0.276566
H	-1.8969529146	-0.362484225	 0.9056326032	 0.107536
H	-1.9901934372	 0.0970621112	-0.7870691999	 0.113418
