20
gdb 89126	5.31329	0.56389	0.53677	4.6766	79.2	-0.2564	0.0261	0.2824	2029.0617	0.1692	-440.257708	-440.247486	-440.246542	-440.295283	35.46	
O	-0.1454779249	 1.4549425703	 0.1577033033	-0.413933
C	-0.0674259734	 0.0605030775	 0.1060935233	 0.090099
C	-0.7246086116	-0.7635133563	 1.1851048335	-0.328134
C	-1.3375422279	-0.6771257438	-0.2041826354	-0.02269
C	-2.6323567062	 0.0755111007	-0.4235744585	-0.222462
C	-3.8449063647	-0.7604896879	-0.0394345262	-0.065568
O	-5.0162363013	 0.0198993279	-0.2956611496	-0.181798
C	-6.1940294353	-0.5707823615	-0.0298535185	 0.129883
N	-7.275643291	 0.053384517	-0.2185479159	-0.4401
H	 0.4247450979	 1.7594637317	 0.8709664428	 0.290232
H	 0.8513120404	-0.3262733446	-0.3348506616	 0.088223
H	-0.2563128245	-1.6878333618	 1.5054571569	 0.111791
H	-1.2251457703	-0.208822891	 1.9728701569	 0.115607
H	-1.2154570528	-1.5598614404	-0.8274333524	 0.088022
H	-2.6305622585	 1.0009927958	 0.1577673529	 0.12797
H	-2.7261915031	 0.3680159575	-1.4757424198	 0.116738
H	-3.8805492212	-1.6887524722	-0.6274008599	 0.102275
H	-3.8023541636	-1.0359099641	 1.0230759229	 0.107824
H	-6.0954808032	-1.5993614945	 0.3468573221	 0.079649
H	-8.0641548746	-0.5400908503	 0.0307160031	 0.226371
