18
gdb 131804	5.53656	0.65347	0.6319	4.2849	74.42	-0.25	0.0018	0.2518	1743.2072	0.148602	-435.261804	-435.252797	-435.251853	-435.297346	31.638	
O	-0.0091298772	 1.4610979388	-0.1795772449	-0.420905
C	 0.0201776479	 0.0744129333	 0.1201765845	-0.074465
C	-1.3830742966	-0.4789535214	-0.086668626	-0.15787
C	-1.4642165215	-1.9926869761	 0.1762813127	-0.31614
C	-2.8524804996	-2.5312431011	 0.0333858126	 0.322238
C	-3.4289621923	-3.2515392959	-0.9875242378	-0.176944
N	-4.7079420202	-3.4351542746	-0.5808675794	-0.147615
N	-4.9288599851	-2.8709246643	 0.6192829127	-0.114681
N	-3.8082843537	-2.323822242	 0.9901801145	-0.245972
H	 0.8666565355	 1.8229609883	-0.0167765999	 0.285159
H	 0.7323017618	-0.4591835055	-0.532376032	 0.079201
H	 0.3393249216	-0.1037895973	 1.1603963364	 0.086935
H	-2.0766656163	 0.0450971895	 0.5788714613	 0.129877
H	-1.7012291363	-0.2595696384	-1.1124700488	 0.104156
H	-0.7948143629	-2.5264924598	-0.5084290149	 0.100149
H	-1.1119665916	-2.2034915722	 1.1930237878	 0.121479
H	-3.0533422924	-3.6326946919	-1.9220866885	 0.143512
H	-5.4587717412	-3.9224816294	-1.0429144003	 0.281887
