11
gdb 21845	8.30526	1.23204	1.08868	3.2847	53.78	-0.2723	-0.0284	0.2439	972.5489	0.073682	-430.732594	-430.726124	-430.72518	-430.764	22.185	
O	-0.0632433491	 0.0144560692	 0.1587402288	-0.247094
C	-0.0127714724	 1.1827714705	-0.0500977476	 0.165315
O	 1.0644426883	 1.9311543356	 0.3619752114	-0.220871
C	 1.0160538057	 3.2772727578	 0.1917626152	 0.386707
N	-0.095291214	 3.9958124274	 0.3173234997	-0.282498
N	 0.3440110225	 5.2324877446	 0.0965687748	-0.065555
N	 1.6372975143	 5.3719285353	-0.1427943326	-0.17889
C	 2.1000138747	 4.1229571621	-0.0918661129	-0.13171
H	-0.7659156954	 1.7895457649	-0.5746593287	 0.124997
H	-0.2788520291	 6.0232526074	 0.1274748232	 0.303277
H	 3.1392397045	 3.8890876452	-0.2491836812	 0.146323
