23
gdb 59527	3.47533	1.00555	0.96539	1.4489	86.21	-0.2231	0.0795	0.3026	1386.093	0.204285	-388.268322	-388.258667	-388.257722	-388.303054	36.945	
C	 0.1338696385	 1.4942576358	-0.1084217893	-0.389118
C	 0.0933540219	-0.0415632745	-0.0740182862	 0.013401
C	 0.9348488065	-0.6341174284	-1.2118833519	-0.394917
C	 0.5222455841	-0.531195047	 1.3094420282	 0.158835
C	 0.6881055662	-2.0441491898	 1.5923431686	-0.407824
C	 2.1259325173	-1.6681793156	 1.9240803576	 0.482379
C	 2.9800115822	-2.073048736	 3.0800804568	-0.334122
C	 3.4091980278	-2.3749986634	 1.6474412424	-0.333088
O	 1.9344862302	-0.2952903227	 1.5787929131	-0.325113
H	 1.1524285082	 1.8517090694	 0.0747287424	 0.13376
H	-0.1899745529	 1.8756418854	-1.0817552953	 0.107895
H	-0.5170439161	 1.9287203151	 0.6578263793	 0.107696
H	-0.9510523725	-0.3642735803	-0.2004456167	 0.07098
H	 1.9894580173	-0.3773556929	-1.0777466915	 0.132763
H	 0.855889959	-1.7242892368	-1.2634079015	 0.10859
H	 0.6062424312	-0.2360016961	-2.1768371568	 0.108617
H	-0.0879407039	-0.0264218509	 2.0712454496	 0.070871
H	 0.0941407035	-2.4322983267	 2.4219457045	 0.108713
H	 0.568402439	-2.6965822048	 0.7252073347	 0.110633
H	 3.5114283394	-1.2834861964	 3.6005663799	 0.123099
H	 2.6516184891	-2.8940550121	 3.7097748907	 0.111256
H	 3.3745568085	-3.4017787142	 1.2967526397	 0.111984
H	 4.2196883257	-1.7816748369	 1.2373892918	 0.122711
