16
gdb 12913	3.23662	1.69733	1.35069	3.6453	66.29	-0.2336	-0.0214	0.2122	939.6358	0.129032	-383.704071	-383.696415	-383.695471	-383.736111	28.033	
C	-0.0168369923	 1.5683787964	 0.0101429724	-0.495419
C	-0.0128627498	 0.0692998405	 0.0487366889	 0.235527
C	-1.247991694	-0.8313715601	 0.09826542	-0.13835
O	-0.5501904575	-1.7996839804	 0.9307846142	-0.283119
C	 0.5837936944	-0.9350820302	 0.988297425	 0.039416
C	 1.2125994545	-0.7647967013	-0.3816196665	-0.180652
C	 1.2028324671	-1.8349974338	-1.4065531235	 0.147212
O	 2.0471966577	-1.9433302936	-2.2652701871	-0.273206
H	 0.965181076	 1.9719694225	 0.2736153955	 0.131949
H	-0.2689487946	 1.9398386688	-0.9895384854	 0.134658
H	-0.7489473203	 1.9760380426	 0.7161077631	 0.127742
H	-2.0721881779	-0.3753293289	 0.6589694509	 0.117178
H	-1.6293310956	-1.265277148	-0.8315623806	 0.116929
H	 1.1300864574	-0.8626215639	 1.9220452535	 0.118589
H	 2.1224977178	-0.1706020983	-0.385531823	 0.109627
H	 0.3676447271	-2.5597809324	-1.3289580473	 0.09192
