19
gdb 38399	4.0659	1.31056	1.28949	1.4038	78.74	-0.2308	0.0794	0.3103	1058.4216	0.159786	-385.815015	-385.807832	-385.806888	-385.846441	29.592	
C	 0.0361266228	 1.431285248	 0.0997973453	-0.287307
C	 1.334192927	 0.6999963493	-0.0736835994	-0.041842
C	 1.7827568272	 0.1192542604	 1.2743790885	-0.310911
C	 0.4409038574	-0.6661722088	 1.3543670565	 0.461975
O	 0.5872760791	-2.117128835	 1.3379605507	-0.335613
C	-0.388031444	-2.236314983	 2.3768416436	 0.095034
C	 0.0958358168	-1.5881717782	 3.634119807	-0.304505
C	-0.5219121139	-0.7434815511	 2.5340232842	-0.203692
C	 0.0164873459	-0.0741863286	 0.014237591	-0.117594
H	-0.1893507429	 1.935850959	 1.0374793363	 0.106197
H	-0.3429463789	 1.9433877766	-0.7788007902	 0.113837
H	 1.9711435452	 0.853071687	-0.9355055114	 0.088
H	 2.608633036	-0.5894052214	 1.1861131764	 0.121259
H	 1.9987870932	 0.8343935472	 2.0753715078	 0.093895
H	-1.1117430286	-3.0394465005	 2.3067519074	 0.102298
H	-0.5348154351	-1.7206063502	 4.5082234118	 0.112216
H	 1.1627381827	-1.5445504239	 3.8347101793	 0.115821
H	-1.3929213747	-0.1184799495	 2.676602602	 0.098492
H	-0.531507235	-0.6129730375	-0.748475667	 0.092442
