14
gdb 129832	3.19037	1.4276	0.9896	7.331	69.81	-0.2351	-0.0571	0.178	1101.6081	0.102353	-470.019276	-470.01164	-470.010696	-470.051202	29.659	
N	 0.0878766253	 1.3753287684	-0.0738816285	-0.594192
C	 0.0041848667	 0.0046812564	-0.0247861892	 0.326476
C	-1.1388036013	-0.7236603993	-0.0555932074	-0.359203
C	-1.1043339371	-2.1650502104	 0.0002895383	 0.450534
O	-2.0475436026	-2.9126236623	-0.0132854431	-0.352043
O	 0.1641475033	-2.7448859989	 0.1133959713	-0.269703
N	 1.3405489361	-2.0208491785	 0.0706248238	-0.150128
C	 1.2598159848	-0.7347592217	 0.016598282	 0.343479
N	 2.4505323357	 0.000784325	 0.0644890006	-0.57614
H	 0.8854432428	 1.7717606312	 0.4037290179	 0.270485
H	-0.7722265865	 1.8809086633	 0.0788791053	 0.265581
H	-2.1205855337	-0.2669425467	-0.0889634552	 0.11815
H	 3.251334358	-0.6202179054	 0.1040827858	 0.265975
H	 2.5439732087	 0.6438529588	-0.7150572716	 0.260727
