18
gdb 98348	3.81549	0.81822	0.73958	1.1662	70.28	-0.2599	-0.0451	0.2148	1517.8395	0.145077	-476.263712	-476.25356	-476.252616	-476.300394	35.119	
C	-0.1082235552	 1.5769862211	-0.0078563871	-0.408228
C	-0.0109811053	 0.0360029444	 0.010781862	-0.055783
N	 0.6786468138	-0.4519416845	 1.1875601649	-0.279597
C	 2.0279494391	-0.3919666389	 1.3072603027	 0.15477
O	 2.7684278636	 0.1292822211	 0.4972064946	-0.331417
C	-1.3869067917	-0.6147689014	-0.0386607048	 0.348962
O	-1.8152340455	-1.2741909069	 0.8878590917	-0.335862
C	-2.243747772	-0.4440086873	-1.2835177485	-0.129016
O	-3.4656685205	-1.1060017444	-1.157805379	-0.418338
H	 0.9026042583	 1.9814835229	 0.064747601	 0.167639
H	-0.5580752613	 1.9369652562	-0.93685649	 0.127542
H	-0.7003856814	 1.9386053834	 0.8377288345	 0.129961
H	 0.5514635745	-0.2728064475	-0.8805449109	 0.129061
H	 0.1203664259	-0.9723310998	 1.8493034726	 0.263824
H	 2.3866571447	-0.8705396571	 2.2390227233	 0.0863
H	-2.3960092614	 0.63056897	-1.468043108	 0.128542
H	-1.6651765788	-0.8238876061	-2.1428472342	 0.124877
H	-3.4412244868	-1.5353807852	-0.2886825149	 0.296763
