19
gdb 30321	2.95227	1.66772	1.10343	1.9677	83.83	-0.1587	0.0609	0.2196	1099.8872	0.162327	-382.093881	-382.085958	-382.085014	-382.125987	31.007	
C	-0.0912396969	 1.5011920147	-0.0193702474	-0.333177
N	 0.0640543758	 0.0592697298	 0.0404224655	-0.171386
C	 0.700393624	-0.5520863614	-1.1601582503	-0.156581
C	 1.3694985548	-1.8795735616	-0.6837128753	-0.36168
C	 1.5646726575	-1.585010985	 0.7801592742	 0.231214
C	 0.8055472063	-0.4915346533	 1.0928206015	 0.394267
N	 0.8446453096	-0.2683366151	 2.4354567316	-0.394525
C	 1.6615658646	-1.2462674359	 3.0032188663	-0.088077
C	 2.1060078076	-2.080258562	 2.0005141	-0.319716
H	 0.8686348173	 2.036700145	-0.1348402821	 0.102386
H	-0.7343289543	 1.763712709	-0.8645973811	 0.125713
H	-0.5828284158	 1.8641076052	 0.8892221738	 0.113672
H	-0.0438416506	-0.6989164076	-1.9479422505	 0.103657
H	 1.4763936867	 0.1299848627	-1.5450735626	 0.091051
H	 0.6983451473	-2.7341947948	-0.8466274924	 0.106219
H	 2.2848089115	-2.0798474656	-1.2499619402	 0.103782
H	 0.4004776085	 0.4790782966	 2.9376765986	 0.25642
H	 1.8722688278	-1.2326274648	 4.0599061778	 0.108965
H	 2.7545429083	-2.9316338761	 2.1427691925	 0.087795
