16
gdb 31297	2.34225	1.51593	0.92957	1.7309	85.37	-0.1779	0.0023	0.1802	1216.1538	0.124797	-396.93587	-396.926959	-396.926015	-396.96964	32.476	
C	-0.0768579418	 1.4641530118	-0.0818458487	-0.322337
N	 0.2262296741	 0.0518422046	 0.0793254031	-0.400361
C	 0.6949658692	-0.6710995563	-0.9914109319	 0.260149
C	 0.6854023466	-2.0581130861	-1.1419853578	 0.10234
N	 1.3335932859	-2.2674032762	-2.3631338332	-0.328753
C	 1.6698765065	-1.0586225458	-2.8569423644	 0.011047
N	 1.3001618212	-0.0715292177	-2.0613582696	-0.31456
C	 0.1759014342	-3.0750337028	-0.3290044111	 0.228503
C	-0.2816159637	-3.9341978501	 0.3871938258	-0.452412
H	 0.795758789	 1.9750375189	-0.4923246888	 0.155551
H	-0.9257146401	 1.6560512746	-0.7554176058	 0.112201
H	-0.3031540178	 1.8893621673	 0.8990747375	 0.117528
H	-0.412498887	-0.4640409157	 0.665814325	 0.242501
H	 1.5012118816	-3.16612375	-2.7824289982	 0.270534
H	 2.1814051457	-0.9399098314	-3.8003466955	 0.133967
H	-0.6683555035	-4.6904746451	 1.0234281635	 0.184102
