18
gdb 796	6.2683	1.20744	1.0926	0.7013	67.93	-0.2382	0.0178	0.256	1110.8362	0.157642	-326.951186	-326.942216	-326.941272	-326.984994	31.298	
C	-0.0137222393	 1.5557878291	 0.0155479867	-0.377246
C	 0.0296988648	 0.0258404873	-0.0054241583	-0.165493
C	 0.7405103353	-0.5605704862	 1.2288492398	-0.256006
C	 0.7642164555	-2.0662957953	 1.2437980552	 0.359306
C	-0.5192378172	-2.8387238541	 1.4014232204	-0.468369
N	 1.911537943	-2.6158580343	 1.1123189909	-0.16761
O	 1.8173901612	-4.0204784234	 1.1178076987	-0.40267
H	 0.995973695	 1.9798121095	 0.0436184311	 0.11799
H	-0.5169376765	 1.9510826796	-0.8722020174	 0.113331
H	-0.5513143719	 1.9250506264	 0.8960960702	 0.113962
H	-0.9922772189	-0.3685217568	-0.066867636	 0.098794
H	 0.5476420131	-0.3205133767	-0.9078619186	 0.107729
H	 1.7721986481	-0.1980977808	 1.2681261419	 0.113345
H	 0.2320648683	-0.2026710387	 2.135730726	 0.09977
H	-0.7735041185	-3.3628974653	 0.4735023461	 0.145073
H	-0.4042444229	-3.6084614701	 2.1698740284	 0.147726
H	-1.3498086048	-2.1819016675	 1.6680882197	 0.116368
H	 2.7407102556	-4.2821446126	 1.0421751152	 0.304001
