25
gdb 102590	2.27461	1.10529	0.79527	1.0232	89.78	-0.2414	0.0875	0.3288	1547.5264	0.22775	-389.476711	-389.466036	-389.465092	-389.512969	38.907	
C	-0.6784558429	 1.0491254916	-0.4569242031	-0.388036
C	-0.0941636251	-0.3314163586	-0.1493930882	-0.176
C	 0.7748555904	-0.3534956579	 1.1124503494	 0.093862
O	-0.0800489101	 0.007581285	 2.1936412572	-0.248496
C	 0.555639592	 0.5349196359	 3.3342469518	-0.234535
C	 1.4313392675	-1.7176245095	 1.3222249154	 0.06062
C	 2.3953471567	-2.251053281	 0.2222386648	-0.227128
C	 3.2815620826	-2.8576619772	 1.3420704402	-0.228382
C	 2.5922484903	-1.8982156748	 2.3466493819	-0.236545
H	 0.1154240997	 1.7809709384	-0.6459518508	 0.105989
H	-1.3195473862	 1.0184057166	-1.3432811324	 0.106512
H	-1.2731515246	 1.4086826239	 0.3861267894	 0.130979
H	-0.9047577472	-1.058657977	-0.0149634179	 0.101005
H	 0.5078063216	-0.6823345906	-0.9950980453	 0.097806
H	 1.5695511194	 0.4095336085	 1.0128826344	 0.050383
H	 1.2372111356	 1.3605964498	 3.0753947681	 0.099832
H	-0.2303794915	 0.924930621	 3.9872828644	 0.121133
H	 1.1270465992	-0.2190338156	 3.8925267495	 0.110596
H	 0.6412290836	-2.4511543871	 1.5203035114	 0.074555
H	 1.9868713625	-2.9245172785	-0.5350563886	 0.096979
H	 2.9063649857	-1.4266101668	-0.2879015325	 0.097797
H	 3.0229037103	-3.9021238018	 1.538631199	 0.102504
H	 4.3658626328	-2.7850788001	 1.2292264173	 0.094888
H	 3.1630385711	-0.9713548265	 2.4682102557	 0.096346
H	 2.3451551066	-2.2864137478	 3.3378491388	 0.097333
