19
gdb 14735	3.8965	0.97234	0.88677	1.6472	72.31	-0.2449	0.028	0.2729	1377.2647	0.163776	-402.187147	-402.177619	-402.176675	-402.222505	33.244	
C	-0.2235702909	 1.2777446276	 0.9150487556	-0.397671
C	 0.604303601	 0.1259210052	 0.3352231009	-0.111533
N	 0.6994575718	-1.1184701537	 1.0820281029	-0.230356
C	 0.0835056435	-1.2621576185	 2.167209968	 0.109921
O	 0.1298334776	-2.4528538491	 2.8151504915	-0.212324
C	-0.2491597064	-2.4493506297	 4.1889456847	-0.092096
C	 0.9858131663	-2.2818737531	 5.0695136913	-0.06275
O	 1.6478317406	-1.0564276208	 4.8155083559	-0.418657
H	 0.1567748656	 1.6046724686	 1.8887916905	 0.123421
H	-0.1799491797	 2.1355789269	 0.2372716692	 0.115795
H	-1.2774231861	 1.0045080278	 1.0350730386	 0.119308
H	 0.2198575414	-0.1295081127	-0.6614043223	 0.113957
H	 1.632083449	 0.4721890806	 0.1626504994	 0.111181
H	-0.5371465555	-0.5126294262	 2.6725177119	 0.086591
H	-0.9643998827	-1.6399167297	 4.3861863213	 0.110544
H	-0.7392489059	-3.407905631	 4.3874531798	 0.114611
H	 0.680200152	-2.2683893661	 6.1218531791	 0.112553
H	 1.6559436957	-3.1411947081	 4.9248356536	 0.106579
H	 2.0944317227	-1.1394961878	 3.9662514782	 0.300926
