18
gdb 125906	3.88583	1.32187	1.11175	3.3601	77.89	-0.1886	0.0422	0.2308	1110.8653	0.151759	-398.144546	-398.137027	-398.136083	-398.176553	29.542	
C	 0.128499427	 1.4659743029	 0.0806015537	-0.39721
C	-0.0565191375	-0.0486412439	-0.0174878691	 0.047006
C	 0.6583725721	-0.6496347396	-1.2865483003	-0.379063
C	 1.9015818771	-1.2427708163	-0.686797511	 0.199473
C	 1.766258671	-1.2437257803	 0.6784863874	 0.4236
N	 2.8532453942	-1.8350946999	 1.2088285236	-0.339987
N	 3.733733478	-2.2227865246	 0.2294079471	-0.244967
C	 3.1421629888	-1.8705511232	-0.9132243698	-0.157957
N	 0.5575447236	-0.7503716627	 1.164649051	-0.419294
H	 1.1926388962	 1.7257845664	 0.065946613	 0.130383
H	-0.3572331056	 1.9684096219	-0.7620919595	 0.123137
H	-0.3133035854	 1.8625130278	 1.0019030661	 0.111758
H	-1.1251097837	-0.2820726233	-0.0332444061	 0.085735
H	 0.0230259663	-1.4060320583	-1.7633999745	 0.112636
H	 0.835473218	 0.1331771843	-2.0325427042	 0.106902
H	 3.0926463577	-2.0015632324	 2.1700893967	 0.266218
H	 3.6470679901	-2.0803417504	-1.8454263505	 0.103301
H	 0.623537572	-0.1509690184	 1.9799270263	 0.22833
