19
gdb 6128	3.08804	1.66925	1.44358	3.4078	73.61	-0.2395	0.0416	0.2811	989.7983	0.164101	-365.098349	-365.089176	-365.088231	-365.13183	32.702	
C	 0.0022256979	 1.4490208233	 0.0717221285	-0.343204
N	-0.0020965356	 0.0104003648	 0.0506836567	-0.075031
C	-1.0848554114	-0.9733816113	 0.0465683186	-0.219295
C	 0.0135797701	-2.0915574773	 0.0198253349	 0.162938
C	 0.0911711329	-2.9575484906	 1.2754926396	-0.440549
C	 0.0670480585	-2.9208262734	-1.2615885504	-0.440576
C	 1.0180826296	-0.9054386496	 0.0275546334	 0.387191
O	 2.2173516178	-0.7834500337	 0.0178779645	-0.389634
H	 1.0448255789	 1.7762652042	 0.0664513195	 0.161064
H	-0.5040800769	 1.8679191858	-0.8069614463	 0.12618
H	-0.4869048033	 1.8418649477	 0.971908955	 0.126178
H	-1.7097706504	-0.9521472595	 0.9475270903	 0.103331
H	-1.7266821431	-0.9260162805	-0.8414180716	 0.10333
H	-0.7243448551	-3.6888805094	 1.2994059078	 0.114632
H	 1.0385341971	-3.5049377393	 1.2995705354	 0.135293
H	 0.0325904091	-2.3516470896	 2.1853409703	 0.11911
H	-0.0087574877	-2.2889022122	-2.152263651	 0.119108
H	 1.0136932475	-3.4669212689	-1.3195317173	 0.135299
H	-0.748893676	-3.6514763705	-1.2911048578	 0.114635
