18
gdb 19767	3.00635	2.77772	2.31108	1.3651	68.83	-0.22	0.0824	0.3024	720.6806	0.15835	-347.812025	-347.8062	-347.805256	-347.841692	24.497	
C	 0.0742986944	 1.5962532857	 0.1385707223	-0.232294
C	 1.5646424807	 1.8285157076	-0.055621262	-0.110084
C	 2.4523807917	 0.8083171587	 0.6502023227	-0.0736
C	 1.8482334523	-0.0749392201	 1.7344083693	-0.225515
C	 0.4493912014	-0.6116854779	 1.3180165632	-0.204073
C	 0.0011637572	 0.0575000842	 0.0143685514	 0.069639
O	 0.9574887614	-0.2710482814	-1.00674951	-0.265617
C	 2.04270578	 0.5994621027	-0.7854193251	 0.101451
H	-0.3118417256	 1.9412731461	 1.103021218	 0.09888
H	-0.4950839945	 2.0886856369	-0.6564675346	 0.103471
H	 1.9379364138	 2.8208275263	-0.2779857785	 0.08235
H	 3.4820648835	 1.1137071773	 0.8126629313	 0.079801
H	 2.5247487371	-0.9102860735	 1.9431231487	 0.10479
H	 1.7787854725	 0.4991249241	 2.6656145702	 0.100578
H	 0.4856942748	-1.6915876722	 1.1479293221	 0.10579
H	-0.292265043	-0.4326510662	 2.1040513465	 0.093001
H	-0.9705751861	-0.3146693458	-0.3176607568	 0.076366
H	 2.7516774685	 0.5977566074	-1.6040090187	 0.095067
