19
gdb 79636	2.17126	1.9478	1.59556	3.081	73.08	-0.2319	0.0658	0.2978	958.6502	0.160584	-422.997062	-422.989543	-422.988599	-423.028611	30.705	
C	 0.0177677515	 1.5848482719	-0.0592895115	-0.398247
C	 0.0533211012	 0.0507310693	-0.000368586	-0.034231
C	 0.6946235094	-0.6214846903	-1.2122194048	 0.024932
O	 2.0994616202	-0.3658464054	-1.4059383406	-0.28194
C	 1.6902578759	-1.6045263454	-0.7614535037	 0.032722
C	 1.768945236	-1.6078481489	 0.7454245947	-0.155836
C	 2.2559800295	-0.3528248258	 1.4499359355	 0.129882
O	 3.0627520908	 0.6189851825	 0.8757786528	-0.428232
C	 0.7747162234	-0.5359504655	 1.2266862612	-0.131405
H	 1.028766417	 1.9967096072	-0.05417244	 0.14216
H	-0.5011332724	 1.934679552	-0.9578720226	 0.110142
H	-0.5098993912	 1.9881300264	 0.8101878867	 0.118117
H	-0.9804967266	-0.3208410941	 0.0240608168	 0.083579
H	 0.1352598817	-0.7092579744	-2.1409100389	 0.101362
H	 1.9442614808	-2.4984417794	-1.3224629251	 0.107988
H	 1.8766156989	-2.5736803569	 1.2263186624	 0.087026
H	 2.5587857607	-0.5126184793	 2.481884923	 0.103789
H	 2.9464471437	 0.539914048	-0.0838646123	 0.302889
H	 0.1645477595	-0.7022153718	 2.1093591726	 0.085303
