18
gdb 87327	1.8826	1.32959	0.91125	3.8067	77.8	-0.2587	-0.0345	0.2242	1313.9585	0.145242	-401.962808	-401.953095	-401.952151	-401.998453	34.126	
C	 0.0169675311	 1.5284252443	-0.0652527414	-0.420115
C	 0.0882605052	 0.0197808196	-0.0008676129	-0.037298
C	 1.3847542754	-0.7253295125	-0.1004074625	-0.314072
C	 0.6263726734	-0.7281405085	 1.2259769517	 0.138616
C	 1.2103035002	 0.0151403851	 2.4269481661	-0.36658
C	 2.3458882955	-0.7584225599	 3.0772685741	 0.163516
O	 3.4255955836	-0.2850726238	 3.3171383534	-0.235303
C	-0.0710585775	-1.9432758221	 1.5690585019	 0.246525
N	-0.6350959244	-2.9116877215	 1.858839365	-0.347028
H	 0.9151351797	 2.0058085703	 0.3342822832	 0.128986
H	-0.0831547458	 1.8471610787	-1.1079005114	 0.134983
H	-0.8479406783	 1.9123321356	 0.4851718208	 0.1334
H	-0.7613866333	-0.4795745848	-0.4575643725	 0.119645
H	 1.4250879985	-1.6483095466	-0.6661179804	 0.142722
H	 2.3030886015	-0.146658338	-0.1090821341	 0.136812
H	 1.5951916992	 0.994437215	 2.139327721	 0.130431
H	 0.4248130483	 0.1646968437	 3.1800722983	 0.140516
H	 2.1094697977	-1.8169242944	 3.3234943197	 0.104245
