25
gdb 110257	1.88968	1.43744	0.92716	0.0183	94.54	-0.2799	0.1002	0.3801	1413.9757	0.228624	-352.303767	-352.293696	-352.292752	-352.339458	38.237	
C	-0.2992775136	 1.7039421052	-0.291850103	-0.390822
C	 0.6230475885	 0.5411074884	 0.0979311932	-0.230188
C	 1.1782312658	-0.1781668334	-1.1426397528	 0.076702
C	 2.5155870477	-0.9970673471	-1.2080907507	-0.113907
C	 1.8125454701	-2.1965665071	-0.4941505733	 0.075137
C	 1.6122721629	-2.2741333188	 1.0166805932	-0.454181
C	 0.7779980655	-1.637520197	-1.5355776604	-0.103661
C	 1.9793175751	-1.622246301	-2.5435012836	 0.070107
C	 1.9467992739	-0.8705298679	-3.8669307079	-0.453594
H	 0.2377690932	 2.4572813707	-0.8788986798	 0.113969
H	-1.1407809215	 1.352039989	-0.899242866	 0.115374
H	-0.7111136032	 2.2003682288	 0.5925236749	 0.107738
H	 1.4471499286	 0.9293168336	 0.7105754647	 0.097061
H	 0.0600607874	-0.1435958144	 0.7365299408	 0.105604
H	 1.0968544681	 0.523435811	-1.976207089	 0.057239
H	 3.5255102891	-0.6209829662	-1.0219246333	 0.055786
H	 2.2118204683	-3.1647687846	-0.8214065277	 0.058472
H	 0.7280114914	-2.87372709	 1.263622141	 0.113094
H	 2.4750103985	-2.7790960833	 1.4657655325	 0.110802
H	 1.5137834287	-1.3107303811	 1.5130771536	 0.122154
H	-0.2302175509	-2.0155092878	-1.7271697171	 0.055964
H	 2.3859005219	-2.6239930629	-2.7230580379	 0.059183
H	 1.5517266219	 0.1456045528	-3.8016748501	 0.120774
H	 2.9573135637	-0.8036199898	-4.2858720365	 0.115611
H	 1.3317530187	-1.4149404172	-4.592537015	 0.115583
