19
gdb 97283	2.04029	1.21884	0.81698	3.7621	83.46	-0.2344	-0.0206	0.2139	1433.5206	0.158074	-419.210518	-419.200952	-419.200008	-419.245723	33.963	
C	 0.0554391342	 1.4391183466	 0.0734078317	-0.313773
N	-0.06810576	-0.0014440614	 0.0418241065	-0.232187
C	 0.623899017	-0.6311520883	-0.809938961	 0.122653
N	 0.602307862	-2.018678576	-0.9497412652	-0.131159
C	-0.2073600271	-2.8003187571	-0.1329619476	 0.157836
O	-0.2708968403	-4.0065419267	-0.2041365625	-0.322983
C	 1.4127235047	-2.6977756454	-1.9400662156	 0.060841
C	 1.6717079257	-2.1293678232	-3.3068930195	-0.288911
C	 2.8002597852	-2.248130775	-2.3019149863	-0.288913
H	 0.7615123365	 1.8405259038	-0.6722039769	 0.097265
H	-0.9254537576	 1.8971670975	-0.0983679242	 0.132141
H	 0.3852289264	 1.7591798538	 1.068529007	 0.132141
H	 1.3026395565	-0.1341976859	-1.5135261411	 0.096108
H	-0.7754083083	-2.1862511726	 0.5775571107	 0.133678
H	 1.2317790971	-3.7608781605	-1.8625106012	 0.145589
H	 1.6443064983	-2.8101534327	-4.1503152592	 0.127992
H	 1.3023226215	-1.1346160755	-3.5318254641	 0.121844
H	 3.1784794753	-1.3320520829	-1.8610962052	 0.121844
H	 3.5564556527	-3.0113739182	-2.4475465762	 0.127993
