16
gdb 17439	2.7256	2.6614	1.91601	1.5738	63.5	-0.2446	0.0717	0.3163	756.3536	0.130733	-383.685171	-383.678392	-383.677448	-383.715527	27.519	
O	-0.1099124224	 1.4828088183	-0.0330910642	-0.442208
C	-0.0425442457	 0.0763216184	-0.0642564389	 0.113808
C	-1.3598127607	-0.6717415886	-0.1159756555	-0.084154
C	-1.7594120991	-0.7993423304	-1.5893860984	-0.062248
C	-0.6948765204	-0.0747416718	-2.4163868783	-0.292169
C	 0.3169403733	-0.6393188536	-1.3893778218	 0.334752
O	 1.6649733401	-0.784234763	-1.6628105592	-0.48259
C	-0.7598470575	-1.7547305612	-0.9905910637	-0.183265
H	 0.7910428002	 1.8216896808	-0.0066981911	 0.28519
H	 0.5911035109	-0.3194898948	 0.742012559	 0.071564
H	-2.0791138149	-0.7918607129	 0.682659753	 0.088241
H	-2.7832553768	-1.0074759321	-1.8693964314	 0.088174
H	-0.5713551577	-0.548711921	-3.396649622	 0.082645
H	-0.7448827666	 1.0134617088	-2.5154336942	 0.106253
H	 1.7631833699	-1.1397976263	-2.5523690329	 0.283154
H	-0.7352899626	-2.8277600207	-0.8756326604	 0.092852
