15
gdb 50068	2.91617	0.96231	0.92576	2.7459	69.11	-0.2517	-0.109	0.1427	1299.9627	0.109738	-457.775993	-457.76715	-457.766206	-457.810828	30.532	
O	-0.1563535255	-0.0065439001	-0.4665775077	-0.259929
C	-0.0656559606	 1.1408705629	-0.1040858414	 0.145043
C	 1.2429002802	 1.7776306536	 0.2148429286	-0.101127
C	 1.4442730026	 3.243159519	-0.0437918749	-0.298574
C	 1.4043926056	 2.7762946623	 1.3874026456	-0.134165
C	 0.2506116685	 3.1571746141	 2.234167597	 0.285091
O	-0.867493985	 3.4180213551	 1.8415051257	-0.303269
C	 0.5162834476	 3.2520760485	 3.7453270745	 0.095766
O	 1.5872534957	 3.0446818935	 4.2503181662	-0.213316
H	-0.9520456307	 1.7970860532	-0.0082178634	 0.112506
H	 2.0886026972	 1.112715521	 0.0764144673	 0.125919
H	 2.396765821	 3.5663152896	-0.4460004811	 0.143196
H	 0.5770296585	 3.8047782346	-0.3766667574	 0.151436
H	 2.3379991942	 2.6849841993	 1.9281683501	 0.135127
H	-0.3900785492	 3.5395323134	 4.3170481108	 0.116296
