17
gdb 32963	4.45924	0.82453	0.72769	2.0321	72.34	-0.202	0.0288	0.2308	1515.2986	0.136694	-455.17687	-455.16792	-455.166976	-455.211274	32.276	
N	 0.1771922674	 1.2470606741	-0.3235181938	-0.587884
C	-0.0291313742	-0.0881790879	-0.0742427537	 0.445696
N	-1.1402003591	-0.6807449635	 0.2333102582	-0.336816
C	-0.7831526925	-2.0290852924	 0.2781585338	-0.199974
C	 0.5308052938	-2.1821695942	 0.0063344501	 0.31221
C	 1.4762056011	-3.3209484555	-0.0888275329	-0.304228
C	 2.007760145	-3.5543467269	-1.5065947198	-0.068095
O	 2.9079179482	-4.6483491084	-1.4429778697	-0.418521
O	 1.0364415194	-0.9043761409	-0.2313339746	-0.219832
H	 1.1014698362	 1.5805906277	-0.0907876193	 0.262698
H	-0.5612514995	 1.8266786876	 0.0477323098	 0.270127
H	-1.5060738118	-2.7941827032	 0.5150051247	 0.116988
H	 2.335680592	-3.1717292309	 0.5769129849	 0.122203
H	 0.9639519773	-4.226395726	 0.2509312607	 0.125696
H	 1.1636716391	-3.7600016395	-2.1828032167	 0.093197
H	 2.5051095327	-2.6408953615	-1.8659363948	 0.098731
H	 3.2550193851	-4.8049383587	-2.3257946069	 0.287802
