19
gdb 92944	2.08876	1.62425	1.42312	3.5432	81.18	-0.2263	-0.0064	0.2199	1063.3167	0.158587	-382.082904	-382.073804	-382.07286	-382.116311	34.015	
C	-0.030080131	 1.4344440169	-0.1225148952	-0.339878
N	-0.0833254206	 0.0061924831	 0.121985355	-0.07818
C	-1.4192828298	-0.5932933099	 0.1167371514	-0.210838
C	-1.2271659033	-1.8464893247	 0.9226128206	-0.080379
C	-0.0607536226	-1.8234017521	 1.5552382861	-0.087229
C	 0.6916093519	-0.537483679	 1.2472934615	 0.089151
C	 2.1648656907	-0.7635626159	 0.8654166837	-0.413856
C	 0.6323751457	 0.3430270976	 2.4518428013	 0.252676
N	 0.5649733578	 1.0578576564	 3.3588754485	-0.350093
H	 1.0094945673	 1.7673306004	-0.1932477028	 0.127595
H	-0.5107267057	 1.6490964602	-1.0821218824	 0.123751
H	-0.5290087787	 2.034711936	 0.656975548	 0.121838
H	-2.1871995364	 0.0543076837	 0.5824794647	 0.105041
H	-1.751290354	-0.7855688134	-0.9128284256	 0.114693
H	-1.9694903369	-2.6324946083	 0.9778568302	 0.115248
H	 0.3411706768	-2.565889369	 2.2317047106	 0.116976
H	 2.204424832	-1.438802836	 0.008006689	 0.13121
H	 2.6480134063	 0.179497532	 0.596236056	 0.133038
H	 2.7200515605	-1.2004208181	 1.7005952298	 0.129234
