21
gdb 22785	2.54092	1.08498	0.84261	0.9868	83.52	-0.2283	0.0038	0.2321	1444.469	0.180873	-420.350898	-420.34075	-420.339806	-420.386172	37.165	
C	 0.1927546091	 1.476356146	 0.1618272665	-0.387279
C	-0.0098905652	-0.0349046445	 0.0311506293	-0.161053
C	 0.5483276937	-0.5829905417	-1.2785124342	-0.0505
N	 2.041816382	-0.5454574538	-1.3946155671	-0.341352
C	 2.1103825866	-1.9875414131	-1.7961476258	-0.045156
C	 3.1063789418	-2.8273583383	-1.0075599908	-0.378877
C	 0.6325890755	-2.0844963868	-1.4599226658	 0.39215
N	-0.248276788	-2.9802537508	-1.3243392823	-0.249777
O	 0.2776651903	-4.2615483087	-1.5884074749	-0.393706
H	 1.2571649581	 1.7264154016	 0.1079380392	 0.126685
H	-0.3235859453	 2.0191931022	-0.6384813371	 0.108401
H	-0.191785869	 1.846781943	 1.1166981773	 0.113799
H	 0.4842764495	-0.5523302465	 0.8607493779	 0.100094
H	-1.0755861404	-0.2883398087	 0.0839110599	 0.105524
H	 0.0349371214	-0.1040861718	-2.1273809432	 0.081169
H	 2.3820199759	 0.0920944063	-2.1053923236	 0.217678
H	 2.2718515406	-2.1351090832	-2.8751117194	 0.088194
H	 2.9446514518	-2.7035972024	 0.0664435195	 0.121116
H	 2.9986236335	-3.8848491325	-1.2616909049	 0.132711
H	 4.1293201633	-2.5108812064	-1.2364867053	 0.113121
H	-0.4847342152	-4.8288005698	-1.4317947654	 0.307061
