20
gdb 64460	2.22927	1.67344	1.22597	1.84	74.91	-0.2199	-0.0192	0.2007	1096.8655	0.171254	-440.30556	-440.296599	-440.295655	-440.338859	34.638	
C	 0.0059213404	 1.561558884	-0.0285509028	-0.441752
C	 0.0609008825	 0.0391200634	-0.0034589785	 0.258274
O	-1.2659653953	-0.5230594455	 0.0529011044	-0.465778
C	 0.7052251684	-0.5435270262	-1.2675356698	-0.194241
C	 0.9240959153	-2.0530579249	-1.1612657879	-0.176143
N	 1.7765623843	-2.3217918991	-0.0035288888	-0.304776
C	 1.1212700972	-1.9715096264	 1.2559483455	-0.25913
C	 0.7591995941	-0.4899199283	 1.2724398129	 0.38459
O	 0.9094056682	 0.1991497109	 2.2540816656	-0.318883
H	 1.0090149415	 1.9890955435	-0.1147555851	 0.12595
H	-0.5945708803	 1.8939129245	-0.8799499271	 0.117652
H	-0.4322189443	 1.9470452411	 0.8961858621	 0.124856
H	-1.7240276604	-0.1091210967	 0.7936171156	 0.287333
H	 0.0586099464	-0.3068342585	-2.119468973	 0.104462
H	 1.6728266738	-0.055599207	-1.4258941892	 0.108945
H	-0.0541701881	-2.5608460195	-1.1039351201	 0.099226
H	 1.4352932099	-2.4162832637	-2.0584160217	 0.09831
H	 2.046057107	-3.2988552358	 0.0172544934	 0.223408
H	 0.1799320653	-2.5283460835	 1.4311764018	 0.106595
H	 1.7904533942	-2.1633998126	 2.0979335428	 0.121105
