21
gdb 94578	2.9836	0.93727	0.80877	2.5761	78.61	-0.2458	-0.0117	0.2341	1485.6238	0.180226	-424.236388	-424.226323	-424.225379	-424.272647	36.321	
C	-0.2502103808	 1.4711590233	 0.4094111264	-0.473969
C	 0.0007158649	-0.0020069676	 0.1345141185	 0.382076
O	 1.1137904813	-0.4343698226	-0.0567103442	-0.288515
C	-1.2334093494	-0.9002336685	 0.1092774833	-0.331693
C	-0.9115717955	-2.3745598279	-0.0995278953	-0.017931
C	-0.4524270085	-3.125650843	 1.1848574674	-0.222238
C	-1.8994988957	-3.6620879055	 1.3705327764	-0.263063
C	-2.16859449	-3.3064489372	-0.1134427496	 0.138596
O	-3.4242527929	-2.8079208081	-0.5086721554	-0.430489
H	 0.6873979005	 2.0247510384	 0.3485397513	 0.143566
H	-0.9706653653	 1.8809854184	-0.307084086	 0.137272
H	-0.6865069669	 1.6005264273	 1.4066492043	 0.137266
H	-1.7893797068	-0.7276394367	 1.0431438688	 0.103598
H	-1.8960092709	-0.5371736967	-0.6897670225	 0.129409
H	-0.2471032229	-2.4685155245	-0.9606218913	 0.083943
H	 0.2605315169	-3.9218985833	 0.9604461649	 0.109308
H	-0.0393850996	-2.5145082195	 1.9900316214	 0.100684
H	-2.0383960255	-4.7001319447	 1.680972013	 0.102686
H	-2.4867656523	-3.0239745046	 2.0413998453	 0.088856
H	-1.9842254446	-4.1689609393	-0.7606894494	 0.093018
H	-3.7010961259	-2.1474784378	 0.1344572727	 0.27762
