16
gdb 15534	2.7069	2.13119	1.40008	3.5357	67.68	-0.2286	-0.0272	0.2014	908.9344	0.128926	-383.751057	-383.743118	-383.742174	-383.783877	28.039	
C	-0.1497392222	 1.5222106759	 0.0173244847	-0.500935
C	-0.0236117609	 0.0327119639	 0.019991989	 0.294699
C	 0.1394428267	-0.8013312272	-1.0038638342	-0.193728
C	 0.1994291559	-2.2223890391	-0.5259326046	-0.115679
O	-0.0644785023	-2.1468335318	 0.8758578589	-0.250922
C	-0.0602879089	-0.8024530525	 1.2941541224	-0.056207
C	 1.1467328221	-0.4862350051	 2.1823908083	 0.149204
O	 2.0987480484	-1.2036735773	 2.3193062265	-0.232046
H	 0.6662536529	 2.001814524	 0.5712160247	 0.137169
H	-0.1380508654	 1.9157199255	-1.0020205124	 0.134857
H	-1.0841329114	 1.8414495741	 0.4954906857	 0.133633
H	 0.2192509311	-0.5211467227	-2.0470816298	 0.106207
H	-0.5571290874	-2.8660743971	-0.9969907188	 0.110593
H	 1.1826784157	-2.6845616049	-0.7035321683	 0.118568
H	-0.9644565954	-0.5909966819	 1.8931259206	 0.096334
H	 1.0748314413	 0.4998444462	 2.7015654473	 0.068252
