19
gdb 88720	3.24193	1.01034	0.84017	1.5415	82.88	-0.2356	0.053	0.2886	1379.4105	0.15741	-385.82057	-385.811334	-385.81039	-385.855078	35.066	
O	-0.1418457145	 1.4842458931	-0.0084330052	-0.417012
C	-0.0470954424	 0.0884712769	-0.0555311532	 0.08621
C	-0.4931986855	-0.7223583581	 1.1353537107	-0.335759
C	-1.3404766685	-0.6743209881	-0.1241419414	-0.025778
C	-2.6427934383	 0.0558985979	-0.1263884216	 0.005442
C	-3.5386709386	 0.0263114137	-1.3297067391	-0.304613
C	-3.9654021654	-0.7082917862	-0.0645584272	-0.209046
C	-3.9901446802	-2.1409090385	-0.0380809084	 0.341119
C	-4.0160013843	-3.3439147421	-0.009056887	-0.478879
H	 0.5351217776	 1.8054743113	 0.5959957526	 0.288459
H	 0.7887406801	-0.2890519974	-0.644799082	 0.085274
H	 0.0314294427	-1.638682544	 1.3824743346	 0.112205
H	-0.8598928488	-0.1618316177	 1.9895353255	 0.112914
H	-1.3286589501	-1.5706264441	-0.7361956822	 0.096714
H	-2.6299170262	 0.985091919	 0.4322043688	 0.099581
H	-4.0868053573	 0.9219449421	-1.5994551224	 0.117753
H	-3.2373197986	-0.5907756463	-2.1689048373	 0.124324
H	-4.7514444343	-0.2340196522	 0.5161283819	 0.109425
H	-4.0427471874	-4.4047187394	 0.0160786029	 0.191669
