16
gdb 80189	2.48467	1.75019	1.44212	4.1074	64.31	-0.2387	0.0494	0.2881	955.3016	0.124397	-475.040174	-475.031996	-475.031052	-475.073098	29.844	
C	-0.1025418933	 1.3892679121	-0.1470567241	-0.342017
N	-0.0528568252	-0.0321693819	 0.1302052628	-0.112055
C	-1.2001714547	-0.8770511387	 0.0790890412	-0.09404
C	-1.3633642942	-1.7053673631	-1.193808488	 0.057592
O	-0.6864542384	-1.2966742923	-2.3335274712	-0.417612
C	-0.5975530024	-2.2553665785	-0.0110037864	-0.003307
O	 0.8010291849	-2.0960359875	-0.0540527359	-0.254589
C	 1.1111415835	-0.7451171554	-0.0384306627	 0.477502
O	 2.2300956098	-0.3331736088	-0.1627596572	-0.393597
H	 0.918359262	 1.7703631378	-0.099150567	 0.167014
H	-0.5141760203	 1.5836621528	-1.1443933434	 0.140386
H	-0.7157621546	 1.9034716095	 0.5998248401	 0.125731
H	-2.0461619433	-0.6135249808	 0.7041319456	 0.114144
H	-2.3505374634	-2.1356924972	-1.3581245083	 0.106284
H	 0.0017898613	-1.9424263115	-2.5315353489	 0.305541
H	-0.9162362816	-3.1246159765	 0.5497353933	 0.123024
