21
gdb 94320	2.56731	1.35134	1.10325	2.4505	79.34	-0.2203	0.0682	0.2886	1207.8674	0.179561	-424.190648	-424.180813	-424.179869	-424.225163	36.897	
C	-0.3192338012	 1.4168246735	 0.0815217487	-0.405279
C	 0.0558931268	-0.0512712552	-0.0594225269	-0.128095
C	 1.3863853968	-0.3763333024	-0.7791936936	-0.08427
O	 1.9293618719	-1.0086928839	 0.4020178244	-0.301968
C	 0.7390408096	-0.7319232079	 1.1309589581	 0.446007
C	 0.7842209497	-0.340209206	 2.5833266988	-0.43867
C	 0.1922016848	-1.6811298683	 2.151832149	 0.310237
C	-1.2987549751	-1.9105905123	 2.2558280915	-0.448511
O	 0.9756898842	-2.8230563081	 2.3570018247	-0.457691
H	 0.5194226573	 2.0013047332	 0.4735854533	 0.125147
H	-0.6065934119	 1.8411467493	-0.886477727	 0.117172
H	-1.1664292345	 1.5478613018	 0.7636734722	 0.11733
H	-0.7891836924	-0.6263884024	-0.4491171142	 0.083116
H	 1.3232130937	-1.0752013945	-1.6208601384	 0.104372
H	 1.9768241471	 0.498990588	-1.0779535504	 0.099149
H	 1.7662440962	-0.3797552545	 3.0438190519	 0.122237
H	 0.1262650323	 0.4429901666	 2.9491525731	 0.106576
H	-1.8641463421	-1.0094260525	 1.9996009398	 0.116422
H	-1.6093931374	-2.7178342328	 1.5845918984	 0.127137
H	-1.5772566786	-2.1936122982	 3.2787576075	 0.109416
H	 0.9521860828	-3.0316303434	 3.2976788791	 0.280167
