16
gdb 34960	3.27874	1.60011	1.52982	0.8561	73.58	-0.2177	0.0221	0.2398	917.2986	0.124713	-400.631083	-400.624228	-400.623284	-400.66223	27.573	
C	-0.2159189252	-1.2695247779	-0.1396962619	-0.432608
C	-0.1190252199	-0.0743481814	-0.0496634876	 0.341586
C	-0.0019267402	 1.3611751079	 0.064830649	-0.184986
C	-0.22644241	 2.0460863966	 1.4414795663	 0.085828
O	 0.4828197082	 1.3769554715	 2.4988251876	-0.295996
C	 1.7374903024	 1.9915937681	 2.108386961	 0.093079
C	 2.3452086608	 1.2892957245	 0.8843021807	-0.19054
N	 1.3849958622	 1.9899777716	-0.0488312094	-0.179657
C	 1.0033085146	 2.9186793468	 1.1120308583	-0.057491
H	-0.307234271	-2.3248338182	-0.2171991422	 0.20151
H	-0.6258042405	 1.8538474814	-0.6914001996	 0.114455
H	-1.2300265781	 2.3580160601	 1.7375891978	 0.088875
H	 2.3465074475	 2.2711520603	 2.9701425094	 0.084666
H	 3.3603875593	 1.6353225308	 0.6640798741	 0.112577
H	 2.3091076158	 0.1980094996	 0.8600037561	 0.129813
H	 1.066476774	 3.9980786883	 0.9971675203	 0.088888
