19
gdb 46056	3.34381	1.13331	0.95563	3.0444	75.85	-0.2456	0.024	0.2696	1253.297	0.161982	-419.227687	-419.219547	-419.218603	-419.260968	30.876	
O	 0.0473549976	-0.1358992794	 0.2081264567	-0.368069
C	-0.064497697	 1.0641484507	 0.116092493	 0.403483
C	-1.292308922	 1.9183580597	 0.43815932	-0.338562
C	-0.9344842016	 3.3199220159	-0.0761808148	-0.224699
C	 0.6188715436	 3.3429338885	-0.1089284042	-0.009155
N	 0.9331610469	 1.931554336	-0.2817960864	-0.317825
C	 1.163660139	 4.2319332764	-1.2123292809	 0.021397
C	 2.4155369702	 3.9293934449	-1.9447374395	-0.254704
N	 1.1062317291	 3.8069755935	-2.6159122388	-0.314121
H	-2.1910154562	 1.488087369	-0.0071406398	 0.135322
H	-1.4273312595	 1.8960763587	 1.5257181844	 0.133299
H	-1.3094213403	 3.4585015763	-1.0946708427	 0.126964
H	-1.3347786607	 4.1289269568	 0.5377505954	 0.112595
H	 1.0082211926	 3.7148336518	 0.8522080609	 0.084126
H	 1.8821931246	 1.5887428693	-0.2771815561	 0.251583
H	 0.9041276069	 5.2795237666	-1.0650093285	 0.097099
H	 3.045040858	 4.7385553285	-2.303563851	 0.123697
H	 2.9560720704	 3.0177236072	-1.7034143602	 0.103661
H	 0.8497306486	 2.8204486098	-2.6436058275	 0.233907
