16
gdb 18063	4.89349	1.34716	1.28951	4.8606	68.05	-0.2458	0.0328	0.2786	972.8585	0.13193	-342.746332	-342.739195	-342.738251	-342.778328	26.546	
N	-0.3364090975	-0.4513061517	 1.8722745795	-0.302827
C	-0.2234405987	 0.3974522581	 1.0967254159	 0.275067
C	-0.0775859328	 1.4719659578	 0.113054152	-0.389702
C	 1.3201222116	 2.0767779498	 0.1088938334	 0.02041
C	 1.6234874287	 3.4846504787	-0.2190315085	-0.05024
C	 0.5658563893	 4.459907235	 0.2937967008	-0.256661
C	 0.7821331478	 3.8176473273	 1.6867605242	-0.159605
N	 1.8827040483	 2.9189142033	 1.1786091483	-0.136917
H	-0.2817065797	 1.0589038737	-0.8817919048	 0.15909
H	-0.8520665744	 2.2201005113	 0.3001576625	 0.155089
H	 2.0724535253	 1.3645565384	-0.2225385382	 0.117285
H	 2.4391324377	 3.7470656897	-0.8858981998	 0.103066
H	 0.9013982059	 5.4972375115	 0.2565688017	 0.121643
H	-0.4273239428	 4.4049310963	-0.1637965034	 0.105333
H	 1.199098839	 4.5055665162	 2.4233902854	 0.123349
H	-0.0558281478	 3.2858809247	 2.1475544911	 0.115622
