20
gdb 82833	2.40193	1.71372	1.52622	1.6173	78.28	-0.207	0.0694	0.2764	1001.3237	0.171682	-403.088521	-403.080636	-403.079692	-403.12032	31.831	
C	 0.0532338137	 1.5445454582	 0.1244743379	-0.522676
C	-0.0090554396	 0.0575628112	-0.0266705593	 0.39988
C	 0.6215720222	-0.8242843886	-1.160237035	-0.140488
C	 1.4215611594	-1.5184648079	-0.0439340828	-0.191373
N	 0.6212474299	-0.8566098594	 1.0403274233	-0.184061
C	-0.7031724658	-1.5520302526	 1.1776426779	-0.19512
C	-1.2841858864	-0.8547920036	-0.0642345744	-0.098012
C	-0.7742670195	-1.4646733795	-1.3877726025	 0.128953
O	-1.4805398991	-0.8334382373	-2.440407396	-0.443354
H	 1.0918182654	 1.8915179492	 0.1615828814	 0.12204
H	-0.445184629	 2.0356324826	-0.7180873085	 0.127185
H	-0.4399776123	 1.8639623068	 1.049092355	 0.124222
H	 1.1411953718	-0.4476971972	-2.0449816731	 0.05762
H	 1.4169835845	-2.6147349464	-0.0135138248	 0.094312
H	 2.4603094503	-1.1768451759	 0.0046767943	 0.10679
H	-0.6495226694	-2.6471321512	 1.176696959	 0.094985
H	-1.1908457833	-1.2312986698	 2.1033245149	 0.10822
H	-2.3180044362	-0.5081347712	-0.0682525862	 0.075586
H	-0.8092328198	-2.5612612994	-1.4813541944	 0.055628
H	-0.9941527669	-0.988496348	-3.2574011665	 0.27966
