17
gdb 41733	3.83295	1.48152	1.2524	1.1534	66.48	-0.2247	0.0806	0.3053	998.5765	0.137581	-458.92718	-458.920144	-458.919199	-458.958626	27.324	
C	 0.0873217754	 1.2161100261	 0.2152264911	-0.081602
C	 1.3867694953	 1.9510694089	-0.1764797207	-0.343542
C	 2.1763268933	 0.8430302738	-0.8135569729	 0.385689
O	 3.3338233087	 1.1256676658	-1.5437145305	-0.299297
C	 3.9457518006	-0.1277759081	-1.788071343	 0.006201
O	 3.5197179387	-1.0383126085	-0.7823759417	-0.265316
C	 2.3276475266	-0.5331524344	-0.2264351126	-0.031088
C	 1.1930457353	-0.2459370345	-1.2017567075	-0.029329
O	-0.0560378672	 0.0816914417	-0.6560188068	-0.263233
H	 0.1397605361	 0.8722456219	 1.2567069756	 0.10795
H	-0.8070621573	 1.8349280016	 0.1070490486	 0.11869
H	 1.2050541413	 2.7340066674	-0.9202272083	 0.12397
H	 1.8752785722	 2.4053720704	 0.6897703489	 0.117624
H	 3.6483457634	-0.5040421447	-2.7799060527	 0.101197
H	 5.0332319422	-0.0128424014	-1.7404723482	 0.123851
H	 2.1787003291	-0.8255491209	 0.8071598789	 0.11444
H	 1.1288497362	-0.741788315	-2.1642418682	 0.113794
