17
gdb 85306	2.49281	1.85432	1.33352	4.2949	67.79	-0.2487	-0.0014	0.2473	982.5921	0.137029	-458.983129	-458.975761	-458.974817	-459.014887	28.695	
C	-0.2526611289	 1.5512708712	 0.1428884512	-0.402635
C	 0.0766478751	 0.0722452184	 0.0068971362	 0.134246
O	 0.9284613699	-0.0939101796	-1.1623933797	-0.25894
C	 2.1819813962	-0.5987069733	-1.0253932646	 0.447282
O	 2.8999529592	-0.7304024648	-1.975584972	-0.332342
C	 2.5263532653	-0.9941122629	 0.4038223026	-0.05494
C	 1.3898582561	-1.8807321819	 0.9548654035	-0.269499
C	 0.7728623957	-0.4973412212	 1.239150194	 0.068086
O	 2.1074013856	 0.0863700805	 1.284128225	-0.286586
H	 0.6459166458	 2.1078790912	 0.4205028752	 0.146645
H	-0.6333167534	 1.941188519	-0.803769517	 0.137453
H	-1.0154676833	 1.7020163004	 0.9134527396	 0.118137
H	-0.8309956529	-0.5072205489	-0.20285682	 0.098194
H	 3.575329636	-1.2686262678	 0.5054838445	 0.111567
H	 0.8740107674	-2.5596521544	 0.2729312994	 0.123641
H	 1.6860591617	-2.3951469178	 1.8693257672	 0.125749
H	 0.1987390443	-0.3271648681	 2.1533469347	 0.093942
