19
gdb 110809	2.0422	1.82412	1.15961	1.187	81.1	-0.2432	0.0479	0.2911	1111.5856	0.157994	-385.809933	-385.801095	-385.800151	-385.843329	33.447	
C	 0.1717630635	 1.0027865863	-0.3092324483	-0.23467
O	-0.4400717402	-0.0043702689	 0.4757678271	-0.238383
C	 0.441363707	-0.6305770554	 1.3466324642	 0.14235
C	 0.1148534305	-1.9741395853	 1.8876729065	-0.125823
C	-0.5790914623	-2.8212817667	 0.814004846	-0.248667
C	 0.7028645432	-2.7026329538	-0.0905843906	-0.167382
C	 0.5834858181	-2.2592504091	-1.4689063783	 0.342266
C	 0.4988491468	-1.9303992621	-2.6231840256	-0.474914
C	 1.3428050118	-1.7731232021	 0.960323695	-0.134259
H	 0.949734297	 0.5866953904	-0.9612169098	 0.122499
H	-0.6129375472	 1.4457745452	-0.9265346349	 0.124999
H	 0.6138848341	 1.7882529172	 0.3225576066	 0.099813
H	 0.9056875745	 0.0471574799	 2.0676914195	 0.084388
H	 0.0852330123	-2.1763659563	 2.9515053366	 0.09058
H	-0.7689118691	-3.8510984038	 1.1194832058	 0.105442
H	-1.4885565135	-2.3863734187	 0.3980470938	 0.124829
H	 1.226787555	-3.6636806521	-0.0777766132	 0.106735
H	 0.4142972639	-1.6313143529	-3.6383593577	 0.191744
H	 2.4000520844	-1.7735424119	 1.2003498873	 0.088454
