15
gdb 2401	5.28923	2.05475	1.81323	3.0469	57.34	-0.2401	0.0712	0.3113	725.7276	0.124559	-345.602641	-345.59584	-345.594896	-345.633382	24.974	
O	-0.1606150843	 1.4266291995	-0.0229041952	-0.419432
C	-0.0526723798	 0.0349008767	 0.0378928912	 0.043169
C	-0.5498442644	-0.7022082389	 1.2632478885	-0.395242
C	-1.3382415664	-0.7137001857	-0.016452194	 0.288268
C	-2.7157435664	-0.1281322358	-0.2988936023	-0.127725
O	-3.018066139	-1.2293546038	-1.1892050805	-0.277644
C	-1.7500247493	-1.8665041244	-0.9233748534	-0.139501
H	 0.512511162	 1.8056516278	 0.552005627	 0.29067
H	 0.8018922192	-0.38871628	-0.492557893	 0.087534
H	-0.0345937869	-1.6076510959	 1.5699130769	 0.114609
H	-0.9409327076	-0.0983857735	 2.0768185052	 0.117993
H	-3.4047456959	-0.0924515807	 0.5551218192	 0.098284
H	-2.7223335711	 0.8391900345	-0.8136562227	 0.118745
H	-1.1544265273	-2.002304785	-1.8360007309	 0.10158
H	-1.8756386129	-2.8390340949	-0.4277309961	 0.098693
