23
gdb 107337	3.14362	1.2392	1.0386	0.3752	90.74	-0.219	0.0249	0.2439	1266.8537	0.207649	-351.168744	-351.16005	-351.159106	-351.201705	34.786	
C	 0.1566855581	 1.4504845183	 0.3508165821	-0.380784
C	-0.0678883339	 0.048888992	-0.23201209	-0.254826
C	-1.4831080229	-0.4826724726	-0.0538326264	 0.365014
C	-1.8128970202	-1.1177108801	 1.270181449	-0.327475
C	-1.650177603	-1.9911798759	 0.0285055338	-0.119498
C	-2.8500270115	-2.5985154247	-0.5956090738	-0.040673
C	-3.9107216046	-1.8789960562	-0.9670381983	-0.082489
C	-3.9579736472	-0.3835277187	-0.7882589334	-0.279561
C	-2.557467618	 0.2592768692	-0.8403344489	-0.268708
H	 1.2016593694	 1.7563980059	 0.2392810233	 0.109915
H	-0.4608459384	 2.2024348606	-0.1500636971	 0.117935
H	-0.0886368659	 1.475607957	 1.4179994867	 0.116297
H	 0.1827674469	 0.0526092889	-1.3015961164	 0.093627
H	 0.6328353016	-0.6495032815	 0.2422489785	 0.090461
H	-1.0300081048	-1.1575206272	 2.0211626351	 0.104337
H	-2.8136650829	-1.0253376218	 1.6772164451	 0.112808
H	-0.7433884425	-2.5872651731	-0.0140051328	 0.075832
H	-2.8441653199	-3.6764780388	-0.734514039	 0.081873
H	-4.7796551883	-2.3679843503	-1.398152819	 0.082144
H	-4.5885246203	 0.0721863429	-1.5604219964	 0.099147
H	-4.4466730896	-0.1364980955	 0.165050717	 0.110035
H	-2.6271267339	 1.2999403013	-0.5042602328	 0.096551
H	-2.2308394984	 0.2936565404	-1.8887534563	 0.09804
