23
gdb 101338	3.29919	0.77976	0.70468	2.585	82.74	-0.2519	0.064	0.3159	1701.6241	0.204353	-425.411084	-425.400447	-425.399503	-425.447351	39.038	
C	-0.0426413012	 1.5488749449	-0.4049191464	-0.378818
C	 0.0283494007	 0.1245929915	 0.1577219704	-0.187644
C	-1.3363295333	-0.5317600014	 0.2352469834	 0.006858
C	-1.9220310346	-1.2724935802	-0.9403813376	-0.302148
C	-1.5297159216	-2.0303390542	 0.3104510129	-0.052779
C	-0.3734350627	-2.9985968544	 0.2993409923	 0.08703
O	 0.3730950027	-2.9783804413	 1.5289182851	-0.447261
C	-0.815326762	-4.4401256376	 0.0254046656	-0.05968
O	 0.278938492	-5.3260052489	 0.104091669	-0.426775
H	 0.9502438682	 2.0070436208	-0.4486597396	 0.111956
H	-0.461627927	 1.5529290517	-1.4167226676	 0.117108
H	-0.6774621943	 2.1893521034	 0.2175720896	 0.112509
H	 0.6991101552	-0.4773239137	-0.4652335333	 0.098753
H	 0.481545269	 0.1416370894	 1.1563352269	 0.104665
H	-2.053989567	 0.0388665828	 0.821764479	 0.080387
H	-2.9754638531	-1.161953155	-1.1720763964	 0.112155
H	-1.2884323387	-1.4001404696	-1.813549379	 0.114217
H	-2.358596507	-2.361399639	 0.9357707901	 0.075771
H	 0.3594902151	-2.7184218528	-0.4639297189	 0.092741
H	-0.2618751953	-2.9947170906	 2.2543378249	 0.280533
H	-1.6094372595	-4.7126487068	 0.7460244447	 0.06733
H	-1.2436546364	-4.5232908507	-0.9791966008	 0.109359
H	 0.7902770908	-5.0226600981	 0.8663198955	 0.283733
