17
gdb 91505	2.69114	1.83991	1.5163	1.1494	68.2	-0.2533	0.016	0.2693	914.5392	0.136177	-458.818555	-458.8116	-458.810656	-458.84955	28.735	
O	-0.1184285672	 1.3762628858	 0.0103055036	-0.447029
C	 0.0324270074	-0.024925833	 0.0141297349	 0.153406
C	 0.5976639321	-0.6117351357	 1.3397396305	-0.263248
C	-0.664465789	-1.346873385	 1.7593704035	-0.008217
O	-1.7630529326	-0.3454011767	 1.4415044861	-0.391801
C	-1.3591666075	-0.7087551336	 0.0259889567	 0.298356
C	-1.7476757773	-1.3298144487	-1.3410135517	-0.20981
O	-0.8747273548	-2.4690919412	-0.9291683658	-0.320371
C	-1.2114538369	-2.0839686883	 0.4723591445	 0.108564
H	-0.7302379403	 1.5744759475	 0.7320077716	 0.285049
H	 0.6281753877	-0.2827372363	-0.8616821785	 0.101549
H	 1.4483312124	-1.28353308	 1.1977026241	 0.117101
H	 0.8781962032	 0.1793169201	 2.0382482238	 0.113252
H	-0.7736207772	-1.7636104338	 2.7605330842	 0.097739
H	-2.7860142495	-1.6572522482	-1.4458434235	 0.126574
H	-1.3792993426	-0.8452073334	-2.2479725038	 0.134106
H	-2.1500235279	-2.5785776094	 0.7356395899	 0.104779
