12
gdb 128960	7.85536	0.79025	0.72126	0.7621	61.62	-0.2946	-0.0577	0.2369	1406.6408	0.077293	-468.753192	-468.745721	-468.744776	-468.786413	25.706	
N	-0.0363311502	-1.1139941748	-0.0044584137	-0.277048
C	-0.0069638454	 0.0395855198	 0.002435532	 0.282469
C	-0.0176519008	 1.5002075897	 0.0116819516	-0.220015
O	 1.3413593974	 1.9531890232	-0.0008392165	-0.25255
C	 1.4845931719	 3.2806855111	 0.0057918423	 0.424896
N	 0.5028604263	 4.1408893994	 0.0222470711	-0.166342
O	 1.1165501512	 5.3725345166	 0.0229705896	-0.168127
N	 2.4754914406	 5.2528511361	 0.0068552864	-0.040178
C	 2.7282337058	 3.9766618205	-0.0039489163	-0.114458
H	-0.5530637751	 1.8813223066	-0.8654327043	 0.181955
H	-0.5330608542	 1.8702553016	 0.9053613595	 0.181954
H	 3.7339420525	 3.5890046303	-0.0177341418	 0.167444
