15
gdb 129461	4.32184	1.02384	0.90541	1.6037	68.31	-0.2471	-0.0246	0.2225	1237.6662	0.113305	-453.977436	-453.969325	-453.968381	-454.011464	29.265	
N	 0.3654418827	 0.1090411665	-0.8564632586	-0.512993
C	-0.1684204488	 0.1993712474	 0.3890922322	 0.391677
O	 0.1141542011	 1.0715360589	 1.1832686031	-0.350102
C	-1.2288865758	-0.8729743935	 0.7321266545	-0.416029
C	-0.9210698825	-2.2594057564	 0.2861224293	 0.418358
C	-0.5572143917	-3.3976113037	 0.9363060882	-0.331625
C	-0.3957977105	-4.3456502488	-0.1092900903	 0.042514
N	-0.6359046893	-3.8357415794	-1.2903858524	-0.139923
O	-0.9784558479	-2.5028685016	-1.0421046367	-0.223984
H	 1.0459679678	 0.7979344948	-1.131159288	 0.265017
H	 0.1274168737	-0.6350930523	-1.4904925992	 0.280073
H	-1.3472051311	-0.8495463098	 1.8151375826	 0.153308
H	-2.1760830054	-0.5462652463	 0.2854254099	 0.154473
H	-0.4237817152	-3.5383521608	 1.9955545653	 0.129819
H	-0.112155867	-5.3865135151	-0.03924852	 0.139416
