25
gdb 63622	2.6106	1.12268	1.07116	0.05	92.86	-0.2383	0.0814	0.3197	1350.9052	0.227289	-352.339306	-352.329007	-352.328062	-352.373975	40.176	
C	 0.1582633456	 1.4845860411	-0.3824158135	-0.456187
C	 0.0558523531	-0.0005129222	-0.0915972484	 0.3605
C	-1.2802675656	-0.6060547763	-0.4823672834	-0.450973
C	 1.2875991668	-0.8566254526	-0.2627890096	-0.348212
C	 0.7507004714	-0.5876637572	 1.1281218239	-0.128945
C	 1.502085648	 0.2211065776	 2.1691681638	 0.377425
C	 2.9259245002	 0.6418054083	 1.8479892086	-0.471319
C	 0.6879299327	 1.1481477603	 3.0512402918	-0.28827
C	 1.2316804747	-0.138991107	 3.6154143949	-0.315092
H	 1.1281897797	 1.8991565695	-0.0991925146	 0.118226
H	 0.0137638359	 1.6773224225	-1.4523166946	 0.110023
H	-0.6108271647	 2.0481089969	 0.1586509076	 0.112503
H	-1.4702274756	-0.4830624052	-1.5557805256	 0.110831
H	-1.3151835799	-1.6773770369	-0.2602554306	 0.109701
H	-2.1072610163	-0.1263439805	 0.0553805039	 0.110121
H	 1.179408743	-1.8563011933	-0.6720889149	 0.101464
H	 2.2075427068	-0.361693809	-0.5551909298	 0.105386
H	 0.2114832914	-1.4274441017	 1.5605459903	 0.075335
H	 2.9824019954	 1.3049746915	 0.9778190594	 0.115717
H	 3.3658347282	 1.1804645007	 2.6933565414	 0.108204
H	 3.5569217127	-0.2292993822	 1.6401061011	 0.118696
H	 1.1390312945	 2.0820888122	 3.370904374	 0.104291
H	-0.3795625179	 1.2094187213	 2.8696109212	 0.108455
H	 0.5305968804	-0.9420878352	 3.8191336546	 0.107
H	 2.0571197097	-0.0851477426	 4.3178041785	 0.10512
