18
gdb 26354	2.49415	1.40839	0.96461	1.7885	73.92	-0.2	0.0284	0.2285	1210.1601	0.147686	-439.102238	-439.093198	-439.092253	-439.135866	34.129	
C	 0.1344223651	 1.441070752	-0.2944234872	-0.404345
C	 0.063505774	-0.0444558644	 0.0791153695	-0.005588
O	 0.6604658088	-0.2832691433	 1.3504447884	-0.421169
C	-1.3427802129	-0.5841164716	 0.028995666	 0.201558
C	-2.0223064961	-1.1597470042	 1.0573454691	-0.108619
O	-3.2773674977	-1.5089428747	 0.6869983736	-0.153498
C	-3.4066113621	-1.1690329578	-0.6303055332	-0.070214
C	-2.2576167537	-0.5982357675	-1.0891958914	 0.086939
N	-2.0016901536	-0.0488973947	-2.3604135864	-0.607135
H	 1.173363314	 1.7819509345	-0.2797819544	 0.117946
H	-0.2944626973	 1.6210568177	-1.2837317881	 0.137848
H	-0.4418290103	 2.0361528438	 0.4242918523	 0.109955
H	 0.6932932827	-0.6100975911	-0.6222266262	 0.091328
H	 0.2396369501	 0.3158581753	 1.9775293766	 0.278159
H	-1.7408406309	-1.3973273432	 2.0689183952	 0.135806
H	-4.3581702013	-1.3849547936	-1.0868929842	 0.12182
H	-2.7288294281	-0.2767604837	-3.0273947479	 0.243112
H	-1.1130140107	-0.3541862836	-2.7405979218	 0.246098
