12
gdb 3852	3.8724	3.35332	1.81714	3.6121	52.8	-0.2083	0.0147	0.223	646.4422	0.091876	-356.679729	-356.673374	-356.67243	-356.709609	23.61	
N	 0.0615112941	 1.384631463	 0.0855853649	-0.589687
C	-0.0234444198	 0.0192633968	 0.0306603355	 0.477167
C	-1.1180426343	-0.809926115	 0.0277236569	-0.010046
N	-2.463750808	-0.3560333344	-0.0058550769	-0.622412
C	-0.5247576714	-2.1014072146	 0.0404668731	-0.005854
N	 0.7844180704	-2.0721615169	 0.0402046789	-0.169392
O	 1.1073663428	-0.6867836475	 0.0441962777	-0.217735
H	 0.8808878634	 1.7831197622	-0.3500333872	 0.265054
H	-0.8039626096	 1.8323263772	-0.1848721852	 0.268265
H	-2.9474402589	-0.5231652885	 0.8711202512	 0.243444
H	-2.9993305198	-0.8136754938	-0.7357534321	 0.241544
H	-1.018844829	-3.0647348285	 0.038481373	 0.119653
