19
gdb 84566	3.04749	1.65832	1.28058	2.0764	79.59	-0.2317	0.0063	0.238	1022.5199	0.160924	-385.835658	-385.828583	-385.827639	-385.866863	29.246	
C	-0.1659060238	 1.5803184783	-0.0348411289	-0.390168
C	 0.0011025418	 0.0488326834	-0.0450071249	-0.074961
C	 0.6943549336	-0.4286347468	-1.2964243982	-0.086653
C	 1.8118000271	-1.1479151971	-1.2057876225	-0.091741
C	 2.357072116	-1.487928067	 0.1484720417	-0.047689
C	 1.3354228422	-1.8783189405	 1.2583150279	 0.018925
O	 2.292193304	-1.4291284657	 2.287088131	-0.317361
C	 2.3094526883	-0.3843639761	 1.2461630136	 0.034353
C	 0.7520339721	-0.4370033437	 1.1966189086	 0.000024
H	 0.8084886366	 2.0796542216	-0.0411386784	 0.120046
H	-0.7218603753	 1.9206899769	-0.9143071358	 0.114961
H	-0.7109002386	 1.9081845432	 0.8563898868	 0.116543
H	-1.0097023817	-0.3879062282	-0.018889019	 0.086873
H	 0.2616104374	-0.1581052642	-2.2558669931	 0.09083
H	 2.3374912093	-1.502593659	-2.0869365558	 0.092642
H	 3.2703828026	-2.0831687471	 0.1573722792	 0.077346
H	 0.8259844012	-2.830076223	 1.416052103	 0.088862
H	 2.976546375	 0.466567986	 1.3901108171	 0.090231
H	 0.2862523024	-0.1247615011	 2.1346887978	 0.076937
