16
gdb 65832	3.24205	1.16194	1.1176	3.3882	69.46	-0.2672	0.0116	0.2788	1129.0783	0.125673	-434.130717	-434.12239	-434.121446	-434.163531	31.184	
C	 0.0858730292	 1.4748602383	 0.0651648353	-0.423948
C	-0.0669988364	-0.0568555778	-0.0107005652	 0.111597
C	 0.7238198743	-0.6653219205	-1.2157171653	-0.191773
N	 2.0075310085	-0.9412312129	-0.5985510698	-0.350471
C	 1.8762496863	-1.1433874571	 0.7700279251	 0.439671
O	 2.7131782527	-1.564556846	 1.5300716637	-0.394666
N	 0.5788034108	-0.7498039688	 1.0982573428	-0.354308
C	-1.4960827587	-0.4075155524	-0.0921364682	 0.275218
N	-2.6227550369	-0.6527030373	-0.160360161	-0.330311
H	 1.1481718452	 1.7312926057	 0.048139666	 0.147696
H	-0.4134003357	 1.9570276378	-0.7797979601	 0.141969
H	-0.3576115026	 1.858652635	 0.9879399323	 0.138416
H	 0.2229785761	-1.5697132627	-1.5830249043	 0.134246
H	 0.8013700313	 0.0535948931	-2.0351772691	 0.131886
H	 2.7019175789	-1.4934274728	-1.0765402873	 0.262968
H	 0.406965747	-0.4611658616	 2.049332895	 0.26181
