23
gdb 100087	2.28997	1.17463	0.97402	1.878	82.52	-0.2588	0.0195	0.2783	1379.119	0.201599	-425.484458	-425.473086	-425.472142	-425.5211	40.959	
C	-0.1428634317	 1.6365194412	-0.1307799888	-0.396215
C	-0.1080086683	 0.1091096931	-0.0300258169	-0.17975
C	-1.4751256684	-0.5847218072	 0.1213560294	 0.371497
C	-1.281004349	-2.1046586872	 0.1479919428	-0.42719
C	-2.2382277865	-0.0934340355	 1.3563193598	-0.426401
O	-2.183779994	-0.1971508853	-1.1064674069	-0.292324
C	-3.4350422291	-0.6172028554	-1.3662163812	 0.434908
C	-3.9014954243	-0.0596255532	-2.6938318284	-0.470412
O	-4.0985490273	-1.3314097149	-0.6545816068	-0.363051
H	 0.8620491088	 2.0267063902	-0.3183328498	 0.112189
H	-0.7887948939	 1.9580572169	-0.9518826928	 0.126801
H	-0.5073176819	 2.1008793659	 0.7902523651	 0.117024
H	 0.3727077416	-0.3013729686	-0.9256470901	 0.10002
H	 0.5106308505	-0.1950304343	 0.8226619404	 0.096641
H	-0.6568088253	-2.3795048214	 1.0041584516	 0.113384
H	-2.2366862321	-2.621816271	 0.2318866322	 0.15008
H	-0.7740949098	-2.4407567466	-0.7618839639	 0.113746
H	-2.4750045959	 0.9704516955	 1.2752178166	 0.118842
H	-3.1682843491	-0.6465859496	 1.483156738	 0.150857
H	-1.6176634667	-0.2359575064	 2.2470346756	 0.112235
H	-4.9009363808	-0.4339659745	-2.9122846986	 0.144904
H	-3.9141461998	 1.0335567549	-2.6568560347	 0.14643
H	-3.209290147	-0.3491817764	-3.4891917028	 0.145784
