17
gdb 41210	2.99003	1.77172	1.57608	1.0012	68.72	-0.2458	0.0194	0.2652	900.1683	0.13659	-458.808679	-458.801909	-458.800965	-458.839555	27.564	
C	 0.0148051565	 1.5807369382	 0.1088643958	-0.206297
O	 1.497072276	 1.4927308114	 0.0054473408	-0.318913
C	 1.2256637867	 0.3062211028	-0.8602828312	 0.124554
C	 1.2258621823	-1.2530014861	-1.1170213133	-0.033925
C	 1.6608618587	-2.1363873853	 0.0251901013	-0.06759
O	 1.4049315191	-1.5095727175	 1.2652776803	-0.255311
C	 0.2558003917	-0.6736604367	 1.2604319487	-0.085063
C	 0.0283370077	 0.0228625389	-0.0834823135	 0.309325
O	-0.2682109154	-1.0938073925	-1.0465416901	-0.365147
H	-0.2915416953	 1.9888647396	 1.0751200258	 0.125412
H	-0.4058189924	 2.150532451	-0.7258974217	 0.123077
H	 0.9774775272	 0.7264463051	-1.841105099	 0.105418
H	 1.5416476401	-1.6054743839	-2.1012570647	 0.100998
H	 1.1323566073	-3.0994535261	-0.0595045045	 0.10616
H	 2.7389341255	-2.3283661969	-0.019979925	 0.11762
H	-0.656141927	-1.2549159528	 1.4736667311	 0.102106
H	 0.4141194113	 0.0442373908	 2.0678301793	 0.117578
