21
gdb 119385	2.89757	1.09909	0.95549	1.2918	80.03	-0.2346	0.0723	0.3069	1347.3712	0.180576	-424.148642	-424.139251	-424.138306	-424.183376	34.648	
C	 0.5885433034	 1.3638042932	-0.3593095239	-0.218448
O	 0.875221991	-0.0141165429	-0.4082742692	-0.238599
C	-0.1882699715	-0.7759917322	-0.9330200149	-0.216131
C	 0.2385055329	-2.2151370839	-0.9273466322	 0.406859
C	 0.531070238	-3.1584330068	 0.2644539502	-0.255842
C	 0.4741845964	-3.9834645228	-1.0398283285	 0.029353
O	-0.7354613265	-3.2144320854	-1.4352185731	-0.355906
C	 1.3629004812	-2.9224520356	-1.7466126904	 0.011085
C	 1.3462686661	-2.8258037975	-3.2593068365	-0.436079
H	 0.3834387469	 1.7738787569	-1.360739898	 0.106385
H	-0.280595361	 1.5770198508	 0.2826900955	 0.106882
H	 1.4663581579	 1.8649146309	 0.055411087	 0.128836
H	-1.1034702836	-0.6588467795	-0.3287643494	 0.099554
H	-0.4317522593	-0.4664540336	-1.9635491766	 0.099416
H	 1.490424498	-3.0581703114	 0.7764399999	 0.100219
H	-0.3088864772	-3.3130742561	 0.9426167016	 0.102227
H	 0.4406377364	-5.0647293941	-1.1761959896	 0.091423
H	 2.3674294269	-2.8114654567	-1.326962118	 0.074153
H	 0.3288500961	-2.9438719059	-3.6385261683	 0.134472
H	 1.7352026149	-1.8572467699	-3.5920486549	 0.116841
H	 1.976743543	-3.6018342675	-3.7067525106	 0.113302
