21
gdb 110695	2.46544	1.32834	1.15538	1.7973	82.92	-0.2299	0.0122	0.2421	1186.8759	0.183388	-387.08037	-387.071597	-387.070653	-387.113657	34.065	
C	-0.0839527057	 0.7142087298	-1.0220895291	-0.401167
C	 0.5785832427	-0.6267867045	-0.6705816769	-0.023236
C	 1.7440666204	-1.0274760508	-1.5591047402	-0.081749
C	 2.7927248522	-1.4619891174	-0.8559414556	-0.091309
C	 2.5589252842	-1.355936444	 0.6142675239	-0.122054
C	 2.3805759909	 0.0535238973	 1.1790937748	-0.031132
C	 2.951044547	 1.2912094501	 0.5278018103	-0.091615
O	 4.2989704532	 1.5120251618	 0.9295427783	-0.423354
C	 1.1704776298	-0.7421759916	 0.7414186833	-0.097822
H	 0.626180522	 1.5443373674	-0.9843298648	 0.1261
H	-0.5081541138	 0.6829898618	-2.0314935228	 0.112096
H	-0.8992442931	 0.9372894853	-0.326615307	 0.116214
H	-0.2025040292	-1.3977360824	-0.7639332247	 0.084774
H	 1.6961299696	-0.9563079217	-2.6407574552	 0.091825
H	 3.7237938146	-1.8233809828	-1.2796077682	 0.091658
H	 2.9168663936	-2.1371584387	 1.2765737233	 0.085924
H	 2.4882088259	 0.0924500663	 2.2612940202	 0.092631
H	 2.8689928303	 1.2379029437	-0.5649816925	 0.092568
H	 2.3996426521	 2.1780276722	 0.8585499319	 0.107265
H	 4.7976261656	 0.7270911438	 0.6794672839	 0.278911
H	 0.501143058	-1.0629887658	 1.5318826873	 0.083473
