18
gdb 12234	3.11673	1.5052	1.18059	2.8232	68.3	-0.2364	-0.015	0.2214	1048.2188	0.15202	-384.945209	-384.936473	-384.935529	-384.978668	31.582	
C	-0.5445175795	 1.4176262994	 0.1242929896	-0.415677
C	 0.026877185	 0.0090117738	 0.021520912	-0.104713
C	 0.6282114629	-0.5805537033	-1.3056019046	-0.01864
C	 1.0879957731	 0.456324059	-2.3158948853	-0.083597
O	 1.7956551647	-0.231487033	-3.3364429119	-0.420554
C	 1.8121160861	-1.1930861947	-0.4937606203	-0.340598
C	 1.3837943617	-0.2999861377	 0.6801560063	 0.38508
O	 1.9271943821	 0.105956826	 1.667021053	-0.300036
H	 0.1462685844	 2.16789318	-0.2714167326	 0.123354
H	-1.4921616288	 1.5077483989	-0.4159064857	 0.119806
H	-0.7286846759	 1.6654521584	 1.1738454142	 0.136472
H	-0.6981904559	-0.7127919637	 0.4210528091	 0.105704
H	-0.0078703631	-1.3099107354	-1.8109785726	 0.082173
H	 0.2191759726	 0.9959282433	-2.7243845934	 0.090871
H	 1.7333595777	 1.2022802952	-1.8220799102	 0.088813
H	 2.1233505596	 0.4169667498	-3.9665007904	 0.288441
H	 1.6828664826	-2.2552317053	-0.2632867031	 0.127448
H	 2.8187205907	-1.0419412707	-0.890006684	 0.135653
