17
gdb 34367	2.67255	1.68773	1.3123	2.4039	78.79	-0.2291	0.0115	0.2406	1003.1222	0.137043	-380.822447	-380.814793	-380.813848	-380.854579	29.707	
C	 0.002805376	-1.1449973556	-0.3566286182	-0.41561
C	 0.0057672732	 0.0372798535	-0.1381016109	 0.27504
C	-0.0389295013	 1.4628983719	 0.1259700332	 0.109584
C	-0.4037219748	 2.3433268006	-1.1154613615	-0.291314
C	 1.0734491119	 2.8128003936	-1.1372099736	-0.172702
N	 1.3175555795	 2.1352254915	 0.1788493532	-0.12497
C	 1.2347838286	 2.9440815168	 1.3219984077	 0.03263
N	 0.2371630407	 2.8166846103	 2.1041448884	-0.228513
C	-0.6673195904	 1.8247316543	 1.507777157	-0.231277
H	 0.0126259489	-2.1900309534	-0.54585477	 0.197056
H	-0.7585436935	 1.8033534177	-1.9933863921	 0.121424
H	-1.1090034527	 3.1388109451	-0.8640045746	 0.119773
H	 1.6755715868	 2.361065051	-1.9291563106	 0.125107
H	 1.2481303601	 3.8917915569	-1.1226671524	 0.11683
H	 2.0453679923	 3.6439932307	 1.5117638317	 0.125009
H	-1.6773838133	 2.2401876058	 1.4142715836	 0.114263
H	-0.7323585418	 0.9406643692	 2.1494667791	 0.127671
