21
gdb 122290	4.82166	0.74932	0.72995	1.5366	80.4	-0.2341	0.0934	0.3275	1638.3588	0.18116	-424.148035	-424.138818	-424.137874	-424.183013	33.777	
C	-0.0226105628	 1.3433569513	 0.1154088715	-0.228932
O	-0.0315833715	-0.0614280775	 0.0419435926	-0.230717
C	-1.3353359619	-0.5987572324	-0.0046117437	-0.054228
C	-1.2177903676	-2.1185496296	-0.0523665607	-0.354815
C	-2.5511626642	-2.8028307542	-0.0856775141	 0.430018
C	-3.7512042621	-2.6371514084	-1.0651129034	-0.256635
C	-4.1932462058	-3.4940694459	 0.140070068	 0.053673
C	-2.8879696842	-4.3135637719	 0.0376041303	-0.264968
O	-3.4998746902	-2.5470240439	 1.0415704644	-0.348245
H	 1.0217132409	 1.6634481509	 0.1499631072	 0.125723
H	-0.5058491159	 1.8027421997	-0.7620283201	 0.101572
H	-0.5370808498	 1.7095263642	 1.0181138295	 0.105192
H	-1.9180550118	-0.2947587429	 0.8790923578	 0.109671
H	-1.873967344	-0.2254738857	-0.8926690222	 0.085124
H	-0.6416853431	-2.4128142224	-0.9374017285	 0.114317
H	-0.6594125071	-2.4616572561	 0.8257825938	 0.120988
H	-4.1878422971	-1.6384668219	-1.1068078428	 0.105439
H	-3.6828983986	-3.1163145202	-2.0455015912	 0.093433
H	-5.1929907172	-3.8169298333	 0.429077722	 0.094499
H	-2.740687378	-4.9477966659	-0.8406700388	 0.092947
H	-2.5608053179	-4.783220784	 0.9663160983	 0.105944
