12
gdb 131403	3.54988	1.14364	0.88122	4.5363	58.55	-0.2483	-0.023	0.2253	1188.21	0.077831	-505.952682	-505.944929	-505.943985	-505.98576	27.061	
O	 0.2299232341	 1.3107474457	 0.1202612832	-0.416341
C	 0.0730429639	-0.0188124482	 0.0677719291	 0.297854
N	 0.1777004416	-0.7468529326	-1.0357251253	-0.287039
N	-0.0493640242	-1.9899605047	-0.601903779	-0.089349
N	-0.3073039797	-2.1257812666	 0.6906179166	-0.264571
C	-0.2277795799	-0.8801063397	 1.1432651519	 0.321674
O	-0.4510345108	-0.5240359892	 2.4348186748	-0.216871
C	 0.1054129093	-1.3047950804	 3.4189932856	 0.167233
O	-0.125757509	-1.1088922447	 4.5673861607	-0.247543
H	 0.4178724094	 1.6241479016	-0.7733728312	 0.315583
H	-0.0435731976	-2.7778830747	-1.2267110539	 0.302326
H	 0.759723213	-2.0882729167	 3.0054531075	 0.117045
