17
gdb 65841	3.41305	1.10572	1.08659	3.8807	73.97	-0.265	0.0071	0.272	1171.8441	0.134804	-421.84285	-421.834272	-421.833327	-421.875939	32.434	
C	 0.1198008186	 1.455345344	 0.0972899491	-0.433784
C	-0.0640656633	-0.0756193387	 0.0212414492	 0.053138
C	 0.7705402197	-0.6615863592	-1.1545521976	-0.103317
O	 2.0899720345	-0.8637575935	-0.6357459072	-0.217306
C	 2.0663985534	-0.9752334033	 0.7241602452	 0.42205
O	 3.0480997053	-1.2040420273	 1.3650587441	-0.329343
C	 0.6371526794	-0.7683077461	 1.2123556106	-0.386483
C	-1.4755349576	-0.4180189246	-0.1044404817	 0.269789
C	-2.6392224383	-0.6961067094	-0.2194720136	-0.427295
H	 1.1831501649	 1.7100625106	 0.1482598237	 0.135402
H	-0.3109802775	 1.9382467461	-0.78364286	 0.132229
H	-0.3760248297	 1.8570596885	 0.9846424728	 0.134094
H	 0.3623733512	-1.619759871	-1.4922992447	 0.125463
H	 0.8401365439	 0.0206152017	-2.004104241	 0.131266
H	 0.6239956815	-0.1912588885	 2.1376596841	 0.145512
H	 0.1973069038	-1.7492277179	 1.4193120155	 0.148214
H	-3.6678574896	-0.9422516114	-0.3174434084	 0.200372
