17
gdb 36259	5.37259	0.96752	0.9397	4.1154	76.82	-0.2457	0.0315	0.2772	1251.3152	0.13714	-380.78098	-380.773685	-380.772741	-380.81336	27.942	
N	-0.0071247538	-1.162793404	-0.3037481717	-0.30504
C	-0.0310067813	-0.0371374313	-0.0438551826	 0.263176
C	-0.0357191048	 1.390216185	 0.2761218896	-0.382062
C	 1.353283627	 2.0184652722	 0.1384323314	-0.00063
C	 1.9145486231	 2.3160599646	-1.2575539505	-0.007026
C	 1.0617159245	 3.607627606	-1.4671932375	-0.078818
C	 2.3420585313	 4.3807294036	-1.7568563836	-0.18394
N	 2.8379944507	 3.4231776898	-0.6763399188	-0.159718
C	 1.4657086541	 3.5457519731	 0.0400969375	-0.035278
H	-0.7542203066	 1.8904959719	-0.3832931027	 0.151554
H	-0.4062371664	 1.5150148626	 1.3003529489	 0.156219
H	 2.0753362618	 1.5567316824	 0.8184583749	 0.106722
H	 2.2870044644	 1.6291767753	-2.0187525783	 0.099235
H	 0.0619535494	 3.7027959106	-1.9034985454	 0.072924
H	 2.828375974	 4.2313923929	-2.7260217879	 0.108298
H	 2.3900405561	 5.4335375856	-1.4605700446	 0.105785
H	 1.3102531563	 4.3079775097	 0.8061986713	 0.088598
