17
gdb 92945	2.30466	1.53407	1.24972	4.2026	74.21	-0.2668	-0.0182	0.2487	1063.6829	0.136729	-418.020383	-418.011691	-418.010747	-418.053972	32.425	
N	-0.2689843422	 1.3263493454	 0.3782590455	-0.562015
C	-0.0051925168	-0.0741747821	-0.0187364114	 0.088809
C	 0.7734786401	-0.8075638177	 1.0554249591	-0.103767
C	-0.0106114852	-1.5951010211	 1.7879517853	-0.069005
C	-1.444440529	-1.5678368939	 1.3389846875	-0.300866
C	-1.3834086848	-0.8578288153	-0.041601221	 0.118169
O	-2.4676771604	-0.0244143211	-0.3316733465	-0.431372
C	 0.6777616984	-0.1360799696	-1.3216452606	 0.233277
N	 1.2122506163	-0.1607392471	-2.3471556554	-0.345804
H	 0.504169286	 1.6889055864	 0.9261054723	 0.245299
H	-0.3595346304	 1.9163588714	-0.4436561347	 0.25443
H	 1.8375201888	-0.6507062647	 1.1885266951	 0.117049
H	 0.3326104472	-2.1869349497	 2.6295592784	 0.112575
H	-1.8914157798	-2.5644631458	 1.2639944419	 0.119932
H	-2.071799547	-0.9957847607	 2.0344362712	 0.121269
H	-1.3428564695	-1.6094116943	-0.8342671352	 0.116936
H	-2.3402986216	 0.7633112099	 0.2185240587	 0.285086
