18
gdb 30658	3.94975	1.02954	0.87211	2.5089	74.1	-0.2466	-0.0025	0.2441	1339.9964	0.147612	-439.121144	-439.112262	-439.111318	-439.155587	32.075	
C	 0.0114126634	 1.5592945263	 0.0926870785	-0.389184
C	-0.0116479617	 0.0325094537	 0.176357036	-0.176592
C	-1.4099540763	-0.5396426158	-0.1278179395	 0.031107
O	-1.8474489214	-0.1635683686	-1.41693928	-0.43761
C	-1.4282090428	-2.03460593	-0.0169413899	 0.388991
N	-1.6373316596	-2.8654800566	-0.9884778295	-0.331999
C	-1.5337206081	-4.1232906895	-0.4028264325	-0.110358
C	-1.2626305624	-3.971059092	 0.9120392714	-0.046246
O	-1.1914726115	-2.6266971823	 1.1745388131	-0.178788
H	 1.0186778157	 1.9459555238	 0.2727936896	 0.111266
H	-0.3149290997	 1.89116943	-0.8959488784	 0.140635
H	-0.6572766216	 2.0063244774	 0.836983034	 0.113001
H	 0.6949735536	-0.3984511249	-0.5430726698	 0.103321
H	 0.2944802273	-0.30503837	 1.1736859984	 0.104035
H	-2.1156865702	-0.1298520449	 0.6126226416	 0.09708
H	-1.8868442125	-0.9711822033	-1.9479491284	 0.29868
H	-1.6635143749	-5.0303119608	-0.9707226836	 0.131762
H	-1.1038761676	-4.6333994525	 1.7449394589	 0.150898
