13
gdb 132414	2.94947	1.34205	0.92236	5.3096	70.32	-0.2605	-0.0823	0.1782	1140.4308	0.089637	-460.781784	-460.774798	-460.773854	-460.813694	25.778	
F	 0.0215737619	 0.0452160936	 0.0031494631	-0.065895
C	-0.006346498	 1.3726718314	 0.0108350278	 0.340281
N	-1.185951623	 1.9323043269	 0.0299470936	-0.340726
C	-1.2212801511	 3.2768061094	 0.0376626406	 0.225363
C	-2.5610775474	 3.9401484064	 0.0595633993	 0.109545
O	-3.6173647831	 3.3658965318	 0.0709325375	-0.238085
C	-0.0752453397	 4.0658551331	 0.0262587408	-0.166888
C	 1.1705498949	 3.4352340143	 0.0058137189	-0.060832
C	 1.2179544168	 2.0520341632	-0.002292142	-0.255312
H	-2.5002852218	 5.0522572596	 0.0647457837	 0.074846
H	-0.1583580076	 5.1469592203	 0.0332192268	 0.118841
H	 2.0867103335	 4.0154081069	-0.0035974327	 0.127698
H	 2.1477856346	 1.4975773131	-0.0180278175	 0.131165
