23
gdb 60464	5.03103	0.52765	0.51213	2.8268	83.4	-0.26	0.0714	0.3314	2205.1191	0.2034	-425.40887	-425.398141	-425.397196	-425.445862	38.493	
C	 0.008384203	 1.5448214184	-0.0420042973	-0.40249
C	-0.0239382259	 0.0164387157	-0.05910379	 0.13609
O	 0.8297709903	-0.5271306959	 0.9478716247	-0.427699
C	-1.4497250338	-0.5404137077	 0.0534165556	-0.196283
C	-1.5137143119	-2.0666031466	-0.0489401738	-0.170226
C	-2.9240638321	-2.6308357921	 0.1647131317	-0.226188
C	-2.9659238909	-4.1342608332	 0.0432318558	 0.1016
C	-4.1115375325	-4.8520787618	-0.5275106294	-0.182093
O	-2.9131576694	-4.6704077708	-1.2837288754	-0.236907
H	 1.0394191718	 1.9038620365	-0.1005325617	 0.123632
H	-0.5551185336	 1.9640974523	-0.8818934788	 0.115835
H	-0.4371568424	 1.9329363277	 0.8831079706	 0.103969
H	 0.4165847514	-0.3380135547	-0.9999117533	 0.089746
H	 0.5204452177	-0.1952481132	 1.7984638598	 0.27393
H	-1.8779591414	-0.2118470299	 1.013583697	 0.0784
H	-2.0730489035	-0.0849459886	-0.7276463294	 0.094477
H	-1.1528319665	-2.383905902	-1.0353360718	 0.111835
H	-0.8233387462	-2.4977813107	 0.6850843421	 0.108014
H	-3.2927936565	-2.3466657687	 1.1603466427	 0.094896
H	-3.6180942071	-2.1991367467	-0.5670078613	 0.099082
H	-2.3379781957	-4.675533949	 0.7547761387	 0.088986
H	-4.3223181203	-5.8759470691	-0.2207899571	 0.111819
H	-4.9753292543	-4.28802114	-0.8784561293	 0.109575
