20
gdb 76974	2.29481	1.21564	0.9215	3.0943	82.67	-0.2348	-0.0284	0.2065	1331.8557	0.168961	-403.108272	-403.098869	-403.097925	-403.143118	34.505	
C	 0.0018487804	 0.7418201305	-2.2571682364	-0.421055
C	 0.1049917688	-0.243437689	-1.1114166849	-0.003217
C	 1.3966732393	-0.5542524427	-0.3761641323	-0.123745
C	 2.6611453967	 0.1396326588	-0.7241004524	 0.160487
O	 3.7296719947	-0.4235627845	-0.7569037002	-0.268652
N	 0.2643407364	 0.1354113702	 0.2738003205	-0.106489
C	 0.351215945	 1.5148304982	 0.6766609472	 0.063084
C	-0.7382635136	 1.9969407655	 1.5993916923	-0.271918
C	 0.6564462718	 1.7654672069	 2.1282219755	-0.273203
H	 0.7004550184	 1.5763586591	-2.1849923608	 0.126555
H	 0.1946297892	 0.2283498386	-3.2041588862	 0.134429
H	-1.0113181368	 1.1550737361	-2.3034039178	 0.133988
H	-0.5509152248	-1.10541739	-1.236269708	 0.105111
H	 1.5630314232	-1.5735820679	-0.0352380288	 0.109151
H	 2.5851998718	 1.2237698278	-0.95058425	 0.071294
H	 0.733749356	 2.2448986294	-0.0335093293	 0.0838
H	-1.0912723513	 3.0156628524	 1.485245353	 0.113158
H	-1.4977255144	 1.2729489903	 1.8697569559	 0.12417
H	 0.8136750709	 0.8914670042	 2.7491697221	 0.126782
H	 1.2695010482	 2.6229850362	 2.3808219006	 0.11627
