17
gdb 65645	3.11388	1.32611	1.28985	1.8847	68.33	-0.2457	-0.0362	0.2095	1049.955	0.133695	-458.92605	-458.917694	-458.91675	-458.959489	30.536	
C	 0.3240117233	 1.4804701544	-0.2070264376	-0.453194
C	 0.0720429786	-0.0084827582	-0.0596332539	 0.288435
O	 0.9410878493	-0.8355800139	-0.8999959539	-0.348168
C	 1.3835319788	-1.6082435641	 0.2333189057	 0.062554
C	 2.6243680362	-1.019244757	 0.9176459019	-0.099572
O	 1.7953771709	-0.1578558639	 1.7461435221	-0.29154
C	 0.589176492	-0.7232708339	 1.2124193278	 0.020064
C	-1.369572134	-0.3587073232	-0.3945877276	 0.121456
O	-2.2582019442	-0.4084506818	 0.4158512253	-0.253873
H	 1.3347345758	 1.7160906733	 0.1324727666	 0.146102
H	 0.2145668707	 1.7830401153	-1.2529569937	 0.131746
H	-0.3920946807	 2.0450344439	 0.398149545	 0.141155
H	 1.2992937434	-2.6845091075	 0.0795393666	 0.098731
H	 3.1920684819	-1.7254978082	 1.5353302074	 0.11234
H	 3.2990691113	-0.4604873543	 0.2614564643	 0.118815
H	-0.1371680937	-1.0151637643	 1.9702832154	 0.109501
H	-1.5291961495	-0.5819166466	-1.4732628414	 0.095447
