23
gdb 113816	3.91056	0.79287	0.71258	1.7035	87.85	-0.2504	0.0865	0.3369	1695.1529	0.204128	-388.266014	-388.255811	-388.254867	-388.302156	37.383	
C	-0.0198697226	 1.6031544669	-0.1771615703	-0.375769
C	-0.0097140554	 0.117838889	 0.2032095954	-0.194412
C	-1.3802314321	-0.5172772175	 0.0761278347	 0.017865
C	-1.8567076864	-1.1008690839	-1.2291526485	-0.306351
C	-1.5993714502	-2.0129928503	-0.0470689528	-0.053863
C	-0.4589708217	-2.971897641	-0.0906816274	 0.063636
O	-0.0554810107	-3.5880805453	 1.1434723152	-0.27202
C	-0.5803294108	-4.4278818478	 0.1092476211	 0.06699
C	-1.8666081885	-5.1607257578	 0.3927766128	-0.418716
H	 0.9759365069	 2.0456796525	-0.0756292276	 0.110731
H	-0.3480657671	 1.742140317	-1.2126912845	 0.116541
H	-0.7032029878	 2.1703641406	 0.4645631831	 0.113758
H	 0.7113902986	-0.4110280406	-0.4302494888	 0.094895
H	 0.3503973968	 0.0030987613	 1.2334151421	 0.107819
H	-2.1438944114	-0.008801807	 0.6612831377	 0.082633
H	-2.8808120135	-0.9428461629	-1.5483995255	 0.110927
H	-1.1406650509	-1.1374069289	-2.0456818226	 0.109459
H	-2.4782239577	-2.3883035393	 0.465769467	 0.083766
H	 0.3836495814	-2.6432938978	-0.7020887929	 0.081701
H	 0.1818519243	-5.0444656312	-0.3744954003	 0.082558
H	-2.6030967263	-4.5195352702	 0.8807411883	 0.128646
H	-2.2988911551	-5.5474998088	-0.5366084219	 0.121034
H	-1.6745777897	-6.0137179371	 1.0522250156	 0.128173
