17
gdb 74210	2.36592	1.60851	1.00657	5.1773	80.63	-0.2108	-0.0403	0.1705	1146.7543	0.138645	-418.051988	-418.043947	-418.043003	-418.084428	31.366	
N	 0.0939317643	 1.361679719	 0.1444177627	-0.562365
C	-0.0051834977	-0.0206622728	 0.0272835193	 0.316098
C	-1.1833139055	-0.6525957021	 0.2767215345	-0.285741
C	-1.602080673	-2.0281396928	-0.036670933	 0.369859
O	-2.7831308452	-2.3098856661	-0.1929660656	-0.394976
N	-0.6299616812	-3.0005552863	-0.1577376881	-0.31989
C	 0.6932372868	-2.901880403	 0.4369187932	-0.241875
C	 1.5674819213	-1.9235140086	-0.3050216145	-0.061843
C	 1.2226381233	-0.6451353012	-0.4773652254	-0.09818
H	 0.9991298047	 1.7191595864	 0.411435808	 0.250957
H	-0.6642316127	 1.8155979651	 0.6323076266	 0.254826
H	-2.0239657747	-0.0466019689	 0.6031358783	 0.090804
H	-1.0172829603	-3.9212331582	-0.3015496973	 0.24196
H	 0.6236422239	-2.5972232511	 1.4938863468	 0.120336
H	 1.1412994805	-3.8975508377	 0.4175918775	 0.114808
H	 2.5061865249	-2.281554338	-0.716997366	 0.105371
H	 1.8921742605	 0.0225036264	-1.0145500972	 0.099851
