20
gdb 10070	3.11855	1.18454	0.92508	1.8292	77.21	-0.2595	0.0521	0.3116	1276.2163	0.174142	-348.9701	-348.959972	-348.959028	-349.005552	36.024	
C	 0.3621416337	 1.4171166395	-0.1645886746	-0.384076
C	 0.0870121457	-0.0905251166	-0.1433249039	-0.169763
C	-1.3888337051	-0.4937336961	 0.043135814	 0.032149
C	-2.2475900864	-0.2856855888	-1.2079751306	-0.081804
O	-2.3713694122	 1.102672035	-1.4784592389	-0.417468
C	-1.5052221852	-1.9821843978	 0.4659158932	-0.372425
C	-0.9037309515	-2.2743227126	 1.7609522495	 0.29972
C	-0.4144733339	-2.5015006723	 2.8354163105	-0.43899
H	 1.4356408139	 1.6080823078	-0.2658334648	 0.100772
H	-0.1612290236	 1.9086063437	-0.9854138482	 0.135033
H	 0.0298018009	 1.885742089	 0.7685343013	 0.110772
H	 0.4592814373	-0.5497452532	-1.0705443676	 0.084612
H	 0.6636855813	-0.5422278768	 0.6717413482	 0.109725
H	-1.8258340192	 0.1161168998	 0.8442468982	 0.093163
H	-1.7859686803	-0.8171294328	-2.0578493604	 0.083943
H	-3.2409583763	-0.735071812	-1.0446800271	 0.081824
H	-2.8811290741	 1.206232019	-2.287193598	 0.286657
H	-2.5636306449	-2.2716881461	 0.494128303	 0.125502
H	-1.0376704336	-2.6146127152	-0.3018675247	 0.127122
H	 0.0172006934	-2.7100549935	 3.7826688707	 0.193531
