19
gdb 63474	2.90757	1.22327	1.09601	2.0313	72.65	-0.2397	0.073	0.3127	1188.6524	0.156205	-460.120775	-460.111371	-460.110427	-460.154432	35.913	
C	-0.0444931315	 1.5300548558	 0.0494022074	-0.449979
C	 0.0022907333	 0.0218014923	 0.0241466048	 0.314779
O	-1.1688139343	-0.5969328939	-0.4496009812	-0.462432
C	 1.309137374	-0.7039953791	-0.2493696682	-0.402767
C	 0.7050871104	-0.7376039106	 1.1321276666	 0.363763
O	 1.3960127217	-0.0083340082	 2.1040064807	-0.47244
C	 0.0979198478	-1.9998761651	 1.666292468	 0.01345
C	 0.7679439222	-2.7651098244	 2.7228081621	-0.190489
O	-0.3320184556	-1.8950050558	 3.0356132411	-0.256309
H	 0.8336598777	 1.9377850889	 0.5531075078	 0.138128
H	-0.0810407353	 1.9361740779	-0.9687836977	 0.105655
H	-0.9395594044	 1.8682807543	 0.5812437142	 0.125974
H	-1.2167708183	-0.4490210426	-1.400878263	 0.282966
H	 1.2633861571	-1.6112759641	-0.8427699163	 0.113287
H	 2.2133467842	-0.1155220757	-0.3632440231	 0.124615
H	 0.8323137146	-0.0338265938	 2.890743287	 0.292268
H	-0.6065639927	-2.4975357203	 1.0065870394	 0.116341
H	 0.5594332531	-3.8275755325	 2.83337047	 0.117787
H	 1.7362887559	-2.4291136331	 3.0858778604	 0.125404
