20
gdb 85299	2.43251	1.72589	1.25526	3.9675	79.01	-0.2351	0.0359	0.271	1065.2782	0.173949	-403.190202	-403.182446	-403.181502	-403.222207	31.232	
C	-0.1583809446	 1.5573445003	 0.0091269898	-0.398747
C	 0.0351277476	 0.0380792611	 0.0295128456	 0.043788
N	 0.7541910258	-0.4212237614	-1.159079101	-0.307337
C	 1.8776221974	-1.2087858146	-1.1349053782	 0.395926
O	 2.4339022811	-1.5981191796	-2.1428311818	-0.387996
C	 2.3408575817	-1.5252324791	 0.2804401445	-0.112841
C	 1.1065575508	-1.970257865	 1.1192740367	-0.243156
C	 0.7966956437	-0.455413646	 1.2686661489	-0.009879
C	 2.3243180191	-0.2090429857	 1.1111935685	-0.236458
H	 0.8020285778	 2.0797996582	 0.0441670819	 0.127367
H	-0.6793624597	 1.8716902711	-0.901402925	 0.115568
H	-0.7613400829	 1.8775591402	 0.8649338061	 0.118906
H	-0.9613306468	-0.4314456186	 0.0463885413	 0.082371
H	 0.3978863103	-0.1906945884	-2.0750240484	 0.241247
H	 3.2353416087	-2.1444424621	 0.2440488358	 0.084876
H	 0.3585398405	-2.6065201345	 0.6380075971	 0.104354
H	 1.4105691183	-2.4167824121	 2.0692386181	 0.103514
H	 0.2986252647	-0.1086242151	 2.1765416777	 0.067478
H	 2.8470582066	-0.3327738328	 2.0627758801	 0.104384
H	 2.6648868897	 0.708488374	 0.6257066724	 0.106635
