13
gdb 131936	4.60747	1.06622	0.86585	5.9016	66.	-0.221	-0.0616	0.1593	1205.2104	0.089739	-489.837245	-489.829691	-489.828747	-489.869577	27.892	
O	 0.091227879	 1.3106047495	 0.2045218876	-0.428595
C	 0.0686427675	-0.0204620159	-0.0239995956	 0.444651
C	 0.0800667298	-0.7909178524	-1.1565103669	-0.429333
C	 0.0400974084	-2.1380058931	-0.6856102215	 0.366144
C	 0.0061799676	-2.1508215182	 0.6880261921	-0.119023
N	 0.0243526917	-0.8392082839	 1.0787762732	-0.304015
N	 0.0353580466	-3.311165954	-1.5040041565	 0.333887
O	 0.0683636108	-3.1492685854	-2.7216098134	-0.373581
O	-0.0017133997	-4.4034399196	-0.9396314065	-0.386812
H	 0.1212215193	 1.7706043079	-0.6402034576	 0.317306
H	 0.1119578949	-0.4720901715	-2.1838691531	 0.132911
H	-0.0281476876	-2.9709056711	 1.3822844589	 0.16541
H	 0.0082781815	-0.5020185422	 2.0268857193	 0.281051
