15
gdb 131596	4.48888	1.08786	0.88041	2.5834	70.01	-0.263	-0.0442	0.2188	1237.5918	0.113132	-453.97768	-453.969587	-453.968643	-454.010955	28.88	
O	 0.0400308049	 1.3571179385	 0.009489041	-0.397201
C	-0.0096465049	-0.0458073684	 0.0026783053	-0.197688
C	-1.4728385621	-0.4566585819	 0.01199214	 0.439869
O	-2.4090034657	 0.2952184538	 0.0229141562	-0.294766
N	-1.6795693709	-1.8579189032	 0.0064593457	-0.041246
C	-2.8942083191	-2.4925001797	 0.0128022322	 0.004208
C	-2.6321600684	-3.8352093801	 0.0037954968	-0.24345
C	-1.2134107172	-3.9262852735	-0.0080193965	 0.010713
N	-0.6389597895	-2.7374695654	-0.0064172193	-0.259314
H	 0.9659582319	 1.615631977	-0.0007105967	 0.295984
H	 0.4637210165	-0.4957274531	-0.8827191576	 0.134713
H	 0.4774068447	-0.5046610106	 0.8760255112	 0.134679
H	-3.8053566273	-1.9187623139	 0.0230219834	 0.166338
H	-3.3484593494	-4.6404898195	 0.0053593237	 0.119995
H	-0.6003597336	-4.8162553899	-0.0175252654	 0.127167
