17
gdb 53905	2.18893	1.36103	1.08915	1.0645	72.69	-0.2646	-0.0428	0.2218	1172.0195	0.134288	-418.00689	-417.997416	-417.996471	-418.042645	32.913	
C	 0.6201283139	 0.2063953596	-0.98166237	-0.498357
C	-0.0792239004	 0.0942678553	 0.3511077695	 0.391073
O	 0.3367908	 0.5801227245	 1.3706973367	-0.284743
C	-1.3778605104	-0.7691056717	 0.4172031146	-0.260158
C	-2.2659071868	-0.5382097984	-0.7175424373	 0.267605
N	-2.9462520464	-0.3694433648	-1.6373960009	-0.333514
C	-0.9767432273	-2.2467024004	 0.5391932189	 0.003288
C	-1.9137464904	-3.3466248511	 0.2132560041	-0.255804
N	-0.7343180987	-3.088699011	-0.6364790101	-0.31445
H	 1.5366104396	 0.7847419432	-0.8650840612	 0.153695
H	 0.8566957768	-0.7931241997	-1.3638627051	 0.164854
H	-0.0347536382	 0.6839787807	-1.7176360427	 0.168548
H	-1.8845782635	-0.4648754645	 1.3391045192	 0.155465
H	-0.2593281153	-2.3957683346	 1.3427954646	 0.125098
H	-1.8774631354	-4.2677661254	 0.7868041732	 0.132171
H	-2.893110621	-3.0844541484	-0.1769786098	 0.139275
H	-1.0383579865	-2.6122001434	-1.4842135736	 0.245956
