17
gdb 93461	2.9919	1.44371	1.01488	4.1212	71.99	-0.2579	-0.0018	0.2562	1143.1487	0.137285	-455.20531	-455.196896	-455.195952	-455.238888	30.401	
C	-0.0654165919	 1.4850600025	-0.1057265369	-0.34185
N	 0.0038389083	 0.0321148855	-0.0769896549	-0.151395
C	-1.2400826824	-0.7012351355	 0.1022870212	-0.171261
C	-1.0896630344	-2.1089756815	-0.4630150144	-0.294093
C	 0.1334766509	-2.7513856196	 0.1162166738	 0.403113
N	 0.1825377123	-3.9533762845	 0.4910305516	-0.494779
O	 1.2445325147	-1.9345180614	 0.1899892695	-0.255994
C	 1.2314344816	-0.5580702853	 0.011147759	 0.480927
O	 2.2893621194	 0.0124809721	-0.0388822734	-0.374202
H	 0.9392503802	 1.874984408	-0.2570635807	 0.17711
H	-0.7156123214	 1.8144848635	-0.9236124803	 0.1275
H	-0.4661284812	 1.8793025077	 0.8370518087	 0.128544
H	-1.5278424356	-0.7372492634	 1.1639975428	 0.124082
H	-2.0312529119	-0.1627366562	-0.4282863468	 0.123027
H	-1.9550787474	-2.7336940096	-0.2426680766	 0.145852
H	-0.9742679665	-2.0488865778	-1.5521641801	 0.139629
H	 1.1169360653	-4.1824845643	 0.8365320474	 0.233788
