20
gdb 103672	3.85863	0.8756	0.83177	5.1885	80.27	-0.2737	0.0315	0.3051	1445.9048	0.169903	-403.161413	-403.151885	-403.150941	-403.195738	35.693	
C	-0.0386041279	 1.6305778192	 0.0356873391	-0.412786
C	-0.0339189909	 0.1024177505	 0.1515555068	-0.223971
C	-1.4165121272	-0.5427516723	-0.0029811744	 0.419356
O	-2.3227331794	-0.0943417998	 0.9817076741	-0.480659
C	-1.952943331	-0.5582771451	-1.4730624487	-0.297644
C	-1.4639064718	-2.035754544	-1.5946202677	-0.139294
C	-1.3693191821	-2.0901966321	-0.0374744351	-0.278322
C	-2.3350473001	-2.9883467292	-2.2593439502	 0.270513
N	-3.0410266393	-3.7411211559	-2.7813288494	-0.328071
H	 0.9776475739	 2.0280003792	 0.1062195396	 0.128116
H	-0.4581844418	 1.9655999651	-0.9191180864	 0.123772
H	-0.6159898687	 2.0965260184	 0.8422535205	 0.116408
H	 0.6410327612	-0.317840485	-0.6046219457	 0.099769
H	 0.3667724681	-0.1929368379	 1.1286454642	 0.110638
H	-2.3693261135	 0.866852178	 0.9437734923	 0.279854
H	-3.042555217	-0.4990986903	-1.4796914911	 0.129877
H	-1.5396469464	 0.153391067	-2.1907516308	 0.10939
H	-0.4733435707	-2.087172933	-2.0539574478	 0.122607
H	-0.493037262	-2.5832091686	 0.3878617296	 0.113344
H	-2.2766628035	-2.5037758742	 0.405071331	 0.137102
