21
gdb 89456	2.17326	1.60824	1.42676	2.4427	78.04	-0.2264	0.0657	0.2922	1072.1485	0.181081	-424.207542	-424.19824	-424.197296	-424.241289	36.051	
C	-0.3991462778	 1.4109369487	 0.3133417924	-0.494536
C	 0.0233995696	-0.0112876957	 0.0295523213	 0.297099
C	 1.1376194541	-0.274422705	-1.015858928	-0.277977
C	 1.8419560271	-1.2617795189	-0.0361858231	-0.283715
C	 0.8144873521	-0.9295838167	 1.0667926756	 0.404394
O	 1.3741179874	-0.5111207452	 2.2656076163	-0.480739
C	-0.3957944108	-1.8878658689	 1.1538887354	 0.041885
O	-0.9984742397	-1.6739874077	 2.4239811267	-0.45724
C	-1.0889004957	-1.1071741959	 0.0012104474	-0.321788
H	 0.4694268915	 2.0442164146	 0.5234969095	 0.120368
H	-0.933237617	 1.8469195414	-0.540379441	 0.111376
H	-1.0645186482	 1.4605236886	 1.1826166201	 0.112164
H	 0.8085824387	-0.6867855545	-1.9742164825	 0.090303
H	 1.743134091	 0.6138138545	-1.216364743	 0.099459
H	 1.8738887085	-2.3115101198	-0.3439486853	 0.09346
H	 2.8487183134	-0.9558551424	 0.2543342255	 0.11595
H	 0.6680556001	-0.5575093596	 2.9246140545	 0.291017
H	-0.2001156323	-2.9576329833	 0.9921770115	 0.06076
H	-1.8989260867	-2.0113596072	 2.4030944974	 0.28883
H	-2.0807679271	-0.7422343949	 0.2842328218	 0.093024
H	-1.1745762884	-1.656853252	-0.9407412125	 0.095907
