21
gdb 114763	3.91029	1.08214	0.91915	1.0627	85.02	-0.2319	0.0187	0.2506	1327.3405	0.183651	-387.077894	-387.069376	-387.068432	-387.111168	32.926	
C	-0.192778855	 1.3225939634	 0.0771953795	-0.238729
O	 0.0585052254	-0.0616884513	 0.0375352286	-0.244814
C	 0.7264098862	-0.499093885	-1.1399478908	 0.092342
C	 1.4087833877	-1.8313202987	-0.8005587167	-0.249324
C	 1.973994572	-2.522809308	-2.0400251962	-0.040447
C	 1.2533665199	-3.7057744939	-2.6442541033	-0.287601
C	 1.218851125	-2.3573144204	-3.3378646618	-0.055882
C	-0.0073676929	-1.5216546588	-3.2958119438	-0.083667
C	-0.2337030838	-0.6653157538	-2.299218307	-0.076874
H	 0.7401562776	 1.906315035	 0.0224484713	 0.102823
H	-0.8509610816	 1.6591997681	-0.7382639074	 0.103693
H	-0.6864407109	 1.5352978206	 1.0289365265	 0.125836
H	 1.4977001446	 0.2456437208	-1.4072350807	 0.069731
H	 2.1971144372	-1.6561476162	-0.0624039234	 0.099852
H	 0.6548532585	-2.4576655132	-0.3126707008	 0.112277
H	 3.0566963882	-2.5362781292	-2.1128298081	 0.082778
H	 1.8422115377	-4.4976914156	-3.0952587481	 0.107674
H	 0.3450827655	-4.0400859862	-2.1532498918	 0.114771
H	 1.8041797921	-2.2845778366	-4.2512105826	 0.08845
H	-0.7245229102	-1.6278080531	-4.1070205975	 0.08637
H	-1.1379478731	-0.0635806076	-2.2775786257	 0.090739
