18
gdb 99355	6.10169	0.63006	0.60373	2.4493	76.01	-0.25	0.0478	0.2978	1825.9759	0.145217	-439.093891	-439.083339	-439.082395	-439.131134	35.896	
C	 0.036076889	 1.1167775395	-0.4692052418	-0.233156
O	-0.1328022374	-0.065607666	 0.3160964735	-0.267126
C	-1.3096631104	-0.711483729	 0.1170900903	 0.518309
O	-2.1719646083	-0.3509847539	-0.6543344991	-0.417333
N	-1.3799269959	-1.8112064162	 0.9163754539	-0.360045
C	-2.5006420139	-2.7257802826	 0.8440898802	-0.15883
C	-2.4087613732	-3.7015034258	-0.3532895274	-0.344419
C	-3.5197970097	-4.6422054047	-0.3779260433	 0.292499
C	-4.4501012016	-5.4031094527	-0.3578394837	-0.438134
H	 1.0218686955	 1.5045129264	-0.2103213988	 0.129438
H	-0.0137561928	 0.8867293598	-1.5366497666	 0.138793
H	-0.7354076275	 1.8545851911	-0.2339674724	 0.139524
H	-0.5615166346	-2.0535494362	 1.4490799128	 0.25508
H	-2.5488931	-3.2881933454	 1.7799760377	 0.119211
H	-3.4183099698	-2.1401199507	 0.755034374	 0.149755
H	-2.3921122127	-3.1080717872	-1.2742281982	 0.156609
H	-1.4567947486	-4.2451762847	-0.3054919241	 0.123542
H	-5.2685742781	-6.0793595917	-0.359469217	 0.196283
