23
gdb 59733	2.41916	1.31374	0.90655	2.6413	85.72	-0.2324	-0.0138	0.2186	1357.77	0.205451	-388.339458	-388.329839	-388.328895	-388.374167	36.572	
C	-0.0689092711	 1.5565210037	-0.0150743962	-0.393867
C	 0.0635230794	 0.029139664	-0.1152822109	 0.027497
C	 0.9420776753	-0.3472053206	-1.3182786483	-0.40008
C	 0.5971444413	-0.5810829783	 1.198188996	-0.070208
C	-0.0665248959	-0.1095897794	 2.5083818915	-0.23668
C	 0.2780604292	-1.206836656	 3.5353555785	-0.227581
C	 0.1534743507	-2.5074350517	 2.7310158416	-0.305919
C	 0.4948928217	-2.1175241024	 1.2883493898	 0.394327
O	 0.6382652343	-2.9014499045	 0.38314871	-0.319131
H	 0.9031863838	 2.0210689861	 0.1908638458	 0.109759
H	-0.436388357	 1.9693414761	-0.960288498	 0.111448
H	-0.761250357	 1.8649739271	 0.7733934268	 0.111762
H	-0.9405735956	-0.3866953587	-0.2830359841	 0.073333
H	 1.9492970064	 0.0733822755	-1.2043363177	 0.102005
H	 1.0328922203	-1.4288820763	-1.4190602025	 0.150401
H	 0.5192780914	 0.0598413098	-2.2429114869	 0.103042
H	 1.6761481907	-0.360114926	 1.2666221338	 0.095929
H	 0.2669394327	 0.8812561361	 2.8239635562	 0.105566
H	-1.1551361769	-0.0587581631	 2.3717074832	 0.102195
H	 1.3091901152	-1.0768364281	 3.8844930341	 0.105238
H	-0.3679415444	-1.1799183893	 4.4162246655	 0.102879
H	 0.7811710622	-3.3352071325	 3.0697138408	 0.126787
H	-0.8812103867	-2.8754250415	 2.7273894109	 0.1313
