17
gdb 70831	2.40039	1.69686	1.53545	2.9673	68.2	-0.241	0.0593	0.3003	954.1316	0.13405	-458.881807	-458.873486	-458.872541	-458.913848	32.91	
O	-0.102571675	 1.3120235403	-0.0436897158	-0.474632
C	 0.0226826744	-0.0593452216	-0.0737142924	 0.383312
C	 0.5760021448	-0.9714326328	-1.1963323309	-0.409971
C	 0.0730789434	-1.9254582131	-0.0884080026	 0.348872
O	-0.019359069	-3.3030470358	-0.090179721	-0.483135
C	 0.5402923859	-0.995524976	 1.085984711	-0.202576
C	-0.8429788614	-1.0264566937	 1.7742605885	-0.341595
C	-1.1552520896	-1.0164103682	 0.2591451056	 0.327854
O	-2.3650396916	-0.9817061509	-0.4012700351	-0.477286
H	 0.7754750671	 1.7018531255	-0.1125076499	 0.286056
H	 0.0182897976	-0.9771846064	-2.1363645456	 0.111686
H	 1.6573893625	-0.9403810034	-1.3724508627	 0.079499
H	 0.8659863581	-3.6740996889	-0.168725268	 0.28694
H	 1.5338722467	-0.9717316558	 1.5303845521	 0.07174
H	-1.0924791985	-1.9392548749	 2.3224290248	 0.096358
H	-1.1308530839	-0.133929953	 2.3349331228	 0.106371
H	-2.7898225316	-1.8403865113	-0.2946519908	 0.290507
