14
gdb 14899	3.45202	1.88125	1.66109	3.4549	61.39	-0.2673	-0.0012	0.2661	810.0537	0.109358	-378.741643	-378.734888	-378.733943	-378.772866	24.684	
N	-0.138511388	-1.196920275	-0.1634293318	-0.31423
C	-0.0618131018	-0.0475450337	-0.0778487102	 0.286941
C	 0.004139684	 1.4218449381	 0.0384561395	-0.024434
C	-0.6972417496	 1.9222570167	 1.3087548758	-0.252197
C	 0.1253391723	 1.5014203148	 2.5291983824	-0.164452
N	 1.5499345325	 1.7809389002	 2.3739865783	-0.249949
C	 2.0097397601	 1.9302624762	 1.2110276836	 0.136163
O	 1.3702634195	 1.8461409303	 0.0025711422	-0.227382
H	-0.4564964955	 1.8479704034	-0.8574598327	 0.145804
H	-0.7496022075	 3.0139324533	 1.2457742016	 0.128319
H	-1.7193390751	 1.5362201029	 1.3488963594	 0.131051
H	-0.2280068308	 2.0239844198	 3.4233969571	 0.124125
H	 0.0009745515	 0.4292922663	 2.7271104733	 0.141354
H	 3.0562916085	 2.1705238768	 1.0385559915	 0.138888
