16
gdb 125289	5.13943	1.2785	1.03703	4.2696	78.38	-0.228	-0.0343	0.1937	1114.6608	0.127528	-396.971458	-396.964361	-396.963416	-397.003014	26.872	
C	-0.0195090247	 1.4358055307	 0.0735748661	-0.489634
C	-0.0011905384	-0.0534672115	-0.0227358479	 0.295425
C	-0.0418386272	-0.824128096	-1.1289873852	-0.327723
C	-0.000445558	-2.220789162	-0.7187257429	 0.418642
N	-0.0044877848	-3.4508758102	-1.206244323	-0.370675
C	 0.0617525553	-4.197113682	-0.0614291326	 0.016126
N	 0.1056555807	-3.5191974953	 1.0849855347	-0.277918
N	 0.0642318213	-2.2511211645	 0.6293805855	 0.041419
C	 0.0718896168	-0.9338257404	 1.2241663033	-0.269745
H	 0.8812797344	 1.8163761378	 0.5710343339	 0.13772
H	-0.0772472336	 1.8917292594	-0.9175636724	 0.139512
H	-0.8761711749	 1.7890232525	 0.6609632806	 0.137612
H	-0.096003121	-0.4812216059	-2.1519275325	 0.126833
H	 0.0781970114	-5.2768910475	-0.0698545096	 0.122687
H	 0.984492995	-0.7566171149	 1.8050641023	 0.149859
H	-0.7866700022	-0.7843101603	 1.8891569495	 0.149862
