21
gdb 59617	3.13109	0.99693	0.89237	4.1718	78.87	-0.2304	-0.0067	0.2236	1383.1435	0.181642	-424.266894	-424.257446	-424.256502	-424.301335	35.542	
C	 0.0528998085	 1.568896062	 0.1217296418	-0.414591
C	-0.0050885833	 0.0443223181	 0.0131121431	 0.116233
O	-1.3495381462	-0.4283023478	 0.0876640248	-0.433483
C	 0.5836631565	-0.4902908002	-1.2965157322	 0.02484
C	 0.6311495577	-2.0382186855	-1.3586925392	-0.2387
C	 0.7945981007	-2.3624884015	-2.8492119049	-0.323948
C	 0.1083380221	-1.2044749816	-3.5839070038	 0.397747
O	-0.1425826796	-1.1668385963	-4.7607426827	-0.315995
C	-0.194155656	-0.1009492961	-2.5671407605	-0.330246
H	 1.0853563383	 1.9280623389	 0.0592301938	 0.118515
H	-0.5292523151	 2.0395122523	-0.6759571112	 0.130701
H	-0.3544301473	 1.9045872553	 1.0825665477	 0.105816
H	 0.5828861026	-0.3880925318	 0.8409597468	 0.063523
H	-1.7520083321	-0.065329101	 0.8821387614	 0.284606
H	 1.6096539664	-0.1063659057	-1.3721340592	 0.070886
H	 1.429750059	-2.4517033269	-0.7365262333	 0.095971
H	-0.318462035	-2.4321219792	-0.9838049601	 0.126514
H	 1.8514877361	-2.351928599	-3.1485288801	 0.126299
H	 0.3851763116	-3.3246377101	-3.1661795361	 0.126501
H	-1.2716829157	-0.1246451633	-2.3609998753	 0.148348
H	 0.0401434506	 0.8813463198	-2.9833544307	 0.120463
