23
gdb 68487	2.53566	1.59317	1.21654	1.435	84.17	-0.2497	0.0793	0.3289	1122.2066	0.208815	-388.300639	-388.292613	-388.291668	-388.332332	33.944	
O	-0.0577175167	 1.4508748207	-0.0497912957	-0.481558
C	-0.0173325886	 0.0368879312	 0.0286067514	 0.43561
C	 0.2220498738	-0.564140342	 1.4477663121	-0.290537
C	-0.9375965548	-1.5654965151	 1.1706902823	 0.006087
C	-1.430891777	-0.5882372204	 0.0612233682	-0.269
C	-0.4929791751	-2.9498472738	 0.6752305575	-0.20288
C	 0.7667437394	-2.9854400836	-0.20944409	-0.189572
C	 0.7447789656	-2.0244489539	-1.4070708075	-0.20014
C	 0.9037641376	-0.5318538406	-1.0626436298	-0.268428
H	 0.8491125972	 1.7740472867	-0.0939352936	 0.269997
H	 1.2124402899	-0.9635298996	 1.6847803727	 0.084729
H	-0.0571881112	 0.1738713896	 2.2036175039	 0.098518
H	-1.6418866181	-1.6961311856	 1.9961352574	 0.065889
H	-2.1406593033	 0.1408123763	 0.45936588	 0.104863
H	-1.8350522076	-1.0084021063	-0.8638505078	 0.089667
H	-0.315966614	-3.595601794	 1.5447088553	 0.091561
H	-1.3295177981	-3.4042962365	 0.1263079402	 0.093075
H	 1.6556067753	-2.7808263832	 0.4013422694	 0.095046
H	 0.8922288776	-4.0101880037	-0.5785972835	 0.090642
H	 1.5522106788	-2.2943480362	-2.0977391855	 0.092102
H	-0.1869642021	-2.1722336269	-1.9673453929	 0.099609
H	 0.7271129789	 0.0571690239	-1.9705595899	 0.101123
H	 1.9453678826	-0.3413509569	-0.7612849842	 0.083596
