17
gdb 60987	2.47594	1.1423	0.89812	4.512	73.72	-0.2608	-0.0338	0.227	1296.7883	0.134285	-418.000931	-417.991588	-417.990644	-418.036018	32.732	
C	 0.165119958	 1.3199013689	-0.2801541657	-0.404267
C	 0.1173226136	-0.1605124108	 0.099034537	-0.085592
C	 0.8630769436	-0.4589106938	 1.3934561333	 0.140244
O	 1.4071870566	 0.3725003614	 2.0724664422	-0.232034
C	-1.3116923833	-0.6645338499	 0.2137251692	-0.022841
N	-1.9819015553	-1.0392624801	-1.0296402569	-0.312339
C	-1.704918199	-2.092129736	-0.0329737496	-0.200953
C	-0.7326453772	-3.0936672138	-0.4021225265	 0.333634
N	 0.0535299635	-3.9004528685	-0.6625279709	-0.332995
H	 1.1990319595	 1.6600344723	-0.369846978	 0.137136
H	-0.344367409	 1.4818942682	-1.2334073287	 0.128289
H	-0.3144772035	 1.9364027518	 0.4860103159	 0.12727
H	 0.6042572677	-0.765842565	-0.6789435638	 0.1272
H	 0.8738365848	-1.5339633316	 1.6809080148	 0.095053
H	-1.9093296621	-0.1590539932	 0.9722605145	 0.112036
H	-2.9702013521	-0.802048768	-1.0083178326	 0.251321
H	-2.5313964358	-2.4843327518	 0.5533757557	 0.138837
