12
gdb 48223	2.69828	1.2908	0.92157	2.4422	64.69	-0.2896	-0.1005	0.189	1158.1336	0.07548	-468.830374	-468.821769	-468.820825	-468.864603	28.878	
N	-0.1268150302	 1.2675332387	 0.4343589901	-0.446608
C	 0.0235026996	 0.0577881805	 0.0823352378	 0.263405
C	-1.1571022245	-0.6675343236	-0.3504790841	 0.303782
N	-2.0900940077	-1.2585350931	-0.6906109613	-0.302509
N	 1.2377406587	-0.6730576659	 0.0257670419	-0.192824
C	 1.2357119843	-2.0803842905	 0.2676722111	 0.161505
O	 2.2009821265	-2.7790295489	 0.2195759179	-0.233093
C	 2.4160930156	 0.0378130246	-0.3494784016	 0.154176
O	 3.5287957558	-0.3820803911	-0.2677634035	-0.227244
H	 0.7393772971	 1.6911564051	 0.7687517139	 0.255185
H	 0.2211836637	-2.438521466	 0.5089596131	 0.142781
H	 2.1549532209	 1.0323701402	-0.7538210054	 0.121444
