15
gdb 17303	3.2027	2.51699	1.91266	3.7994	59.98	-0.2356	0.0511	0.2867	730.4868	0.119094	-399.703373	-399.696974	-399.69603	-399.733476	25.712	
O	-0.0924993752	 1.4199855515	-0.0665657403	-0.46918
C	 0.0349234147	 0.0377064591	 0.0066257842	 0.371012
C	-1.294291786	-0.7404715007	 0.0519307234	-0.113187
O	-0.867285124	-1.4773548469	 1.2295089309	-0.283326
C	 0.3885805083	-0.7873242173	 1.2736462302	 0.034732
C	 1.5738445467	-1.4308945786	 0.4962340466	-0.069698
N	 1.0146844268	-2.0852486882	-0.7076328348	-0.315259
C	 1.2409306111	-0.6260388314	-0.7213504879	-0.164851
H	 0.7808949769	 1.8165934192	 0.026895457	 0.2833
H	-2.1490230925	-0.091785097	 0.2747147857	 0.106072
H	-1.5101866256	-1.4022407895	-0.7897787394	 0.119325
H	 0.631717392	-0.3524569467	 2.2468665121	 0.078736
H	 2.5332819295	-1.7392373684	 0.8943256224	 0.09422
H	 1.7932297185	-2.5215182981	-1.200851305	 0.23497
H	 1.8781226589	-0.1597499168	-1.4651923252	 0.093133
