15
gdb 28723	3.80222	1.06206	0.94432	3.4413	69.76	-0.2417	-0.0042	0.2375	1246.0748	0.112578	-454.005156	-453.996679	-453.995735	-454.040098	29.299	
C	 0.16983434	 1.4806030694	 0.0049637896	-0.489527
C	 0.0055001536	 0.005311252	-0.0490245634	 0.401187
N	-0.5431839525	-0.709862281	-0.9841635608	-0.299576
C	-0.4549184842	-2.0142646915	-0.5235920944	-0.154128
C	 0.1604608879	-2.0236905865	 0.6805016921	 0.370949
N	 0.5268864296	-3.0216667976	 1.5763236306	-0.42872
C	-0.1459180923	-3.2655069627	 2.7556843993	 0.134572
O	-1.130634389	-2.6796750419	 3.1246710927	-0.281102
O	 0.4687421025	-0.7202587839	 0.9980103357	-0.185697
H	 1.2247995	 1.7574292568	 0.0989720845	 0.145537
H	-0.2342964438	 1.9131530002	-0.9104044146	 0.158803
H	-0.3604467204	 1.9014775262	 0.8653033807	 0.153604
H	-0.8404472935	-2.8504807212	-1.0846011887	 0.129066
H	 1.3689879771	-3.550815706	 1.4018299035	 0.262489
H	 0.3377151051	-4.0832264223	 3.3257648533	 0.082542
