18
gdb 89666	2.86715	1.29938	1.07969	5.2515	79.39	-0.2254	0.012	0.2374	1164.8143	0.147965	-398.096148	-398.087294	-398.08635	-398.129322	33.75	
C	-0.1447085053	 1.5245240849	-0.0015900688	-0.398493
C	 0.1112690618	 0.0280063169	 0.0076846922	 0.002229
N	 1.262694787	-0.443171904	-0.8463256234	-0.379651
C	 1.7728072018	-1.2596879542	 0.2803644357	 0.219795
C	 2.1930641344	-0.3101459043	 1.3722916978	-0.340736
C	 0.7322809019	-0.6420628299	 1.2512392499	 0.227347
N	 0.058764712	-1.2346661713	 2.3409853972	-0.586298
C	 2.2336293371	-2.594453338	 0.1285979039	 0.184061
N	 2.58164124	-3.6897325141	-0.0185777153	-0.354995
H	 0.7608303535	 2.0800038855	 0.2567339369	 0.125516
H	-0.4714623466	 1.8567357879	-0.9920321821	 0.126239
H	-0.9309400178	 1.7825692985	 0.7166416184	 0.114355
H	-0.8081999043	-0.5145954735	-0.2520024242	 0.077216
H	 0.9354341009	-1.0359778713	-1.6032427151	 0.233241
H	 2.667437841	-0.7759620548	 2.2289582024	 0.143425
H	 2.59061619	 0.6541066113	 1.0702597697	 0.127771
H	-0.075374065	-0.5872755149	 3.1102729946	 0.241032
H	-0.8399795523	-1.6230136045	 2.0781845204	 0.237946
