17
gdb 3246	5.67677	2.3067	2.08729	0.2813	68.14	-0.2413	0.0996	0.3409	696.5879	0.149503	-272.536448	-272.530323	-272.529379	-272.566006	24.752	
C	-0.0595594005	 1.500594907	-0.0442605336	-0.322006
C	 1.260212065	 0.7574619727	 0.0122443011	-0.339823
C	-0.0304304718	-0.0003710265	-0.01639023	 0.402516
C	-0.5419645295	-0.9573393145	 1.0844912075	-0.316241
C	-1.0034999998	-1.9182338222	-0.0230977727	-0.033007
C	-1.9541128959	-1.2301149483	-0.9626958323	-0.275408
C	-0.4788184279	-0.9624059726	-1.0999287907	-0.123894
H	-0.3860521298	 2.0222319624	 0.8498804175	 0.108373
H	-0.3297212956	 1.9938483514	-0.9726556468	 0.109597
H	 1.8775957002	 0.7499668371	-0.8809366055	 0.109668
H	 1.8233740029	 0.7809079932	 0.940296076	 0.108263
H	 0.2726683771	-1.363399995	 1.6907555921	 0.102797
H	-1.3256469844	-0.5797524215	 1.7512486538	 0.09246
H	-0.9236655215	-2.99739938	 0.0175408495	 0.08394
H	-2.3857949202	-1.8639584743	-1.7311581116	 0.106605
H	-2.6190879763	-0.4487213934	-0.6012123261	 0.10487
H	 0.0697662981	-1.1878636457	-2.0072728083	 0.081289
