18
gdb 63487	3.27941	1.06892	0.94169	3.9793	73.05	-0.2632	0.031	0.2942	1271.7713	0.144493	-439.085214	-439.075394	-439.07445	-439.119655	36.434	
C	-0.016842867	 1.5061827298	-0.1359503722	-0.442501
C	 0.0299565408	 0.0066674921	 0.0389481521	 0.329207
O	-1.1095760164	-0.6717132108	-0.428170535	-0.462434
C	 1.3526868799	-0.7419643199	-0.0450536843	-0.406156
C	 0.6226055131	-0.5965278987	 1.2788544759	 0.368134
O	 1.1251671662	 0.3091262372	 2.2153562968	-0.470126
C	-0.0524129633	-1.8147115803	 1.9022316766	-0.384399
C	 0.9137022957	-2.5999650867	 2.670495202	 0.246604
N	 1.712211635	-3.1775397369	 3.2746907688	-0.311379
H	 0.8336988844	 1.9847788336	 0.3510397393	 0.140319
H	-0.0016463512	 1.7669687847	-1.200851327	 0.108956
H	-0.9368893278	 1.9061591336	 0.3007507425	 0.131538
H	-1.1175008788	-0.6090144856	-1.3897358719	 0.287539
H	 1.3484524675	-1.7149202784	-0.5245871985	 0.119443
H	 2.2597723012	-0.1609876877	-0.1714469137	 0.121185
H	 1.8997042499	-0.0905278329	 2.6301954645	 0.29811
H	-0.8511691086	-1.4826357482	 2.5745751374	 0.159872
H	-0.5109302007	-2.434387075	 1.1291024967	 0.166086
