20
gdb 53265	3.42677	0.87693	0.77455	1.3446	90.48	-0.2279	0.0428	0.2707	1559.7979	0.170021	-365.953844	-365.94426	-365.943316	-365.990247	34.49	
C	 0.0764575958	 1.4875375035	 0.0141512862	-0.499852
C	 0.037238899	 0.0325799761	 0.0148119047	 0.081699
C	 0.0099293158	-1.1720662645	 0.0318426162	 0.149618
C	-0.0324432435	-2.6067254164	 0.0076349344	-0.349065
N	-0.5555955187	-3.3089449326	 1.2175308716	-0.375498
C	-1.3183606106	-3.3678194005	-0.0144787435	 0.384779
C	-2.7207135969	-2.7955103336	-0.22311465	-0.28778
C	-2.8901997646	-3.7980765748	-1.4049211441	-0.206076
C	-1.6299315461	-4.572042148	-0.9109458081	-0.308645
H	 1.1033075632	 1.8579524905	-0.0806426253	 0.147793
H	-0.5044337729	 1.9050714094	-0.8159389371	 0.145899
H	-0.336602806	 1.8930847238	 0.944404345	 0.151484
H	 0.801387491	-3.0824197692	-0.506813005	 0.100989
H	-0.0327222992	-4.1727453895	 1.3519176502	 0.228936
H	-3.3799690889	-3.0170691804	 0.6210704301	 0.10792
H	-2.7807918633	-1.7290831455	-0.4510589392	 0.11246
H	-3.8238365875	-4.3619718457	-1.4416267914	 0.100908
H	-2.7282792211	-3.3250436391	-2.3760596594	 0.10862
H	-0.8810966224	-4.8551672768	-1.6558475583	 0.101034
H	-1.8941410531	-5.4589232568	-0.324523037	 0.104778
