23
gdb 119175	2.27157	1.07487	0.83713	1.3078	85.84	-0.2444	0.0784	0.3228	1473.8796	0.205221	-388.251986	-388.242112	-388.241167	-388.287169	37.332	
O	-0.1045345945	 1.5030029255	 0.1719494756	-0.420625
C	 0.0412437592	 0.1186401071	-0.1157376898	-0.10134
C	-1.3011505077	-0.5380351048	 0.1904482786	-0.268141
C	-1.3676495991	-2.0574370644	 0.0766768325	 0.363688
C	-0.3239954504	-2.825966684	-0.7102533841	-0.305407
C	-0.3338831047	-2.8953807937	 0.7981028831	-0.307898
C	-2.7559127165	-2.6518316729	 0.038667851	-0.033669
C	-3.9599587896	-2.0056706297	 0.6792041922	-0.280603
C	-3.8703358116	-2.111698659	-0.8246587175	-0.281916
H	 0.722011916	 1.9425635312	-0.0471832727	 0.284892
H	 0.306601303	-0.0362413905	-1.1723824681	 0.090139
H	 0.8438888075	-0.3247359562	 0.4943578953	 0.088261
H	-1.5855197699	-0.2379275067	 1.2063467348	 0.113889
H	-2.0361318856	-0.0791819526	-0.4812831161	 0.108678
H	-0.6566491398	-3.6960813043	-1.2666787073	 0.106653
H	 0.4859243739	-2.2878575164	-1.188936097	 0.107677
H	 0.4626146812	-2.3918793171	 1.3355704521	 0.108137
H	-0.6670479777	-3.8135812865	 1.2707750947	 0.10789
H	-2.7356012243	-3.7370026392	 0.1095523028	 0.07446
H	-4.6644704772	-2.6408267811	 1.2050288913	 0.106859
H	-3.8445203277	-1.0206945558	 1.1169617164	 0.116393
H	-3.6995218739	-1.1987004712	-1.3845071787	 0.114666
H	-4.5093975706	-2.8245968077	-1.334314549	 0.107319
