16
gdb 8377	4.75932	1.32832	1.20356	3.9676	65.9	-0.2403	-0.0187	0.2216	1002.2524	0.128472	-383.724724	-383.717017	-383.716072	-383.757071	29.076	
O	-0.0793461741	 1.4325588233	 0.0892976948	-0.41805
C	-0.0215915113	 0.0369861742	 0.1021549154	 0.047734
C	-0.6378548195	-0.7294209095	 1.2520354132	-0.392644
C	-1.3210082937	-0.6707750435	-0.0890400743	 0.333572
C	-2.6484314469	 0.0349423803	-0.4150633161	-0.410667
C	-2.9184789942	-1.0934655007	-1.4288876377	 0.407596
O	-3.8026695242	-1.3201622	-2.200660708	-0.286216
C	-1.6074398615	-1.8251687355	-1.0656914887	-0.430687
H	 0.5435346759	 1.7665795672	 0.7432333275	 0.291123
H	 0.8607000761	-0.3928621846	-0.3748075942	 0.087655
H	-0.172694446	-1.6595489983	 1.5640827733	 0.114857
H	-1.0746350102	-0.1422965561	 2.0541394582	 0.117665
H	-3.3846493362	 0.078258977	 0.3944826261	 0.128707
H	-2.5538202395	 1.032705181	-0.8536046933	 0.1481
H	-0.9087373778	-1.9474743365	-1.8998659524	 0.130675
H	-1.7771624569	-2.8050156082	-0.6062329136	 0.13058
