17
gdb 99940	3.64781	0.68966	0.67336	1.304	77.71	-0.2733	-0.0718	0.2015	1684.1566	0.131932	-458.932935	-458.922509	-458.921565	-458.969306	36.215	
C	 0.0460761035	 1.5609369199	 0.0881852803	-0.396825
C	-0.0758219705	 0.0376462973	-0.0379312554	 0.113501
O	 0.5011489473	-0.511119279	 1.1600918976	-0.454942
C	-1.5669920437	-0.4048328005	-0.0819716315	-0.064871
O	-2.2099690451	-0.0647913344	 1.1201804779	-0.415192
C	 0.6126384268	-0.4619281395	-1.2263466883	 0.109385
C	 1.1596357587	-0.9339258447	-2.1957291243	 0.005163
C	 1.8052762078	-1.4638474056	-3.3704349805	 0.021774
O	 2.5766308249	-2.3950964484	-3.3618332606	-0.226268
H	 1.0910272512	 1.8433921159	 0.2279281619	 0.135887
H	-0.3416876902	 2.0497443806	-0.8085913095	 0.12763
H	-0.5379652972	 1.8881221017	 0.9504837313	 0.143487
H	 0.729899934	-1.4319507046	 0.9880377835	 0.29442
H	-2.0899333265	 0.1036108812	-0.8972074417	 0.121002
H	-1.6033479886	-1.4887426352	-0.2769678454	 0.090892
H	-1.6239552133	-0.3723461267	 1.8250552547	 0.289363
H	 1.5346611908	-0.9413833981	-4.3100270399	 0.105594
