18
gdb 76394	2.65175	1.25845	1.13625	11.817	69.72	-0.1829	0.0164	0.1993	1145.2231	0.148076	-472.362553	-472.353727	-472.352783	-472.395943	33.465	
N	-0.0597735749	 1.5100845877	 0.0519109738	-0.552957
C	-0.0570178538	 0.0692021769	-0.0934536918	-0.073338
C	-0.3172050427	-0.7125450468	 1.1737557767	-0.109812
N	-0.8833754318	 0.1261112607	 2.2471176052	-0.415217
H	-0.4922251991	 1.0743143879	 2.1918310368	 0.292114
H	-1.9292427695	 0.1980256211	 1.8721816769	 0.315949
H	-0.7935118038	-0.2759791103	 3.1749621427	 0.30021
C	-1.3268507366	-0.7246183563	 0.0242189197	 0.155873
N	-2.5744900264	-0.1017830833	 0.4115978756	-0.582656
C	-1.4803978825	-2.0779619481	-0.7445056566	 0.346911
O	-2.674934059	-2.418898906	-0.8595303982	-0.486241
O	-0.4068636897	-2.60548587	-1.0643352202	-0.475311
H	 0.8892687668	 1.8649964476	-0.018499625	 0.249561
H	-0.5816149183	 1.9480153795	-0.7015955911	 0.25075
H	 0.6538542966	-0.4079544225	-0.7646357144	 0.135428
H	 0.2409944207	-1.5877165559	 1.4737469605	 0.145911
H	-2.7874516587	 0.7262156464	-0.1373784301	 0.237972
H	-3.2464235473	-0.8437026586	 0.1434712094	 0.264854
