18
gdb 50043	3.66187	1.00052	0.92366	1.8813	73.31	-0.2509	-0.0314	0.2195	1287.9915	0.147891	-439.066621	-439.058336	-439.057392	-439.100463	30.441	
O	-0.1979675487	 0.4119205664	 0.8525154033	-0.259539
C	 0.3281923501	 0.7759022643	-0.1690203415	 0.177226
C	 1.4568777433	 1.7456166334	-0.2246151122	-0.190223
N	 2.2543411279	 1.7148862209	-1.4736972653	-0.362249
C	 1.4435037857	 2.8887813047	-1.1936714989	 0.306978
C	 0.3107173773	 3.2417522497	-2.1672685742	-0.310144
C	 0.4349238309	 4.776481252	-2.287261115	-0.081335
O	 1.7653363084	 5.0933135837	-1.8886476563	-0.239523
C	 2.0627690852	 4.2333570047	-0.8070758872	-0.148645
H	 0.0038122685	 0.4099269246	-1.1680019285	 0.086331
H	 1.9558046396	 1.9109556545	 0.728525331	 0.103148
H	 3.2358198903	 1.8787494975	-1.2610981222	 0.240191
H	 0.4914795731	 2.7423454049	-3.1216640149	 0.131643
H	-0.6757400274	 2.9423341694	-1.805781811	 0.117651
H	 0.2934709918	 5.1512001404	-3.3029757716	 0.118857
H	-0.289286082	 5.2785143711	-1.6264027815	 0.097109
H	 1.6149520975	 4.60796609	 0.1293257404	 0.101639
H	 3.1490833188	 4.1916088077	-0.6808652744	 0.110885
