14
gdb 43234	3.52315	1.25815	0.98571	2.7265	76.36	-0.2643	-0.0984	0.1659	1122.3804	0.102246	-399.581928	-399.574806	-399.573862	-399.613717	26.994	
O	 0.0632163468	-0.0200827378	-0.0758280878	-0.321175
C	 0.0146548319	 1.1837424283	-0.0080416676	 0.424227
C	-1.2216444551	 2.0199108295	 0.0813149032	-0.312136
C	-0.8947717717	 3.3253378264	 0.0195699687	 0.217207
C	-1.804314847	 4.4166044805	 0.061612311	 0.226126
N	-2.5234619928	 5.3241743329	 0.0837967705	-0.319714
C	 0.5927974795	 3.532143881	-0.0435854998	-0.145969
C	 1.3295736794	 3.0474093039	 1.1843092849	-0.277887
C	 1.1811360347	 2.1473202246	-0.0340647046	-0.167421
H	-2.213636695	 1.603551847	 0.1890835511	 0.144711
H	 0.9956980004	 4.3437136699	-0.6355888246	 0.125914
H	 2.3211427288	 3.4463206484	 1.3683806586	 0.13905
H	 0.7504639377	 2.8263340052	 2.0741916883	 0.140545
H	 2.0656709225	 1.8752451901	-0.594310822	 0.126522
