17
gdb 64791	4.68468	0.64343	0.62596	4.294	80.29	-0.2658	-0.0609	0.2049	1770.4161	0.132316	-421.785844	-421.776008	-421.775064	-421.822606	33.627	
C	 0.0056205321	 1.5723586191	-0.4403487318	-0.460451
C	-0.0497417132	 0.0925161756	-0.1401939657	 0.421761
C	-1.399820964	-0.4555578561	 0.3250595075	-0.429616
C	-1.9056758889	 0.1804662818	 1.5336672286	 0.113177
C	-2.3312173609	 0.7048495257	 2.5352134227	 0.027231
C	-2.8051146639	 1.342567187	 3.7362971919	 0.020842
O	-3.8857963819	 1.1393766502	 4.2406246548	-0.228653
C	 0.8854912158	-0.8371834093	-0.7889131099	-0.229581
O	 1.0715788895	-0.4360878665	 0.5720497756	-0.262493
H	 1.0171430578	 1.8620714594	-0.7329404003	 0.132847
H	-0.6826011531	 1.8315379799	-1.2521990878	 0.124144
H	-0.2797224141	 2.1529705638	 0.4420085105	 0.140269
H	-2.1389860005	-0.3361561986	-0.4787260047	 0.146331
H	-1.3029650808	-1.5324140177	 0.5050326525	 0.151684
H	-2.0848104057	 2.058203251	 4.1825445032	 0.100126
H	 0.6064361985	-1.8802200147	-0.9355198087	 0.114403
H	 1.6196257034	-0.4527537408	-1.4954666584	 0.117979
