23
gdb 122564	4.93444	0.64014	0.61608	1.2193	86.	-0.2502	0.0813	0.3316	1868.3219	0.205914	-388.255916	-388.246316	-388.245372	-388.291157	35.839	
O	-0.0715024852	 1.4691583019	-0.1298960973	-0.422435
C	 0.0383542078	 0.0669446142	 0.0682768047	-0.074488
C	-1.3530712485	-0.5390650317	-0.0546946933	-0.162325
C	-1.3632676834	-2.0591655909	 0.1399286976	-0.211441
C	-2.7598608116	-2.66492143	 0.0242876673	 0.030211
C	-3.4854454778	-2.6939553319	-1.3700196668	-0.250198
C	-3.6771247607	-4.2082841685	-1.2190107713	-0.036235
C	-2.3423867195	-4.8830007194	-1.0919697754	-0.273752
C	-2.9224766752	-4.1912320456	 0.1124324538	-0.071801
H	 0.8068708132	 1.85285997	-0.0545348004	 0.283911
H	 0.709588381	-0.3892301065	-0.6783576209	 0.081853
H	 0.4565875987	-0.1632016802	 1.0623186874	 0.081736
H	-2.0065290397	-0.0591567437	 0.6846342338	 0.10178
H	-1.7574552983	-0.2804305075	-1.0408802302	 0.107762
H	-0.6942529621	-2.5270216223	-0.5943182433	 0.091481
H	-0.9507369845	-2.3066889791	 1.1282564682	 0.091191
H	-3.4170986286	-2.1828026888	 0.7563820547	 0.070639
H	-4.417992518	-2.1259304935	-1.3705230331	 0.101604
H	-2.8894713664	-2.3807564517	-2.2350430282	 0.090898
H	-4.5728705195	-4.7565503124	-1.484216801	 0.081906
H	-2.369422288	-5.96739226	-1.0503329476	 0.107542
H	-1.4722727978	-4.4849602093	-1.6091309856	 0.102115
H	-3.1369135957	-4.7389897231	 1.0230428067	 0.078047
