14
gdb 2275	7.72508	1.54827	1.37752	5.4171	57.89	-0.2643	0.0283	0.2926	848.9641	0.113875	-324.570872	-324.564007	-324.563063	-324.602488	23.646	
N	-0.0260481348	-1.140765135	 0.280193937	-0.300396
C	-0.0156425862	 0.010314728	 0.1830760118	 0.266705
C	 0.0033808522	 1.4646887376	 0.0425935926	-0.353673
C	 1.4175786813	 2.0219531839	-0.1500235518	 0.166494
C	 1.5675176825	 3.5585127511	-0.1279915496	-0.304418
C	 2.5241845333	 3.2967348684	 1.0534090444	-0.058771
O	 2.2265135054	 1.8821951659	 1.0318335374	-0.281066
H	-0.6146875955	 1.7433704703	-0.8197090148	 0.152202
H	-0.4464669426	 1.9164583044	 0.9333655202	 0.153393
H	 1.8890937409	 1.5333047366	-1.0126061008	 0.097673
H	 2.0046625952	 4.0100146246	-1.018890335	 0.121351
H	 0.6532822568	 4.0947186837	 0.1360587012	 0.11525
H	 3.5828267411	 3.4909176259	 0.8441875518	 0.111953
H	 2.2601619904	 3.7555478848	 2.0122907355	 0.113302
