18
gdb 26196	3.73083	1.07029	0.8565	2.4874	75.77	-0.1817	0.0338	0.2155	1331.4191	0.148661	-435.307098	-435.297954	-435.297009	-435.340991	34.315	
C	 0.5410968571	 1.469910787	-0.4252621341	-0.394869
C	-0.1223817626	 0.2770462336	 0.2563623975	 0.010644
O	-0.5644958977	-0.7174839747	-0.6726007738	-0.433717
C	 0.767234211	-0.3521960469	 1.2955533898	 0.330255
N	 1.6513602905	 0.2566970268	 2.0655375043	-0.366311
C	 2.1677779494	-0.7200459889	 2.881212773	 0.282367
N	 3.0991711129	-0.3860270764	 3.8696069399	-0.598595
C	 1.5937568514	-1.9387157663	 2.5998712846	-0.193855
N	 0.6976033757	-1.6749020415	 1.5751576708	-0.269465
H	 1.4393020115	 1.1524823102	-0.9675877992	 0.110261
H	-0.1535256644	 1.9345224194	-1.1297304412	 0.117737
H	 0.8527503083	 2.2036408603	 0.3212609236	 0.149593
H	-1.0491932057	 0.6153210072	 0.7385519889	 0.113251
H	 0.1859291353	-0.9293163552	-1.2401583955	 0.279219
H	 3.542409986	 0.4975950662	 3.6533772065	 0.246004
H	 3.7992069799	-1.0994060215	 4.0225855999	 0.238963
H	 1.7322152672	-2.9257975932	 3.0056884078	 0.114034
H	 0.0920584244	-2.3212301362	 1.0980466271	 0.264484
