14
gdb 48002	3.69237	0.74581	0.65788	2.1681	77.77	-0.2732	-0.079	0.1942	1605.021	0.098521	-436.64594	-436.636964	-436.63602	-436.681447	29.837	
O	-0.1691872243	 0.341667253	 0.2846164191	-0.223377
C	 0.028624794	 1.5224407972	 0.1153447028	 0.022907
C	 1.3377050916	 2.1202033311	 0.0323661819	 0.019932
C	 2.4212036331	 2.6503341534	-0.0490617138	 0.148378
C	 3.7224883952	 3.2458894446	-0.1189393945	-0.216483
C	 4.0177451833	 4.2611179776	-1.2108614586	-0.227014
N	 3.8953949563	 4.6737412815	 0.156984333	-0.06254
C	 2.8806460078	 5.514139539	 0.6151021413	 0.150308
O	 2.5084847418	 6.5007135866	 0.0360669857	-0.270311
H	-0.8050219613	 2.2450229253	 0.009646037	 0.109595
H	 4.5420827361	 2.6206827544	 0.2264311121	 0.142586
H	 5.0174467269	 4.2783701383	-1.6344143118	 0.145859
H	 3.2077515178	 4.5236256726	-1.8851770158	 0.156582
H	 2.5129124416	 5.2048818254	 1.6097412018	 0.103579
