19
gdb 84766	2.27741	1.54018	1.22585	4.4034	80.43	-0.2579	0.0025	0.2604	1104.6492	0.159823	-382.091032	-382.082132	-382.081188	-382.124167	34.148	
C	-0.1525374256	 1.5898764933	-0.0045888931	-0.397845
C	 0.0574781949	 0.0752524927	-0.0095845923	-0.031635
C	 0.8799649721	-0.4790371568	-1.1544502347	-0.076552
C	 1.6344286657	-1.5114548215	-0.7828043964	-0.090534
C	 1.4523710563	-1.8316339334	 0.6810664548	-0.291725
C	 0.8221372433	-0.5077158616	 1.2377715413	 0.079311
N	 1.8208256424	 0.4620296988	 1.7060700405	-0.531912
C	-0.0980200452	-0.7767423766	 2.3515174338	 0.291608
N	-0.8219010176	-1.0112898015	 3.2212622002	-0.347921
H	 0.7937957951	 2.1344606426	-0.0164601679	 0.12376
H	-0.7302670264	 1.8851661147	-0.886514409	 0.112614
H	-0.7058997141	 1.904112555	 0.8844935732	 0.136533
H	-0.9332053705	-0.401200431	-0.0358279132	 0.106578
H	 0.8031379061	-0.0804273039	-2.1600401589	 0.101717
H	 2.2750374343	-2.0947300248	-1.4340092183	 0.103304
H	 0.776223419	-2.6867333413	 0.8149492892	 0.129689
H	 2.3800363508	-2.0733129343	 1.2108344152	 0.107968
H	 2.3268704376	 0.0751540564	 2.4975826445	 0.238699
H	 2.5002734918	 0.6060860831	 0.9633648412	 0.236343
