13
gdb 4377	3.89359	1.85322	1.2556	4.5157	63.76	-0.2218	-0.017	0.2049	880.9753	0.097148	-398.654682	-398.648168	-398.647224	-398.68506	25.382	
O	 0.1068765713	 1.3468800671	 0.0957623122	-0.435151
C	 0.0771038795	-0.0102128735	 0.0207300599	 0.363601
C	 0.139451295	-0.7109831736	-1.1819149598	-0.380413
C	 0.1009993897	-2.1031500449	-1.1404144638	 0.363602
O	 0.155185818	-2.8843703916	-2.2517087799	-0.43515
C	 0.001830449	-2.7367579312	 0.1015055051	-0.065703
N	-0.0572505746	-2.0601669413	 1.2459051803	-0.249784
C	-0.021083523	-0.730269874	 1.2146912906	-0.065701
H	 0.1755501616	 1.7184654167	-0.7897726459	 0.299158
H	 0.2163351762	-0.1835828485	-2.1309647575	 0.081136
H	 0.2218384042	-2.3285411244	-3.0350188609	 0.299157
H	-0.0289608965	-3.8213155113	 0.1464433602	 0.112624
H	-0.0703742403	-0.1950451495	 2.1582686793	 0.112624
