17
gdb 68612	2.41952	1.87038	1.50435	0.7289	67.49	-0.2387	0.0612	0.2999	933.8856	0.135911	-458.902915	-458.895504	-458.89456	-458.934397	29.638	
O	 0.0634270053	 1.3567666517	 0.1757349479	-0.47964
C	 0.038882726	-0.0167292456	 0.0483544982	 0.275801
C	 0.3745243684	-0.8287278284	-1.2608192689	-0.31406
C	-0.3362040769	-1.9458762753	-0.4551382449	-0.012674
O	 0.5388575679	-2.1592732214	 0.6681355683	-0.279139
C	 0.8554316738	-0.8056673736	 1.0776390495	-0.102495
C	-1.2650571895	-0.8434859904	 0.0679155472	 0.443096
C	-2.5123455978	-0.7531918392	 0.8050459515	-0.307904
O	-2.4187052429	-0.3642555551	-0.591931518	-0.310132
H	-0.6493733514	 1.7082390414	-0.3718852638	 0.293196
H	-0.2045745979	-0.4893568031	-2.1214683647	 0.118435
H	 1.4248491114	-0.9890313881	-1.5109857176	 0.106371
H	-0.6708116764	-2.8916521048	-0.872596442	 0.096833
H	 1.9339840265	-0.6261024592	 1.0081772474	 0.109734
H	 0.5229747189	-0.6290405545	 2.1065260582	 0.108508
H	-3.1037084454	-1.6473241346	 0.99164637	 0.128943
H	-2.6755155201	 0.0709908604	 1.4974503715	 0.125127
