14
gdb 46831	2.66374	1.66535	1.20447	6.0841	66.54	-0.2879	-0.0183	0.2696	993.553	0.102377	-436.72696	-436.719732	-436.718788	-436.758832	26.927	
O	-0.0176846814	 0.0237308512	 0.2493460628	-0.318013
C	 0.0069762909	 1.194697604	 0.0304760472	 0.420931
O	-1.1172172728	 1.9443162434	-0.1578573616	-0.229832
C	-0.8184144148	 3.2501750963	-0.6778985408	-0.100821
C	 0.6696425703	 3.4691691191	-0.4662766919	-0.112584
C	 1.1716322436	 3.2733480732	 0.9217708288	-0.307691
C	 1.2121551137	 2.1037846899	-0.0680987856	 0.031042
C	 2.4644649346	 1.567922025	-0.506225173	 0.224423
N	 3.4842244115	 1.1574791694	-0.8635690196	-0.332791
H	-1.0799697008	 3.2713449567	-1.7408649412	 0.138129
H	-1.439755694	 3.9738696969	-0.1430302222	 0.138308
H	 1.2136462243	 4.0998298134	-1.1571990205	 0.137711
H	 2.1350884996	 3.6990991224	 1.1738495869	 0.158551
H	 0.4659240253	 3.2008238092	 1.7427917806	 0.152637
