18
gdb 13269	7.56852	0.7472	0.73258	1.993	77.88	-0.2461	0.0462	0.2923	1587.527	0.153091	-347.758078	-347.749176	-347.748232	-347.793529	30.49	
C	-0.4771004886	 1.5315027935	-0.1143454793	-0.363998
C	 0.2695842538	 0.2110609366	 0.1487151258	-0.313976
C	 0.9374966108	-0.3173088615	-1.0364038836	 0.075439
C	 1.4806046493	-0.7311159925	-2.029918651	 0.06162
C	 2.1439332977	-1.2558966007	-3.2040572003	-0.209659
C	 3.5958986753	-1.7983762372	-3.07110448	-0.072749
O	 3.2372023089	-3.0315444151	-3.7210659872	-0.269295
C	 1.8353005366	-2.7108356294	-3.6599679339	-0.072943
H	 0.2126454012	 2.3052241167	-0.4622983728	 0.127966
H	-1.2462253164	 1.3970532363	-0.8797472448	 0.12797
H	-0.9597522432	 1.8858335716	 0.8013459374	 0.114746
H	 1.0097442155	 0.3611719052	 0.9454054005	 0.12949
H	-0.4349212998	-0.5380179148	 0.5328673523	 0.129406
H	 2.0605588505	-0.5556629022	-4.0404350336	 0.107761
H	 4.375044302	-1.2535397931	-3.6149169683	 0.107511
H	 3.9115930064	-1.9530554441	-2.0318545863	 0.106634
H	 1.3059258089	-3.3039895978	-2.9038420435	 0.106591
H	 1.3404849613	-2.8264288816	-4.6302525115	 0.107488
