19
gdb 103036	2.41009	1.63289	1.14928	1.4861	82.04	-0.2577	0.0371	0.2949	1104.8592	0.159079	-385.792876	-385.784542	-385.783598	-385.825581	33.021	
O	 0.0413734539	 1.4405575227	-0.0077929983	-0.419852
C	 0.0300349837	 0.0355525358	 0.1595090794	-0.150453
C	-1.3896937969	-0.5473429281	 0.0358811	 0.173909
C	-2.19910547	 0.0717704074	 1.0817991239	 0.225833
C	-2.7769416673	 0.649043273	 1.9673039081	-0.441006
C	-2.0610689592	-0.6930966203	-1.3865581991	-0.062689
C	-1.0955433152	-1.8786504675	-1.6746547627	-0.25056
C	-1.595291555	-2.0923171202	-0.2156036197	-0.085734
C	-3.0163850195	-1.7478624165	-0.753194829	-0.237617
H	-0.5683348694	 1.8053463169	 0.6453295681	 0.284804
H	 0.6959484258	-0.359676748	-0.6078559311	 0.110634
H	 0.4414536715	-0.2577839895	 1.1383883945	 0.092583
H	-3.3175897601	 1.1310745091	 2.7443224506	 0.194105
H	-2.3238628118	 0.1305466132	-2.0501997997	 0.085608
H	-1.4591364078	-2.6085493274	-2.4014242462	 0.096417
H	-0.0408795986	-1.6660225176	-1.8432827589	 0.09983
H	-1.3235525701	-2.8927609778	 0.4741594148	 0.078481
H	-3.7481050202	-1.3871269437	-0.0301629561	 0.113658
H	-3.4509853238	-2.4738387716	-1.4439602886	 0.092048
