17
gdb 128326	3.23913	1.22257	0.89854	2.385	72.02	-0.1888	0.0594	0.2482	1257.508	0.137712	-451.32995	-451.320743	-451.319799	-451.363598	33.906	
C	-0.0888819238	 1.423407195	 0.0645247881	-0.311115
N	-0.0251586638	-0.0224598088	 0.2147902228	-0.379446
C	-1.2006761996	-0.743982741	 0.0751524275	 0.382298
N	-2.3911102243	-0.1556087672	 0.089101643	-0.340958
N	-3.2842711504	-1.2027363887	 0.0042488383	-0.297269
C	-2.6627766495	-2.3903834737	-0.0722331478	 0.473757
O	-3.3343306864	-3.5502186466	-0.1620866731	-0.433443
C	-1.3025208031	-2.1629062279	-0.0337243589	-0.102014
N	-0.3474997084	-3.2158078569	-0.0736526197	-0.642595
H	 0.9096938445	 1.8396337525	 0.219701467	 0.109912
H	-0.4659205955	 1.7447263964	-0.9175713266	 0.113814
H	-0.7607597829	 1.8334101493	 0.8222087621	 0.148039
H	 0.750203928	-0.4494478228	-0.2714891385	 0.223039
H	-4.2707133078	-1.0182925995	 0.0005163928	 0.271699
H	-2.65044816	-4.2371570939	-0.1704009482	 0.306609
H	 0.2686165161	-3.2101857383	 0.733420294	 0.242025
H	 0.2375808071	-3.190541768	-0.9034147826	 0.235647
