16
gdb 38022	3.69526	1.72923	1.37521	1.0729	72.75	-0.2263	-0.0101	0.2162	915.8435	0.128583	-396.926344	-396.920135	-396.919191	-396.956727	25.67	
C	 0.0544190608	 1.5095747707	 0.117860606	-0.284943
C	 1.3521258146	 0.7483429241	 0.0338376182	-0.006368
N	 1.9827592588	 0.5337835541	 1.3374498658	-0.300661
C	 1.2189196391	-0.2882769809	 1.932836026	 0.346019
N	 1.0163193675	-0.5899364079	 3.2749635942	-0.370091
C	-0.3728772983	-0.8442085828	 3.3481143278	 0.052053
N	-1.0097694856	-0.9745752419	 2.2462544589	-0.254365
C	 0.0318016659	-0.8779680425	 1.1983877481	-0.035964
C	 0.0051519007	 0.0060423882	-0.0304433488	-0.083054
H	-0.200250241	 1.9611999853	 1.0714037882	 0.118616
H	-0.2545276983	 2.0809514183	-0.7509517132	 0.116829
H	 2.0095082597	 0.8657207048	-0.8186718736	 0.096188
H	 1.4854508004	-0.0694368207	 4.0021193215	 0.263902
H	-0.8310464927	-0.9299650861	 4.328736199	 0.135555
H	 0.2467774128	-1.9091834379	 0.8790894665	 0.111801
H	-0.3595096646	-0.4073381549	-0.9614062644	 0.094485
