23
gdb 62828	2.45161	1.74279	1.44782	0.2206	90.89	-0.2275	0.082	0.3095	1060.3504	0.20614	-351.03301	-351.02476	-351.023816	-351.064887	34.725	
C	-0.1065734815	 1.4919064491	 0.0041907395	-0.474181
C	 0.0367838028	-0.038003617	-0.004998271	 0.361886
C	-1.3005598005	-0.597202707	-0.5173049411	-0.476669
C	 1.3104965566	-0.7016878726	-0.5990124819	-0.121454
C	 2.1477228873	-0.077657379	 0.6007148294	-0.326235
C	 0.8432617884	-0.6796120839	 1.2179875475	 0.252691
C	 0.137505719	-1.5025570545	 2.317453291	-0.330951
C	-0.0554633758	-2.6263031625	 1.2140978027	-0.270924
C	 1.1025559534	-1.9292919777	 0.3821633675	-0.021216
H	 0.6903711314	 2.0221450441	 0.5258132565	 0.114031
H	-0.1540823237	 1.8813097425	-1.0198706289	 0.112712
H	-1.0484325408	 1.7671799438	 0.4926183562	 0.112108
H	-1.6565125449	 0.0398535813	-1.3350800177	 0.107076
H	-1.2274809484	-1.6096013857	-0.9134666198	 0.124238
H	-2.0771072702	-0.5775488218	 0.2565564714	 0.112884
H	 1.6158793645	-0.70055715	-1.6519853153	 0.060459
H	 3.0645638617	-0.6118871307	 0.8599086296	 0.093809
H	 2.3230836032	 0.9982888264	 0.5827077221	 0.092207
H	 0.8140696836	-1.8300289709	 3.1123067947	 0.106979
H	-0.7620087008	-1.0769355334	 2.7725187445	 0.096882
H	 0.2166983302	-3.635602582	 1.5317350328	 0.097857
H	-1.0588392559	-2.6592522842	 0.7986486618	 0.11084
H	 2.0437903104	-2.4415440042	 0.6012934883	 0.064968
