17
gdb 46253	3.15757	1.49602	1.24121	3.5588	73.02	-0.2253	0.0151	0.2404	1028.3708	0.137024	-417.945333	-417.937916	-417.936972	-417.97736	28.965	
N	 0.0381670957	 1.2142389325	-0.3083050254	-0.545161
C	 0.0109592367	-0.0052323254	-0.0274685032	 0.417148
O	 1.0113256884	-0.8525195026	 0.4217361591	-0.262944
C	 0.0900917183	-1.9804303103	 0.5006713266	-0.148628
C	-1.0468003755	-1.0989985922	-0.061736791	 0.198857
N	-2.3410334457	-0.9540537244	 0.6632716875	-0.372821
C	-3.0530231598	-1.4900307211	-0.5255971975	-0.008729
C	-2.8743783336	-0.51426338	-1.6418905256	-0.268957
C	-1.7737347893	-1.5100167185	-1.3436045184	-0.155634
H	 0.9668639	 1.6147547287	-0.1635861444	 0.228746
H	 0.4234604958	-2.8108682585	-0.127670594	 0.121851
H	-0.0385545899	-2.3116122245	 1.5361457281	 0.116242
H	-2.3753273893	-1.6017711257	 1.4448446822	 0.221108
H	-3.868352607	-2.1973960535	-0.4418020611	 0.098431
H	-3.428734498	-0.7296335269	-2.5499485466	 0.114133
H	-2.733001282	 0.5375870143	-1.4144763885	 0.148891
H	-1.3886832548	-2.2072776017	-2.0768338979	 0.097468
