24
gdb 7391	3.75115	0.92643	0.8693	1.451	81.83	-0.2586	0.0708	0.3294	1486.4879	0.221021	-351.418901	-351.408047	-351.407103	-351.454864	39.233	
C	-0.0293532485	 1.6114656984	-0.1412951366	-0.37765
C	 0.0278939783	 0.0924100366	 0.0485001137	-0.180657
C	-1.3634050642	-0.5511986197	 0.0703733705	-0.158651
C	-1.3820829469	-2.0903036947	 0.1289254976	 0.026151
C	-0.6956505168	-2.6304257755	 1.3935494641	-0.41627
C	-2.8369586856	-2.6011424046	-0.0104844801	 0.138677
C	-2.9507415836	-4.1064311954	-0.2590199434	-0.4198
O	-3.6491538501	-2.2008581471	 1.0938638214	-0.438019
H	 0.9724734737	 2.0525610205	-0.1480467975	 0.108119
H	-0.5160692856	 1.874649042	-1.0870877621	 0.112565
H	-0.598261757	 2.0887445066	 0.6644275594	 0.114523
H	 0.6236357052	-0.3542815924	-0.7595679797	 0.089419
H	 0.562990941	-0.130657562	 0.9791930605	 0.096133
H	-1.9419363551	-0.1613041538	 0.9173211144	 0.105251
H	-1.9052597849	-0.2348347504	-0.832086929	 0.084855
H	-0.8327979665	-2.4699502541	-0.7456117619	 0.064309
H	-0.7189786093	-3.7237286235	 1.4393563262	 0.110458
H	 0.3551243314	-2.3329727781	 1.4334979414	 0.121585
H	-1.1769995202	-2.2405713472	 2.2983029687	 0.111394
H	-3.2830666047	-2.0822445593	-0.8684373785	 0.081819
H	-2.5604247519	-4.6873265166	 0.5846402052	 0.109428
H	-3.9996537581	-4.382513255	-0.3980365338	 0.122999
H	-2.3927194551	-4.4033397805	-1.1530778515	 0.114967
H	-3.4017303155	-2.743578514	 1.8498108007	 0.278396
