14
gdb 28179	5.31181	1.30229	1.05181	4.0029	70.46	-0.1961	0.0203	0.2164	1057.2851	0.103933	-432.892816	-432.885728	-432.884784	-432.924271	27.237	
N	-0.0339040609	 1.3582909825	 0.0143270097	-0.593502
C	-0.109396639	-0.0273875399	 0.0136304791	 0.287734
C	-1.1750920437	-0.8739537656	 0.0889730106	-0.340752
C	-0.6352476934	-2.2058311162	 0.0431098829	 0.23577
C	 0.7172594685	-2.028880298	-0.0566014366	 0.410662
N	 1.3037340769	-3.2592261033	-0.1057811687	-0.413576
C	 0.2318147118	-4.1459960865	-0.0299944324	-0.014104
N	-0.9371882621	-3.5542464319	 0.0595420991	-0.341736
O	 1.1181803535	-0.7537317565	-0.0807848374	-0.24724
H	 0.4890777118	 1.7267409198	 0.8025656521	 0.246695
H	 0.3687881806	 1.7340754409	-0.8384327234	 0.246688
H	-2.1998382217	-0.5481485338	 0.1664345073	 0.119222
H	 2.2785275427	-3.4926383504	-0.1792907177	 0.273782
H	 0.398605005	-5.2123848611	-0.0471139645	 0.130356
