16
gdb 70047	4.21872	1.0746	0.9521	4.6849	78.24	-0.2499	-0.0441	0.2058	1203.8018	0.124812	-400.761553	-400.753765	-400.752821	-400.793703	30.185	
O	-0.0452121124	 1.3798637532	 0.0286892201	-0.463552
C	-0.0026647248	-0.0107899673	 0.0445989477	 0.391137
C	-0.3745241824	-0.7795114741	-1.1895587198	-0.338817
C	-1.3046584907	-0.7907319234	 0.0279898505	-0.12309
C	-1.108653426	-1.9181629559	 0.9669318562	-0.15131
C	 0.12163482	-1.9008071551	 1.5117189296	 0.175765
C	 0.9238684216	-0.6893913043	 1.0583322551	-0.393261
C	 0.6419736316	-2.8668605363	 2.4116530555	 0.204201
N	 1.0965943255	-3.6376934529	 3.1483287542	-0.338433
H	 0.6679518316	 1.6987520466	-0.5353223116	 0.288552
H	-0.7166384701	-0.185272741	-2.0302176183	 0.123958
H	 0.154569774	-1.6922676596	-1.4441333462	 0.122578
H	-2.2648088549	-0.2975919282	-0.0612281355	 0.112789
H	-1.8612932905	-2.6698911079	 1.1709820002	 0.125762
H	 1.8921966907	-0.9728881807	 0.6313781712	 0.126558
H	 1.1225171266	-0.010391503	 1.8960980513	 0.137163
