23
gdb 118516	1.94146	0.87863	0.64494	1.0815	88.48	-0.2582	0.0538	0.312	1775.1563	0.202562	-388.257958	-388.246466	-388.245522	-388.295611	40.904	
C	 0.1350768245	 1.4882046159	-0.1252729439	-0.391767
C	 0.0129587621	-0.038378954	-0.0954787524	-0.181294
C	-1.4241296986	-0.5628323764	 0.0886822258	 0.029123
C	-2.2824883138	-0.3385448546	-1.1685950096	-0.181287
C	-3.7869276342	-0.4546716566	-0.9458383397	-0.08255
O	-4.4242792746	-0.163884101	-2.1814720492	-0.42032
C	-1.4057612722	-2.0657138596	 0.4778813392	-0.374285
C	-0.7905487697	-2.331402171	 1.7728704892	 0.304548
C	-0.2913816727	-2.5324127187	 2.8482817765	-0.445269
H	 1.1814157876	 1.7912788079	-0.2308203647	 0.113769
H	-0.4183225022	 1.9350431853	-0.9571518631	 0.119699
H	-0.2455917241	 1.9303330999	 0.8022812282	 0.11568
H	 0.4292556371	-0.4625252802	-1.0199960351	 0.091141
H	 0.6283098452	-0.4249430796	 0.7243689832	 0.111135
H	-1.8780560488	-0.014361958	 0.9261772279	 0.078016
H	-2.0964848735	 0.6617408629	-1.5725945077	 0.106945
H	-1.9861861949	-1.0469840004	-1.9532908077	 0.10197
H	-4.0568291119	-1.4634036305	-0.5959962652	 0.085029
H	-4.0973096515	 0.2543447254	-0.1604190582	 0.086773
H	-5.3739710368	-0.2493140937	-2.0575215558	 0.285486
H	-2.4277646986	-2.4621014673	 0.487897721	 0.126519
H	-0.8724866774	-2.6260743008	-0.3026468526	 0.128122
H	 0.1501633089	-2.7209017349	 3.7951776338	 0.192817
