21
gdb 64319	2.49172	1.59454	1.25465	1.9432	80.2	-0.2421	0.0214	0.2635	1105.2627	0.181638	-424.228399	-424.219493	-424.218549	-424.261225	35.041	
C	-0.1885155289	 1.5040037445	 0.1499328073	-0.397457
C	-0.0020645561	-0.004556759	 0.0018630308	 0.419523
C	-1.3485914716	-0.7411123822	 0.0284859156	-0.459121
O	 0.686642977	-0.1588667078	-1.2278098498	-0.265842
C	 0.7845077244	-1.4352579919	-1.8203309016	-0.134924
C	 1.3203849992	-2.5670187732	-0.9888133174	-0.063382
C	 1.4113962857	-2.6856223387	 0.334227366	-0.063381
C	 1.0072963373	-1.7255398702	 1.4179287976	-0.13493
O	 0.8453773859	-0.3657029183	 1.0795967914	-0.265813
H	 0.7912812966	 1.9850821294	 0.125585246	 0.132294
H	-0.794938931	 1.892916387	-0.6709522616	 0.115962
H	-0.6728903915	 1.7340526396	 1.1014143549	 0.115965
H	-1.9793342049	-0.380170996	-0.7880219634	 0.126022
H	-1.2397494503	-1.8223677122	-0.0757927611	 0.129218
H	-1.8582492844	-0.5379203426	 0.9738779459	 0.12602
H	-0.1886761124	-1.7496012949	-2.2396317411	 0.101287
H	 1.4441893771	-1.2887868196	-2.6841952868	 0.118656
H	 1.6319168968	-3.4181890747	-1.5937195986	 0.089979
H	 1.7918193386	-3.6265781507	 0.7308816938	 0.089979
H	 0.0963532018	-2.1209599298	 1.9032500891	 0.101289
H	 1.7799762307	-1.7262634985	 2.196300043	 0.118657
