15
gdb 97878	6.87769	0.54946	0.52153	1.7228	79.4	-0.2506	-0.0615	0.1891	2005.9992	0.107985	-420.559275	-420.548935	-420.547991	-420.597246	34.411	
O	-0.044181166	 1.3822798555	 0.5869223759	-0.409706
C	-0.0132564687	 0.1519686077	-0.1267282668	-0.218039
C	-1.3455963616	-0.4373760121	-0.1451155178	 0.149985
C	-2.4338615631	-0.9475010422	-0.1699262215	 0.044843
C	-3.7508440404	-1.5570083639	-0.1895087114	-0.471756
C	-3.7677736591	-3.0401874024	 0.2039891075	 0.252363
O	-2.7826935518	-3.6741200851	 0.4934255431	-0.260624
C	-5.0951778798	-3.6339258117	 0.1955233648	 0.236482
C	-6.2019637521	-4.1067795999	 0.1835233754	-0.399031
H	 0.8543305393	 1.7274601617	 0.6001272812	 0.290427
H	 0.3291458961	 0.3009524578	-1.1639183045	 0.116548
H	 0.68309132	-0.5641490924	 0.3387290199	 0.124182
H	-4.4378163008	-1.0313853951	 0.4885266478	 0.166078
H	-4.2182868312	-1.4793127774	-1.1814775673	 0.160979
H	-7.1710798007	-4.5440702404	 0.1795140836	 0.21727
