16
gdb 18626	3.11469	2.03203	1.71311	2.2803	64.64	-0.2429	-0.0231	0.2198	825.7191	0.13034	-383.743935	-383.736655	-383.735711	-383.775607	27.058	
C	-0.135038824	 1.5039348692	 0.0159158986	-0.418257
C	 0.0146628211	-0.0001599621	 0.0448460481	-0.044604
C	 1.2643748821	-0.7135951304	-0.351066654	 0.081959
O	 2.4326291874	 0.0673731759	-0.4810481306	-0.260237
C	 2.9062735657	 0.4666479771	 0.7971019608	-0.190213
C	 1.9058886542	-0.0426223229	 1.843785992	 0.376965
O	 2.0311642046	 0.0688384014	 3.0367499503	-0.317266
C	 0.8373521699	-0.7720409627	 1.0982529185	-0.220674
H	 0.8254332633	 2.0158139999	 0.1002125284	 0.134407
H	-0.584366634	 1.8145295772	-0.9330190546	 0.127767
H	-0.7829995537	 1.8535564924	 0.8254696316	 0.130706
H	-0.8970288528	-0.5408538404	-0.1993145144	 0.103031
H	 1.2536378939	-1.5712781311	-1.0150364925	 0.109414
H	 3.8921037206	 0.0240378308	 0.9936695716	 0.13634
H	 3.0084440711	 1.5573557655	 0.8528860791	 0.134153
H	 0.3883459706	-1.6312706097	 1.579633457	 0.116508
