18
gdb 1933	3.43423	2.88908	2.08348	1.8269	68.51	-0.2138	0.0774	0.2912	727.6135	0.159861	-289.811983	-289.804635	-289.803691	-289.842653	28.212	
C	-0.0629144877	 1.5442566751	 0.0593210903	-0.5064
C	 0.1386628053	 0.0616237022	 0.0107765783	 0.300774
C	 0.65215348	-0.7630168907	-1.1789688497	-0.254404
C	 1.2710086393	-1.7804878217	-0.1598767933	-0.254402
C	 0.7294830234	-0.9097558482	 0.9837144264	 0.300778
C	 1.3258075431	-0.7390120534	 2.3462281371	-0.506407
N	-0.7445988398	-0.8709931262	 0.7667964571	-0.408818
H	 0.7983729782	 2.0743780937	-0.3619971967	 0.121199
H	-0.9489654826	 1.8419616199	-0.5147312781	 0.127642
H	-0.2019716233	 1.8945970271	 1.0883950852	 0.113864
H	-0.1221082327	-1.1486640865	-1.8471132199	 0.101032
H	 1.4139348229	-0.2412271905	-1.7640739031	 0.094249
H	 0.8834800788	-2.8019893777	-0.1911456422	 0.101032
H	 2.3631516539	-1.8018611271	-0.2009612883	 0.094249
H	 2.406672445	-0.5701767536	 2.2864353816	 0.121199
H	 0.8816113737	 0.1136620996	 2.8722573119	 0.113867
H	 1.1630020712	-1.6308215543	 2.9638220957	 0.127642
H	-1.1361182386	-0.3327861078	 1.5418681676	 0.212903
