17
gdb 24364	3.64306	1.59567	1.13766	1.8963	84.81	-0.1706	-0.0009	0.1696	1035.8683	0.140199	-380.909905	-380.902914	-380.90197	-380.940976	28.574	
C	-0.0147077336	 1.5000415321	-0.0209147341	-0.229687
N	 1.307868613	 2.1542629696	-0.0522088814	-0.409304
C	 2.2465810779	 1.442068518	-0.8298966643	 0.260807
C	 2.0772456506	 0.0933288783	-1.1147234441	 0.267809
N	 3.1651201104	-0.3053825281	-1.8597927785	-0.357984
C	 4.0087996165	 0.7597869215	-2.0422814911	-0.075772
C	 3.4721434119	 1.8617665921	-1.4048333769	-0.265893
C	 1.0272702208	-0.68459027	-0.5124218174	-0.156647
C	 0.0305244933	-0.0128255404	 0.0912336571	-0.1105
H	-0.5900017016	 1.9400156294	 0.7983645822	 0.102313
H	-0.5369167793	 1.7747767587	-0.9524003561	 0.112607
H	 1.6583854831	 2.3418273374	 0.8823622727	 0.224241
H	 3.2839866341	-1.2128376321	-2.2749512571	 0.257478
H	 4.9062152422	 0.6601638497	-2.631500983	 0.117572
H	 3.9046187506	 2.8496786882	-1.3696976574	 0.093416
H	 1.0866091876	-1.7689491237	-0.4915956574	 0.082255
H	-0.7576961876	-0.5275299208	 0.6301312867	 0.087287
