23
gdb 61758	2.69589	0.90451	0.81876	3.2815	82.62	-0.2425	-0.0198	0.2228	1526.7751	0.201416	-425.44202	-425.430737	-425.429793	-425.478576	41.283	
C	-0.1220377562	 1.5263141191	-0.050378734	-0.406875
C	-0.0085843663	-0.0064750124	 0.0625839197	 0.246509
C	 0.7078399888	-0.3677296232	 1.3773628687	-0.429229
C	-1.4250556894	-0.6109213017	 0.0644860493	-0.416056
C	 0.7901566841	-0.5159724471	-1.1749926098	 0.111201
O	 2.0710129349	 0.1036289558	-1.282363941	-0.438937
C	 0.9441491429	-2.0469850576	-1.2749424977	-0.321135
C	 1.5503069504	-2.4693479449	-2.5988334199	 0.158796
O	 1.1498084139	-3.3935022182	-3.2603413944	-0.244869
H	 0.8646425824	 1.9888209013	-0.123440591	 0.125461
H	-0.6917890463	 1.8121358915	-0.9415846284	 0.110245
H	-0.6384103747	 1.9393899657	 0.8222528857	 0.106572
H	 0.1403939243	 0.0119159662	 2.2330195342	 0.121978
H	 0.8100454079	-1.4497473382	 1.5097624616	 0.115578
H	 1.7056483898	 0.0822443226	 1.4370335913	 0.104826
H	-1.924577088	-0.4575807909	-0.898820227	 0.11583
H	-1.4215288754	-1.6841240501	 0.2761450287	 0.116743
H	-2.0385936585	-0.1293403629	 0.8328405779	 0.115126
H	 0.2515629117	-0.1662569276	-2.0653864596	 0.094896
H	 2.6015255096	-0.181512803	-0.5303831511	 0.280199
H	 1.6208690555	-2.3909804154	-0.4782618825	 0.112853
H	-0.0032262036	-2.5763766009	-1.1548297779	 0.126793
H	 2.4122432125	-1.8514311482	-2.928691073	 0.093496
