22
gdb 69969	2.40153	1.80892	1.35178	1.7024	85.64	-0.2158	0.0806	0.2964	1067.1775	0.194391	-367.158621	-367.150116	-367.149172	-367.19086	34.568	
C	-0.0775026633	 1.5495922776	 0.0886041003	-0.517694
C	 0.1193397516	 0.0654515815	 0.0181575543	 0.293553
N	-0.8083654574	-0.8555542938	 0.718529867	-0.374015
C	 0.649664033	-0.9254477341	 1.0026317587	-0.119166
C	 1.2931298159	-1.7722620427	-0.1126573838	-0.070364
C	 0.4310028209	-2.8933354703	-0.7641085051	-0.2191
C	-0.1292403493	-1.8642434545	-1.7956821424	-0.281415
C	 0.7541812824	-0.7414716463	-1.1617124355	 0.330007
C	 1.6947433469	 0.0329818487	-2.0582341012	-0.497903
H	 0.8058817042	 2.0918266559	-0.2627514088	 0.125439
H	-0.9289655135	 1.8673616718	-0.5258487189	 0.126291
H	-0.27477733	 1.8666235849	 1.1191296433	 0.11432
H	-1.233134325	-0.3249713909	 1.4790839975	 0.220535
H	 1.0074419465	-0.7861317524	 2.0172094907	 0.082769
H	 2.3660537519	-1.9377749728	-0.0008664458	 0.058835
H	 1.0323099095	-3.6858873609	-1.2165145308	 0.087859
H	-0.3148482648	-3.3411541939	-0.1062030661	 0.109128
H	 0.1433500964	-2.0829411265	-2.8322646084	 0.084769
H	-1.2049636175	-1.6937697532	-1.7364950504	 0.106229
H	 1.1502556156	 0.72600276	-2.7118123045	 0.114147
H	 2.4149384656	 0.6207452713	-1.4766710927	 0.111774
H	 2.2662338304	-0.6461386695	-2.7000515677	 0.114004
