17
gdb 90989	2.79323	1.8779	1.37238	0.4003	66.76	-0.2438	0.0569	0.3007	943.874	0.135372	-458.894284	-458.886938	-458.885994	-458.9257	29.576	
C	-0.0847561031	 1.5616039357	-0.0771112737	-0.403635
C	 0.0101658524	 0.0471391286	-0.0176032834	 0.084734
O	 0.8921842945	-0.4644530927	-1.0509915306	-0.289835
C	 1.8591995764	-1.1873771304	-0.3308839531	 0.095779
C	 1.2214163971	-1.9500941067	 0.8607276475	-0.062663
O	 2.4200103089	-1.7351091533	 1.6857612198	-0.338345
C	 2.2470941575	-0.4551300095	 0.980767064	-0.061397
C	 0.6932787463	-0.5161004759	 1.220462098	 0.396912
O	 0.1207442376	-0.2217225567	 2.434690802	-0.488971
H	 0.8992491655	 2.0208119307	 0.0584242259	 0.119097
H	-0.4822336874	 1.879861893	-1.0445446798	 0.127845
H	-0.7497516679	 1.9249509724	 0.7120493304	 0.13416
H	-0.9828749175	-0.4007392478	-0.1537456996	 0.091399
H	 2.6078389178	-1.649633331	-0.9685791911	 0.107783
H	 0.7257629902	-2.9191255538	 0.9120222962	 0.096106
H	 2.9669302843	 0.3393272553	 1.1742754793	 0.097107
H	 0.6723381174	-0.646723818	 3.1064298681	 0.293924
