20
gdb 78896	2.81507	1.99817	1.59657	1.7108	79.75	-0.2231	0.0757	0.2987	925.1023	0.174386	-365.965691	-365.958987	-365.958043	-365.996387	28.488	
C	-0.1295391221	 1.5796649286	-0.0382906414	-0.411816
C	 0.0615566224	 0.0623924672	 0.0195776989	 0.027676
C	 0.8607509964	-0.5389067541	-1.1215593559	-0.043417
C	 2.3159540258	-0.8166639896	-0.9668524389	-0.059061
C	 2.7720379579	-0.9191819577	 0.5022009677	-0.037812
C	 2.2059259341	 0.1457742619	 1.458135016	-0.250132
C	 0.800287355	-0.4995435421	 1.248200544	-0.076005
C	 1.5115025966	-1.7928025909	 0.6840491043	 0.006113
N	 1.2797686687	-1.9215906614	-0.8167659316	-0.166068
H	 0.8233760184	 2.113476424	-0.086177205	 0.120848
H	-0.7077696152	 1.8603990868	-0.9248469617	 0.11558
H	-0.6757113728	 1.9410378635	 0.8391528686	 0.115404
H	-0.9329437167	-0.4049654031	-0.0161187708	 0.080503
H	 0.4984689715	-0.4043671116	-2.1379315319	 0.085697
H	 2.9872330181	-0.7949955842	-1.8203958438	 0.088258
H	 3.7834466428	-1.3049385725	 0.6293838897	 0.070606
H	 2.5670044276	-0.0147345316	 2.4783444578	 0.098683
H	 2.3370166843	 1.2006260687	 1.2040816014	 0.09498
H	 0.1627764174	-0.593135047	 2.1284208997	 0.0671
H	 1.4720477099	-2.7296589747	 1.2352546926	 0.072866
