20
gdb 86981	3.37098	0.91141	0.77805	3.1583	79.53	-0.2734	0.013	0.2863	1494.315	0.169985	-403.142602	-403.133157	-403.132213	-403.177888	34.227	
C	-0.5082383096	 0.7557689741	 0.4803867578	-0.391489
C	 0.27287251	-0.3535031814	-0.2189565492	 0.012095
C	 1.552532293	 0.1274088423	-0.9705899815	-0.266508
C	 2.3965113538	-0.3416465181	 0.2277154492	 0.156916
C	 1.1936326953	-1.1927652378	 0.7198542401	-0.254665
O	 3.5966832327	-0.9946077024	-0.1531619297	-0.23394
C	 4.478127502	-1.2760080853	 0.8987965407	-0.208128
C	 4.030088884	-2.3756969862	 1.7801592095	 0.26355
N	 3.6859356598	-3.2354490328	 2.4710409169	-0.310196
H	 0.1429203694	 1.3797218557	 1.1035037638	 0.112435
H	-0.9963108543	 1.412793048	-0.2477617522	 0.115921
H	-1.2852549322	 0.3392026845	 1.1303362115	 0.118605
H	-0.4096278117	-0.9495173734	-0.8300053791	 0.076158
H	 1.7729091584	-0.4914760134	-1.8441446706	 0.115777
H	 1.6167021738	 1.1813462266	-1.252834594	 0.098907
H	 2.634994874	 0.4764987773	 0.9222869846	 0.071745
H	 0.9683633371	-1.1881103774	 1.7887924753	 0.105995
H	 1.2938600512	-2.2267540268	 0.3817188699	 0.119246
H	 5.4324926022	-1.5673561317	 0.4489026997	 0.159297
H	 4.6603392911	-0.3904144618	 1.5280667476	 0.138279
