19
gdb 67050	2.12762	1.98764	1.61422	1.9779	73.77	-0.226	0.0644	0.2904	952.5572	0.159831	-423.003015	-422.995059	-422.994115	-423.034781	32.226	
O	 0.0862891659	 1.4018838728	 0.0814796688	-0.462809
C	 0.0470976342	 0.0300025009	 0.0224902764	 0.368698
C	-1.0589155039	-1.0142177745	 0.0515679269	-0.162392
C	-0.4461243295	-1.7498943627	-1.1410898179	-0.287224
C	 0.8364097399	-0.8618213624	-0.9802197936	 0.330542
O	 1.274943881	-0.1485741329	-2.1063221764	-0.508337
C	 1.9080450733	-1.5710046844	-0.1399543912	-0.275084
C	 1.1764777685	-1.8555048362	 1.2023116339	-0.240395
C	-0.0148007756	-0.8894317851	 1.1836645913	-0.092758
H	 0.0311253638	 1.7261127184	-0.8258967631	 0.293507
H	-2.114800838	-0.9148247992	 0.2741033919	 0.08548
H	-0.3133827696	-2.8360776521	-1.0706425125	 0.082893
H	-0.9607406838	-1.5039382769	-2.073944626	 0.099542
H	 1.6659366631	-0.7668544704	-2.7322480436	 0.280119
H	 2.2904589754	-2.4800365978	-0.6181042499	 0.085373
H	 2.7493253693	-0.8852202827	 0.0087209957	 0.107507
H	 0.8518052312	-2.8989859054	 1.2767812602	 0.100563
H	 1.8266918241	-1.6625539019	 2.0602893232	 0.104353
H	-0.4184891793	-0.5083928474	 2.1151401559	 0.09042
