16
gdb 54819	2.96128	1.51865	1.40163	4.8965	68.23	-0.2409	0.0062	0.2471	972.0415	0.125518	-434.07189	-434.063905	-434.062961	-434.105168	29.426	
N	-0.0355180379	 1.3368466973	 0.1492302806	-0.525455
C	 0.0801768234	-0.0202790808	 0.0559886113	 0.40284
O	 1.1423396702	-0.602864428	 0.1211395415	-0.349818
C	-1.2595380791	-0.7243501771	-0.0537927149	-0.144878
C	-1.992337812	-0.9236667122	-1.3388542776	-0.05662
C	-1.2521348985	-0.791314716	-2.6703837635	-0.193054
N	-0.1882207172	-1.8095296727	-2.626973071	-0.195658
C	-0.2818168236	-2.4052331541	-1.5104107261	 0.058111
N	-1.3730444095	-2.0750245742	-0.6330255499	-0.1342
H	 0.8077898952	 1.88300668	 0.2205459997	 0.267593
H	-0.9052922306	 1.8101722989	-0.0227934822	 0.26394
H	-1.866706653	-0.5950766134	 0.8415679695	 0.124736
H	-3.0771997315	-0.8826295267	-1.3277031544	 0.103245
H	-1.9252820224	-0.9902419522	-3.5118114482	 0.122028
H	-0.8075274376	 0.1962030786	-2.8413620119	 0.118392
H	 0.3893469941	-3.1955706474	-1.1955572329	 0.138795
