19
gdb 15092	3.29338	1.35776	1.06591	3.7952	67.26	-0.2435	0.0531	0.2965	1121.416	0.165618	-402.151875	-402.142983	-402.142039	-402.1856	32.403	
O	 0.3215984199	 1.2546743035	 0.0026649365	-0.430471
C	 0.0178983848	-0.1114568772	-0.169635407	-0.044734
C	-1.4765506263	-0.4488523518	 0.0402230908	-0.042568
C	-2.3436231418	 0.0432797106	-1.1216602524	-0.105086
O	-2.0801995004	 1.4309637401	-1.3320530837	-0.423541
C	-1.6271061738	-1.9367355873	 0.3302619456	 0.009673
C	-2.7333018949	-2.7957134584	-0.1642654287	-0.254789
N	-1.3646752873	-2.9799479508	-0.6814199243	-0.316301
H	-0.2978533055	 1.7376777532	-0.5590021776	 0.288994
H	 0.3322634299	-0.4788256942	-1.1630281478	 0.075436
H	 0.6137434538	-0.6583082389	 0.5694486802	 0.106216
H	-1.7950442028	 0.0950262676	 0.9393609217	 0.097124
H	-2.1130477884	-0.5266914809	-2.036321367	 0.08548
H	-3.4069375431	-0.1078100379	-0.891052078	 0.102814
H	-2.534994084	 1.71582632	-2.1295066696	 0.295564
H	-1.2027754922	-2.205069073	 1.2965084864	 0.100887
H	-3.1016033423	-3.6093578082	 0.4545263428	 0.119344
H	-3.4835018256	-2.3658748115	-0.8214056291	 0.109148
H	-1.2912882399	-2.563903075	-1.6068265187	 0.22681
