21
gdb 78467	3.26164	1.42077	1.39814	1.5391	81.04	-0.2404	0.091	0.3314	1059.109	0.185755	-387.081187	-387.074023	-387.073079	-387.1123	30.27	
C	 0.0617936823	 1.5872041025	-0.0157101618	-0.431679
C	 0.0315700628	 0.0742349363	 0.0253753042	-0.013729
C	 0.6158449695	-0.6878383303	-1.1467707147	-0.063373
C	 1.3240582395	-0.6747356989	 0.2042422131	-0.043226
C	 1.2578463422	-2.161268951	 0.6130212935	 0.08115
C	 1.5376841681	-2.8565477283	-0.731607762	-0.219512
C	 0.2966231546	-2.1842228418	-1.3815350052	-0.06304
C	-0.7642382841	-2.6620711948	-0.3840044865	-0.093287
O	-0.1001047566	-2.5493848104	 0.8929296349	-0.279736
H	 0.9619286549	 1.9542699028	-0.520679816	 0.1119
H	-0.8058470621	 1.9856587428	-0.5529912602	 0.116733
H	 0.0525201989	 2.0094638076	 0.9950656865	 0.119108
H	-0.8315792005	-0.3432647531	 0.5313539981	 0.103534
H	 0.991311831	-0.1139354409	-1.9877885394	 0.077677
H	 2.2463802648	-0.1286206439	 0.3773499917	 0.075415
H	 1.8710249709	-2.4367503016	 1.4712944128	 0.072574
H	 2.4795003218	-2.5440451759	-1.1883362651	 0.096673
H	 1.4860078976	-3.9487794895	-0.6803614743	 0.094764
H	 0.0809143835	-2.4418406622	-2.4187768178	 0.06479
H	-1.6723849586	-2.0498977766	-0.3825277642	 0.100229
H	-1.0504582404	-3.7075909727	-0.5607688076	 0.093035
