20
gdb 74930	3.00115	1.72719	1.47964	1.6482	83.59	-0.2112	0.0161	0.2273	983.9538	0.173642	-365.969555	-365.962527	-365.961583	-366.000532	29.574	
C	-0.0067117083	 1.4759856702	 0.0422168301	-0.502986
C	 0.0353038706	-0.0196149598	-0.0124545096	 0.340129
C	-0.0490752093	-0.77680227	-1.1123806361	-0.181764
C	 0.0941085477	-2.2572105078	-0.8830442952	-0.046574
C	 1.5024975213	-2.472004645	-0.2465413775	-0.230159
C	 0.7777006581	-2.2200774533	 1.0702451527	 0.015392
C	 0.0477680787	-0.8304563416	 1.2649689609	-0.152401
C	-1.252681107	-1.692899853	 1.1968029947	-0.156857
N	-0.5152076657	-2.7510460532	 0.4550903765	-0.145679
H	 0.9056620795	 1.8815437787	 0.4982988555	 0.12571
H	-0.1097876253	 1.9105449013	-0.9560822118	 0.12247
H	-0.843778226	 1.830594742	 0.6579747297	 0.124916
H	-0.1413002254	-0.3759205647	-2.1168525677	 0.082026
H	-0.1999345582	-2.8748809615	-1.7320540502	 0.070389
H	 1.8160550238	-3.5178036814	-0.2949769129	 0.109582
H	 2.3064753766	-1.8093328717	-0.5697636925	 0.096922
H	 1.1276431698	-2.6845194178	 1.9967623975	 0.068686
H	 0.2644392505	-0.2469452664	 2.1628170066	 0.057095
H	-1.5392290493	-2.1125382807	 2.1670976718	 0.103261
H	-2.1258730922	-1.2558274841	 0.7044929673	 0.099839
