12
gdb 132124	3.0859	1.48005	1.00146	3.6907	64.66	-0.2168	-0.0846	0.1322	1052.3526	0.076728	-513.943383	-513.93595	-513.935006	-513.975424	27.513	
N	 0.076758267	 1.4405604023	 0.2231059846	-0.580664
C	 0.0333866049	 0.0513224244	 0.0733603322	 0.125229
C	-1.1133268117	-0.6602502136	-0.0745239449	 0.340268
F	-2.3053192908	-0.1063831504	-0.1750070828	-0.036334
O	-1.1570312504	-1.9814331284	-0.1431383532	-0.214221
C	 0.0258254156	-2.7593615456	-0.0605352459	 0.393694
O	-0.0650656339	-3.951073832	-0.1194075484	-0.320572
C	 1.2163994196	-1.9313941598	 0.0824289613	-0.136469
N	 1.2096070879	-0.6373662017	 0.1425756553	-0.236636
H	 0.9772626923	 1.809244303	-0.0536133261	 0.25983
H	-0.6802745486	 1.9264366052	-0.2381235174	 0.256137
H	 2.163061698	-2.4596261735	 0.1360610454	 0.14974
