19
gdb 87048	2.39758	1.38173	1.00513	4.8996	80.43	-0.2653	0.0245	0.2897	1233.4006	0.158855	-382.047699	-382.038593	-382.037648	-382.081705	33.857	
C	-0.0546857097	 1.3535220472	-0.2279198494	-0.406846
C	 0.2162786461	-0.0963390777	 0.0812259944	-0.026967
N	 1.6160581886	-0.4974980468	 0.2508899132	-0.351389
C	 0.7087918612	-0.5887422218	 1.4130585219	 0.113095
C	 0.9879473328	 0.3858553159	 2.4532979256	 0.293741
N	 1.168511146	 1.150091451	 3.3018113176	-0.349711
C	 0.2366653823	-1.9112885208	 1.9635493547	-0.058452
C	 0.35320237	-3.1969236869	 1.1871285797	-0.299546
C	 1.2230348946	-2.9662983618	 2.3978149898	-0.258547
H	 0.6136013474	 2.0053023917	 0.3389086137	 0.151683
H	 0.1006069351	 1.5475618234	-1.2941739898	 0.126842
H	-1.0888052411	 1.6144616633	 0.0188702606	 0.126664
H	-0.4379664503	-0.8105354363	-0.4174022725	 0.098611
H	 1.7862477883	-1.4247195733	-0.1304699493	 0.237491
H	-0.6517706512	-1.8100855654	 2.5802536278	 0.109346
H	-0.4692808137	-3.8991759484	 1.2605716004	 0.125396
H	 0.82836341	-3.1903248548	 0.2110199578	 0.112802
H	 2.2752921679	-2.7670562099	 2.2256637532	 0.128801
H	 1.0155635757	-3.5222235984	 3.3044617705	 0.126988
