16
gdb 33896	4.07163	1.31509	1.19813	0.6817	76.22	-0.2349	0.0059	0.2408	1043.3019	0.123878	-400.627287	-400.619994	-400.61905	-400.658826	29.022	
C	 0.135966598	-1.1918535177	 0.1113847763	-0.384752
C	 0.0533109914	 0.0045313789	 0.0092779586	 0.191596
C	-0.0987518691	 1.4155807248	-0.0734975438	 0.164627
C	 0.2396373618	 2.2420196964	-1.2525815497	-0.284232
N	 1.0957691657	 2.4182670415	-0.0705362988	-0.189678
C	 0.3557886327	 3.2322215253	 0.9770276938	-0.019181
C	-0.6628626843	 4.2977192839	 0.5460836709	-0.108603
O	-1.7165289957	 3.2952329644	 0.4652620715	-0.292143
C	-0.8352830347	 2.2779150971	 0.9842116251	 0.028734
H	 0.2201695777	-2.2471844936	 0.1935754693	 0.192593
H	 0.7643816321	 1.7391876392	-2.0582325884	 0.137693
H	-0.4577330921	 3.0111818244	-1.5673366465	 0.139736
H	 1.0026113144	 3.4266134018	 1.8294062697	 0.102629
H	-0.8819459592	 5.0358681107	 1.3269168445	 0.113485
H	-0.4955712616	 4.8160907034	-0.4045415892	 0.115224
H	-1.2339687671	 1.7467287797	 1.8491522368	 0.092271
