17
gdb 34823	4.97595	1.09003	1.01073	3.8201	78.26	-0.258	0.0243	0.2823	1168.5386	0.137591	-380.798132	-380.790795	-380.789851	-380.829837	28.911	
N	-0.0823831934	-1.188539142	-0.0906356086	-0.334062
C	-0.0387608591	-0.0340782203	-0.0367848157	 0.268394
C	-0.0061651252	 1.4178685636	 0.0129688841	-0.143326
C	 0.0541587311	 2.1192883976	 1.4178994789	-0.144394
C	 1.5349447135	 1.6304122335	 1.529706259	-0.250231
C	 1.3889444957	 2.1395592104	 0.0610602186	-0.117632
C	 0.6159382302	 3.332124859	 0.6546294763	 0.447497
C	 0.029125785	 4.5703546762	 0.1288994077	-0.360921
N	 1.1498279229	 4.584136513	 1.1217884394	-0.40828
H	-0.7292884764	 1.8382157895	-0.6900567595	 0.117702
H	-0.7257277489	 2.0963650227	 2.1792073757	 0.093227
H	 2.1895528996	 2.2181945798	 2.1741207846	 0.115875
H	 1.6840427847	 0.5577404757	 1.6621027618	 0.129922
H	 2.1380533647	 2.1442117386	-0.7287606637	 0.100169
H	 0.2979756839	 4.9450146884	-0.8548308285	 0.129596
H	-0.9617922829	 4.8610718446	 0.4692279829	 0.120438
H	 0.7950689045	 4.8165929796	 2.0467716471	 0.236025
