16
gdb 131197	3.3358	1.54879	1.08479	3.9398	71.18	-0.2179	0.0072	0.2251	1061.1084	0.128004	-434.07791	-434.070837	-434.069893	-434.109466	27.17	
O	 0.1100181725	 1.3719083099	 0.0292608285	-0.430697
C	 0.1047445083	 0.0264621527	-0.0653448977	 0.206636
C	 0.078570431	-0.7537694256	-1.2005867737	 0.290316
C	 0.0089064631	-0.8000247722	-2.6930346325	-0.365839
C	 0.3526638369	-2.2978183658	-2.9805950393	-0.217056
C	 0.0118614695	-3.0743991474	-1.6809385138	-0.171247
N	 0.0924191379	-2.0112240801	-0.6896933195	 0.073585
N	 0.1195275348	-2.0417292761	 0.6370566203	-0.19068
N	 0.1332952591	-0.7776420866	 1.0249610226	-0.285775
H	 0.1410673858	 1.5782175795	 0.9722690005	 0.304948
H	-0.9940541608	-0.5434001284	-3.0552825217	 0.128493
H	 0.7099705825	-0.1200910773	-3.1833465928	 0.132759
H	-0.1841590675	-2.6938156901	-3.8444432818	 0.118842
H	 1.4228842171	-2.3901737803	-3.1836039146	 0.1284
H	-0.9991362534	-3.4957694545	-1.6952276707	 0.134648
H	 0.7178629033	-3.8745444376	-1.4513019439	 0.142666
