17
gdb 44789	2.46222	2.15851	1.60195	4.1318	72.29	-0.2633	0.0063	0.2695	886.8198	0.137945	-421.771378	-421.764902	-421.763958	-421.801933	27.045	
O	 0.0520171951	 0.1159789514	 0.1883453015	-0.362224
C	 0.051678149	 1.3051692704	 0.0841747767	 0.446556
O	-1.0747923118	 2.091095713	 0.1288630581	-0.233329
C	-0.5018017703	 3.4050690463	-0.0523623131	 0.037546
C	 0.7107556754	 3.3747975037	 0.9732349417	-0.329119
C	 1.1977406235	 2.3087266655	-0.1020626427	 0.103209
C	 2.2246383592	 1.7992057391	-1.1491794316	-0.313758
C	 1.1305279031	 2.2157607085	-2.2352923462	-0.296945
C	 0.5997484242	 3.2211959881	-1.1556720318	 0.01528
H	-1.2919542846	 4.1535223656	-0.0450123815	 0.100744
H	 1.3111728162	 4.2846087237	 0.9812136467	 0.121218
H	 0.4728714559	 3.0444126633	 1.9874027383	 0.123884
H	 3.1180679261	 2.4221641338	-1.2238058923	 0.114182
H	 2.5008103831	 0.7450098081	-1.0889315159	 0.13064
H	 1.4864807192	 2.6445450646	-3.1736923601	 0.106472
H	 0.4535986044	 1.3859412187	-2.4472579494	 0.144276
H	 1.1778418225	 4.1468357561	-1.2236644285	 0.091369
