17
gdb 45167	3.03849	1.80704	1.57327	4.3508	71.2	-0.2369	0.021	0.2579	891.5347	0.140447	-418.041099	-418.034632	-418.033688	-418.071904	26.684	
O	 0.0237608885	-0.074336745	 0.0155087535	-0.392025
C	-0.0113152845	 1.1416498062	 0.0197893989	 0.420175
N	-1.1578846853	 1.8871359724	 0.0216260328	-0.311675
C	-1.0368505486	 3.3365782799	 0.0139006246	-0.045108
C	-0.1875057449	 3.7634017166	 1.2334325929	-0.232429
C	 1.1892990984	 3.3094956363	 0.7774078823	-0.039096
C	 1.2197186979	 2.0064416223	 0.0309873754	-0.144409
N	 1.2495514942	 3.3109556288	-0.6933755288	-0.11995
C	-0.0921061855	 3.7194558412	-1.1490288338	-0.15643
H	-2.0454027491	 1.4116099788	-0.0087020374	 0.252026
H	-2.0239074336	 3.795398914	-0.0298777067	 0.087361
H	-0.2068316563	 4.850062171	 1.3681255084	 0.113027
H	-0.5238305132	 3.2876251773	 2.1576893139	 0.118563
H	 2.0769221206	 3.635477066	 1.3093394272	 0.102912
H	 2.144211165	 1.4443133869	-0.0279221267	 0.114027
H	-0.3563157519	 3.218713656	-2.0833457878	 0.119516
H	-0.0765167917	 4.8016233111	-1.3137992086	 0.113517
