15
gdb 126494	2.75374	1.48888	0.97789	1.8838	72.92	-0.2677	-0.0923	0.1755	1149.9886	0.110668	-450.03873	-450.030443	-450.029498	-450.072497	29.945	
C	-0.0055449517	 1.5539898997	 0.077268071	-0.386837
C	 0.0846224305	 0.0313107549	-0.0073889866	-0.256292
C	 0.7089568689	-0.501075146	-1.2646548613	 0.340235
N	 1.1150907315	 0.3335528171	-2.1587039046	-0.121831
O	 1.6859679591	-0.1698863737	-3.3073349069	-0.239947
N	 1.8368173058	-1.5721695517	-3.5286983919	 0.073362
N	 1.4487493304	-2.367078141	-2.6747169135	-0.170119
C	 0.8446741507	-1.9415541968	-1.452715737	 0.318602
N	 0.4526857968	-2.7878094443	-0.5878425607	-0.476371
H	 0.9835566896	 2.0160973009	 0.0249881024	 0.135625
H	-0.602485316	 1.9647209419	-0.7410068115	 0.135585
H	-0.4714949554	 1.8435236147	 1.022620328	 0.118963
H	 0.6533126605	-0.3818498493	 0.8355272966	 0.143137
H	-0.9060147867	-0.4324673593	 0.0826821331	 0.143178
H	 0.6446891159	-3.7357377671	-0.9240774072	 0.242712
