15
gdb 2197	4.43937	2.22385	1.65766	2.2941	57.51	-0.2475	-0.0259	0.2217	759.9654	0.123533	-345.66052	-345.652979	-345.652035	-345.692086	26.779	
C	 0.1083488206	 1.5865243082	-0.0334208106	-0.403694
C	 0.0908823274	 0.0664856677	-0.0000218336	-0.084226
C	 0.684877768	-0.7702061511	-1.1840649874	-0.290014
C	 1.3090571137	-1.7793361899	-0.1532139816	 0.076119
O	 2.5850040504	-2.3119788953	-0.329874106	-0.434983
C	 1.1475494613	-0.6428132777	 0.8579918552	 0.327222
O	 1.8729184632	-0.2812307423	 1.7446559429	-0.312478
H	 1.1109718791	 1.9598179064	-0.2636053847	 0.125292
H	-0.5822592505	 1.9724884366	-0.7893931884	 0.122233
H	-0.1841620775	 1.9980563686	 0.9371004325	 0.134407
H	-0.907680106	-0.3095057058	 0.2523078934	 0.104195
H	-0.0189937067	-1.1859753186	-1.9051652528	 0.114066
H	 1.4726752002	-0.2197271774	-1.7047387281	 0.119092
H	 0.5943189214	-2.5910400064	 0.0356735128	 0.107377
H	 3.1866374355	-1.7917366829	 0.2178745165	 0.295393
