17
gdb 41464	3.34284	1.73396	1.32936	3.1256	73.93	-0.2273	0.0109	0.2382	958.9895	0.138251	-417.956479	-417.949561	-417.948617	-417.987634	27.679	
C	 0.1369655852	 1.605725882	 0.2749047698	-0.071059
O	 1.4177320607	 1.5957257204	-0.4015534121	-0.321314
C	 1.3114058837	 0.1999079558	-0.739504337	 0.376886
C	 2.0010729166	-0.2888808144	-2.0042411401	-0.354636
C	 3.1609079747	-1.1761505111	-1.4065904178	-0.164772
N	 2.725268203	-1.6230552831	-0.0479936298	-0.316441
C	 1.8019276765	-0.8116871505	 0.256220174	 0.361968
N	 0.7118226362	-0.6855742643	 1.1167667307	-0.385016
C	-0.0418295417	 0.0964341581	 0.0848385221	-0.160199
H	 0.2124415117	 1.9381480494	 1.3141539992	 0.11622
H	-0.5852287469	 2.2242446607	-0.272567382	 0.104671
H	 1.3386192057	-0.9051742692	-2.6188574265	 0.117924
H	 2.3518166514	 0.5481143625	-2.6124384827	 0.123142
H	 3.3482918279	-2.0623940141	-2.0189023795	 0.110189
H	 4.103457177	-0.6190918747	-1.343519809	 0.116469
H	 0.3148563813	-1.4781008887	 1.6040525518	 0.247132
H	-0.9895464329	-0.3291757089	-0.2423114411	 0.098837
