17
gdb 60743	3.65113	1.10046	0.8959	4.3204	72.23	-0.2589	-0.0214	0.2375	1268.7293	0.135366	-455.17315	-455.164085	-455.163141	-455.207546	31.783	
C	-0.4441040887	 1.496862233	 0.0964382754	-0.347501
N	-0.0931429535	 0.0846228525	-0.0413283431	-0.163572
C	 0.2907663817	-0.6241670612	 1.0961974641	 0.173673
O	 0.3704920765	-0.130179933	 2.1950549728	-0.321249
C	-0.1605834696	-0.5965269459	-1.2642171198	 0.466501
O	 0.0273255777	-1.7887838597	-1.3709211872	-0.365626
N	-0.5372756504	 0.2318007661	-2.3307117412	-0.138004
C	 0.4450307853	 1.0782669541	-3.0169077019	-0.236647
C	-0.1246396588	-0.1375169688	-3.6697305389	-0.216726
H	 0.3301232036	 2.1450961249	-0.3252354521	 0.132777
H	-1.3893334479	 1.6991401428	-0.4086122436	 0.150814
H	-0.5293440606	 1.699575518	 1.1635493063	 0.170165
H	 0.5066516184	-1.6752015539	 0.8651066742	 0.137912
H	 0.0979324477	 2.0698214952	-3.291499181	 0.134396
H	 1.4764688496	 1.0261584279	-2.6775496384	 0.139627
H	 0.5071948177	-1.0160045696	-3.7575924819	 0.1505
H	-0.8880576587	-0.0285894123	-4.4334884537	 0.132961
