20
gdb 13633	2.89513	1.66224	1.21137	2.8254	71.58	-0.2222	0.0713	0.2935	1061.873	0.175372	-386.112465	-386.103292	-386.102348	-386.146259	33.816	
C	 0.0445091485	 1.5138907922	 0.145329201	-0.242928
O	 0.424307971	 0.1663820876	-0.0504412962	-0.262691
C	 0.7667268846	-0.5486911199	 1.1454050103	 0.111269
C	-0.4661762069	-0.823438128	 2.0115963596	-0.397971
C	 1.4607457136	-1.8397357782	 0.7474467578	-0.070943
C	 1.0469490587	-2.6054268899	-0.5019076318	-0.334442
C	 2.3966506633	-1.934492836	-0.4318959702	 0.129448
O	 2.7225189649	-0.8340832394	-1.2213547236	-0.436444
H	 0.803340356	 2.0676653062	 0.7176057811	 0.114075
H	-0.0520534583	 1.9650065281	-0.8450609899	 0.133647
H	-0.91878853	 1.6019502026	 0.6635115523	 0.119483
H	 1.4772830286	 0.0712488858	 1.7188714847	 0.074889
H	-0.1758089782	-1.3854491127	 2.9045279195	 0.120269
H	-0.9470236377	 0.0994282511	 2.3477079626	 0.11388
H	-1.1951721244	-1.4165941474	 1.4519254429	 0.129931
H	 1.7258111071	-2.4360089304	 1.6169272605	 0.084627
H	 0.9789032122	-3.6874032216	-0.458512549	 0.104608
H	 0.307859763	-2.1270425455	-1.1354054752	 0.123011
H	 3.2651260782	-2.5762941112	-0.3167003766	 0.097836
H	 1.9783931759	-0.2198204033	-1.1456510798	 0.288446
