18
gdb 105330	2.31457	1.61619	1.19386	4.3133	75.57	-0.2489	0.0176	0.2665	1083.1807	0.148658	-398.082318	-398.073822	-398.072877	-398.115337	32.255	
N	-1.419860559	-0.5842855037	-0.0986146389	-0.503492
C	-0.0542344335	-0.0845477995	-0.1220378467	-0.21366
C	 0.7877469483	-0.4232845526	 1.1259582547	 0.139021
C	 2.1621531979	 0.2895858107	 1.358015712	-0.318451
C	 1.5709802579	 0.8046214837	 2.6672396862	 0.000354
C	 0.3394783768	 1.5703465297	 2.4259082272	-0.248316
N	 0.241290896	 0.0921767383	 2.4540106794	-0.155987
C	 0.9074122716	-1.8805257973	 1.229411425	 0.290143
N	 1.004196169	-3.0319333682	 1.261229799	-0.346851
H	-1.4196882984	-1.600507307	-0.0879625097	 0.246568
H	-1.8789129188	-0.2889789817	 0.7587866821	 0.243385
H	 0.4601289068	-0.4852662187	-1.0029383578	 0.127722
H	-0.0769738423	 1.0027097637	-0.2462210931	 0.112134
H	 2.987762101	-0.410600382	 1.4800487844	 0.140517
H	 2.4399853169	 1.048659791	 0.6211272419	 0.117576
H	 2.0710731282	 0.7796904143	 3.6288192825	 0.110732
H	-0.1569732003	 2.0144687781	 3.282641061	 0.136412
H	 0.2074870219	 2.1186330011	 1.497564871	 0.122194
