19
gdb 64910	2.1909	1.44253	1.04328	2.9147	83.73	-0.2431	-0.0191	0.224	1208.3143	0.155138	-385.863884	-385.853768	-385.852824	-385.898577	37.165	
C	-0.0913273461	 1.5500333735	 0.0223705914	-0.46717
C	-0.035460334	 0.0366691624	 0.0381511086	 0.18048
C	 1.2669131499	-0.7001711658	-0.2335499176	-0.358358
C	 0.712771234	-0.725865709	 1.1678256254	 0.101799
C	 1.4061998288	 0.0732716833	 2.2654872672	-0.45637
C	 0.1512083454	-1.966271958	 1.6472537826	 0.274424
C	-0.2797436887	-2.9919443876	 2.1049715418	-0.450434
C	-1.2570693815	-0.6246212575	-0.5067173745	 0.116492
O	-2.217558048	-0.0214102372	-0.9192788703	-0.269614
H	 0.873296624	 2.0028526636	 0.2565659318	 0.113796
H	-0.3973426834	 1.8901020317	-0.9706603054	 0.141467
H	-0.8336563217	 1.9245502637	 0.733257108	 0.13552
H	 1.2258397764	-1.6161229103	-0.8130373503	 0.131496
H	 2.1432187315	-0.0867152549	-0.4144074805	 0.127062
H	 1.907745334	 0.9576448869	 1.8692187096	 0.121451
H	 0.6897434953	 0.3925449078	 3.0278213438	 0.136305
H	 2.1587908195	-0.553534267	 2.7527918015	 0.136422
H	-0.6723837455	-3.8980378498	 2.4955354347	 0.19838
H	-1.2213532699	-1.733870076	-0.5235337177	 0.086853
