16
gdb 9560	4.2636	1.30612	1.23486	0.4804	79.53	-0.2381	0.0244	0.2625	1029.543	0.127278	-309.393137	-309.384514	-309.38357	-309.425668	32.511	
C	-0.0430611102	 1.5423314023	-0.0768627437	-0.455944
C	 0.0129723361	 0.0241742564	-0.0314475938	 0.126125
C	 1.3440623541	-0.6660644357	-0.2420718915	-0.308529
C	 0.7383836898	-0.6687524406	 1.146245141	-0.240384
C	 1.3150014146	 0.1028428314	 2.2055321547	 0.322725
C	 1.7950240046	 0.7423585647	 3.1047677057	-0.438284
C	-1.1641414519	-0.6473731084	-0.5154904727	 0.27249
C	-2.1566670242	-1.1928076403	-0.9214184832	-0.446473
H	 0.8656200256	 1.9754521399	 0.3469181028	 0.130668
H	-0.1485438403	 1.8865167392	-1.1099813346	 0.127506
H	-0.8971881533	 1.9149435143	 0.495768367	 0.133454
H	 1.354471899	-1.6045145943	-0.7830027437	 0.129693
H	 2.2050417409	-0.0276089134	-0.4037906549	 0.128729
H	 0.2860810402	-1.6049091375	 1.4571196433	 0.127193
H	 2.2180447342	 1.3044624759	 3.9000035969	 0.196753
H	-3.031654389	-1.6758412639	-1.2798258735	 0.194278
