18
gdb 94776	3.86737	1.16531	1.02157	3.0342	74.79	-0.2552	-0.0368	0.2184	1186.3869	0.147414	-439.077114	-439.068841	-439.067897	-439.109998	31.04	
C	 0.2093900509	 1.5825239809	-0.0437552258	-0.404588
C	 0.074108592	 0.0697340822	 0.0341470853	 0.153596
O	 0.7066004265	-0.5020807998	-1.109397217	-0.27243
C	 1.2032286055	-1.7996019524	-0.8006532875	-0.13196
C	 1.4571130342	-1.7925248885	 0.6921773613	 0.219727
N	 2.2053794156	-0.591657186	 1.1454514605	-0.351312
C	 0.752338192	-0.5848114036	 1.2320312447	-0.131508
C	 1.5232739813	-3.0322209284	 1.4895196533	 0.074417
O	 1.3829134645	-4.1447495875	 1.0448807572	-0.259759
H	 1.2639923992	 1.8638577614	 0.0034829996	 0.141952
H	-0.2106340302	 1.9465086968	-0.9849908154	 0.131545
H	-0.3281757509	 2.0612979436	 0.7808757858	 0.111509
H	-0.9921193188	-0.2143351152	 0.0640641754	 0.073732
H	 0.4765634414	-2.5899847218	-1.0367572261	 0.114511
H	 2.1065707143	-1.9612540301	-1.3952186751	 0.123359
H	 2.6076789375	-0.7694645879	 2.065871037	 0.238141
H	 0.2594012164	-0.5922411966	 2.1996541202	 0.105237
H	 1.7244310685	-2.8571587671	 2.5746460366	 0.063828
