19
gdb 82552	3.49276	1.31537	1.27107	1.769	74.5	-0.2311	0.0729	0.304	1073.9669	0.159809	-422.990519	-422.982834	-422.98189	-423.022643	31.131	
O	-0.1425713631	 1.4795603985	-0.1145479611	-0.427481
C	-0.0505824755	 0.0960485785	-0.0134603617	 0.104028
C	-1.3067600658	-0.7624818961	 0.0891936673	-0.125386
C	-2.6259736449	-0.0730445453	-0.2527716771	-0.326817
C	-2.564854061	 0.0384181023	-1.7742535412	 0.444143
C	-3.5423483395	-0.635476807	-2.6961030953	-0.314866
C	-3.4533837587	 0.8835054169	-2.6191123002	-0.334112
O	-1.1878588481	 0.0061394294	-2.1519210839	-0.310023
C	-0.4887596412	-0.7442135524	-1.1812785511	 0.000343
H	-0.3833491373	 1.6625228972	-1.0343366917	 0.295737
H	 0.8141104195	-0.2281160844	 0.5591276502	 0.098085
H	-1.3022725562	-1.6200707465	 0.7510006386	 0.092861
H	-3.4858645581	-0.6589626476	 0.0791056515	 0.107415
H	-2.6802693411	 0.9171376944	 0.2122020626	 0.120945
H	-3.1378590617	-1.1071350048	-3.5843876442	 0.122359
H	-4.4096701119	-1.127026021	-2.2676422835	 0.112297
H	-4.2556450463	 1.4298652492	-2.1343484	 0.118519
H	-2.9978407153	 1.3961251712	-3.4590492389	 0.125372
H	 0.0796097062	-1.5808253625	-1.5737511103	 0.096581
