16
gdb 1549	5.65588	1.37448	1.1651	3.797	62.02	-0.2737	0.036	0.3096	1004.2344	0.135337	-325.785476	-325.777074	-325.77613	-325.818433	28.484	
C	-0.0261036933	 1.3785754924	 0.020730767	-0.23377
O	 0.0058577752	-0.0308855224	-0.0177500202	-0.23516
C	 0.6392605064	-0.5349638384	-1.1673034913	-0.05124
C	 0.5709901888	-2.0706669043	-1.0920125619	-0.149264
C	-0.8782893859	-2.5912103393	-1.1011294638	-0.388795
C	 1.3519332474	-2.6502084814	-2.187793567	 0.256113
N	 1.9610344767	-3.098387979	-3.061770024	-0.319728
H	 0.9874015237	 1.8079833417	 0.0201499228	 0.112197
H	-0.5783637781	 1.7958768958	-0.8351224678	 0.111715
H	-0.5325610276	 1.6661837673	 0.9446158217	 0.134072
H	 0.1383241236	-0.1826286212	-2.0843853493	 0.104229
H	 1.6891690832	-0.2055370473	-1.2162779991	 0.108196
H	 1.0503254472	-2.3678364796	-0.1510938829	 0.137802
H	-1.3724136858	-2.3402886112	-2.0442568992	 0.133029
H	-0.9040205529	-3.6763896101	-0.9789712968	 0.134843
H	-1.4283423085	-2.124950803	-0.2822741383	 0.14576
