17
gdb 45619	4.0196	1.0002	0.85466	3.0931	76.26	-0.2447	-0.0199	0.2248	1319.1457	0.135244	-421.835808	-421.827764	-421.82682	-421.869268	29.842	
O	 0.0568315477	 0.0528898938	 0.0869123743	-0.300078
C	-0.0046586969	 1.2527199781	 0.0682328836	 0.395469
C	-1.2862958315	 2.0887749208	-0.0952965644	-0.369193
C	-0.7810003384	 3.5024471311	-0.0528328927	-0.196765
C	 0.5443476424	 3.5813955758	 0.1219452256	 0.349198
C	 1.1833021877	 2.2177375469	 0.2106918505	-0.435309
C	 1.3145575067	 4.8362955168	 0.1897401624	-0.027545
C	 2.5431079146	 4.9866267917	 0.9933582052	-0.188011
O	 2.6188696422	 4.8313917713	-0.4187853199	-0.232019
H	-1.7882385962	 1.8271755579	-1.0359545298	 0.141641
H	-1.9973987088	 1.8445142835	 0.704887126	 0.139794
H	-1.433009947	 4.3626472656	-0.1600595287	 0.09984
H	 1.69786805	 2.0272242674	 1.1611467177	 0.135599
H	 1.9233469777	 2.0402704804	-0.5782731243	 0.155272
H	 0.7381564271	 5.7404194844	-0.0084209284	 0.093416
H	 2.8056549134	 5.9726875683	 1.3748806341	 0.121413
H	 2.9164436393	 4.1486165464	 1.5793686488	 0.117277
