16
gdb 27571	3.27186	1.26842	0.91924	1.9149	89.94	-0.2387	-0.0398	0.1988	1233.9421	0.124485	-363.649321	-363.641129	-363.640185	-363.682718	30.512	
C	 0.0001715276	 1.5030230599	-0.0096390977	-0.475357
C	-0.0015114113	-0.0035025609	 0.0262270204	 0.327099
N	 0.0521560251	-0.6214886391	-1.1584584652	-0.36727
C	 0.0531847882	-1.963915981	-1.1817125264	 0.155937
C	 0.0005024719	-2.7459812149	-0.0193828993	-0.174511
C	-0.0550012549	-2.0979893477	 1.2057623674	-0.074893
C	-0.0562258837	-0.7080681971	 1.2333431138	-0.163673
C	 0.1112572452	-2.5987748228	-2.463660915	 0.224726
C	 0.1593136468	-3.164864873	-3.5245016328	-0.371559
H	 0.9032020987	 1.8696679422	-0.5076393787	 0.143349
H	-0.8535573617	 1.8697114365	-0.5880620784	 0.143353
H	-0.0457403999	 1.9326346213	 0.993932718	 0.116912
H	 0.0038821485	-3.8263508744	-0.0944737324	 0.110784
H	-0.0967982141	-2.6684681524	 2.1278405513	 0.109469
H	-0.0988568649	-0.1708402704	 2.1742817115	 0.101072
H	 0.2020963985	-3.6485299663	-4.4689255466	 0.194563
