21
gdb 118293	5.63391	0.58537	0.5527	5.3486	77.51	-0.2707	0.0145	0.2852	2006.924	0.179702	-461.38771	-461.376947	-461.376002	-461.424634	37.515	
C	-0.2913923433	 1.3274079003	 0.1498551576	-0.384175
C	 0.1180148182	-0.1447463941	 0.0663502508	-0.163299
C	 0.7581171828	-0.5123103716	-1.2773997071	-0.202696
C	 1.1183876031	-1.9963179013	-1.3923529243	 0.117371
O	-0.012651962	-2.8471655748	-1.2352736477	-0.424668
C	 1.8368660882	-2.3068666941	-2.7078069001	-0.110022
O	 2.3190155306	-3.6492794569	-2.7215159896	-0.175149
C	 1.4980373149	-4.6058774992	-3.2008768555	 0.19005
O	 1.7715077333	-5.7666678039	-3.1616790919	-0.277251
H	 0.5709875285	 1.9898426339	 0.0150472275	 0.115515
H	-1.0252571783	 1.5808598674	-0.6235684637	 0.11325
H	-0.7396659823	 1.5590103388	 1.1206826685	 0.118515
H	 0.8255372976	-0.3785758602	 0.8721482352	 0.10288
H	-0.752311161	-0.7883392238	 0.2339649907	 0.109591
H	 0.0746559388	-0.2457673637	-2.0993322559	 0.086766
H	 1.6643441613	 0.087690419	-1.4331521598	 0.103096
H	 1.7910966412	-2.2767001529	-0.572912345	 0.108833
H	-0.7142961325	-2.521169642	-1.8110158792	 0.280577
H	 1.1619633886	-2.1337246286	-3.5590256148	 0.10121
H	 2.7149196894	-1.6679094611	-2.8346205684	 0.125607
H	 0.5756441028	-4.1935301713	-3.6507025071	 0.063999
