21
gdb 39095	3.26193	1.65623	1.41286	1.354	80.65	-0.238	0.0819	0.3198	999.634	0.186859	-387.079424	-387.072547	-387.071603	-387.110503	29.181	
C	-0.1238657729	 1.5618408074	 0.1710492462	-0.301389
C	 1.4136488446	 1.4652973027	 0.015901451	-0.055844
C	 1.7761408667	 0.6640974925	 1.3013681663	-0.208942
C	 0.652582453	-0.4445769054	 1.2757221266	-0.300417
C	-0.0009262189	 0.0038963661	-0.0241187061	 0.480733
O	-0.9733257777	-0.7350470781	-0.6823376845	-0.325037
C	-0.9247064918	-0.3279113211	-2.0616618383	-0.090975
C	 0.4458443816	 0.3966199546	-2.3204243114	-0.311263
C	 1.1839235484	 0.2872643069	-0.97520144	-0.013708
H	-0.5218188517	 1.9309296836	 1.1202552064	 0.086275
H	-0.6246984852	 2.05991361	-0.6592827447	 0.097219
H	 2.0347416407	 2.3302859548	-0.2163120197	 0.059597
H	 2.7789973469	 0.2303014474	 1.2510124983	 0.097843
H	 1.7242424882	 1.2905385741	 2.1962047883	 0.097523
H	 1.0575296626	-1.4577832638	 1.2076929464	 0.101122
H	-0.0140106663	-0.3952605468	 2.1407675157	 0.100518
H	-1.0485996291	-1.2279272403	-2.6714905169	 0.107376
H	-1.7662180236	 0.3431382954	-2.2758415334	 0.100813
H	 1.0058652325	-0.09742885	-3.1170698253	 0.106683
H	 0.2791903265	 1.4280990425	-2.6404975555	 0.110321
H	 1.9759517054	-0.4672281227	-1.0075580393	 0.061551
