16
gdb 46616	3.1929	1.52614	1.05646	6.3736	72.9	-0.2166	-0.0137	0.2029	1078.4859	0.127422	-437.936023	-437.928842	-437.927898	-437.967768	27.394	
O	-0.112832915	-0.0437712496	-0.166278045	-0.36116
C	 0.0191579386	 1.1457981795	-0.0914647246	 0.373892
O	-1.1034999459	 1.9941097138	-0.0691611175	-0.254491
C	-0.7046500873	 3.3606651397	 0.0434494634	-0.188238
C	 0.7878028063	 3.2855128448	 0.0577110527	 0.303365
C	 1.1852400321	 2.006971959	-0.0258463735	 0.041808
C	 2.6853751306	 1.9306927082	 0.0654349109	-0.35923
C	 3.0657645804	 3.444439308	-0.0792198951	-0.170455
N	 1.8070796545	 4.1867418674	 0.2218232552	-0.393425
H	-1.1055949234	 3.9286463335	-0.8059049854	 0.129347
H	-1.1149923663	 3.7913172855	 0.9655084808	 0.138299
H	 3.0130443979	 1.5327292252	 1.0332963092	 0.126875
H	 3.1564024325	 1.3200823052	-0.7091368327	 0.128574
H	 3.8603254189	 3.7504587755	 0.605025368	 0.122721
H	 3.3935995629	 3.6611965092	-1.1039440225	 0.11561
H	 1.7149400933	 5.1160568551	-0.1628261041	 0.246507
