15
gdb 46293	3.2678	1.37925	1.25841	3.1559	65.58	-0.2392	-0.0107	0.2284	1008.2838	0.114513	-453.972551	-453.965213	-453.964269	-454.004807	27.116	
O	 0.0094988814	 0.0512537747	 0.1580400153	-0.322888
C	 0.0012911837	 1.2258598181	-0.0214470959	 0.403571
O	-1.0543650863	 2.0252247761	-0.3742584144	-0.241173
C	-0.2027042835	 3.2136450151	-0.4755591213	-0.122363
C	 1.0151264013	 2.3908590369	 0.0046022403	 0.125372
C	 1.6691274003	 2.7397439202	 1.3827579034	-0.236295
N	 3.1216495959	 2.6520884257	 1.1895687422	-0.232738
C	 3.3038133062	 2.3613317822	-0.0351772886	 0.069316
N	 2.1796305176	 2.2891640854	-0.8545757625	-0.358685
H	-0.1489601241	 3.5692271496	-1.5064076125	 0.129512
H	-0.5547317964	 4.0012238458	 0.1942982554	 0.128537
H	 1.3914524355	 3.7515954439	 1.6987862629	 0.124139
H	 1.3550273134	 2.0497878816	 2.1720838632	 0.140448
H	 4.2825370806	 2.2159820739	-0.4824977258	 0.136374
H	 2.1708963245	 1.6208139808	-1.6121694816	 0.256874
