25
gdb 117156	3.53316	0.65615	0.64689	2.3163	90.14	-0.2355	-0.0058	0.2297	1962.3019	0.225704	-389.529884	-389.517998	-389.517054	-389.568887	41.673	
C	-0.0790124366	 1.5932176775	-0.0680507542	-0.38647
C	 0.1043304688	 0.079300444	 0.0609615329	-0.160186
C	 0.6252858863	-0.5662598378	-1.2220514112	-0.291489
C	 0.7897379191	-2.0769172929	-1.1422712545	 0.376269
O	 0.4290010621	-2.712031778	-0.1758784537	-0.323706
C	 1.4583067581	-2.7612383856	-2.3391680406	-0.061858
C	 2.9355523786	-3.012978232	-1.9738027233	-0.392215
C	 0.7016562816	-4.0521164315	-2.7053381487	-0.160111
C	 1.2379642211	-4.7680073892	-3.947804628	-0.397308
H	 0.8663705086	 2.092040244	-0.3104516685	 0.111481
H	-0.7943772543	 1.8429450236	-0.8600282373	 0.111988
H	-0.4526815145	 2.0269487671	 0.8645522841	 0.115164
H	 0.7957979231	-0.1484624647	 0.8798366634	 0.108724
H	-0.84273303	-0.3962775454	 0.3362502804	 0.114459
H	-0.0494982847	-0.3591937221	-2.0672587177	 0.119782
H	 1.5888085041	-0.1312943681	-1.525989126	 0.115648
H	 1.4284411972	-2.072044785	-3.1938250835	 0.069228
H	 3.483103861	-3.4421998783	-2.8166552644	 0.121222
H	 3.4417044854	-2.0835300568	-1.6919972509	 0.114487
H	 3.0027793395	-3.7031258107	-1.1270972127	 0.135366
H	 0.7225724998	-4.7201046593	-1.8380622208	 0.119279
H	-0.3546110059	-3.8018151281	-2.865245501	 0.094277
H	 1.2403434975	-4.1058802305	-4.8214741641	 0.110896
H	 2.2597430773	-5.1323883501	-3.8046950929	 0.119247
H	 0.6150197066	-5.6340753702	-4.1922178869	 0.115826
