23
gdb 106677	2.44786	1.28578	1.07072	1.6054	86.5	-0.2225	0.084	0.3066	1296.7043	0.203552	-388.27203	-388.261961	-388.261017	-388.30663	37.995	
C	-0.1260641658	 1.5206924014	 0.1223468844	-0.373491
C	 0.1030306316	 0.0120163864	-0.0479190983	-0.289157
C	 0.7617416465	-0.5992799228	 1.1496643641	 0.459144
C	 0.0964012209	-1.0582144399	 2.4164779572	-0.392641
C	 1.0040296706	-2.0095765308	 1.6497856691	 0.177525
C	 0.5690551954	-3.3611965531	 1.1617778184	-0.497493
C	 2.4474830148	-1.5401177381	 1.8738464174	 0.102773
C	 3.5100404038	-2.135278343	 0.9715490766	-0.404798
O	 2.1044859036	-0.1854995241	 1.4482474182	-0.349251
H	 0.8222505742	 2.0330939741	 0.307563186	 0.137031
H	-0.5785127432	 1.9526490113	-0.7752049684	 0.108062
H	-0.7882803126	 1.723606168	 0.9700039383	 0.117834
H	-0.8518030319	-0.4984466497	-0.2215528612	 0.098714
H	 0.7282607776	-0.1692099787	-0.930899427	 0.102564
H	 0.4065585282	-0.6369826094	 3.369770473	 0.106206
H	-0.962447737	-1.2898953222	 2.3394600812	 0.105372
H	-0.4693205389	-3.335345515	 0.8155634451	 0.119492
H	 1.1862255577	-3.713992738	 0.3287224414	 0.120264
H	 0.6256823213	-4.1118064615	 1.9597698737	 0.120982
H	 2.7850111467	-1.5430166212	 2.9196432807	 0.070906
H	 3.1785188155	-2.145726453	-0.0710816646	 0.120128
H	 4.4250774997	-1.5386569065	 1.0335833258	 0.126277
H	 3.7487179012	-3.1607587042	 1.2746107589	 0.113559
