14
gdb 127712	3.30797	1.49744	1.0375	3.9426	69.77	-0.2646	-0.0812	0.1835	1067.1515	0.102021	-466.188009	-466.180269	-466.179325	-466.220572	28.305	
C	-0.0327189935	 1.451442989	 0.0156986898	-0.308747
N	-0.0076501822	-0.0062823157	 0.0577189639	-0.048542
N	-0.0417676249	-0.6291694214	-1.1311361567	-0.021454
N	-0.0254368076	-1.8880016022	-1.2369683525	-0.260975
C	 0.0309784482	-2.7079920807	-0.072876428	 0.485364
O	 0.0479385852	-3.9090768515	-0.1370185491	-0.34054
N	 0.0651986843	-2.0314698661	 1.1421477721	-0.434345
C	 0.0487274941	-0.6567827465	 1.2954268029	 0.507618
N	 0.0772749254	 0.0302426096	 2.3638220752	-0.555321
H	 0.8643480225	 1.8545661257	 0.4900133044	 0.160331
H	-0.0759246427	 1.7347933749	-1.0346750161	 0.159164
H	-0.9050579613	 1.8260516213	 0.5550682044	 0.160312
H	 0.1052364722	-2.6097291602	 1.9702951443	 0.271834
H	 0.1175493605	-0.5561109562	 3.1948632654	 0.225301
