17
gdb 49084	3.04334	1.78728	1.31261	2.8497	72.34	-0.2493	-0.0365	0.2128	958.303	0.136648	-421.786167	-421.779095	-421.778151	-421.818203	27.548	
O	-0.8818749161	 1.1029110131	-0.0054939267	-0.254475
C	 0.2927794449	 0.8564902041	 0.1130983423	 0.075129
C	 1.3935709955	 1.8739408038	 0.0598960796	 0.396663
O	 2.6065817226	 1.2980745813	 0.5119989725	-0.334708
C	 3.5453273292	 2.3775145092	 0.366929096	-0.116859
C	 2.6399804174	 3.4637293608	-0.1918157203	-0.067498
C	 1.6620905732	 2.7747542641	-1.2040979016	-0.117391
C	 0.5390976532	 3.7353109813	-0.7524513912	-0.258015
C	 1.2659011499	 3.3507925064	 0.5577701351	-0.113095
H	 0.6610128444	-0.1806168817	 0.2678084058	 0.095903
H	 3.9804899273	 2.6287651874	 1.3416565264	 0.108844
H	 4.3517545265	 2.0838863117	-0.3158687669	 0.108238
H	 3.0530780118	 4.4457723835	-0.4229521942	 0.081294
H	 1.8985698513	 2.4178453125	-2.2072591011	 0.083222
H	 0.6574030178	 4.7745849337	-1.0688840175	 0.095598
H	-0.4869835412	 3.390067065	-0.8646080701	 0.133524
H	 1.0466859721	 3.6650311238	 1.578677162	 0.083625
