14
gdb 131294	6.36715	0.92887	0.8147	2.9905	68.93	-0.2354	0.0092	0.2446	1306.3232	0.10153	-432.852773	-432.844755	-432.843811	-432.886426	28.946	
O	 1.1618304206	 0.9032512892	 0.7544712556	-0.405858
C	 0.4682741149	-0.1164476847	 0.2345014051	 0.434136
N	 0.953781324	-0.8404222237	-0.7593482507	-0.326452
N	-0.0600915829	-1.7347577554	-0.9563015246	 0.02898
C	 0.0897359962	-2.738838389	-2.0003334606	-0.262235
C	-1.0635949582	-3.6218798386	-2.0973018126	 0.269627
C	-2.0032011393	-4.3624030723	-2.1962762181	-0.414008
C	-1.0614113408	-1.4986322204	-0.093684295	 0.028777
N	-0.7629248931	-0.4705491204	 0.6865593658	-0.374785
H	 0.6148519929	 1.2765007911	 1.4561878425	 0.312073
H	 0.2555893379	-2.2207478801	-2.9521486833	 0.16784
H	 0.997392853	-3.3170523497	-1.7912882633	 0.167843
H	-2.8325194141	-5.0203394804	-2.2876905338	 0.214415
H	-1.9657827013	-2.0848616857	-0.0696174569	 0.159645
