13
gdb 21660	3.54956	1.87059	1.22674	2.8839	63.5	-0.2243	-0.0378	0.1866	899.5038	0.097697	-394.814647	-394.80765	-394.806706	-394.845823	25.75	
N	-0.0175169096	 1.3516633498	 0.1450391425	-0.584984
C	 0.0490375068	-0.0268185682	 0.0377252768	 0.304421
N	-1.0580325252	-0.7602249987	 0.0308536656	-0.305725
N	-0.6020376421	-2.046306017	-0.0048667059	-0.182545
C	 0.7295549845	-2.1435731737	-0.0343659215	-0.080116
C	 1.2251555544	-0.842718861	-0.0040674812	 0.074048
C	 2.6216951288	-0.4533776945	 0.0061853313	 0.053925
O	 3.5596539068	-1.2240374493	-0.0403539946	-0.294892
H	 0.692551989	 1.8534780123	-0.3675129669	 0.255934
H	-0.9431555701	 1.7110449281	-0.0456321906	 0.258652
H	-1.2766927021	-2.792262304	-0.0125251377	 0.282982
H	 1.2520240514	-3.0860627491	-0.0681521612	 0.166182
H	 2.7981437274	 0.6451389654	 0.0665644235	 0.05212
