19
gdb 114377	2.48925	1.3549	1.07575	2.2546	76.64	-0.2397	-0.0279	0.2118	1173.8082	0.158514	-422.993055	-422.984116	-422.983172	-423.027041	32.764	
O	-0.3984544086	 1.6442594779	-0.2543131286	-0.429396
C	-0.1216227404	 0.2486419893	-0.1579024429	-0.120384
C	-1.4362549873	-0.474327451	-0.3790250553	 0.057127
C	-2.0744836154	-0.6002910916	-1.8024432911	-0.256445
C	-2.317550485	-2.0916645093	-1.5225229965	-0.077845
C	-1.0085802397	-2.8573304702	-1.3381396755	-0.087902
C	 0.1790807829	-2.6810036838	-2.2095334836	 0.131792
O	 0.7278218631	-1.6461148197	-2.5125728363	-0.263811
C	-1.5621380008	-1.9942359222	-0.2096849676	-0.129589
H	 0.4366971213	 2.1042847381	-0.3737900767	 0.286345
H	 0.6147060728	-0.0665491561	-0.9020672609	 0.125746
H	 0.2671752162	-0.0076344215	 0.8432505947	 0.072651
H	-2.175145409	-0.011388294	 0.284459372	 0.090873
H	-2.9974576795	-0.0290249351	-1.911602027	 0.10876
H	-1.4135857175	-0.3792645076	-2.6420946284	 0.126344
H	-3.2218153808	-2.6421741236	-1.752536092	 0.097958
H	-1.1987492469	-3.9105494423	-1.1417166854	 0.095606
H	 0.5445152799	-3.6435973766	-2.6363778783	 0.078738
H	-1.7756205854	-2.4921384207	 0.7300815893	 0.093434
