17
gdb 79419	2.7105	1.68389	1.29865	1.549	74.88	-0.2312	-0.028	0.2032	995.0423	0.135895	-421.712821	-421.705346	-421.704402	-421.744725	29.368	
O	 0.1672433576	 1.4523495523	 0.2338688599	-0.409666
C	 0.0529114166	 0.0597791755	 0.0772876452	-0.054571
C	-1.3668935579	-0.5975652474	 0.0875786394	-0.012733
C	-2.7829229761	-0.1991111059	-0.4524444513	-0.090549
C	-2.0824639217	 0.6305316802	-1.545513624	-0.237802
C	-1.2910153325	-0.734662291	-1.4560115591	 0.127389
C	-2.6826951345	-1.4479347163	-1.4356071634	-0.314797
C	 0.2295057882	-0.5375254044	-1.4098101725	 0.285063
O	 1.1858548142	-0.7678373499	-2.0831209226	-0.294239
H	 1.0733581603	 1.6991279232	 0.0147147222	 0.296959
H	 0.7195817481	-0.4726167273	 0.7725088442	 0.097621
H	-1.3391053175	-1.5345673474	 0.6504557945	 0.079663
H	-3.6659902947	 0.0754612504	 0.1301659379	 0.080026
H	-2.6209406349	 0.776032191	-2.4851446328	 0.09643
H	-1.5634650336	 1.5301578935	-1.2242866168	 0.137907
H	-2.701367425	-2.4395367038	-0.9773298415	 0.106957
H	-3.3016278668	-1.4014010825	-2.3350598195	 0.106343
