16
gdb 70265	2.92154	1.51387	1.23865	3.5778	68.15	-0.2735	0.0102	0.2837	1025.947	0.123403	-437.872044	-437.864048	-437.863104	-437.904672	29.965	
C	-0.1705611673	 1.5202262251	 0.0484089026	-0.471292
C	-0.0333200794	 0.0263827752	 0.0713757724	 0.384139
C	-0.8988553361	-0.9104610464	 0.8866250641	-0.34882
C	 0.5901120317	-0.8124586202	 1.1395875613	 0.016214
O	 1.3780242456	-1.7946443654	 0.4856442465	-0.245003
C	 1.5548009053	-1.3111067962	-0.8262097998	 0.036524
O	 0.4174106955	-0.554231045	-1.1570761357	-0.27457
C	 2.7903452091	-0.4750045474	-0.914841181	 0.287874
N	 3.7462227487	 0.1693246481	-0.9888684704	-0.32349
H	 0.7789133896	 1.9937739907	-0.2177868577	 0.147015
H	-0.9265990775	 1.8248151782	-0.6820636768	 0.138716
H	-0.4811606751	 1.8884458985	 1.0302579249	 0.12624
H	-1.5623494909	-0.4709431243	 1.6245437915	 0.124144
H	-1.2578914179	-1.8106672005	 0.4021289237	 0.133903
H	 1.0105740875	-0.4312920852	 2.0626611945	 0.123336
H	 1.6402574813	-2.1570213153	-1.5131404202	 0.14507
