20
gdb 59799	4.20374	0.76996	0.71451	0.774	82.84	-0.2254	-0.0085	0.2169	1636.9157	0.169993	-436.516262	-436.505987	-436.505043	-436.551814	37.363	
C	 0.1294491244	 1.4735110855	-0.1471422289	-0.373561
C	-0.0074199702	-0.0580697632	-0.1955919137	 0.053801
C	 0.2596735887	-0.5893968615	-1.6075735326	-0.37358
N	 0.9376140946	-0.68339601	 0.7198010161	-0.334269
C	 0.5993495196	-0.8839702851	 1.9331489097	 0.459609
N	-0.5792093276	-0.6218163513	 2.5750671464	-0.571413
N	 1.5767825336	-1.5257920702	 2.7339864873	-0.341646
C	 1.5734438699	-1.7659884433	 4.0737605841	 0.175563
O	 0.6811953312	-1.4927463131	 4.8557676177	-0.332396
H	 1.1523745185	 1.7654118038	-0.4049526501	 0.123883
H	-0.5562596703	 1.951501524	-0.8545682592	 0.109827
H	-0.0849573894	 1.8657968071	 0.8526896807	 0.102187
H	-1.0483620776	-0.3215107853	 0.0633358416	 0.058195
H	 1.2824988157	-0.3475166069	-1.9138254503	 0.11728
H	 0.1488432632	-1.6770070034	-1.6362338274	 0.11304
H	-0.4350126626	-0.1504131094	-2.3312509698	 0.101844
H	-1.1921400226	 0.0568246072	 2.1598259016	 0.262009
H	-0.5809913545	-0.7202714893	 3.5832103618	 0.283438
H	 2.395386555	-1.7770579926	 2.1988271816	 0.26629
H	 2.5076771104	-2.2604291529	 4.3960795236	 0.099901
