21
gdb 103486	3.01243	1.23651	1.13349	2.4504	78.47	-0.2393	0.0719	0.3112	1182.2587	0.18279	-424.212773	-424.203767	-424.202822	-424.246053	34.313	
C	-0.03071636	 1.7495160494	 0.505978511	-0.484246
C	-0.0111421675	 0.3091665387	 0.0243709151	 0.289603
C	-1.3515260503	-0.0921240826	-0.5726758887	-0.138597
O	-1.3140422527	-1.4404393649	-1.0168837906	-0.419783
C	 1.2128810689	-0.3172989773	-0.608945081	-0.098755
C	 2.5648032329	 0.3285903514	-0.3772934724	-0.109914
O	 2.6814069118	 0.5435145097	 1.0298591366	-0.256953
C	 1.8429594344	-0.3830058066	 1.7215483003	-0.109915
C	 0.7433083639	-0.7802069788	 0.7563909393	-0.098755
H	 0.9248186068	 2.0498998997	 0.9364674262	 0.151043
H	-0.2597197811	 2.4307682967	-0.3225719499	 0.109803
H	-0.8067691325	 1.891508115	 1.2679647086	 0.109804
H	-2.1357531881	 0.046989071	 0.1903006403	 0.087147
H	-1.5860426095	 0.5888430547	-1.4080086978	 0.087147
H	-2.1737749164	-1.6581162191	-1.3865855754	 0.29118
H	 1.0788859911	-0.9503990868	-1.4770231346	 0.099562
H	 3.3606888326	-0.3408943342	-0.7411925166	 0.092916
H	 2.6961189883	 1.3037584254	-0.8605545304	 0.103115
H	 2.4098063998	-1.2782773944	 2.023606318	 0.092916
H	 1.4951310878	 0.11982203	 2.6314479078	 0.103116
H	 0.2705612798	-1.7472521671	 0.8732810342	 0.099567
