21
gdb 22693	4.40724	0.65253	0.60954	0.8449	83.72	-0.2347	0.0147	0.2495	1853.1717	0.180312	-420.337804	-420.327484	-420.32654	-420.374559	36.748	
C	-0.3783383648	 1.445017091	-0.0290619157	-0.469915
C	 0.0031277	-0.0123133264	-0.0220532567	 0.353385
C	 0.1656689004	-0.7441074805	 1.2834063396	-0.270636
C	 1.3907711998	-0.2726550222	 2.0822658541	-0.142781
N	 1.4331299956	-0.9336154081	 3.3812230092	-0.058772
C	 2.1320770763	-2.2146912734	 3.428692873	-0.21989
C	 2.7362404623	-0.9951990778	 4.0323126839	-0.222814
N	 0.2073039425	-0.6966509034	-1.0831990215	-0.165648
O	 0.0433489452	 0.0845373298	-2.24153972	-0.401539
H	 0.4303133032	 2.0560158236	-0.4446483441	 0.145331
H	-1.2468644884	 1.6031935306	-0.6755608903	 0.148485
H	-0.6083347993	 1.8026361367	 0.9764908824	 0.120155
H	-0.7251210029	-0.5943152863	 1.9061341524	 0.114771
H	 0.2541794058	-1.8144041519	 1.0782587814	 0.115928
H	 2.3048945983	-0.4565149323	 1.4888165872	 0.088953
H	 1.334931529	 0.8080113926	 2.2607476176	 0.104493
H	 1.681848841	-2.9788038482	 4.0556702848	 0.117329
H	 2.5802800319	-2.585504125	 2.5077351387	 0.112509
H	 3.5877569175	-0.5559646714	 3.5144094164	 0.109173
H	 2.7343941321	-0.8500657709	 5.1088863665	 0.116818
H	 0.1985668346	-0.5592418067	-2.9403396789	 0.304666
