21
gdb 96758	2.17317	1.44819	0.97425	2.8713	83.5	-0.2136	0.0352	0.2488	1287.6791	0.180141	-420.393855	-420.382937	-420.381992	-420.430771	37.715	
C	 0.3247200952	 1.3932686636	 0.3624827611	-0.33267
N	 0.24871403	-0.0508027088	 0.2161332616	-0.356268
C	 0.6043996838	-0.6131985648	-0.8604079981	 0.363079
C	 0.4826548429	-2.0833417956	-1.2440409425	 0.021042
O	-0.8018592602	-2.6316061538	-1.104979581	-0.432752
C	 0.9091489208	-1.6333297693	-2.6842939232	 0.003303
C	-0.1486389286	-1.7446769016	-3.7709791965	-0.39032
N	 1.0943735952	-0.286532435	-2.1110046637	-0.09152
C	 1.5768488893	 0.9093426066	-2.7535201177	-0.345175
H	 1.3606589379	 1.7419876722	 0.4844007128	 0.113069
H	-0.1143332443	 1.9402831735	-0.485373248	 0.10554
H	-0.2202344152	 1.6908001361	 1.2631489164	 0.118689
H	 1.237472835	-2.7212422061	-0.7665552424	 0.089219
H	-1.2289077915	-2.1270804979	-0.4011599969	 0.296715
H	 1.857235792	-2.0742725563	-3.0207647425	 0.071363
H	-1.1108800883	-1.3688627174	-3.415873329	 0.127394
H	 0.1461613242	-1.1836362703	-4.6641314325	 0.110468
H	-0.2809945277	-2.7916081991	-4.0599492534	 0.129972
H	 0.8886260812	 1.2691866744	-3.5303252492	 0.12711
H	 1.7014402283	 1.7007016055	-2.0139520543	 0.145958
H	 2.55175839	 0.7256170141	-3.2244397508	 0.125784
