21
gdb 75399	2.33485	1.54904	1.07543	0.3378	92.85	-0.2107	-0.0254	0.1853	1201.0852	0.184064	-349.96229	-349.953622	-349.952678	-349.995759	33.68	
C	-0.1133972688	 1.5068784328	 0.1046198858	-0.473094
C	-0.0644333067	 0.0042467821	 0.0475787141	 0.338586
C	-0.0513578871	-0.668683536	-1.1051722341	-0.14336
C	 0.0193023447	-2.1716042007	-1.2349131098	-0.328564
C	 1.3743640814	-2.8036964418	-0.9653667187	-0.063428
C	 2.3160745159	-2.5632557473	-0.0351284079	-0.059748
C	 2.445591491	-1.625977354	 1.0829035028	-0.042732
C	 1.5489228298	-0.8558487274	 1.7168957336	-0.082982
C	 0.0805660796	-0.7185206027	 1.3723762865	-0.362354
H	 0.7653856164	 1.9130997726	 0.6213806432	 0.125479
H	-0.1518437817	 1.9474987885	-0.8952383122	 0.119012
H	-0.9922194803	 1.8526485637	 0.664584702	 0.119382
H	-0.0689674276	-0.1069286692	-2.0368549773	 0.07811
H	-0.7323826494	-2.6545580297	-0.593901759	 0.119592
H	-0.2691445304	-2.4444951615	-2.2552054168	 0.101662
H	 1.6131684753	-3.6118330242	-1.6553378537	 0.088625
H	 3.1952775317	-3.2001958741	-0.1265184424	 0.081754
H	 3.4592202999	-1.5884645875	 1.4786827459	 0.083171
H	 1.9130261952	-0.2431302251	 2.5381488122	 0.08836
H	-0.4336964707	-0.1680989374	 2.1668477667	 0.095969
H	-0.3779963182	-1.711142521	 1.3246894789	 0.116559
