17
gdb 32269	2.93418	1.44959	1.01998	2.4632	79.73	-0.2088	-0.0163	0.1925	1137.6425	0.138934	-418.065346	-418.057497	-418.056553	-418.097513	30.791	
N	 0.0982972306	 1.3894760506	-0.0571880427	-0.599262
C	 0.054171828	 0.0026465194	-0.0543628651	 0.253934
C	-1.1498713699	-0.7086505912	-0.0412908333	-0.155924
C	-1.1220650901	-2.0953168686	 0.0130295023	-0.109065
C	 0.1083180213	-2.7436276463	 0.0447215811	-0.038643
N	 1.2687136404	-2.0826318276	 0.0321136922	-0.31
C	 1.2520642312	-0.750126181	-0.0044324065	 0.22775
C	 2.5900632345	-0.0490222674	 0.0286424554	-0.179552
O	 2.7634426967	 0.8933909575	-1.040288091	-0.416773
H	 0.9199988666	 1.769976022	-0.5105975763	 0.265824
H	-0.7580919193	 1.8466466102	-0.3329182001	 0.242098
H	-2.0940720113	-0.1719196767	-0.072826426	 0.089806
H	-2.044217862	-2.6664275825	 0.0228935242	 0.096766
H	 0.1685390651	-3.8277971332	 0.0793951821	 0.099597
H	 2.6867264456	 0.5502377333	 0.9416228118	 0.124587
H	 3.3788138954	-0.8092381429	 0.0273550798	 0.119905
H	 2.6981680374	 0.4015268245	-1.866188998	 0.288952
