15
gdb 98930	4.3244	0.83211	0.70745	6.4449	72.92	-0.2577	-0.0461	0.2116	1529.6893	0.110132	-453.963951	-453.95392	-453.952976	-454.000458	33.816	
C	 0.1589057515	 1.3906864178	-0.0867924393	-0.326442
N	-0.0832785358	-0.0418558452	-0.0861107313	-0.372684
C	-1.3520789208	-0.524303849	 0.1333645712	 0.516922
O	-2.302607598	 0.157698601	 0.4257687873	-0.346618
N	-1.3919416794	-1.9377539612	 0.0268362478	-0.43537
C	-2.5339569267	-2.7312366863	-0.0213710219	 0.322732
O	-3.6674888608	-2.3332363626	-0.1126311136	-0.300563
C	-2.1982968355	-4.1520475037	 0.0316864968	 0.184708
C	-1.9558923026	-5.3292091991	 0.0700129822	-0.38814
H	 1.1684877706	 1.5963037422	 0.2787820925	 0.126716
H	 0.0430742971	 1.8346297947	-1.0834414806	 0.130805
H	-0.5693113949	 1.8536296738	 0.5791703345	 0.173431
H	 0.5618984781	-0.6181873873	-0.6024745596	 0.242186
H	-0.5176474587	-2.4387987692	 0.0780226589	 0.257278
H	-1.7614591542	-6.3737317359	 0.1063520854	 0.215039
