15
gdb 3250	6.201	2.37357	2.1936	1.5784	61.05	-0.2252	0.0797	0.3049	651.4974	0.125002	-308.452306	-308.446418	-308.445474	-308.481637	23.486	
C	-0.0589254105	 1.4890020675	-0.0069524058	-0.334544
C	 1.2527015553	 0.7088369529	 0.0390393236	-0.344658
C	-0.0525384018	 0.000388056	-0.0797072415	 0.479622
O	-0.5509668726	-0.8218055798	 0.9933142392	-0.315991
C	-0.9385186055	-1.817020083	 0.0368635378	 0.103351
C	-1.9805553208	-1.2897879521	-0.8975807731	-0.298876
C	-0.5150351789	-0.9682387508	-1.1385638951	-0.212916
H	-0.4008636312	 1.9350605579	 0.9205813247	 0.126141
H	-0.3000324538	 2.0544124901	-0.9010300326	 0.117071
H	 1.9060579482	 0.7397828524	-0.8271974678	 0.114999
H	 1.7630088258	 0.6452888062	 0.9938586857	 0.126284
H	-0.7717483759	-2.8559775715	 0.2936270785	 0.105727
H	-2.4018354386	-2.0162469778	-1.5860712022	 0.113036
H	-2.6658082298	-0.5190378466	-0.5568718959	 0.11882
H	 0.01835932	-1.2242367615	-2.0437365955	 0.101934
