17
gdb 118616	2.00331	1.18005	0.88257	2.8212	72.16	-0.2636	-0.0059	0.2577	1348.463	0.131623	-458.925592	-458.915285	-458.914341	-458.962591	34.603	
C	 0.3153778141	 0.6615696702	 0.5113615723	-0.238411
O	-0.2869400803	 0.2760898849	-0.7146145051	-0.22553
C	 0.4837309239	-0.55668633	-1.5307279519	-0.085942
C	 0.4942586241	-2.045018823	-1.1286814128	-0.106152
O	 1.3445544741	-2.1808054084	 0.0359525092	-0.186002
C	 1.8580097688	-3.4058665564	 0.2814142192	 0.179293
O	 2.5515296637	-3.6299224893	 1.2254802568	-0.266978
C	-0.8379512312	-2.5792015669	-0.8692841642	 0.370267
C	-1.9290507746	-3.0365121938	-0.6636898223	-0.461421
H	 0.4030376404	-0.1749719823	 1.2121903733	 0.136424
H	 1.3168997744	 1.0850509951	 0.3455769985	 0.108588
H	-0.3286439322	 1.4312068826	 0.9427617715	 0.12812
H	 0.0479847128	-0.4969211477	-2.5337186978	 0.122805
H	 1.5322514982	-0.2237224549	-1.582479817	 0.105104
H	 0.9566544094	-2.5980073618	-1.9594713338	 0.118243
H	 1.5750386658	-4.1537980857	-0.483477486	 0.088756
H	-2.8969205013	-3.4336333025	-0.4779142	 0.212836
