17
gdb 65360	4.19335	1.01535	0.91935	2.8258	74.01	-0.2637	-0.0014	0.2622	1269.4275	0.135254	-417.970215	-417.961451	-417.960507	-418.00379	31.914	
C	 0.2362693146	 1.4502138075	-0.1327012412	-0.483978
C	 0.0163399764	-0.0212341154	 0.1437528709	 0.221694
O	 1.1686941261	-0.8841496794	 0.1615532245	-0.268026
C	 0.4571935885	-0.7054496945	 1.3869021043	-0.009365
C	 1.1842269041	 0.0011669724	 2.4912023502	-0.047669
C	 2.457841172	-0.5732172994	 2.9960282855	-0.235523
N	 2.4572753804	 0.6785852479	 2.2201222203	-0.314314
C	-1.1240188365	-0.6006369014	-0.5532507828	 0.262778
N	-2.044349304	-1.0337055812	-1.1018403106	-0.326291
H	 1.0231092063	 1.8542340216	 0.504053482	 0.164641
H	 0.5086893188	 1.5973835145	-1.181682472	 0.150192
H	-0.6879493634	 2.0037333669	 0.0573843576	 0.148591
H	-0.1246243337	-1.5753389039	 1.6950962058	 0.12254
H	 0.5324935433	 0.520174814	 3.1912030624	 0.111817
H	 2.7181077836	-0.4694546919	 4.0449052698	 0.12834
H	 2.8307289232	-1.4734955823	 2.5148370548	 0.12852
H	 2.7319520703	 0.4586806047	 1.2637023986	 0.246053
