16
gdb 124876	3.73816	1.25286	1.05468	4.7584	71.67	-0.2578	-0.0343	0.2235	1124.7671	0.124122	-434.021813	-434.013903	-434.012958	-434.054743	29.347	
C	-0.2665420421	 1.3981623218	-0.5719476028	-0.475657
C	-0.0206754467	-0.0063911582	-0.0567255951	 0.166013
C	 0.983420221	-0.8725254921	-0.7523600861	-0.256715
N	 1.2580083643	-0.3455367119	 0.5898635353	-0.332702
C	-1.175955665	-0.6644759843	 0.5918460475	 0.417106
C	-1.2811108598	-1.4915685179	 1.6698883982	-0.214845
N	-2.6110472423	-1.8066865061	 1.7994976529	-0.108045
N	-3.2995864887	-1.248812463	 0.9126593819	-0.018998
O	-2.3927235692	-0.4788512388	 0.0843743359	-0.234122
H	 0.6296158812	 1.7835016944	-1.0673112407	 0.118263
H	-1.0902108948	 1.4121451397	-1.2907767946	 0.151845
H	-0.5268835528	 2.0751628458	 0.2482644045	 0.13821
H	 0.8311043824	-1.9463101279	-0.7999312058	 0.134293
H	 1.4991170687	-0.4416310657	-1.6067428429	 0.123671
H	 1.888137727	 0.4511127401	 0.5395091869	 0.239399
H	-0.5234604532	-1.860734106	 2.3369360747	 0.152284
