16
gdb 108687	2.25622	1.52358	0.92859	3.5458	74.41	-0.2572	-0.0495	0.2076	1193.0799	0.12395	-437.895843	-437.886981	-437.886036	-437.930351	30.746	
O	 0.2748695524	 1.2938437122	 0.303063383	-0.398942
C	 0.0494902381	-0.0614806927	 0.0067288641	-0.182213
C	-1.3859264136	-0.4931086152	-0.0115901155	 0.147937
C	-2.5052984515	 0.2425760143	-0.0193275942	 0.089362
C	-3.7200687549	-0.6635984895	-0.0467730955	-0.157358
O	-3.1892604885	-1.9784589229	-0.1297984741	-0.260341
C	-1.7731394301	-1.9487982085	-0.0390217578	-0.138255
C	-2.6207222703	 1.6557562217	-0.0304589044	 0.193181
N	-2.7687855598	 2.8045765543	-0.0763748021	-0.346649
H	-0.1288247917	 1.8443361343	-0.3763925971	 0.302612
H	 0.5122661438	-0.3628940345	-0.9505027486	 0.118022
H	 0.5762761316	-0.633012523	 0.7822862361	 0.136666
H	-4.33246084	-0.5480581315	 0.8601220738	 0.12586
H	-4.366981587	-0.4664682474	-0.9126223588	 0.128211
H	-1.3331811639	-2.479841783	-0.897267489	 0.121574
H	-1.4302684745	-2.4679940085	 0.87157876	 0.120335
