17
gdb 45147	2.83241	1.57124	1.18634	4.0727	72.95	-0.2407	-0.0243	0.2164	1047.0837	0.135045	-421.792857	-421.785286	-421.784342	-421.825478	29.214	
O	 0.3274107012	 0.1263153004	-0.6012996843	-0.289806
C	 0.1621703924	 1.2147444357	-0.1375571344	 0.426026
C	-1.0402375079	 1.924419454	 0.5176131235	-0.360326
C	-0.1844024576	 3.2175393617	 0.6202803916	-0.025827
C	 0.6230953048	 3.3492297947	 1.9412244914	-0.331372
C	 1.7916173903	 2.6152558615	 1.269640003	 0.455983
C	 3.232244966	 2.7665267206	 1.4819631329	-0.261407
O	 2.5354197759	 1.5737971108	 1.8671366984	-0.254442
C	 1.0377847967	 2.4766556622	-0.0662116474	-0.274498
H	-1.8791293051	 1.9989833337	-0.182639467	 0.135757
H	-1.4104351061	 1.4918538144	 1.4517133133	 0.130884
H	-0.6151585906	 4.1253656066	 0.2038337087	 0.083188
H	 0.8599417988	 4.3783738335	 2.2235599918	 0.113471
H	 0.1949024067	 2.8380852496	 2.8079925486	 0.117896
H	 3.9178339918	 2.6556548587	 0.642831136	 0.121906
H	 3.5938727102	 3.3825534747	 2.3047809144	 0.118358
H	 1.5542601125	 2.7837279971	-0.9766528503	 0.094206
