17
gdb 85709	2.3617	1.44596	1.03259	4.6324	79.05	-0.2528	0.0129	0.2657	1175.3135	0.134965	-380.826776	-380.817762	-380.816817	-380.860686	33.123	
C	 0.0181520474	 1.571928187	-0.1685412652	-0.402145
C	 0.0957830482	 0.0711319671	 0.0243333451	 0.051946
N	 1.0780124668	-0.6345853507	-0.8300201903	-0.300256
C	 1.432808108	-1.5668721608	 0.26521417	-0.188334
C	 2.8271519406	-1.9498428342	 0.3718748691	 0.359003
C	 3.9770860091	-2.2821893009	 0.4730021575	-0.41841
C	 0.8222297129	-0.5280334769	 1.2799670217	-0.217811
C	 1.7807106114	 0.3544552683	 1.9206203072	 0.318265
N	 2.5219706025	 1.0684813043	 2.4468308497	-0.335212
H	 1.007408211	 2.0266882306	-0.0794614279	 0.151434
H	-0.3780996856	 1.8005632112	-1.1634757683	 0.12069
H	-0.6483278756	 2.0260271709	 0.5721681767	 0.123146
H	-0.9120755898	-0.3699275238	-0.0227207009	 0.075786
H	 0.7135023331	-1.0720445277	-1.669926063	 0.225393
H	 0.8041295872	-2.4701361745	 0.2913180823	 0.101757
H	 4.9990906946	-2.5574488416	 0.5628563919	 0.205234
H	 0.1710442282	-0.9635153285	 2.0389639344	 0.129516
