18
gdb 63195	3.27606	1.57837	1.48108	3.5262	76.46	-0.2154	-0.0534	0.1619	966.0021	0.144942	-401.817725	-401.809843	-401.808899	-401.849439	31.783	
C	 0.0121617517	 1.5193714071	-0.0760201867	-0.394492
C	-0.0308343553	-0.0059908762	 0.002797462	 0.275168
C	-1.4615572438	-0.5419546917	-0.0458346981	-0.414662
N	 0.8492035	-0.48162601	-1.1623473824	-0.266843
C	 1.5921102078	-1.3130228843	-0.569204181	 0.260629
O	 2.921460629	-1.0163817745	-0.2235309057	-0.268558
C	 2.3088141413	-0.9980674934	 1.1433269533	 0.060371
C	 1.2239065209	-1.9180696942	 0.8286620344	-0.208758
C	 0.7541542342	-0.5647917326	 1.2360693597	-0.112229
H	 1.0450795899	 1.8707584942	-0.1216471244	 0.132941
H	-0.5129542534	 1.8765371494	-0.9656587615	 0.125937
H	-0.4690251278	 1.9475337843	 0.8117220696	 0.106291
H	-1.9255629455	-0.2558528982	-0.9941242584	 0.131777
H	-1.4766113914	-1.6329720392	 0.0270051422	 0.118924
H	-2.067835882	-0.1342988336	 0.7708210871	 0.11213
H	 3.0174312888	-0.9259743171	 1.9592596197	 0.130371
H	 0.9817870099	-2.9294449594	 1.1229065181	 0.117075
H	 0.4041007256	-0.3557624707	 2.2453559521	 0.093927
