20
gdb 47580	2.28254	1.91053	1.18545	3.1963	79.42	-0.2478	0.0289	0.2767	1074.3012	0.174019	-403.15968	-403.152012	-403.151068	-403.192128	30.339	
N	 0.126974281	 0.7868348217	 1.0859760836	-0.51649
C	 0.0804517186	-0.1460239877	 0.2301265072	 0.37991
O	 1.2155717009	-0.6143214702	-0.3711829384	-0.253639
C	 1.129846771	-1.8003352957	-1.1755138163	-0.070194
C	 0.2965682815	-2.8708472153	-0.475637536	-0.251082
C	-1.1293627005	-2.3364318931	-0.3213411422	 0.022347
C	-1.8860262754	-2.4437029964	 1.033071026	-0.240097
C	-2.2792867838	-0.9434468463	 0.91408157	-0.221721
C	-1.2178155164	-0.7791942139	-0.2042934619	-0.112102
H	 1.0945613899	 1.0855696061	 1.2256837957	 0.215507
H	 0.7016882459	-1.5545804284	-2.1577578243	 0.105993
H	 2.1653975265	-2.1136324313	-1.3288653751	 0.117335
H	 0.3315072405	-3.8050057984	-1.0458780697	 0.103592
H	 0.7478742113	-3.0705895103	 0.5034659892	 0.111894
H	-1.7559208089	-2.6813844546	-1.1490231775	 0.074358
H	-2.6969652675	-3.173147847	 1.0920348964	 0.098415
H	-1.1993059161	-2.623133121	 1.8660667657	 0.107063
H	-3.2946608274	-0.8049954914	 0.5351036282	 0.097942
H	-2.1331963185	-0.3120339925	 1.7898789974	 0.133064
H	-1.5521096026	-0.2656461342	-1.112272998	 0.097905
