21
gdb 115952	3.26709	1.23424	1.03316	2.1081	78.06	-0.2444	0.0799	0.3244	1232.0396	0.183772	-424.218488	-424.210105	-424.209161	-424.251685	31.937	
C	-0.0336505592	 1.5922454881	-0.0883956866	-0.380293
C	 0.0225729648	 0.0690021355	 0.0624408518	-0.203499
C	-1.3471867116	-0.5864003951	-0.0519130838	 0.140952
O	-1.8895005774	-0.3355001847	-1.3502983703	-0.263994
C	-2.9921338309	-1.2180081853	-1.5099802427	-0.107442
C	-2.5679181392	-2.5295171034	-0.8513157397	 0.117135
O	-1.6675644202	-3.3047976342	-1.6664358242	-0.289648
C	-0.5417716437	-2.9731402006	-0.8273650245	-0.079539
C	-1.4203674789	-2.1122003245	 0.1071502983	-0.124525
H	 0.9654029342	 2.0318718513	-0.014197088	 0.109946
H	-0.4596332557	 1.8661670602	-1.0567477225	 0.139094
H	-0.6565383246	 2.0438348162	 0.6918147102	 0.111005
H	 0.6854729991	-0.3538659168	-0.7003156675	 0.106625
H	 0.4477644468	-0.1983247716	 1.0380230553	 0.095372
H	-2.0167373046	-0.1420698709	 0.7090956146	 0.060203
H	-3.8899843778	-0.8197066777	-1.007191031	 0.084282
H	-3.1968681202	-1.3291116798	-2.5775652869	 0.120243
H	-3.4050691564	-3.1286433346	-0.4788521905	 0.076473
H	-0.1075450065	-3.8657120665	-0.3608533144	 0.099163
H	 0.239315775	-2.4439969702	-1.3844591826	 0.108115
H	-1.4698564229	-2.4362463755	 1.146514635	 0.080334
