17
gdb 11814	3.67941	1.66505	1.31664	4.0328	70.26	-0.2319	-0.0261	0.2058	965.7311	0.141584	-363.843889	-363.835964	-363.83502	-363.876418	29.139	
C	 0.2560307655	 1.6351888636	-0.0646435776	-0.403633
C	 0.0456422846	 0.127233498	 0.0025728782	-0.091857
C	 0.5099345774	-0.7642641895	-1.1993504541	-0.35946
C	 1.2999971659	-1.6493294208	-0.2177896004	 0.238738
C	 1.3058894493	-3.1376652445	-0.1206158961	-0.286996
N	 2.5395224092	-2.403211469	-0.4096040756	-0.348364
C	 1.0195112113	-0.670593457	 0.9039628517	 0.352412
O	 1.4102840065	-0.5360708061	 2.0271523005	-0.304737
H	 1.2833633816	 1.8771199223	-0.3565417022	 0.122394
H	-0.420246534	 2.0977642476	-0.7903633455	 0.119906
H	 0.0721953581	 2.0890740261	 0.9135943631	 0.138061
H	-0.9875867674	-0.1014769419	 0.2898347589	 0.104714
H	-0.2816606775	-1.2571885196	-1.7671678953	 0.110046
H	 1.1587867036	-0.2178092266	-1.891226769	 0.111905
H	 1.2723656362	-3.6045313792	 0.8597931842	 0.1391
H	 0.8117883746	-3.6884254058	-0.9176132844	 0.11998
H	 2.7516664851	-2.4484702074	-1.4044334365	 0.23779
