17
gdb 77872	2.1673	1.71823	1.2777	2.5583	69.4	-0.2347	-0.0214	0.2133	1043.4054	0.134182	-458.947778	-458.938988	-458.938044	-458.98097	32.947	
C	-0.0269113327	 1.5807840861	 0.0261837969	-0.499472
C	 0.0490628736	 0.0822971111	-0.0005625412	 0.136196
C	-0.8350600275	-0.8268101717	 0.8648075035	 0.098019
O	-1.6864176619	-1.8068805219	 0.3754893221	-0.431172
C	 0.6280924903	-0.9880581498	 1.0332146493	-0.185531
C	 1.1872204448	-1.8162483746	-0.1161327349	-0.033295
O	 0.6944790939	-3.1506928447	-0.1747896681	-0.432151
C	 0.6184351548	-0.7488738401	-1.0974768954	 0.341555
O	 0.7623203241	-0.5916734858	-2.2794361717	-0.326248
H	 0.9394375932	 2.0383754621	-0.2092702237	 0.13091
H	-0.7512854069	 1.9349187048	-0.7148515536	 0.147853
H	-0.3476824479	 1.9447237586	 1.006977776	 0.125189
H	-1.3216966506	-0.2508062374	 1.6500045631	 0.111714
H	-1.1417422189	-2.5718525474	 0.1355724971	 0.297294
H	 1.1563041752	-0.7873649776	 1.9571461076	 0.108113
H	 2.2850847008	-1.8007471002	-0.1589256755	 0.107419
H	 0.8937812857	-3.4973989816	-1.0527891215	 0.303607
