18
gdb 74887	2.83238	1.62147	1.13196	3.1181	81.51	-0.2334	-0.0269	0.2065	1089.7234	0.148848	-401.962262	-401.954389	-401.953444	-401.994617	30.735	
C	 0.0191943441	 1.4786778052	-0.1607022137	-0.46581
C	 0.029266293	-0.0199639985	-0.0472398349	 0.234515
C	-1.0888505547	-0.7604971633	-0.0230968938	-0.163355
C	-1.0657622639	-2.2316908111	 0.0494049507	-0.120043
C	-0.4289342631	-3.0114732074	-1.1070286242	-0.320122
C	 0.3007603759	-2.8414088798	 0.1873818542	 0.114391
O	 1.4292092986	-2.0114927577	 0.2880952108	-0.26181
C	 1.3548853564	-0.6604772398	 0.0657977372	 0.319479
N	 2.4203047563	 0.0321754037	 0.0058869928	-0.518238
H	 0.5620169763	 1.8059408839	-1.0526249149	 0.142642
H	-1.0059326088	 1.855286597	-0.2099902321	 0.10805
H	 0.5293746502	 1.9378137935	 0.691167978	 0.142509
H	-2.0583854418	-0.2709846818	-0.0658623777	 0.09997
H	-1.8942749613	-2.7050076168	 0.5661846492	 0.100414
H	-0.8227205963	-3.9942941093	-1.3418537715	 0.122503
H	-0.0979211884	-2.4266843653	-1.9578918788	 0.133036
H	 0.4374708604	-3.7068023533	 0.8253083787	 0.112974
H	 3.2352285972	-0.5731572194	 0.1217779501	 0.218897
