20
gdb 17286	2.9641	2.37443	1.82759	0.2469	77.52	-0.2299	0.0897	0.3197	839.9834	0.178198	-311.821891	-311.814841	-311.813897	-311.852432	29.323	
C	-0.0098889093	 1.5189476116	-0.0144980921	-0.490538
C	-0.0012566353	 0.006783149	 0.0062395092	 0.383395
C	-1.3755598631	-0.7397056724	 0.0008620754	-0.295061
C	-0.9532607032	-1.5250853575	 1.2858648329	-0.239221
C	 0.4222412075	-0.7949769314	 1.2770600955	-0.05969
C	 1.6003984042	-1.4097097579	 0.489833873	-0.053722
C	 1.1540864443	-2.1415385063	-0.7446912397	-0.301212
C	 1.1766568073	-0.6407211483	-0.7702681439	-0.098507
H	 0.9848330196	 1.9222244274	 0.2085154497	 0.114099
H	-0.3070574557	 1.8994002903	-1.0001583615	 0.113398
H	-0.7106230885	 1.9241707467	 0.72391661	 0.109459
H	-2.2248277144	-0.0694596597	 0.1605591169	 0.093076
H	-1.5848535064	-1.3442091954	-0.8856057733	 0.096675
H	-1.5622097101	-1.2812071164	 2.1597909932	 0.095998
H	-0.9149229702	-2.6137474237	 1.1943819717	 0.098811
H	 0.7157195437	-0.2682442478	 2.1866161263	 0.059831
H	 2.5946636244	-1.5581347718	 0.8951179227	 0.079828
H	 1.9574027248	-2.6132426932	-1.3029138184	 0.108065
H	 0.2251326966	-2.7026498585	-0.7764001118	 0.109198
H	 1.7921804238	-0.1000137946	-1.4816682258	 0.076117
