22
gdb 107878	3.11586	1.2894	1.08366	0.8594	87.23	-0.2085	0.0858	0.2944	1235.6434	0.19363	-367.120958	-367.112254	-367.111309	-367.154108	34.079	
C	 0.0488384675	 1.4947996726	-0.1170396366	-0.379896
C	 0.0268067501	-0.02445294	 0.0910533985	-0.315969
C	 0.6785799429	-0.4583209633	 1.3767391914	 0.362278
C	 0.3240844133	-0.1158188205	 2.8421749334	-0.328216
C	 1.5425569055	-1.0468026452	 2.9861736881	-0.080296
C	 1.1044224604	-1.9180544786	 1.7537724124	-0.05811
N	 2.38787605	-1.7901023736	 0.9961041587	-0.12447
C	 3.4932071317	-2.621361024	 1.4607646302	-0.322858
C	 2.2175997776	-0.4749465879	 1.6871954019	-0.042182
H	 1.075734991	 1.8743244211	-0.1448113708	 0.116772
H	-0.4338155152	 1.7693392744	-1.0598548577	 0.112286
H	-0.4764373694	 2.01598155	 0.6903999434	 0.116172
H	-1.0113280667	-0.3822879547	 0.0776246872	 0.094269
H	 0.5436168331	-0.5262517777	-0.7351555393	 0.116918
H	 0.4632939447	 0.924215431	 3.1540603502	 0.093401
H	-0.6319830887	-0.4980398815	 3.2151273009	 0.09124
H	 2.0306481877	-1.3797576127	 3.9014398827	 0.075664
H	 0.4899318636	-2.821405654	 1.7431580334	 0.073228
H	 3.3511071978	-3.6447523094	 1.0970721385	 0.116538
H	 4.4296747955	-2.2453718483	 1.0347993324	 0.116376
H	 3.6079821376	-2.6611911785	 2.5570228221	 0.093145
H	 2.9349499399	 0.3442883906	 1.5998397791	 0.073712
