22
gdb 120866	4.80538	0.74791	0.7093	2.6788	83.05	-0.2464	0.0774	0.3237	1657.8973	0.1937	-404.307245	-404.29755	-404.296606	-404.342077	36.111	
C	 0.0348789911	 1.5646546763	 0.0342398223	-0.48409
C	-0.0455255324	 0.0683168188	 0.0675230353	 0.353939
C	-1.3384440859	-0.769182568	 0.0366215189	-0.32016
C	-0.6564565589	-1.8117996862	 0.9953109052	 0.006632
C	-0.5658474498	-3.2776593015	 0.5832566692	-0.1947
C	-1.9173441767	-3.9815173296	 0.5802545814	-0.070454
O	-1.7111475613	-5.3220564318	 0.1606929974	-0.420266
C	 0.6233564365	-0.9568425134	 0.9443949453	-0.113095
N	 1.0801134045	-0.7204562642	-0.4230248813	-0.357163
H	 1.05868897	 1.8950570864	 0.2277537615	 0.131879
H	-0.2624052726	 1.9514392365	-0.9481861405	 0.118916
H	-0.6271283849	 2.0132751043	 0.7829101326	 0.11324
H	-2.1983043363	-0.2741665246	 0.4952751818	 0.102637
H	-1.6344506298	-1.1284710082	-0.9562468228	 0.091226
H	-1.1094216482	-1.7386782108	 1.9907678521	 0.073897
H	-0.1308841771	-3.3734685444	-0.4196587839	 0.098005
H	 0.1051474146	-3.814907752	 1.2650025321	 0.107679
H	-2.3571936203	-3.9428858042	 1.5907417765	 0.083156
H	-2.6121022005	-3.4555123022	-0.0949454533	 0.087247
H	-2.5622070915	-5.7694570462	 0.1521728599	 0.285081
H	 1.3453632467	-0.8369586974	 1.7457953719	 0.085353
H	 0.8091658431	-1.4583967478	-1.0706552917	 0.221041
