17
gdb 41580	2.99887	1.86906	1.83073	1.0209	65.	-0.2544	0.0674	0.3218	839.4681	0.139654	-458.939818	-458.93376	-458.932816	-458.970139	25.157	
C	-0.0366287719	 1.5414806058	 0.1745863967	-0.097792
O	 1.409562647	 1.5966874045	 0.0561971075	-0.296561
C	 1.5000541362	 0.1614168245	-0.0542071594	 0.114435
C	-0.0405115872	 0.013319453	-0.0244321809	-0.10004
C	-0.272129609	-0.5643794088	-1.4394837171	 0.178997
O	-0.0657786095	 0.4367201642	-2.4269643779	-0.276018
C	 1.3699889965	 0.552359008	-2.5436160365	-0.089278
C	 1.8395355721	-0.4222222866	-1.457505335	-0.002245
O	 0.831228517	-1.4478277138	-1.5727661812	-0.254294
H	-0.3598172202	 1.871029831	 1.1679709041	 0.104905
H	-0.5360212955	 2.128904859	-0.600603291	 0.121407
H	 2.1040914283	-0.2759849868	 0.7455987501	 0.086067
H	-0.4970351517	-0.5965091282	 0.7546263539	 0.088529
H	-1.2112540815	-1.0832840606	-1.62864319	 0.095074
H	 1.6827580191	 0.230416053	-3.5423236666	 0.106523
H	 1.6782660313	 1.5822281717	-2.3569447987	 0.129662
H	 2.8304250093	-0.8533687298	-1.585236648	 0.090628
