23
gdb 63583	2.80905	1.29696	1.1194	1.4082	86.21	-0.2197	0.0825	0.3022	1233.8635	0.205519	-388.29448	-388.285118	-388.284174	-388.328383	36.258	
C	-0.1848206519	 1.4748582721	 0.1312487458	-0.454539
C	 0.0033421494	-0.0290451181	 0.0722348208	 0.259494
C	-1.2271854946	-0.7967258379	-0.3704213434	-0.449292
C	 1.3654398882	-0.5557408614	-0.3695342611	-0.405229
C	 0.9430890599	-0.6923302154	 1.0622714658	 0.42762
C	 1.58677366	 0.0425457655	 2.2449838328	-0.310353
C	 1.7197901873	-1.0607116865	 3.3144914022	-0.216175
C	 0.6123521116	-2.0321007341	 2.8963784499	-0.08362
O	 0.6429863389	-2.0151409994	 1.4762114848	-0.284249
H	 0.727874557	 1.9946041545	 0.4375406961	 0.111712
H	-0.4696042562	 1.8652827228	-0.8532068716	 0.114115
H	-0.9791664537	 1.7511750703	 0.8356159289	 0.11077
H	-1.5009773606	-0.5349964006	-1.3993266063	 0.107558
H	-1.0623143336	-1.8742361516	-0.3165344511	 0.131508
H	-2.0860267232	-0.5598805711	 0.2695667284	 0.106252
H	 1.384731215	-1.4684140672	-0.956601891	 0.11432
H	 2.1456828042	 0.1590694247	-0.614820796	 0.101436
H	 2.5495878856	 0.4889029402	 1.9845413582	 0.107737
H	 0.9381548188	 0.8487624514	 2.6023819108	 0.108301
H	 2.6921353579	-1.5566315205	 3.2376285166	 0.110092
H	 1.6049780498	-0.6877773943	 4.3351847721	 0.099216
H	 0.7732900426	-3.0631032191	 3.2221130475	 0.106124
H	-0.3676138923	-1.6967906445	 3.2743961698	 0.087201
