23
gdb 64427	2.48418	1.44869	1.18607	0.9016	86.98	-0.2282	0.0173	0.2455	1184.0342	0.205693	-388.302874	-388.293618	-388.292674	-388.336098	36.703	
C	-0.2120588591	 1.6005462879	 0.1046178234	-0.425528
C	-0.0390220598	 0.079654828	-0.0271535532	 0.34755
C	-1.4063165315	-0.6078014094	 0.0716415997	-0.399541
C	 0.6209258283	-0.3058504213	-1.3746488209	-0.253468
C	 1.9700143681	 0.3021319123	-1.6804358264	-0.069031
C	 3.0433152184	 0.2534017242	-0.8914164871	-0.056498
C	 3.089116343	-0.3919218903	 0.4725014301	-0.254086
C	 1.9594815368	 0.0326549703	 1.4189915713	-0.069759
O	 0.6838779358	-0.4781464018	 1.0822218104	-0.287473
H	 0.7243158669	 2.1407332179	-0.0503232631	 0.122776
H	-0.9254608193	 1.9588328973	-0.6442131588	 0.111117
H	-0.60341773	 1.8509675463	 1.0952380195	 0.117667
H	-2.0660939272	-0.2902666787	-0.740989755	 0.106589
H	-1.2876095486	-1.6939247171	 0.0233346168	 0.116991
H	-1.8813559188	-0.3604935848	 1.0248709457	 0.116577
H	 0.7059313937	-1.4017024383	-1.3840630064	 0.111241
H	-0.0784752167	-0.0470720928	-2.1770003999	 0.094883
H	 2.0666618487	 0.7910077924	-2.6472150064	 0.083712
H	 3.9678596255	 0.7001890874	-1.2499354385	 0.084195
H	 3.056660701	-1.4870101391	 0.3754157698	 0.115203
H	 4.0414871069	-0.1548100602	 0.9607735512	 0.096448
H	 2.1629632354	-0.3725272902	 2.4166975841	 0.099579
H	 1.9441828323	 1.12776455	 1.5084495739	 0.090858
