18
gdb 26279	3.51368	1.21343	0.9776	3.5137	81.33	-0.2465	-0.031	0.2155	1218.1686	0.149385	-402.014757	-402.006705	-402.00576	-402.047828	30.808	
C	 0.1495132121	 1.3471458946	-0.4807191528	-0.387066
C	 0.0197616047	 0.0051625838	 0.2587462856	 0.065832
O	 0.3843259472	 0.1570749446	 1.6087422317	-0.444164
C	-1.3928660877	-0.556698379	 0.1392400107	 0.315357
N	-2.1000118408	-0.5729516598	 1.2716248823	-0.338217
C	-3.3530806097	-1.036341649	 1.2417094438	 0.002778
C	-3.9603691628	-1.5071251901	 0.0850356551	-0.13729
C	-3.2207212425	-1.4965566048	-1.0963720193	-0.069274
C	-1.9193301597	-1.0149996262	-1.0710190261	-0.169228
H	 1.164924081	 1.7312561732	-0.3527643489	 0.126994
H	-0.0512953882	 1.2410846467	-1.5518560302	 0.105057
H	-0.5512323458	 2.0763128599	-0.0626836811	 0.121
H	 0.7080767231	-0.7152437841	-0.2116894612	 0.08174
H	-0.437300534	 0.0180010617	 2.1093390948	 0.286475
H	-3.8885226593	-1.0313117927	 2.187784558	 0.116127
H	-4.9791709534	-1.8759042869	 0.1111341888	 0.106995
H	-3.6534624412	-1.8628645945	-2.0216273063	 0.112587
H	-1.3127214532	-0.9984996874	-1.9701762148	 0.104299
