17
gdb 111441	3.06671	1.5565	1.23729	3.793	67.21	-0.2511	0.0432	0.2944	1028.4561	0.135297	-458.897674	-458.889995	-458.889051	-458.930274	28.823	
C	 0.1681275587	 1.2479296176	 0.2010110885	-0.234545
O	-0.1652681075	-0.0759927193	-0.1542614203	-0.236459
C	 0.5758800359	-0.584522784	-1.2329288461	 0.108676
C	 2.0911813665	-0.746956265	-1.0098585961	-0.021797
O	 2.4678551112	-1.6350864664	 0.0415138293	-0.222553
C	 2.4738153024	-2.1401087317	-1.2915455929	 0.009696
C	 1.2120651372	-2.9135484603	-1.6572659827	 0.002114
O	 0.2648281743	-2.9798104926	-0.594688688	-0.219409
C	 0.0737905029	-1.9831869289	-1.5959400834	-0.011211
H	 1.1942951578	 1.326893178	 0.5870115943	 0.117686
H	 0.0611971474	 1.9379890262	-0.651562612	 0.100314
H	-0.5254359601	 1.55072884	 0.9884436876	 0.134306
H	 0.4530724992	 0.0612124638	-2.1236977994	 0.064296
H	 2.7589944705	 0.0966029275	-1.1705090696	 0.102414
H	 3.4388203273	-2.4333991559	-1.6948956673	 0.101263
H	 1.2622091167	-3.7711282133	-2.3218573947	 0.101265
H	-0.8313270205	-2.0846593956	-2.1898565172	 0.103944
