21
gdb 71883	2.65934	1.81418	1.32713	1.4874	82.17	-0.2317	0.0822	0.314	1047.961	0.181975	-387.064133	-387.055982	-387.055037	-387.096039	33.21	
C	 0.0779130386	 1.5180863325	 0.1044924476	-0.484734
C	-0.0691367416	 0.0287112547	-0.0439814742	 0.453985
C	 0.4965110856	-0.7089964789	-1.2864354345	-0.269139
C	-0.6353495328	-1.7626713046	-1.1590630939	-0.054383
C	-0.4013534434	-2.7463483123	 0.0178769588	-0.26914
C	-0.7983171704	-1.6258724778	 1.0152826127	 0.453985
C	-1.453033476	-1.9557774143	 2.3284530067	-0.484734
O	 0.2974826704	-0.6835156953	 1.1687394942	-0.375791
C	-1.3878480635	-0.7953525615	-0.1661079912	-0.207121
H	 1.1296816359	 1.7791212621	 0.2693813718	 0.126927
H	-0.265171185	 2.0356739511	-0.7969113621	 0.114095
H	-0.4990779466	 1.8814673076	 0.9601413677	 0.121204
H	 0.3643096415	-0.1022005542	-2.1886674715	 0.094683
H	 1.533968971	-1.0506214218	-1.2259547707	 0.095903
H	-1.0688713741	-2.1590207569	-2.0765962488	 0.065918
H	-1.1523443143	-3.5436577593	 0.0145534631	 0.094682
H	 0.5938700481	-3.1838075687	 0.1397134177	 0.095903
H	-0.7414001255	-2.4665424037	 2.9874234257	 0.126927
H	-1.7889533988	-1.0454301835	 2.8339479298	 0.121204
H	-2.314549306	-2.6145060999	 2.1801307014	 0.114096
H	-2.3997981831	-0.406670475	-0.2555915503	 0.06553
