13
gdb 8726	4.08159	1.37621	1.12996	5.994	65.53	-0.2878	-0.0814	0.2064	1009.0656	0.092649	-361.451383	-361.44285	-361.441905	-361.485087	29.239	
C	-0.1071145668	 1.4463705662	 0.1375823607	-0.398799
C	 0.0797743553	-0.0803195535	-0.0451148919	-0.25887
C	 0.7842595848	-0.3843643932	-1.2904482095	 0.286188
N	 1.3098377857	-0.5993169694	-2.2957729654	-0.309815
C	 0.8171882814	-0.6791916259	 1.1680595065	 0.246175
O	 1.9474219133	-1.0968648121	 1.1178820604	-0.258862
C	 0.0380697737	-0.6822305189	 2.392601225	 0.253085
C	-0.6203149013	-0.6939551008	 3.40014304	-0.38719
H	 0.862851762	 1.9472485391	 0.1804903415	 0.155677
H	-0.6744380282	 1.8561784714	-0.7003166121	 0.151644
H	-0.6516563564	 1.644386233	 1.0633684832	 0.144443
H	-0.9122345515	-0.5473808915	-0.0879417429	 0.151176
H	-1.1852005521	-0.7134982045	 4.3012896045	 0.225147
