19
gdb 74494	2.85924	1.33991	1.00476	1.6408	79.87	-0.238	0.0083	0.2463	1212.0111	0.159112	-423.013988	-423.005669	-423.004725	-423.046769	31.926	
C	 0.0345001522	 1.5086045204	-0.0752348271	-0.476767
C	-0.0216149203	 0.0121513849	 0.0326694813	 0.257207
C	-1.1579195807	-0.6881706297	 0.0713235415	-0.214956
C	-1.1559163475	-2.1680998114	 0.1131278973	 0.393332
C	-2.1578089927	-2.9164848704	 0.8920339668	-0.230124
O	-2.2624489913	-2.8273302328	-0.5298853439	-0.28309
C	 0.2029674521	-2.7653700631	-0.2025084895	-0.181887
O	 1.2209275518	-2.0593478803	 0.4824175208	-0.242127
C	 1.307903796	-0.7056285393	 0.0844123672	-0.155907
H	 0.6070440597	 1.8207267048	-0.9582865114	 0.129477
H	-0.9660812375	 1.9412085535	-0.1513310319	 0.129359
H	 0.5359272693	 1.9521621125	 0.7944871688	 0.128739
H	-2.1281021351	-0.198664216	 0.0439633068	 0.090801
H	-1.9037621162	-3.9004256392	 1.2858992951	 0.114409
H	-2.9211786338	-2.3764471614	 1.4512394664	 0.112664
H	 0.268263354	-3.8084818699	 0.1160907403	 0.11281
H	 0.3604560217	-2.7274691259	-1.2932524535	 0.100116
H	 1.8024315739	-0.6227561586	-0.9022854867	 0.099476
H	 1.9709959946	-0.219368238	 0.8100284719	 0.116468
