19
gdb 31532	3.27475	1.11675	0.85653	1.7919	82.29	-0.1701	0.0458	0.216	1374.4679	0.159138	-419.232482	-419.222707	-419.221763	-419.267212	35.491	
C	-0.0795480187	 1.4436000065	-0.220258637	-0.32862
N	 0.3674766152	 0.0875613588	 0.0855124867	-0.386539
C	 0.7469576186	-0.7360588991	-0.960806001	 0.426957
C	 0.6386666744	-2.0796007955	-1.1700319246	-0.419212
C	 1.3411445094	-2.35255012	-2.3990074707	 0.293972
C	 1.5215270343	-3.6801528896	-3.0629384761	-0.506228
C	 1.8066270459	-1.1609704216	-2.8530503242	 0.163008
N	 2.5258655441	-0.8175883647	-3.9969183353	-0.598232
O	 1.4419532252	-0.1468706065	-1.9610080013	-0.207463
H	 0.7184721646	 1.9781216615	-0.7387777587	 0.148496
H	-0.9817566876	 1.4798305384	-0.8502633571	 0.111209
H	-0.2848768893	 1.9642141645	 0.7180930424	 0.122517
H	-0.2464826183	-0.3978357775	 0.7240558054	 0.24002
H	 0.1310373683	-2.7907342065	-0.5368509491	 0.08568
H	 0.5582504089	-4.1321422031	-3.3283488973	 0.119323
H	 2.1105910138	-3.5690239961	-3.9762410234	 0.136211
H	 2.036345016	-4.3907064363	-2.4054760457	 0.120578
H	 3.3958350402	-0.3400125934	-3.781886911	 0.239818
H	 1.998071445	-0.2277993199	-4.6338317816	 0.238504
