25
gdb 104088	2.27799	1.34841	1.135	0.1302	92.99	-0.2352	0.0291	0.2643	1275.3352	0.228752	-352.378834	-352.36893	-352.367986	-352.412811	38.98	
C	-0.0285263538	 1.6320850973	 0.0731787616	-0.397191
C	-0.0006013898	 0.1004001426	-0.0131428485	-0.225314
C	 0.7315750682	-0.4816112436	-1.237830632	 0.314922
C	 0.0630781619	-0.0102014016	-2.543958781	-0.429793
C	 2.243504251	-0.0908608154	-1.2768749615	-0.289723
C	 2.9151273185	-1.3078803611	-1.8601424168	-0.073632
C	 2.1029112267	-2.3618688117	-1.8769379661	-0.063896
C	 0.7520540279	-2.0607856534	-1.2661720482	-0.054297
C	 0.5990824573	-2.7864962059	 0.0837194416	-0.406555
H	 0.9815866056	 2.0551004945	 0.067479535	 0.116581
H	-0.5822597356	 2.0820113277	-0.7559332555	 0.117751
H	-0.5131166298	 1.9527216811	 1.0008498976	 0.109694
H	 0.4686862633	-0.2860499229	 0.8985848066	 0.093627
H	-1.0337299922	-0.2725083549	-0.0044326819	 0.088896
H	 0.1268744413	 1.075103024	-2.6662613628	 0.109167
H	 0.5495683312	-0.4701360274	-3.4099448358	 0.116508
H	-0.9964970269	-0.2896745029	-2.5654540185	 0.105351
H	 2.4170480074	 0.814651982	-1.8707590317	 0.096905
H	 2.6355873595	 0.1261830493	-0.2722981568	 0.097326
H	 3.9450520275	-1.3025702918	-2.2010788138	 0.087058
H	 2.3689006995	-3.3548705905	-2.2255139099	 0.084894
H	-0.0610651899	-2.4153611272	-1.9146730151	 0.06506
H	 1.3784831949	-2.4889632449	 0.7925570297	 0.116608
H	-0.3753040777	-2.5962315522	 0.5435526704	 0.112634
H	 0.6890117342	-3.8681678112	-0.0636700966	 0.10742
