20
gdb 17550	3.08243	2.06429	1.61989	0.3442	79.13	-0.235	0.0942	0.3292	901.0028	0.177107	-311.831462	-311.823769	-311.822825	-311.862851	30.772	
C	-0.0261567493	 1.5594696878	 0.0412318587	-0.502972
C	 0.0496041938	 0.060720551	-0.0035698982	 0.29819
C	-0.8713088219	-0.842219677	 0.7771288544	-0.323688
C	 0.613001578	-0.9419640261	 1.0131613896	-0.09306
C	 1.2749911742	-1.7550934286	-0.1079452564	-0.316293
C	 0.6805960485	-0.7568787298	-1.1249727031	 0.340933
C	 0.1238964363	-1.0347935344	-2.4913011954	-0.326928
C	 1.387082037	-0.2137497255	-2.3287522447	-0.340551
H	 0.9414483346	 2.0171705091	-0.1933273655	 0.117973
H	-0.7600875205	 1.9477482352	-0.6764614445	 0.116443
H	-0.3290032371	 1.9066221019	 1.0345556226	 0.116553
H	-1.4347266606	-0.3555324328	 1.5680429077	 0.102979
H	-1.4052122689	-1.6516344965	 0.2833264557	 0.101834
H	 1.0500607886	-0.7445201311	 1.984941568	 0.081306
H	 2.3676508711	-1.7170135042	-0.0788278863	 0.101149
H	 0.959262517	-2.8013272944	-0.1939812388	 0.091915
H	 0.2174457253	-2.0411124795	-2.8874208622	 0.108256
H	-0.7825470897	-0.5200211376	-2.7950669081	 0.108194
H	 1.3261602119	 0.8520849175	-2.5261785912	 0.109914
H	 2.3333077418	-0.6630809849	-2.6147429924	 0.107852
