13
gdb 22037	3.13668	1.4984	1.01401	3.5992	70.7	-0.19	-0.0309	0.1592	1056.0852	0.089356	-493.983211	-493.975644	-493.974699	-494.01548	28.367	
O	-0.0272253481	 1.3700282923	-0.1937114554	-0.391832
N	 0.0572100053	-0.0248574578	-0.0932128675	-0.273355
C	-1.0872869746	-0.6102872226	 0.0548187269	 0.225228
C	-1.1085193752	-2.0575132965	 0.1682916353	-0.182031
C	-2.2749415302	-2.7152671211	 0.3226440943	 0.028542
N	-3.4567518493	-2.0307265047	 0.3753633497	-0.246288
N	-3.5353378192	-0.6865312816	 0.2791036437	-0.247182
C	-2.4396755252	-0.0347635921	 0.1314169275	 0.282141
F	-2.5798010496	 1.2766420036	 0.0436837427	-0.043095
H	 0.8993723778	 1.6102786796	-0.2956309867	 0.305961
H	-0.1680875089	-2.5893524127	 0.1257983473	 0.123722
H	-2.3526535253	-3.7913866068	 0.4126239905	 0.137454
H	-4.3429929875	-2.4897339996	 0.4886180517	 0.280733
