20
gdb 92259	2.6478	1.64756	1.34717	1.3338	78.48	-0.2101	0.0591	0.2692	1037.6412	0.171957	-403.080883	-403.072989	-403.072045	-403.113334	31.301	
O	 0.0225402012	 1.4338682813	 0.4084104555	-0.434728
C	 0.0072641229	 0.0689883372	 0.0584108556	-0.00816
C	 0.2944840176	-0.9982831749	 1.1564146188	-0.217562
N	-0.9888846918	-1.7105290995	 0.8414617693	-0.163139
C	-2.0911127277	-1.3820274497	 1.8096396914	-0.187284
C	-2.5916266849	-0.2178069974	 0.9213894881	-0.097686
C	-3.5475482219	-0.6321429863	-0.2396894779	-0.224509
C	-2.3299277719	-0.7647887251	-1.211144291	-0.317588
C	-1.3919663313	-0.5254609463	-0.0255311613	 0.406321
H	 0.9348065276	 1.7402052974	 0.4018372487	 0.285647
H	 0.584354725	-0.1156542218	-0.8593282234	 0.070915
H	 1.1778790347	-1.6278251239	 1.0129852192	 0.097806
H	 0.3229954461	-0.5586715426	 2.160715866	 0.098426
H	-2.7942498884	-2.2114160431	 1.9468357246	 0.096671
H	-1.7176841872	-1.0805329559	 2.7950919292	 0.098299
H	-2.7674971338	 0.7532121565	 1.3829770323	 0.080705
H	-4.0932395094	-1.5614221551	-0.0555036465	 0.102658
H	-4.26710667	 0.1376889589	-0.5259634981	 0.102729
H	-2.1994624106	-1.7190332529	-1.7278918554	 0.104617
H	-2.2892420365	 0.0468076431	-1.9442620851	 0.105865
