18
gdb 10213	2.68043	1.31824	0.99038	3.4583	65.39	-0.2455	-0.0323	0.2132	1213.063	0.150426	-422.070834	-422.061176	-422.060232	-422.106306	32.883	
C	 0.3311931224	 1.6710025963	 0.2149571581	-0.387843
C	-0.0021295327	 0.1901227898	 0.2226676712	-0.044476
O	 0.8798820762	-0.4657980349	 1.1244760924	-0.269114
C	 0.6583855367	-1.8559069061	 1.2551678517	 0.009248
C	 1.9076957	-2.4296296957	 1.9364379601	-0.07869
O	 2.1489250341	-1.7969246253	 3.1760849629	-0.424143
C	-0.577662297	-2.1402482798	 2.1105167313	 0.150412
O	-1.143784462	-3.2008213305	 2.1263499534	-0.243579
H	 1.3685221545	 1.8288348335	-0.0933837409	 0.130799
H	-0.3231525028	 2.2027072866	-0.4817730274	 0.123497
H	 0.1988716233	 2.101168517	 1.211708434	 0.129456
H	-1.0491457813	 0.0306188163	 0.5254492694	 0.099497
H	 0.112286949	-0.2428591883	-0.7837545639	 0.099586
H	 0.5230827705	-2.3426008423	 0.2768294697	 0.092194
H	 1.7543098267	-3.4939889424	 2.1351730451	 0.131729
H	 2.7592850416	-2.3205636531	 1.2480578698	 0.098871
H	 2.1860505643	-0.8508864014	 2.9922596914	 0.29421
H	-0.8980787735	-1.2832223997	 2.7445426617	 0.088347
