19
gdb 65615	3.16495	1.30635	1.16989	3.2148	79.76	-0.2446	0.0237	0.2683	1123.7301	0.159964	-382.049533	-382.041136	-382.040192	-382.0824	32.353	
C	 0.0342221225	 1.4960997628	-0.1190536448	-0.438773
C	 0.0473749749	-0.0258371784	-0.0018909647	 0.159179
N	 1.0461478942	-0.7172317572	-0.8690620661	-0.351939
C	 1.4419809715	-1.6482543429	 0.2248357346	 0.012891
C	 2.801347274	-1.2637100403	 0.8464383284	-0.204431
C	 2.073810389	-0.1903792962	 1.7181986157	-0.254748
C	 0.6935725853	-0.7301378834	 1.2383590478	-0.060886
C	-1.3137254672	-0.5541665851	-0.2020455362	 0.244899
N	-2.3711841283	-0.9870659714	-0.3836043025	-0.344122
H	 1.0477517129	 1.8859108647	-0.0100716976	 0.132246
H	-0.3416283844	 1.7976707545	-1.1012035478	 0.136025
H	-0.6103277307	 1.9413161926	 0.6448270935	 0.132562
H	 0.6608063256	-1.1530535988	-1.6991414105	 0.232769
H	 1.2018110154	-2.7012464055	 0.0630109476	 0.080151
H	 3.2323448652	-2.0683311529	 1.4487862864	 0.102216
H	 3.5501629696	-0.9020925213	 0.1389896255	 0.108146
H	 2.2299167011	-0.296889798	 2.7935108377	 0.109371
H	 2.2863021595	 0.8459813378	 1.449776342	 0.110412
H	 0.0086274797	-1.089248781	 2.0032768412	 0.094034
