19
gdb 33173	3.33361	1.0388	0.84502	3.4088	77.65	-0.189	0.0411	0.2301	1394.1977	0.160162	-419.273227	-419.26406	-419.263116	-419.308487	33.271	
C	-0.0592176003	 1.5597198476	-0.0013873301	-0.379554
C	-0.085547672	 0.0298681354	 0.0220392797	-0.171143
C	 0.7501110079	-0.5440756919	 1.1728847	-0.160549
N	 0.744343384	-1.9931031279	 1.222197035	-0.087925
C	-0.2497020468	-2.8177459054	 1.7447002759	-0.112685
C	 0.1287799226	-4.0980229857	 1.5538584064	-0.096443
N	 1.359523463	-4.0656949016	 0.9037588686	-0.363207
C	 1.7715137441	-2.7599917938	 0.6774355364	 0.460968
O	 2.7888975508	-2.3663286476	 0.1343981365	-0.450674
H	 0.9622823259	 1.9361665448	-0.1222694883	 0.124505
H	-0.6581533196	 1.9520550041	-0.8282426136	 0.117958
H	-0.4596097887	 1.9805532388	 0.9280031711	 0.113609
H	-1.1191462186	-0.3272747609	 0.1119675652	 0.096879
H	 0.3040700712	-0.3699762895	-0.9208098725	 0.12085
H	 1.7969684177	-0.2477691064	 1.0591548769	 0.143703
H	 0.3925102424	-0.1573780126	 2.1348983737	 0.105359
H	-1.1305654822	-2.4154837504	 2.2152095008	 0.133082
H	-0.3582893164	-5.0192753419	 1.8209974225	 0.138048
H	 1.9133554347	-4.8529674351	 0.6182558757	 0.267218
