19
gdb 122466	2.71736	0.87929	0.725	4.2613	77.58	-0.2612	0.0155	0.2768	1594.9735	0.158156	-419.182778	-419.172953	-419.172009	-419.219157	34.152	
C	-0.0130383769	 1.1145845896	 0.7665744281	-0.386351
C	-0.0937531699	-0.0425694282	-0.2135778974	-0.027546
O	-1.3516282301	-0.6751600337	-0.0603362854	-0.251569
C	-1.5282278593	-1.7747151035	-0.9200236855	-0.058026
C	-2.8942365047	-2.3506518859	-0.6499933234	-0.036561
N	-3.1225695014	-3.7183492056	-1.1059009015	-0.321378
C	-3.1134822455	-3.445993584	 0.3471629526	-0.179961
C	-2.0240749636	-4.0141625206	 1.1046331349	 0.336527
N	-1.1597734003	-4.4563063681	 1.7321870788	-0.33655
H	 0.9486989081	 1.6270655794	 0.6706955963	 0.117378
H	-0.8120771928	 1.8366789672	 0.5757054195	 0.124667
H	-0.1136943621	 0.7536484896	 1.7938297307	 0.132428
H	 0.0238741864	 0.3161890326	-1.2502437632	 0.086256
H	 0.7163170896	-0.7665073427	-0.0280127242	 0.098035
H	-1.4658450855	-1.4663023893	-1.9780922372	 0.094188
H	-0.7598251967	-2.5459639734	-0.7586405963	 0.117548
H	-3.708062152	-1.6321404957	-0.7276438295	 0.108384
H	-4.0795643695	-3.8502779709	-1.4214794938	 0.24919
H	-4.0604490639	-3.4437414065	 0.8796584265	 0.133342
