19
gdb 74798	2.69688	1.67622	1.49917	1.1085	75.7	-0.2264	0.0159	0.2423	987.9734	0.161194	-423.028457	-423.021007	-423.020063	-423.060038	29.782	
C	-0.0410302958	 1.5047371153	 0.0468791392	-0.505948
C	-0.059341775	 0.0151957536	-0.0257617794	 0.360573
C	-0.07782095	-0.7936508727	-1.0832832912	-0.196193
C	 0.026558206	-2.2229089009	-0.5759223763	 0.010431
C	 1.4995607634	-2.6334839752	-0.3888888342	-0.073322
O	 2.2055052485	-1.6480569919	 0.3587691993	-0.25915
C	 1.5216310987	-1.1977490651	 1.5228276227	-0.076739
C	 0.046689136	-0.8904390842	 1.2025123142	-0.045379
O	-0.5188100772	-2.1255394914	 0.7492314496	-0.264809
H	 0.8749055439	 1.867270953	 0.5309043637	 0.13323
H	-0.0944085134	 1.9553099349	-0.94757019	 0.129743
H	-0.8805783668	 1.8859168445	 0.6419528346	 0.12907
H	-0.0713193814	-0.5109702432	-2.128129431	 0.099146
H	-0.5339772147	-2.9747653591	-1.1388191034	 0.080531
H	 1.5242582248	-3.6063632898	 0.1263214348	 0.095209
H	 2.0273162355	-2.7239757818	-1.3437895951	 0.105174
H	 1.547801019	-1.9627744991	 2.3143786146	 0.096524
H	 2.0656225994	-0.3129904283	 1.8702109666	 0.104598
H	-0.497445311	-0.5486677188	 2.0887491814	 0.077311
