17
gdb 11315	5.66958	1.23105	1.03505	5.7696	79.62	-0.1986	-0.0252	0.1734	1116.1787	0.142738	-363.889539	-363.881502	-363.880558	-363.922231	28.473	
C	-0.0393547647	 1.4128324182	 0.0943668309	-0.331671
N	 0.0113270033	-0.0009936782	-0.1868871995	-0.026586
C	-1.1745564947	-0.846144146	 0.0384816291	-0.171841
C	-0.6394483933	-2.2949359322	-0.1035586329	-0.329168
C	 0.8644728298	-2.1021762561	-0.0112030842	 0.136002
C	 1.8403891061	-3.152329655	 0.0553618849	 0.058536
O	 1.5844220784	-4.3449274994	 0.0828681667	-0.317198
C	 1.1278422382	-0.7715903931	-0.0733429461	-0.059129
H	 0.9302055689	 1.8676189697	-0.1228614603	 0.13809
H	-0.7926438405	 1.8980821833	-0.5355350115	 0.135424
H	-0.2933659751	 1.6191483612	 1.1465301558	 0.122865
H	-1.5685994209	-0.65572515	 1.0487849388	 0.106757
H	-1.9640846787	-0.5977389595	-0.6774097093	 0.116756
H	-1.0297547759	-2.9621793614	 0.6684662692	 0.128988
H	-0.91736449	-2.7327021213	-1.0694504281	 0.122833
H	 2.8970632198	-2.7951268915	 0.090197874	 0.038799
H	 2.1021666592	-0.2959827287	-0.0684295374	 0.130542
