18
gdb 26664	2.27823	1.54804	0.93451	1.2126	76.68	-0.1662	0.0602	0.2264	1233.9109	0.145546	-439.122063	-439.111819	-439.110875	-439.156992	36.613	
C	-0.0419798283	 1.519372641	 0.1169996439	-0.504588
C	-0.0023106129	 0.0357055362	-0.0359955917	 0.21224
C	-0.0142298751	-0.7740032173	-1.1519837848	 0.1099
C	-0.0884217275	-0.3715696842	-2.5924370705	-0.516398
C	 0.06728094	-2.1273636764	-0.6834747639	 0.05468
O	 0.0097410666	-3.3008957161	-1.4142841056	-0.458635
C	 0.1160330053	-2.096289115	 0.6845339287	 0.317299
O	 0.170950871	-3.0887843393	 1.6076615332	-0.444825
N	 0.0734984293	-0.7905238934	 1.0801051002	-0.368422
H	 0.8884655096	 1.9253921842	 0.537113369	 0.121782
H	-0.1924533692	 1.9963151441	-0.8540733188	 0.133624
H	-0.8615805171	 1.8465902818	 0.7704523374	 0.120444
H	 0.8598399042	-0.5369540459	-3.1218564108	 0.112125
H	-0.8528146159	-0.949770434	-3.1241784163	 0.129293
H	-0.3365079854	 0.6873761848	-2.7042983376	 0.12048
H	 0.7893533425	-3.3538608645	-1.9775357252	 0.293624
H	 0.1372033795	-3.9171008648	 1.1139398752	 0.307624
H	 0.0716114634	-0.4893077912	 2.0386678776	 0.259753
