19
gdb 109981	1.98979	1.45063	1.09476	4.3028	75.74	-0.2361	0.0048	0.2409	1205.7734	0.158407	-419.189606	-419.179986	-419.179041	-419.224523	34.369	
C	 0.7191457632	 1.4725231016	 0.3423412091	-0.327546
N	-0.1332539458	 0.6116335566	-0.4668121742	-0.27848
C	 0.5439660276	-0.2416187202	-1.3900536016	-0.027867
C	 1.2054000339	-1.6161635024	-1.0098341642	 0.118584
C	 0.8940257176	-2.2102014858	 0.3494931034	-0.411191
O	 0.4616247976	-2.273984668	-2.0788916692	-0.287851
C	-0.3313264323	-1.1091204289	-2.3442279812	-0.052937
C	-1.7288776913	-1.272714375	-1.9222906267	 0.293182
N	-2.8200310419	-1.3979451555	-1.5614670342	-0.333931
H	 1.4324520765	 0.9382395389	 0.9915907759	 0.10554
H	 1.2971680467	 2.1312703216	-0.3155995648	 0.127922
H	 0.0919797568	 2.1043785804	 0.9768692995	 0.131553
H	-0.8001454361	 0.1040155027	 0.102285887	 0.237238
H	 1.2406000787	 0.368306667	-1.9722564675	 0.102242
H	 2.2800185865	-1.6732622441	-1.218435415	 0.084179
H	-0.1709958048	-2.1395550604	 0.5897214291	 0.129647
H	 1.1691997287	-3.2689840795	 0.3604670126	 0.13838
H	 1.4655150806	-1.7016084694	 1.133029421	 0.123222
H	-0.3119212722	-0.8249091496	-3.4017961291	 0.128115
