23
gdb 72403	2.71931	1.49544	1.40435	1.2289	84.19	-0.2474	0.075	0.3224	1101.504	0.207169	-388.331833	-388.323314	-388.32237	-388.364116	34.882	
C	-0.1000112229	 1.4547462568	 0.022709206	-0.481481
C	 0.0331651589	-0.0519313209	 0.0004262237	 0.403139
C	 0.6463250801	-0.6608261252	-1.2881449344	-0.250811
C	 0.0295451437	-2.0866676713	-1.2837304174	-0.250758
C	-0.8310373882	-2.0500948251	 0.0066737081	 0.403137
C	-2.0200919033	-2.9847462416	 0.0364322485	-0.48148
C	 0.1157039727	-2.1160405321	 1.234066226	-0.250806
C	 0.7323145036	-0.6901348511	 1.2296540863	-0.250756
O	-1.2627490557	-0.6773085265	 0.0374361164	-0.318682
H	 0.8876945186	 1.9260809061	-0.003652797	 0.115936
H	-0.6702351945	 1.8057914121	-0.8424715861	 0.121217
H	-0.6126547047	 1.7843044238	 0.9312908165	 0.121283
H	 0.3248427044	-0.0909189792	-2.1639692132	 0.097323
H	 1.7395768851	-0.658696121	-1.2712804868	 0.093086
H	-0.6080536339	-2.247072484	-2.1572079138	 0.097323
H	 0.7766013107	-2.8848043602	-1.2645703235	 0.093082
H	-1.6872535901	-4.0273709934	 0.0126455488	 0.115936
H	-2.6083504877	-2.8336741813	 0.9464088936	 0.121246
H	-2.6692166717	-2.8126367918	-0.8272492607	 0.121255
H	-0.4607412565	-2.2974967175	 2.1451095837	 0.097322
H	 0.8591861914	-2.9127931977	 1.1451393533	 0.093086
H	 1.8218774865	-0.6865602432	 1.1384221733	 0.093082
H	 0.4715749434	-0.1410632357	 2.1383680989	 0.09732
