15
gdb 52033	2.08511	1.20597	0.90337	2.0406	66.96	-0.274	-0.0551	0.2188	1274.5377	0.110877	-453.986352	-453.976901	-453.975957	-454.022059	31.637	
O	 0.6023385453	 1.4484391375	 1.3366899676	-0.322764
C	 0.2954622019	 1.4475482827	 0.1611732897	 0.15321
N	 1.1619420105	 1.161378082	-0.8461141727	-0.26989
C	 2.5501897767	 0.8446972974	-0.5732758531	-0.171556
C	 3.3419039994	 2.0570652191	-0.0288804187	-0.241801
C	 4.776990166	 1.6766926301	 0.3632504426	 0.159446
O	 5.1641799761	 0.5416927155	 0.3998018329	-0.224086
C	 3.3592762053	 3.1823628989	-0.9607486959	 0.253006
N	 3.3898086705	 4.0551518938	-1.717936816	-0.307019
H	-0.722916643	 1.676371753	-0.2042865713	 0.09456
H	 0.8589781683	 1.2736718034	-1.7998466104	 0.265931
H	 2.6054950422	 0.057095757	 0.180496757	 0.162632
H	 3.0142410909	 0.4715034757	-1.4872698711	 0.138873
H	 2.841174704	 2.3872541714	 0.8937121417	 0.188386
H	 5.4278467259	 2.5350535423	 0.6273007877	 0.121071
