22
gdb 57409	2.82616	1.27954	1.26076	2.0474	81.25	-0.2231	0.059	0.282	1164.4501	0.192994	-404.298029	-404.288598	-404.287654	-404.331716	36.78	
C	-0.8433299505	 1.3634203372	-0.2447523804	-0.384481
C	-0.0655488818	 0.0829947054	 0.0765283886	 0.277942
C	 1.2035266368	 0.4065691711	 0.883303892	-0.421061
O	-0.9433490867	-0.7045120729	 0.8865119318	-0.450594
C	 0.357671181	-0.5962841793	-1.2336585432	 0.028341
C	 0.4255579846	-2.0271375834	-1.6045133799	-0.085999
C	-0.750925463	-2.8925993174	-1.14910869	-0.239375
C	-1.6737512275	-1.8212178956	-1.7704244297	-0.148419
N	-0.5013533237	-1.0499669449	-2.3424214719	-0.176887
H	-0.2418152647	 2.035347998	-0.8631807145	 0.116124
H	-1.7602862145	 1.129790188	-0.791057297	 0.132055
H	-1.111475437	 1.8809205041	 0.6804900918	 0.117497
H	 0.9259151645	 0.8670358917	 1.8355621734	 0.122989
H	 1.7739894087	-0.5066689371	 1.0918054298	 0.109332
H	 1.863039463	 1.0930051933	 0.3441320203	 0.120244
H	-0.4281219678	-1.4262790181	 1.2604782991	 0.280254
H	 1.1842125215	-0.0356434346	-1.6731899133	 0.08862
H	 1.311783242	-2.4304266883	-2.0885205364	 0.090005
H	-0.7828205178	-3.8325796651	-1.704242312	 0.107973
H	-0.8519540441	-3.1169990818	-0.0856650427	 0.086653
H	-2.2869178982	-2.1898166458	-2.5949219159	 0.103866
H	-2.2936673848	-1.2536672346	-1.0770195896	 0.124922
