16
gdb 15818	4.2139	1.22815	1.10554	2.7928	61.69	-0.2415	-0.0319	0.2097	1096.4549	0.127793	-420.845954	-420.837382	-420.836438	-420.879878	29.378	
C	 0.4014426527	 0.3458183779	 0.5892986712	-0.242193
O	-0.9522094554	 0.5360690637	 0.2214975016	-0.213092
C	-1.704472884	-0.6377961061	 0.1786553896	-0.178674
C	-1.4139272919	-1.51466421	-1.0422062783	 0.330612
O	-0.6234746365	-1.2090649726	-1.903292231	-0.298522
C	-2.1920393553	-2.7988022597	-1.1522590172	-0.015807
C	-2.1486605089	-3.8138354311	-0.0784004362	-0.17224
O	-3.2906338112	-2.989081449	-0.2558540037	-0.215968
H	 0.946691668	-0.2484302546	-0.1522503703	 0.131605
H	 0.8525243501	 1.3384375935	 0.6529365558	 0.131955
H	 0.4805054248	-0.1417269383	 1.5742193881	 0.097478
H	-1.5900590768	-1.2395315473	 1.0976086534	 0.107191
H	-2.7628082911	-0.353762222	 0.1335795821	 0.149752
H	-2.346103647	-3.138081203	-2.1754310918	 0.125539
H	-2.2732907847	-4.8608255041	-0.3487422454	 0.135596
H	-1.5643003327	-3.6276906674	 0.8209126822	 0.126768
