15
gdb 10047	3.49103	1.25991	0.98996	6.2547	65.68	-0.2656	0.0105	0.2761	1136.4672	0.119121	-358.862203	-358.853467	-358.852523	-358.896085	29.941	
N	-0.0278740971	 1.4889694898	 0.0303351536	-0.516246
C	 0.0014028362	 0.0335463672	 0.0085118129	-0.165056
C	 0.8473823184	-0.4982829202	 1.1882988254	-0.121231
C	 0.8077810737	-2.0469540563	 1.243245686	-0.355874
C	 1.4497984399	-2.5981427276	 2.4334836273	 0.270653
N	 1.9452006181	-3.028941638	 3.3836547195	-0.288817
C	 2.2249761077	-0.0101069576	 1.0722617939	 0.289149
N	 3.2995618469	 0.3910294117	 0.9314052962	-0.317686
H	 0.878279958	 1.864438696	-0.2344121185	 0.249821
H	-0.6987766862	 1.8362954568	-0.6462286308	 0.240224
H	-1.0215375695	-0.3337958186	 0.1459144038	 0.117998
H	 0.3853458551	-0.4127150694	-0.9248633426	 0.103904
H	 0.4258196888	-0.0911597681	 2.1131242016	 0.159327
H	-0.238901099	-2.3698088154	 1.2317695046	 0.162605
H	 1.2861040792	-2.4667975103	 0.352216877	 0.171229
