15
gdb 37844	3.23499	2.36852	1.7554	3.2886	69.38	-0.218	-0.0602	0.1578	769.1063	0.113917	-416.611413	-416.60578	-416.604836	-416.640947	24.547	
C	-0.0154829781	 1.5694914419	 0.0399788765	-0.265771
N	 1.4685524842	 1.7699747822	 0.1235254754	-0.219885
C	 1.9492984751	 0.7168722573	-0.4401780343	 0.208487
O	 2.5315069886	-0.2597222797	 0.3891557359	-0.26259
C	 1.2312425118	-0.9186029465	 0.4841386901	 0.106842
C	 0.8294225454	-1.5132291288	-0.8744134162	-0.092085
N	-0.6459166406	-1.2398754588	-0.5380428666	-0.402515
C	 0.0811611242	 0.022482349	-0.1873854888	 0.25339
C	 1.072023206	-0.0670124142	-1.3930115677	-0.118788
H	-0.442634419	 1.9130602125	 0.9866743684	 0.132894
H	-0.5646870659	 2.0510070007	-0.7823304711	 0.113452
H	 1.0900377388	-1.4336092894	 1.4304556104	 0.121597
H	 1.1312733482	-2.4650293681	-1.3090594959	 0.102202
H	-1.1667908585	-1.1010582842	-1.4083539907	 0.22102
H	 0.7631399999	 0.3040809261	-2.3657813954	 0.101749
