17
gdb 74047	3.01211	1.36238	0.95057	5.8305	80.57	-0.2279	-0.069	0.1589	1203.7176	0.137101	-418.054969	-418.046456	-418.045512	-418.088606	31.218	
C	-0.1200897542	 1.5251102277	 0.0361397712	-0.474221
C	-0.0348208908	 0.0278705755	-0.0235396183	 0.292088
C	-0.0377639245	-0.6568877061	-1.1780710887	-0.24566
C	 0.089084091	-2.114238071	-1.2310080559	 0.335123
O	 0.1521575495	-2.7328770613	-2.2759046935	-0.336143
C	 0.1592583913	-2.8637281477	 0.0917034712	 0.25251
N	 0.3261799942	-4.1268186808	 0.1586634489	-0.520601
N	-0.0156757707	-2.1062454947	 1.2241257276	-0.345292
C	 0.0757728261	-0.669586502	 1.3004208627	-0.233069
H	 0.7323527127	 1.9456214831	 0.5834758365	 0.14097
H	-0.13793705	 1.9638381796	-0.9632211387	 0.141796
H	-1.0236662234	 1.8436331111	 0.5703256009	 0.14283
H	-0.1048231015	-0.1504356944	-2.1363919209	 0.109605
H	 0.3770592625	-4.4839333829	-0.7974274622	 0.234055
H	 0.0868886792	-2.6236764858	 2.0849679016	 0.250163
H	 1.0251612862	-0.3471817729	 1.7661937905	 0.127715
H	-0.7152073477	-0.2858432974	 1.9626001971	 0.12813
