17
gdb 70658	2.46642	1.57355	1.17827	1.7918	73.03	-0.234	0.0404	0.2744	1066.6603	0.134907	-421.76876	-421.760536	-421.759592	-421.801282	32.149	
O	 0.3518429028	 1.2214084504	-0.3394281818	-0.468159
C	 0.0039552909	-0.0927830631	-0.0599580362	 0.364101
C	-0.7672342868	-0.9289420593	-1.0622427913	-0.392933
C	-1.4048886109	-0.4784619052	 0.2420020957	 0.05566
O	-1.4598747735	-1.3719581803	 1.3220919797	-0.253177
C	-0.1571601051	-1.9196384361	 1.5010219387	-0.110805
C	 0.8457215524	-0.8531257764	 0.9766066723	-0.246917
C	 2.0908940363	-1.4118214406	 0.4747590198	 0.306356
C	 3.1146715654	-1.8689742707	 0.0398915578	-0.462749
H	 1.0963466379	 1.2058335255	-0.9522609903	 0.290616
H	-1.1024102604	-0.401256414	-1.9487098842	 0.121157
H	-0.5088482013	-1.970676223	-1.2184148908	 0.124928
H	-2.2276950069	 0.2254883615	 0.2350923513	 0.117745
H	-0.0230823579	-2.1423545008	 2.5617141041	 0.124589
H	-0.0432844393	-2.8525336141	 0.9341303157	 0.1114
H	 1.0634799487	-0.1293914621	 1.7718830509	 0.119298
H	 4.0220862277	-2.2757160915	-0.3326511614	 0.198889
