17
gdb 111664	2.33336	1.69315	1.32376	4.12	68.18	-0.2637	0.0102	0.2738	1021.1454	0.136512	-458.979509	-458.971532	-458.970588	-459.012369	29.397	
C	 0.1067687182	 0.9903615881	 0.4900607418	-0.249024
O	-0.1591767862	-0.0144554618	-0.4793004389	-0.232759
C	-1.3683242299	-0.6565603339	-0.2886441719	 0.122635
C	-1.492761508	-2.0643674271	-0.7506454328	-0.145104
C	-0.1777534456	-2.7991561978	-0.9788882546	-0.089323
O	 0.5135556616	-2.8304201557	 0.2776250598	-0.220088
C	-0.2413877292	-2.3237956064	 1.2912501722	 0.465001
O	 0.1192703962	-2.3488827256	 2.4335214143	-0.358745
C	-1.5219582302	-1.773125151	 0.7401616996	-0.266909
H	 1.0700414442	 1.4325250168	 0.2295686408	 0.13678
H	-0.6653252694	 1.7729409022	 0.4726106662	 0.110677
H	 0.1615313894	 0.564379727	 1.4994657895	 0.139379
H	-2.2468678175	-0.0176975659	-0.3945588174	 0.099744
H	-2.3676561894	-2.3825315854	-1.3038329222	 0.110418
H	-0.351083959	-3.8303703388	-1.3022536058	 0.120388
H	 0.4663050251	-2.2959845091	-1.7045075561	 0.136561
H	-2.3989398304	-1.8162173257	 1.3715939555	 0.120369
