19
gdb 99230	3.45387	0.81564	0.66806	5.0308	75.32	-0.2457	0.021	0.2667	1669.4528	0.157354	-456.388547	-456.377849	-456.376904	-456.426254	36.103	
C	-0.2444991677	 1.1837139434	 1.1341300975	-0.33448
N	 0.2405578148	-0.1755859608	 1.2542676249	-0.299163
C	 0.983995976	-0.7719851375	 0.2892425744	 0.360803
O	 1.317853604	-0.2455108739	-0.7576359054	-0.380897
C	 1.4130524526	-2.2075880812	 0.5752806335	-0.149336
O	 0.9231347885	-2.6397530966	 1.8488454144	-0.252214
C	 1.2331462711	-3.90205242	 2.2292561844	 0.39773
C	 0.6439812423	-4.1937987247	 3.5849596121	-0.465195
N	 1.926353194	-4.6523114084	 1.478971364	-0.508829
H	 0.1006164465	 1.5700417439	 0.174240442	 0.170856
H	-1.3393551481	 1.2204380526	 1.1618075608	 0.125008
H	 0.1462932238	 1.8190632198	 1.936894152	 0.125008
H	 0.0308158592	-0.718411064	 2.0755240573	 0.256051
H	 1.0355648974	-2.8582680272	-0.218528962	 0.151329
H	 2.5047264964	-2.2665822063	 0.5473923277	 0.151327
H	-0.4439249286	-4.0777512042	 3.5576010045	 0.147104
H	 0.8856034355	-5.2083287643	 3.9046696252	 0.132884
H	 1.0286464751	-3.4852229227	 4.3250400711	 0.147115
H	 2.0680091873	-5.5624832177	 1.9102856016	 0.224898
