21
gdb 109467	2.04709	1.55565	0.95007	2.6664	85.19	-0.2348	-0.0153	0.2195	1291.1499	0.18132	-387.138012	-387.128459	-387.127515	-387.172797	35.409	
C	-0.1147288959	 1.5923812038	 0.0441545686	-0.388025
C	-0.0060467974	 0.0649545477	 0.0416421001	-0.180834
C	 0.7020293679	-0.5079650972	-1.2111916729	-0.200096
C	 2.2149859619	-0.2133351016	-1.2091781723	 0.394684
O	 2.7230610294	 0.8785729043	-1.1721137094	-0.3121
C	 2.9768006169	-1.5461980542	-1.2528180428	-0.366734
C	 1.8745261417	-2.560982663	-1.349808832	-0.181039
C	 0.65207113	-2.0189748635	-1.3352766616	 0.320642
C	-0.6437181405	-2.7601481534	-1.4480338007	-0.494424
H	 0.8705372231	 2.0571641907	-0.0283603626	 0.151325
H	-0.7109712173	 1.9418584417	-0.8064214079	 0.110054
H	-0.6014506846	 1.9434242243	 0.9594825401	 0.107351
H	 0.5269464088	-0.278224927	 0.9375092152	 0.100079
H	-1.0095869813	-0.3725880522	 0.0992406855	 0.098692
H	 0.2554195254	-0.0256976369	-2.0944550125	 0.097909
H	 3.6686508627	-1.5529339913	-2.1053086504	 0.133738
H	 3.603283092	-1.6474179541	-0.3563107453	 0.134331
H	 2.0661488742	-3.6252597245	-1.4382833976	 0.091443
H	-0.4768558746	-3.8334234439	-1.5741408798	 0.124811
H	-1.2721174722	-2.618948848	-0.5605715808	 0.131645
H	-1.2299444102	-2.4031126617	-2.3046816208	 0.126547
