17
gdb 73244	2.27118	1.91487	1.40904	3.0788	68.1	-0.2367	0.0193	0.2561	963.884	0.138417	-455.161279	-455.153617	-455.152673	-455.193309	29.854	
O	 0.1386414283	 1.3615383508	-0.0571566405	-0.478052
C	 0.0344634148	-0.0298057295	-0.0418434474	 0.308167
C	 0.2236970824	-0.7919700708	-1.3799270286	-0.233662
N	-0.9559058711	-1.6291260616	-1.038492645	-0.32026
C	-1.356044513	-0.7077796372	 0.0554754684	-0.054675
C	-1.419935716	-1.406506942	 1.4244956281	-0.164805
N	-0.0221598899	-1.4200919551	 1.8437762965	-0.309248
C	 0.8082798451	-0.5954666357	 1.1530777231	 0.351714
O	 1.9481814939	-0.2806803706	 1.4391507653	-0.405541
H	 1.0037253034	 1.5665198166	 0.3272139914	 0.292994
H	 0.0734486107	-0.0995264644	-2.2173067706	 0.105624
H	 1.1528705416	-1.3513086617	-1.5299153065	 0.114719
H	-1.6381905832	-1.7202428463	-1.78155179	 0.223942
H	-2.2177519701	-0.0665151311	-0.1465750365	 0.084526
H	-2.0415642496	-0.8551682974	 2.1422666395	 0.10885
H	-1.8154050524	-2.4212420577	 1.3179517206	 0.121125
H	 0.2852653352	-1.8312641662	 2.7117479721	 0.254581
