19
gdb 40908	3.52394	1.25594	1.22568	2.2039	74.29	-0.2304	0.0665	0.2969	1096.5375	0.160812	-422.981917	-422.974289	-422.973344	-423.014339	29.155	
C	-0.1431918828	 1.4432919467	-0.2935469751	-0.145285
O	 1.2142951873	 1.6091514715	 0.1731496354	-0.277943
C	 1.3571958776	 0.1964368493	 0.4356571283	-0.150531
C	-0.0570357899	-0.0632300304	-0.0722078704	 0.247901
C	-1.0586099245	-1.0615141666	 0.4602607613	-0.170318
C	-2.5366699366	-0.7411755936	 0.2991160981	-0.247912
C	-2.647159761	-0.3292432106	-1.1871450358	-0.087631
O	-1.5459927795	-0.929105384	-1.875443178	-0.257202
C	-0.5278047441	-1.1875569138	-0.9447288524	 0.038933
H	-0.8624713955	 1.9845047055	 0.3364230527	 0.099808
H	-0.2621026716	 1.7638309971	-1.3362129545	 0.113317
H	 2.1726341321	-0.2516233441	-0.1481163219	 0.103387
H	 1.5254495717	-0.0076799329	 1.5021250553	 0.099506
H	-0.7490921911	-1.7331516588	 1.2543125116	 0.091601
H	-3.1241302944	-1.6414626391	 0.5057536603	 0.113517
H	-2.8964234083	 0.0521086126	 0.9613184276	 0.109626
H	-3.568307405	-0.6723679263	-1.6660582159	 0.112617
H	-2.6022673841	 0.7635540492	-1.2891254093	 0.10441
H	 0.1528348597	-1.9623313415	-1.2814883672	 0.102199
