23
gdb 119390	3.93476	0.95587	0.91301	0.1801	90.41	-0.2208	0.0179	0.2387	1426.1032	0.206618	-351.130936	-351.122238	-351.121294	-351.164488	34.514	
C	-0.020348276	 1.6043917852	 0.0520940282	-0.378152
C	-0.0203671996	 0.0759734433	 0.138660736	-0.164684
C	-1.4085645645	-0.5375930772	-0.0921874943	-0.317632
C	-1.4266184432	-2.0516374909	-0.0377526283	 0.332234
C	-1.0124006274	-2.8769544106	 1.2394049127	-0.241307
C	-1.7751327146	-4.0109108071	 0.4760238686	-0.077427
C	-2.7617121671	-2.8829344155	 0.0213558355	-0.258012
C	-0.9024555371	-4.1312612139	-0.7820805062	-0.092683
C	-0.6747489109	-2.8596278417	-1.1173932689	-0.114808
H	 0.9786297719	 2.0155094057	 0.2284325097	 0.109679
H	-0.3513018191	 1.9449796811	-0.9354531981	 0.112676
H	-0.6967540164	 2.0430387888	 0.7943838801	 0.112896
H	 0.686939172	-0.3332228914	-0.5939872175	 0.097208
H	 0.3517889981	-0.2364391439	 1.1226503601	 0.099927
H	-2.1056517604	-0.1399887204	 0.6577620424	 0.088294
H	-1.7944740887	-0.2085472712	-1.0677630991	 0.091714
H	 0.0545451961	-3.0252310948	 1.4225151521	 0.089954
H	-1.5226994209	-2.5438864862	 2.1500947049	 0.08672
H	-2.1145888198	-4.9212133127	 0.9690967681	 0.05778
H	-3.4395778899	-2.548046144	 0.8145860286	 0.086395
H	-3.3030210233	-3.0340102253	-0.9160909575	 0.088569
H	-0.579216944	-5.0473424509	-1.2560655019	 0.096119
H	-0.1147919651	-2.4450430563	-1.9444590953	 0.09454
