19
gdb 99158	4.18008	0.73234	0.66936	3.4604	72.44	-0.2606	-0.0207	0.2399	1662.2596	0.156468	-460.155177	-460.145285	-460.144341	-460.19174	35.348	
O	 0.1909322225	 1.236407827	-0.3306005033	-0.420574
C	 0.0317225628	-0.1308884174	-0.1013535021	-0.127969
C	-1.4398650205	-0.5046063897	 0.0355008869	 0.35511
O	-2.2799460784	 0.3536553069	-0.1385920506	-0.321616
C	-1.773851212	-1.9359908063	 0.4035314368	-0.331421
C	-3.2140028484	-2.3064280255	 0.1385387585	 0.002239
C	-3.6264981885	-2.8352543158	-1.2215730074	-0.319952
C	-3.60139478	-3.7469955173	-0.0196361633	 0.074656
O	-2.5719505931	-4.6876503992	 0.1073211085	-0.418528
H	-0.7140547345	 1.5797890557	-0.4117537188	 0.293011
H	 0.4515233158	-0.7336102382	-0.9261613862	 0.112188
H	 0.5650494132	-0.4479833023	 0.8095134599	 0.114522
H	-1.0887661105	-2.6217124161	-0.10518119	 0.131941
H	-1.5397305281	-2.0450130487	 1.4737679717	 0.138121
H	-3.934391556	-1.6668431585	 0.6366127479	 0.10684
H	-4.5801621968	-2.5290915615	-1.6365388962	 0.118037
H	-2.8377258341	-2.9816032444	-1.9530822605	 0.111821
H	-4.555416396	-4.058979702	 0.4047986084	 0.090819
H	-2.7354848075	-5.3940561468	-0.5259783702	 0.290752
