15
gdb 27122	3.14824	1.4103	1.01203	2.027	72.51	-0.184	-0.0006	0.1834	1108.5209	0.114263	-453.990868	-453.983004	-453.98206	-454.023421	29.685	
N	-0.5758796351	 0.8976247526	-0.8616974156	-0.625543
C	-0.1902209428	-0.2874366858	-0.2395854556	 0.157049
C	-0.9752626968	-1.1958896295	 0.4173498886	 0.379085
N	-2.3468426667	-1.3169325527	 0.6465676904	-0.398915
C	-3.3409159995	-0.8878766805	-0.1762765405	 0.137302
O	-3.184296978	-0.3247952113	-1.2441732338	-0.325373
O	-0.2187151685	-2.1923199283	 0.9738200278	-0.187191
C	 1.0745526634	-1.9086750969	 0.6696717928	-0.020761
C	 1.1539438151	-0.7762509079	-0.0720002052	-0.223356
H	 0.0833986065	 1.1911815532	-1.5702501042	 0.239112
H	-1.512173363	 0.8183329368	-1.2535338052	 0.271128
H	-2.6177682395	-1.7704629744	 1.5076793681	 0.263078
H	-4.3378627351	-1.0998161082	 0.2509788725	 0.090317
H	 1.8077203989	-2.5971318529	 1.0547898935	 0.136059
H	 2.0534298513	-0.3155297243	-0.4509463237	 0.10801
