17
gdb 129687	2.89895	1.41241	1.00329	2.4008	75.22	-0.1999	0.0187	0.2186	1150.9657	0.139295	-414.168508	-414.160349	-414.159405	-414.201557	30.614	
N	-0.0426436621	 1.412608407	-0.1713635274	-0.613066
C	-0.0249041466	 0.0129724252	-0.0707081321	 0.095191
C	-1.1057206745	-0.8494268825	 0.0497917381	 0.295271
N	-0.5565410536	-2.0939939508	 0.2261870622	-0.257798
N	 0.7799589945	-2.0984018244	 0.205513711	-0.221252
C	 1.1140234971	-0.8210277178	 0.0309157519	-0.053962
C	-2.5640509072	-0.6212173409	 0.0503997596	-0.14471
C	-3.1966500201	 0.1823831769	-1.0329550482	-0.234856
N	-3.4200283448	-1.2684977584	-0.9757285551	-0.313458
H	 0.6689153054	 1.7712049591	-0.7951384333	 0.244989
H	-0.9466655926	 1.7723562748	-0.4485552154	 0.240706
H	-1.051284319	-2.9599030626	 0.3588411493	 0.273445
H	 2.1548930612	-0.5353194727	-0.0171830353	 0.104114
H	-3.0486827963	-0.5987298	 1.0255259123	 0.111453
H	-4.0685163322	 0.7902245872	-0.8102182142	 0.125474
H	-2.5538518949	 0.573065425	-1.8172562557	 0.114556
H	-2.8190552241	-1.717721505	-1.6638596976	 0.233902
