13
gdb 2329	5.47302	1.85617	1.54037	3.5919	51.05	-0.2591	0.0002	0.2593	768.7283	0.099784	-381.580675	-381.573465	-381.572521	-381.612402	24.924	
O	-0.497000335	 1.2608329612	-0.4082608291	-0.417123
C	-0.2214305631	-0.0730765037	-0.1197316545	 0.121393
C	-0.3091784745	-0.6333398256	 1.2750328517	-0.359155
C	-1.3466295341	-1.0138784261	 0.248154569	 0.05462
O	-2.611169402	-0.4154864203	 0.4510871982	-0.201701
C	-3.2777888335	-0.0486502657	-0.6749316982	 0.176177
O	-4.3476933186	 0.4761535421	-0.6321371611	-0.2696
H	-1.0896835466	 1.611121535	 0.2655077069	 0.298547
H	 0.5572601409	-0.443143315	-0.7776488756	 0.121696
H	 0.4060578104	-1.3830344358	 1.593943655	 0.130499
H	-0.649994711	 0.0317828183	 2.0625440265	 0.135813
H	-1.3897411685	-2.0285783985	-0.1361966195	 0.113984
H	-2.7250251345	-0.2966706558	-1.5982338593	 0.094852
