18
gdb 116490	3.26951	1.1731	0.904	2.7214	70.12	-0.2521	0.0006	0.2527	1252.1453	0.149171	-476.214616	-476.206383	-476.205439	-476.247895	30.624	
O	 0.2108591179	 1.2969254749	 0.2832078022	-0.422813
C	 0.1018290567	-0.0932419742	 0.1018524127	-0.05753
C	-1.3605521061	-0.5049169297	-0.1545052328	 0.010189
C	-1.4855330131	-2.0163126805	-0.3227811111	-0.113649
O	-2.8037048526	-2.414508488	-0.6766951011	-0.214661
C	-3.6796134955	-2.4348323973	 0.3894224683	 0.018668
O	-4.1843567973	-1.1604521108	 0.7985021209	-0.225823
C	-3.3418046108	-0.1836700389	 1.2199072015	 0.123056
N	-2.1585185382	 0.1091711532	 0.8972821971	-0.277107
H	-0.5315290348	 1.5257690754	 0.8616544415	 0.286663
H	 0.7255371884	-0.3649923011	-0.7568293435	 0.10359
H	 0.4795503813	-0.6478163208	 0.9789504679	 0.080815
H	-1.6776304631	-0.0379779695	-1.0982114348	 0.112055
H	-0.8376584948	-2.3497742108	-1.1388348074	 0.120597
H	-1.1746877845	-2.5324347299	 0.5992447455	 0.099084
H	-4.5671656277	-2.9875514642	 0.0792999748	 0.131027
H	-3.2127631481	-2.9053095018	 1.2698685055	 0.098122
H	-3.8650814378	 0.4493084141	 1.9372358527	 0.127716
