17
gdb 27249	3.25559	1.47548	1.0364	1.073	75.75	-0.2149	0.0132	0.2281	1120.95	0.137245	-421.851104	-421.843252	-421.842308	-421.883979	28.857	
C	 0.1031279311	 1.5027873556	 0.0519022545	-0.489659
C	-0.0693570642	 0.0263981919	 0.0450395048	 0.191548
C	-1.1296264083	-0.813908673	-0.0623352775	 0.134718
C	-2.6173391845	-0.8715436262	-0.211159894	-0.195115
O	-2.9043557793	-2.2641692651	-0.4147407787	-0.280234
C	-1.7758835076	-3.09746729	-0.1051640623	-0.190026
C	-0.6270346238	-2.1466385472	 0.0006328295	 0.206088
C	 0.7146189671	-2.0497132187	 0.1432867645	-0.192424
O	 1.0705246582	-0.7276524912	 0.1708654013	-0.188306
H	 0.7689095907	 1.8327714199	-0.7535188316	 0.141006
H	-0.8645330041	 1.9910562259	-0.0836893097	 0.133078
H	 0.5332907532	 1.8547548668	 0.9966447354	 0.140376
H	-3.1443705013	-0.5057569577	 0.6839884645	 0.107024
H	-3.0036418153	-0.3159857032	-1.0747189222	 0.116443
H	-1.9556994914	-3.6424604124	 0.8344132283	 0.10936
H	-1.6707650891	-3.8392015587	-0.906080373	 0.11911
H	 1.5268548583	-2.7513079866	 0.2315783662	 0.137012
