21
gdb 109563	2.59163	1.2253	0.97079	2.2302	78.7	-0.2456	-0.0239	0.2218	1300.879	0.180361	-424.239132	-424.228951	-424.228007	-424.274208	37.007	
C	-0.2099262962	 1.5678462407	-0.0541447304	-0.387465
C	-0.0094661237	 0.0520060974	 0.0614248613	-0.200196
C	 0.6535006176	-0.5393072587	-1.1772611831	-0.083606
C	 0.8778880369	-2.0919531434	-1.3591084773	-0.101234
C	-0.1145585416	-2.9881126559	-0.6287061059	-0.39153
C	 0.5416866951	-1.9273933079	-2.896115868	 0.067801
O	-0.2195659616	-2.8784016252	-3.5751687739	-0.432506
C	-0.1579824784	-0.6400340207	-2.4718070903	 0.325191
O	-1.2073002164	-0.1771079212	-2.8362503785	-0.325038
H	 0.7467653956	 2.0853308321	-0.1876989822	 0.11101
H	-0.8465476266	 1.8071707202	-0.9102581046	 0.144525
H	-0.6831619701	 1.9703914083	 0.846468008	 0.113312
H	 0.6044504529	-0.1795116818	 0.9407633157	 0.100375
H	-0.9791401044	-0.4313969025	 0.222107211	 0.1081
H	 1.5997866628	-0.0227574328	-1.3819834023	 0.098533
H	 1.9035363535	-2.4146618289	-1.1693567311	 0.08031
H	-1.1508518788	-2.683171029	-0.8100820232	 0.120444
H	-0.0160435311	-4.0200607718	-0.9758320587	 0.132086
H	 0.0555380994	-2.9690411052	 0.4517635915	 0.118392
H	 1.4666591454	-1.7231924377	-3.4504384941	 0.104413
H	-1.1114199402	-2.5164120862	-3.6573951939	 0.297084
