19
gdb 100161	2.27084	0.99895	0.8551	3.202	81.09	-0.2377	-0.0169	0.2208	1468.7656	0.154305	-423.005345	-422.993876	-422.992932	-423.044046	38.503	
C	-0.0163711958	 1.4859362209	-0.0394589794	-0.501087
C	-0.0068965206	 0.0303762261	-0.0259778641	 0.102362
C	 0.0044144418	-1.1726848362	 0.0038276308	 0.063073
C	 0.0120311136	-2.6320107749	 0.007390378	-0.087506
C	-1.4309396516	-3.1995072732	 0.0180250968	-0.418986
C	 0.7646417274	-3.1282742893	-1.2547283688	-0.099125
O	 0.736114561	-4.5465401088	-1.2707554285	-0.426046
C	 0.7281981843	-3.1915573941	 1.249566094	 0.161344
O	 1.1517650043	-2.5367628318	 2.1630123669	-0.251042
H	 1.0021653802	 1.8891643087	-0.0406238648	 0.150791
H	-0.5296165193	 1.8747127492	-0.9259045824	 0.145665
H	-0.528837626	 1.8844449097	 0.8428902566	 0.153093
H	-1.9666002454	-2.8594610135	-0.8727008138	 0.127609
H	-1.4125674605	-4.2914993921	 0.0142742704	 0.139124
H	-1.9727073774	-2.8483222034	 0.8995902259	 0.132626
H	 0.2663906111	-2.7027498762	-2.1381686809	 0.10418
H	 1.7942815744	-2.7435401876	-1.2311217664	 0.108338
H	 1.2607653149	-4.8525071278	-2.0158428919	 0.295177
H	 0.8136101833	-4.2977402258	 1.2334191016	 0.10041
