14
gdb 5510	3.77618	1.95121	1.29696	3.5378	73.63	-0.2164	-0.0106	0.2057	888.6288	0.107917	-341.59346	-341.585994	-341.58505	-341.625483	26.883	
C	-0.0385566849	 1.4349002247	 0.0707360622	-0.339886
N	-0.0199940769	-0.0139445167	 0.0282785045	-0.064262
C	-0.057019311	-0.8051324678	-1.0754549202	 0.000647
N	-0.0260808713	-2.0893111678	-0.7811519842	-0.261115
C	 0.0341075226	-2.1403537302	 0.581219436	-0.182571
C	 0.0398730231	-0.8677275608	 1.1235384778	 0.145347
C	 0.0912722972	-0.4043182313	 2.4499918885	 0.274645
C	 0.1350974027	 0.0018350139	 3.5843103977	-0.470909
H	 0.8655642319	 1.8188859337	 0.5509805958	 0.154268
H	-0.0882881081	 1.8151293046	-0.9509155773	 0.144822
H	-0.9080514657	 1.7939384717	 0.628043141	 0.154261
H	-0.1063461394	-0.3851566117	-2.0697752658	 0.130654
H	 0.0707885681	-3.0749853688	 1.1194363655	 0.120051
H	 0.1740503818	 0.3468960164	 4.5876476485	 0.194049
