18
gdb 35915	2.75532	1.51991	1.20393	4.7273	75.	-0.2691	0.0319	0.301	1059.8316	0.15034	-401.952138	-401.94455	-401.943606	-401.984396	29.399	
N	-0.2081190619	-1.1459470717	-0.383295669	-0.332763
C	-0.1094047524	-0.0106587676	-0.1894299544	 0.282495
C	 0.0066885565	 1.4302516354	 0.0595443253	-0.182802
C	-0.690886061	 1.8318607214	 1.3860736477	-0.085955
O	 0.1428769382	 1.6414971508	 2.504375917	-0.235087
C	 1.2056280168	 2.5826633747	 2.528088301	-0.105873
C	 2.0799280218	 2.4817746419	 1.2949081859	-0.037434
C	 2.5170841105	 1.126635234	 0.8169104245	-0.283188
C	 1.4736238323	 1.8906503001	 0.0375169666	-0.042586
H	-0.530779388	 1.9338865943	-0.7524434761	 0.126491
H	-0.9883317564	 2.8896951875	 1.3081997635	 0.096196
H	-1.5875209789	 1.2295953484	 1.547844537	 0.131631
H	 0.7938245701	 3.6024696164	 2.6143381971	 0.093118
H	 1.777745831	 2.3703119786	 3.4364999684	 0.118536
H	 2.7682214956	 3.3114124583	 1.163271863	 0.093249
H	 3.5008920055	 1.0202667087	 0.3749197151	 0.118566
H	 2.1773872246	 0.2640561183	 1.380620256	 0.143607
H	 1.7909251858	 2.3095355504	-0.9106453088	 0.101798
