19
gdb 107811	3.37113	1.54178	1.32579	0.9189	79.13	-0.2249	0.0163	0.2412	1021.5024	0.159867	-385.847113	-385.839609	-385.838665	-385.878823	30.401	
C	 0.0444849692	 1.3534011267	 0.1447794583	-0.263797
O	-0.0021302666	-0.0387923703	-0.0873137594	-0.31286
C	-1.284298275	-0.5863211742	-0.1049846131	 0.412783
C	-2.1185098572	-0.5845566551	 1.2472598765	-0.285198
C	-2.4280825299	-2.0542948419	 0.9897545949	-0.078866
C	-2.7609624602	-2.3357434234	-0.5032494391	-0.087022
C	-3.1242768575	-1.1886494593	-1.3817124609	-0.076476
C	-2.2461747246	-0.1949742181	-1.2132237542	-0.177856
C	-1.3400470751	-2.1459522863	-0.0489384538	-0.135492
H	 1.0992856918	 1.6303986514	 0.207475504	 0.127878
H	-0.4200605441	 1.9265894023	-0.6699845446	 0.110238
H	-0.4505787078	 1.6277024373	 1.0876215692	 0.111329
H	-1.4288254355	-0.4978977046	 2.0915153366	 0.108692
H	-2.9407639635	 0.1310211705	 1.3495802247	 0.087162
H	-2.7127310413	-2.7797854153	 1.7424959404	 0.087831
H	-3.1273410237	-3.3358678553	-0.7037894771	 0.085448
H	-4.0062943269	-1.1689090352	-2.0100456694	 0.097613
H	-2.3004776382	 0.7951972255	-1.6474293404	 0.096197
H	-0.512990184	-2.8320891346	-0.1808029225	 0.092395
