16
gdb 27413	2.48469	1.63186	1.06237	5.2422	81.9	-0.2455	-0.078	0.1675	1114.2366	0.125106	-400.792669	-400.784849	-400.783905	-400.825113	29.316	
C	-0.2197351179	 1.5097581109	 0.0928572191	-0.484938
C	-0.05449426	 0.0130416902	-0.0460884058	 0.29405
C	-0.3986843391	-0.6106378294	-1.1979139594	-0.247179
C	-0.084694097	-2.0161218046	-1.5329493505	 0.33015
O	 0.4138360895	-2.313965213	-2.5963484271	-0.320855
N	-0.4870753341	-3.0033663603	-0.6275522058	-0.230626
C	-0.1890370094	-2.9993781002	 0.6208105281	-0.00142
C	 0.4943298308	-1.9850884657	 1.3922315982	-0.10003
C	 0.5259629311	-0.6625159728	 1.0966607275	-0.117512
H	-0.8459199571	 1.7575696184	 0.9574150742	 0.138456
H	 0.7510533197	 1.9936319243	 0.252893686	 0.140442
H	-0.6743427211	 1.9472548217	-0.7978094742	 0.136064
H	-0.803261087	-0.029365313	-2.0223017727	 0.122989
H	-0.5172981458	-3.8731577694	 1.1913711025	 0.121466
H	 0.9000789166	-2.3065405295	 2.3476350808	 0.110762
H	 0.9719800707	-0.0061815875	 1.8414757193	 0.10818
