18
gdb 48722	3.63722	1.36016	1.16343	2.95	75.86	-0.2417	-0.0253	0.2164	1072.5318	0.14856	-401.920337	-401.91295	-401.912006	-401.952122	29.416	
O	-0.0983192886	 0.0399114251	 0.1723259724	-0.264069
C	 0.0559187413	 1.1943746464	-0.1409451287	 0.105596
C	 1.322899155	 1.9537951538	 0.034760579	 0.230894
C	 1.240403425	 3.433755378	 0.2543909393	-0.286767
N	 1.6147760936	 2.9405874421	-1.0580677626	-0.136366
C	 3.0377396854	 2.8072527247	-1.3730143876	 0.006706
C	 4.12531213	 3.1575091173	-0.3862570927	-0.303974
C	 3.6749683601	 1.7245137162	-0.529720422	-0.026798
C	 2.5935353839	 1.198693813	 0.4172581891	-0.339731
H	-0.7590884535	 1.7917387822	-0.6064704357	 0.082217
H	 0.2666335399	 3.9174158671	 0.2946367644	 0.122403
H	 1.983060517	 3.8788874698	 0.9087265582	 0.124942
H	 3.2416031202	 2.9069228735	-2.432396315	 0.104028
H	 5.0878130989	 3.4194830876	-0.8133083782	 0.11823
H	 3.89634303	 3.7029663242	 0.5220089327	 0.115703
H	 4.3649844572	 1.0082209707	-0.9610159658	 0.095703
H	 2.8523594493	 1.3268519014	 1.473233713	 0.114148
H	 2.4190110051	 0.1316908569	 0.2572163702	 0.137135
