15
gdb 34719	5.35885	1.27604	1.16992	4.6348	74.21	-0.2407	-0.0286	0.2121	1014.303	0.114561	-379.594986	-379.588559	-379.587614	-379.625738	25.837	
N	-0.054172555	-1.1881132535	-0.1542650099	-0.329528
C	-0.0310492718	-0.034787622	-0.0762728542	 0.290058
C	-0.0306342285	 1.4169049399	 0.0296299719	-0.133782
C	-0.0338241408	 2.0791151201	 1.4204238269	-0.067782
C	 1.4649127887	 1.6615924697	 1.5539227978	-0.045698
C	 2.2192564673	 2.7893361554	 2.2198870837	-0.086005
C	 1.6730237261	 3.8786332813	 1.6764902736	-0.09488
C	 0.6388979175	 3.3069722864	 0.734056528	-0.03633
N	 1.3528850126	 2.0931010016	 0.0484898308	-0.144442
H	-0.6961482714	 1.8437134106	-0.725866822	 0.12054
H	-0.8220601756	 2.0622298747	 2.1815190252	 0.086673
H	 1.7477794607	 0.6238165109	 1.722477139	 0.107574
H	 3.0240179135	 2.689675121	 2.9330084516	 0.124506
H	 1.9026819529	 4.9243911615	 1.8174312321	 0.123624
H	 0.0753517838	 3.9560411525	 0.0632771155	 0.085472
