18
gdb 92417	2.1236	1.68349	1.328	2.0066	73.02	-0.2357	-0.0428	0.1929	1052.0121	0.146563	-439.046159	-439.037688	-439.036744	-439.079358	31.489	
C	 0.4511992517	 1.6558303103	 0.0835378761	-0.391274
C	 0.1300557101	 0.1867751237	 0.2692615136	-0.005125
N	 0.6889546187	-0.7290761807	-0.7781794415	-0.336405
C	 1.2561337281	-1.6269705153	 0.2416593193	-0.097745
C	 2.7096637882	-1.2680808743	 0.5961311616	-0.074628
O	 2.2725186155	-0.2611953064	 1.5495409449	-0.337772
C	 0.8903608446	-0.6045041887	 1.3712687164	 0.315647
C	 0.1861093498	-0.9400316824	 2.6484444141	 0.083921
O	-1.0102387644	-1.0749843287	 2.7362737878	-0.261331
H	 1.5326616746	 1.8091201911	 0.0587831354	 0.133196
H	 0.0260965871	 2.0200146392	-0.8570207878	 0.118389
H	 0.0304748203	 2.2510384463	 0.9009877995	 0.119568
H	-0.9427622614	 0.0272447682	 0.4331646817	 0.097922
H	-0.0217457307	-1.1641017606	-1.3542221653	 0.226221
H	 0.9547046223	-2.6748627439	 0.2229074594	 0.09387
H	 3.277055487	-2.0603094595	 1.1000955693	 0.105458
H	 3.2921393107	-0.8412272913	-0.2254186807	 0.117766
H	 0.8669431478	-1.077101427	 3.5167378562	 0.09232
