19
gdb 56546	2.60527	1.10225	0.99443	3.4385	78.71	-0.2352	0.0393	0.2745	1295.8405	0.156876	-419.209779	-419.199101	-419.198157	-419.246522	38.	
C	 0.1101348816	 1.4274813918	-0.1872516249	-0.391165
C	-0.015216672	-0.0891048038	 0.0504497047	-0.151857
C	 0.6636328095	-0.5003264071	 1.2824838529	 0.32407
C	 1.2205827645	-0.8086389313	 2.3022113308	-0.46592
N	-1.412996938	-0.5375378416	 0.0419439273	-0.097044
C	-2.2627174636	-0.2748966004	 1.1903572195	-0.354542
C	-1.8653322	-1.1768322119	-1.0912108451	 0.463131
N	-3.183214732	-1.6159179511	-1.0357761807	-0.575565
O	-1.1873636874	-1.3098292669	-2.098770838	-0.414645
H	 1.1632123689	 1.7210302504	-0.202529713	 0.129538
H	-0.3427065319	 1.6796052415	-1.1492702955	 0.13666
H	-0.3878785961	 1.9981832506	 0.6021436976	 0.118926
H	 0.4434276067	-0.6023821995	-0.7994045247	 0.157581
H	 1.7236729966	-1.0968555235	 3.1920145226	 0.198542
H	-3.2328686472	 0.1190104294	 0.8728339152	 0.1397
H	-2.4258785968	-1.1693439277	 1.8085501772	 0.12433
H	-1.7850393656	 0.4701758497	 1.8280541964	 0.14659
H	-3.5517641312	-1.9298188949	-0.151410632	 0.251332
H	-3.400638536	-2.2234289437	-1.8112038303	 0.260338
