18
gdb 40263	3.02238	1.53382	1.18888	1.646	72.8	-0.2451	0.0133	0.2584	1055.1224	0.149109	-439.068338	-439.060669	-439.059725	-439.100542	29.782	
C	 0.0665848633	 1.5458290554	-0.1479816832	-0.318772
C	 1.3361750718	 0.7195566088	-0.0811788252	-0.321424
C	 0.0048887999	 0.0498538238	 0.0436334861	 0.39575
C	-0.4085618915	-0.5442834175	 1.3727985013	-0.208588
N	-1.825701301	-0.729588104	 1.6417108374	-0.250436
C	-2.6710434453	-1.1437927912	 0.8058799106	 0.119496
O	-2.5725549428	-1.4354252612	-0.5248055483	-0.226206
C	-1.7258918695	-0.6577227942	-1.3644511109	 0.009126
O	-0.3701121931	-0.72892848	-1.069498135	-0.26318
H	-0.1876432566	 2.1837051286	 0.6913631281	 0.124456
H	-0.2121169679	 1.9413124465	-1.1181639634	 0.119966
H	 1.8711938625	 0.5564708524	-1.0093309592	 0.128194
H	 1.962729945	 0.791945571	 0.801091162	 0.11826
H	 0.0720753355	-1.5287018682	 1.470692585	 0.125656
H	 0.00118381	 0.0813460031	 2.1729580291	 0.106503
H	-3.6800866822	-1.3804784597	 1.1447015572	 0.120748
H	-1.8609182161	-1.083075567	-2.3597262095	 0.123482
H	-2.073775342	 0.3845950036	-1.3305205119	 0.096969
