21
gdb 40454	3.82653	1.27475	1.19641	0.3059	85.58	-0.2417	0.0908	0.3325	1130.7455	0.184168	-349.890503	-349.882988	-349.882044	-349.922664	30.983	
C	-0.1828650052	 1.4023487504	-0.2689389522	-0.27588
C	 1.2188725439	 1.0385266231	 0.1475947362	-0.26689
C	 0.1595525348	-0.035641774	 0.0383838315	-0.128198
C	-0.3484580119	-0.7372873238	 1.2528054015	 0.365511
C	 0.2587502598	-2.1138103052	 1.6717175661	-0.274164
C	-1.0920760577	-2.4067497298	 2.3139810097	-0.061015
C	-1.60203351	-1.087902775	 2.9134828021	-0.064541
C	-0.5521427873	-0.0197564473	 2.6226613683	-0.286297
C	-1.7935384884	-1.3895663286	 1.4483008863	-0.137079
H	-0.7956562053	 1.9487084053	 0.4396164464	 0.111823
H	-0.3602325942	 1.6700605623	-1.304822845	 0.109214
H	 2.0065301968	 1.0630212383	-0.597154654	 0.109555
H	 1.5386567483	 1.3308481923	 1.1421144288	 0.114732
H	 0.2443770926	-0.6832355932	-0.8315647916	 0.077818
H	 0.4320399104	-2.7515522275	 0.7993314102	 0.092059
H	 1.1592063049	-2.096600863	 2.2981236533	 0.084262
H	-1.4780902756	-3.3579474255	 2.6576778639	 0.080824
H	-2.356186735	-1.0843460338	 3.6900419745	 0.081395
H	 0.3216762461	 0.0625492252	 3.280742243	 0.085327
H	-1.0172700024	 0.9634760622	 2.507061392	 0.097282
H	-2.6754130747	-1.4439474024	 0.8264730891	 0.084261
