19
gdb 38119	2.47118	2.25871	1.5927	1.4103	79.26	-0.2178	0.0099	0.2278	908.1438	0.162501	-385.872682	-385.866074	-385.86513	-385.90316	28.433	
C	-0.0565286001	 1.4573116063	-0.0323937038	-0.412779
C	 1.3497932217	 0.847854306	-0.0387759309	-0.101043
C	 2.2562100481	 0.455712181	-1.1559169194	-0.090947
C	 2.1511459296	-0.800837844	-1.6021449398	-0.068938
C	 0.9400981759	-1.6202729657	-1.1655029026	 0.041694
C	 0.9645378239	-2.1725746811	 0.3077023108	-0.232971
C	 0.1152989462	-1.1188191053	 1.1060085102	-0.293951
C	 0.1174577149	-0.0201204755	 0.0689676986	 0.42006
O	-0.1618322144	-0.699842372	-1.1392247667	-0.277285
H	-0.3219232688	 2.0360872524	 0.8459166862	 0.11682
H	-0.4936660501	 1.8062722145	-0.9613444855	 0.129606
H	 1.8712271501	 1.0101408351	 0.9037819378	 0.094802
H	 3.0266187709	 1.1340943017	-1.5120104266	 0.091039
H	 2.8283054098	-1.2133232073	-2.3437816568	 0.091665
H	 0.7155320063	-2.4013644891	-1.8952113346	 0.077132
H	 0.518991941	-3.1688851903	 0.3562699593	 0.104623
H	 1.98452448	-2.2406716365	 0.6920765661	 0.10815
H	-0.8918015582	-1.4959118538	 1.3083643002	 0.103421
H	 0.5821487432	-0.8317485465	 2.0509825476	 0.0989
