19
gdb 102272	2.83315	0.93259	0.83192	2.7549	72.63	-0.2467	-0.0275	0.2192	1449.5721	0.155048	-460.189045	-460.178458	-460.177514	-460.225818	36.449	
C	 0.3398977882	 1.1756038386	-0.474121582	-0.483607
C	 0.1490873151	-0.1486326458	 0.2295713835	 0.414229
O	 0.9950341097	-0.6377964054	 0.9427181699	-0.314053
C	-1.1954420048	-0.849601128	 0.0122585132	-0.328457
C	-1.0397509251	-2.3701480414	-0.0294836853	-0.097167
C	-2.3657111023	-3.1340073989	 0.156953623	-0.097456
O	-2.1864802542	-4.5382918478	 0.213527357	-0.411927
C	-0.3456616562	-2.801285139	-1.3085164513	 0.163434
O	 0.149239404	-2.0316226536	-2.0964203024	-0.256743
H	 1.259116398	 1.6561268877	-0.1375229957	 0.140164
H	 0.3946334744	 0.9856660918	-1.5521275378	 0.164627
H	-0.5178179596	 1.8361626441	-0.3053389583	 0.131102
H	-1.8395928188	-0.5624379583	 0.8549846464	 0.121811
H	-1.6734329722	-0.4787377397	-0.8988056977	 0.119262
H	-0.3667372358	-2.6603900755	 0.7927095124	 0.119684
H	-2.8768552533	-2.7525986318	 1.0536756628	 0.100563
H	-3.0326918871	-2.9546332561	-0.6937629044	 0.122352
H	-1.7039731379	-4.745499896	 1.0206896528	 0.287828
H	-0.3262085121	-3.8961111251	-1.4816352062	 0.104352
