20
gdb 59001	3.73098	1.08314	0.91386	0.6429	81.09	-0.2249	0.0137	0.2386	1312.644	0.17139	-403.128662	-403.120023	-403.119079	-403.161992	33.56	
C	 0.3950229351	 0.9485833279	-0.816683503	-0.404934
C	-0.0813688958	 0.0976699904	 0.3603286605	 0.012382
O	 0.0129280368	 0.8205786973	 1.5934040249	-0.436036
C	-1.5036753629	-0.370194308	 0.2515173183	 0.351592
C	-2.3033173717	-0.3410556028	-0.8206994143	-0.185364
C	-3.596008272	-1.0286846899	-0.5419828592	-0.079818
N	-3.4109472521	-2.474958618	-0.2138731111	-0.338443
C	-3.5269649632	-1.4798193769	 0.8748691067	-0.0512
C	-2.1881523944	-1.0292188374	 1.4422250579	-0.29301
H	 1.429989376	 1.2701445667	-0.6561297268	 0.100717
H	 0.3666421909	 0.3824480153	-1.7524273397	 0.122717
H	-0.2298021436	 1.8398614902	-0.9212772202	 0.12796
H	 0.5585112355	-0.8014766718	 0.4224798941	 0.076291
H	 0.9406285249	 1.0333353785	 1.7357887277	 0.281705
H	-2.0522078427	 0.0751947974	-1.7882381666	 0.09026
H	-4.5175251574	-0.7196188868	-1.0237149939	 0.08449
H	-4.3126200146	-2.9408030591	-0.3087829197	 0.223443
H	-4.4045869959	-1.5068819056	 1.5116862739	 0.084396
H	-1.6025528413	-1.8711478672	 1.8307887909	 0.112387
H	-2.3080956716	-0.3163449304	 2.2652829497	 0.120465
