29
gdb 118466	1.78031	0.9658	0.7634	0.0794	99.72	-0.2907	0.0783	0.369	1764.136	0.273168	-354.774161	-354.76181	-354.760866	-354.811835	45.324	
C	-1.3224055374	 0.2318472394	 2.615680804	-0.378857
C	-0.7171506265	-0.6605673634	 1.5267562387	-0.181302
C	-1.6987516353	-1.7375121854	 1.0452661029	-0.168714
C	-1.1490536661	-2.836135303	 0.1081341674	 0.022302
C	-2.224897816	-3.9345377631	-0.0689261578	-0.183928
C	-1.6895765921	-5.2901408957	-0.5429022274	-0.389799
C	-0.6204103283	-2.3466766015	-1.2758083489	 0.058353
C	-1.5119991857	-1.2844541856	-1.9375826077	-0.396943
C	 0.8483884667	-1.8932755405	-1.2435624918	-0.404622
H	-0.6133439473	 0.9972998707	 2.9466004481	 0.108954
H	-2.220230735	 0.7450789549	 2.252892438	 0.11281
H	-1.61272335	-0.3563571383	 3.4934906768	 0.112292
H	-0.3978518691	-0.0303368823	 0.6897566629	 0.101759
H	 0.1922979738	-1.1408627239	 1.9113242532	 0.092109
H	-2.098220109	-2.2427312849	 1.9353387145	 0.085486
H	-2.5646499437	-1.2512935811	 0.5756561543	 0.091757
H	-0.298992243	-3.3048764265	 0.6271068014	 0.059597
H	-2.7362099496	-4.083446743	 0.8900353588	 0.088054
H	-2.9974322373	-3.5801930786	-0.7646711787	 0.093233
H	-2.4992938457	-6.0223044972	-0.6259610565	 0.11031
H	-1.2060413227	-5.2288222382	-1.5230106402	 0.11814
H	-0.952735318	-5.6891787162	 0.1634791394	 0.112358
H	-0.6437294513	-3.2239661215	-1.9349756358	 0.071527
H	-1.476337525	-0.3284112094	-1.4047456922	 0.116002
H	-1.1816600796	-1.0965046446	-2.964706726	 0.107464
H	-2.5593798824	-1.6003425372	-1.9831062207	 0.112211
H	 1.4931379182	-2.6777596664	-0.8328761758	 0.107504
H	 1.2036793098	-1.6675901484	-2.2552815098	 0.104956
H	 0.9948578574	-0.994705869	-0.6381394112	 0.116987
