24
gdb 123221	5.79842	0.41945	0.41181	3.6894	88.82	-0.2487	0.0347	0.2834	2698.604	0.216299	-405.590137	-405.578715	-405.577771	-405.629169	39.354	
C	-0.0370606849	 1.5731656632	-0.228257118	-0.379791
C	-0.0171732205	 0.0592885894	-0.0007157905	-0.16425
C	-1.4130514248	-0.5726968828	-0.0256256326	-0.160679
C	-1.401049288	-2.0880337422	 0.201212277	-0.174866
C	-2.7978323136	-2.7169232102	 0.173798633	-0.18697
C	-2.7650941895	-4.2322077168	 0.4031933438	-0.163896
N	-4.0868178909	-4.8406460311	 0.3933872178	-0.273816
C	-4.5282231421	-5.6512815343	-0.6051213288	 0.153366
O	-3.8803436533	-5.9956109684	-1.5710582733	-0.323006
H	 0.9727030346	 1.9947316075	-0.2053031721	 0.111587
H	-0.4793505713	 1.8216479838	-1.1994770904	 0.114296
H	-0.627614075	 2.081870227	 0.5419990353	 0.112464
H	 0.6090735782	-0.4184943501	-0.7657129142	 0.096243
H	 0.4622295792	-0.1607895005	 0.9624976086	 0.093343
H	-2.0412375312	-0.0949875616	 0.7395190171	 0.089908
H	-1.8933368194	-0.3537411425	-0.9894244194	 0.094888
H	-0.7742907764	-2.565667727	-0.5642680653	 0.101688
H	-0.9205495765	-2.3072391557	 1.1651957341	 0.092248
H	-3.4281951386	-2.2448950267	 0.9406953089	 0.086049
H	-3.281049651	-2.5172698855	-0.7904613603	 0.111712
H	-2.1995143159	-4.7273935378	-0.3897302818	 0.149793
H	-2.2696695749	-4.4577274659	 1.3564316654	 0.105155
H	-4.7360254611	-4.6013832691	 1.1261432318	 0.244077
H	-5.5730707731	-5.979299383	-0.431773096	 0.070455
