19
gdb 88731	3.26959	1.00602	0.88419	3.0812	78.4	-0.257	-0.0411	0.2158	1367.633	0.156975	-422.99744	-422.988217	-422.987273	-423.032192	33.37	
C	-0.1046502419	 1.486648039	-0.0673601253	-0.408639
C	-0.006807915	-0.0143989072	 0.0975888456	 0.005797
C	 1.2709117934	-0.752281636	-0.1993110254	-0.307154
C	 0.760990191	-0.6800129889	 1.2257914187	-0.041087
C	 1.5059513397	 0.118156991	 2.2341849388	 0.053046
O	 0.9184209763	 0.2800020348	 3.5172645844	-0.231453
C	 2.1253923768	-0.4728620548	 3.4604083851	-0.056005
C	 2.0556424216	-1.9399446141	 3.7386007109	 0.145858
O	 1.0534051522	-2.6079676597	 3.7005907071	-0.250846
H	 0.8448284202	 1.9888726087	 0.1409486903	 0.113476
H	-0.3846538193	 1.7404357204	-1.095434514	 0.120404
H	-0.8603270543	 1.9136985559	 0.6005675886	 0.128642
H	-0.9197218078	-0.5406990144	-0.1685558579	 0.094561
H	 1.2340457242	-1.7095819888	-0.7068688067	 0.118619
H	 2.1416659218	-0.1522823323	-0.4489103984	 0.109281
H	 0.3154134816	-1.5776401354	 1.6376222469	 0.124813
H	 2.0066907105	 1.0135035142	 1.8618538096	 0.0978
H	 3.0052622609	 0.0236795533	 3.8737885195	 0.102141
H	 3.0456458683	-2.3904428855	 3.9777626621	 0.080746
