18
gdb 73337	2.3483	1.95677	1.58077	4.27	74.34	-0.2342	0.001	0.2352	941.5575	0.148729	-401.950182	-401.942624	-401.941679	-401.981917	29.718	
C	-0.0502084933	 1.5234307979	 0.0305803227	-0.490093
C	-0.0214780794	 0.0098118744	 0.0553443028	 0.148206
C	-1.3805356857	-0.7130942581	-0.0853026044	-0.245785
C	-1.055965985	-2.2000741332	 0.202781667	-0.254721
C	 0.2955482487	-2.152813329	 0.9088541087	-0.019052
C	 0.7183279052	-0.7793494078	 1.1725485837	-0.083645
N	 1.4855385611	-1.6223661201	 0.1349424166	-0.210755
C	 0.9752614332	-0.707248321	-0.8684663454	 0.397216
O	 1.3663307205	-0.5411122725	-1.9832048459	-0.324391
H	 0.9467878026	 1.946068281	 0.1869086546	 0.130447
H	-0.4119443785	 1.8785924928	-0.9389657447	 0.140156
H	-0.7160255923	 1.9176466078	 0.8060158617	 0.119161
H	-2.0804805228	-0.312299921	 0.6565627597	 0.106407
H	-1.8162907732	-0.5568314019	-1.0760568832	 0.119272
H	-1.8036006	-2.6670036067	 0.8503799755	 0.112816
H	-0.999313365	-2.7995617941	-0.7113641349	 0.127508
H	 0.5951214316	-2.969994174	 1.556089502	 0.112902
H	 1.2348671122	-0.3822406943	 2.0361414935	 0.114352
