15
gdb 42449	3.27909	0.96877	0.88894	1.6945	67.83	-0.2738	-0.0123	0.2615	1322.2199	0.109702	-457.722583	-457.713585	-457.712641	-457.75818	31.148	
O	 0.3376393527	 0.7055942939	 1.2455110391	-0.360377
C	 0.0657197679	 1.1901000897	 0.1772689732	 0.441488
O	 0.917119468	 1.3071460944	-0.861830523	-0.233751
C	 2.2641579306	 0.8432343603	-0.6288995271	-0.220175
C	 3.1263979548	 1.913437741	-0.1485254754	 0.323461
C	 3.8476471268	 2.7926754695	 0.2371222083	-0.457602
C	-1.2851964702	 1.7587681256	-0.1429567737	-0.03659
C	-1.4158639372	 3.0271918083	-0.8873945317	-0.164689
O	-1.7065128389	 1.7818461552	-1.5022954208	-0.210498
H	 2.2376848495	 0.0190650073	 0.0887631263	 0.166366
H	 2.6078044265	 0.4719399907	-1.5976221443	 0.150139
H	 4.4861373516	 3.5658668085	 0.5875254155	 0.210003
H	-2.0403632645	 1.4827308675	 0.5886892906	 0.125371
H	-2.2721895098	 3.6663173896	-0.6791413511	 0.128634
H	-0.5157937078	 3.5240622184	-1.2417018458	 0.13822
