18
gdb 87016	2.09958	1.56894	1.04807	2.7525	79.95	-0.245	0.0257	0.2707	1181.8938	0.145353	-401.950054	-401.940249	-401.939305	-401.98443	36.43	
C	-0.1556260971	 1.5275086314	 0.0834537054	-0.417179
C	-0.0182565971	 0.0246153349	 0.0621786085	-0.014712
C	 1.259141803	-0.6429412159	-0.3021149584	-0.310933
C	 0.7813086867	-0.7140176077	 1.1557423809	 0.030356
C	 1.4841141571	 0.0437844365	 2.1497876096	 0.188025
C	 2.0651349344	 0.6585439092	 3.0078545889	-0.399981
C	 0.1939784663	-2.0553288138	 1.5546724308	 0.385559
N	 0.3691442384	-2.4060489248	 2.8531152778	-0.57035
O	-0.396059314	-2.7528120878	 0.7475283866	-0.379362
H	 0.7668031309	 2.0108431363	 0.4161126883	 0.127714
H	-0.3906820678	 1.8977929188	-0.9201643383	 0.123535
H	-0.9607236978	 1.8434883567	 0.7547136781	 0.125071
H	-0.9096174089	-0.5304063388	-0.2135331217	 0.123076
H	 1.2115821448	-1.5809638396	-0.8420426281	 0.145159
H	 2.131879297	-0.0256198265	-0.4833830843	 0.124131
H	 2.5848019002	 1.2116552898	 3.7506302425	 0.192386
H	 0.8727594307	-1.8156645081	 3.4925707313	 0.266816
H	 0.0013362234	-3.2898563108	 3.1618711221	 0.260689
