19
gdb 73481	2.50728	2.17983	1.55784	1.2551	73.	-0.2328	0.0869	0.3197	913.6814	0.161711	-423.007826	-423.00102	-423.000076	-423.038516	28.643	
C	 0.029903827	 1.4938492937	 0.0126096838	-0.4999
C	 0.0398821749	-0.0173490956	-0.0699471443	 0.312625
C	 0.6839090037	-0.650855572	-1.3005657493	-0.1596
O	 0.0067663827	-1.9074085483	-1.4698195951	-0.272646
C	-0.6701466603	-2.1570094801	-0.2421487546	 0.075022
C	 0.3624548858	-2.2483793692	 0.9160283948	-0.243257
C	 0.2778596414	-0.7603959791	 1.3008223441	 0.020988
O	-1.1532177702	-0.6453921784	 1.5814995926	-0.30521
C	-1.2947233596	-0.7782700582	 0.1490396636	 0.033481
H	 1.0481851362	 1.8933328439	 0.0822255231	 0.117873
H	-0.4401623311	 1.9357525155	-0.8726333431	 0.118467
H	-0.5241021907	 1.8196871015	 0.8971659229	 0.138723
H	 0.5258110482	-0.0466974699	-2.2015992717	 0.10552
H	 1.76647312	-0.8054939259	-1.1835062625	 0.096345
H	-1.3370130186	-3.0056792694	-0.3825838631	 0.083103
H	 0.0361587638	-2.870127796	 1.7521484804	 0.111058
H	 1.3344655459	-2.5939333848	 0.556306097	 0.107823
H	 0.9188974671	-0.3597960042	 2.0868345446	 0.077394
H	-2.2627787663	-0.4842527534	-0.254621283	 0.082189
