15
gdb 2488	4.99234	3.05434	2.62386	1.6347	59.74	-0.2267	0.0851	0.3119	589.1686	0.12522	-308.455402	-308.449654	-308.448709	-308.484455	23.104	
C	-0.0048894283	 1.5476587422	 0.0754481434	-0.505822
C	-0.1113889417	 0.0605480646	-0.0433594311	 0.42911
C	 0.3628126468	-0.7556995422	-1.2811679961	-0.258974
C	-0.5320339486	-1.8663024483	-0.7370508892	-0.11773
C	-0.4370207321	-1.712125541	 0.7907611726	 0.105129
O	 0.4948653805	-0.6719986468	 1.0719872872	-0.328336
C	-1.3948694725	-0.8672478722	 0.0310047222	-0.19703
H	 1.0487988226	 1.8475478863	 0.0846270659	 0.133531
H	-0.4949873802	 2.0376709034	-0.7712232061	 0.12221
H	-0.4684843956	 1.8982807886	 1.0018596028	 0.131565
H	-0.0334480542	-0.342015514	-2.2124479791	 0.099527
H	 1.4413784516	-0.9270028258	-1.3612892982	 0.096824
H	-0.8429212053	-2.7865761914	-1.2145005174	 0.089423
H	-0.5725541584	-2.5100481568	 1.5085441832	 0.105237
H	-2.4600533946	-0.6905209566	 0.0866154199	 0.095338
