25
gdb 122875	3.93564	0.54563	0.53714	0.1211	86.16	-0.2605	0.0647	0.3252	2176.592	0.225387	-426.633167	-426.621212	-426.620267	-426.670771	43.293	
C	-0.0405576986	 1.5540164706	-0.0610693304	-0.416351
C	 0.0027572301	 0.0220188043	 0.0339167299	 0.342849
C	 0.6073972339	-0.4098961712	 1.3724959351	-0.390306
O	-1.3365611586	-0.4941911358	 0.0491493861	-0.45685
C	 0.7787493649	-0.5540708447	-1.1724126318	-0.204623
C	 0.8352155387	-2.0839389471	-1.243464573	-0.190786
C	 1.444668008	-2.5933378411	-2.5530207702	-0.167869
C	 1.5093324708	-4.1130304105	-2.6238636549	-0.074638
O	 2.0859058516	-4.4727039918	-3.8712949556	-0.422387
H	 0.9639484373	 1.9870371852	-0.0143235994	 0.113704
H	-0.4937734353	 1.8727188736	-1.0077133994	 0.100482
H	-0.6354940262	 1.9671218011	 0.7585573367	 0.119203
H	 0.0552691547	 0.0490860516	 2.1973675069	 0.117577
H	 0.5501937104	-1.4938630644	 1.493746699	 0.124036
H	 1.6556154317	-0.1045656381	 1.4429353076	 0.108861
H	-1.7784670423	-0.1823936415	-0.7482315102	 0.273148
H	 0.3023223843	-0.1735528997	-2.0884163173	 0.078817
H	 1.7960891924	-0.1411243756	-1.1721718903	 0.092576
H	 1.4192086604	-2.4744788009	-0.4005421645	 0.094538
H	-0.180911527	-2.4771202897	-1.1217329579	 0.106508
H	 0.8616525027	-2.2316602838	-3.409413101	 0.100442
H	 2.4600490045	-2.1974286992	-2.6808366014	 0.101609
H	 2.1086737961	-4.499256673	-1.7825986835	 0.082088
H	 0.4953126837	-4.5327571551	-2.5175914008	 0.083346
H	 2.127362962	-5.432178993	-3.9169818398	 0.284025
