23
gdb 121241	2.79768	0.90858	0.74312	2.1508	83.32	-0.2433	0.0759	0.3192	1637.935	0.203741	-425.407369	-425.396815	-425.39587	-425.44421	37.219	
C	-0.0690088379	 1.5006991659	 0.109912718	-0.386067
C	-0.2754972986	 0.0280298225	-0.1987975651	-0.038785
O	 0.9001774535	-0.4715225727	-0.8126111421	-0.248185
C	 0.8408485164	-1.8366965792	-1.1153586383	 0.064989
C	 0.1075747579	-2.2522920449	-2.4125709359	-0.099027
O	 1.3178789124	-2.807259209	-2.9627680345	-0.294202
C	 2.1068633965	-2.3784082964	-1.8202965558	 0.108426
C	 3.1932456992	-1.3839494929	-2.195212078	-0.173309
C	 4.2147200033	-1.9981846742	-3.156782631	-0.387462
H	 0.7842133779	 1.6352517153	 0.7806308125	 0.12833
H	 0.125618312	 2.0615030205	-0.8085510162	 0.128751
H	-0.959205781	 1.9177675702	 0.5899769368	 0.116469
H	-0.4850169216	-0.5387930454	 0.7239620545	 0.088979
H	-1.1433003857	-0.1080709446	-0.8645529846	 0.091705
H	 0.5377723226	-2.4139538601	-0.2301725152	 0.070837
H	-0.6830856984	-3.0059539748	-2.3149526897	 0.097883
H	-0.266714859	-1.4032367274	-2.9996083936	 0.100648
H	 2.55040272	-3.2516873244	-1.3211810035	 0.070603
H	 2.7279796107	-0.5006866823	-2.6433225578	 0.106883
H	 3.6839673684	-1.0453530965	-1.2743652159	 0.098598
H	 3.7175286692	-2.3592959982	-4.0615299578	 0.135321
H	 4.9703569204	-1.2638398083	-3.4511423851	 0.10921
H	 4.7339447616	-2.8473006131	-2.6978672118	 0.109405
