18
gdb 111824	2.82106	1.47985	1.16078	2.5567	72.52	-0.2313	-0.011	0.2203	1100.6698	0.147865	-439.056133	-439.047819	-439.046874	-439.089387	30.421	
C	 0.1707700749	 1.4603211654	-0.0065211701	-0.248054
O	-0.305469775	 0.1554609469	 0.2933138741	-0.240508
C	 0.4910149202	-0.5216339657	 1.2159137876	-0.008855
C	 0.095484022	-1.9940032191	 1.4747824065	-0.020319
C	-0.4505631257	-2.8368483072	 0.2922079992	-0.251701
C	 0.9889073665	-3.4087709256	 0.1147353939	-0.182214
N	 1.5034433534	-2.4346980894	 1.1398157167	-0.144862
C	 1.8070605995	-1.142174403	 0.6421181993	 0.356263
O	 2.6746540375	-0.7680032825	-0.0949019712	-0.328694
H	 1.1760979389	 1.4278760167	-0.4407095566	 0.147066
H	-0.5267592197	 1.891447314	-0.7274260818	 0.130673
H	 0.1901091365	 2.0898005149	 0.8960022422	 0.108637
H	 0.6315323178	 0.0603397777	 2.1406353806	 0.090567
H	-0.2707271486	-2.2403413588	 2.4725008109	 0.087113
H	-1.2236794186	-3.5617211938	 0.5508294017	 0.113092
H	-0.7946600385	-2.2235719074	-0.5425859991	 0.136208
H	 1.1123388439	-4.4395171506	 0.4542119214	 0.120523
H	 1.4656354048	-3.2892934026	-0.8608656554	 0.135066
