17
gdb 77221	3.33379	1.09679	0.90128	3.7552	75.97	-0.2501	-0.032	0.218	1276.037	0.132512	-421.775911	-421.766599	-421.765654	-421.811034	33.029	
C	 0.0528707801	 1.6643598897	-0.0679248501	-0.414667
C	 0.0734151675	 0.1460438077	-0.1060892971	-0.081639
C	 0.6504208727	-0.514553704	-1.3955053377	 0.043513
O	 1.7657363808	-1.0614178541	-0.6896648804	-0.275462
C	 1.2649800383	-0.5950130225	 0.5890549101	-0.046713
C	 2.2246656195	 0.1976324305	 1.3352791246	 0.339245
C	 3.0099184314	 0.8526301697	 1.9671716118	-0.451268
C	-0.2642770486	-1.5495867581	-2.0117139898	 0.138693
O	-0.1932622313	-2.733943541	-1.8219465048	-0.236713
H	 1.0194048311	 2.0817855823	-0.3635008437	 0.137729
H	-0.713598406	 2.0532951149	-0.7462536444	 0.120105
H	-0.1732110819	 2.0251700578	 0.9399741531	 0.132182
H	-0.8944255902	-0.2612678882	 0.1970337828	 0.098774
H	 0.9567210878	 0.2030225592	-2.1712279661	 0.098098
H	 0.9366089397	-1.4463654862	 1.1982727928	 0.119631
H	 3.7104294807	 1.4234978779	 2.5256819348	 0.206632
H	-1.0608938817	-1.1023541957	-2.654279926	 0.071862
