20
gdb 93096	2.23185	1.70689	1.43059	1.6627	74.61	-0.248	0.0216	0.2696	1035.7411	0.170435	-440.306388	-440.297277	-440.296333	-440.339615	34.948	
C	 0.0592031548	 1.5177527763	-0.0454592788	-0.421399
C	-0.031528521	-0.0011991995	 0.0469075323	 0.340809
C	-1.4894525446	-0.4711334688	 0.002240861	-0.426465
O	 0.6401570427	-0.5019928482	-1.1492169914	-0.262906
C	 1.139469647	-1.7578400274	-1.0993459221	 0.101593
N	 1.2539513848	-2.5473929953	-0.1156664794	-0.271625
C	 0.8053542127	-2.076827692	 1.193694813	-0.197679
C	 0.7208164076	-0.5504081934	 1.2817980488	 0.082237
O	 2.0162700369	 0.0233447958	 1.3987722175	-0.441222
H	 1.0982014465	 1.840940737	 0.0188205092	 0.137341
H	-0.3711075941	 1.8620754582	-0.9897811951	 0.120178
H	-0.4971628454	 1.9764658027	 0.7777389019	 0.115933
H	-1.9907634778	-0.0441647455	-0.8706578759	 0.12867
H	-1.5650485652	-1.5589674896	-0.0641139587	 0.132745
H	-2.0240378714	-0.142057899	 0.898995999	 0.121641
H	 1.4902239964	-2.0541966912	-2.0872520893	 0.124567
H	-0.1599889181	-2.5407359557	 1.4303764987	 0.114865
H	 1.5126974233	-2.4345179099	 1.9494509773	 0.119563
H	 0.1835622942	-0.2448211534	 2.1858953562	 0.088869
H	 2.5784281608	-0.3773884911	 0.7259476258	 0.292283
