20
gdb 82999	2.61481	1.72708	1.52097	1.1324	76.99	-0.222	0.06	0.282	982.1722	0.173183	-403.101715	-403.094102	-403.093158	-403.133734	30.124	
C	-0.1909325236	 1.5830159136	 0.1627360854	-0.42613
C	-0.0126454956	 0.0987333928	-0.0609649123	 0.021781
C	 0.5865364383	-0.5729335085	-1.2506744543	-0.080819
C	 1.4913720134	 0.1406089738	-2.2344712024	 0.119564
O	 1.249284237	 1.5469197471	-2.5146012836	-0.295095
C	 2.5464302392	 1.9136142309	-1.9956513265	-0.093977
C	 2.7995609917	 0.4834965732	-1.4808270363	-0.071063
C	 2.5049621765	 0.1547210066	 0.0031522276	-0.194477
N	 1.2540543138	-0.6400766919	 0.0806562894	-0.121117
H	 0.545181553	 2.2026234373	-0.3410986633	 0.141865
H	-1.1744163672	 1.8858518353	-0.2109498182	 0.126732
H	-0.1661691266	 1.7989000724	 1.2373800674	 0.115825
H	-0.8238800873	-0.4677866903	 0.3984692004	 0.090151
H	 0.1438418213	-1.5031389211	-1.5997835132	 0.08426
H	 1.5791517426	-0.4219835682	-3.1703135344	 0.079023
H	 3.2208782931	 2.2333974112	-2.7995318292	 0.103
H	 2.4885619245	 2.7102647037	-1.2429340666	 0.100716
H	 3.7183628004	 0.0131326202	-1.8331990993	 0.082804
H	 3.3040563578	-0.4588467041	 0.4283027112	 0.111188
H	 2.4347932977	 1.060277566	 0.616245818	 0.105769
