16
gdb 48317	2.81685	1.52643	1.15677	1.5484	77.45	-0.2473	-0.0459	0.2014	1061.0914	0.122163	-400.664938	-400.656669	-400.655725	-400.697685	31.133	
O	-0.4966169842	 0.4535820794	 0.6811504476	-0.268026
C	 0.0804756734	 1.057519958	-0.1901758362	 0.092115
C	 1.2958711834	 1.9278333439	-0.0206038598	 0.003906
C	 1.7841861829	 2.4539688676	-1.2706799879	 0.241993
C	 2.1377776921	 2.8872976688	-2.3343914498	-0.361225
C	 1.5128558507	 2.8122911942	 1.187711676	-0.052804
C	 0.9574475187	 2.2395163649	 2.4873801288	-0.262491
C	 1.8656161295	 1.0168099775	 2.2025436823	-0.155066
N	 2.4258483336	 1.6607526919	 0.9502494183	-0.164791
H	-0.2673762994	 1.0198299917	-1.2435056587	 0.099725
H	 2.4705040829	 3.2676952575	-3.2685699654	 0.198936
H	 1.8219060817	 3.8379762201	 1.0091230395	 0.113922
H	 1.2723856603	 2.8208100333	 3.3560873539	 0.116636
H	-0.1170198243	 2.063452699	 2.5320434934	 0.13605
H	 2.6926474837	 0.9070484665	 2.9063680777	 0.120247
H	 1.379181385	 0.0563715758	 2.0452067002	 0.140872
