19
gdb 119931	2.50768	1.03356	0.91452	3.8617	77.77	-0.2265	0.023	0.2495	1383.1136	0.158207	-419.190745	-419.180812	-419.179867	-419.226361	35.384	
C	-0.1048213551	 1.4782557839	-0.043595556	-0.392652
C	-0.2214863631	-0.0236080717	-0.2804475824	-0.107614
N	 1.0122546778	-0.5453711307	-0.8795522831	-0.291036
C	 0.9752407423	-1.9511528755	-1.1142425776	 0.01228
C	 0.3769036372	-2.5533525502	-2.3597033794	 0.063631
O	-0.1390574959	-1.6390580524	-3.2657400204	-0.406154
C	 1.9046933511	-2.5842200233	-2.1466685147	-0.286399
C	 2.707925071	-1.7546643247	-2.9929617269	 0.292034
N	 3.3330959884	-1.0853128754	-3.7012295851	-0.34517
H	 0.7544045069	 1.704104565	 0.5941816903	 0.129139
H	 0.0254301491	 2.0152942881	-0.989873846	 0.120768
H	-1.0091594879	 1.8648804006	 0.4351974406	 0.116268
H	-0.3691080407	-0.5401273884	 0.6769357377	 0.100543
H	-1.1080758116	-0.2407411445	-0.8985477812	 0.100473
H	 1.1977760275	-0.0554840471	-1.7493925748	 0.237831
H	 0.864566004	-2.5320901622	-0.2020296323	 0.112033
H	-0.132708148	-3.5150320618	-2.3057934204	 0.102184
H	 0.1499985509	-1.8720325725	-4.1554634534	 0.304882
H	 2.3564748461	-3.5359466074	-1.8885619648	 0.136958
