20
gdb 71134	2.75211	1.81964	1.53861	1.8927	76.23	-0.218	0.0672	0.2852	947.3807	0.174467	-403.149489	-403.142294	-403.141349	-403.180564	30.18	
O	 0.0004477294	 1.4067881426	 0.0524412299	-0.494613
C	 0.0103848793	-0.0071568753	 0.0100512087	 0.372419
C	-1.4183817214	-0.5447963238	 0.1984941889	-0.248645
C	-1.1580551404	-1.9691456882	 0.6484071468	-0.046021
C	-0.0298935891	-2.6737569905	-0.0180005346	-0.008364
C	 0.6416007583	-2.1040689487	-1.2575164347	-0.245475
C	 0.5815462495	-0.5523653118	-1.3058997296	-0.26375
N	 0.1780366352	-2.0457664675	 1.3049261962	-0.124686
C	 0.7504552649	-0.6908558019	 1.1854650495	-0.209028
H	 0.8865558816	 1.7186692827	-0.1601712125	 0.273927
H	-1.9280370108	 0.0248496538	 0.9826507132	 0.112576
H	-2.0150078404	-0.4731559765	-0.7160078685	 0.100914
H	-1.9582815344	-2.5337082327	 1.1178109351	 0.085601
H	-0.017379023	-3.7606175929	 0.035927646	 0.085579
H	 1.6826534342	-2.4466745675	-1.2748844419	 0.110535
H	 0.1703268727	-2.5387434237	-2.1457139069	 0.109921
H	-0.037385359	-0.2004297323	-2.1373203764	 0.105664
H	 1.587070839	-0.1405096444	-1.4607814348	 0.084637
H	 1.8353522518	-0.7438003558	 1.0352358423	 0.089997
H	 0.5595587925	-0.1464886057	 2.1163134634	 0.10881
