15
gdb 25982	4.90124	0.9744	0.92514	3.575	68.96	-0.2165	0.0157	0.2322	1259.4104	0.113677	-454.006229	-453.997982	-453.997038	-454.040458	30.047	
N	-0.1587413239	 1.3745274018	 0.0078659194	-0.569765
C	-0.0824631807	 0.0230926759	 0.3173913381	 0.427307
O	 0.6895007176	-0.4395562951	 1.1252163618	-0.358502
N	-1.0189942925	-0.7421955039	-0.377367847	-0.469803
C	-1.1450948061	-2.1123584389	-0.1772986202	 0.427756
C	-2.0960997036	-2.8766553846	 0.4236139422	-0.255514
C	-1.6906867118	-4.2373886952	 0.2362266848	-0.168088
C	-0.5214077916	-4.1881810652	-0.4534967991	-0.006807
O	-0.181028391	-2.9028920611	-0.7284938978	-0.150827
H	 0.6308477474	 1.8936182894	 0.3611922072	 0.264778
H	-0.4256326461	 1.6267221803	-0.9320925239	 0.249788
H	-1.784525818	-0.2660220392	-0.8276331774	 0.254379
H	-2.9648091091	-2.5130477336	 0.9488968412	 0.108953
H	-2.1957941927	-5.1251263395	 0.5827422539	 0.111338
H	 0.1683939821	-4.9382488709	-0.8029411832	 0.135006
