9
gdb 23877	3.56581	1.5146	1.30895	2.0609	38.13	-0.2807	-0.1283	0.1524	856.9932	0.042392	-564.836135	-564.828582	-564.827637	-564.869553	24.434	
F	 0.711589019	 0.2817140736	 0.1556032096	-0.036923
C	-0.061370874	 1.3410514995	 0.0103411754	 0.21776
F	 0.6950112265	 2.4010126908	-0.3134660824	-0.073805
F	-0.9211577325	 1.1279427722	-0.9975255259	-0.073787
C	-0.8627248568	 1.6698233682	 1.2917949797	 0.180683
O	-0.770277717	 1.016763796	 2.2887349746	-0.230612
C	-1.7872009581	 2.9074951217	 1.1726894544	 0.088404
O	-2.4585709825	 3.261250976	 2.0994378137	-0.195589
H	-1.7825553047	 3.4277494219	 0.1945349709	 0.123871
