16
gdb 80714	2.47266	1.97914	1.56944	1.1298	68.22	-0.2244	-0.0319	0.1925	889.0944	0.126499	-437.881859	-437.874901	-437.873956	-437.91305	27.884	
O	 0.0893759211	 1.3902434033	 0.2311757811	-0.441495
C	-0.0107636243	 0.002015513	 0.0516175285	 0.05468
C	-1.4536353001	-0.5516471588	-0.1335184606	-0.107572
N	-1.1888409698	-1.8859445761	-0.7342195532	-0.290817
C	-0.4519743944	-1.3800893408	-1.9184332882	-0.174934
C	-1.4440538448	-0.3351007737	-2.4221840906	-0.06692
C	-2.0466977123	 0.1647357495	-1.3420324188	-0.029731
C	 0.6210361142	-0.4682722916	-1.2818936627	 0.378838
O	 1.6845707192	-0.0996551993	-1.710002056	-0.341757
H	 0.9074139487	 1.6672486859	-0.2033495608	 0.294368
H	 0.4771350682	-0.5386809223	 0.881233762	 0.085385
H	-2.0606160218	-0.5895783606	 0.7701694963	 0.084305
H	-0.5674239147	-2.4279685628	-0.1324294733	 0.220482
H	-0.1000008065	-2.1337606767	-2.6196170202	 0.094488
H	-1.5206701739	-0.0177798147	-3.4521040682	 0.120517
H	-2.7580920487	 0.9757847557	-1.2867427455	 0.120161
