18
gdb 96219	2.88524	1.38171	0.97186	6.4567	79.78	-0.2159	-0.0303	0.1856	1179.344	0.149746	-439.121448	-439.113281	-439.112336	-439.154131	31.311	
O	-0.0133977055	 1.4050916099	 0.1640054773	-0.449494
C	 0.0119513471	-0.0010555912	 0.0454066029	 0.035982
C	-1.4342135906	-0.5024556218	 0.1485672994	-0.214824
C	-1.5422821445	-1.99344299	-0.1742967051	-0.179306
N	-0.9391556424	-2.2693479571	-1.4763732206	-0.294065
C	 0.1060457459	-1.5439938928	-1.9244273275	-0.009581
C	 0.6158341963	-0.4621659908	-1.2727216334	 0.098777
C	 1.7345173337	 0.2331032964	-1.8482991506	 0.087826
O	 2.2742774815	 1.225269549	-1.3684742611	-0.35208
H	 0.8550975892	 1.7095200672	-0.150121317	 0.29758
H	 0.5976310082	-0.4402033637	 0.8743932226	 0.068015
H	-1.8260930286	-0.3110747959	 1.151034331	 0.114326
H	-2.0375306282	 0.0755771904	-0.559193489	 0.120497
H	-1.0453923701	-2.5920619452	 0.6034169108	 0.117932
H	-2.5906799671	-2.3040156564	-0.2051050564	 0.120086
H	-1.1997813266	-3.1086509176	-1.9641441096	 0.2574
H	 0.5320711192	-1.8700697967	-2.8705828239	 0.121588
H	 2.1123862428	-0.1937681737	-2.8050611999	 0.059339
