15
gdb 98728	2.39486	1.20607	0.99287	5.6985	67.11	-0.2719	-0.0533	0.2186	1203.599	0.111233	-453.931666	-453.922836	-453.921892	-453.966071	31.139	
O	-0.2473735503	 1.5940964811	-0.1850380864	-0.420501
C	-0.982027655	 0.5711855517	-0.7875556789	-0.146814
C	-1.2776347352	-0.5385813133	 0.2035563045	 0.365177
O	-0.8944308296	-0.4530707252	 1.3513046763	-0.324194
C	-2.0857496495	-1.7331841401	-0.2207583243	-0.121069
N	-2.7309030032	-1.7094902335	-1.5315331374	-0.30781
C	-1.6585544588	-2.6817025526	-1.3169279983	-0.180565
C	-0.4443350923	-2.5124213184	-2.0795234155	 0.340291
N	 0.5354022694	-2.4081776265	-2.6836436028	-0.319392
H	-0.1094919948	 1.3125083596	 0.7326119389	 0.295016
H	-1.946802711	 0.9348364699	-1.1766822104	 0.130876
H	-0.4486707879	 0.150553106	-1.6541066224	 0.14835
H	-2.5822247214	-2.2158674048	 0.6182262664	 0.12829
H	-3.6392693387	-2.1645126979	-1.5125998535	 0.261535
H	-1.9203996217	-3.7238169661	-1.1509734962	 0.150808
