16
gdb 12751	3.26175	1.83847	1.48257	2.0648	70.81	-0.2452	0.0452	0.2904	898.8378	0.128363	-346.537382	-346.529594	-346.52865	-346.56924	29.463	
C	-0.117459754	 1.5063264265	 0.0078602088	-0.503824
C	 0.1368966754	 0.0359055282	 0.0290445488	 0.416502
O	-0.7158215963	-0.7982539226	 0.8151300525	-0.278062
C	 0.7008927612	-0.8952055122	 1.0225755023	-0.042941
C	 1.239560072	-1.8423370545	-0.0531808062	-0.260706
C	 0.6712390988	-0.8440667178	-1.1402668633	-0.24946
C	-0.2886803556	-1.3264958103	-2.1113029487	 0.336099
C	-1.0896162036	-1.7217823852	-2.9164123714	-0.458552
H	 0.7503850259	 2.048156945	-0.381463983	 0.124546
H	-0.9753945266	 1.7362429376	-0.6336082232	 0.141734
H	-0.3370985406	 1.8679452944	 1.0157685165	 0.136492
H	 1.0667974784	-0.7210548419	 2.0281251303	 0.105455
H	 2.3286223443	-1.9133563208	-0.0876962675	 0.109544
H	 0.7976839898	-2.8399224392	-0.0489169751	 0.123467
H	 1.5004840555	-0.3356363217	-1.6436066831	 0.104581
H	-1.8011729246	-2.0742306255	-3.6212165678	 0.195125
