18
gdb 54572	3.54774	1.39983	1.15712	2.9439	76.65	-0.24	-0.0176	0.2224	1083.505	0.147292	-401.903315	-401.895349	-401.894405	-401.936319	30.18	
C	 0.3036906891	 0.9377085353	-0.9209602489	-0.48914
C	-0.107088414	 0.1343333223	 0.2941440401	 0.26384
O	 0.5157071738	 0.149575874	 1.3354820685	-0.306374
C	-1.328266623	-0.7048362318	 0.1869407658	 0.279852
C	-1.9651973547	-1.5427025968	 1.2926395389	-0.297518
C	-2.8165597631	-2.1873825927	 0.1667462269	-0.093749
C	-3.6319176332	-0.9864221316	-0.3487350646	-0.148603
N	-2.3669625959	-0.3677222564	-0.8727327413	-0.183839
C	-1.7297423465	-1.6978979767	-0.8638147742	-0.093727
H	 1.2238081097	 1.4804241039	-0.7017320654	 0.135547
H	 0.456088068	 0.2826230604	-1.7858610663	 0.135529
H	-0.4973176332	 1.6298323753	-1.1965897677	 0.158438
H	-1.2281510791	-2.2321674431	 1.7077712481	 0.124328
H	-2.4958375623	-1.0322695385	 2.1022977776	 0.104484
H	-3.235487603	-3.1856585351	 0.2716134804	 0.083029
H	-4.27070886	-1.2210910736	-1.2035130176	 0.115827
H	-4.1827386388	-0.3813055093	 0.3799098303	 0.10559
H	-1.1860286237	-2.1335017757	-1.6924019807	 0.106485
