15
gdb 133737	2.07876	1.39682	1.00848	2.4108	59.98	-0.2457	0.0313	0.277	1171.5871	0.107134	-548.26674	-548.257356	-548.256412	-548.3015	33.225	
C	 0.2295206405	 1.1026215371	-0.7802314133	-0.321578
N	-0.2053228569	 0.4138668728	 0.4314840991	-0.27397
C	-1.4556152626	-0.3194670476	 0.2806878903	-0.309606
C	-1.388119667	-1.4722715859	-0.6289780615	 0.342133
C	-1.2613649493	-2.3918428534	-1.3920071841	-0.461098
C	-1.9318929999	-0.7566193682	 1.675627623	 0.294379
F	-2.1868213101	 0.3016582947	 2.4461532072	-0.063524
F	-3.0503612863	-1.4856801993	 1.5948714925	-0.072627
F	-0.997915669	-1.4992752784	 2.288614233	-0.083597
H	 1.1858543795	 1.5929894089	-0.5816894539	 0.129101
H	 0.3473056939	 0.4436072461	-1.6543627625	 0.115795
H	-0.4978937703	 1.8809778	-1.0352895904	 0.128019
H	 0.5124836331	-0.2326123317	 0.7422887808	 0.233169
H	-2.2170182987	 0.3824166766	-0.0822763355	 0.136391
H	-1.1667163468	-3.2127825717	-2.0596689047	 0.207011
