17
gdb 63841	2.8106	1.4988	1.2348	4.1326	67.59	-0.2704	0.0051	0.2755	1036.0368	0.134634	-458.974077	-458.965884	-458.96494	-459.006769	31.334	
C	-0.4512048738	 1.5531258929	 0.0909929024	-0.457384
C	-0.0371204631	 0.092403691	 0.0176646134	 0.400453
O	-1.1388979499	-0.7439108283	-0.2940043865	-0.47349
C	 1.238327674	-0.2667512654	-0.8304521249	-0.305604
C	 1.8822668528	-0.8944377384	 0.4189622453	 0.115981
O	 2.6759275276	 0.0794285505	 1.176455695	-0.259519
C	 1.6105870001	 0.380928531	 1.9984888001	 0.454847
O	 1.5968014201	 1.1387524628	 2.9138864433	-0.33085
C	 0.6440446035	-0.5505359181	 1.2766957848	-0.268571
H	 0.3804074914	 2.1970351288	 0.3890783558	 0.141705
H	-0.7996268234	 1.8944645191	-0.8918828501	 0.110037
H	-1.2656147431	 1.6823403857	 0.8094764634	 0.138176
H	-1.5317665272	-0.4235461208	-1.1140435474	 0.279777
H	 1.0002190589	-0.9980357637	-1.6056234687	 0.115121
H	 1.8040982188	 0.5627439246	-1.2596328156	 0.11771
H	 2.3814513315	-1.8598214301	 0.3764600706	 0.10479
H	 0.0361720017	-1.2392914715	 1.857400719	 0.116822
