23
gdb 92704	2.22883	1.54503	1.15265	1.3579	87.14	-0.2304	0.0309	0.2613	1203.9719	0.204024	-388.318991	-388.308864	-388.30792	-388.353017	39.08	
C	-0.9129945907	 0.9793335053	-0.0287787289	-0.425338
C	 0.1658232056	-0.0994074172	-0.057093606	 0.024936
C	 1.2905689002	 0.1088715505	-1.0980305453	-0.277023
C	 2.4419491883	-0.6594848691	-0.4984873509	-0.182867
C	 2.2471052221	-0.9458066371	 0.7891560736	 0.312775
C	 3.1510066893	-1.7026375359	 1.7099295118	-0.516323
C	 0.915745648	-0.370735514	 1.277485036	 0.281974
C	 1.1419511804	 0.8779267503	 2.1417767208	-0.452156
O	 0.1368938163	-1.3256347784	 2.0090342194	-0.477183
H	-0.4950567287	 1.9742568031	 0.1587550349	 0.109936
H	-1.4393950252	 1.0214651938	-0.9881925358	 0.110053
H	-1.6555332456	 0.7689015946	 0.7477486184	 0.122062
H	-0.3126791455	-1.0588060659	-0.2862652507	 0.090603
H	 1.0067405266	-0.2469037022	-2.0954002734	 0.099309
H	 1.5363366202	 1.1758165846	-1.2132773276	 0.097402
H	 3.3297357434	-0.9269613252	-1.063470496	 0.082464
H	 4.0419972878	-2.064504171	 1.1900986345	 0.124236
H	 3.4853042551	-1.0864384497	 2.5551403627	 0.119151
H	 2.6281571529	-2.567786084	 2.1351949284	 0.130267
H	 1.656100475	 1.6640677655	 1.5808423968	 0.123702
H	 0.1890453421	 1.2739416295	 2.5045670816	 0.122817
H	 1.7641480968	 0.6383279813	 3.0125809155	 0.104477
H	 0.4354166958	-1.3201367188	 2.9241577302	 0.274726
