15
gdb 16214	3.1738	2.27023	1.50762	0.8797	62.	-0.2489	-0.0378	0.2111	822.3618	0.119944	-399.788222	-399.781365	-399.780421	-399.819385	25.524	
O	 0.1016045842	 0.0573203722	-0.2457256842	-0.327887
C	 0.0380202958	 1.2419864596	-0.0260908522	 0.308766
C	-1.206954319	 2.0998422388	 0.1804653594	-0.183536
O	-0.7358608241	 3.373650399	 0.5847063713	-0.253737
C	 0.5740122832	 3.5738686399	 0.0411681622	-0.175132
C	 1.196380859	 2.1927810847	 0.0362124232	 0.23126
C	 2.4261873925	 1.7594599845	 0.7636415559	-0.266575
N	 2.4224417192	 1.8730551256	-0.6928951605	-0.351805
H	-1.7705996856	 2.1445211415	-0.7671629702	 0.124504
H	-1.866847596	 1.6921086726	 0.9513682742	 0.143691
H	 0.5224808805	 3.9768016655	-0.9822817136	 0.109757
H	 1.0890587912	 4.297025344	 0.6768426946	 0.124066
H	 3.0086591386	 2.5124002329	 1.2876753508	 0.131574
H	 2.4186614939	 0.7686300348	 1.2100590911	 0.136575
H	 2.3112954367	 0.9429145645	-1.099958272	 0.24848
