19
gdb 112184	2.42149	1.24768	1.02744	3.4515	71.86	-0.258	0.0046	0.2626	1256.1153	0.156642	-460.196894	-460.187031	-460.186087	-460.231616	35.597	
C	-0.1171588697	 1.6274001468	-0.0907494848	-0.386801
C	-0.0509691791	 0.1551841827	 0.3303550598	-0.207589
C	-1.33345894	-0.5878987078	 0.0247959291	 0.143452
O	-1.5733080635	-0.7037028336	-1.4322829359	-0.26654
C	-1.7097413046	-2.0602469443	-1.3613082106	 0.423429
O	-1.9828473097	-2.8231340526	-2.2334551923	-0.341033
C	-1.42981798	-2.130162812	 0.1562808497	 0.154326
C	-0.2003247602	-2.9271650675	 0.5627647228	-0.456153
O	-2.5683068122	-2.482288329	 0.9165409169	-0.465289
H	 0.8230360494	 2.1395023261	 0.1318338084	 0.118462
H	-0.3070609541	 1.7136152894	-1.1642143481	 0.14223
H	-0.920020538	 2.1535651621	 0.4365218377	 0.120937
H	 0.7869068054	-0.3384898426	-0.1739262861	 0.108287
H	 0.1353345306	 0.0775357505	 1.4091419171	 0.112088
H	-2.2010968152	-0.1072364758	 0.4851724311	 0.108311
H	 0.6877560706	-2.6335642587	-0.0029029431	 0.133265
H	-0.0031754693	-2.7954894068	 1.6304822741	 0.134186
H	-0.3755515677	-3.9910360845	 0.3706709896	 0.130928
H	-2.7811873225	-3.4025284024	 0.7217057445	 0.293504
