19
gdb 110589	3.2114	1.34758	1.12093	1.5861	76.25	-0.2507	0.0828	0.3335	1142.3595	0.158395	-422.938291	-422.930005	-422.929061	-422.971197	31.782	
C	 0.1880549071	 1.3535654952	 0.1914700211	-0.236813
O	-0.3014162328	 0.1015230888	-0.2363977654	-0.265995
C	 0.466047131	-0.4846434436	-1.2547610205	 0.057906
C	 1.7130375225	-1.3172191368	-0.8753578433	-0.098265
C	 0.8590083969	-2.509043122	-0.3262308965	-0.107879
C	 1.5977732961	-3.5373443719	-1.2069624688	-0.274016
C	 1.4985915507	-2.2810182303	-2.0979119165	-0.087866
C	 0.07460856	-1.9291118048	-1.5744872763	 0.377938
O	-1.0876060853	-2.4051300966	-2.1413776833	-0.478678
H	 1.1911086211	 1.2736010765	 0.6359486757	 0.108101
H	 0.2361651137	 2.0744709556	-0.6394368055	 0.106034
H	-0.502742646	 1.7337162954	 0.9480189474	 0.126271
H	 0.5817995156	 0.2013561642	-2.1094058585	 0.060371
H	 2.6775789072	-0.9933188859	-0.4913275788	 0.07711
H	 0.4780986701	-2.6089533984	 0.6891472822	 0.076708
H	 2.6009032911	-3.83210125	-0.8837741205	 0.089503
H	 1.0237192754	-4.4095295536	-1.5314861967	 0.103869
H	 1.862054447	-2.113803129	-3.1124878743	 0.073586
H	-1.8229618315	-2.1257747528	-1.5840895216	 0.292114
