17
gdb 38172	2.72263	2.01765	1.33336	2.4719	72.54	-0.2363	0.0025	0.2388	941.0427	0.138458	-417.962436	-417.955584	-417.95464	-417.993667	27.158	
C	 0.018134571	 1.4825032728	 0.018474893	-0.327801
N	 1.2800455563	 0.7092224899	-0.0436378638	-0.134804
C	 2.0148157128	 0.602801491	 1.1594810564	 0.048834
N	 2.0024918722	-0.3665761528	 1.979595067	-0.219101
C	 1.0770389109	-1.4742987287	 1.7222363057	-0.182851
C	-0.2484816432	-1.0206130484	 1.0839403613	 0.031993
O	-0.7703035191	-1.9442031261	 0.0955357335	-0.294949
C	-0.4778182559	-1.0382764732	-0.9988150319	-0.159458
C	 0.0179483413	 0.0028129035	-0.0072667468	 0.291056
H	-0.2228669521	 1.9810339213	 0.9546103164	 0.131888
H	-0.2264167544	 2.0372375574	-0.8829006298	 0.132176
H	 2.6787373944	 1.4485944368	 1.3407259472	 0.118013
H	 1.5470797912	-2.1914555642	 1.0375012179	 0.128361
H	 0.9071235092	-1.9988877388	 2.6663717186	 0.114512
H	-1.0031248496	-0.7707603774	 1.8372836153	 0.091813
H	 0.2836825737	-1.4324802705	-1.6822636061	 0.118098
H	-1.3803753388	-0.7766921327	-1.563639244	 0.11222
