18
gdb 79647	2.57177	1.5504	1.19884	2.151	84.33	-0.2175	0.0211	0.2386	1091.8665	0.146217	-364.681067	-364.672742	-364.671797	-364.713599	32.717	
C	-0.0241517546	 1.616565497	 0.034022921	-0.444141
C	 0.1230474825	 0.1001882663	-0.0647282273	-0.056711
C	 0.4861621429	-0.7562952332	-1.2377401958	-0.155223
C	 1.7837725559	-0.3611697264	-1.956951926	-0.041016
C	 2.5524782579	 0.769585696	-1.3850119651	-0.257591
N	 2.619742582	-0.5446287619	-0.7211212156	-0.170228
C	 1.3316627553	-0.8352932862	 0.0461114295	 0.119481
C	 1.4011879152	-1.8350196274	 1.0535223419	 0.2224
C	 1.4582632073	-2.6766208474	 1.9125323809	-0.374572
H	 0.1229812052	 2.1165345186	-0.9255453763	 0.134588
H	-1.0387150311	 1.8544620571	 0.3678463145	 0.119775
H	 0.665116342	 2.053860423	 0.7632226963	 0.136017
H	-0.6676727739	-0.4034911927	 0.4891749226	 0.113671
H	-0.1701073377	-1.5189840662	-1.6369346256	 0.107072
H	 2.0794141075	-0.8406472947	-2.8841874586	 0.105672
H	 3.4892131492	 1.0026160202	-1.8857110588	 0.125334
H	 2.0922026656	 1.6139175783	-0.8977544428	 0.128803
H	 1.5131626188	-3.4225686905	 2.6658414654	 0.186669
