17
gdb 76709	3.24266	0.93827	0.9008	1.3755	70.79	-0.2358	0.0197	0.2555	1345.5955	0.132988	-458.876537	-458.86723	-458.866286	-458.911151	34.24	
O	-0.3127894958	 1.1831458416	-0.3605816899	-0.422046
C	-0.1526274002	-0.173923706	-0.1055118711	 0.052719
C	-0.390932166	-0.6217807863	 1.3220148114	 0.02078
O	-0.7913225804	 0.405406967	 2.1838440259	-0.432449
C	-1.377398399	-1.0153659983	 0.2472251041	 0.013455
O	-2.6129591267	-0.3894073346	 0.3935713319	-0.272845
C	-3.188329003	 0.0425597498	-0.847046251	-0.208788
C	-4.4631240541	 0.6920484704	-0.5834679037	 0.27616
C	-5.5164396056	 1.2349422402	-0.3890220068	-0.418876
H	-0.3977198855	 1.6012827873	 0.5111015599	 0.293117
H	 0.6331133289	-0.6407470721	-0.6932590944	 0.103435
H	 0.2393209515	-1.3687321285	 1.7943914308	 0.106447
H	-1.7547688223	 0.4672817234	 2.1022161224	 0.306463
H	-1.4164858019	-2.0516825863	-0.089283267	 0.094908
H	-2.4982025996	 0.73173673	-1.3475109432	 0.159322
H	-3.3397638203	-0.8269750246	-1.504221587	 0.124276
H	-6.4483864601	 1.7138722371	-0.2156537424	 0.203923
