17
gdb 65901	2.54992	1.32139	1.22683	1.733	75.3	-0.2454	-0.0616	0.1838	1117.5322	0.132687	-421.786065	-421.776704	-421.77576	-421.821018	33.474	
C	-0.2954752226	 1.5991721533	-0.0930248518	-0.453791
C	 0.0174676791	 0.110243019	-0.0895260267	 0.326325
C	 0.8891744467	-0.4563393663	-1.2302985811	-0.335795
C	 1.8523030717	-0.8674589981	-0.1005348354	-0.068981
O	 1.017995661	-0.2392316346	 0.9038388987	-0.321205
C	-1.2567614464	-0.7068694308	 0.1681756046	 0.179499
O	-1.8188613421	-1.3378638237	-0.7000916206	-0.29581
C	-1.7478380356	-0.6716893303	 1.5340284066	 0.299854
C	-2.1753224467	-0.626433204	 2.6582435735	-0.414859
H	 0.6258147428	 2.169343682	-0.2406119188	 0.127612
H	-0.9956344424	 1.8420452906	-0.8993912625	 0.133467
H	-0.741076319	 1.9001004982	 0.8596860687	 0.139886
H	 0.422790299	-1.2613597627	-1.7967217133	 0.136881
H	 1.2755307517	 0.3014471424	-1.9131357167	 0.110257
H	 1.9480563	-1.9461210633	 0.0696039775	 0.111771
H	 2.8511218802	-0.4193049025	-0.127193504	 0.109305
H	-2.5519670374	-0.5948944491	 3.6518471412	 0.215586
