17
gdb 34707	3.12421	1.63544	1.45344	0.8199	81.18	-0.2224	0.0123	0.2347	950.8258	0.136965	-347.487314	-347.480361	-347.479417	-347.518421	28.831	
C	-0.0415885254	-1.2727158732	-0.0374036437	-0.453666
C	 0.0082416829	-0.0724462041	 0.0253145723	 0.325894
C	 0.0433340199	 1.3775560766	 0.0840634177	-0.182674
C	-0.2435957023	 2.1278856638	 1.3857027769	-0.08308
C	 1.0090047752	 2.2683131255	 2.2906205607	-0.076916
C	 2.1763881521	 1.3728442965	 2.0525640379	-0.07171
C	 2.4732685318	 1.3652645988	 0.7490761103	-0.090256
C	 1.4355617521	 2.1724207325	 0.0079704527	-0.115918
C	 0.8321500461	 3.1399612191	 1.0781949221	-0.092245
H	-0.0805517338	-2.3326285335	-0.0847620144	 0.190195
H	-0.6084013619	 1.7935904684	-0.6907464689	 0.107703
H	-1.2304214932	 2.2746407912	 1.8079532498	 0.093976
H	 0.8008018873	 2.6733165125	 3.2742515878	 0.085924
H	 2.6570885088	 0.792789177	 2.8300218285	 0.098057
H	 3.2137140201	 0.7469989283	 0.2584257133	 0.101042
H	 1.699475375	 2.5458018967	-0.9796143002	 0.073818
H	 0.8058245852	 4.2223683938	 1.0608372371	 0.089857
