15
gdb 45302	3.48798	1.53807	1.30048	2.4682	65.47	-0.2688	0.0009	0.2697	958.4723	0.115732	-453.98554	-453.978914	-453.977969	-454.017145	25.392	
N	 0.0201738521	 1.2240691541	-0.2710079591	-0.523887
C	-0.0117687009	-0.0052393162	-0.0068970607	 0.400931
C	-1.2357529437	-0.8929147044	-0.016544677	-0.307324
C	-0.6741453016	-2.3172459451	 0.0273713256	-0.058474
N	-0.5736567312	-2.9415218537	-1.3030329766	-0.256354
C	 0.6582949041	-3.1644377653	-1.4905881907	 0.113407
O	 1.5589125899	-2.8251069203	-0.5261837738	-0.21265
C	 0.8049717059	-2.120600839	 0.4640349108	 0.180773
O	 1.0890320444	-0.7406775921	 0.3875676996	-0.236616
H	 0.9666881857	 1.5941532836	-0.1714778317	 0.229443
H	-1.8413255549	-0.6726116147	 0.8679492512	 0.140146
H	-1.8496358302	-0.7143693563	-0.8987367885	 0.16011
H	-1.2398187315	-2.9744726597	 0.6913044577	 0.104661
H	 1.0940450415	-3.6266771055	-2.3686353084	 0.153612
H	 1.1129324604	-2.4908644852	 1.4420354915	 0.112222
