20
gdb 58019	1.9172	1.43441	1.02303	2.9811	81.08	-0.2433	0.0275	0.2708	1263.2121	0.167874	-403.161542	-403.150794	-403.14985	-403.197639	39.185	
C	 2.1190590083	-0.4268073345	 0.9863798233	-0.405742
C	 0.6957890207	-0.0492933671	 0.5604847785	 0.050637
C	 0.4370084676	 1.4521425742	 0.716442081	-0.409641
C	 0.3720403975	-0.5273005764	-0.8889357328	-0.314936
C	 1.2502592927	 0.0582073905	-1.8964448131	 0.337415
C	 1.9809381092	 0.5337224904	-2.7268014025	-0.457306
C	 0.3012966907	-2.076392548	-0.9183926404	 0.4257
N	 1.0375126556	-2.6927742003	-1.8743378279	-0.540058
O	-0.3950253671	-2.6705280012	-0.1182895417	-0.369085
H	 2.2828446563	-1.5071595865	 0.925475987	 0.124292
H	 2.865254392	 0.0678555154	 0.3555030132	 0.121235
H	 2.2994706544	-0.1219946361	 2.0218216619	 0.11414
H	-0.0111167205	-0.6004619146	 1.1886522116	 0.11023
H	 1.1010984903	 2.0388564665	 0.0725645607	 0.123773
H	-0.5957995088	 1.709554892	 0.4579495594	 0.111193
H	 0.6110718494	 1.7646276508	 1.7508946248	 0.114572
H	-0.6565289156	-0.2087046813	-1.1062901605	 0.132883
H	 2.6153968481	 0.9694921471	-3.4589148789	 0.201317
H	 1.61126356	-2.1678146891	-2.5122253145	 0.26816
H	 1.0094650691	-3.6973845418	-1.9267494492	 0.261221
