15
gdb 43779	3.83113	1.32016	1.15632	2.9175	72.05	-0.2796	-0.0032	0.2763	1039.8696	0.114469	-416.808171	-416.801233	-416.800289	-416.839534	27.29	
N	-0.0240701877	 1.205317168	-0.0237245083	-0.567412
C	-0.0535832631	-0.0491705175	-0.0072625559	 0.466236
O	 1.0408728147	-0.907943162	-0.0236521559	-0.295887
C	 0.3842068076	-2.2083525885	 0.0089586305	 0.325713
C	-0.748693263	-2.0376596633	-1.038686138	-0.269495
C	-1.2261513005	-0.9960966615	 0.0337622607	-0.159352
C	-0.6953751685	-2.0107448286	 1.1069526791	-0.269484
C	 1.3488750923	-3.2867837992	-0.0014633938	 0.205798
N	 2.0761598523	-4.1838305881	-0.008054932	-0.328407
H	 0.9366802231	 1.551789009	-0.0519281267	 0.234767
H	-0.4506295958	-1.6755419956	-2.023415638	 0.137092
H	-1.4013104872	-2.90791071	-1.1080477	 0.133358
H	-2.2201789149	-0.5622182091	 0.0530274038	 0.116623
H	-1.3431937089	-2.8785811167	 1.2304342736	 0.133357
H	-0.3490089603	-1.6242378369	 2.0662797808	 0.137094
