14
gdb 4204	5.35329	1.68876	1.51456	1.3376	64.76	-0.2333	0.0107	0.244	821.6884	0.107914	-378.597348	-378.591085	-378.590141	-378.627638	24.508	
O	-0.1873162591	 1.3300212112	-0.0620550895	-0.39884
N	-0.0278059859	-0.0736728741	-0.0924713807	-0.303133
C	-1.1485230095	-0.6577769059	-0.0356246524	 0.492689
C	-1.4970620732	-2.0941627664	 0.1045319856	-0.137893
C	-2.7522210942	-1.7118259389	 0.8273475843	-0.040061
C	-2.6117685158	-0.279421888	 0.1563665834	-0.193239
C	-3.2497899294	-0.9559588219	-1.0736592214	-0.149025
N	-2.861643568	-2.3043628854	-0.5187176694	-0.145569
H	 0.7259357688	 1.6335003656	-0.0980073062	 0.306906
H	-0.8621965419	-2.9612882126	 0.2094489211	 0.11643
H	-3.2065494544	-2.0890308016	 1.7333316332	 0.114303
H	-2.8987300932	 0.6935142318	 0.5422923278	 0.103935
H	-4.3407348389	-0.9013148596	-1.0877511606	 0.117661
H	-2.8425518753	-0.7186192443	-2.0619159851	 0.115836
