21
gdb 58692	2.15797	1.27423	0.97167	2.6138	78.74	-0.2484	-0.0244	0.224	1293.1317	0.179612	-424.221651	-424.211461	-424.210517	-424.257364	37.356	
C	-1.3754562288	 0.1225909203	-0.3039611879	-0.428725
C	 0.1013211255	-0.0669689524	 0.0479617097	 0.056916
O	 0.2479210283	-0.7532366399	 1.2874725	-0.431231
C	 0.9116624337	-0.7414377345	-1.0712219984	 0.344127
C	 0.8414882481	-0.0397566031	-2.4258716009	-0.362121
C	 1.3056123205	 1.3994624084	-2.3455923803	 0.165322
O	 0.6208181365	 2.3560766663	-2.6075145194	-0.246475
C	 2.2156287955	-1.4019691742	-0.6914455961	-0.305453
C	 1.0271476417	-2.2469232318	-1.0819774039	-0.318435
H	-1.5035063625	 0.8117423164	-1.1426387456	 0.143888
H	-1.839762927	-0.8341803805	-0.5743488412	 0.110636
H	-1.9058449548	 0.5364180509	 0.5582014577	 0.125734
H	 0.5425922323	 0.9221059387	 0.2310199638	 0.095857
H	-0.4014749523	-1.4636124178	 1.3102457882	 0.282626
H	 1.5059423042	-0.5636844165	-3.1257989388	 0.114772
H	-0.1686213939	-0.0538407739	-2.8451655151	 0.120489
H	 2.3584403988	 1.5260589071	-2.0028497442	 0.081125
H	 3.0490688279	-1.3352253103	-1.3828079257	 0.105776
H	 2.4850956419	-1.3916823564	 0.3573772717	 0.133739
H	 0.5404290912	-2.8065695161	-0.291175059	 0.101017
H	 1.0355078733	-2.7519158807	-2.0419389843	 0.110416
