19
gdb 110672	3.02959	1.60884	1.40874	1.3819	74.19	-0.2246	0.085	0.3096	997.8777	0.160715	-422.985507	-422.977973	-422.977029	-423.017565	29.395	
C	 0.2128369241	 1.2936524486	-0.1391563732	-0.241419
O	-0.2797652539	 0.0182680633	 0.217753625	-0.244159
C	 0.5146870166	-0.6332839889	 1.1688794052	 0.143802
C	 0.1014082662	-2.0513713552	 1.5125747421	-0.130773
C	 0.587343618	-3.019932465	 0.448846259	-0.075754
C	 0.9682729241	-2.4683549203	-0.9200523765	-0.096081
O	 1.961025751	-1.4648016268	-0.6585511772	-0.259588
C	 1.9218756212	-1.194677019	 0.7305747248	 0.022409
C	 1.5634339056	-2.5055127038	 1.4616513171	-0.093293
H	 1.1921048801	 1.2255535218	-0.6308233403	 0.123835
H	-0.5040518144	 1.7346265376	-0.8358122842	 0.124776
H	 0.3016381372	 1.9521011154	 0.7397741192	 0.098784
H	 0.6207771356	-0.0211853107	 2.0796308417	 0.062181
H	-0.6686480021	-2.3335378779	 2.2205095423	 0.087521
H	 0.2259603028	-4.0383375363	 0.5278009007	 0.093933
H	 1.414369015	-3.2422147795	-1.5566658407	 0.098109
H	 0.1160991945	-2.0202720948	-1.4417378393	 0.114056
H	 2.812701536	-0.6327705408	 1.0068983204	 0.079167
H	 2.1510528223	-3.0864083177	 2.157705984	 0.092494
