14
gdb 43594	3.36751	1.39451	1.14338	4.8918	67.15	-0.2779	0.0049	0.2828	1033.7918	0.100787	-436.65747	-436.650092	-436.649148	-436.689667	27.692	
O	 0.0347666947	-0.0188275701	-0.066770052	-0.327814
C	 0.0472653594	 1.1688598084	-0.0169563278	 0.4546
O	-1.087861133	 1.9142579153	 0.1790993365	-0.231597
C	-0.8010562521	 3.324628645	 0.1326179306	-0.08723
C	-1.3810873365	 4.0124582683	 1.2772474917	 0.326287
C	-1.847146994	 4.602979282	 2.2130557953	-0.436479
C	 0.7274703721	 3.3849330224	 0.0474753356	-0.042601
C	 1.4958766251	 2.7209618937	 1.1172847755	-0.255413
N	 1.1985772922	 2.0115888174	-0.1618816043	-0.17287
H	-1.2342023316	 3.7195090583	-0.7943157447	 0.134124
H	-2.2667193985	 5.120116088	 3.0410964933	 0.214118
H	 1.1691206359	 4.1598696917	-0.5682741935	 0.126383
H	 2.5453874654	 2.9542363253	 1.2568022837	 0.144137
H	 0.964429251	 2.3978620343	 2.0079715902	 0.154357
