21
gdb 73399	2.58827	1.97007	1.47489	1.5898	80.87	-0.2275	0.0898	0.3173	978.4917	0.185511	-387.089532	-387.082277	-387.081332	-387.120632	30.382	
C	-0.0037725863	 1.5498676503	-0.0413826268	-0.508288
C	 0.0407207443	 0.0399627687	-0.000454553	 0.346897
C	 0.4884692247	-0.7028383228	-1.2649715473	-0.277068
C	 0.3461928431	-2.1795188666	-0.7903437678	-0.247017
C	-0.1429758927	-1.9353961815	 0.635956751	-0.033785
C	 0.7251497157	-0.7521915304	 1.1841836664	-0.11086
C	-0.0675358215	-0.3014718006	 2.4058791343	-0.107393
O	-1.4076549344	-0.3232219789	 1.8680707816	-0.28426
C	-1.178657522	-0.7816912234	 0.5359735631	 0.082849
H	 1.0017066303	 1.978087573	-0.1277385997	 0.11263
H	-0.5825730931	 1.8965133539	-0.905270564	 0.114853
H	-0.4758405341	 1.9591615631	 0.856175374	 0.130866
H	-0.1539162249	-0.4683397581	-2.1205672445	 0.095241
H	 1.5140080891	-0.4447896878	-1.5490016186	 0.0958
H	-0.3764461239	-2.7464846461	-1.3854871095	 0.098218
H	 1.293541589	-2.7261901579	-0.8163460918	 0.098314
H	-0.3565460064	-2.798317536	 1.2687218357	 0.062699
H	 1.8108767485	-0.8266099815	 1.2707019283	 0.062051
H	 0.0092157436	-0.9923515334	 3.2546369058	 0.098102
H	 0.1843119543	 0.7080215217	 2.752091581	 0.098316
H	-2.1267006434	-0.8652795657	 0.0026221917	 0.071836
