16
gdb 44433	3.63935	1.45722	1.4245	3.5686	69.54	-0.2538	-0.0122	0.2416	946.8049	0.125822	-437.783607	-437.776943	-437.775999	-437.814529	26.985	
O	-0.1356748861	 0.051189505	 0.4486670278	-0.29635
C	-0.0855235008	 1.168998174	 0.07400206	 0.361309
O	-1.178512132	 2.0197471272	-0.2581399862	-0.291118
C	-0.2045517919	 2.8624615136	-1.0376667553	 0.104738
C	 0.6852483622	 4.1799518296	-1.0249960886	-0.08153
C	 0.7459500878	 4.6449864563	 0.4207913307	-0.194532
C	 0.9262357361	 3.2460599647	 1.0715784555	-0.211021
C	 0.8921086487	 2.3558614235	-0.2066249793	 0.090811
N	 1.8843071028	 3.1953178323	-1.0751339861	-0.401442
H	-0.22880216	 2.4714211062	-2.0573145677	 0.105995
H	 0.6246808107	 4.9059275275	-1.8360815174	 0.092128
H	 1.5944633484	 5.3091815484	 0.5924701412	 0.119957
H	-0.1708666511	 5.1511124876	 0.7308062021	 0.115926
H	 1.8919750042	 3.1207322629	 1.564261918	 0.125684
H	 0.1341641194	 2.9989773711	 1.7792161289	 0.128044
H	 1.9144613316	 2.7884264303	-2.0121906134	 0.231402
