17
gdb 51219	4.75145	1.06509	1.0243	2.9621	74.24	-0.2329	0.0135	0.2465	1188.9651	0.136505	-417.913112	-417.90562	-417.904676	-417.945691	28.593	
N	-0.1686709789	 1.2453636007	 0.0664988035	-0.434364
C	-0.1416212912	 0.0003595984	 0.2525078625	 0.105658
O	-1.0556428205	-0.7887627202	-0.3696710515	-0.23053
C	-0.9117040839	-2.1557214438	-0.1985315185	 0.399174
C	-0.1427634865	-3.146900155	-1.0505432864	-0.237996
N	-1.0002634645	-4.2396765763	-0.4347871066	-0.16655
C	-0.5367254447	-4.2243967145	 1.0159313393	-0.175466
C	-1.1691642217	-2.8558860246	 1.1637369936	-0.151722
C	-2.0182630868	-3.1416965562	-0.0472731119	-0.102888
H	 0.5675832199	 1.6945875983	 0.6072307674	 0.233476
H	 0.5511808637	-0.5640075795	 0.8887976549	 0.095489
H	-0.3803368934	-3.0536646765	-2.1129533247	 0.124098
H	 0.9365424621	-3.2772489361	-0.9150831603	 0.102313
H	-1.062952489	-5.0054179186	 1.5707449616	 0.117867
H	 0.5446667308	-4.3429391864	 1.1480858399	 0.101282
H	-1.42952373	-2.2771505956	 2.0417132548	 0.103202
H	-3.0753360952	-3.1384007441	-0.2679146478	 0.116957
