17
gdb 46943	2.6028	2.09172	1.55145	4.2274	71.08	-0.2311	-0.0067	0.2243	888.2595	0.13909	-417.980999	-417.974298	-417.973354	-418.011967	27.19	
O	-0.2363604216	 0.5426460245	 1.1347150777	-0.315889
C	-0.1398003657	 1.3204853184	 0.2205953932	 0.365653
C	-1.293036768	 1.7450130843	-0.6823408645	-0.255456
N	-1.4657344437	 3.2104251782	-0.6084530449	-0.298391
C	-0.222289996	 3.9314158905	-0.3816271823	-0.021124
C	 0.3456437643	 3.9150792474	 1.0933866806	-0.249492
C	 1.554325291	 3.1129138622	 0.590889261	-0.043522
C	 1.0679416989	 3.2070661649	-0.8299401535	-0.086132
N	 1.0869578055	 1.9329476776	-0.127715254	-0.095222
H	-1.0435365606	 1.4017318365	-1.7001572564	 0.112564
H	-2.2022982237	 1.2347043192	-0.3581371298	 0.131376
H	-1.9224282361	 3.5437297186	-1.4486620964	 0.225289
H	-0.3260827086	 4.9484536151	-0.7617731583	 0.085387
H	 0.6145516584	 4.9195963929	 1.428188436	 0.108156
H	-0.2758175428	 3.435352183	 1.8533777473	 0.127506
H	 2.5649422881	 3.1185251075	 0.978546685	 0.110196
H	 1.6182773507	 3.2956137194	-1.7600211108	 0.099103
