19
gdb 69362	3.28119	1.19545	1.04528	2.6929	76.91	-0.2617	-0.035	0.2268	1200.2607	0.157359	-423.014695	-423.005891	-423.004947	-423.047958	33.829	
C	 0.0169914474	 1.5541675681	 0.0729537358	-0.500049
C	 0.0384642433	 0.0545055548	 0.0120582523	 0.375129
C	-0.8856387813	-0.8295790819	 0.7968219577	-0.335339
C	 0.5980547894	-0.9667527248	 1.0168056483	-0.15161
C	 1.217018102	-1.7959662948	-0.1213434839	 0.344465
O	 0.8216679666	-3.1262163018	-0.2388865906	-0.48553
C	 0.608033137	-0.7611585012	-1.1541091969	-0.371045
C	 2.7224107257	-1.6996266927	-0.1170290607	 0.110031
O	 3.4296477058	-2.6749714938	-0.2049774216	-0.282499
H	 0.9917532685	 1.9813326754	-0.1901585485	 0.115555
H	-0.7227930441	 1.9680151628	-0.6227759597	 0.125449
H	-0.243144002	 1.9055400948	 1.076651761	 0.121467
H	-1.4125729934	-0.3434162624	 1.6121087293	 0.112249
H	-1.4399299043	-1.6316733809	 0.3177380002	 0.126479
H	 1.0464818982	-0.8105277111	 1.9918050591	 0.086916
H	 1.6411871476	-3.6440533502	-0.2910413421	 0.28975
H	-0.1161647442	-1.2118818878	-1.8379396509	 0.116215
H	 1.3690553134	-0.2328944527	-1.7367111372	 0.104516
H	 3.1441606242	-0.6774183198	-0.0312812315	 0.097852
