25
gdb 60537	2.60568	1.18518	0.95127	0.134	92.31	-0.2586	0.0894	0.348	1378.1439	0.2281	-352.334696	-352.324644	-352.3237	-352.369521	39.204	
C	 0.1213733722	 1.5231129505	-0.4181881075	-0.4171
C	 0.0365047539	 0.0326326322	-0.051333936	-0.072034
C	 0.7200258918	-0.2114803091	 1.2903165793	 0.053241
C	 1.503924657	-1.4688070773	 1.5743464132	-0.268651
C	 2.2227010355	-0.153574618	 1.4071937868	-0.284728
C	-1.3864053028	-0.5531597446	-0.060521912	 0.390571
C	-1.4319083593	-2.0729949316	-0.0341336142	-0.459077
C	-2.4952321946	 0.1558878348	 0.6834330211	-0.296794
C	-2.5032642188	 0.1198407541	-0.8268764665	-0.324533
H	 1.1603589276	 1.8593088437	-0.3594629144	 0.115986
H	-0.2328157362	 1.7147527428	-1.4345141077	 0.114057
H	-0.4597973685	 2.1488473441	 0.2682204766	 0.114356
H	 0.6101349579	-0.5173197429	-0.8132757472	 0.062049
H	 0.1705049016	 0.1976666023	 2.1353940535	 0.079035
H	 1.444945077	-1.9058902325	 2.5654570844	 0.107719
H	 1.6025044027	-2.1975698576	 0.7764336218	 0.110052
H	 2.795604522	-0.0088792262	 0.4962954994	 0.107609
H	 2.6600363005	 0.3150458162	 2.28194141	 0.10727
H	-0.9698695793	-2.475703528	 0.8717756919	 0.125231
H	-2.4648302599	-2.433885982	-0.0697363422	 0.106084
H	-0.9037757348	-2.498566525	-0.896344089	 0.107005
H	-3.2164053781	-0.4509574768	 1.221186347	 0.104777
H	-2.2831430779	 1.1071064248	 1.1602244749	 0.107089
H	-2.3095308259	 1.0474286949	-1.3511802476	 0.107869
H	-3.2274997636	-0.5194975288	-1.3212829656	 0.102915
