18
gdb 67833	2.61908	2.11969	1.65736	1.4506	74.91	-0.2489	0.0075	0.2564	886.5886	0.149132	-401.872347	-401.865496	-401.864552	-401.90305	28.68	
C	-0.162461085	 1.5522078929	-0.1203133392	-0.46628
C	-0.0159047541	 0.0378989013	-0.0133813715	 0.344252
N	-1.3711113678	-0.5121458094	 0.302623935	-0.331271
C	-1.2754950805	-0.8225021699	 1.5390059349	 0.07417
O	-0.0489106683	-0.8011308882	 2.1915039792	-0.291457
C	 0.791089996	-0.6881711812	 1.0489350315	 0.374598
C	 2.0991646829	-0.0952408681	 0.484936358	-0.31677
C	 1.2207496041	-0.6294872307	-0.7445705103	-0.144141
C	 0.9747824912	-1.9016438763	 0.0881245121	-0.281513
H	 0.7396694574	 2.0450958783	-0.4891950004	 0.114789
H	-0.9732486423	 1.7672654292	-0.8225850182	 0.137452
H	-0.4393176463	 1.9993245054	 0.8406481842	 0.123896
H	-2.0982840381	-1.1316507337	 2.1743655913	 0.137449
H	 2.2533181877	 0.9786854252	 0.5732891483	 0.1146
H	 3.0184539667	-0.6546957091	 0.6689509419	 0.107684
H	 1.5125182789	-0.5667498295	-1.7921659735	 0.089693
H	 1.8433733992	-2.5346200562	 0.2793674159	 0.094047
H	 0.0860614082	-2.4804732102	-0.1565589192	 0.118804
