12
gdb 20477	6.634	1.4582	1.29883	2.3266	55.58	-0.2803	-0.0382	0.242	881.2815	0.084764	-414.625876	-414.619635	-414.618691	-414.657424	21.836	
C	 0.207308641	 1.5500263018	 0.1064564061	-0.166935
O	 1.1580525891	 0.5434273589	-0.2172983055	-0.213433
C	-0.1731702888	 0.1250316755	 0.0690174415	-0.023495
C	-0.3895206591	-0.6534468254	 1.3089659463	 0.372811
N	 0.3581323627	-0.544891899	 2.3773496239	-0.176747
O	-0.2277219389	-1.445705314	 3.2724573211	-0.14432
C	-1.2603245369	-1.9910676497	 2.6311588421	 0.107212
N	-1.4262839068	-1.5591217062	 1.4223512998	-0.312512
H	 0.344927384	 2.0270516159	 1.0745689826	 0.137927
H	-0.0929067597	 2.1996353089	-0.7143183824	 0.12676
H	-0.7434903075	-0.2502731609	-0.7778802732	 0.121002
H	-1.8424512591	-2.7259084256	 3.1675213577	 0.171729
