17
gdb 7526	3.31729	1.58579	1.27372	2.5028	65.72	-0.2338	0.0251	0.259	983.4905	0.140548	-401.003111	-400.994379	-400.993435	-401.036172	31.959	
C	 0.6632736779	 1.4119649008	-0.6857236977	-0.468715
C	-0.0255398939	 0.2841359374	 0.0508019793	 0.352071
C	 0.7580047529	-0.9903128358	 0.3089242043	-0.371293
C	 0.4209834294	-0.0477511178	 1.4487048125	 0.058668
O	 1.4067079133	 0.7754159525	 2.0056816993	-0.423928
N	-1.4312723374	 0.223038655	-0.2968533428	-0.338036
C	-2.3549829429	-0.6750585445	 0.1261785272	 0.153605
O	-2.1624033164	-1.5971464533	 0.8944644032	-0.338254
H	 1.6947448469	 1.5066903212	-0.3481741822	 0.147794
H	 0.6590528238	 1.2334094525	-1.7668772255	 0.117877
H	 0.1638928788	 2.368250408	-0.4890368377	 0.120624
H	 0.2365476855	-1.9373570525	 0.2848083985	 0.147182
H	 1.7814499336	-0.9959068067	-0.0524471322	 0.10951
H	-0.3462669068	-0.3920618481	 2.1360311561	 0.12058
H	 1.9795025612	 0.2201616794	 2.5451239309	 0.289666
H	-1.7570393732	 0.9384534127	-0.9277061215	 0.245
H	-3.3474327028	-0.469204851	-0.3238297115	 0.077649
