21
gdb 111523	3.43225	1.13096	1.03824	1.4646	83.2	-0.2237	0.0777	0.3015	1274.4506	0.181574	-387.032425	-387.023705	-387.022761	-387.065964	33.846	
C	-0.2838236959	 1.4368379481	 0.1403781355	-0.374106
C	 0.2158795423	 0.0106037812	-0.1184805347	-0.208515
C	 0.840983564	-0.6086643078	 1.1136424114	-0.024986
C	 0.0692021475	-1.3543963029	 2.1607894607	 0.073826
O	-1.0238963779	-2.0923553462	 1.5923902685	-0.314833
C	-0.0859275367	-2.9009756061	 0.8593241697	 0.474821
C	-0.2328530363	-4.3841951861	 0.80944895	-0.348355
C	-0.4320078958	-3.537270781	-0.4438717931	-0.332426
C	 1.0984024927	-2.0944723438	 1.3293926529	-0.263736
H	 0.5324937539	 2.0946507073	 0.4599614986	 0.10892
H	-0.7259986097	 1.8706498501	-0.7618877949	 0.110206
H	-1.045994208	 1.4473728105	 0.9263942408	 0.122298
H	-0.6180425789	-0.6140752896	-0.4497425633	 0.120007
H	 0.9500793346	 0.0169602137	-0.9340741646	 0.092112
H	 1.6392723055	-0.0136514396	 1.5584545943	 0.08402
H	 0.0121859437	-1.1169193269	 3.2166606224	 0.100933
H	 0.6610511152	-4.9949223746	 0.887546316	 0.114248
H	-1.117977082	-4.8075086207	 1.2713946027	 0.125647
H	-1.4499204964	-3.4120325409	-0.7973876342	 0.124957
H	 0.3196110143	-3.572840649	-1.2253303947	 0.117483
H	 2.063088664	-2.5022567956	 1.6013084458	 0.097477
