20
gdb 111586	3.21362	1.3565	1.24006	2.863	77.03	-0.219	0.0661	0.2851	1087.6575	0.173134	-403.083036	-403.075332	-403.074388	-403.115452	30.365	
O	-0.1063293749	 1.5143870017	-0.1866332468	-0.42136
C	 0.0699315354	 0.1254279368	 0.0592872965	-0.112349
C	-1.2927002187	-0.5274316228	-0.038506664	 0.038291
C	-2.0376900374	-0.6463940609	-1.3861568161	-0.003229
C	-1.2266390987	-1.2244546186	-2.562356161	-0.249504
C	-1.4485054832	-2.6155297034	-1.9412090981	 0.021451
C	-0.5371901482	-2.9379610184	-0.7429886337	-0.250039
C	-1.4689505902	-2.0531299191	 0.1119476023	-0.036164
N	-2.5292813787	-2.0539748558	-1.0018823999	-0.166352
H	 0.7570811399	 1.9371770474	-0.1637200261	 0.287529
H	 0.7670287016	-0.3174170267	-0.6684870263	 0.083452
H	 0.4915703837	-0.0563910296	 1.0621733701	 0.086404
H	-1.9583432447	-0.0283878224	 0.6739279006	 0.092272
H	-2.7793920957	 0.1202567438	-1.6146129846	 0.076125
H	-1.7712840156	-1.114580818	-3.5036493838	 0.109775
H	-0.1992304111	-0.8806089683	-2.7157711735	 0.097396
H	-1.7166102651	-3.435471802	-2.6110404594	 0.070423
H	-0.6214897276	-3.98749374	-0.4489473114	 0.109604
H	 0.5245114097	-2.6829002884	-0.8139886701	 0.095674
H	-1.7486793806	-2.4291419253	 1.0986223153	 0.070601
