21
gdb 63040	2.55476	1.98226	1.52903	1.566	80.53	-0.2355	0.0816	0.3171	968.6458	0.18366	-387.050454	-387.042849	-387.041905	-387.081813	31.821	
C	-0.0143443377	 1.512683827	 0.0475583315	-0.462241
C	 0.0415212864	-0.0196765005	-0.0038700432	 0.347212
C	-1.381665088	-0.5749046852	-0.1343218192	-0.445491
C	 1.0137070624	-0.6409495767	-1.051543284	-0.122841
C	 2.3705088311	 0.045728258	-0.7587947984	-0.269888
C	 2.2956243429	-0.7228413458	 0.5709583013	-0.072673
C	 1.5393553209	-1.8621159979	-0.1363191908	 0.106443
O	 0.6520749871	-2.0724070973	 0.963334885	-0.288801
C	 0.8317517041	-0.6404701263	 1.1825634237	 0.028129
H	 0.9240699685	 1.9689694825	 0.3708750896	 0.1164
H	-0.2740203286	 1.9341211505	-0.9296673018	 0.116247
H	-0.7871309598	 1.8299425413	 0.7562624624	 0.112923
H	-1.8615276484	-0.1707356188	-1.0329505409	 0.104478
H	-1.3833876719	-1.6633490617	-0.1965791615	 0.132507
H	-1.9959079223	-0.2847786281	 0.7259556078	 0.106001
H	 0.6430915039	-0.7800461129	-2.0667864219	 0.061027
H	 3.1764361407	-0.3669963313	-1.3743585388	 0.098995
H	 2.4309094486	 1.1342735976	-0.7795178701	 0.099569
H	 3.1273452948	-0.8817836882	 1.2553283281	 0.075477
H	 1.9624762814	-2.7568497467	-0.5910648824	 0.08382
H	 0.6158391941	-0.3225025795	 2.2030179535	 0.072708
