11
gdb 21750	5.62813	2.42793	1.6962	2.1261	56.4	-0.235	-0.0235	0.2115	674.825	0.0759	-393.590403	-393.58536	-393.584416	-393.61948	19.445	
O	-0.06418464	 1.3256838018	 0.0098126509	-0.198038
C	 1.245991559	 1.7132593123	-0.0004709799	 0.080436
N	 2.1206739517	 0.7604509574	-0.0140322322	-0.231702
N	 1.3250600053	-0.3607042778	-0.0127196554	 0.02355
C	 1.3921798182	-1.7412005793	-0.0209558652	-0.143154
C	 0.0662765615	-2.1181238876	-0.0104197615	-0.084119
N	-0.8127116532	-1.0370058018	 0.0038721846	-0.387954
C	 0.0102694988	-0.0335305657	 0.0015768015	 0.486938
H	 1.4516827952	 2.7702304586	 0.003428939	 0.181092
H	 2.3184806269	-2.2863067937	-0.0327866695	 0.149698
H	-0.3167606935	-3.1269368242	-0.0123315421	 0.123253
