22
gdb 105529	1.87901	1.79786	1.1781	2.6106	80.92	-0.2389	0.0675	0.3064	1168.0585	0.19448	-404.308967	-404.299676	-404.298732	-404.343134	34.909	
C	 0.8444539844	-0.6988906626	-1.1888255492	-0.39757
C	 0.0905610523	-0.0892857615	-0.0025919948	-0.226656
C	-1.4113029371	-0.3836150686	 0.0010264889	 0.407227
C	-2.2510046364	 0.5408979949	 0.9254913706	-0.33508
C	-2.836105465	 1.0951692762	-0.385753322	-0.068198
O	-2.0581526561	 0.174135217	-1.1831205214	-0.329215
C	-1.7084966888	-1.8672945541	 0.1170959102	-0.031007
C	-3.0197601811	-2.4182068662	-0.296538322	-0.255661
N	-1.8113103505	-2.6888996911	-1.0989488858	-0.326454
H	 1.9001544914	-0.4132070033	-1.1619924979	 0.11001
H	 0.788595193	-1.7909278567	-1.1867869166	 0.14016
H	 0.4216373357	-0.339498932	-2.1317038824	 0.129695
H	 0.5099576611	-0.4522021547	 0.9455230741	 0.096763
H	 0.2232149503	 0.9993357262	-0.0047725046	 0.09288
H	-2.9621725891	 0.0180447293	 1.5661568966	 0.113035
H	-1.6735097648	 1.248498589	 1.5228704622	 0.108279
H	-3.9126854532	 0.9506372137	-0.5318768381	 0.105181
H	-2.5848100552	 2.1372536297	-0.6155201142	 0.10634
H	-1.1784817331	-2.3566406993	 0.9334027842	 0.086742
H	-3.4331140525	-3.2801602279	 0.2193499477	 0.11284
H	-3.7522179797	-1.7296718348	-0.7075095648	 0.115949
H	-1.8270402155	-2.0560104431	-1.8975959906	 0.244741
