18
gdb 86701	1.80224	1.58722	1.00142	3.6761	74.47	-0.2442	-0.0345	0.2097	1221.5748	0.145744	-439.1074	-439.098069	-439.097125	-439.142697	32.529	
C	-0.7316687566	 1.3380311506	 0.4735692943	-0.39702
C	-0.1020476874	 0.0203397023	 0.0504131859	 0.052718
C	 0.7656799104	 0.0222505867	-1.2470339554	-0.289145
C	 1.9706449118	-0.4367943935	-0.3912031825	-0.04788
C	 3.1616637252	 0.5058446079	-0.3126074997	 0.138558
O	 3.3702300233	 1.3893168009	-1.1030815677	-0.233929
N	 1.1141670805	-0.369569506	 0.8030080307	-0.068608
C	 1.284018015	-1.0428381807	 1.9668906011	 0.122942
O	 2.3207296014	-1.5842479099	 2.2949858892	-0.330971
H	 0.009186792	 2.1430814344	 0.464872005	 0.133247
H	-1.5418994933	 1.604437001	-0.2132264248	 0.127785
H	-1.1533338763	 1.2695769996	 1.4814344541	 0.126316
H	-0.8517413999	-0.7798246058	 0.0573738409	 0.095213
H	 0.4482317107	-0.6803749047	-2.0164638162	 0.120406
H	 0.9167394152	 1.0077819224	-1.6894559148	 0.138176
H	 2.3436122641	-1.4531910789	-0.5776451816	 0.117892
H	 3.8272865444	 0.3174411634	 0.555026671	 0.116209
H	 0.3717130895	-1.0322207099	 2.5968052605	 0.078092
