16
gdb 32277	2.63787	1.50041	0.96211	1.2527	74.69	-0.2264	-0.0127	0.2138	1156.851	0.126066	-437.951206	-437.943243	-437.942299	-437.98406	29.815	
O	 0.0064849561	 1.4698000605	 0.0513568352	-0.422149
C	 0.0235863724	 0.054911778	-0.0077508561	-0.168094
C	-1.3917885772	-0.4577372347	-0.0003773842	 0.153279
C	-2.5037968965	 0.3674005731	 0.0536173762	-0.142591
C	-3.7848279676	-0.1917430958	 0.0564324815	-0.137827
C	-3.9000028101	-1.5708548004	 0.0043509491	-0.010613
N	-2.8414103607	-2.3923464626	-0.0484489071	-0.366601
C	-1.6398236858	-1.8393528437	-0.049927371	 0.371978
O	-0.5706165186	-2.6700879887	-0.103682758	-0.420989
H	 0.9161051341	 1.7790667577	 0.0427277667	 0.293166
H	 0.534104784	-0.3062499557	-0.9152096184	 0.110859
H	 0.5697796054	-0.3794343548	 0.8451913549	 0.110907
H	-2.357911492	 1.4397492174	 0.0931009796	 0.127521
H	-4.6684917997	 0.4338177409	 0.0982008431	 0.096545
H	-4.8742736874	-2.0522031264	 0.004361601	 0.108206
H	-0.9350309364	-3.5658392547	-0.1317939224	 0.296403
