17
gdb 7678	3.80968	1.69778	1.59965	3.9375	68.81	-0.2423	-0.0077	0.2346	885.1014	0.140834	-363.854252	-363.846452	-363.845508	-363.885895	29.675	
C	-0.00697583	 1.5204366326	-0.0198187088	-0.464751
C	 0.0168482174	 0.0067648981	-0.0996668991	 0.315887
C	-1.2009627916	-0.6510385583	 0.5191222335	-0.443153
C	 0.6912795411	-0.7475359785	-1.1738558121	-0.066653
C	 1.9418291668	-0.072629374	-1.7310829678	-0.393549
C	 2.4022221012	-0.0150666059	-0.2645416735	 0.3972
O	 3.3664648353	 0.3817254814	 0.3118917502	-0.297764
N	 1.2717618316	-0.759475561	 0.2568902649	-0.216161
H	 0.8498556481	 1.9970535083	-0.498833216	 0.134832
H	-0.9162331378	 1.9004903814	-0.4971231456	 0.126104
H	-0.0214425789	 1.8378547283	 1.0278435649	 0.139642
H	-2.1089801967	-0.3426965727	-0.0104191451	 0.119922
H	-1.1214502531	-1.7395531509	 0.4792346405	 0.132494
H	-1.3011301556	-0.3566465279	 1.5682279864	 0.132457
H	 0.2691574085	-1.6615605032	-1.5767677219	 0.106282
H	 2.5714026437	-0.7526406189	-2.3111748178	 0.143993
H	 1.8385182799	 0.869280661	-2.2744668426	 0.133219
