16
gdb 98122	4.71925	0.80536	0.69376	2.8437	69.98	-0.2627	-0.0876	0.1752	1582.1888	0.120835	-475.06435	-475.054453	-475.053509	-475.101055	32.976	
C	 0.0062062539	 1.535790168	 0.0112674383	-0.386716
C	-0.0667083411	 0.0118634728	 0.0035995795	-0.276792
C	-1.4842676187	-0.5111793473	 0.0137921414	 0.261717
O	-2.4733481105	 0.1730848379	 0.0265853762	-0.261396
C	-1.5929390263	-2.0564148483	 0.0064385057	 0.394044
O	-0.6375553328	-2.7862575836	-0.0062534754	-0.330194
O	-2.8885547199	-2.4519139825	 0.0163462922	-0.182028
C	-3.1498188744	-3.8063078472	 0.0114504252	 0.120077
N	-4.352573133	-4.1656755792	 0.0212022879	-0.407024
H	 1.047377905	 1.8679997587	 0.0034477279	 0.118447
H	-0.4980731695	 1.9568440772	-0.8623454311	 0.135434
H	-0.4817671879	 1.9472060434	 0.8986253587	 0.135431
H	 0.4400964474	-0.4205128682	-0.8692271519	 0.143268
H	 0.4560626715	-0.4299978804	 0.8621402773	 0.143269
H	-2.244936703	-4.4138074903	-0.0001373913	 0.147383
H	-4.4105054506	-5.1832942209	 0.0166279293	 0.245081
