19
gdb 111022	1.92641	1.68382	1.06383	2.3697	80.64	-0.2569	0.0155	0.2724	1184.0981	0.160321	-382.008535	-382.000085	-381.999141	-382.042016	31.862	
C	-0.8638985033	 0.8773765928	-0.2474004567	-0.38845
C	 0.5396011319	 0.3526860126	 0.0858456942	-0.24453
C	 1.1384980714	-0.4131197433	-1.0787232033	 0.053261
N	 2.5330128605	-1.0711081904	-0.9224777764	-0.16914
C	 1.8033791281	-2.2121276764	-0.1920216801	-0.212645
C	 0.8485244839	-1.9202962369	-1.3751882049	 0.18674
C	 2.1579475503	-1.843783985	-2.1980638879	-0.201579
C	-0.4083510008	-2.5571302294	-1.714565666	 0.147892
N	-1.4173512706	-3.0558247693	-1.9809112394	-0.34766
H	-0.8464118495	 1.5284712989	-1.1278557755	 0.121355
H	-1.5574856191	 0.0561630163	-0.4542536795	 0.140314
H	-1.2694696771	 1.4561663861	 0.5870098437	 0.122447
H	 1.2125456057	 1.1914000838	 0.3038249363	 0.120893
H	 0.4957318439	-0.2502254118	 0.997199771	 0.107156
H	 1.1141733568	 0.2176778425	-1.974556492	 0.085802
H	 2.3464941428	-3.1591328105	-0.2154140828	 0.119083
H	 1.4751091458	-1.973500798	 0.8177848934	 0.121823
H	 2.1543890237	-1.232350563	-3.102894532	 0.118802
H	 2.7220751757	-2.7688340091	-2.3315743923	 0.118436
