19
gdb 82242	2.5678	1.88374	1.40194	3.0079	73.06	-0.239	0.0612	0.3002	978.1093	0.160818	-422.995971	-422.988552	-422.987607	-423.027696	29.36	
C	-0.6994718559	 1.3813261241	-0.1606959735	-0.403465
C	-0.0478404326	-0.0011749842	-0.0526623505	-0.029208
C	 0.9361891158	-0.3052053587	-1.1754805805	 0.03632
O	 2.1421692659	 0.4586270651	-1.0923957978	-0.247349
C	 2.1745399699	-0.9031326609	-0.6447467083	 0.010083
C	 2.0660859761	-1.017573494	 0.8684437856	 0.100687
O	 2.8815372868	-0.0782248423	 1.5936378904	-0.289237
C	 1.7448216596	 0.7868706389	 1.8273382233	-0.081231
C	 0.7646164448	-0.2602259433	 1.2392623038	-0.100717
H	 0.0574452524	 2.1693764888	-0.1944111204	 0.136757
H	-1.3025023723	 1.4587566379	-1.0712389207	 0.116154
H	-1.3583340904	 1.574562528	 0.6918254658	 0.115887
H	-0.8392490955	-0.7616903469	-0.1065426509	 0.077307
H	 0.575968887	-0.4975475091	-2.1847764685	 0.092474
H	 2.812698904	-1.5669061823	-1.2226180691	 0.097041
H	 2.2125083781	-2.047003277	 1.2143504751	 0.073993
H	 1.6214983272	 1.0021603234	 2.8949845007	 0.096807
H	 1.8308461002	 1.7246933275	 1.2708045396	 0.1143
H	 0.1551383989	-0.733328265	 2.0102363858	 0.083396
