21
gdb 100474	4.88678	0.5822	0.54816	1.9037	91.28	-0.2375	0.037	0.2745	2090.6946	0.18062	-387.052119	-387.041566	-387.040622	-387.089184	37.64	
C	 0.109593811	 1.5601423813	 0.1725572654	-0.38603
C	 0.0628977172	 0.0350333428	 0.0702609104	-0.167736
C	 0.6165968113	-0.4826123884	-1.2731387525	-0.050363
O	 1.9603804753	-0.0459718907	-1.4935965527	-0.418418
C	 0.4955510165	-1.9384946395	-1.3729591753	 0.025652
C	 0.4296651287	-3.1427527282	-1.4171691648	 0.111791
C	 0.3447799452	-4.5721652905	-1.482364136	-0.161324
C	-0.1993065714	-5.250043356	-2.7314575602	-0.250133
C	 1.262100944	-5.3500969829	-2.4151912458	-0.251444
H	 1.1284667383	 1.9241165618	 0.018460813	 0.131515
H	-0.5294072663	 2.026070436	-0.5860033579	 0.113168
H	-0.2360087137	 1.898882801	 1.1536954276	 0.108296
H	 0.6463530945	-0.4223041884	 0.879663258	 0.094304
H	-0.9641274391	-0.3308454205	 0.1838124607	 0.105212
H	 0.0442814919	-0.0141826778	-2.0850190461	 0.109247
H	 2.5293601606	-0.6017976424	-0.9494666988	 0.280495
H	 0.108421569	-5.0620227959	-0.5420411384	 0.109486
H	-0.8240264084	-6.1242182432	-2.5868416865	 0.119138
H	-0.501771661	-4.6046812146	-3.5472107898	 0.128878
H	 1.9548675852	-4.7733551354	-3.0160307738	 0.129337
H	 1.651855061	-6.2937064385	-2.0505792867	 0.118931
