17
gdb 106902	2.95138	1.30671	1.08754	2.3885	69.77	-0.2352	-0.0202	0.215	1136.1752	0.133434	-458.929509	-458.920456	-458.919511	-458.963578	32.661	
C	 0.1661613488	 1.3336051811	-0.1945818557	-0.263128
O	-0.1686554287	-0.0153567672	 0.1154162064	-0.287502
C	 0.5427028079	-0.5185203117	 1.1725671721	 0.452117
C	 1.9373453553	-1.0200505265	 1.0602716958	-0.338048
C	 0.8237527721	-2.0185427709	 1.4307805893	-0.291092
C	 0.4964144772	-1.8099398519	 2.8737645697	 0.408136
O	 0.4229203199	-2.5090494857	 3.8461277349	-0.326916
C	 0.1626612281	-0.3055772255	 2.6426112925	-0.091806
O	 0.8816722651	 0.6821351837	 3.3406014631	-0.437003
H	 1.2234583695	 1.4255754977	-0.4760643549	 0.118012
H	-0.4613920816	 1.6260294029	-1.0383731133	 0.132732
H	-0.0312733348	 1.999440475	 0.6551458357	 0.13181
H	 2.2909707307	-1.1546998309	 0.043113973	 0.132013
H	 2.6984570767	-0.7482022314	 1.7832805214	 0.138086
H	 0.626238679	-2.884696393	 0.8124085583	 0.123939
H	-0.9280992273	-0.1709941604	 2.7268911658	 0.100484
H	 0.7967550221	 0.4926730548	 4.2820467359	 0.298164
