14
gdb 55620	2.16585	1.19761	0.90656	12.6543	74.9	-0.1827	-0.0271	0.1557	1271.0404	0.100566	-429.054052	-429.044454	-429.04351	-429.089318	33.774	
N	-0.3177813387	 0.4242715819	 1.9502682532	-0.501802
C	-0.0794545821	-0.2192474923	 0.8083440662	 0.563649
N	 1.1487996888	-0.7185545271	 0.5521225967	-0.557517
H	 1.7817014426	-0.8870687666	 1.315738761	 0.288604
H	 1.2761235107	-1.2962751685	-0.2630599596	 0.284736
N	-1.0645053456	-0.3512904635	-0.0712909691	-0.284488
C	-2.3572503586	 0.2483256418	 0.1388029993	-0.293212
C	-3.356315786	-0.5905024854	 0.6613913534	 0.226046
N	-4.147299252	-1.3071385471	 1.1295670171	-0.393948
C	-2.6222698661	 1.4249751142	-0.5817729098	 0.223064
N	-2.789538165	 2.4184757717	-1.167547774	-0.392987
H	 0.433439514	 0.7796971334	 2.5157815806	 0.282281
H	-1.2462963151	 0.8440998697	 1.9906154544	 0.29474
H	-0.874563717	-0.9160837021	-0.8936345994	 0.260833
