19
gdb 61624	3.48391	0.82473	0.7222	2.7692	76.94	-0.2662	0.0266	0.2928	1565.8211	0.158032	-419.194851	-419.184844	-419.1839	-419.230638	35.473	
C	-0.022427317	 1.4836854716	-0.1821640085	-0.421765
C	 0.0157875386	-0.0043292756	 0.0592357294	 0.07032
O	 1.2943307553	-0.651499273	 0.0595994648	-0.255208
C	 0.5411726357	-0.6510897159	 1.274230483	 0.069519
C	 1.1130717733	 0.1134450087	 2.4473105563	-0.223086
C	 1.9619493683	-0.7875771395	 3.3688818075	-0.137158
N	 2.9720069164	-1.5096900167	 2.6012801705	-0.482283
C	 2.5221084277	 0.0211041487	 4.4764545382	 0.255006
N	 2.9980994461	 0.6391116907	 5.3302003811	-0.321402
H	 0.7358405871	 2.0158105397	 0.3953421268	 0.126943
H	 0.14974794	 1.6963186638	-1.2422957974	 0.133894
H	-1.0068666218	 1.8850906464	 0.0821503414	 0.125344
H	-0.7464739425	-0.5626934675	-0.4889403019	 0.090123
H	 0.1284266931	-1.6280612746	 1.5349013127	 0.091526
H	 1.7343306368	 0.9359191461	 2.0818454202	 0.125859
H	 0.3065815094	 0.5552468694	 3.0436398755	 0.126736
H	 1.3004600487	-1.5347853461	 3.8268092392	 0.13258
H	 3.5454375197	-0.861164423	 2.0702462175	 0.24757
H	 3.5896758851	-2.0273976133	 3.2179466538	 0.245483
