20
gdb 102833	2.05132	1.16312	0.82624	3.3838	78.27	-0.2594	0.0192	0.2785	1432.6213	0.169693	-440.261522	-440.251654	-440.250709	-440.298132	35.121	
O	 0.1822125413	 1.3259559551	-0.0079086814	-0.418694
C	 0.0381551338	-0.0736440243	-0.122145792	-0.061225
C	-1.4279797014	-0.5014083407	 0.0070139691	 0.049956
O	-1.8945360836	-0.0075386099	 1.2826144192	-0.204733
C	-1.9937058978	-0.873667072	 2.3084499806	 0.124234
N	-2.2337407546	-0.4517116577	 3.4732147309	-0.443652
C	-2.3073853889	 0.0715940053	-1.0726862031	 0.039803
C	-2.5391299644	-0.7202668134	-2.3362808849	-0.272713
C	-3.6592185628	-0.5290439248	-1.3449945432	-0.273778
H	-0.2387128858	 1.5762962825	 0.8238370883	 0.297647
H	 0.4172751439	-0.3567050694	-1.1093537167	 0.116141
H	 0.6358668261	-0.6051743571	 0.6361625838	 0.088423
H	-1.4926514286	-1.5991001912	-0.0012062412	 0.074043
H	-1.8617352038	-1.923068583	 2.0078923007	 0.085003
H	-2.3064406204	-1.2351404513	 4.1187735569	 0.229874
H	-2.2084617789	 1.1460919731	-1.180929803	 0.106848
H	-2.5764477906	-0.1803187373	-3.2753284971	 0.120426
H	-2.0928862341	-1.7069326841	-2.4124441024	 0.110599
H	-3.9641226438	-1.3857247717	-0.7525314015	 0.111174
H	-4.4719738257	 0.1401941319	-1.6026488828	 0.120624
