19
gdb 112029	3.33736	1.313	1.07384	2.5551	76.58	-0.2407	0.003	0.2437	1158.8662	0.160106	-422.998462	-422.990348	-422.989404	-423.031569	30.392	
C	 0.0989212708	 1.3203271089	 0.1964431827	-0.235521
O	-0.0724833933	-0.0570125351	-0.0443160756	-0.242842
C	 0.5927495177	-0.5334107177	-1.2062852935	 0.083177
C	 2.0836762526	-0.760527871	-1.0173936288	-0.096308
C	 2.4656824978	-1.995477269	-1.3403749732	-0.086049
C	 1.3035985111	-2.8432261242	-1.7862245325	 0.086656
O	 0.8593237532	-3.7810403507	-0.7730701629	-0.29946
C	-0.2366508082	-2.9063876177	-0.4087345505	-0.07506
C	 0.0716275073	-1.9346540579	-1.571639958	-0.127315
H	 1.1444210755	 1.5840570293	 0.4145663854	 0.107403
H	-0.2362754365	 1.9266783881	-0.6599888874	 0.10467
H	-0.5105126091	 1.5734930264	 1.0674624531	 0.129609
H	 0.4079139548	 0.1801438473	-2.0276216981	 0.068062
H	 2.7417422436	 0.0210963306	-0.6531141242	 0.100776
H	 3.4758901841	-2.3838505772	-1.2710430835	 0.104335
H	 1.4505542454	-3.3431605264	-2.7499323842	 0.077795
H	-1.1980429939	-3.4271109931	-0.4695019622	 0.101629
H	-0.1162575052	-2.4754074375	 0.5894966568	 0.11882
H	-0.679757088	-1.9237983331	-2.3599049035	 0.079622
