21
gdb 112423	2.52954	1.17698	0.91298	2.8748	78.7	-0.235	-0.0121	0.2229	1343.4403	0.181543	-424.265648	-424.256166	-424.255222	-424.300156	35.575	
C	 0.0621850743	 1.5942178921	-0.0619638524	-0.389955
C	 0.0461191412	 0.0624196021	-0.062481994	-0.186832
C	 0.6846186504	-0.5548753	 1.1839461203	 0.024078
C	-0.0247452429	-0.2614414252	 2.5207055039	-0.327456
C	 0.3714015917	-1.4159146132	 3.4472750791	 0.41177
O	 0.1524583335	-1.4884409902	 4.6277653314	-0.313661
C	 1.1072962466	-2.4675973053	 2.6045375126	-0.351501
C	 0.7637337399	-2.0991120568	 1.1573960832	 0.086195
O	-0.5299832869	-2.5797283273	 0.8026976255	-0.437216
H	 1.0844017099	 1.9829653387	 0.0114596117	 0.111157
H	-0.3778290494	 1.9909649274	-0.9819826007	 0.114119
H	-0.5080124626	 2.0029365647	 0.7787340392	 0.119607
H	-0.9815294365	-0.3044742785	-0.1513350099	 0.117493
H	 0.5787522651	-0.3063701953	-0.9488998978	 0.090826
H	 1.7210855233	-0.1956324568	 1.2598157502	 0.072179
H	 0.2234907237	 0.699845744	 2.9760038455	 0.12518
H	-1.1146818018	-0.2940002283	 2.3999691719	 0.140657
H	 2.183896187	-2.3552229873	 2.7906429528	 0.127138
H	 0.8310305382	-3.4849639346	 2.8952340663	 0.11561
H	 1.5163253342	-2.4499282716	 0.437469225	 0.06416
H	-0.5262307388	-3.5388928086	 0.8772969363	 0.286452
