21
gdb 111752	2.60161	1.23688	1.0235	2.4084	79.8	-0.2293	0.0736	0.3029	1291.7848	0.180638	-424.172288	-424.162667	-424.161722	-424.207037	35.024	
C	 0.0875850436	 1.5347651475	 0.0698106138	-0.375615
C	 0.0391650603	 0.009402768	 0.2399143622	-0.290063
C	-1.3305368723	-0.5372276616	-0.0205033211	 0.432267
O	-2.375064528	-0.1198788956	 0.8632107177	-0.316009
C	-2.9695873251	-1.4409403733	 0.8268718746	-0.086053
C	-1.9359464183	-1.9428333717	-0.1753684583	-0.28133
C	-1.8861625248	-0.9683238132	-1.3374115919	 0.068793
O	-3.0211646219	-0.3709022063	-1.8653558622	-0.234894
C	-3.7294768124	-1.2207124516	-2.7463318419	-0.234922
H	 1.084708689	 1.9212415197	 0.3001037858	 0.109287
H	-0.1633488887	 1.8238954036	-0.9555411358	 0.123509
H	-0.6301253811	 2.0170985972	 0.7389939208	 0.140664
H	 0.7468300336	-0.4738904376	-0.4438271308	 0.099905
H	 0.3414509993	-0.2617211537	 1.2587171863	 0.10617
H	-2.8973826154	-1.9215838344	 1.808449	 0.106321
H	-4.0146983442	-1.4122798292	 0.5000626884	 0.109205
H	-1.4793657819	-2.9244608474	-0.1856631756	 0.094487
H	-1.120970184	-1.2253840905	-2.0753877788	 0.084452
H	-3.1245055736	-1.4869420244	-3.6266830295	 0.104937
H	-4.0431030514	-2.1499660079	-2.2494072745	 0.109535
H	-4.6148980324	-0.6740146076	-3.0785568991	 0.129355
