19
gdb 90969	3.53063	1.49144	1.4295	2.1136	75.63	-0.2369	0.0764	0.3133	998.7607	0.159606	-422.94574	-422.938414	-422.93747	-422.977232	29.968	
C	 0.3310494727	 1.5003863079	 0.1416669131	-0.389971
C	 0.0119512106	 0.0263216456	-0.0543742889	 0.148595
C	 0.7210702643	-0.6164227614	-1.3113841686	-0.408591
C	 1.7868953788	-1.4038737825	-0.6136138134	 0.402296
C	 2.7966761291	-2.5746680834	-0.5361853935	-0.322978
C	 2.7986803657	-1.7852924972	 0.8204127796	-0.003541
O	 2.8164531594	-0.5389422918	 0.0522216658	-0.338732
C	 1.2341142252	-1.7808149125	 0.7548715304	 0.119713
O	 0.4390624849	-0.7025201686	 1.1369889939	-0.290108
H	 1.4121199889	 1.6403026159	 0.2092756262	 0.146093
H	-0.0604932491	 2.092531965	-0.6924385094	 0.105795
H	-0.128859765	 1.8633849222	 1.0651149766	 0.122645
H	-1.0735480196	-0.1103760292	-0.1402894697	 0.078841
H	 0.0410629615	-1.2727473073	-1.8617950526	 0.11442
H	 1.1081693961	 0.1459241718	-1.9907404602	 0.124736
H	 2.4043328	-3.5949382135	-0.5567097339	 0.102865
H	 3.7084033374	-2.4510442599	-1.1188206134	 0.11928
H	 3.4861621399	-1.8781026405	 1.6613167369	 0.099552
H	 0.7366259892	-2.7487970906	 0.890005151	 0.06909
