18
gdb 126469	2.91354	1.25656	0.94664	3.4429	75.84	-0.2045	0.0207	0.2252	1256.6367	0.148063	-435.265991	-435.256642	-435.255698	-435.30029	34.461	
C	-0.215642041	 1.5180497822	 0.0873902288	-0.374569
C	 0.1285582619	 0.0225965934	-0.010804278	-0.293269
C	 0.777081537	-0.5071405483	 1.2323854101	 0.370478
N	 2.0518123828	-0.8182576337	 1.2177232923	-0.245681
O	 2.3426133093	-1.2607198948	 2.5400625438	-0.225245
C	 1.2237689331	-1.2069431365	 3.2618461861	 0.480974
N	 1.2885894424	-1.5471242135	 4.5876381906	-0.592397
C	 0.1794960549	-0.7368778952	 2.5088397711	-0.095622
N	-1.150112155	-0.5934204284	 2.9904918362	-0.626643
H	 0.6861048414	 2.1116294936	 0.2622840921	 0.134833
H	-0.6829504079	 1.8687322027	-0.8376633939	 0.117283
H	-0.9115448705	 1.7140507955	 0.9094058004	 0.108612
H	-0.7857248816	-0.550123644	-0.2121974567	 0.100687
H	 0.8067595354	-0.151878827	-0.8509239001	 0.129263
H	 1.9718176963	-2.255766178	 4.8143325336	 0.263214
H	 0.3730739341	-1.7259990854	 4.9785715891	 0.266367
H	-1.4221094544	 0.379075546	 3.0969395948	 0.242378
H	-1.8281726781	-1.0298912284	 2.3746707397	 0.239338
