23
gdb 39634	4.18263	0.90782	0.86139	0.152	93.46	-0.2215	0.0307	0.2522	1476.1444	0.208152	-351.165264	-351.156662	-351.155718	-351.199136	33.251	
C	-0.0659984072	 1.5989782256	-0.0020600479	-0.210651
C	 1.4707194949	 1.5210463424	-0.1957678628	-0.228726
C	 1.4557633615	 0.1344721631	 0.5282834457	-0.076727
C	-0.0737403916	 0.0629028481	 0.2106021578	-0.229765
C	 2.3670815595	-0.9581685398	 0.0826304985	 0.360833
C	 3.2401923508	-1.6201461354	 0.8484353891	-0.185478
C	 3.9797871596	-2.7028849057	 0.1027684044	-0.242784
C	 3.6558630939	-2.3804030563	-1.3781207222	-0.205748
C	 2.3759023632	-1.509184598	-1.3343782253	-0.308965
H	-0.3316701179	 2.1350023433	 0.9138792297	 0.100702
H	-0.6629131379	 2.0019162341	-0.8235171322	 0.094382
H	 1.7359710329	 1.4172350583	-1.2519977879	 0.101054
H	 2.0913500695	 2.3065225166	 0.2423798657	 0.095954
H	 1.5894823605	 0.2969297233	 1.6032849226	 0.065058
H	-0.7271978896	-0.3534381862	 0.9813016841	 0.095409
H	-0.2601724601	-0.4684223122	-0.7275269317	 0.102123
H	 3.383999379	-1.4378395601	 1.9089997148	 0.07789
H	 5.0572565907	-2.7076874523	 0.3047571522	 0.097945
H	 3.6114056954	-3.6975791087	 0.3946439151	 0.10107
H	 4.4758120836	-1.7959836469	-1.808043926	 0.10281
H	 3.5400398537	-3.2751886827	-1.9952089119	 0.092945
H	 1.4720993585	-2.109078253	-1.5143273334	 0.10252
H	 2.3783123274	-0.7280702175	-2.1032288784	 0.09815
