16
gdb 111904	2.30668	1.42953	0.93022	3.1466	66.75	-0.2719	-0.028	0.2439	1219.8511	0.12373	-475.078699	-475.070139	-475.069195	-475.112351	30.765	
C	-0.0186337955	 1.4454116661	-0.0070957952	-0.478245
C	-0.0910186358	-0.0379885098	-0.0175853928	 0.410177
N	-1.1295710877	-0.7659326236	-0.1035651339	-0.31193
C	-0.662253196	-2.1514488386	-0.0797179294	-0.169142
C	-1.128479488	-2.9046158713	-1.3385489251	-0.053405
O	-2.5326572232	-2.9434735203	-1.4020991724	-0.415874
C	 0.8522484249	-2.049511319	 0.0360254588	 0.422429
O	 1.7034201462	-2.8799723014	 0.0730516518	-0.317452
O	 1.1292923815	-0.6831780131	 0.0796379201	-0.23164
H	 0.6112220041	 1.7997723148	-0.8289401808	 0.157916
H	-1.0216149353	 1.8601293528	-0.1036242888	 0.158675
H	 0.4365279934	 1.7938880966	 0.9254155566	 0.159037
H	-1.0688223456	-2.6713184248	 0.7958041661	 0.139376
H	-0.6871422885	-2.4247570025	-2.2265483381	 0.096497
H	-0.768265628	-3.9362447103	-1.297456945	 0.134899
H	-2.8384517764	-2.0322859957	-1.314200522	 0.298682
