14
gdb 21923	6.79975	1.22176	1.06621	1.4423	59.9	-0.2197	0.0178	0.2374	1038.645	0.108837	-415.874484	-415.867102	-415.866158	-415.906389	27.169	
O	 0.7149657753	 0.1590174676	-0.6590784349	-0.414026
C	-0.1106126622	 0.2956277654	 0.4915968128	-0.173656
C	-1.5141320351	-0.1624256652	 0.234293299	 0.359881
C	-2.7393145379	 0.237538792	 0.7343947276	-0.42786
C	-3.6629288959	-0.6259959231	 0.1046486722	 0.440019
O	-4.9994209947	-0.6097007226	 0.287446434	-0.429807
N	-3.083419434	-1.4841209263	-0.7225797699	-0.336533
N	-1.7631046366	-1.1852974011	-0.6163596476	-0.24423
H	 0.3686297813	 0.7493831481	-1.3372555676	 0.289506
H	 0.365478506	-0.3263278065	 1.2586006398	 0.135562
H	-0.124007259	 1.3250064165	 0.875528246	 0.114041
H	-2.942764814	 1.023413725	 1.4421731751	 0.108883
H	-5.368585138	-1.3038268829	-0.2729240949	 0.302624
H	-1.0866802954	-1.668848227	-1.1814418816	 0.275596
