17
gdb 19851	4.60372	1.9706	1.65842	1.4399	74.47	-0.2231	0.0136	0.2366	814.2275	0.144702	-326.66001	-326.653853	-326.652909	-326.689994	25.317	
C	-0.0278462604	 1.4677509681	 0.0443213397	-0.237495
C	 1.4690429089	 1.9356244886	 0.1103660339	-0.253729
C	 2.1773505273	 0.7989049605	-0.6386555509	-0.021992
C	 3.3970823159	-0.0841070135	-0.2520449706	-0.088411
N	 3.1553298339	-0.6811343208	 1.07574456	-0.322545
C	 2.5015740974	-1.2859793191	-0.1391121715	-0.193411
C	 1.3012570109	-0.3962297629	-0.3299966023	 0.340068
C	 0.0732855161	-0.0610166315	 0.0446943504	-0.221643
H	-0.613255881	 1.8338478467	 0.8948393823	 0.103726
H	-0.5245860599	 1.8492639508	-0.8600278254	 0.101407
H	 1.6219486966	 2.9323335265	-0.3133443988	 0.086856
H	 1.7923103061	 1.9455986409	 1.1559251462	 0.118871
H	 2.226226953	 0.9804764287	-1.7214832449	 0.078399
H	 4.4008761636	-0.0155793895	-0.6539744011	 0.089507
H	 3.9669604751	-1.2656034594	 1.2840115168	 0.227312
H	 2.6743869625	-2.3236788762	-0.3927717725	 0.099014
H	-0.728447286	-0.708258048	 0.3799766488	 0.094066
