17
gdb 71772	3.28269	1.90855	1.67291	1.7186	69.21	-0.2027	0.0794	0.2821	864.3677	0.137554	-421.796908	-421.79048	-421.789535	-421.827317	27.001	
C	 0.0319540608	 1.4753844071	-0.0298835975	-0.485109
C	-0.034293255	-0.0219853216	-0.0016151661	 0.403451
O	 0.9205322628	-0.6403535343	-0.840827414	-0.279463
C	 0.5164037124	-1.9692484718	-1.0412120569	 0.034154
C	 0.1510634285	-2.7393352682	 0.1946097078	 0.045489
O	 0.2564365874	-2.0405142556	 1.4088861561	-0.24327
C	-0.3936021562	-0.807142411	 1.2305918298	 0.007778
C	-1.3169769099	-0.8558046671	 0.0133512766	-0.208922
C	-0.9540354712	-2.143956488	-0.674494832	-0.164039
H	 1.0175703362	 1.8237980349	 0.2948314516	 0.134907
H	-0.1515463704	 1.8528617667	-1.0408349755	 0.12928
H	-0.7190690137	 1.9031810644	 0.6402671788	 0.121286
H	 0.9932198907	-2.4373456407	-1.8941149605	 0.104169
H	 0.3451108198	-3.8005294689	 0.2940280664	 0.105339
H	-0.6430237714	-0.3202090202	 2.1665044161	 0.102785
H	-2.3174460672	-0.4472152277	-0.0194334946	 0.094528
H	-1.6732374433	-2.717761878	-1.241274316	 0.097635
