20
gdb 89439	2.81389	1.61952	1.35898	2.4777	76.94	-0.2189	0.0691	0.288	1026.5719	0.171931	-403.10978	-403.101834	-403.10089	-403.141634	32.166	
C	-0.3174609784	 1.5396235501	 0.0744801709	-0.403541
C	 0.0194976988	 0.0495438439	-0.0589439395	 0.000305
C	 0.7920120546	-0.3618390676	-1.3502829282	-0.299017
C	 2.174127001	-0.7996081164	-0.8462419905	 0.387588
O	 2.9383919947	-1.5736106347	-1.7268992651	-0.495772
C	 2.8538612682	 0.3691320334	-0.0895633955	-0.211683
N	 2.3236836037	-0.1200997371	 1.2317714892	-0.15637
C	 0.8877607436	-0.5106552928	 1.067330156	-0.024161
C	 1.9341601294	-1.4121391143	 0.5600747876	-0.100096
H	 0.5775536077	 2.167629725	 0.0537454545	 0.126124
H	-0.9763464582	 1.8646904059	-0.737413505	 0.113448
H	-0.8329181375	 1.7356413674	 1.0206322227	 0.118305
H	-0.9275177045	-0.5028061787	-0.0274445971	 0.080809
H	 0.305174517	-1.2064022775	-1.8493792182	 0.103137
H	 0.866038725	 0.4609609848	-2.0720436385	 0.088379
H	 2.9822070699	-1.1171693894	-2.5738272212	 0.279387
H	 3.9408615198	 0.255492186	-0.0744256947	 0.113428
H	 2.5940754025	 1.3989256856	-0.3595482704	 0.088167
H	 0.4256762224	-0.6894203397	 2.0336069148	 0.093526
H	 2.2303529402	-2.3897374539	 0.9207571283	 0.098035
