21
gdb 85660	2.53104	1.22358	0.90938	0.6283	91.76	-0.2339	0.0242	0.2582	1356.306	0.181125	-349.947959	-349.938338	-349.937394	-349.982183	36.532	
C	-0.1289933447	 1.5640419358	-0.0415349207	-0.398223
C	 0.0126672862	 0.0389193715	 0.0167956203	-0.014198
C	 0.8026302709	-0.5588504954	-1.1738427281	-0.230109
C	 1.5701499301	-1.781866541	-0.5929893296	-0.260182
C	 2.8581773724	-2.027514209	-1.2327931835	 0.327644
C	 3.9222388555	-2.2198884673	-1.7594872992	-0.47241
C	 1.6479498457	-1.4521521243	 0.9018802077	 0.319646
C	 2.5363011485	-2.2216680016	 1.8246392475	-0.493321
C	 0.7910457522	-0.4772572046	 1.2054368626	-0.176415
H	 0.8547554671	 2.0459032275	-0.0507620361	 0.117045
H	-0.6667305781	 1.8753157407	-0.9434856647	 0.112898
H	-0.682170208	 1.9444843903	 0.8237955065	 0.111556
H	-1.0016479069	-0.3907435571	 0.0403609234	 0.076306
H	 0.1717520451	-0.8283397259	-2.0245249458	 0.101334
H	 1.5351167133	 0.1749724141	-1.5250837449	 0.112426
H	 0.9615777779	-2.6930750164	-0.7108154821	 0.104818
H	 4.8591637975	-2.3922118098	-2.228213468	 0.19237
H	 3.5823053908	-2.1591727066	 1.5039320478	 0.139491
H	 2.4619446573	-1.8526680426	 2.8508990811	 0.120476
H	 2.2761771946	-3.2884543027	 1.8258891906	 0.124379
H	 0.6232696826	-0.1041497456	 2.2115963752	 0.08447
