21
gdb 107852	3.35035	1.35098	1.29086	1.302	81.9	-0.2587	0.0734	0.3321	1084.4205	0.184878	-387.054076	-387.04648	-387.045536	-387.08602	31.133	
O	-0.0670861621	 1.3847417603	-0.0582192215	-0.424803
C	-0.0154719219	-0.0354630921	 0.020901613	-0.208319
C	-1.4271920293	-0.5546719492	-0.009488559	 0.363791
C	-2.3328380825	-0.4165066277	-1.2670250158	-0.26906
C	-3.0808794623	-1.6015288534	-0.6441079405	-0.028427
C	-3.3906032062	-1.2872102837	 0.8881042219	-0.043061
C	-2.498647484	-2.5012746049	 1.2639163097	-0.239962
C	-1.7466226128	-2.1197673221	-0.0190943448	-0.084266
C	-2.4099487567	-0.1156564464	 1.1007977044	-0.237707
H	 0.8345056219	 1.7188744114	-0.0498459523	 0.287105
H	 0.5572007955	-0.4576629188	-0.8212093272	 0.080026
H	 0.4792853701	-0.3645848098	 0.9506143447	 0.081418
H	-2.8437367583	 0.5373833627	-1.4281941188	 0.093954
H	-1.8169962016	-0.7196419195	-2.184221282	 0.088031
H	-3.7769135404	-2.2451419518	-1.18117979	 0.061418
H	-4.4089384289	-1.1860701367	 1.2629704296	 0.057504
H	-1.9857780617	-2.4837257976	 2.2317721143	 0.084266
H	-3.0142579176	-3.4583468217	 1.1377807298	 0.093397
H	-1.05085437	-2.7733435184	-0.5463117878	 0.0586
H	-1.9722578561	-0.1149397289	 2.1042303569	 0.085409
H	-2.8300458652	 0.8737944883	 0.9065927852	 0.100687
