21
gdb 75155	2.547	1.19486	1.10489	2.6121	84.84	-0.2333	-0.0173	0.216	1259.6151	0.180872	-387.127862	-387.118356	-387.117412	-387.162373	35.461	
C	-0.4930781087	 1.4365088019	 0.1180784166	-0.493119
C	-0.0736936172	 0.0066640976	-0.0153734352	 0.34101
C	-0.1699026515	-0.7739059904	-1.09287866	-0.158461
C	 0.3844296451	-2.1574922141	-0.8753186065	-0.307746
C	 0.6346977791	-2.2181526339	 0.6539986066	 0.216851
C	 1.9480111291	-2.9142324201	 1.0501108118	-0.458663
C	 0.580202435	-0.7321546798	 1.1330609461	-0.361635
C	-0.4947449095	-2.9652635346	 1.3587360776	 0.141782
O	-1.3984697777	-3.5572382263	 0.8306504668	-0.251151
H	 0.3579430536	 2.0777799694	 0.3825167483	 0.122938
H	-0.9272171826	 1.8164447462	-0.8106216309	 0.125196
H	-1.2350393191	 1.561378584	 0.9172568183	 0.125161
H	-0.5838056617	-0.4579441702	-2.0450356345	 0.086032
H	-0.3089190906	-2.9469132071	-1.1831463846	 0.128701
H	 1.3159717218	-2.3093185742	-1.4374713061	 0.096254
H	 2.8023612117	-2.3633834349	 0.6447163996	 0.125161
H	 2.0659918593	-2.9594550484	 2.1389299825	 0.118292
H	 1.9891098623	-3.9380922272	 0.6640711524	 0.128217
H	 1.5891090305	-0.3429551348	 1.3320579163	 0.103192
H	 0.0281066358	-0.6177522441	 2.0773466842	 0.098445
H	-0.4130155747	-2.927995699	 2.4720525308	 0.073542
