14
gdb 48401	2.39729	1.73923	1.23225	3.8999	66.41	-0.2755	-0.0608	0.2147	992.6687	0.098896	-436.643828	-436.635982	-436.635038	-436.676453	28.582	
O	-0.1360087998	 0.0909204492	-0.4185668457	-0.233841
C	 0.0277355544	 1.1473908172	 0.1227687319	 0.128344
C	 1.3248019428	 1.9563818179	 0.0036951845	 0.169346
O	 2.4569366629	 1.2139802472	-0.4786716648	-0.298555
C	 2.6079714042	 2.1139797452	-1.5918878363	 0.111571
C	 1.4158326544	 2.0474037196	-2.481304777	-0.313919
C	 1.3704481145	 2.8997522952	-1.2266598234	-0.17478
C	 1.6214236634	 2.6394359666	 1.266259424	 0.261036
N	 1.8126171045	 3.1816809335	 2.268394817	-0.315979
H	-0.7658981185	 1.6550828842	 0.7112033162	 0.11304
H	 3.6131705162	 2.41255583	-1.8589412578	 0.12859
H	 1.4794655086	 2.632506846	-3.3934564366	 0.134
H	 0.8503735682	 1.123975381	-2.5504683217	 0.156979
H	 1.1698023742	 3.9605129673	-1.2001951202	 0.134169
