22
gdb 113759	2.84311	0.89998	0.85934	3.8402	84.31	-0.2357	0.0286	0.2643	1503.4855	0.193134	-404.363286	-404.353017	-404.352073	-404.399047	36.926	
C	-0.225845755	 1.6181036636	 0.0856536462	-0.374836
C	-0.2084582965	 0.1544264103	 0.5423804233	-0.202489
C	-1.4657779467	-0.5937250441	 0.1480042222	 0.0055
C	-1.6179004808	-1.1100863214	-1.2623219796	-0.318191
C	-1.4752345531	-2.086390746	-0.1213380414	-0.010836
N	-0.2875399603	-2.875337956	 0.0265740902	-0.042697
C	 0.1236725861	-3.2220726109	 1.3798620011	-0.347101
C	 0.2736835718	-3.5395561139	-1.0310281276	 0.150855
O	 1.1919417489	-4.3294343167	-0.9573855185	-0.342892
H	 0.6896050455	 2.1358224956	 0.3878141376	 0.115143
H	-0.3110341946	 1.6897607379	-1.0035472287	 0.119341
H	-1.0738384521	 2.1587324075	 0.5200823911	 0.115034
H	 0.6640428977	-0.3550509417	 0.1179202074	 0.108244
H	-0.0880922033	 0.117593787	 1.6326804857	 0.099779
H	-2.3739676632	-0.2202407215	 0.6151037006	 0.087092
H	-2.5781704507	-1.0485182824	-1.7612735885	 0.120773
H	-0.7656383089	-0.9789101872	-1.9201643521	 0.125996
H	-2.385250507	-2.6060416608	 0.1803348916	 0.095761
H	-0.6872008606	-3.7338452403	 1.9139566855	 0.121212
H	 0.9825663281	-3.889043467	 1.3072516477	 0.166413
H	 0.3963803215	-2.3251387662	 1.9430430798	 0.127979
H	-0.2039221569	-3.2613206657	-1.9871843038	 0.079919
