13
gdb 21585	4.09466	1.87515	1.28707	4.3668	64.4	-0.2286	-0.0285	0.2	869.8051	0.09775	-394.813393	-394.806869	-394.805925	-394.843748	25.544	
N	-0.0578217463	 1.4090304615	-0.0836743989	-0.593158
C	 0.0336716701	 0.0385785647	-0.0429599122	 0.356408
C	-1.1327962734	-0.7645739308	-0.0157534842	-0.036767
N	-1.1163734202	-2.0836198923	-0.020743747	-0.19988
N	 0.0437059395	-2.737593585	-0.055395326	-0.318099
C	 1.1728989762	-2.0327212799	-0.0820906981	 0.476598
O	 2.316548527	-2.7419742819	-0.1139065223	-0.414723
C	 1.2425410367	-0.6404375198	-0.0752113554	-0.301367
H	 0.76205228	 1.9366552616	 0.1711856617	 0.259655
H	-0.9235510825	 1.8210249901	 0.226070394	 0.261291
H	-2.1168842485	-0.3031995922	 0.0102159411	 0.102113
H	 2.0440791435	-3.6721367335	-0.1114290128	 0.301261
H	 2.201239218	-0.1355011025	-0.0965795699	 0.106667
