17
gdb 72774	2.7808	1.77128	1.48951	1.7146	73.34	-0.2472	-0.0111	0.2361	933.369	0.136401	-421.777712	-421.770511	-421.769567	-421.808907	29.26	
O	-0.2705399918	 1.4593799753	-0.1567348123	-0.483601
C	-0.0096170364	 0.0698331715	-0.067060812	 0.361923
C	-1.1886437338	-0.627707533	 0.6841187254	-0.261863
C	-0.3464195247	-0.5686700384	 2.0177762698	-0.315003
C	 0.840190843	-0.3995120646	 1.0954174316	 0.181046
C	 1.9560379671	-1.0281565843	 0.7105847397	-0.229902
C	 2.0084087096	-1.0305843717	-0.7883379513	 0.006548
O	 0.9478816738	-1.859106094	-1.3407026984	-0.24946
C	 0.7317417671	-0.4565272779	-1.2885212598	-0.076535
H	 0.5775800782	 1.9173729515	-0.1717248194	 0.280116
H	-2.1261055403	-0.069404596	 0.6718244696	 0.116409
H	-1.333759559	-1.6517117191	 0.3394634525	 0.130333
H	-0.5900592333	 0.3282834057	 2.5926720054	 0.122929
H	-0.3565098664	-1.440320396	 2.6744967737	 0.11419
H	 2.6099704862	-1.6388938929	 1.3223067766	 0.106259
H	 2.9300543286	-1.0449848434	-1.3620967103	 0.100254
H	 0.639878452	 0.0580355574	-2.2423133509	 0.096357
