19
gdb 38093	2.89345	1.91028	1.3718	0.2284	84.39	-0.2238	0.0163	0.24	969.6126	0.162271	-348.763128	-348.756407	-348.755463	-348.793831	28.568	
C	-0.1011369138	 1.4044136201	 0.1257346072	-0.356397
C	 1.3125736113	 0.8542217507	-0.0080488824	-0.111963
C	 2.0464254762	 0.5356347751	 1.2500235443	-0.075225
C	 1.456386441	-0.4469998566	 1.9363061036	-0.102908
C	 0.2141239702	-0.9573953794	 1.228774019	-0.145899
C	 0.259592076	-2.3463705234	 0.6221632695	-0.076068
C	-0.020347755	-2.3336443327	-0.6810253822	-0.064992
C	-0.2959516353	-0.9415237042	-1.2118106046	-0.367833
C	 0.105494054	-0.0698027017	-0.0281299093	 0.351331
H	-0.4119816214	 1.7956243736	 1.0901404103	 0.106403
H	-0.4966831119	 1.9446997362	-0.7295755563	 0.106944
H	 1.8629399819	 1.0890682324	-0.9139508424	 0.083309
H	 2.9431904906	 1.0628840375	 1.5571620661	 0.092487
H	 1.7755387567	-0.8214640993	 2.9027082833	 0.090007
H	-0.6589858068	-0.8711296361	 1.8948747376	 0.082524
H	 0.4688587778	-3.2333366398	 1.2099907761	 0.090075
H	-0.0781919614	-3.2135778164	-1.3125979935	 0.090308
H	 0.2773764814	-0.7138550625	-2.1190976592	 0.103539
H	-1.3568057515	-0.8239310933	-1.479459147	 0.104358
