16
gdb 105585	1.95308	1.62515	1.29935	2.5853	71.88	-0.2629	0.0056	0.2685	1061.1419	0.123	-437.837323	-437.828587	-437.827643	-437.870742	32.3	
O	-0.0250004104	 1.4583251357	 0.176399125	-0.411277
C	 0.0059182875	 0.0804953237	-0.0767277725	-0.096371
C	-1.4218644664	-0.5208935425	-0.080637529	-0.091326
C	-1.5238016442	-2.0566561433	 0.1568043298	-0.125778
O	-2.0642038429	-1.8203384043	 1.4974837512	-0.251041
C	-2.0000986203	-0.4625867937	 1.3324939902	 0.437299
N	-2.229771502	 0.4923768475	 2.1122086764	-0.555834
C	-2.253815572	 0.0102446213	-1.1418134034	 0.315593
C	-2.9373807036	 0.4188373385	-2.0410456085	-0.444969
H	-0.5535929739	 1.5966770895	 0.976556888	 0.304035
H	 0.4701810866	-0.0615100972	-1.0574630773	 0.120487
H	 0.60451618	-0.4697636497	 0.6687965005	 0.089993
H	-2.2436862993	-2.5808225002	-0.4718921646	 0.139479
H	-0.5757631942	-2.5967674552	 0.2115771259	 0.128694
H	-2.5415221087	 0.1808344082	 3.0328936363	 0.237577
H	-3.5423285063	 0.8003079717	-2.8263183279	 0.20344
