14
gdb 1805	4.01941	2.63719	1.83615	2.8545	54.03	-0.2395	0.0291	0.2686	691.9702	0.113142	-361.734611	-361.727506	-361.726562	-361.765369	26.859	
N	-0.0496126434	 1.2991150184	 0.1834851674	-0.540149
C	 0.0425226583	-0.0451229365	-0.0261480109	 0.34408
O	 1.0919586782	-0.6343246831	-0.2152102402	-0.378989
C	-1.2877444908	-0.7573473791	-0.0225309079	 0.288792
O	-2.4268639708	 0.0506220891	 0.1414514415	-0.470053
C	-1.3937056104	-2.0237283574	-0.8409909579	-0.30729
C	-1.3252030538	-2.1032886763	 0.6586244266	-0.273907
H	 0.8069202731	 1.8052120244	 0.3384465782	 0.259989
H	-0.9161613328	 1.6743466927	 0.5322816376	 0.26353
H	-2.6809754297	 0.3805791262	-0.7278063592	 0.288861
H	-2.3522713581	-2.2107906845	-1.3122802149	 0.11409
H	-0.5138905313	-2.3059064619	-1.4062373181	 0.144749
H	-0.4020497029	-2.4483864716	 1.1076432205	 0.140836
H	-2.2384618755	-2.3278845005	 1.1966748974	 0.125461
