18
gdb 30590	4.51494	0.98995	0.82008	1.8135	83.5	-0.2225	-0.0347	0.1878	1389.9911	0.148605	-402.022885	-402.014227	-402.013283	-402.057195	31.648	
C	-0.0224435198	 1.5995017375	 0.0089926726	-0.377741
C	 0.0150598354	 0.0731300909	 0.0214335792	-0.289387
C	 0.7370559781	-0.4969178785	 1.2352486544	 0.290244
O	 1.2286582701	 0.2217268662	 2.094431585	-0.37096
C	 0.8315289545	-1.9489521653	 1.3519769927	 0.246373
C	 0.3959405314	-3.0176836263	 0.5771174085	-0.234299
C	 0.7977127192	-4.2052369004	 1.2253652824	-0.148148
C	 1.4689050632	-3.8346624066	 2.3804042217	-0.070381
N	 1.4811576834	-2.4801203723	 2.4421581704	-0.272704
H	 0.9884295285	 2.0146555605	 0.0089272908	 0.130447
H	-0.5483029454	 1.9643764108	-0.8777709793	 0.106206
H	-0.5299431951	 1.9846349524	 0.8968921594	 0.130345
H	-0.9992065707	-0.346899286	 0.002421766	 0.123803
H	 0.5072993173	-0.3169295911	-0.8792015348	 0.123912
H	-0.1500138709	-2.9425515451	-0.3506958352	 0.104041
H	 0.6221907688	-5.2173824726	 0.89548427	 0.103658
H	 1.9302505743	-4.4355166125	 3.1482865067	 0.128837
H	 1.8865409977	-1.8887655916	 3.1504329093	 0.275754
