14
gdb 131930	4.40015	1.1182	0.89661	7.542	69.66	-0.2539	-0.0657	0.1882	1216.8675	0.10145	-469.97154	-469.963701	-469.962756	-470.004773	27.795	
C	-0.0323185049	 1.4643043847	 0.0153689905	-0.501717
C	 0.0033041309	-0.0249313886	-0.0455324903	 0.357112
N	-0.0243205385	-0.7564796751	-1.135309065	-0.312954
C	 0.0270852615	-2.0458543061	-0.6965815563	 0.346733
C	 0.0870160236	-2.1289131899	 0.6702750682	-0.125634
N	 0.0710874504	-0.8228908163	 1.0757163642	-0.281129
N	 0.0182095886	-3.1771721118	-1.591822461	 0.34366
O	-0.0366217588	-2.9660842427	-2.7921716281	-0.344181
O	 0.0679554102	-4.2868373307	-1.0603101953	-0.388695
H	 0.8619565669	 1.870752837	 0.500636272	 0.141826
H	-0.0814298789	 1.8517956803	-1.0023953564	 0.172573
H	-0.9062852218	 1.8256451351	 0.5686072978	 0.142022
H	 0.1367601485	-2.9673119677	 1.341503543	 0.173398
H	 0.1036817623	-0.5051467883	 2.0313505767	 0.276986
