19
gdb 97949	9.97144	0.38891	0.38523	1.2255	92.13	-0.2394	0.0326	0.272	2784.7221	0.155674	-385.832471	-385.820889	-385.819945	-385.87358	37.737	
C	 0.0288037149	 1.4689227635	 0.0878508143	-0.496883
C	-0.0195419223	 0.0161190057	 0.1733722867	 0.097931
C	-0.047589929	-1.1851190548	 0.2533245923	 0.031994
C	-0.1169031681	-2.6394535724	 0.3260445908	-0.341738
C	-1.3273095558	-3.2131845361	-0.4586572021	-0.344264
C	-1.4018487001	-4.6667001728	-0.3910185398	 0.025542
C	-1.4379574521	-5.8673470685	-0.3101196494	 0.140748
C	-1.4842341979	-7.3219331385	-0.2435036974	-0.215646
O	-2.1372158722	-7.728262361	 0.9542841142	-0.409456
H	 0.952347211	 1.8102512956	-0.3929137441	 0.146714
H	-0.8113500092	 1.8613680969	-0.4958839455	 0.146749
H	-0.0165680711	 1.9289336563	 1.0812688233	 0.147327
H	 0.8034134456	-3.084552715	-0.0703286541	 0.13452
H	-0.1881124628	-2.9658931198	 1.3702052589	 0.13928
H	-2.2492323617	-2.7720838693	-0.062152748	 0.141342
H	-1.259537881	-2.8888226512	-1.5037599288	 0.137814
H	-2.0106737396	-7.7059652246	-1.1328578203	 0.115324
H	-0.4562608386	-7.7179192139	-0.2889187153	 0.114107
H	-2.1490502702	-8.6908637901	 0.9605906143	 0.288595
