14
gdb 4711	6.60634	1.27592	1.0713	5.9825	73.32	-0.1981	-0.0304	0.1678	1028.829	0.108618	-378.772028	-378.764693	-378.763748	-378.803466	27.151	
N	 0.1179040864	 1.3865016693	 0.1433009049	-0.602308
C	-0.024919522	 0.0056060062	 0.0344890299	 0.336249
C	-1.1683095269	-0.7895913761	 0.0014681473	-0.207475
C	-0.7416276953	-2.1303777778	-0.0185983531	-0.179698
C	 0.6454007857	-2.1461927056	-0.004722656	 0.20837
N	 1.0579459808	-0.8132571179	 0.0280325475	-0.350049
C	 1.5861570927	-3.2356943515	-0.031071112	 0.063065
O	 1.299881818	-4.4177430656	-0.0491881062	-0.298215
H	 0.7984760139	 1.7837415387	-0.4934192182	 0.25245
H	-0.7642501239	 1.8690161468	 0.0404162166	 0.259633
H	-2.1832989086	-0.423147372	-0.019635897	 0.095976
H	-1.3583060092	-3.0145725142	-0.0591995961	 0.125501
H	 2.0116471482	-0.5098293224	 0.1356898623	 0.262406
H	 2.6556234103	-2.9072793377	-0.0326794698	 0.034094
