20
gdb 67244	3.07662	1.58469	1.34069	1.5973	83.55	-0.2189	0.0914	0.3103	1044.7032	0.171278	-365.926307	-365.918549	-365.917604	-365.958048	31.585	
C	-0.0118732881	 1.5409203368	-0.0453671135	-0.525499
C	-0.0342194505	 0.0539272762	-0.0299819817	 0.385754
C	-0.0116720602	-1.0409419734	-1.056757985	-0.146382
C	 1.2141299866	-1.6248989289	-0.3788613086	-0.178697
N	 0.8468463032	-0.8583344321	 0.8821007941	-0.25109
C	-0.4261017512	-1.5428818774	 1.2703643829	 0.439477
C	-0.499659509	-2.8340764101	 2.0128480055	-0.352639
C	-0.9158267599	-1.5272660241	 2.6781084394	-0.355592
C	-1.1033039995	-1.0010852939	 0.0450837418	-0.234637
H	 0.9779448496	 1.9220648957	-0.3198375224	 0.128413
H	-0.7351821418	 1.9233935501	-0.7734455016	 0.12418
H	-0.2705415589	 1.9505435465	 0.9369810435	 0.131474
H	-0.2713485971	-0.9799068546	-2.1072500871	 0.086596
H	 1.294358241	-2.7078761761	-0.2369363642	 0.098561
H	 2.1505997854	-1.231257464	-0.7829765259	 0.102441
H	-1.272207224	-3.5476821179	 1.7457211337	 0.11208
H	 0.435128518	-3.2806220216	 2.336713777	 0.117492
H	-0.2507198596	-1.1174417548	 3.4302965371	 0.121779
H	-1.9721245793	-1.3567155916	 2.8600115747	 0.108946
H	-2.1560548047	-0.9123476247	-0.1947626096	 0.087343
