23
gdb 82302	2.18024	1.69277	1.3264	1.3256	84.03	-0.2233	0.078	0.3013	1119.246	0.204988	-388.290809	-388.281593	-388.280649	-388.323956	36.877	
C	-0.6903898164	 1.209668731	-0.0254145621	-0.401454
C	 0.0365461829	-0.1321351659	-0.1570232095	-0.04335
C	 1.0740682333	-0.1941422767	-1.2700270296	-0.072817
C	 2.3915007234	 0.5454984418	-1.0916812813	-0.33121
C	 2.2577812655	-0.9046645721	-0.6987725204	 0.101328
O	 2.0427263791	-1.2169747009	 0.6477550098	-0.301015
C	 0.8011066672	-0.6383466526	 1.1226495777	 0.364639
C	 1.1483489818	 0.4532486489	 2.1445220353	-0.415391
C	 0.0292674508	-1.7637493811	 1.8183543011	-0.4147
H	 0.003014152	 2.0357475297	 0.1547917105	 0.117886
H	-1.2347381168	 1.4325642844	-0.948657207	 0.113197
H	-1.4207119827	 1.195672634	 0.7905698966	 0.112955
H	-0.7198621045	-0.8900189576	-0.3967396963	 0.073559
H	 0.7232644008	-0.3838958272	-2.2784212506	 0.085622
H	 2.9487204007	 0.7681361386	-1.9960483744	 0.109026
H	 2.4933665923	 1.2904533965	-0.3112878364	 0.114704
H	 2.8158459364	-1.6758865145	-1.2182795039	 0.0941
H	 1.6916085073	 1.2875430232	 1.6959077286	 0.115551
H	 0.2487557232	 0.8510895023	 2.6237596717	 0.111321
H	 1.785188239	 0.0209629358	 2.9214254984	 0.121628
H	 0.5969233314	-2.1497116645	 2.6701943309	 0.118691
H	-0.9378693371	-1.4033962216	 2.1855158232	 0.109401
H	-0.1478705997	-2.5887484813	 1.1226140177	 0.116327
