19
gdb 78044	2.79056	1.251	1.10465	2.4653	77.12	-0.234	-0.0102	0.2238	1187.8336	0.156774	-423.019088	-423.009924	-423.00898	-423.052442	34.968	
C	-0.0651995998	 1.4952908478	 0.0466626735	-0.405598
C	-0.0091012665	-0.0289493917	-0.0543585359	-0.143284
C	 0.775603086	-0.5784081364	-1.2587741677	-0.091844
C	 1.8644502582	-1.1894281714	-0.3103416083	-0.25744
C	 1.1167613578	-0.6186746915	 0.8475659031	 0.405658
O	 1.36959467	-0.4745242477	 2.0125968195	-0.333513
C	 0.9457321428	-2.0468835703	-1.209058082	 0.396786
C	-0.058352416	-3.0394887935	-0.6666286802	-0.466754
O	 1.61567136	-2.5075459379	-2.3527794299	-0.465349
H	 0.9215105356	 1.9398211107	-0.1204661491	 0.123765
H	-0.7561030971	 1.9120099098	-0.692737242	 0.119296
H	-0.4029740943	 1.7928629076	 1.0429724144	 0.137279
H	-1.0086038435	-0.4516053536	 0.0897217245	 0.090481
H	 0.9677436606	-0.0317664468	-2.1733694342	 0.110345
H	 2.937562808	-1.2730757463	-0.4310806257	 0.107782
H	-0.5740305975	-2.6699197789	 0.2215123131	 0.137173
H	-0.8028012449	-3.2774885667	-1.4330843993	 0.132319
H	 0.4481620483	-3.9702024789	-0.3840685864	 0.116712
H	 2.0443427122	-3.3418265143	-2.1308371973	 0.286185
