16
gdb 44075	3.21874	1.69598	1.50647	3.6805	69.14	-0.2438	0.0034	0.2472	903.9322	0.126194	-437.804281	-437.797867	-437.796923	-437.834836	26.632	
O	-0.1089354255	 0.0669478985	 0.0856116952	-0.351845
C	 0.0406670229	 1.2513905467	 0.0681842246	 0.457891
O	-0.9697259132	 2.1697617505	 0.1407570908	-0.280326
C	-0.2545083866	 3.47139993	 0.0748949303	 0.366071
C	-1.0861883479	 4.2881071914	-0.9424681616	-0.257802
N	-0.3478256168	 3.5383843242	-2.0627072374	-0.368268
C	 0.7339210897	 3.25915076	-1.0229529915	 0.024316
C	 1.2635956174	 2.131567768	-0.0401022162	-0.24728
C	 0.8798217882	 3.218455296	 1.1052648238	-0.330863
H	-2.1687848016	 4.1525689826	-0.9181262012	 0.133883
H	-0.827665115	 5.3478721504	-0.9819251481	 0.128961
H	-0.8781615561	 2.6928168705	-2.2626196305	 0.243239
H	 1.4854329058	 4.0449452413	-1.1114018339	 0.110471
H	 2.2347094477	 1.6476680256	-0.1066294192	 0.108415
H	 1.6150502978	 4.0208650946	 1.1715501185	 0.129448
H	 0.6220754132	 2.8281516398	 2.0919591164	 0.133688
