23
gdb 93677	2.17432	1.58835	1.23479	1.9046	81.03	-0.2369	0.0584	0.2953	1162.4915	0.2041	-425.443208	-425.433091	-425.432146	-425.477382	38.75	
C	 0.9039297902	 1.4654370382	-0.3500847466	-0.396287
C	 0.0992358846	 0.2173138995	 0.0023815445	 0.126511
O	 0.1491690615	-0.691707421	-1.1120315957	-0.278941
C	 0.7036752372	-1.9319674446	-0.7167284893	-0.094509
C	 1.4774518037	-1.6830321432	 0.5868811481	 0.340966
C	 1.6687587158	-2.9408055701	 1.432276333	-0.455431
O	 2.7429930799	-1.069942973	 0.3194791579	-0.464745
C	 0.5863427782	-0.5982885363	 1.2296250137	-0.015501
C	 1.2282651724	 0.1981547709	 2.3635727339	-0.421592
H	 1.9607729535	 1.2200309293	-0.4708949109	 0.135534
H	 0.5296729395	 1.8786219243	-1.2912552511	 0.11597
H	 0.8001359625	 2.2345627744	 0.4221908463	 0.104069
H	-0.9512546859	 0.505558035	 0.1496277821	 0.06606
H	-0.0868674759	-2.6832694601	-0.5548633534	 0.080387
H	 1.3567520907	-2.3008713223	-1.5181388333	 0.087249
H	 2.2500764951	-3.6920091933	 0.883375148	 0.106792
H	 2.2145584334	-2.7037476339	 2.3495843774	 0.129183
H	 0.7106429421	-3.3951500542	 1.702131188	 0.118371
H	 3.275729306	-1.6938503056	-0.1842773178	 0.277602
H	-0.288373635	-1.1263354252	 1.6297223588	 0.073583
H	 2.1516849103	 0.6802451663	 2.0393438171	 0.142159
H	 0.5443275941	 0.9692665588	 2.7328963535	 0.111573
H	 1.4693832559	-0.4553417839	 3.2081947355	 0.110998
