17
gdb 77742	2.07451	1.5214	1.48941	4.0804	69.27	-0.2306	-0.0175	0.2131	1033.1102	0.134327	-458.948773	-458.940104	-458.93916	-458.981698	32.931	
C	-0.0267333162	 1.54236617	 0.0255643185	-0.502973
C	 0.0267181191	 0.0426106878	-0.0014143336	 0.259072
C	-0.8404747049	-0.8319883343	 0.8157277904	 0.049403
O	-1.5852013032	-1.8546364043	 0.1963607269	-0.428225
C	 0.6557178223	-0.9575464129	 1.0475450288	-0.307571
C	 1.2212552161	-1.7609372633	-0.0886708001	 0.383119
O	 1.9444809563	-2.7141807417	-0.1454967115	-0.320017
C	 0.6318164087	-0.7887911531	-1.1585732372	-0.024278
O	-0.1884135617	-1.2301743174	-2.1950795876	-0.431425
H	 0.95735387	 1.9773326094	-0.1778031052	 0.129643
H	-0.7189162262	 1.9113575898	-0.7395102598	 0.142856
H	-0.3699897011	 1.9171179321	 0.9949655624	 0.123497
H	-1.3725114976	-0.3355651849	 1.6278370025	 0.106736
H	-1.5665662851	-2.6355092438	 0.76090709	 0.300217
H	 1.1011358414	-0.7835441651	 2.0196775294	 0.111745
H	 1.4721566951	-0.2516091086	-1.6161097068	 0.113075
H	-0.904524363	-1.7279987295	-1.778067687	 0.295126
