14
gdb 2515	2.99604	2.30106	1.38386	2.5765	58.27	-0.2805	-0.0514	0.2291	846.3506	0.111493	-324.603415	-324.595523	-324.594579	-324.636101	26.521	
C	 0.0656669842	 1.5189007784	 0.0848166797	-0.402638
C	 0.1667298196	-0.0031034248	-0.0203006476	-0.174675
C	 0.6738969827	-0.4860534723	-1.3931646961	-0.228357
C	 0.9699626021	-1.9982955352	-1.4258516946	 0.156066
O	 1.0602664579	-2.6701807057	-0.437181955	-0.221679
C	-0.2291132105	-0.1460565358	-2.4938116481	 0.265754
N	-0.9533061277	 0.0957728878	-3.3616131408	-0.312336
H	 1.0401299927	 1.9951534526	-0.0698569749	 0.119949
H	-0.6286242123	 1.9271408105	-0.6561090127	 0.142832
H	-0.2928238123	 1.8094554274	 1.076098099	 0.128365
H	 0.8530160536	-0.4030994351	 0.7308064969	 0.131027
H	-0.8060388379	-0.4665300719	 0.1729017525	 0.127823
H	 1.6398514003	-0.0027646126	-1.6154729111	 0.152941
H	 1.1192968577	-2.4175033933	-2.4425388374	 0.114927
