17
gdb 56771	2.90533	1.28311	1.04301	3.6489	71.68	-0.2465	0.014	0.2605	1150.2383	0.136121	-417.957031	-417.948509	-417.947565	-417.990615	31.475	
N	-0.2944960222	 1.5874069751	-0.1074252284	-0.494579
C	-0.0424608566	 0.1400475039	-0.0572664314	-0.258283
C	-1.3129713552	-0.5601966293	 0.202142954	 0.306321
N	-2.302964171	-1.1327940621	 0.364785911	-0.327007
C	 0.6370796815	-0.4502444951	-1.2760579922	 0.268537
C	-0.0621489375	-0.8371868503	-2.5672946705	-0.360719
C	 0.7587892254	-1.8522302261	-1.8341022734	 0.060833
O	 2.147540794	-1.699893927	-2.1323849872	-0.279908
C	 2.1419098272	-0.3740926453	-1.5447150665	-0.145688
H	 0.5949333094	 2.0744807898	-0.1682790049	 0.23993
H	-0.8077890929	 1.8105903486	-0.9562726961	 0.243148
H	 0.5971478924	-0.0380941054	 0.8178816728	 0.135194
H	-1.1367177377	-0.9665181931	-2.4781388296	 0.143303
H	 0.2877199102	-0.4556524014	-3.5226737446	 0.120757
H	 0.408010502	-2.8158188622	-1.4842522347	 0.127325
H	 2.5031009209	 0.3938121913	-2.2389128532	 0.11098
H	 2.7442894403	-0.3584088115	-0.6274840752	 0.109857
