22
gdb 122828	6.67176	0.50682	0.47916	2.0415	80.56	-0.2442	0.0181	0.2623	2332.5909	0.192479	-441.522792	-441.5114	-441.510456	-441.561622	38.525	
C	 0.0619686846	 1.5637662434	 0.0770140622	-0.380886
C	 0.0079040313	 0.0337248157	 0.0649567338	-0.167222
C	 0.7639509019	-0.5959198351	 1.2406049137	-0.185544
C	 0.7026133817	-2.1139127062	 1.2170412618	-0.062442
O	 1.4386619131	-2.6043796637	 2.3561363499	-0.243099
C	 1.4923231552	-3.940732798	 2.4972711268	 0.413314
O	 0.9718918656	-4.7249575087	 1.7430309595	-0.360631
C	 2.2972388286	-4.3271575765	 3.7368580514	-0.273121
N	 2.413372853	-5.7541585732	 3.9777439539	-0.485999
H	 1.0953272405	 1.9232421576	 0.0220727275	 0.116833
H	-0.484284185	 1.9876469527	-0.7710056872	 0.115009
H	-0.3797817651	 1.967701582	 0.9944907443	 0.116833
H	-1.0389096522	-0.2965431975	 0.0859699048	 0.100655
H	 0.4249901589	-0.3406649188	-0.8790811187	 0.100657
H	 1.8144605276	-0.2804647494	 1.2221772184	 0.106071
H	 0.3472040736	-0.2361917823	 2.1894668506	 0.106075
H	-0.3276680792	-2.4814543068	 1.2744654764	 0.119393
H	 1.14509664	-2.5259388727	 0.3036473332	 0.119419
H	 3.2943772017	-3.88098438	 3.6430936539	 0.137166
H	 1.8368172006	-3.8375438755	 4.6031379519	 0.137189
H	 1.4806447015	-6.1537354794	 4.041327101	 0.235165
H	 2.8225650622	-6.1937353974	 3.1573658609	 0.235164
