19
gdb 67828	2.99465	1.76202	1.44251	1.4534	78.19	-0.2216	0.0169	0.2385	958.831	0.161664	-385.890742	-385.883704	-385.88276	-385.921576	29.832	
O	-0.0674716992	 1.4023355909	-0.0350362968	-0.481398
C	 0.0091840494	 0.0090238355	-0.0647066468	 0.37964
C	 0.9180336681	-0.6635324951	-1.0457122531	-0.16015
C	 0.3932885078	-1.8170350536	-1.4610128781	-0.076153
C	-0.9070625911	-2.1288628875	-0.7316232049	-0.102881
C	-0.5922352147	-3.0737043897	 0.4625434988	-0.189158
C	 0.1662996861	-2.1686755905	 1.4683689664	-0.237122
C	-0.3832901432	-0.7645863234	 1.2045380023	-0.108614
C	-1.2577543986	-0.7964167076	-0.0317246285	-0.116066
H	 0.6374892176	 1.7290208865	 0.5339051727	 0.281378
H	 1.8749282663	-0.2457330504	-1.3373058478	 0.090239
H	 0.8733211216	-2.5313837165	-2.120908497	 0.093532
H	-1.6914618074	-2.5259137513	-1.3815412584	 0.069742
H	-1.5337833728	-3.4185502561	 0.9052672606	 0.096515
H	-0.0198027774	-3.9591667509	 0.1672793035	 0.091404
H	-0.0133560106	-2.4719568496	 2.503564798	 0.095892
H	 1.2469713444	-2.2225146111	 1.3006651999	 0.101066
H	-0.6790975804	-0.1400500206	 2.0412118322	 0.081876
H	-2.2364633157	-0.3370548593	-0.0850099829	 0.09026
