24
gdb 119983	1.97289	1.16566	0.85893	2.2855	87.54	-0.2141	0.075	0.289	1497.5876	0.215124	-405.507564	-405.496549	-405.495605	-405.543994	39.478	
C	 1.1939688409	 2.1535798676	-0.5289640245	-0.380292
C	 1.8315416488	 0.8523758669	-0.0435371365	-0.120103
N	 1.6003794037	-0.2085829001	-1.0185061038	-0.095728
C	 1.744566084	-1.618173542	-0.6604732365	-0.014301
C	 2.1602106361	-2.1014885675	 0.7154400512	-0.41637
C	 0.3960965753	-1.0426968601	-0.9691598419	-0.029472
C	-0.6857310623	-0.91428909	 0.0737255191	-0.083348
O	-1.5974396803	 0.0825553789	-0.3516715288	-0.2263
C	-2.7006922684	 0.2152198897	 0.512272069	-0.226852
H	 1.5852513985	 2.4256473072	-1.5132804855	 0.121166
H	 0.1103406455	 2.0331812461	-0.6115782154	 0.138898
H	 1.4033152432	 2.97016887	 0.1694977262	 0.101048
H	 2.9183190441	 0.9738700162	 0.0426541717	 0.098212
H	 1.4650904749	 0.6235106926	 0.9693878491	 0.076947
H	 2.2092759962	-2.2011745473	-1.4569335817	 0.085891
H	 1.6786571086	-1.5631130702	 1.5332332308	 0.11999
H	 1.9172956802	-3.1637587722	 0.8270043213	 0.121505
H	 3.2436584752	-1.9996987979	 0.8429212562	 0.124307
H	-0.0272471059	-1.2375481379	-1.954487153	 0.091454
H	-1.2073808296	-1.8828500176	 0.1708029678	 0.090519
H	-0.289837594	-0.6650047133	 1.0684934174	 0.086836
H	-3.2747138755	-0.7223301853	 0.586322242	 0.103869
H	-2.3938629282	 0.5083021161	 1.5291385923	 0.103056
H	-3.3473365812	 0.9938128702	 0.1008198333	 0.129068
