16
gdb 23115	2.61533	1.32051	1.02259	2.7157	68.91	-0.2422	-0.0357	0.2066	1155.5597	0.122894	-474.986829	-474.978328	-474.977384	-475.020588	30.578	
O	-0.1294869321	 1.3345989633	-0.1568734177	-0.384864
N	 0.0534908897	-0.0521444917	-0.0667947572	-0.219233
C	-1.0547782249	-0.6538991329	 0.086238306	 0.364663
C	-2.4581284303	-0.1113336713	 0.1809035733	-0.327314
C	-3.3011474265	-1.3970962344	 0.1116078001	-0.095433
O	-2.4535191641	-2.439157259	 0.6080160214	-0.242871
C	-1.1389314251	-2.1704381758	 0.188545974	-0.062047
C	-0.806106432	-2.7766441674	-1.1814826593	 0.143459
O	-1.6141999828	-3.2970989463	-1.9006092183	-0.232928
H	 0.7731508954	 1.6565571651	-0.2575308479	 0.311279
H	-2.5828114398	 0.4106477646	 1.1362469166	 0.140731
H	-2.6712763629	 0.6066326743	-0.614636337	 0.140803
H	-4.1914356139	-1.37304712	 0.7428252628	 0.118995
H	-3.6011175464	-1.617124758	-0.9199472894	 0.124831
H	-0.4329003554	-2.5746487568	 0.9238440191	 0.124682
H	 0.2638622209	-2.6623822037	-1.4655166665	 0.095247
