18
gdb 83575	2.6082	1.7513	1.66237	2.4456	70.07	-0.2444	0.022	0.2663	916.5977	0.151002	-439.105398	-439.098227	-439.097283	-439.136647	28.807	
O	-0.1034333928	 1.4088580669	 0.0659321842	-0.441168
C	 0.0024575463	-0.0027248931	 0.0133589843	 0.085291
C	 0.5237241695	-0.5905374818	 1.3362317222	 0.07436
C	-0.6167815033	-0.3135219686	 2.3311765227	-0.218753
C	-1.9072814693	-0.2628192656	 1.450902237	-0.207953
C	-1.4026203407	-0.6154877697	 0.0358909509	 0.008023
N	-1.2843474468	-2.0783299404	-0.1080332379	-0.272722
C	-0.2749414922	-2.6132491204	 0.4361765689	 0.118643
O	 0.7122935398	-2.0171110765	 1.1536010851	-0.24448
H	 0.78459006	 1.7803179767	 0.0577680638	 0.286951
H	 0.5882081039	-0.3375129293	-0.85218439	 0.078377
H	 1.4984409959	-0.2123719817	 1.6515979755	 0.077776
H	-0.6451213303	-1.0929632888	 3.0959034419	 0.113041
H	-0.4484158196	 0.6405743355	 2.8357033855	 0.11064
H	-2.6692307874	-0.9733628448	 1.7771841733	 0.109916
H	-2.3450397849	 0.7375894763	 1.4593221322	 0.114187
H	-2.0475149679	-0.235778334	-0.7583813568	 0.081356
H	-0.0972474201	-3.6847652307	 0.3705540073	 0.126515
