18
gdb 52999	3.3385	0.93774	0.84264	2.8169	84.42	-0.2226	0.0333	0.2559	1441.6598	0.146862	-401.882171	-401.873015	-401.872071	-401.917822	33.306	
C	 0.0015097838	 1.4791230001	-0.0812518157	-0.512291
C	-0.0214678518	 0.0268617497	-0.0031095322	 0.294323
C	-0.0401465963	-1.1776195964	 0.0615652163	-0.301304
C	-0.0300027877	-2.5925447727	 0.1720004246	 0.238819
N	-0.2256634692	-3.4907079151	-1.0124590952	-0.393768
C	-1.1396700428	-3.603761795	 0.1439063676	-0.11654
C	-0.4326090878	-4.502291846	 1.1536216066	-0.257939
C	 0.776189452	-3.4861845792	 1.1502140255	 0.08158
O	 2.0176021891	-3.9302184933	 0.6965106392	-0.435568
H	 0.782475955	 1.8936612697	 0.5657589305	 0.154738
H	 0.2037313956	 1.8204728776	-1.1026538811	 0.151089
H	-0.9542556996	 1.9137707669	 0.2324741991	 0.149357
H	-0.6861729536	-2.9312708675	-1.7290190482	 0.238651
H	-2.2014250585	-3.4249435638	 0.0288616762	 0.106108
H	-0.9332439028	-4.5477973208	 2.1232064757	 0.106091
H	-0.1979873533	-5.5115444259	 0.8067601867	 0.107196
H	 0.9279349598	-3.0140870833	 2.1224192537	 0.099043
H	 1.8760181181	-4.1953271249	-0.2230456795	 0.290414
