17
gdb 30760	2.93178	1.2959	0.93384	1.8356	72.95	-0.1883	0.0266	0.2149	1217.6185	0.13722	-455.153706	-455.144707	-455.143763	-455.187299	33.683	
N	 0.102759454	 1.3879583757	 0.1623643462	-0.618847
C	 0.0169433918	-0.0083332074	 0.0173860453	 0.176349
C	-1.0660377596	-0.8255160605	-0.1094121586	-0.112563
O	-0.6788806622	-2.133563303	-0.1351532783	-0.196568
C	 0.6874899982	-2.1506362489	-0.0365953229	 0.256782
C	 1.3862021352	-3.465250408	-0.0463839566	-0.185311
O	 2.4581025101	-3.5022486785	 0.9015739556	-0.412947
C	 1.1635212575	-0.8745162778	 0.068317301	 0.097386
N	 2.491326746	-0.4283039798	 0.1389024443	-0.628041
H	 0.7863140405	 1.7840594422	-0.4748709242	 0.249333
H	-0.7854952291	 1.8492857762	 0.0101721296	 0.242555
H	-2.1252907143	-0.6407563294	-0.1754732484	 0.118857
H	 0.6514675146	-4.2644443135	 0.1285465424	 0.112246
H	 1.8683299928	-3.6732101221	-1.0096525605	 0.123552
H	 2.0759928107	-3.2897796182	 1.7606425766	 0.282662
H	 3.1152042823	-1.1849580451	 0.3966005864	 0.250982
H	 2.5912706515	 0.3348436781	 0.7997704421	 0.243573
