17
gdb 5381	4.67634	1.47887	1.23125	2.3221	77.02	-0.2475	-0.0196	0.2279	1010.3308	0.144755	-326.794175	-326.786948	-326.786004	-326.826411	26.9	
C	-0.0787999227	 1.5605224803	-0.009007645	-0.366366
C	 0.0316659344	 0.0256930083	-0.009984173	-0.295067
C	 0.7313020082	-0.5111252357	 1.215502384	 0.271022
C	 2.1025175879	-0.7852341703	 1.2068586296	-0.059258
N	 2.7960383577	-1.2320861715	 2.2555948174	-0.26214
C	 2.1238152597	-1.4313516584	 3.3919244386	 0.000497
C	 0.7572229813	-1.1998418845	 3.5216335981	-0.111802
C	 0.0553916767	-0.7337148555	 2.4163375916	-0.15569
H	 0.91229932	 2.0235133559	 0.0253608653	 0.124956
H	-0.5903898013	 1.915573782	-0.9089807443	 0.115876
H	-0.6397787906	 1.914007372	 0.8621458967	 0.120468
H	-0.9723884483	-0.4093095018	-0.0775260192	 0.106008
H	 0.5722368864	-0.2973158117	-0.9068827192	 0.108462
H	 2.670937071	-0.6368840095	 0.2894127663	 0.099188
H	 2.7038723382	-1.7965961712	 4.2361949686	 0.105979
H	 0.2570447357	-1.3858094511	 4.4659039804	 0.099263
H	-1.0132512542	-0.5473965872	 2.4813244239	 0.098605
