14
gdb 15034	3.08236	1.77022	1.29723	4.0725	62.3	-0.2752	-0.0499	0.2253	924.4465	0.10555	-378.696517	-378.688568	-378.687624	-378.729607	27.325	
O	-0.8710051357	 1.4178702899	-0.7988536843	-0.213268
C	-0.1919794887	 1.3667051559	 0.185520702	 0.166502
C	 1.3333926795	 1.5898305141	 0.2147766317	-0.19857
C	 1.8178353225	 2.2297682641	-1.0194780481	 0.287675
N	 2.2495235998	 2.7791114123	-1.9397277366	-0.323759
N	 1.6688867362	 2.2644416967	 1.4635604847	-0.090268
C	 2.9840066798	 2.8812085453	 1.6153876099	-0.226437
C	 1.7638120697	 3.7254780178	 1.4849181468	-0.232352
H	-0.5911690438	 1.1376767445	 1.19465159	 0.115091
H	 1.7759352026	 0.582730475	 0.264172316	 0.159371
H	 3.4515911846	 2.7284657499	 2.5831381574	 0.132011
H	 3.6607118245	 2.8662023619	 0.7643406787	 0.143084
H	 1.638923121	 4.2640308804	 0.5486727833	 0.149037
H	 1.3224561381	 4.1989067322	 2.3560548084	 0.131882
