16
gdb 36071	4.33387	1.19269	1.11854	3.9386	75.27	-0.2395	0.0338	0.2733	1091.4125	0.124309	-363.513035	-363.50586	-363.504916	-363.545176	27.836	
N	-0.1444258716	-1.1201954961	 0.3022648356	-0.30748
C	-0.0776516733	 0.0151636237	 0.0989913599	 0.263572
C	 0.0277898298	 1.4543564729	-0.1659283319	-0.492051
C	 1.4407831076	 1.9559099839	-0.1065799401	 0.381711
C	 2.7086195862	 1.6256953237	-0.9557383315	-0.156802
C	 3.5893053876	 1.945944445	 0.242280075	-0.07746
C	 3.2163529754	 3.0447493095	-0.7418920569	-0.084978
C	 1.9512456441	 3.3750405271	 0.1053031397	-0.170214
C	 2.3250784693	 2.2731679308	 1.0910281029	-0.140229
H	-0.4176732964	 1.6563315605	-1.1486835282	 0.155813
H	-0.5852224846	 1.9886590776	 0.5703491622	 0.154993
H	 2.8777787327	 0.9415319736	-1.7759954425	 0.098644
H	 4.5606214472	 1.5507397239	 0.5049970746	 0.095662
H	 3.8483834465	 3.653057186	-1.3741383942	 0.093124
H	 1.3922412629	 4.2870304058	 0.2696832507	 0.090381
H	 2.1049450366	 2.1875645519	 2.1468303146	 0.095313
