23
gdb 113939	4.82472	0.65455	0.62051	1.6985	87.32	-0.2579	0.0924	0.3504	1882.7841	0.204762	-388.259165	-388.249173	-388.248229	-388.295224	36.486	
C	-0.2079726332	 1.6051761722	-0.4908818898	-0.374013
C	 0.017449902	 0.2139602931	 0.1135046074	-0.192473
C	-1.2796431964	-0.5443511578	 0.3163712899	 0.000598
C	-1.8913445114	-1.3579768031	-0.8012217656	-0.295446
C	-1.3594012062	-2.0486474768	 0.4351487851	-0.001728
C	-0.1457626634	-2.956403052	 0.3663488497	-0.256498
C	-0.5301115731	-4.3719670938	 0.0019224995	 0.109749
C	 0.1505983789	-5.5435924971	 0.5647504285	-0.182344
O	-1.1393516135	-5.1513568765	 1.0376630692	-0.238832
H	 0.7379157226	 2.1398925507	-0.6229437437	 0.108737
H	-0.6962908195	 1.5338831703	-1.4683969433	 0.117842
H	-0.8489167876	 2.2161577422	 0.1543135412	 0.113789
H	 0.6891671158	-0.3560277497	-0.5386068727	 0.092826
H	 0.5388125281	 0.3146391536	 1.0748687707	 0.096027
H	-1.9926110076	-0.0075760702	 0.9394158382	 0.079394
H	-2.9626691269	-1.3187790694	-0.965056517	 0.109372
H	-1.3090145427	-1.4556501665	-1.7139107225	 0.103002
H	-2.1135308064	-2.4162475191	 1.126231502	 0.097115
H	 0.5721033658	-2.5873849343	-0.3755978729	 0.097834
H	 0.3709528542	-2.9740823476	 1.334022224	 0.102046
H	-1.0147262351	-4.4856121381	-0.9697471566	 0.091242
H	 0.1812134998	-6.4782184152	 0.0059815795	 0.111603
H	 0.9695752659	-5.399707215	 1.2690808394	 0.110158
