17
gdb 35471	3.91496	1.16308	0.97855	1.7918	78.99	-0.2483	-0.0069	0.2413	1188.4269	0.136138	-384.642086	-384.6343	-384.633355	-384.674492	30.385	
C	 0.0937247449	-1.2287705595	 0.1669890646	-0.450625
C	 0.0435954044	-0.0322487362	 0.0657407587	 0.306453
C	-0.0186836306	 1.4238540056	-0.036235707	-0.224008
C	-0.8497177773	 2.0247682906	 1.1308736481	-0.23013
C	-0.7197923307	 3.5397154869	 1.215354902	 0.01181
O	 0.2039827981	 4.0411392759	 2.1878170719	-0.252347
C	 0.5386249137	 4.1689695656	 0.7912663643	 0.015755
C	 1.6184599289	 3.2950542203	 0.2653761754	-0.102262
C	 1.3704785017	 2.0430510733	-0.1153972048	-0.041454
H	 0.1362831793	-2.2865255677	 0.2500844793	 0.196971
H	-0.5359950993	 1.6646141797	-0.9787845808	 0.121588
H	-1.8970649617	 1.7324673947	 1.0149130616	 0.111333
H	-0.4923247331	 1.5980736214	 2.0720322206	 0.135039
H	-1.6418857608	 4.115750057	 1.1471009164	 0.09386
H	 0.5275305671	 5.1985348135	 0.4343948833	 0.094858
H	 2.6190347457	 3.7101454527	 0.1857126738	 0.100587
H	 2.1594533198	 1.414562356	-0.5163705574	 0.112572
