18
gdb 40952	3.67055	1.28751	1.14678	2.4826	72.4	-0.2473	0.0144	0.2618	1089.4406	0.149777	-439.074491	-439.066986	-439.066042	-439.106786	28.652	
C	 0.0583049642	 1.5345899005	-0.0561897604	-0.119897
O	 1.3052252293	 1.5063519282	 0.6699976795	-0.273188
C	 1.4489222284	 0.0962139497	 0.4247066404	-0.105059
C	-0.0161954951	-0.0109485197	-0.0808332843	 0.278494
C	-0.9959522301	-0.6087808246	 0.9301007687	-0.294681
C	-0.9480900941	-2.1255039277	 0.8141988915	-0.08199
O	-1.1985383465	-2.5443653387	-0.5375608372	-0.221634
C	-0.7281363541	-1.724363819	-1.5034743866	 0.117538
N	-0.1697044654	-0.5915887229	-1.4008737308	-0.308604
H	-0.7278269839	 2.0630194456	 0.4957933615	 0.097171
H	 0.168969991	 1.9648950381	-1.0586421857	 0.108067
H	 2.1860157794	-0.1176961921	-0.3590802994	 0.106711
H	 1.7031376408	-0.4631521186	 1.3343584313	 0.093771
H	-0.7545362846	-0.2975663617	 1.9513572174	 0.117827
H	-2.0106262445	-0.2573704421	 0.7073833168	 0.115598
H	 0.0361587433	-2.5093591341	 1.1145838357	 0.116518
H	-1.7083229909	-2.6179767751	 1.4241167456	 0.124144
H	-0.8961076473	-2.1732432261	-2.4808422838	 0.129214
