20
gdb 121506	9.9254	0.44445	0.44172	3.1943	88.62	-0.248	0.0178	0.2657	2476.2083	0.167445	-403.114542	-403.103685	-403.10274	-403.152289	37.27	
C	-0.069804276	 1.5153118867	 0.0092077194	-0.384662
C	-0.042179008	-0.0004748832	-0.0440273241	-0.054502
O	-1.3936344936	-0.4667666203	 0.0395827544	-0.202634
C	-1.5606898851	-1.7998251805	 0.0082482496	 0.124765
N	-2.710626614	-2.3081735795	 0.0797566803	-0.210548
C	-2.8026149904	-3.7527699731	 0.0444904949	-0.152358
C	-3.5057882977	-4.2654361351	 1.32004287	-0.332061
C	-3.6947820224	-5.7096892245	 1.3113461145	 0.297858
C	-3.8339956363	-6.9032197958	 1.2752801822	-0.452366
H	 0.947944668	 1.9111481693	-0.0533272394	 0.121831
H	-0.6529148432	 1.9183007649	-0.823067017	 0.137337
H	-0.5212426268	 1.8588930119	 0.9436841975	 0.137009
H	 0.4124231925	-0.3509613854	-0.9805220793	 0.109997
H	 0.5427685316	-0.4108418348	 0.7902266205	 0.109509
H	-0.6273692923	-2.3781137733	-0.0874909446	 0.075375
H	-3.4048546481	-4.0479767673	-0.8226370787	 0.119169
H	-1.8226387998	-4.2489968961	-0.0545079962	 0.091478
H	-2.9148766051	-3.9691181399	 2.1955037415	 0.127898
H	-4.4705026641	-3.7536015403	 1.4134029668	 0.143908
H	-3.9671565993	-7.9562695937	 1.2565341178	 0.192995
