15
gdb 24469	3.93363	1.68089	1.17766	4.6372	86.18	-0.1812	-0.0347	0.1465	972.9127	0.117439	-379.733306	-379.727168	-379.726224	-379.763536	25.499	
N	-0.0016332924	 1.336506857	 0.0097323875	-0.289287
C	 1.1645114185	 2.0704512697	 0.0022676295	 0.042588
N	 2.3485087208	 1.5465505761	-0.0120994945	-0.320909
C	 2.4222548382	 0.1852919916	-0.0201139141	 0.291638
C	 3.5157124205	-0.652346193	-0.03512243	-0.283783
C	 3.0213822559	-1.9946176353	-0.0376029808	-0.075281
C	 1.6360528491	-2.0213640029	-0.0243396354	-0.293466
C	 1.2044724069	-0.6686837552	-0.0127832346	 0.246928
C	 0.0024713405	-0.0311657587	 0.0023796498	-0.113184
H	-0.8805455024	 1.8289926336	 0.0209416856	 0.269711
H	 1.0324734751	 3.1474871117	 0.0093266355	 0.123577
H	 4.55267904	-0.3508744483	-0.0435147236	 0.0903
H	 3.6539661798	-2.8742500177	-0.0484689997	 0.090528
H	 1.0032716106	-2.8970206949	-0.0229385398	 0.084345
H	-0.967121761	-0.5153893937	 0.0092150847	 0.136295
