18
gdb 88231	3.84907	0.72509	0.66767	1.9696	84.48	-0.241	0.0161	0.2571	1702.9591	0.146354	-401.866117	-401.856798	-401.855854	-401.902308	32.984	
C	-0.6477990018	 1.2480592179	 0.2274862054	-0.396223
C	 0.0255829259	-0.0876264343	 0.0452931997	 0.021208
N	 1.4536713495	-0.0772438102	-0.281367594	-0.321661
C	 1.0208809862	-0.6331312034	 1.0278917471	-0.263115
C	 1.4047693339	 0.0751625622	 2.2160845589	 0.172318
C	 1.706066553	 0.6529469069	 3.2305605528	 0.108106
C	 2.0840205181	 1.3173521554	 4.446760809	-0.1198
C	 2.428005153	 2.7530545326	 4.4760974619	-0.159708
O	 1.1797281518	 2.3006731851	 4.9830360835	-0.216422
H	 0.0106619016	 1.9421942382	 0.7535045672	 0.139892
H	-0.9024146089	 1.6829537072	-0.7446576426	 0.120426
H	-1.571074373	 1.1398148481	 0.8059058405	 0.122444
H	-0.5860914623	-0.8480162474	-0.4397252865	 0.088622
H	 1.6865651959	-0.8439480309	-0.9075696205	 0.234741
H	 1.0346701774	-1.7164709528	 1.1309756445	 0.107825
H	 2.5323519266	 0.6788335049	 5.2073977722	 0.116454
H	 3.1400237548	 3.1120086191	 5.2185065063	 0.118636
H	 2.3826317083	 3.3223078815	 3.5497313546	 0.126257
