15
gdb 33659	3.03514	1.54259	1.52825	3.4241	69.78	-0.2412	-0.0108	0.2304	923.4882	0.114311	-416.739898	-416.733289	-416.732345	-416.770899	26.022	
N	 0.1533779501	-1.163466003	-0.0008411598	-0.338553
C	 0.0796384686	-0.0091379578	 0.0038880599	 0.151131
C	-0.0398545621	 1.4170891371	 0.0106189711	 0.245508
C	-0.7214104338	 2.3407869355	 1.0644146119	 0.043645
C	 0.6522534174	 3.0063049688	 1.2407512486	-0.189841
N	 1.194355114	 2.3385154427	-0.0020355464	-0.194041
C	 0.6202117275	 3.0153355021	-1.225396055	-0.189842
C	-0.7484757869	 2.3484263008	-1.0183104702	 0.043633
O	-1.497596324	 2.9890660476	 0.0353268876	-0.294501
H	-1.3269618838	 2.0290560295	 1.9163072373	 0.109426
H	 0.6779964277	 4.0984291179	 1.2316144896	 0.122898
H	 1.192625518	 2.6273645613	 2.1138475944	 0.129112
H	 0.646274522	 4.1073656539	-1.2089286338	 0.122895
H	 1.1376857249	 2.6428566913	-2.1149885633	 0.129109
H	-1.3759925195	 2.0429039224	-1.8564447219	 0.109422
