20
gdb 85063	2.3451	1.53767	1.08765	3.2759	74.36	-0.2412	0.0127	0.2539	1167.3617	0.17141	-440.335497	-440.326233	-440.325289	-440.369165	34.871	
C	-0.2909634409	 1.4837494406	-0.0844232392	-0.4098
C	 0.0122595614	 0.0061398151	 0.0705198897	 0.129247
O	 0.7340803926	-0.4431453572	-1.1100987372	-0.235999
C	 1.5718144305	-1.4593807877	-0.7879090653	 0.41047
O	 2.2958754149	-1.9904441918	-1.5817644675	-0.351602
C	 1.4368180654	-1.7672809221	 0.7121980763	-0.124683
N	 2.6216206217	-2.3006622522	 1.3606024571	-0.519867
C	 0.8904764759	-0.4346985325	 1.2653009753	-0.022451
C	 2.0032867054	 0.5519540114	 1.6329446906	-0.421113
H	 0.6262568417	 2.069446035	-0.1788558276	 0.133947
H	-0.8988385026	 1.6519041854	-0.9772002307	 0.134921
H	-0.8497501543	 1.8457123362	 0.7844777084	 0.122646
H	-0.9315235529	-0.5560289279	 0.1000785518	 0.089347
H	 0.6428548987	-2.5227361303	 0.7967415292	 0.111265
H	 2.831428117	-3.2078254268	 0.9531673163	 0.243538
H	 3.4243701031	-1.7203308818	 1.1323895998	 0.235963
H	 0.2612294925	-0.605727858	 2.1433980761	 0.085629
H	 2.638320508	 0.7944037467	 0.7730334038	 0.128399
H	 1.5901949474	 1.48906257	 2.0148516359	 0.122826
H	 2.6365538744	 0.1234701879	 2.4140827972	 0.137316
