23
gdb 114351	3.14438	0.98561	0.95552	1.2548	85.46	-0.2572	0.0764	0.3335	1388.5718	0.205943	-388.260174	-388.250833	-388.249889	-388.294467	35.816	
C	 0.2010537763	 1.6436321547	-0.0591707909	-0.411377
C	 0.0987613519	 0.1282843221	 0.0324242812	 0.054289
C	 0.9589491187	-0.7616138645	-0.91812806	-0.266415
C	 1.2841433737	-1.720730359	 0.2717552071	-0.054271
C	 2.6651998651	-1.563312556	 0.9534245225	 0.057766
C	 3.9327169583	-1.4833538977	 0.1278725858	-0.102947
O	 5.0169753005	-1.2848480803	 1.0280687539	-0.423221
C	 2.1431514567	-0.2860897729	 1.6765022668	-0.256291
C	 0.6863547979	-0.6407653282	 1.2440024075	-0.030563
H	 1.2369407948	 1.9882999442	 0.0264902231	 0.113562
H	-0.1846192373	 2.0035518595	-1.0198598528	 0.111757
H	-0.3781712859	 2.1307725914	 0.7335573158	 0.112448
H	-0.953374568	-0.1629174951	-0.0715154299	 0.068816
H	 0.422206423	-1.2151999057	-1.7547800706	 0.096632
H	 1.8327289647	-0.2444984004	-1.3259221405	 0.09369
H	 0.8769589275	-2.7289498665	 0.1771948801	 0.057228
H	 2.7961241596	-2.3687952425	 1.684699295	 0.078604
H	 4.0597113782	-2.4130712065	-0.4523926446	 0.080858
H	 3.8696846537	-0.6541411919	-0.5939994375	 0.079796
H	 5.8182046529	-1.162642998	 0.5107832041	 0.284823
H	 2.3220993861	-0.248854411	 2.7524336107	 0.103231
H	 2.5234798446	 0.6439228477	 1.2439159383	 0.095663
H	 0.0080612869	-0.8901842734	 2.0621405348	 0.055923
