12
gdb 9986	2.81269	1.46204	0.96245	10.2428	77.88	-0.1882	-0.0529	0.1353	1102.9778	0.084039	-373.693699	-373.68533	-373.684386	-373.726962	28.631	
N	 0.0304469065	 0.8724628804	 0.1114939854	-0.520007
H	 0.0345507143	-0.1188211699	-0.0766265525	 0.276742
H	 0.8677439342	 1.3547415773	-0.1720753942	 0.290895
C	-1.1349770658	 1.5701791818	 0.0273952151	 0.133082
N	-2.317184927	 1.0189241393	 0.0323366561	-0.268785
C	-3.5845865843	 1.6488466033	 0.0339845579	-0.004285
C	-3.6019090628	 3.0421348927	 0.0397518156	 0.205099
N	-3.4980166225	 4.2039901904	 0.0436289099	-0.387357
C	-4.6982032133	 0.8082225396	 0.0132512122	 0.163056
N	-5.5908639144	 0.058650165	-0.003117834	-0.372252
H	-1.0850061911	 2.6519099328	 0.0179690361	 0.197145
H	-2.3759267338	 0.0061635772	 0.0485422224	 0.286668
