15
gdb 44117	2.57209	1.63294	1.33722	5.4128	70.01	-0.2681	0.0021	0.2703	977.967	0.114128	-416.823141	-416.815829	-416.814885	-416.855355	27.63	
N	-0.0078551951	 0.9450171263	 0.7098455029	-0.520012
C	-0.0301343363	-0.132983773	 0.0666904087	 0.415338
C	-1.2730227025	-0.9378407354	-0.2878268132	-0.330897
C	-0.737963234	-2.1499104392	-1.0254288618	-0.101162
C	 0.7412988653	-1.9501277272	-1.0951049024	 0.081088
O	 1.0954332342	-0.7712452671	-0.4299371682	-0.226578
C	 0.1930321526	-3.0974296996	-0.255114165	-0.237818
C	 0.259851958	-3.0692395052	 1.1767301596	 0.313351
N	 0.3004481984	-3.0448527809	 2.3325111202	-0.336037
H	 0.9466111373	 1.2849927837	 0.8320241354	 0.234676
H	-1.8306378469	-1.1778357075	 0.6208588487	 0.165297
H	-1.9278762038	-0.3448634485	-0.9316284467	 0.147877
H	-1.3009028597	-2.5757264437	-1.8456763374	 0.120726
H	 1.3667446592	-2.1629001971	-1.9527603382	 0.130723
H	 0.3094545932	-4.0851529855	-0.6896848427	 0.143427
