18
gdb 47064	3.06622	1.52998	1.26606	4.7935	71.04	-0.2531	0.0463	0.2994	1025.7895	0.150957	-439.125919	-439.11855	-439.117606	-439.158137	28.654	
O	 0.2249635805	-0.0201842481	-0.1775387207	-0.380674
C	 0.1050498665	 1.1776527237	-0.1845505062	 0.432589
N	-0.945434836	 1.8585560128	 0.3950246721	-0.359559
C	-1.3603186053	 3.1611989106	-0.1240749451	-0.190093
C	-0.1693976615	 4.1102109808	-0.1082261985	-0.027229
C	 0.3760951058	 4.512731672	 1.2944809517	-0.228339
C	 1.6077586688	 3.5873561864	 1.085464551	-0.242448
C	 1.1546233706	 3.3347076786	-0.376781198	 0.128477
O	 1.0341518887	 1.9716577867	-0.7860299234	-0.243871
H	-1.6743912238	 1.2276475622	 0.6936190097	 0.255784
H	-1.7523629609	 3.0739545479	-1.1485466035	 0.113687
H	-2.1700107667	 3.5418184991	 0.5063087006	 0.116761
H	-0.3557547194	 4.9448490003	-0.7881250434	 0.078441
H	 0.6248400846	 5.5732293835	 1.3691824064	 0.107015
H	-0.2692633112	 4.2478399032	 2.1354016356	 0.107026
H	 2.5919724067	 4.0467390493	 1.1969332932	 0.107233
H	 1.5765877919	 2.6780955149	 1.6889533589	 0.128099
H	 1.8003363408	 3.789192756	-1.1288613105	 0.0971
