16
gdb 18152	3.66839	1.62024	1.3871	4.3555	65.01	-0.2312	-0.0163	0.2149	914.7092	0.13001	-383.708161	-383.700665	-383.69972	-383.740272	27.828	
O	 0.0014778353	 1.4184129962	 0.0689270336	-0.415254
C	-0.039488141	 0.0179775256	 0.0525450128	 0.109008
C	-0.4387447756	-0.8040101872	 1.2376052233	-0.114421
C	-1.5014120887	-0.0653080236	 2.0604622675	-0.263717
C	-2.4579690085	-0.0539807759	 0.8159679861	-0.065119
C	-3.044654578	 1.2616684507	 0.3571302494	 0.136639
O	-4.2288107893	 1.4416078983	 0.2059511223	-0.259094
C	-1.340628661	-0.7064427604	-0.0236970734	-0.118973
H	 0.7646169202	 1.6897224611	 0.5911110366	 0.288651
H	 0.7354497675	-0.4423569719	-0.5618799002	 0.095755
H	 0.1599652302	-1.6347370852	 1.5923902555	 0.091943
H	-1.9141501839	-0.6537608348	 2.880326099	 0.117117
H	-1.1989213534	 0.9138059566	 2.4433817075	 0.103045
H	-3.2860290932	-0.7505700972	 0.9630299533	 0.095447
H	-2.3059141562	 2.065920582	 0.1699827151	 0.100612
H	-1.5290265344	-1.4392091741	-0.7995564885	 0.098361
