18
gdb 44199	4.08403	1.161	1.1167	2.9429	78.34	-0.2544	0.0189	0.2733	1150.4244	0.148267	-401.905182	-401.897585	-401.896641	-401.937499	29.678	
N	-0.0228105476	 1.1776015747	-0.0164757184	-0.558683
C	-0.0632772634	-0.0733774329	-0.0588434758	 0.462588
O	 0.9703971804	-1.002795822	-0.2244901352	-0.273829
C	 0.0332823407	-2.0863293737	 0.0143289008	 0.002259
C	-1.1258344261	-1.1103980221	 0.0950666956	-0.305127
C	-0.9897283737	-2.1069074403	-1.0563665196	 0.345183
C	-0.7711440461	-1.9174484352	-2.5610276208	-0.294919
C	-1.4101446994	-3.3241453503	-2.7700995065	-0.207152
C	-1.9275278444	-3.2979239217	-1.2997992286	-0.308615
H	 0.9309776375	 1.5201108383	-0.1437900926	 0.229864
H	 0.3553678868	-2.8911330236	 0.662101676	 0.120714
H	-1.9922141935	-1.064558419	 0.7391632438	 0.11806
H	-1.3821421292	-1.1099553698	-2.9737158957	 0.116077
H	 0.2622498563	-1.7788663748	-2.8837030207	 0.118139
H	-2.1688591209	-3.4070892184	-3.5500759174	 0.106131
H	-0.6590519507	-4.1011073575	-2.929146849	 0.110756
H	-1.7654414839	-4.1922186543	-0.6919726055	 0.105856
H	-2.9827774827	-3.0174385375	-1.2316650804	 0.112697
