17
gdb 71530	2.56432	1.57266	1.4167	1.7073	79.94	-0.2338	0.0322	0.266	1011.5439	0.133678	-384.57304	-384.56503	-384.564086	-384.60523	31.495	
C	 0.0228778538	 1.4522711515	-0.0942593053	-0.525027
C	 0.0186452431	-0.0372657468	-0.0076919967	 0.42402
O	 0.5888160404	-0.82003751	-1.1020297502	-0.351849
C	 0.1103958009	-1.8176975311	-0.1637376926	 0.044861
C	 0.5190842461	-1.0185776244	 1.1068997191	-0.15444
C	-0.8824408865	-1.1490532503	 1.7336609883	-0.330565
C	-1.198925721	-1.033640048	 0.2212178263	 0.192105
C	-2.4581088002	-1.0325315457	-0.4524061047	 0.083415
C	-3.5222793309	-1.0178299109	-1.0145341339	-0.385513
H	 1.0469709542	 1.8256992703	-0.1903661845	 0.138532
H	-0.5529186446	 1.7829300656	-0.9637019495	 0.14577
H	-0.4241399265	 1.8869950716	 0.8050627702	 0.13207
H	 0.2289149738	-2.8728331268	-0.4068124489	 0.102289
H	 1.5005699268	-1.0122199927	 1.5783195789	 0.08756
H	-1.1243645395	-2.1072616709	 2.2001698966	 0.107786
H	-1.2233061562	-0.3214274407	 2.3610529972	 0.107394
H	-4.4582580037	-1.0095877308	-1.5159057003	 0.181593
