19
gdb 68319	2.95449	1.20825	1.01046	3.0506	79.97	-0.2436	0.0298	0.2734	1217.7652	0.159822	-382.010627	-382.002156	-382.001212	-382.044269	32.005	
C	 0.1106873333	 1.3632671241	 0.1504481657	-0.518719
C	 0.0691122557	-0.1421269832	 0.0892259026	 0.295091
C	 0.5638612586	-1.0986894874	-1.0269684029	-0.202427
N	 0.0029790044	-2.0955188868	 0.0050334219	-0.165419
C	 0.7190607055	-1.1910216921	 1.0268584577	-0.219027
C	-1.1625419662	-1.0943546207	 0.095781351	 0.039834
C	-2.1191642349	-1.2503712453	 1.2828474894	-0.395787
C	-3.120757543	-0.1860133546	 1.2939751286	 0.263483
N	-3.8990724457	 0.6681941597	 1.2856366149	-0.30908
H	 1.1429770878	 1.7274324586	 0.1144578663	 0.123252
H	-0.4336117085	 1.8043941358	-0.6909941251	 0.131417
H	-0.3467280891	 1.7348477475	 1.0732630244	 0.133458
H	 0.0265896269	-1.1061239049	-1.9797513075	 0.104447
H	 1.6422745308	-1.196002629	-1.1750967644	 0.104224
H	 1.8073160874	-1.2906073774	 0.9953266439	 0.106212
H	 0.3646955163	-1.2913888749	 2.0542212268	 0.099388
H	-1.7560501922	-1.0887288316	-0.8248380612	 0.089803
H	-2.6289103034	-2.2172995453	 1.1976301493	 0.166802
H	-1.6050876937	-1.2494669527	 2.2473586085	 0.153049
