21
gdb 119280	2.12408	1.20532	0.9037	4.7163	83.03	-0.2454	0.0226	0.268	1394.0363	0.182658	-383.268457	-383.258755	-383.25781	-383.303331	35.539	
C	 0.2351481203	 1.524651193	 0.0303497775	-0.382501
C	 0.086058893	 0.0006098812	 0.0166818279	-0.187027
C	 0.6767898273	-0.6355212429	-1.2467887871	-0.235311
C	 0.5605362945	-2.1707725067	-1.3044886768	 0.16535
C	 1.4235549974	-2.8131042884	-2.4396086014	-0.280382
C	 2.4284309644	-3.1919132047	-1.3257017877	-0.157986
N	 1.3764140444	-2.9245690616	-0.3174298297	-0.329001
C	-0.8563817292	-2.5707364976	-1.2953839061	 0.277575
N	-1.9720071743	-2.8733308905	-1.3108941922	-0.354096
H	 1.2882773868	 1.8233362863	-0.018562497	 0.114066
H	-0.2778361618	 1.9784970124	-0.8243810761	 0.121267
H	-0.1914255708	 1.9545727849	 0.9412917466	 0.11987
H	 0.5746913902	-0.4180206183	 0.9066323955	 0.094619
H	-0.9734076449	-0.2692670355	 0.0948821856	 0.130314
H	 0.1817097913	-0.2192421828	-2.1336207068	 0.114737
H	 1.7409981972	-0.3803787252	-1.3329170951	 0.099248
H	 0.9425705295	-3.6754845483	-2.9007190775	 0.134687
H	 1.7625825256	-2.1235528438	-3.2132834685	 0.11653
H	 2.793616877	-4.222953295	-1.319045454	 0.11535
H	 3.2919578542	-2.515730094	-1.2819145622	 0.100136
H	 1.6537940482	-2.3970836625	 0.5033403552	 0.222555
