19
gdb 96218	2.79569	1.35553	0.96602	3.9378	80.39	-0.2529	-0.061	0.1919	1214.0667	0.160519	-423.063955	-423.055766	-423.054822	-423.096677	31.707	
O	-0.0708624645	 1.4318684422	 0.0679395732	-0.446007
C	 0.0010655723	 0.0194216625	 0.0186335441	 0.036046
C	-1.4277275708	-0.5226924462	 0.069576586	-0.208055
C	-1.4694158536	-2.0198728744	-0.2509263072	-0.22422
C	-0.9408412398	-2.2953560144	-1.6676701252	-0.254109
C	 0.288834084	-1.4971599935	-1.976848539	-0.123127
C	 0.7209104694	-0.4658942299	-1.2333674218	 0.202369
C	 1.9647285028	 0.205049411	-1.6317590777	 0.096663
O	 2.4708975412	 1.1397920993	-1.0393247344	-0.304411
H	 0.8373751366	 1.7515883617	-0.0339810889	 0.296243
H	 0.5589224326	-0.3630508195	 0.892669024	 0.075952
H	-1.8553621545	-0.3157926008	 1.0548605952	 0.106878
H	-2.0214475468	 0.0392915377	-0.6618191919	 0.10901
H	-0.853882412	-2.567119429	 0.474527698	 0.105984
H	-2.4881387368	-2.4065173449	-0.1499150175	 0.103259
H	-0.732317743	-3.3629756751	-1.8116828131	 0.116388
H	-1.707717289	-2.0490509484	-2.4183864317	 0.127955
H	 0.8566118982	-1.7771187532	-2.8644784608	 0.101464
H	 2.4475836435	-0.2101959753	-2.5433788915	 0.081718
