19
gdb 79026	4.66212	1.36309	1.30146	2.9387	79.03	-0.21	0.0727	0.2827	1034.0562	0.161767	-381.960378	-381.953576	-381.952632	-381.991183	28.544	
C	-0.1492319429	 1.5732787572	 0.0943705978	-0.43526
C	 0.0336177528	 0.0717852126	-0.0184504165	 0.080496
C	 0.8056920448	-0.6043461736	-1.1593925292	-0.101257
C	 2.1198482453	-0.136806685	-0.4516749902	 0.000156
C	 3.1797748771	-1.2172957105	-0.612346817	-0.067201
N	 3.3715847646	-2.0338292668	 0.6137416261	-0.317341
C	 2.3645230477	-2.4270839733	-0.4047275784	-0.073746
C	 1.0007867166	-1.7984108985	-0.1676836856	 0.012455
N	 1.2187340163	-0.5608778931	 0.7390648888	-0.14625
H	 0.7233274773	 2.1441359627	-0.2314636939	 0.117781
H	-1.0018610833	 1.8918290824	-0.515156973	 0.11741
H	-0.3620278852	 1.8457714879	 1.1333724792	 0.131623
H	-0.9010604325	-0.4298856056	 0.2607516371	 0.067564
H	 0.5787021761	-0.6362401891	-2.2333669618	 0.055061
H	 2.4323073383	 0.9056117578	-0.4581322132	 0.075542
H	 3.9731891935	-1.1264967275	-1.3449316104	 0.090981
H	 4.1979922264	-2.6141704603	 0.4709588152	 0.22678
H	 2.4736656782	-3.3480227939	-0.9651467332	 0.091709
H	 0.1538802191	-2.4262785435	 0.1138092383	 0.073495
