19
gdb 102076	2.18669	1.15225	0.83701	2.4747	72.97	-0.2595	-0.0406	0.2189	1396.4642	0.155481	-460.180534	-460.170265	-460.169321	-460.216726	35.822	
C	-0.2950118402	 1.5561183221	 0.0770718699	-0.399433
C	 0.0467475415	 0.0629459559	 0.0456062392	-0.195091
C	 0.7548028138	-0.4072980387	-1.253134144	-0.121991
C	 2.1778844263	 0.1058446572	-1.287114054	 0.153309
O	 3.1594745839	-0.5838369175	-1.4282551759	-0.254218
C	 0.6846386071	-1.9521885419	-1.4017285925	 0.041809
O	-0.6241168813	-2.4152813458	-1.2028803718	-0.439142
C	 1.1744251364	-2.4063280131	-2.7695003411	 0.120045
O	 0.4353477255	-3.0003815042	-3.520342047	-0.266585
H	 0.5923410506	 2.1960479574	 0.0468492446	 0.120374
H	-0.9328470534	 1.8309396627	-0.7700792827	 0.122915
H	-0.8396227265	 1.8008814659	 0.9939011817	 0.126046
H	 0.6692436537	-0.2028693623	 0.9097205152	 0.106657
H	-0.8703801797	-0.5240815265	 0.1290722419	 0.147047
H	 0.2211702859	 0.0539526899	-2.0992240283	 0.10464
H	 2.2806388234	 1.2036965436	-1.1482415708	 0.096449
H	 1.3670005186	-2.3906719677	-0.6549137291	 0.108898
H	-0.8681915542	-2.8530733653	-2.0355349544	 0.295494
H	 2.2185082984	-2.1704516117	-3.0315118409	 0.132777
