27
gdb 121135	2.77045	0.85045	0.78377	0.058	96.46	-0.2731	0.0812	0.3543	1693.3417	0.250816	-353.565957	-353.554993	-353.554049	-353.601855	41.554	
C	 0.1254856085	 1.5789664565	 0.0418989961	-0.38039
C	 0.0347728491	 0.0517061734	 0.0989040849	-0.162287
C	-1.3951176874	-0.4763295579	-0.0802561465	-0.200398
C	-1.4822541695	-1.9963458595	-0.0099706535	 0.021644
C	-1.2235176004	-2.7190839054	 1.3406560893	-0.235592
C	-2.3363419295	-3.7342188054	 0.9734247288	-0.255376
C	-2.8671422033	-2.7380639318	-0.1072541366	 0.318564
C	-4.0467462638	-1.9159289004	 0.4212934826	-0.434845
C	-3.2023988894	-3.3342940723	-1.4716164031	-0.451524
H	 1.1557268089	 1.9247854429	 0.1736101927	 0.10917
H	-0.2336100696	 1.9616316843	-0.9201491083	 0.111966
H	-0.4834350411	 2.0411759066	 0.8270227554	 0.112275
H	 0.6804176586	-0.3838356245	-0.675353909	 0.092325
H	 0.4330351931	-0.3027931767	 1.0584354041	 0.098579
H	-2.0394614441	-0.0288703851	 0.6880896711	 0.088781
H	-1.7878066717	-0.1293389697	-1.0468662755	 0.088097
H	-0.818027083	-2.4217295796	-0.7739440098	 0.059274
H	-0.2206548352	-3.1141656091	 1.5196282084	 0.092044
H	-1.500014748	-2.093904759	 2.1962065364	 0.09527
H	-1.9288183535	-4.6440637905	 0.5221919285	 0.092063
H	-3.0361397628	-4.0243497791	 1.7625115927	 0.088754
H	-3.8481642305	-1.4999936298	 1.41423324	 0.110403
H	-4.290066463	-1.0822423952	-0.2468636766	 0.110608
H	-4.9395110411	-2.546743609	 0.5026852264	 0.107427
H	-4.0919303379	-3.9736128747	-1.4180826495	 0.108539
H	-3.406682595	-2.5494193497	-2.2101751119	 0.108952
H	-2.3758162383	-3.9440088992	-1.8521941173	 0.105675
