19
gdb 22558	2.58049	1.21116	0.93006	1.926	75.13	-0.2409	-0.0032	0.2377	1277.6788	0.157937	-456.272154	-456.262428	-456.261484	-456.307169	35.855	
C	 0.0324959325	 1.4994146317	 0.188889924	-0.499593
C	 0.009082178	-0.0058137797	 0.1118765411	 0.271181
N	-0.1728195342	-0.7633349165	 1.1283635896	-0.173803
O	-0.36769327	-0.0203980751	 2.3003318975	-0.394517
C	 0.1758057305	-0.6894979597	-1.2126110393	 0.232197
C	 1.1430961633	-0.0519837649	-2.2075968556	-0.136538
O	 0.5331573216	 1.0066533094	-2.9231528679	-0.409278
C	-0.1306897592	-2.1363320258	-1.329745238	-0.273064
N	-1.0559751154	-1.1518788907	-1.9188533308	-0.362319
H	 0.108487285	 1.9430050425	-0.802950112	 0.155942
H	-0.8730204662	 1.8585995331	 0.6877417595	 0.143925
H	 0.8730996387	 1.8328024984	 0.8072629044	 0.143925
H	-0.4751830641	-0.7111142591	 2.9629030334	 0.306929
H	 2.0118456351	 0.3693143775	-1.6921866828	 0.113222
H	 1.5076249177	-0.8292065131	-2.8950593972	 0.096838
H	-0.3064676734	 0.6414901837	-3.2347475239	 0.292672
H	 0.4171392456	-2.7341384452	-2.0526201348	 0.117431
H	-0.4372462594	-2.6570632856	-0.4302375019	 0.137129
H	-1.8562097658	-1.0386877709	-1.3004157355	 0.237722
