19
gdb 62498	2.0909	1.41576	1.17272	1.3515	79.69	-0.222	0.0491	0.2711	1166.8637	0.154001	-422.975919	-422.965418	-422.964474	-423.010246	39.612	
C	-0.1306432271	 1.55281906	-0.0091011467	-0.45969
C	-0.0005925048	 0.0480041241	 0.0553602752	 0.34859
O	-1.1103655099	-0.6355303249	-0.4430354727	-0.44635
C	 1.3714612044	-0.6267926203	-0.1917493655	-0.402324
C	 2.5604898035	 0.1171660592	-0.4555842471	 0.355615
C	 3.5611801125	 0.7526717615	-0.6719587972	-0.465697
C	 0.6841702108	-0.641875039	 1.1961927139	 0.348591
C	 1.2861383748	 0.1254532982	 2.351352926	-0.459693
O	 0.0968906679	-1.8517912187	 1.5682223234	-0.446353
H	 0.7748362713	 2.0650982969	 0.3181621447	 0.135673
H	-0.3191007136	 1.8619832048	-1.0445537464	 0.113065
H	-0.9740858152	 1.8867683513	 0.6028215711	 0.129944
H	-1.2201157591	-0.3777496437	-1.3653908911	 0.282206
H	 1.2699123035	-1.5782470787	-0.7062023331	 0.114402
H	 4.4462524498	 1.304543678	-0.8694040121	 0.191129
H	 1.8019996808	 1.0304740687	 2.0284730939	 0.135684
H	 0.5095793999	 0.3925216141	 3.0745399773	 0.129945
H	 2.0261052874	-0.5014569933	 2.8638859351	 0.113053
H	 0.7829108132	-2.395723608	 1.9716454513	 0.282208
