25
gdb 115592	2.68554	1.01584	0.93045	0.9501	89.35	-0.2408	0.0847	0.3255	1470.8144	0.227012	-389.483558	-389.472839	-389.471895	-389.519008	40.067	
C	-0.0686281798	 1.6182978581	-0.0410289587	-0.380249
C	 0.045397745	 0.0932824204	 0.0691593455	-0.210677
C	-1.3105528182	-0.5995043062	 0.030314943	 0.018716
C	-2.1406827437	-0.6247270405	-1.2835468349	-0.247615
C	-2.6228976015	-2.0525058264	-0.9138000069	-0.276514
C	-1.4309755267	-2.1521628353	 0.0918365292	 0.398934
C	-0.2323242769	-2.9121482177	-0.4749646818	-0.446571
O	-1.7460986855	-2.5645261109	 1.4112160047	-0.288064
C	-2.1879551021	-3.8961558352	 1.5517825471	-0.25101
H	 0.9163974159	 2.0944974653	-0.0119542922	 0.109309
H	-0.5531045107	 1.9136957863	-0.9780741842	 0.116459
H	-0.6632906434	 2.0300005189	 0.7819537135	 0.114657
H	 0.6803482627	-0.2806307138	-0.7439128878	 0.089168
H	 0.5567631589	-0.1676834603	 1.004803206	 0.101365
H	-1.9391755602	-0.2161147904	 0.8422107912	 0.07814
H	-2.9058227559	 0.1434420414	-1.4117719089	 0.098043
H	-1.5005700293	-0.623277886	-2.1719439868	 0.096997
H	-3.5753887716	-2.0307766599	-0.3775246614	 0.104578
H	-2.6783160414	-2.7949828929	-1.7141709226	 0.089762
H	 0.0490585261	-2.5212732216	-1.4570917069	 0.117622
H	 0.6321128815	-2.8257964858	 0.1903698009	 0.121373
H	-0.4630201791	-3.9740743291	-0.604826834	 0.112276
H	-2.5396267495	-4.0067363202	 2.5809560419	 0.123737
H	-3.0211373586	-4.1275460108	 0.8713776564	 0.104295
H	-1.3886742059	-4.6311152173	 1.3799270277	 0.10527
