16
gdb 78408	2.6993	1.83493	1.49146	3.1611	67.62	-0.2508	-0.0146	0.2363	915.9929	0.124528	-437.834868	-437.827491	-437.826547	-437.866852	28.129	
C	-0.3414935261	 1.5112003596	 0.1758974308	-0.444384
C	 0.0123726567	 0.0530348302	-0.0507025594	 0.015823
C	 0.5834071281	-0.6390536042	-1.2271099485	-0.084286
C	 1.7908790416	 0.0246079219	-1.9029761195	 0.10143
O	 1.7972285095	 1.4840248659	-2.0069024011	-0.268438
C	 2.4463679024	 1.6058145909	-0.7827225184	 0.447566
O	 2.8140900339	 2.6052916984	-0.260340165	-0.319057
C	 2.4719534646	 0.0867995091	-0.5476658588	-0.174476
N	 1.3116953606	-0.6349468848	 0.1382905877	-0.171319
H	 0.1249383948	 2.2120494946	-0.5087400116	 0.170327
H	-1.4253088381	 1.6127892207	 0.0602405525	 0.124538
H	-0.0927921581	 1.7980091856	 1.2025272696	 0.140884
H	-0.7232213456	-0.5926596941	 0.4306124294	 0.116478
H	 0.1526310707	-1.5569030643	-1.6157517371	 0.107012
H	 2.2003798243	-0.4477802999	-2.7924614429	 0.114608
H	 3.4239093109	-0.3694515594	-0.2871029278	 0.123293
