17
gdb 16353	2.60897	2.27257	1.42407	3.7419	69.72	-0.2432	0.0338	0.277	907.9578	0.141927	-363.877257	-363.869314	-363.868369	-363.909467	29.538	
C	-0.0657572327	 1.5783297344	-0.015885874	-0.396886
C	 0.0450150279	 0.0624140113	 0.0167316272	-0.010058
N	 1.1543128444	-0.5059165529	-0.7758497482	-0.366086
C	 1.7617717951	-1.1598218419	 0.2768334116	 0.407373
O	 2.7140175918	-1.8908298877	 0.3555195297	-0.376608
C	 0.7312814151	-0.5931857115	 1.2363152251	 0.173686
C	 0.9812024185	-0.0647228883	 2.6186092032	-0.31917
C	 0.1489774936	-1.3040839324	 2.4226529189	-0.320225
H	 0.8910825684	 2.0417750895	 0.2403695858	 0.127436
H	-0.3645093142	 1.9283148789	-1.0097034955	 0.118555
H	-0.8233682444	 1.9230602932	 0.6962137135	 0.120104
H	-0.9197226919	-0.4018638719	-0.2243998029	 0.086311
H	 1.2740391153	-0.6082023575	-1.7725109086	 0.246442
H	 1.9852132125	-0.1737040684	 3.0146142511	 0.135612
H	 0.4741438538	 0.8500276749	 2.908006228	 0.118785
H	-0.9219738172	-1.2322179344	 2.5819635372	 0.118355
H	 0.5858839243	-2.2634359954	 2.6792253979	 0.136372
