15
gdb 42326	5.56133	0.66037	0.6187	2.8926	94.44	-0.2605	-0.0779	0.1825	1748.2743	0.110292	-383.438481	-383.429503	-383.428559	-383.473178	32.084	
O	-0.0272440714	-0.0722604103	-0.0873456896	-0.315528
C	-0.0441523248	 1.1450185711	-0.0502974188	 0.157037
C	 1.1864531291	 1.911657891	-0.0291341042	 0.352471
C	 2.2209695636	 2.5454118546	-0.0116405509	-0.174878
C	 3.3774135932	 3.2560877091	 0.0079579048	 0.293211
C	 4.4059345084	 3.8889765272	 0.0254666666	-0.54389
C	-1.3009313388	 1.9393579398	-0.0239064757	-0.11184
C	-2.4937628804	 1.3700937002	-0.7835660186	-0.247807
C	-2.4913348744	 1.3246285964	 0.7033407835	-0.247818
H	 5.3112233321	 4.4445191392	 0.0408002631	 0.204027
H	-1.1860951867	 3.0158618161	 0.0088032178	 0.102346
H	-3.1343916397	 2.0823522772	-1.2901100811	 0.122612
H	-2.3084549005	 0.4423223231	-1.3123690681	 0.143725
H	-2.3043876505	 0.3663094879	 1.1738886543	 0.143725
H	-3.1302926692	 2.0044677873	 1.2545755868	 0.122606
