17
gdb 14992	4.56093	1.44481	1.16025	3.0475	65.43	-0.2486	0.0143	0.2629	1008.172	0.144515	-401.011047	-401.003727	-401.002783	-401.042811	27.446	
O	 0.0535127237	 1.3990946865	 0.0940697707	-0.424891
C	 0.0654794939	 0.0004275904	-0.063729721	-0.056287
C	-1.3586696556	-0.5700435075	-0.0157170333	 0.03256
C	-1.4107450642	-2.0954390858	-0.1266163341	-0.248167
C	-2.8127807822	-2.5670102956	 0.2393242749	-0.076628
O	-3.2074821206	-2.0754304684	 1.5323142436	-0.223635
C	-2.7536248161	-0.8473220584	 1.8627364152	 0.133822
N	-1.9621572472	-0.0887269663	 1.2320706424	-0.296781
H	-0.5527406815	 1.5583408852	 0.8316139472	 0.290383
H	 0.5277066194	-0.2194919063	-1.0327896172	 0.099005
H	 0.6700197486	-0.493226081	 0.7170124784	 0.079778
H	-1.9155408735	-0.1157602185	-0.8473203429	 0.093541
H	-1.157815777	-2.4340183608	-1.1366007204	 0.111257
H	-0.6854304733	-2.5434053185	 0.5633895325	 0.115391
H	-3.5462142571	-2.2152406288	-0.4971263029	 0.117955
H	-2.8845328592	-3.6549671919	 0.3042963785	 0.123033
H	-3.1722033783	-0.5448967142	 2.8211334184	 0.129664
