18
gdb 53498	3.055	0.87516	0.71067	4.5465	77.21	-0.2559	0.0177	0.2736	1572.6684	0.145549	-439.102444	-439.092094	-439.09115	-439.13914	36.424	
C	 0.302640687	 0.7365729888	 1.291609395	-0.501319
C	-0.0010729747	-0.3672554403	 0.3896896716	 0.070298
C	-0.2403237561	-1.2585818537	-0.3870096433	 0.044582
C	-0.5639613244	-2.3351362972	-1.3172767264	-0.367821
C	-1.6740059362	-3.303528475	-0.8240625575	 0.033959
O	-2.1026839049	-4.0892743347	-1.8981473279	-0.42841
C	-1.1944307996	-4.2455706153	 0.2986341092	 0.376584
N	-0.7670243863	-3.6675760202	 1.4437534942	-0.5158
O	-1.2445353031	-5.4542807331	 0.124785784	-0.381579
H	 1.1918115266	 0.5285148051	 1.8966510653	 0.149913
H	 0.4921704285	 1.6585932417	 0.7313777664	 0.156918
H	-0.5288575027	 0.9329009461	 1.9771862409	 0.151366
H	-0.9285878189	-1.9131973732	-2.2604680137	 0.150163
H	 0.3308635734	-2.9189609613	-1.5651037058	 0.136599
H	-2.5051192334	-2.6968574221	-0.4320245101	 0.099975
H	-1.9671722332	-5.0059163192	-1.5957881539	 0.294719
H	-0.583064604	-2.675503805	 1.4754549468	 0.267044
H	-0.367518148	-4.2641845914	 2.150726945	 0.26281
