21
gdb 102826	2.58089	1.034	0.80502	4.0692	79.49	-0.2435	-0.0377	0.2058	1453.6589	0.180846	-424.21941	-424.209645	-424.208701	-424.25473	35.641	
O	 0.1625035219	 1.2812039651	 0.4148247932	-0.432579
C	 0.0198502235	-0.0468516157	-0.0268780094	-0.061958
C	-1.4468652728	-0.5172319313	-0.1762325994	-0.04375
C	-2.0886695448	-0.171943349	-1.5344159276	-0.298118
C	-2.2452130301	 1.2716935021	-1.9323376433	 0.15511
O	-1.7506390948	 2.2337075684	-1.3912665841	-0.248049
C	-1.5528832444	-2.0187552898	 0.0418523991	 0.029508
C	-1.6340307252	-2.5845212561	 1.4348288193	-0.277413
C	-2.8393486877	-2.6396120509	 0.526225547	-0.277591
H	-0.3990222551	 1.834241579	-0.1488963816	 0.297133
H	 0.5559545671	-0.2275820026	-0.9775221943	 0.068047
H	 0.5040361181	-0.6729757592	 0.7300474317	 0.105278
H	-2.014274329	-0.0126483657	 0.6168488912	 0.08722
H	-1.524252212	-0.6446491393	-2.3560577864	 0.13406
H	-3.0892010585	-0.6226845608	-1.6053099356	 0.128773
H	-2.8861098019	 1.4199113691	-2.8294928192	 0.094817
H	-0.9855566643	-2.6104505682	-0.6747311696	 0.081611
H	-1.1087962167	-3.5081958791	 1.6506146137	 0.114231
H	-1.6583786828	-1.8843168496	 2.2634125608	 0.120711
H	-3.6683727999	-1.9758379614	 0.752191863	 0.110472
H	-3.1398275106	-3.600376535	 0.1228430615	 0.112488
