15
gdb 112139	3.23472	1.20741	0.93357	5.0432	63.23	-0.284	-0.0738	0.2103	1217.6723	0.111859	-494.974478	-494.966294	-494.96535	-495.007998	29.144	
C	 0.0056579818	 1.5314559297	 0.0081658765	-0.394628
C	-0.0042565524	 0.0005584676	 0.002756618	-0.204209
C	-1.4083127858	-0.5701546601	 0.00613085	 0.220287
O	-2.1173648227	-0.2070149775	-1.1820016529	-0.221449
C	-2.5230105828	-1.3191035085	-1.8421308754	 0.316045
O	-3.1354980513	-1.3263455712	-2.8613958564	-0.296146
C	-2.0290365882	-2.5148343239	-1.0185235874	 0.312358
O	-2.1665617115	-3.6742520509	-1.2444347291	-0.295626
O	-1.3759565116	-1.998390932	 0.0507494781	-0.221733
H	 1.0327708988	 1.9040527214	 0.0162572583	 0.132821
H	-0.4951895901	 1.9316037981	-0.877039925	 0.146928
H	-0.5004731936	 1.9298098979	 0.8939058205	 0.126321
H	 0.517306283	-0.3934551191	-0.8767888496	 0.122922
H	 0.5061494109	-0.3966611667	 0.8868284545	 0.130127
H	-1.9934475646	-0.2188133448	 0.8636869399	 0.125982
