24
gdb 120851	2.26946	0.91187	0.72192	1.9222	87.68	-0.2172	0.0799	0.2971	1703.7952	0.215533	-405.506757	-405.495837	-405.494893	-405.543706	38.669	
C	 0.3611376131	 1.4860091211	 0.0673767332	-0.380537
C	 0.0964963121	-0.0155386464	 0.2010695853	-0.161008
C	-1.3007716834	-0.4109240998	-0.2793591032	-0.131784
N	-1.4769448016	-1.859778884	-0.188543227	-0.091337
C	-2.0085142277	-2.412706749	 1.0555182754	-0.248635
C	-2.8205409626	-2.4332497073	-0.1925573697	-0.020713
C	-4.0962083425	-1.6256152304	-0.3319506387	-0.094457
O	-4.2554836869	-0.7001178727	 0.7222649691	-0.219549
C	-5.4329098861	 0.0636364933	 0.6027963411	-0.229056
H	 1.3637418446	 1.7460741003	 0.4203250202	 0.111374
H	 0.2819189208	 1.8123428007	-0.9759226603	 0.111786
H	-0.3586201002	 2.0713270329	 0.6506512685	 0.112575
H	 0.8386283721	-0.5862338311	-0.3687560368	 0.10291
H	 0.2108682263	-0.3210501969	 1.2489103519	 0.095964
H	-2.0636079189	 0.1445104	 0.2857703125	 0.104261
H	-1.4131960269	-0.1315640027	-1.335724093	 0.089808
H	-1.5305936298	-3.3184653123	 1.4205329868	 0.10595
H	-2.3319424899	-1.7155991064	 1.8248488916	 0.124924
H	-2.8797367791	-3.3641347926	-0.7565808302	 0.088817
H	-4.1064019162	-1.0991219611	-1.3030864384	 0.092578
H	-4.9465483672	-2.3293854259	-0.3466183982	 0.093019
H	-5.4710511747	 0.7414766442	 1.4586627024	 0.129153
H	-5.443088694	 0.6578993218	-0.3242887966	 0.107073
H	-6.3315938716	-0.5730018757	 0.6118064842	 0.106884
