13
gdb 3304	6.03927	2.15839	1.91046	5.5166	57.92	-0.2509	0.0291	0.28	671.3095	0.103559	-303.462115	-303.456254	-303.455309	-303.491814	21.876	
N	 0.0179738065	-1.1884001243	-0.1399371053	-0.330222
C	 0.0221669093	-0.0362419202	-0.047104593	 0.289259
C	 0.0101305189	 1.4159538319	 0.0542849955	-0.148668
C	-0.226962704	 2.0748100624	 1.472778517	-0.234866
C	 1.1150042824	 2.7948799368	 1.3088656827	-0.03916
N	 2.1290019112	 1.7245590324	 1.1798282794	-0.313673
C	 1.3643334554	 2.1499681944	-0.0083864045	-0.055565
H	-0.6944572737	 1.8201022739	-0.6765048309	 0.127065
H	-1.0951989407	 2.7349918909	 1.4648838795	 0.118389
H	-0.2831583705	 1.3842204954	 2.315195532	 0.133918
H	 1.383180201	 3.7829411166	 1.6592472744	 0.106476
H	 3.0454366713	 2.1670890958	 1.1219329773	 0.238147
H	 1.8569465129	 2.5118380539	-0.901446974	 0.1089
