18
gdb 65730	3.70698	1.08599	0.9919	4.4323	72.61	-0.2508	0.0002	0.251	1224.0307	0.146199	-439.055007	-439.046557	-439.045613	-439.088045	31.798	
C	-0.0335476939	 1.6610367994	 0.0757379943	-0.448933
C	 0.0408252362	 0.1440805626	 0.0113313869	 0.382718
C	 1.0913865657	-0.5716711661	-0.8914125319	-0.229212
N	 1.6137677546	-1.3922067686	 0.2579100276	-0.120345
C	 2.1403791402	-0.4160412247	 1.2261500266	-0.251094
C	 0.6797225076	-0.615617607	 1.1715553422	-0.067059
O	-1.2882075027	-0.4045723676	-0.145983712	-0.232444
C	-1.9002239575	-0.2688796062	-1.3365117355	 0.159149
O	-3.0187786622	-0.642482767	-1.5301380052	-0.273462
H	 0.9435598171	 2.09024273	 0.3101361246	 0.127462
H	-0.3643834902	 2.0852252751	-0.8778291276	 0.126778
H	-0.7431237485	 1.9670354017	 0.8503217384	 0.141768
H	 0.6438052818	-1.2237094918	-1.6425284435	 0.129721
H	 1.8481844545	 0.0638633103	-1.3634260873	 0.109016
H	 2.6696241865	-0.8822514273	 2.0512820914	 0.133174
H	 2.5934556681	 0.5040550943	 0.8628168722	 0.114392
H	 0.1064297687	-1.0957259263	 1.9569091251	 0.11572
H	-1.268032336	 0.2101370992	-2.1071752463	 0.082651
