19
gdb 116474	2.71561	1.3122	1.02318	2.061	66.99	-0.2511	0.078	0.3291	1183.3673	0.160185	-497.291159	-497.282564	-497.28162	-497.324295	32.688	
O	 0.0120882864	 1.4126067357	-0.0871820132	-0.425896
C	 0.0511458565	 0.0040801895	 0.0303798748	-0.074961
C	-1.3514543305	-0.5878609762	 0.0480089344	 0.065347
O	-1.9725618353	-0.1825824579	-1.1836171392	-0.276649
C	-3.2998917894	-0.6369199334	-1.2674911822	 0.012492
O	-3.38221782	-2.0378139883	-1.243879014	-0.246645
C	-2.8648256309	-2.5589225571	-0.0194579629	-0.120494
C	-1.4032449441	-2.1226984898	 0.1380849334	 0.112144
O	-0.5929479032	-2.7317986672	-0.8519068434	-0.434409
H	-0.5397935822	 1.5998289507	-0.8552667023	 0.289416
H	 0.6240552851	-0.4640612128	-0.7809919939	 0.106187
H	 0.5547697736	-0.2271956583	 0.9747691001	 0.108536
H	-1.9152166778	-0.1519287414	 0.8897185335	 0.074095
H	-3.8934283063	-0.2109995241	-0.4371192021	 0.086186
H	-3.6959645676	-0.3059701996	-2.2294419718	 0.123914
H	-3.4712541346	-2.210499712	 0.8320401306	 0.094181
H	-2.9354646478	-3.6464585852	-0.0883969663	 0.124551
H	-1.0146097629	-2.4533838762	 1.1077845374	 0.092023
H	-0.9892630089	-2.5013548863	-1.701586723	 0.289982
