15
gdb 43530	2.66633	1.44896	1.06151	3.225	72.97	-0.2616	0.0011	0.2627	1098.8358	0.113583	-412.958208	-412.950172	-412.949228	-412.991004	29.706	
N	-0.1356290774	 1.1602570508	-0.7994246884	-0.554821
C	-0.0292853105	 0.0771394398	-0.162933216	 0.337021
N	 0.969380572	-0.6351276164	 0.5154540065	-0.354595
C	 0.1619152159	-1.8649274566	 0.6444511178	-0.188705
C	 0.0552751029	-2.397153522	 2.0016800364	 0.301064
N	-0.0439954879	-2.8308158825	 3.0679542858	-0.322344
C	-1.0239999158	-1.0203646048	 0.10128922	 0.26335
C	-2.4354651031	-0.9032646295	 0.5162306215	-0.290812
N	-2.0646373304	-1.4896724636	-0.7836372809	-0.358941
H	 0.7404539864	 1.6794415498	-0.8557803349	 0.22332
H	 1.9620320635	-0.6123808079	 0.3304303506	 0.254705
H	 0.439991254	-2.6684154837	-0.0460410099	 0.142285
H	-2.840602326	-1.6086181896	 1.2357216204	 0.146423
H	-2.8557313099	 0.0980084587	 0.5446517686	 0.144136
H	-2.1872820736	-0.8125834824	-1.5353108176	 0.257914
