16
gdb 79597	2.39051	1.86751	1.2643	2.2554	69.19	-0.2436	-0.0467	0.1969	987.9691	0.12233	-437.804671	-437.796744	-437.795799	-437.837274	29.466	
C	 0.2075066323	 1.7532544135	-0.0461534621	-0.314847
N	 0.1944236531	 0.2960015909	 0.0011168677	-0.074678
C	 1.3766009131	-0.5220520894	-0.147054925	-0.085978
C	 2.6000473891	 0.0347046378	 0.5754290628	-0.063127
O	 2.9315227796	-0.8187293981	 1.6602557799	-0.266796
C	 1.8263165567	 0.0886987281	 1.8565778578	 0.294962
C	 1.9481684718	 1.0884551259	 2.9344960547	 0.064866
O	 1.0056365552	 1.6846481403	 3.3953774287	-0.25669
C	 0.5949230602	-0.4710363018	 1.1573039326	-0.133518
H	 1.0805418427	 2.2244203699	 0.4217769954	 0.11135
H	 0.1646289091	 2.0625959372	-1.0947392022	 0.126402
H	-0.6889501875	 2.1216844094	 0.4590292818	 0.142486
H	 1.3929232404	-1.3056960105	-0.8954075896	 0.11785
H	 3.3715353408	 0.7111022779	 0.2251358179	 0.125454
H	 2.9908232188	 1.2530293764	 3.2799169082	 0.094132
H	-0.0828439553	-1.2075087975	 1.5707083215	 0.118135
