14
gdb 129886	5.49502	1.31183	1.06222	7.3261	70.01	-0.2068	0.019	0.2258	1043.0857	0.104649	-429.061489	-429.054573	-429.053629	-429.092493	27.099	
N	 0.1429846518	 1.3870246119	 0.1411742062	-0.600805
C	-0.0158515877	 0.0085333678	 0.0210680674	 0.330275
C	-1.1301465484	-0.7736851291	-0.0133643556	-0.226424
N	-0.671535136	-2.1024923113	-0.0220234749	-0.018329
C	-0.9988593542	-3.4357194885	-0.027189878	-0.02475
N	 0.0979597262	-4.161325565	-0.0125219912	-0.226583
N	 1.2011591119	-3.3220434505	 0.0013694401	-0.362223
C	 0.6956483055	-2.1135935609	-0.0056923752	 0.504782
N	 1.1215493591	-0.8008269371	-0.0168083153	-0.451489
H	 0.6935071671	 1.7909419782	-0.6092857639	 0.258681
H	-0.7435656129	 1.8691563541	 0.2066006837	 0.259536
H	-2.1695529409	-0.5060731827	-0.070732391	 0.139824
H	-2.0078191132	-3.8116124031	-0.0523327602	 0.137715
H	 2.0221945918	-0.5049743338	 0.320034638	 0.27979
