16
gdb 16535	3.02272	2.30363	1.82126	2.5447	59.59	-0.243	0.0423	0.2853	776.5158	0.130979	-420.824561	-420.817457	-420.816513	-420.855945	27.144	
O	 0.2320427148	 1.3026241298	-0.3362346552	-0.431061
C	 0.029598225	-0.0664888814	-0.1151318441	 0.072762
C	 0.2192491352	-0.4874450024	 1.3884196048	 0.075566
O	 0.6754547345	 0.5326457359	 2.2469497967	-0.418578
C	-1.2903991704	-0.7784906429	 1.4908112527	 0.089156
O	-2.0763483502	 0.3978558786	 1.7526557303	-0.290703
C	-2.4396766164	 0.5292957327	 0.3522531059	-0.080107
C	-1.4554188704	-0.5709603751	-0.0472230425	-0.120397
H	 0.2822550733	 1.7037337579	 0.54461228	 0.293194
H	 0.6431902887	-0.6277908421	-0.8271424011	 0.077289
H	 0.8070218669	-1.4089388105	 1.4901911155	 0.07313
H	 1.6382088603	 0.5240767629	 2.2433560447	 0.295533
H	-1.6218410497	-1.6431004279	 2.0730883866	 0.073456
H	-3.4949481928	 0.2750574599	 0.1930795936	 0.09739
H	-2.2313912035	 1.5287869877	-0.0403318783	 0.118665
H	-1.7617697455	-1.3379160531	-0.7560851497	 0.074705
