19
gdb 52814	2.91036	1.10501	0.93114	1.6582	84.62	-0.2297	0.0339	0.2636	1348.0169	0.156584	-385.826534	-385.817092	-385.816148	-385.861697	34.559	
C	 0.0035512353	 1.4913789195	-0.0205479678	-0.501943
C	-0.0131481278	 0.0362043652	-0.0075247552	 0.071698
C	-0.0272028339	-1.1681467026	 0.01183952	 0.084274
C	-0.0390608648	-2.6253160177	 0.0178590784	 0.20272
C	 1.0023009853	-3.2115126027	-0.9294135302	-0.433904
O	 0.1625286406	-3.1838662417	 1.3708921524	-0.323026
C	-1.0594588707	-3.914782699	 1.2657855964	 0.100216
C	-2.2337933635	-2.9953001275	 1.1502553108	-0.309655
C	-1.4094578645	-3.3248857781	-0.0747626592	-0.15718
H	 0.7830822783	 1.8764053751	-0.687024201	 0.149396
H	-0.9558586117	 1.8975353043	-0.3594648367	 0.149639
H	 0.1966109901	 1.8901109092	 0.9814575478	 0.153793
H	 2.0021421278	-2.8858244684	-0.6317785329	 0.133507
H	 0.9601212901	-4.3035520182	-0.8984837859	 0.12061
H	 0.8166149679	-2.874592317	-1.9541960879	 0.121407
H	-1.0787790604	-4.9268180324	 1.6525877436	 0.101958
H	-3.208707229	-3.4729423796	 1.1753861497	 0.112185
H	-2.1868180196	-2.0049050843	 1.5931048704	 0.124991
H	-1.8104001793	-3.768517894	-0.9762060926	 0.099315
