18
gdb 31778	2.98035	1.31161	0.9701	3.2909	76.16	-0.1938	0.0268	0.2206	1207.3083	0.148692	-435.293993	-435.284468	-435.283524	-435.329179	33.755	
C	 0.0700817937	 1.4229663899	 0.0839161618	-0.349556
N	 0.0513908463	-0.0280398259	 0.0480554408	-0.05722
C	 0.0597447061	-0.8110293917	-1.0873374749	 0.247852
N	 0.0431798598	-0.2227499271	-2.3625046341	-0.610279
C	-0.0093145943	-2.1100838009	-0.6463979352	-0.1642
N	-0.0598716105	-2.1446913909	 0.7271068789	-0.303798
C	-0.0200707943	-0.890484616	 1.1210113141	 0.281278
C	-0.0406418943	-0.4422180712	 2.545693213	-0.189537
O	 1.1102402895	 0.3186422907	 2.9235918005	-0.415036
H	 0.8231136914	 1.812938065	-0.6066462854	 0.128482
H	-0.9016720064	 1.8390878361	-0.2011971304	 0.142155
H	 0.3375198174	 1.7426385193	 1.0905187176	 0.171765
H	 0.9031386719	 0.2728384006	-2.5809818357	 0.244798
H	-0.0981321175	-0.9284182773	-3.0747121369	 0.252405
H	-0.0232959334	-3.010822832	-1.2417889377	 0.093866
H	-0.8904020335	 0.2188674342	 2.7514620444	 0.114653
H	-0.160740984	-1.3428139162	 3.1598238698	 0.126785
H	 1.8815487321	-0.2302947965	 2.7443654591	 0.285586
