17
gdb 7094	8.03972	0.80747	0.74735	5.7051	69.88	-0.2705	-0.0339	0.2366	1484.7639	0.139493	-363.902524	-363.893074	-363.89213	-363.939356	31.683	
C	-0.0012664315	 1.6122405064	-0.0566915045	-0.388686
C	 0.0016798786	 0.0840958987	 0.0251605827	-0.166311
C	 0.6631651772	-0.5667083206	-1.1902127069	-0.283806
C	 0.6709306793	-2.0853177569	-1.142477912	 0.374471
O	 0.1654939223	-2.7266060171	-0.2591923406	-0.260903
C	 1.3905874909	-2.7629054152	-2.3304747464	-0.456604
C	 1.3274465054	-4.2181818191	-2.3021239659	 0.288761
N	 1.2876195903	-5.3718770982	-2.2998560837	-0.293724
H	 1.0172114279	 2.0123754297	-0.1151458639	 0.115508
H	-0.5457652222	 1.9647254941	-0.9399137709	 0.115861
H	-0.4794215893	 2.0503583278	 0.8241473508	 0.122366
H	 0.5206843064	-0.2456851172	 0.9313464426	 0.117905
H	-1.0219940687	-0.2933482218	 0.1159697566	 0.120387
H	 0.1593719125	-0.263316787	-2.1201353745	 0.126289
H	 1.7010342553	-0.2220035487	-1.3074186464	 0.123189
H	 0.9611100878	-2.3928378285	-3.2693146117	 0.17137
H	 2.4394628579	-2.4408933163	-2.3335304254	 0.173928
