14
gdb 4364	4.00567	1.84919	1.26621	2.808	67.96	-0.2225	0.0013	0.2238	895.13	0.1103	-378.798322	-378.791746	-378.790802	-378.828682	26.199	
N	 0.0143738014	 1.4015301721	 0.2125026317	-0.589212
C	-0.0010588161	 0.027838992	 0.0720622483	 0.378477
C	-1.2025158441	-0.6806461518	 0.0162754307	-0.308441
C	-1.1420757655	-2.0695452274	-0.0701070477	 0.453111
O	-2.3031225618	-2.7590576429	-0.1247809027	-0.42381
N	-0.0189248727	-2.78146396	-0.1073142365	-0.386588
C	 1.1252145385	-2.0856854483	-0.054339057	 0.007999
C	 1.1991562882	-0.7088948645	 0.0337386114	-0.211849
H	 0.8602538631	 1.8717421776	-0.0690560242	 0.253366
H	-0.823538704	 1.8914766858	-0.059967279	 0.25388
H	-2.1634929871	-0.1804323618	 0.0417576858	 0.092154
H	-2.0454849577	-3.6898033539	-0.1817688687	 0.294228
H	 2.0384584126	-2.6750884264	-0.0869935083	 0.105046
H	 2.159655155	-0.2075777004	 0.0768207362	 0.081637
