19
gdb 40644	3.19316	1.34992	1.24815	0.9035	73.85	-0.225	0.0845	0.3095	1082.6446	0.160118	-422.976884	-422.968922	-422.967978	-423.010456	29.938	
C	 0.2086587382	 1.4341763277	 0.0495820788	-0.282914
C	 1.2982562588	 0.4467919704	-0.2622254589	-0.251161
C	-0.1150993285	-0.0402977835	-0.016298057	-0.016829
C	-0.487183944	-0.7730974662	 1.240046128	-0.11831
C	-0.7933511458	-2.2646367453	 1.2605247854	 0.034305
O	-0.3486158033	-3.0470467857	 0.1822832236	-0.260825
C	 1.0644069392	-2.9311763824	 0.1064598467	 0.031439
O	 1.5299470995	-2.2930693571	 1.285992573	-0.254152
C	 0.4189078555	-1.7691521258	 1.9652188483	 0.037795
H	 0.216432994	 1.9008038257	 1.029420111	 0.110198
H	-0.1576836169	 2.0747514901	-0.7450122699	 0.110377
H	 1.6818819886	 0.4077763715	-1.2761362624	 0.109025
H	 2.0337701125	 0.2359782869	 0.5042543864	 0.130134
H	-0.6606140193	-0.3624006993	-0.8991448382	 0.095723
H	-1.1203151272	-0.2174684835	 1.9308732361	 0.092585
H	-1.6837174488	-2.6669836145	 1.7278269103	 0.108106
H	 1.5099955893	-3.9320161002	 0.0338283488	 0.110932
H	 1.3389402127	-2.3304079547	-0.7710016163	 0.105005
H	 0.5632883755	-1.7393994243	 3.0382082062	 0.108567
