21
gdb 86980	6.4259	0.65029	0.62893	1.3075	86.29	-0.2491	0.0356	0.2847	1817.4012	0.179938	-387.035293	-387.025362	-387.024418	-387.070881	36.375	
C	-0.3243733604	 1.391896851	-0.0056648381	-0.390587
C	 0.0364668276	-0.0904159718	 0.0457056894	 0.019536
C	 1.1787374947	-0.5143279228	-0.9279221874	-0.269578
C	 2.1650720382	-0.4828532063	 0.2541550156	 0.188065
C	 0.9590528717	-0.4906529955	 1.2386946905	-0.264811
O	 3.0561150978	-1.5717417213	 0.2724548876	-0.254555
C	 3.939021367	-1.5380282377	 1.3783630862	-0.218794
C	 4.8359219548	-2.6856204528	 1.3358242829	 0.280476
C	 5.586647672	-3.6227029665	 1.3252435365	-0.417157
H	 0.5651028878	 2.0273968984	 0.0750222062	 0.113239
H	-0.8244561482	 1.6428614718	-0.9475292389	 0.11513
H	-0.998597792	 1.662041469	 0.8145179677	 0.114124
H	-0.8743474084	-0.6888796785	-0.0398020612	 0.072676
H	 1.06051239	-1.5403727373	-1.2850256546	 0.114337
H	 1.3894372629	 0.1386530527	-1.7785999114	 0.096853
H	 2.7270427954	 0.4623892458	 0.30915906	 0.06345
H	 0.9890031072	 0.1873690566	 2.0961305571	 0.092242
H	 0.7609491018	-1.5076060803	 1.5891909393	 0.107299
H	 4.5293806569	-0.6052286303	 1.370502753	 0.1169
H	 3.3766607679	-1.5461787259	 2.3267220139	 0.121951
H	 6.2478335054	-4.4534526082	 1.3091714657	 0.199203
