19
gdb 39159	3.01918	1.75981	1.29261	1.5169	82.4	-0.2046	0.0207	0.2253	1009.8087	0.161618	-385.887714	-385.880612	-385.879668	-385.919013	29.11	
C	-0.0113759681	 1.5167714595	-0.0257828731	-0.362057
C	 1.3131538684	 0.7662530205	-0.0060016322	-0.124215
C	 1.963878964	 0.5314430917	 1.3611068189	-0.212794
C	 0.8471988326	-0.0795471214	 2.2752414163	-0.353829
C	-0.0730718627	-0.7166406936	 1.2794507913	 0.313869
C	-0.7258757882	-1.8583447042	 1.0894362903	-0.298214
C	-1.1702814004	-1.9279253886	-0.3557536994	-0.128204
O	-0.6103747329	-0.7642354045	-0.9921686083	-0.317233
C	-0.0092632597	 0.0171454225	-0.0019165138	 0.409824
H	-0.3397053958	 2.0920726435	 0.8363552514	 0.104951
H	-0.2768062262	 1.9545952152	-0.9826345558	 0.121472
H	 1.9430269277	 0.8295745582	-0.8858063792	 0.09281
H	 2.780281923	-0.1908529888	 1.2508256203	 0.107641
H	 2.3915435647	 1.4421258708	 1.7942885743	 0.099214
H	 1.2441401355	-0.7788601111	 3.0143456975	 0.113403
H	 0.3328309383	 0.7148243019	 2.8295563922	 0.118114
H	-0.872902213	-2.6697147095	 1.7904862777	 0.100475
H	-0.792094886	-2.8305947829	-0.857718024	 0.108586
H	-2.2643329012	-1.9184003892	-0.4825078242	 0.106188
