14
gdb 57244	2.0505	1.47628	1.2282	3.2586	69.26	-0.2829	-0.0958	0.187	1079.9064	0.096136	-436.660549	-436.650722	-436.649778	-436.695514	34.395	
C	-0.4101981036	 1.7116925682	-0.0629406795	-0.410188
C	 0.037256552	 0.2518485339	-0.0021828409	 0.080925
O	 0.9221175344	 0.1157381405	 1.1038722416	-0.432985
C	-1.0885325371	-0.6818899904	 0.0794724073	 0.296861
C	-1.9754302032	-1.4916954098	 0.1330386538	-0.458627
C	 0.8321036336	-0.1143019455	-1.2861589936	 0.297027
O	 0.8453615851	 0.5226455637	-2.302246614	-0.265771
C	 1.6342707515	-1.3514526623	-1.1463729765	 0.230023
N	 2.2447112179	-2.3272088238	-1.0361349522	-0.299716
H	 0.4712318136	 2.3566992209	-0.0755178976	 0.143702
H	-0.9962030494	 1.8939509706	-0.9642004204	 0.150115
H	-1.0102802735	 1.939252125	 0.8192814722	 0.140951
H	 0.9682097804	-0.814361443	 1.3559465252	 0.306308
H	-2.7687098118	-2.197406078	 0.1857078745	 0.221375
