21
gdb 39310	2.74639	1.71327	1.27854	1.8613	80.8	-0.2369	0.0781	0.315	1048.0441	0.186396	-387.073953	-387.066704	-387.06576	-387.105511	29.868	
C	-0.0198643461	 1.5617721679	-0.0295491266	-0.288903
C	 1.2818948626	 0.8103260821	 0.0015680472	-0.009624
C	 2.1662138706	 0.7964048788	 1.2379484255	-0.220474
C	 1.3650049889	 0.7069926238	 2.5448250014	-0.234165
C	 0.4311040179	-0.5076771081	 2.5581775147	-0.049521
C	-0.9318795421	-0.2970464609	 3.2473590077	-0.092629
O	-1.5948236785	-0.1455421055	 1.9749922391	-0.293894
C	-0.4309591799	-0.6714523416	 1.2782879632	 0.130133
C	-0.0353488274	 0.0511484581	 0.0154213475	-0.050205
H	-0.3580567945	 2.0854472049	 0.8565531832	 0.122254
H	-0.3156741459	 2.0351622132	-0.9590552942	 0.107179
H	 1.8320014649	 0.7765674978	-0.9347530722	 0.080792
H	 2.8539297728	-0.0582159251	 1.1718718546	 0.094889
H	 2.7938229406	 1.6958471162	 1.2533197234	 0.098274
H	 2.0486939792	 0.6619664919	 3.3993780777	 0.095823
H	 0.7801862876	 1.6250094717	 2.673856179	 0.106347
H	 0.9779872331	-1.4083889151	 2.8497627537	 0.069039
H	-1.301332756	-1.1722468484	 3.8004848555	 0.090879
H	-1.0407779016	 0.5944723428	 3.8767558151	 0.09826
H	-0.5958829768	-1.7329089738	 1.0433962228	 0.06497
H	-0.3177233295	-0.450348781	-0.9046292483	 0.080576
