17
gdb 68630	2.47636	1.65823	1.375	3.3822	71.81	-0.2496	0.0045	0.2541	987.172	0.137894	-417.982943	-417.975411	-417.974467	-418.014682	29.757	
O	 0.0679286241	 1.3819784288	-0.0625101298	-0.472363
C	 0.0444731655	 0.0027911291	-0.0092311045	 0.39159
C	 0.3232181312	-0.8272897432	-1.27901926	-0.212024
N	-0.4136012206	-1.9525691978	-0.574425622	-0.133193
C	 0.5287352287	-2.1914963403	 0.5731550882	-0.175232
C	 0.8907543088	-0.7470005449	 1.0374347821	-0.308248
C	-1.287872094	-0.849243575	 0.0012556321	-0.185177
C	-1.9923881139	-1.106515311	 1.244806962	 0.2781
N	-2.5279856045	-1.2720399136	 2.2565956762	-0.334018
H	 0.0724819341	 1.7346694175	 0.8340797285	 0.294864
H	-0.2350702129	-0.4928964752	-2.155312605	 0.123011
H	 1.359561584	-1.0519254401	-1.5404302472	 0.112041
H	 0.0281985697	-2.7815886697	 1.342307134	 0.137062
H	 1.3878576394	-2.7551460695	 0.2051829205	 0.11759
H	 1.9514796559	-0.503581386	 0.9378924167	 0.113288
H	 0.5751633492	-0.5327123031	 2.0628251916	 0.120576
H	-1.9899878846	-0.5068215359	-0.7616263834	 0.132132
