21
gdb 104651	2.30875	1.26707	0.99922	1.6635	79.66	-0.2404	-0.029	0.2113	1301.1483	0.179535	-424.220407	-424.210439	-424.209495	-424.255328	36.34	
C	 0.1126395683	 1.7111439324	 0.5594652026	-0.261129
O	 0.2082943467	 0.3022262256	 0.6674807438	-0.288001
C	-0.8935844915	-0.3894230838	 0.129004717	 0.328524
C	-1.1867682267	-0.3005891696	-1.3949884735	-0.300531
C	-1.3340571086	-1.8490237158	-1.4232439489	 0.054309
C	-0.731484281	-2.6181663	-2.5876354093	-0.408367
C	-0.6143418175	-1.9109412318	-0.0474515378	-0.303855
C	-2.1181808905	-0.1917872024	 1.007824011	 0.09747
O	-3.2610573161	-0.2189435707	 0.627917426	-0.249327
H	 1.015151439	 2.1267838125	 1.0125486053	 0.133228
H	 0.0577911691	 2.0355412977	-0.4889345721	 0.117182
H	-0.7640943112	 2.1117868996	 1.0899669756	 0.113704
H	-2.0524517766	 0.2919855018	-1.6947899105	 0.114691
H	-0.2948746117	 0.0319480447	-1.9341070602	 0.103114
H	-2.3885038433	-2.1121364033	-1.3010967004	 0.094245
H	 0.325501184	-2.3625870147	-2.7248042526	 0.11169
H	-0.7949285538	-3.6999132916	-2.4248785711	 0.116946
H	-1.2541246933	-2.3920258239	-3.5236692524	 0.11829
H	 0.4654428878	-2.053597171	-0.1488041135	 0.115351
H	-0.998092182	-2.593637799	 0.7150056126	 0.106044
H	-1.8575264208	-0.0551715766	 2.0832584482	 0.086422
