15
gdb 25673	5.83621	0.85151	0.74655	1.2769	90.16	-0.2424	-0.0556	0.1869	1480.4094	0.113751	-379.697816	-379.689683	-379.688738	-379.732704	28.433	
C	-0.0080678268	 1.467599137	 0.0106687939	-0.508781
C	-0.0043624199	 0.0143752516	 0.0026594052	 0.265923
C	-0.0168941216	-1.1917164098	-0.0038581953	-0.111612
C	 0.0080106949	-2.6165333204	-0.0116145682	 0.148134
C	 1.2344728255	-3.3066511402	-0.0222094574	-0.058528
N	 1.3081852832	-4.6334056112	-0.0297410972	-0.231802
C	 0.1445603893	-5.2892310002	-0.0267261295	-0.006582
C	-1.0747466015	-4.6156977734	-0.0162770713	-0.025462
N	-1.1580219779	-3.2873015096	-0.0086778389	-0.296452
H	 1.0110086416	 1.868391721	 0.0029890334	 0.154858
H	-0.5318084812	 1.8639973408	-0.8662246061	 0.158657
H	-0.5146220119	 1.8542890053	 0.9018842414	 0.158647
H	 2.1690990289	-2.7527630641	-0.0244902513	 0.119731
H	 0.1858108892	-6.374994722	-0.0327797595	 0.118255
H	-2.0131278416	-5.1650547247	-0.0139609491	 0.115014
