13
gdb 25537	6.64072	0.85633	0.77221	3.8206	63.64	-0.2253	-0.0153	0.21	1359.0521	0.089088	-489.91746	-489.909616	-489.908672	-489.950762	27.889	
N	-0.1808016125	 1.3603128117	 0.1091760683	-0.411001
C	-0.3482337285	 0.1846446009	-0.2927969236	 0.108931
O	-0.1415506742	-0.8478352118	 0.5895550869	-0.209322
C	-0.5778769516	-2.0719137617	 0.2279197595	 0.381945
C	-1.6840853094	-2.5185489814	-0.3830761893	-0.159209
O	-1.6080516501	-3.899517876	-0.4818307613	-0.205776
C	-0.4304220278	-4.329060933	 0.0975100623	 0.504486
O	-0.0816997054	-5.4719852099	 0.1753601908	-0.390167
N	 0.2041895792	-3.1787412421	 0.5299021491	-0.437612
H	-0.3284798022	 2.0203592038	-0.6515546266	 0.24751
H	-0.6337001341	-0.1730179188	-1.2879813023	 0.118417
H	-2.5686863289	-2.0375367756	-0.7566947995	 0.161637
H	 1.0956476754	-3.1712828062	 0.9944127056	 0.29016
