24
gdb 58218	2.45593	1.03008	0.89124	3.9574	86.88	-0.2373	0.0339	0.2712	1461.6548	0.215229	-405.585415	-405.574119	-405.573175	-405.622058	40.746	
C	 0.0225927801	 1.5596834087	 0.0914726565	-0.397118
C	 0.0293346015	 0.0242324064	 0.0308239302	 0.033483
C	 0.7787379826	-0.5499145372	 1.2407856965	-0.399105
C	-1.4100659408	-0.5460006639	-0.0693407362	 0.022366
C	-2.1937634783	-0.0092065983	-1.2786326803	-0.408897
N	-1.4284229962	-2.0112073878	-0.0436180614	-0.027375
C	-0.8115631744	-2.7716490434	-1.1192536246	-0.355253
C	-2.0497188626	-2.6883870454	 0.9657927658	 0.15133
O	-2.1335362008	-3.8952703067	 1.0674472943	-0.350806
H	 1.0401072782	 1.9387111319	 0.2280690893	 0.11656
H	-0.3762118711	 2.013894041	-0.8189975657	 0.118046
H	-0.5769013323	 1.917178584	 0.9377709817	 0.114678
H	 0.5697150842	-0.2691127554	-0.880030051	 0.076712
H	 0.8400693871	-1.6403527614	 1.2074284898	 0.129394
H	 1.7986972176	-0.1554985476	 1.2835765756	 0.113989
H	 0.2792205582	-0.2738719795	 2.1773818516	 0.113326
H	-1.9424972404	-0.2349768042	 0.8394058172	 0.087471
H	-1.6501768748	-0.1625502979	-2.2165776034	 0.121353
H	-3.1593876271	-0.5166227817	-1.3569476099	 0.124352
H	-2.3838922816	 1.0614845253	-1.1774968907	 0.126617
H	 0.2695119854	-2.599186739	-1.1644585377	 0.125128
H	-0.9950463495	-3.8264808384	-0.9148489261	 0.169232
H	-1.2450649178	-2.5121590329	-2.090580247	 0.124969
H	-2.486963037	-1.9961539567	 1.7119283255	 0.069547
