23
gdb 116003	1.73355	1.59185	0.91641	0.9493	89.	-0.2303	0.0285	0.2587	1378.3394	0.205357	-388.30374	-388.29373	-388.292786	-388.339181	36.567	
C	-0.279407386	 1.4815782234	-0.0572881431	-0.377612
C	 0.1298287236	 0.0023041445	 0.0525120443	-0.28898
C	 0.7964964814	-0.5271249322	-1.1815437885	 0.328634
C	 2.0429360232	-0.9848640988	-1.3093113912	-0.187874
C	 2.3722398847	-1.423356726	-2.7148044725	-0.261176
C	 0.9834258588	-1.4575406358	-3.3984491387	-0.237804
C	 0.073862372	-0.5668078467	-2.5151377884	 0.053829
O	-1.2405886653	-1.0717597644	-2.3314864557	-0.250281
C	-2.0629527801	-0.9410773134	-3.4666836534	-0.232005
H	 0.5891744009	 2.1190114224	-0.2521156264	 0.114135
H	-0.9986801486	 1.632094585	-0.868029408	 0.123424
H	-0.7488725095	 1.8226125219	 0.8704934999	 0.111051
H	 0.7978470268	-0.1340471636	 0.9103078794	 0.095213
H	-0.7696259023	-0.5942022962	 0.2474884352	 0.119743
H	 2.7694685984	-1.0163542873	-0.5032550131	 0.084258
H	 3.0433582259	-0.703643025	-3.2044687004	 0.104565
H	 2.8859650056	-2.3909449738	-2.7524605513	 0.102602
H	 1.0147055949	-1.146923421	-4.4457991502	 0.092173
H	 0.5745114516	-2.4727144252	-3.3593436278	 0.113101
H	-0.0060416547	 0.4523319853	-2.9371729206	 0.062907
H	-2.1360045923	 0.1076953244	-3.7975960106	 0.100274
H	-1.7033009372	-1.5422319586	-4.3151077321	 0.105574
H	-3.0599419618	-1.2928827191	-3.1891297467	 0.124248
