21
gdb 96388	1.99762	1.64461	1.18361	4.5074	81.65	-0.2358	0.0275	0.2633	1155.1837	0.184949	-383.298441	-383.289651	-383.288707	-383.33157	33.962	
C	-0.0250372306	 1.5669601364	-0.0213196534	-0.418323
C	 0.0496710181	 0.038676832	-0.0249512293	 0.024437
C	 0.6890839676	-0.5228140957	-1.3050788397	-0.198586
C	 0.7576160399	-2.0564544472	-1.2728453328	-0.207907
C	 1.4630738041	-2.5402625466	 0.0026797147	-0.167821
N	 0.8925544822	-1.9954343462	 1.2419189303	-0.28682
C	 0.7810390979	-0.5328357339	 1.2260564816	-0.146622
C	 2.1303108765	 0.0521413384	 1.3606177183	 0.317032
N	 3.1791997927	 0.5299983395	 1.4446176759	-0.34233
H	 0.9725170446	 2.0128402545	-0.0856925069	 0.14385
H	-0.6085910379	 1.9233885747	-0.8759190062	 0.117563
H	-0.5023675054	 1.9438135664	 0.8899683308	 0.114326
H	-0.9727713299	-0.3603092433	 0.0467326152	 0.071797
H	 0.122021714	-0.1796918748	-2.1776702611	 0.096737
H	 1.702022148	-0.1106334366	-1.4095356171	 0.117429
H	-0.2595682893	-2.4714150803	-1.3047838578	 0.088939
H	 1.2812922326	-2.4366152128	-2.157511616	 0.099362
H	 1.439276893	-3.631673523	 0.0771505795	 0.105603
H	 2.5204315151	-2.2481184526	-0.0287310306	 0.1287
H	-0.0363508706	-2.378402453	 1.3894546308	 0.221412
H	 0.2252848276	-0.2350383058	 2.1236923439	 0.121222
