18
gdb 14882	3.94581	1.22818	1.01786	2.692	63.83	-0.2468	0.0613	0.3081	1142.3526	0.153344	-422.039264	-422.030526	-422.029582	-422.073303	30.845	
O	-0.2127786525	 1.5262186798	-0.3285177546	-0.423196
C	-0.0066759119	 0.216762101	 0.1833366056	-0.105122
C	-1.334058017	-0.5069739077	 0.056963726	-0.04174
C	-1.7777335456	-0.9282913395	-1.3585555926	-0.072476
O	-1.9192685271	-2.311086811	-0.9542426581	-0.309334
C	-1.4342496771	-2.0200164291	 0.3837323458	 0.09404
C	-0.1834629257	-2.8443900627	 0.6556349743	-0.068811
O	-0.4827919418	-4.2177582322	 0.499096763	-0.423574
H	 0.627587455	 1.9935623145	-0.3132330656	 0.289919
H	 0.7763195613	-0.3081968462	-0.3844682692	 0.091813
H	 0.3110159683	 0.2434476895	 1.23829192	 0.092102
H	-2.0925446274	 0.0817597899	 0.5778163613	 0.094479
H	-2.7252546062	-0.5124951293	-1.7165162144	 0.110243
H	-1.0161975338	-0.8022258175	-2.1386362413	 0.103917
H	-2.1970760618	-2.2787001764	 1.128889952	 0.085316
H	 0.6307944609	-2.5373427195	-0.0190146925	 0.08195
H	 0.1590224335	-2.702699741	 1.6868982924	 0.106471
H	-0.9124663012	-4.2921793225	-0.3627002521	 0.294004
