20
gdb 41971	2.49228	2.05371	1.64317	0.4379	76.66	-0.2203	0.0817	0.302	922.7674	0.175496	-403.13426	-403.127463	-403.126519	-403.165212	28.228	
C	-0.0553729061	 1.5258636188	-0.1351271453	-0.241498
C	 1.4240614115	 1.9424352175	 0.0313434852	-0.197531
C	 2.0593064044	 0.8107738024	 0.8734568107	 0.003353
C	 1.9763946524	 1.0822808865	 2.373094704	-0.092026
O	 0.6261283795	 1.2488108392	 2.7753951247	-0.243239
C	-0.0936989186	 0.0371073677	 2.6472038094	-0.1191
C	 0.0955720993	-0.6557807142	 1.3099214967	-0.023503
C	-0.0041692884	 0.0044701497	-0.0164846494	-0.033005
N	 1.3177325639	-0.4325802121	 0.5022355158	-0.133494
H	-0.6805558183	 1.979405383	 0.6373055102	 0.119186
H	-0.4604165796	 1.8251789243	-1.1052612231	 0.097202
H	 1.9095879438	 1.9745380279	-0.9491675409	 0.103036
H	 1.545328463	 2.9266869483	 0.492481419	 0.100969
H	 3.1099545681	 0.6577643509	 0.6038020335	 0.078702
H	 2.4462187384	 0.2595482994	 2.9372786457	 0.09137
H	 2.4949340023	 2.0116757053	 2.6274109705	 0.107207
H	 0.2176437339	-0.6622799984	 3.442100723	 0.096394
H	-1.1490898533	 0.279207106	 2.8147129748	 0.114315
H	-0.1821508868	-1.7091444744	 1.3573623136	 0.087033
H	-0.3853729595	-0.5796143079	-0.8508636082	 0.084628
