14
gdb 125328	5.48887	1.33036	1.07801	6.7498	69.65	-0.2382	-0.0101	0.2281	1050.1732	0.103036	-432.883476	-432.876699	-432.875755	-432.914665	25.716	
C	 0.096421994	 1.4687270513	 0.0207755608	-0.489543
C	-0.0823957751	-0.0015634492	 0.0113985133	 0.321551
C	-1.1576861819	-0.7950590925	-0.1831976309	-0.228516
N	-0.6924873521	-2.1106300385	-0.0704366084	-0.052426
C	-0.9498572431	-3.4596187922	-0.0989058314	-0.012791
N	 0.1632153221	-4.1205106681	 0.1268421339	-0.21952
N	 1.2075516879	-3.2207752661	 0.3140771829	-0.35406
C	 0.6462987734	-2.0542107652	 0.1872958503	 0.502652
O	 1.0540424963	-0.7682547291	 0.2445822741	-0.243722
H	 0.8115916111	 1.7823267003	-0.7470504339	 0.156888
H	-0.8588782028	 1.9613925957	-0.1714914288	 0.145657
H	 0.4776033693	 1.8120240957	 0.988375894	 0.156886
H	-2.1821459069	-0.5377486738	-0.3850036757	 0.167433
H	-1.9197663922	-3.8916028483	-0.2790704702	 0.149512
