14
gdb 25006	5.00825	1.3582	1.07569	2.9678	68.92	-0.2097	-0.0202	0.1895	1029.91	0.103388	-436.749515	-436.742962	-436.742017	-436.78064	25.418	
O	 0.0033762299	 0.0416492633	 0.0033810461	-0.303332
C	-0.0427499193	 1.2294805825	 0.0108253774	 0.402465
C	-1.2891262148	 2.1396886228	 0.0330629597	-0.330633
N	-0.6814655845	 3.4422020856	 0.0310440495	-0.040118
C	-1.0293003763	 4.7792530325	 0.0426412336	-0.139496
C	 0.1466117766	 5.4918030855	 0.0292288066	-0.129366
C	 1.2547445556	 4.5775627509	 0.0088609351	-0.328324
C	 0.6774131406	 3.3418390426	 0.0109774672	 0.423326
O	 1.0819924557	 2.0289711932	-0.0015273764	-0.233656
H	-1.9068209815	 1.9381849169	-0.8486457088	 0.164791
H	-1.8816115565	 1.9291452052	 0.9298274066	 0.164751
H	-2.0586560682	 5.0947842615	 0.0590134421	 0.127147
H	 0.2223743196	 6.5681170218	 0.033449466	 0.106052
H	 2.305446803	 4.8111548955	-0.0050686246	 0.116393
