20
gdb 116638	3.88533	0.96225	0.83798	2.3343	79.72	-0.2406	0.0178	0.2585	1433.9584	0.171445	-440.288168	-440.279101	-440.278157	-440.323564	32.853	
C	 0.2614540044	 1.5421083873	 0.0987861408	-0.362684
C	-0.0821950806	 0.0590332955	-0.0754491661	-0.138982
N	 0.6192750089	-0.4972036754	-1.2262446977	-0.292927
C	 1.6246007788	-1.2415518874	-1.0638731424	 0.377298
C	 2.4097660805	-1.7240891355	-2.269615224	-0.172974
O	 3.0195277051	-2.9903824708	-2.0871602635	-0.240553
C	 3.792689163	-2.9979997851	-0.9035449959	-0.089346
C	 2.8837986824	-2.7755398327	 0.2904979396	-0.077265
O	 2.1383027846	-1.5558744276	 0.1666995088	-0.262316
H	 1.3195814894	 1.6687959018	 0.3484665993	 0.117624
H	 0.0617506556	 2.0947112438	-0.823832394	 0.124063
H	-0.3347450009	 1.9825558058	 0.9042449946	 0.109297
H	 0.13439695	-0.485005182	 0.8517011316	 0.101644
H	-1.1557249671	-0.0364107894	-0.2768222028	 0.100903
H	 1.7355452128	-1.7966054718	-3.1224162872	 0.143274
H	 3.1802806854	-0.9668976167	-2.4990994871	 0.110644
H	 4.2786024002	-3.9757169757	-0.8358883477	 0.117985
H	 4.5727163277	-2.2191857211	-0.9423557172	 0.098151
H	 2.1812216269	-3.614042794	 0.3806875584	 0.118159
H	 3.4522054128	-2.6888843689	 1.2207908224	 0.118007
