18
gdb 10483	2.69117	1.62036	1.21082	1.274	72.66	-0.2586	0.0467	0.3053	1053.6191	0.151168	-347.755653	-347.746744	-347.7458	-347.789565	32.587	
C	 0.0097675536	 1.0862632296	-0.1239599253	-0.387879
C	-0.449194008	-0.3553041325	-0.3768081469	-0.250556
C	-1.5011510348	-0.8328585899	 0.6065352186	 0.428058
C	-2.8541868987	-0.1180686806	 0.5876831614	-0.426923
C	-3.559499651	-0.2550730724	-0.6812453697	 0.312872
C	-4.1270237549	-0.3780020789	-1.733656237	-0.460705
C	-1.4471790466	-2.2002393857	 1.1389515825	-0.22738
O	-1.0216418794	-1.0861244715	 1.9334259974	-0.281422
H	 0.8264507528	 1.3534456621	-0.8006764759	 0.116305
H	-0.7978056009	 1.8067694669	-0.2875262028	 0.121011
H	 0.3682882742	 1.2026880275	 0.9033203617	 0.132903
H	-0.850255419	-0.4519552567	-1.392283487	 0.117211
H	 0.410965891	-1.028913576	-0.3049531548	 0.103092
H	-3.4634971296	-0.5181376153	 1.4054690267	 0.138803
H	-2.7017359312	 0.9448882529	 0.8126147549	 0.139015
H	-4.6366469049	-0.4833806365	-2.6592102338	 0.198447
H	-2.361132468	-2.6902631013	 1.4726108843	 0.113355
H	-0.6535649146	-2.8730568218	 0.8172970357	 0.113792
