17
gdb 67442	2.30158	2.07208	1.85865	2.5504	72.18	-0.2299	-0.0361	0.1938	865.0579	0.137232	-417.923247	-417.916245	-417.915301	-417.954109	28.774	
O	-0.1925028076	 1.4300112511	-0.1585711673	-0.487865
C	-0.0620661063	 0.0544310588	-0.0692613742	 0.410646
C	-1.2455009448	-0.8387309098	 0.3049666511	-0.107787
C	-0.630545596	-1.8913692922	-0.7164892494	-0.219772
C	 0.5718024291	-0.9420384679	-1.0834915447	-0.121717
N	 1.8173432099	-1.1709415757	-0.2145093365	-0.340662
C	 0.9522905369	-0.6545999676	 0.8505043178	 0.077954
N	 0.5208765658	-1.3049448763	 1.8490935457	-0.181212
C	-0.9690396035	-1.1233849168	 1.8062340123	-0.184482
H	 0.6783818751	 1.839579461	-0.1047503835	 0.285655
H	-2.2558141262	-0.5045952052	 0.0657043349	 0.07874
H	-0.3523196708	-2.864619278	-0.3097209314	 0.129034
H	-1.2841440765	-2.0314944315	-1.5792871515	 0.114025
H	 0.7907824257	-0.7568999688	-2.1356816201	 0.086608
H	 2.5205739332	-0.4963235625	-0.5197695403	 0.22461
H	-1.3256336035	-0.3190575145	 2.4628942596	 0.116405
H	-1.4155771407	-2.0597495641	 2.1539721876	 0.119819
