12
gdb 25378	4.93194	0.98492	0.82097	2.2348	70.59	-0.281	-0.1114	0.1696	1263.1181	0.076966	-472.66437	-472.656949	-472.656004	-472.697012	25.534	
O	 0.1225131003	-0.084801588	-0.0020463893	-0.255924
C	 0.0632235756	 1.1211502219	 0.0082800838	 0.068107
C	 1.220515162	 2.0121226802	 0.0024628084	 0.232797
C	 1.3401537904	 3.3795210587	 0.0121001959	-0.143238
N	 2.6639109349	 3.7252515224	-0.0000486347	-0.267285
C	 3.2935941627	 2.5800148904	-0.0161436714	 0.296134
O	 2.4800539035	 1.4982837976	-0.0157767722	-0.168452
C	 4.7476127238	 2.3054151646	-0.0345983358	 0.091939
O	 5.585861048	 3.1682011615	-0.0370783202	-0.224029
H	-0.9011027521	 1.6706819802	 0.0234902749	 0.098959
H	 0.554695308	 4.1200496458	 0.0268321272	 0.156546
H	 4.9870163028	 1.2235022947	-0.0458736866	 0.114447
