18
gdb 28495	3.01826	1.40695	0.97185	1.4965	85.36	-0.2104	-0.0259	0.1844	1208.8937	0.148278	-398.202927	-398.194145	-398.1932	-398.236063	33.186	
C	-0.0114355365	 1.5159279556	-0.0407781207	-0.487207
C	 0.0150408232	 0.0110096943	-0.0059952122	 0.260712
N	 0.0019058793	-0.6351576888	-1.1792639608	-0.282867
C	 0.0291809634	-1.960018731	-1.1670877346	-0.082992
C	 0.0655863919	-2.6835227461	 0.0356044085	 0.345468
N	 0.1495713618	-4.0625514788	 0.0621992654	-0.570023
N	 0.0681686189	-2.0488140418	 1.2109856183	-0.365081
C	 0.0481644297	-0.7124849552	 1.1989889724	 0.277251
C	 0.056136368	-0.020551015	 2.5359108144	-0.485028
H	 0.8699853477	 1.9511418263	 0.4456256376	 0.125451
H	-0.0353250043	 1.850725984	-1.0789737327	 0.13776
H	-0.8895030825	 1.9215524311	 0.476421294	 0.124711
H	 0.0227031912	-2.4707126769	-2.1279989059	 0.095816
H	-0.2301663684	-4.5539255058	-0.7318564919	 0.252499
H	-0.0943545376	-4.4680478453	 0.9537952916	 0.254484
H	 0.9292753864	 0.6340855265	 2.6407600322	 0.132119
H	-0.829078165	 0.6133929132	 2.6638774132	 0.130805
H	 0.0760634428	-0.7641632963	 3.333647971	 0.136124
