22
gdb 113807	3.83174	0.84217	0.75467	1.7049	84.44	-0.2229	0.0828	0.3057	1574.185	0.192742	-404.293981	-404.283956	-404.283012	-404.329705	36.801	
C	-0.245044778	 1.5122592284	-0.1064881627	-0.410899
C	-0.0492041665	 0.0221832322	 0.0666682892	 0.031973
C	 1.2622624041	-0.6282767451	-0.2224225064	-0.256875
N	 0.7569269542	-0.5584741044	 1.1456533909	-0.08448
C	 1.4362994613	 0.299282478	 2.0769015529	 0.037653
C	 0.8220035882	 0.4700885999	 3.4415030862	-0.302389
C	 2.0913280389	-0.3330605539	 3.2844033401	-0.013184
C	 2.0679294652	-1.8229783867	 3.4950531064	-0.097225
O	 2.1422878731	-2.0684217678	 4.8969826305	-0.424213
H	 0.6869640003	 2.0715412291	 0.0049035264	 0.119677
H	-0.6388187046	 1.7208354129	-1.1069165217	 0.120981
H	-0.963916588	 1.9029947907	 0.6217513742	 0.127154
H	-0.9479369664	-0.5609951319	-0.1320402331	 0.088208
H	 1.3176932372	-1.6195241762	-0.6657834328	 0.110323
H	 2.0872365781	 0.032202879	-0.4899732477	 0.104692
H	 1.9586973153	 1.163675249	 1.6635813668	 0.072446
H	 0.8677281692	 1.4427352199	 3.9181026321	 0.108096
H	-0.0864416811	-0.0900125778	 3.6343316859	 0.120103
H	 3.006562853	 0.1437671866	 3.6242225747	 0.086765
H	 1.1518231833	-2.2394104367	 3.0569065702	 0.10076
H	 2.9221053092	-2.2845953147	 2.9727117189	 0.078583
H	 2.1483828141	-3.0212894107	 5.027397099	 0.281853
