21
gdb 67776	2.61775	1.99999	1.51565	0.291	85.7	-0.2128	0.0183	0.2312	968.1775	0.185087	-349.944023	-349.936823	-349.935879	-349.974932	30.839	
C	 0.0221140679	 1.5831968842	-0.0488382415	-0.517685
C	 0.0315386816	 0.0708362312	 0.0022055874	 0.315668
C	 0.5022222306	-0.7002871119	-1.232277979	-0.149604
C	 0.3954363357	-1.9817452	-0.8779594749	-0.112249
C	-0.1330207409	-1.9068316725	 0.5474128375	-0.080111
C	 0.7088416924	-0.740517785	 1.1847301795	-0.029812
C	-0.0353363978	-0.3407893341	 2.4571195801	-0.240115
C	-1.5005264172	-0.3681553423	 1.9154467963	-0.240114
C	-1.2247989867	-0.7766674655	 0.4698861849	-0.029809
H	 1.0274048757	 1.9766753081	-0.2386673586	 0.117052
H	-0.6302236113	 1.9456358885	-0.8516845008	 0.117051
H	-0.332493833	 2.0245193688	 0.8876874424	 0.115849
H	 0.8367643792	-0.2556629989	-2.159946295	 0.093591
H	 0.618157004	-2.880989518	-1.4347302818	 0.097716
H	-0.320288353	-2.8294362351	 1.1006492408	 0.052304
H	 1.7979208416	-0.8217584279	 1.221792416	 0.053379
H	 0.1260910588	-1.0544828854	 3.2710433221	 0.095479
H	 0.2623936207	 0.6458587974	 2.8258887018	 0.096276
H	-2.128849746	-1.0966400952	 2.4373802162	 0.095475
H	-1.9987529676	 0.6036038393	 1.989999638	 0.096281
H	-2.0728139247	-0.8941302855	-0.2091862214	 0.05338
