11
gdb 131448	3.61972	1.83284	1.21674	2.6283	57.18	-0.2715	-0.0293	0.2422	886.8592	0.068717	-484.840334	-484.834369	-484.833425	-484.870754	22.637	
O	-0.0794012282	 1.3040854059	 0.0098541384	-0.386727
C	-0.023566354	-0.0155532962	 0.0024084036	 0.507224
N	 1.0606070581	-0.740408393	-0.0065037143	-0.246737
O	 0.6206469069	-2.1084648101	-0.0119362645	-0.24619
C	-0.7125804365	-2.0797097679	-0.0056734659	 0.552759
N	-1.7014107099	-2.9343398659	-0.005778668	-0.392185
C	-2.7705468448	-2.0657200692	 0.0038448527	 0.05162
N	-2.5128342271	-0.7609442614	 0.0097910854	-0.264764
N	-1.1443244884	-0.7963602635	 0.003289071	-0.059277
H	 0.8256978609	 1.6475127875	 0.0075781364	 0.336697
H	-3.7908038169	-2.4205499162	 0.0066072752	 0.147579
