16
gdb 26012	4.30191	1.01318	0.87543	5.9892	71.39	-0.2192	0.0183	0.2375	1273.8212	0.126888	-434.145818	-434.137776	-434.136832	-434.179386	29.933	
N	 0.4098353759	 0.1702078589	-0.7991340525	-0.508123
C	-0.2776404057	 0.2335340646	 0.371932191	 0.379407
O	-0.0957617144	 1.0869576992	 1.219174849	-0.36638
C	-1.38254923	-0.8297896863	 0.5221935939	-0.410959
C	-0.9988229549	-2.2292223049	 0.1502029979	 0.287518
C	-1.044425335	-3.3601432162	 0.9231641188	-0.18096
N	-0.5965644595	-4.3831731573	 0.1139278073	-0.234932
C	-0.2979932283	-3.8415989745	-1.0958940948	 0.012349
N	-0.5311076873	-2.5493087378	-1.111631911	-0.313939
H	 1.1832673833	 0.8033457816	-0.9200447846	 0.250465
H	 0.3206977387	-0.645045294	-1.3921642735	 0.271483
H	-1.7130391107	-0.7862017497	 1.5607678131	 0.12832
H	-2.223435746	-0.5019788216	-0.1034528127	 0.136299
H	-1.345244347	-3.5279226708	 1.9435712647	 0.138191
H	-0.5078994081	-5.3512075203	 0.373092533	 0.272461
H	 0.078996719	-4.4295397908	-1.9190905096	 0.138799
