19
gdb 52847	2.76581	1.01869	0.92299	1.791	86.49	-0.2391	0.0139	0.253	1394.5973	0.1577	-385.875925	-385.866132	-385.865188	-385.912945	35.	
C	-0.164727513	 1.3710529624	 0.2139491191	-0.498252
C	-0.0578290572	-0.07475819	 0.0801955183	-0.019828
C	 0.0361541472	-1.2725837194	-0.0172670113	 0.088186
C	 0.1282901083	-2.7286230697	-0.1835083494	 0.218947
O	 0.8864818901	-3.0404875429	-1.3609866425	-0.464354
C	 0.8103670651	-3.4516231723	 1.0150169241	-0.253692
C	-0.3293052561	-4.0766588054	 1.851457556	-0.257651
C	-1.4951077454	-4.0824382334	 0.8931495783	-0.060107
C	-1.2592182228	-3.3562502711	-0.1952403388	-0.11459
H	 0.8188275894	 1.8509236199	 0.1624671512	 0.15015
H	-0.7865702333	 1.8008386262	-0.5791301223	 0.147912
H	-0.6174025134	 1.6454913645	 1.1732357418	 0.151247
H	 0.6520440075	-2.39471355	-2.0357996071	 0.277899
H	 1.4348203114	-4.2348088235	 0.5777076476	 0.122558
H	 1.45533095	-2.7821848898	 1.5855939333	 0.106482
H	-0.0784203569	-5.0778165163	 2.2196541827	 0.105874
H	-0.561779769	-3.4723656239	 2.7385764827	 0.11229
H	-2.4226100499	-4.6035796447	 1.1055740054	 0.095382
H	-1.9481769619	-3.1712946704	-1.0113778391	 0.091548
