12
gdb 1005	9.01478	1.96543	1.61363	1.6894	67.41	-0.2014	0.0006	0.202	717.6309	0.0915	-286.248451	-286.24246	-286.241516	-286.277934	22.9	
C	 0.0981468744	-1.1887588225	-0.004820054	-0.460851
C	 0.001147478	 0.0130754891	 0.0030443289	 0.270499
C	-0.0914336687	 1.4178485142	 0.0118313024	 0.174675
C	-1.1914022481	 2.2633129853	 0.031013714	-0.245192
C	-0.7117173784	 3.5943179838	 0.0318040457	-0.128199
C	 0.6665621781	 3.5370715589	 0.0131329052	-0.095433
N	 1.0325358946	 2.2224419718	 0.001169043	-0.298296
H	 0.1707233239	-2.2477314786	-0.0116138292	 0.189823
H	-2.2196248439	 1.9382562022	 0.0429528402	 0.102707
H	-1.3056328764	 4.4948599823	 0.0445704923	 0.100414
H	 1.4077349419	 4.3200280672	 0.0074743868	 0.121897
H	 1.9743425746	 1.8712837262	-0.0132815352	 0.267957
