17
gdb 51970	2.71627	0.77496	0.62425	3.0113	76.08	-0.2534	-0.0309	0.2225	1701.6408	0.130993	-421.819155	-421.808965	-421.808021	-421.856507	34.674	
O	-0.8975815992	 1.4292652649	 0.3821624055	-0.236283
C	 0.1959285506	 1.9184980219	 0.4938569576	 0.156943
C	 1.3253785452	 1.7632284849	-0.4965035034	-0.272788
C	 1.8859761444	 3.1193327183	-0.9357799399	-0.319507
C	 3.2417573548	 3.0075867085	-1.6145925368	 0.387285
O	 3.891319584	 1.9917717279	-1.613981266	-0.286893
C	 3.7637809693	 4.2556278666	-2.3545691454	-0.440737
C	 3.422767051	 5.533574138	-1.748444621	 0.293322
C	 3.1419259851	 6.5835765801	-1.235815062	-0.44575
H	 0.4549222606	 2.5445580986	 1.3819462702	 0.069797
H	 2.1330346204	 1.2002214588	-0.0099814512	 0.144914
H	 0.9779547627	 1.1728192866	-1.3477042366	 0.130259
H	 1.1946684568	 3.6508407977	-1.6009861842	 0.139208
H	 2.0183981504	 3.792391613	-0.0764761168	 0.148203
H	 4.8462931259	 4.1363793383	-2.4604561116	 0.163179
H	 3.3446217068	 4.2040267674	-3.3706245135	 0.161621
H	 2.8981360011	 7.5154116785	-0.7881519649	 0.207228
