11
gdb 130251	3.16885	1.54542	1.0408	5.555	56.37	-0.2669	-0.0892	0.1777	1017.0788	0.064803	-525.830197	-525.822714	-525.821769	-525.862727	26.935	
N	 0.1187130049	 1.4107761997	 0.0118990104	-0.547346
C	-0.0566630139	 0.05738338	 0.0033290418	 0.522329
N	-1.2209271015	-0.4556684072	-0.1570559284	-0.218186
O	-1.2692198765	-1.8647610433	-0.3177397174	-0.233317
C	-0.1869231519	-2.6579370564	-0.1591560839	 0.34463
O	-0.2712169619	-3.8433848613	-0.2691089207	-0.276732
C	 1.145963537	-1.975290773	 0.1527417401	 0.303321
O	 2.1581667979	-2.5533156942	 0.3691060933	-0.25313
O	 1.1280786474	-0.5965778884	 0.1469087118	-0.209348
H	 0.8703346558	 1.7498419746	 0.5937438639	 0.281034
H	-0.7369021674	 1.9437765497	 0.0550878991	 0.286744
