13
gdb 21411	3.33929	2.45058	1.41336	4.1639	66.36	-0.2143	-0.0255	0.1888	804.5524	0.098644	-390.958302	-390.951658	-390.950714	-390.989325	25.07	
N	-0.0411594589	 1.2151582996	 0.5268878492	-0.477959
C	-0.0099793669	 0.0273674571	 0.0767199287	 0.367405
N	 1.1333247073	-0.6569561806	-0.343354133	-0.38633
C	 1.1311080839	-1.9472510724	-0.8264388806	 0.106728
N	 0.0799259731	-2.6668755586	-0.9458426477	-0.222986
N	-1.0853489278	-2.0623765105	-0.5528977592	-0.32759
C	-1.2725869892	-0.7826813361	-0.0472035228	 0.366157
N	-2.3895287827	-0.2767763334	 0.301086994	-0.495213
H	 0.8918783918	 1.6325564929	 0.5504386974	 0.206066
H	 2.0119806863	-0.164519115	-0.2850098902	 0.255141
H	 2.0869735995	-2.3628024892	-1.1185936675	 0.142612
H	-1.8956983921	-2.6519455921	-0.6585525802	 0.260926
H	-3.1560981542	-0.9391313218	 0.1618693419	 0.205042
