15
gdb 27822	2.02503	1.93823	0.99649	5.0916	71.57	-0.2436	-0.0312	0.2124	1124.4589	0.114236	-450.229141	-450.220645	-450.219701	-450.262811	30.365	
C	-0.0209891192	 1.5009872373	-0.0020671606	-0.4898
C	 0.0003686594	 0.0016502285	-0.0605393453	 0.406159
N	-0.0187376467	-0.6110875728	-1.209091634	-0.362073
C	 0.0057436884	-1.9915418926	-1.1222954154	 0.435104
N	-0.0140743069	-2.6105131275	-2.3195033456	-0.543168
N	 0.0449998116	-2.7361724289	-0.0377494924	-0.384268
C	 0.0646563066	-2.1086046315	 1.1734568714	 0.418193
O	 0.102034217	-2.6315576501	 2.2644299371	-0.389386
N	 0.0403202207	-0.6768065672	 1.1044306159	-0.363842
H	 0.8749559923	 1.8784201353	 0.5022001202	 0.151124
H	-0.0609546042	 1.8997254648	-1.0146565372	 0.161239
H	-0.8916099355	 1.8517083294	 0.5621502044	 0.150632
H	-0.0440189532	-2.0623360029	-3.1596004548	 0.270836
H	 0.001376546	-3.614312052	-2.3520030965	 0.274495
H	 0.0551236837	-0.19972986	 1.9945243729	 0.264755
