21
gdb 39655	3.93658	1.03766	0.98484	1.6387	82.68	-0.2338	0.0851	0.3189	1302.6327	0.184132	-387.035994	-387.027888	-387.026943	-387.069569	31.077	
C	 0.0838431137	 1.4350647121	-0.2605557941	-0.060058
C	 1.5245005026	 1.4697823411	 0.2826809099	-0.297355
C	 1.2091221502	 0.0455983207	 0.8014444438	 0.138459
O	-0.0673719216	 0.0479701035	 0.1022434164	-0.297043
C	 2.0962007034	-1.0798947482	 0.3599057921	-0.008592
C	 3.2779891094	-1.6151184058	 1.1313941993	-0.081958
C	 3.0176587647	-1.6534359446	 2.6446962738	-0.229887
C	 1.7548377843	-2.5401263213	 2.3905372688	-0.23309
C	 2.0439588222	-2.4921487483	 0.8841164446	-0.067803
H	-0.6249277952	 2.0788546524	 0.2778538311	 0.096004
H	-0.0452803125	 1.5949885987	-1.3373893372	 0.101612
H	 2.2962010335	 1.4904255003	-0.4901080458	 0.107164
H	 1.7501441653	 2.2255037612	 1.0364814546	 0.106051
H	 1.0418159824	 0.019320024	 1.885018751	 0.071182
H	 2.283727398	-1.0547417202	-0.7126004133	 0.082349
H	 4.2583475297	-1.6719994443	 0.672663343	 0.081809
H	 3.7948761516	-2.2015175573	 3.1817671001	 0.102798
H	 2.8699061291	-0.6928323635	 3.1482376647	 0.095705
H	 1.8721859068	-3.5430412948	 2.8060876281	 0.10276
H	 0.7868627991	-2.1463745996	 2.7151419313	 0.105397
H	 1.9272617734	-3.3269492258	 0.2033935578	 0.084497
