20
gdb 30271	2.86985	1.55951	1.06191	1.7774	86.14	-0.1882	0.0497	0.2379	1153.9058	0.174297	-366.064078	-366.056175	-366.055231	-366.09628	31.446	
C	-0.0676447095	 1.5940254182	-0.0532350808	-0.390836
C	 0.0096307204	 0.0668786357	 0.0444937253	-0.110771
C	 0.7595798032	-0.5875478243	-1.1663199792	-0.199623
C	 1.5374469141	-1.834593363	-0.6351161628	-0.358009
C	 1.6217198927	-1.4924156064	 0.8174546447	 0.281261
C	 0.7975926773	-0.4715868224	 1.2107515425	 0.31261
C	 0.9370807712	-0.3209582303	 2.6189432593	-0.341663
C	 1.8545450898	-1.2679630332	 3.025102077	-0.073137
N	 2.2639738558	-1.9874887342	 1.9186063744	-0.371455
H	 0.9359536698	 2.0324903046	-0.0793342181	 0.112309
H	-0.6000700175	 1.9066652618	-0.9585303273	 0.105014
H	-0.5960998597	 2.0191351774	 0.8065396729	 0.11136
H	-1.0210611618	-0.3183050599	 0.0797142056	 0.071547
H	 0.0831311924	-0.839307728	-1.98810222	 0.091993
H	 1.4831946819	 0.1374964738	-1.5553172485	 0.101948
H	 0.9757055425	-2.7636667384	-0.8093866394	 0.103867
H	 2.5056189832	-1.9555661017	-1.1355082037	 0.099379
H	 0.4439383477	 0.3877169742	 3.2673272906	 0.087571
H	 2.2617460023	-1.4817295813	 4.0007545453	 0.111399
H	 2.9416994743	-2.7291433925	 1.9328270521	 0.255234
