16
gdb 107902	3.6727	1.28436	1.20694	4.0286	69.29	-0.2404	-0.0015	0.2389	1058.2576	0.123497	-437.817994	-437.81027	-437.809326	-437.850531	28.874	
C	-0.027616108	 1.3170475961	-0.2021825268	-0.265439
O	-0.1025987768	-0.0541003538	 0.1803740763	-0.278242
C	-1.3579045467	-0.5722354588	 0.1401809423	 0.427556
C	-2.5513435691	-0.3470223595	 1.0721991352	-0.261969
N	-3.137956539	-1.6280951178	 0.4859679136	-0.218822
C	-1.7365589296	-1.98302489	-0.0211673721	-0.113966
C	-1.9941574221	-1.0907200518	-1.2312677884	-0.309837
C	-3.4371809619	-1.1584710517	-0.9068543968	 0.440809
O	-4.4885359947	-0.9754611158	-1.4315643274	-0.31386
H	 1.0216251256	 1.6054798046	-0.1256878602	 0.14098
H	-0.3733808366	 1.4577572223	-1.233952036	 0.125666
H	-0.6258061178	 1.9512387397	 0.4640576248	 0.126114
H	-2.2940988121	-0.4934734789	 2.1244395489	 0.127484
H	-3.1919366117	 0.5321168111	 0.950759082	 0.124429
H	-1.2584596222	-2.9466974312	 0.0639203829	 0.130284
H	-1.4457435773	-1.0042991246	-2.1598710882	 0.118812
