18
gdb 9765	3.21545	1.69496	1.55542	1.6757	63.12	-0.2541	0.0826	0.3367	911.7197	0.153629	-422.075615	-422.067476	-422.066532	-422.10817	30.118	
C	-0.1036757919	 1.6321327594	-0.0022018968	-0.436183
C	-0.027792786	 0.1122188818	-0.069925988	 0.351972
C	-1.4213830422	-0.5369120476	-0.1144825867	-0.082393
O	-2.122610108	-0.3314761285	 1.0930157024	-0.424456
C	 0.8835665912	-0.429817731	-1.1881531632	-0.163039
O	 1.497819051	-1.5669389233	-0.5996057553	-0.235438
C	 1.7142068794	-1.1904704878	 0.7340770793	 0.018753
O	 0.6119949814	-0.3941429621	 1.1294978662	-0.314575
H	 0.8836099346	 2.0605880888	 0.1903573615	 0.117114
H	-0.4816121984	 2.0383080527	-0.9468895451	 0.116487
H	-0.7850364856	 1.9351404328	 0.7958873606	 0.141652
H	-2.0221386663	-0.0899733743	-0.9145391185	 0.103426
H	-1.3003439485	-1.6091196436	-0.3358117418	 0.092221
H	-1.5148259784	-0.6067021934	 1.7913602757	 0.289196
H	 0.3359458702	-0.7561410838	-2.0757123773	 0.121831
H	 1.63491661	 0.3187074875	-1.4827979753	 0.096139
H	 1.7692677892	-2.0912182588	 1.3532813431	 0.119495
H	 2.6466680883	-0.6059131589	 0.8326828893	 0.087799
