15
gdb 81718	3.22376	1.31104	1.03613	4.9569	73.02	-0.2622	-0.046	0.2162	1127.0312	0.11192	-416.790018	-416.781797	-416.780852	-416.822987	29.963	
C	-0.0457486014	 1.6209631376	-0.0728801655	-0.417113
C	 0.046772027	 0.1033560972	-0.021489421	-0.103732
C	 0.7072673481	-0.6623940037	-1.1852752553	-0.124334
N	 2.0984751343	-0.2307116242	-1.2250303196	-0.346714
C	 1.7061089702	-1.3345043746	-0.2677201872	 0.11909
C	 2.2974250873	-2.6250927544	-0.3302768891	 0.170367
N	 2.7721189094	-3.6804833763	-0.3599528227	-0.336891
C	 1.0890633952	-0.5771460227	 0.9159072263	 0.385114
O	 1.2557567496	-0.6059662699	 2.0931548001	-0.278872
H	 0.9053239268	 2.0528536586	-0.3918603913	 0.148767
H	-0.8277998431	 1.9432879328	-0.767276939	 0.125159
H	-0.2906069652	 2.0152565854	 0.917559239	 0.142616
H	-0.9221135481	-0.3489691907	 0.2258635973	 0.121319
H	 0.2192818469	-1.1170166526	-2.0375955768	 0.134293
H	 2.567685473	-0.6847041824	-2.0098515451	 0.260931
