13
gdb 21824	5.89878	1.44675	1.1618	5.5531	62.56	-0.2193	0.0063	0.2256	940.5971	0.098315	-394.819428	-394.812698	-394.811754	-394.850813	24.469	
O	-0.2871605646	 0.0209148251	 0.001825616	-0.306401
C	-0.0949570799	 1.2163058035	 0.0091542327	 0.141233
N	 1.1274445556	 1.8264370125	 0.0022050039	-0.41055
C	 2.3687586532	 1.1777587894	-0.012955743	 0.280398
C	 3.6064074824	 1.7937058704	-0.0182980184	-0.144893
N	 4.5165077923	 0.7865262351	-0.0338278469	-0.172431
N	 3.9607320395	-0.4338724111	-0.0388835532	-0.213248
C	 2.6491262782	-0.2114312749	-0.0259864779	-0.066089
H	-0.9116613082	 1.9640784196	 0.02030089	 0.079954
H	 1.1322379435	 2.8344474071	 0.0086756718	 0.253202
H	 3.8948488196	 2.8325938116	-0.0125301152	 0.129554
H	 5.5184588168	 0.8680667758	-0.041523623	 0.278341
H	 1.9427622418	-1.022880014	-0.0263120469	 0.150931
