20
gdb 11476	3.22683	1.70054	1.3959	0.6383	70.79	-0.2553	0.0844	0.3397	991.3836	0.177226	-386.153955	-386.145402	-386.144458	-386.187296	31.312	
C	-0.3000463088	 1.3405241394	 0.5072933654	-0.2422
O	-0.2945205621	-0.0723187226	 0.5904105066	-0.241855
C	-1.3551937777	-0.6790294328	-0.1095509554	 0.231027
C	-1.182910806	-2.2061799841	 0.0017788253	-0.271278
C	-2.4753031714	-2.685449347	 0.6926684271	-0.220058
C	-3.0271271579	-1.4020550078	 1.3397148484	 0.116753
C	-2.524924724	-1.1515467771	 2.7623185431	-0.395687
O	-2.6189511042	-0.3619986172	 0.4373489493	-0.264747
H	 0.568930565	 1.6983530741	 1.0640974878	 0.122483
H	-0.2183755094	 1.6794860406	-0.5371573156	 0.102763
H	-1.2124686552	 1.7655153399	 0.9412875528	 0.123832
H	-1.3672973797	-0.2983129412	-1.1418243124	 0.066325
H	-1.0396831494	-2.665512782	-0.9781616439	 0.107554
H	-0.2919912688	-2.4085589082	 0.5995025477	 0.123707
H	-3.188631116	-3.0631681025	-0.0453830356	 0.104318
H	-2.2967895477	-3.4796853993	 1.4216378641	 0.103106
H	-4.121890889	-1.3867731231	 1.3353635987	 0.076446
H	-1.4326237714	-1.1708671939	 2.8039276142	 0.1315
H	-2.8605184031	-0.1711325505	 3.1124980527	 0.119341
H	-2.9177047532	-1.9126956344	 3.4452348997	 0.106672
