18
gdb 72012	2.50323	1.99548	1.4661	3.1156	75.09	-0.2363	-0.0176	0.2187	943.1668	0.149142	-401.906054	-401.8989	-401.897956	-401.937343	28.968	
C	 0.0210898334	 1.5629851859	-0.0320865525	-0.512358
C	 0.0230071511	 0.0572105174	-0.0600090328	 0.3273
C	 0.4194041176	-0.8354483555	-1.2357128746	-0.238008
N	-0.3305194442	-1.9570499316	-0.5499689314	-0.147226
C	 0.5649519238	-2.1494660899	 0.641524728	-0.177045
C	 0.4230185232	-0.7460316297	 1.2701910874	-0.221566
C	-1.0876231062	-0.7845897941	 1.5346287767	 0.442551
O	-1.8093684356	-0.5473233679	 2.4590016576	-0.328941
C	-1.2676491582	-0.8742762265	 0.0293456189	-0.166716
H	 1.0439010902	 1.9552445227	-0.0026961854	 0.127063
H	-0.4695190599	 1.9742555387	-0.9203520223	 0.125028
H	-0.5052421207	 1.9428904731	 0.8502151956	 0.138984
H	-0.094473472	-0.5553189913	-2.1594913618	 0.112827
H	 1.4734547043	-1.0417061985	-1.4503019491	 0.101839
H	 0.1899001608	-2.9505021265	 1.2853669755	 0.119025
H	 1.5751150624	-2.4049558929	 0.3147676847	 0.111436
H	 1.1423444204	-0.377581865	 1.9977284187	 0.088138
H	-2.1967049004	-0.7319284784	-0.5167098831	 0.097669
