17
gdb 50167	3.40411	1.53337	1.31873	3.8499	74.45	-0.2368	-0.0092	0.2276	982.922	0.134682	-421.703002	-421.695751	-421.694807	-421.734842	28.605	
O	-0.1156970094	 0.1263725752	 0.7908557725	-0.273051
C	-0.0108300586	 1.0240677169	-0.0052740957	 0.173294
C	 1.1957661841	 1.9385471915	-0.0660411484	-0.126213
C	 1.0348621165	 3.2437739089	-0.9541029629	-0.36098
C	 0.7264768313	 3.9465102023	 0.3723426066	 0.378945
C	 0.7248603142	 4.9288192602	 1.5689036109	-0.311616
C	 0.2544834301	 3.483802318	 2.035218351	 0.031268
O	-0.6083157374	 3.4379717211	 0.855994495	-0.330234
C	 1.4048770493	 2.8582938151	 1.2044494108	-0.03156
H	-0.7912656768	 1.2167960312	-0.772751697	 0.076208
H	 2.0805589006	 1.3382933307	-0.293348848	 0.107223
H	 1.9846426271	 3.5525170146	-1.3958539744	 0.120467
H	 0.2458728	 3.2567480063	-1.7109834563	 0.123082
H	 1.6968019889	 5.2931342392	 1.9099397499	 0.108961
H	-0.0559795378	 5.6898741077	 1.599430043	 0.120247
H	-0.1844247648	 3.2041668927	 2.9955177538	 0.108029
H	 2.4345319129	 2.9913138683	 1.5362773492	 0.085931
