23
gdb 118954	2.97206	0.89654	0.85696	2.3234	81.46	-0.2428	0.0759	0.3187	1504.3517	0.203746	-425.412054	-425.401458	-425.400514	-425.447969	38.727	
C	-0.4727999903	 1.3329027932	-0.1149625566	-0.419256
C	 0.0960585345	-0.0768905887	-0.0585242705	-0.074719
C	 1.4588318665	-0.3535635631	-0.7240777535	-0.083074
O	 1.9706072135	-0.9880925388	 0.4622402946	-0.329542
C	 0.7859367387	-0.6209049133	 1.2365715615	 0.41029
C	 1.1556132667	 0.4154452863	 2.2933718879	-0.438691
C	 0.1266367563	-1.8689538166	 1.8259146771	-0.242622
C	 0.9862168424	-2.6269990352	 2.8430865289	-0.073908
O	 0.3780460772	-3.8419746692	 3.2587697519	-0.421025
H	 0.2638483045	 2.0877748268	 0.1754000626	 0.120039
H	-0.8011202764	 1.5697425513	-1.132977255	 0.119141
H	-1.3425207745	 1.4403166304	 0.5420862537	 0.120093
H	-0.6639595278	-0.7860556211	-0.4004462774	 0.07593
H	 1.4630498352	-1.0274922626	-1.5888855565	 0.098907
H	 2.0289830545	 0.5506608217	-0.9822898679	 0.092662
H	 1.6141118495	 1.2959495334	 1.8371040909	 0.117769
H	 0.2755841913	 0.7377153699	 2.8602943503	 0.115168
H	 1.8807798734	-0.0035884898	 2.996324486	 0.129825
H	-0.8312282528	-1.5967751556	 2.2873852469	 0.10094
H	-0.1007693502	-2.550749949	 0.9956212076	 0.082968
H	 1.9863720873	-2.7985182356	 2.4195461068	 0.109562
H	 1.112788514	-2.0421482965	 3.7588837351	 0.109952
H	 0.3286511165	-4.4202741877	 2.4909722056	 0.279591
