17
gdb 124158	6.5305	0.72669	0.6593	2.3849	90.24	-0.2142	0.0057	0.2199	1706.7389	0.135941	-380.883521	-380.874049	-380.873105	-380.920674	32.543	
C	 0.0534149403	 1.4648677328	-0.0115487001	-0.509299
C	 0.0311489456	 0.0108240627	-0.007348607	 0.21833
C	 0.0243366713	-1.1948947693	-0.0033489861	-0.070538
C	-0.0261313166	-2.6119900649	-0.0006042355	 0.195795
N	 1.0867139101	-3.3567812706	 0.0529919443	-0.297393
N	 0.6331249402	-4.6227271667	 0.0367200474	-0.253958
C	-0.7222876116	-4.7284680149	-0.024958575	 0.383076
C	-1.4299571739	-6.0434177295	-0.052680672	-0.512347
C	-1.1862199629	-3.4316779128	-0.0508027373	-0.397481
H	 1.0815429655	 1.842598539	-0.0325756858	 0.15214
H	-0.4667023519	 1.870216779	-0.8869993226	 0.147526
H	-0.4322621854	 1.8752618821	 0.881234347	 0.147639
H	 1.303299403	-5.3728568633	 0.070080681	 0.270303
H	-1.2208254428	-6.6378211742	 0.8441919865	 0.137622
H	-2.5089581069	-5.8852629909	-0.1027059724	 0.145767
H	-1.1398516588	-6.6441552055	-0.922385424	 0.13762
H	-2.2129818653	-3.108340573	-0.0989425285	 0.105198
