20
gdb 108146	3.41581	1.33456	1.21433	2.1431	77.64	-0.2393	0.0777	0.317	1101.3194	0.173281	-403.112271	-403.104532	-403.103588	-403.144734	30.733	
O	 0.0735960052	 1.3064329738	-0.3556874563	-0.41988
C	 0.0167509902	 0.0093646153	 0.2213251772	-0.173391
C	-1.3860823142	-0.5229263645	 0.2465608374	 0.330229
C	-2.4821813889	-0.2320073842	 1.2828171558	-0.29997
C	-3.2160806568	-1.5260585377	 0.8006795761	-0.04532
C	-4.2411951607	-1.1743839969	-0.2796529148	-0.215218
C	-3.3521121911	-0.4664594052	-1.3343821896	-0.165622
N	-1.9561975816	-0.892594167	-1.0703308649	-0.147341
C	-1.9361876306	-1.8907124863	-0.0067010851	-0.1273
H	-0.2869282534	 1.2141594711	-1.2452240272	 0.287575
H	 0.6621569446	-0.6984979601	-0.3201597254	 0.092452
H	 0.406898822	 0.1103838666	 1.2398693004	 0.104666
H	-2.0881720397	-0.3380628027	 2.2970255473	 0.104425
H	-3.0263518918	 0.7159143223	 1.2114617226	 0.096552
H	-3.5611876282	-2.2090840396	 1.576041927	 0.071559
H	-4.7000344532	-2.0788254242	-0.6942260372	 0.100116
H	-5.0432718094	-0.5311084168	 0.0954108908	 0.101275
H	-3.6113436342	-0.7555010106	-2.3566603753	 0.107907
H	-3.4214825405	 0.6240697601	-1.2734986224	 0.108211
H	-1.4604264078	-2.8541835837	-0.1506705065	 0.089073
