14
gdb 44726	2.42571	1.74192	1.22202	5.1569	65.75	-0.2672	-0.0525	0.2146	988.2353	0.100177	-436.668482	-436.661021	-436.660077	-436.701137	27.357	
O	 0.0736312953	 0.062945428	-0.5834290689	-0.274534
C	 0.047828147	 1.1659058554	-0.1321975636	 0.419505
C	-1.0323133698	 2.0265676351	 0.5605900389	-0.364624
C	-0.0094490968	 3.1843155347	 0.6098819465	 0.112565
O	 0.7682180141	 3.1828930887	 1.830466357	-0.287894
C	 1.8575239908	 2.4785009824	 1.2019500409	-0.021787
C	 2.2646315673	 1.2684342074	 1.9189713533	 0.297287
N	 2.5964110227	 0.3187844446	 2.4870146843	-0.310313
C	 1.0676334879	 2.3282368316	-0.1292146343	-0.239217
H	-1.8853484836	 2.2096014515	-0.1020605713	 0.144505
H	-1.3959079339	 1.6728658549	 1.5279163619	 0.157157
H	-0.3225364437	 4.1852082919	 0.3142904055	 0.106043
H	 2.7317280949	 3.1315141067	 1.092383672	 0.141193
H	 1.5882646479	 2.570947607	-1.0533797423	 0.120115
