12
gdb 129148	3.06543	1.50748	1.01053	1.2719	77.48	-0.2385	-0.0947	0.1438	1059.3938	0.074955	-431.582378	-431.574434	-431.57349	-431.615231	28.818	
N	-0.0394214781	 1.3194598937	-0.1715272442	-0.498463
C	-0.0609241203	 0.0599098325	-0.0119430959	 0.322416
N	 1.1870647521	-0.6532707364	 0.1931502714	-0.09203
N	 1.3600453768	-1.827951213	 0.3595980584	 0.037808
O	 0.0866233299	-2.7371353795	 0.3602735	-0.256994
C	-1.0663298179	-2.126761135	 0.1768918327	 0.05875
C	-1.2371796152	-0.7872861889	-0.0105031876	-0.055154
C	-2.5288165805	-0.2405867451	-0.1983966877	 0.264072
C	-3.6312569497	 0.2155739947	-0.3573693871	-0.377042
H	 0.9210746858	 1.6639639072	-0.1282226821	 0.238542
H	-1.9125458706	-2.8102133915	 0.187419033	 0.15643
H	-4.5989733122	 0.6296416215	-0.4985295609	 0.201666
