20
gdb 56591	2.96342	1.04739	0.83683	3.5927	79.44	-0.2864	0.0135	0.2999	1388.9485	0.169248	-403.145644	-403.135635	-403.134691	-403.180975	36.403	
C	-0.0962557018	 1.4203426026	-0.1340525548	-0.412651
C	-0.0028350315	-0.1017052191	 0.0498107776	-0.034062
C	 0.7852162039	-0.4511338015	 1.3397328165	-0.011833
O	 0.8457406975	-1.8337249167	 1.629255639	-0.406187
C	 2.1496552816	 0.1210126363	 1.2960709163	 0.259611
N	 3.226695093	 0.5357730223	 1.2329598072	-0.326637
C	-1.3785080158	-0.7407493825	 0.0838605092	 0.050671
C	-2.1384380885	-0.9696931845	-1.2000739886	-0.286743
C	-1.6140887503	-2.1421236841	-0.4109421648	-0.264181
H	 0.8913407975	 1.8864029397	-0.1871866728	 0.143062
H	-0.635798265	 1.6542707125	-1.0552905335	 0.127789
H	-0.6443146173	 1.8795060846	 0.6969410492	 0.119718
H	 0.5567366818	-0.5229014892	-0.7982883825	 0.07874
H	 0.2649362217	-0.0035271527	 2.1951819616	 0.13663
H	 1.3008166297	-2.2754139933	 0.9032630946	 0.292407
H	-1.9795606309	-0.4335929346	 0.937619974	 0.084682
H	-3.2062426725	-0.7822440343	-1.207797456	 0.116501
H	-1.641223128	-0.7256967798	-2.1337731637	 0.113057
H	-0.769971401	-2.6867117971	-0.8211640797	 0.100822
H	-2.3173983041	-2.7665379986	 0.1279386413	 0.118605
