18
gdb 104759	2.94259	1.09488	0.91596	1.6381	75.11	-0.2552	0.0256	0.2808	1287.1379	0.146348	-439.012299	-439.00284	-439.001896	-439.046612	35.155	
O	 0.1044380354	 1.3967026047	-0.2173925907	-0.421051
C	 0.0490711698	 0.0928220144	 0.3688126972	-0.139065
C	-1.3451480856	-0.4847925118	 0.2257627325	 0.272892
C	-2.4288335253	 0.2555308919	 0.9905241613	-0.132174
O	-2.6803509584	 1.5356389566	 0.4412721412	-0.426148
N	-1.6401035429	-0.906558344	-1.1526078159	-0.357789
C	-1.5465930778	-1.936160702	-0.0877587201	-0.324556
C	-0.4708729818	-2.8877855785	-0.1582088095	 0.370863
C	 0.4111525384	-3.7041330915	-0.1894381635	-0.424288
H	-0.0716004521	 1.2709120347	-1.1585076853	 0.300427
H	 0.786868037	-0.5761180094	-0.08707895	 0.119619
H	 0.3077703505	 0.2249371799	 1.4239722641	 0.117436
H	-3.3734841983	-0.2994887151	 0.9397634991	 0.098644
H	-2.1441355702	 0.3187713016	 2.0541832699	 0.09335
H	-1.8141383707	 1.9473115071	 0.3068667999	 0.289983
H	-2.6187469616	-0.7251999773	-1.3677835636	 0.244584
H	-2.485685166	-2.356857506	 0.2676047587	 0.115516
H	 1.1942614295	-4.4206540654	-0.2248960952	 0.201757
