14
gdb 129183	3.31438	1.707	1.13575	10.6211	72.88	-0.2289	-0.0444	0.1845	982.0784	0.10417	-429.038603	-429.03149	-429.030546	-429.069921	27.183	
N	-0.0086590073	 0.98616133	 0.0712465822	-0.579077
H	 0.0212232533	-0.0198878315	 0.0454345168	 0.30237
H	 0.8368603165	 1.4836560079	-0.1508000643	 0.275146
C	-1.2101826616	 1.577131032	 0.015736031	 0.355933
N	-1.3544337901	 2.9288393951	-0.0812031778	-0.357986
C	-2.7848787263	 3.3341147589	 0.0003864887	-0.297504
C	-3.4465861402	 1.9923837697	 0.0334925255	 0.29724
C	-2.4768185688	 0.9864166325	 0.0512571732	 0.244343
N	-3.1093131969	-0.2168128513	 0.0446313279	-0.329453
N	-4.3907989705	 0.0698948373	 0.0302745488	-0.139715
N	-4.6388228655	 1.4368815653	 0.011996671	-0.331948
H	-0.6206616676	 3.5607907158	 0.1989034102	 0.25815
H	-2.9518955657	 3.9306109361	 0.904300224	 0.148861
H	-3.0519159092	 3.9429600722	-0.8692336272	 0.153641
