21
gdb 109147	3.64494	0.98014	0.93878	3.931	79.86	-0.2271	0.027	0.2541	1365.8168	0.182189	-420.431276	-420.421668	-420.420724	-420.465492	36.274	
C	 0.250782047	 1.4048572995	 0.1587838597	-0.426151
C	-0.0198304581	-0.0995932232	 0.007631118	 0.283842
C	-1.5182192248	-0.3833223443	-0.1047379991	-0.427035
C	 0.8098426699	-0.7064118934	-1.1714745979	-0.199581
N	 2.0095702868	-1.3005489917	-0.5684575429	-0.323067
C	 1.8032271677	-1.3286949137	 0.6944150292	 0.343143
C	 2.8216688401	-1.9166705728	 1.6337722213	-0.132079
O	 3.9655368861	-2.3365491927	 0.9423501434	-0.420739
N	 0.5832545033	-0.8518598239	 1.1375561224	-0.36689
H	 1.3262392149	 1.6011339739	 0.2111414395	 0.128289
H	-0.154711057	 1.9579896185	-0.6947523403	 0.122472
H	-0.2190882226	 1.8025500437	 1.0658407222	 0.109736
H	-1.9329868287	 0.0892505001	-1.0014574114	 0.119067
H	-1.70252489	-1.4592645576	-0.1624778137	 0.12383
H	-2.0633889772	 0.0103908309	 0.7601277384	 0.111126
H	 0.2393378688	-1.4875480459	-1.6912044105	 0.106835
H	 1.079749492	 0.0491881215	-1.916543651	 0.106861
H	 3.0867330623	-1.1641681364	 2.395588177	 0.099588
H	 2.354235765	-2.755121176	 2.1760161375	 0.112467
H	 3.7649915252	-2.1809456067	 0.0048941201	 0.29493
H	 0.5454161294	-0.4261437097	 2.0543773783	 0.233357
