18
gdb 57704	2.7736	0.86906	0.76985	4.208	73.21	-0.2644	-0.0469	0.2175	1490.0114	0.144065	-439.110637	-439.100365	-439.09942	-439.146798	36.017	
C	 0.2681023334	 1.5947904271	 0.220979455	-0.419738
C	 0.0435928983	 0.0871628714	 0.0642622969	 0.237779
O	 0.6510926991	-0.5116693333	 1.212772429	-0.454973
C	-1.4337108725	-0.3092947159	-0.0708242748	-0.217929
C	-2.2725485759	 0.0894147702	 1.1587330629	-0.359684
C	-3.6232620491	-0.4637390735	 1.1082074625	 0.258815
N	-4.6879567028	-0.9098855845	 1.0570850561	-0.301911
C	 0.8372591896	-0.3724634089	-1.1661103717	 0.125201
O	 0.3600043276	-0.7458100295	-2.2040529024	-0.244334
H	 1.3376995464	 1.8226029627	 0.1966680764	 0.13559
H	-0.2280509333	 2.1487812237	-0.5801840497	 0.136389
H	-0.1166092474	 1.9337429731	 1.1862869576	 0.139728
H	 0.5526593473	-1.4690473244	 1.1477802448	 0.29035
H	-1.8478232149	 0.1342659483	-0.9798426799	 0.14101
H	-1.4940214657	-1.3940780951	-0.2147368345	 0.121962
H	-1.7785584569	-0.2618290081	 2.0709423969	 0.161169
H	-2.3517936771	 1.1783919446	 1.2420373993	 0.155179
H	 1.9374841537	-0.3421109979	-0.9944710844	 0.095397
