18
gdb 89956	2.79492	1.44683	1.11126	1.0618	73.37	-0.2376	-0.0448	0.1928	1115.2928	0.146928	-439.046656	-439.038323	-439.037379	-439.079667	31.17	
C	-0.6618788445	 1.2559362837	-0.0243842198	-0.390678
C	 0.1337420833	-0.0343868	 0.0002543226	 0.03452
N	 1.3324635147	-0.062346036	-0.9021193316	-0.383109
C	 2.1990340622	-0.5473343486	 0.1835922667	 0.211982
C	 2.8918667439	 0.5990555007	 0.9484514776	-0.110565
O	 1.7169919885	 0.8341708252	 1.7629685181	-0.283445
C	 1.0466303446	-0.3115727315	 1.2223454966	 0.034579
C	 2.8769053944	-1.858517504	-0.011146245	 0.058561
O	 2.6826218416	-2.5708443806	-0.9672746023	-0.259728
H	-0.0207623434	 2.0988749302	 0.2431564879	 0.135441
H	-1.0698710358	 1.4312882828	-1.0245358175	 0.12063
H	-1.4969382489	 1.2124973777	 0.6832790847	 0.114264
H	-0.5221312566	-0.9013049892	-0.160566701	 0.080111
H	 1.2682786656	-0.7543849335	-1.6433149858	 0.234489
H	 3.7418733742	 0.2876718609	 1.57034185	 0.104025
H	 3.15959988	 1.4613905836	 0.3319803717	 0.123669
H	 0.7091627499	-1.0083032525	 1.9932243992	 0.090615
H	 3.5752838066	-2.1557804189	 0.8018577477	 0.08464
