13
gdb 21479	5.13113	1.64459	1.24758	10.3832	66.62	-0.2315	-0.0501	0.1814	889.9875	0.097468	-390.960036	-390.952824	-390.95188	-390.991435	26.478	
N	 0.0716751305	 1.3692918905	 0.1058695118	-0.548736
C	-0.0298372431	 0.0288602442	 0.001028745	 0.324638
N	 1.0924655069	-0.6980609005	-0.1206114266	-0.522493
H	 0.9462735373	-1.7003426863	-0.0901734141	 0.30066
H	 1.9926847328	-0.3246461306	 0.1284951265	 0.268358
C	-1.2624340602	-0.6422994624	 0.0189305436	 0.338076
C	-2.6088736535	-0.230312942	 0.005788111	-0.18877
N	-3.3645005006	-1.3155078347	 0.020578466	-0.203568
N	-2.5145887237	-2.3956139561	 0.0416452561	-0.128644
N	-1.2736176439	-2.016585034	 0.0412261413	-0.297333
H	 0.9221586663	 1.8421137406	-0.150778046	 0.273591
H	-0.7716322615	 1.9169292101	 0.1032994042	 0.289795
H	-3.0411910673	 0.7608979211	-0.018256389	 0.094428
