15
gdb 43923	4.35079	1.18249	1.07534	3.4656	68.11	-0.2695	-0.0566	0.2129	1095.4203	0.113166	-457.784197	-457.776996	-457.776052	-457.816407	26.88	
O	 0.0596432981	-0.0291318242	 0.0017733488	-0.332802
C	 0.0921304874	 1.1661529759	 0.0082204293	 0.398678
O	-1.0529566127	 1.9394611437	 0.0292572663	-0.260493
C	-0.714558494	 3.315250022	 0.0322947314	 0.302812
C	-1.4813282909	 4.1987064717	-0.9862870027	-0.120951
O	-1.9226791348	 5.0832862525	 0.0600031244	-0.265628
C	-1.4513489049	 4.1867659452	 1.0827907194	-0.120951
C	 0.7804402692	 3.3459933565	 0.0108119285	-0.127937
C	 1.2464026754	 2.098926583	-0.0031379512	-0.241703
H	-0.8874080144	 4.7151632841	-1.7473405906	 0.115307
H	-2.3076580179	 3.6549581051	-1.4593633175	 0.126263
H	-2.263716579	 3.6374586123	 1.5733046698	 0.126263
H	-0.8355399018	 4.6945055048	 1.8322247268	 0.115306
H	 1.3405515178	 4.2723173313	 0.008036627	 0.143447
H	 2.2679649626	 1.7498255661	-0.0199609897	 0.142389
