19
gdb 75476	2.8811	1.14541	0.86492	2.3232	84.46	-0.2289	0.0164	0.2453	1346.7822	0.157246	-385.865609	-385.856236	-385.855292	-385.900254	34.293	
C	-0.1083670652	 1.5210084446	 0.0013575741	-0.502247
C	-0.0109932591	 0.029153189	-0.0120752938	 0.311614
C	 0.0727894812	-0.7902884954	-1.0568626454	-0.211181
C	 0.1063971946	-2.2186985164	-0.6014335493	-0.114881
O	 0.0543467026	-2.1539761901	 0.8217493603	-0.270543
C	-0.0296437395	-0.80062226	 1.2551036161	 0.042184
C	 1.1364446231	-0.4838907083	 2.2218376548	-0.368731
C	 1.0921514624	-1.2705222713	 3.4465978131	 0.313203
C	 1.0358856794	-1.9119341475	 4.4611610439	-0.441704
H	 0.7445368781	 1.9797837531	 0.5162926892	 0.133427
H	-0.1441488916	 1.9263151142	-1.0129139369	 0.129705
H	-1.0093950822	 1.8520993748	 0.5328403763	 0.132331
H	 0.0963004066	-0.4993058145	-2.1001696783	 0.10049
H	-0.7501481362	-2.7990758257	-0.9804187891	 0.10545
H	 1.0181862998	-2.7494599717	-0.9173049281	 0.106116
H	-0.9720228379	-0.6554127516	 1.8095065103	 0.087615
H	 2.0795861712	-0.6593400751	 1.6902754156	 0.130408
H	 1.10445613	 0.5839335539	 2.4745482769	 0.124282
H	 0.9933107427	-2.4857825618	 5.3532016402	 0.192465
