9
gdb 1014	9.83231	2.03584	1.68662	2.7733	52.24	-0.2763	-0.0623	0.214	648.9718	0.057354	-338.273162	-338.268017	-338.267072	-338.302227	17.914	
N	 0.097765594	-1.1359990452	-0.0050204519	-0.322724
C	 0.0256583253	 0.0198445164	 0.0024664967	 0.233612
C	-0.0950295759	 1.4236082605	 0.0120108284	 0.237147
C	-1.1591023079	 2.2756443653	 0.0311920739	-0.167873
N	-0.6968814111	 3.5759238479	 0.0322650237	-0.242283
C	 0.5932916808	 3.4549646068	 0.0141751927	 0.089855
O	 1.0466503037	 2.1867771063	 0.0008967206	-0.160999
H	-2.20961915	 2.034373223	 0.0440205493	 0.160036
H	 1.3387304812	 4.234752579	 0.0085007166	 0.173229
