21
gdb 69947	3.45401	1.42007	1.23112	1.9019	80.82	-0.2407	0.0749	0.3155	1094.0532	0.184325	-387.075471	-387.067673	-387.066729	-387.10751	31.444	
C	-0.1489345047	 1.5236364483	 0.0985785641	-0.481382
C	 0.0607848563	 0.0332545034	-0.0376347578	 0.358163
C	-0.7975263769	-0.9066767656	 0.7638795778	-0.327909
C	 0.677160259	-0.8034855626	 1.0787577028	-0.087312
C	 1.5622397727	-1.8683580451	 0.4606021476	 0.106819
O	 0.982098946	-3.1995249469	 0.373814125	-0.292645
C	 0.8975331098	-3.1220034289	-1.0638886013	-0.08891
C	 1.4938052134	-1.6994718544	-1.082121541	-0.063657
C	 0.5899570766	-0.4860645615	-1.3816652156	-0.313303
H	 0.7699941801	 2.0782843083	-0.1260940426	 0.112532
H	-0.9260875179	 1.8793468863	-0.5885978358	 0.117546
H	-0.4621763006	 1.7894994963	 1.1131522144	 0.114662
H	-1.4856224792	-0.4634549019	 1.4764719106	 0.105445
H	-1.1507265844	-1.8335757223	 0.3263026871	 0.123576
H	 0.9801118926	-0.3481826977	 2.0153839139	 0.077011
H	 2.5508401316	-1.9085293635	 0.92976773	 0.070932
H	 1.5121521057	-3.892189511	-1.5465216902	 0.097829
H	-0.135244034	-3.216317888	-1.4266291371	 0.094114
H	 2.4517376493	-1.6338269534	-1.5998891669	 0.078399
H	-0.2214595559	-0.7403149516	-2.0746780337	 0.100538
H	 1.1748547504	 0.305299042	-1.8637556412	 0.097551
