16
gdb 33288	6.60875	0.70082	0.7008	0.9929	94.92	-0.2477	-0.0242	0.2235	1601.6691	0.124318	-363.476133	-363.468261	-363.467317	-363.508978	30.221	
C	 0.0525521773	-3.757260984	-0.0171531614	-0.595996
C	 0.0378505159	-2.5495274276	-0.0137791134	 0.197824
C	 0.0212838084	-1.1904852491	-0.0102946968	 0.366807
C	 0.0064077178	 0.0212983944	-0.0071459724	-0.281746
C	-0.011630545	 1.4564390873	-0.0032172127	 0.222583
C	-0.656091455	 2.4363680042	 1.0181489648	-0.198766
N	-0.0364944916	 3.4079814695	 0.0023022303	-0.172906
C	 1.1738308963	 2.4624140773	 0.0378221523	-0.198818
C	-0.5907160688	 2.4430801622	-1.0569788752	-0.198835
H	 0.0654030834	-4.8189412466	-0.0198456411	 0.191297
H	-1.7471108164	 2.4781681937	 1.0601613467	 0.111421
H	-0.2097140513	 2.4949584578	 2.0136895077	 0.111402
H	 1.7541830597	 2.5229072924	 0.9615917623	 0.111451
H	 1.8118733059	 2.5287872739	-0.8466585157	 0.111411
H	-0.0826047661	 2.5078844014	-2.0221234872	 0.111419
H	-1.6769883504	 2.4849653032	-1.1671641081	 0.111453
