17
gdb 59039	2.83503	1.33224	1.09243	4.4912	71.11	-0.2687	-0.0474	0.2213	1143.0815	0.135989	-459.015911	-459.00756	-459.006616	-459.049097	31.125	
C	 0.0313347723	 1.5387454785	-0.1124139037	-0.407418
C	 0.0243688706	 0.0133296087	 0.0645997039	 0.013776
O	 0.6265798855	-0.3749064015	 1.288463489	-0.437133
C	-1.3758856302	-0.5399088102	-0.0242111777	 0.19768
C	-2.0360948294	-1.1724694657	-0.9944455687	-0.244819
C	-3.4272011207	-1.4848343934	-0.5288568821	-0.130302
O	-3.4966268002	-0.9751773598	 0.8042485295	-0.22189
C	-2.2988509787	-0.4149021958	 1.1356087859	 0.423879
O	-2.0859004882	 0.0794672079	 2.2145633436	-0.376882
H	 1.0538250439	 1.9092410727	-0.0014814974	 0.129321
H	-0.3451293071	 1.8266357857	-1.0994055903	 0.111975
H	-0.5951027297	 2.0134139636	 0.6492724126	 0.135342
H	 0.634617442	-0.4419970981	-0.7234643661	 0.094118
H	 0.0325362709	-0.0785808595	 1.9938875298	 0.299007
H	-1.6711728602	-1.4408373487	-1.9778593471	 0.129375
H	-4.2013790264	-0.9995388206	-1.1361282244	 0.140921
H	-3.6392994744	-2.5609065938	-0.5072003867	 0.143049
