17
gdb 112079	2.55799	1.35387	1.01121	2.3101	69.71	-0.2382	-0.0431	0.1951	1162.9203	0.136852	-455.154636	-455.146267	-455.145323	-455.188251	30.5	
O	-0.0321082898	 1.5281912683	-0.0557098313	-0.420478
C	 0.0632817069	 0.1403409672	 0.1561855518	-0.067549
C	-1.3196050238	-0.5079077553	 0.0295772544	-0.00371
N	-1.8714560324	-0.1881376402	-1.2988199754	-0.264265
C	-2.3237720013	-1.2769005801	-1.7845983766	 0.069296
N	-2.2678793858	-2.4137022711	-0.9914131052	-0.300494
C	-1.3903335604	-2.0791628186	 0.1298562726	-0.112701
C	-0.0607918871	-2.8086186612	 0.0337325007	 0.151274
O	 0.2041806084	-3.5966973701	-0.839263949	-0.254669
H	-0.577672094	 1.6317634985	-0.8472058276	 0.297553
H	 0.7528989144	-0.3341116653	-0.5639311971	 0.092892
H	 0.4758334545	-0.0062063718	 1.1610290927	 0.105463
H	-1.9703936585	-0.0611345674	 0.790554861	 0.103876
H	-2.782902348	-1.3480191968	-2.7664538006	 0.135466
H	-2.0400628818	-3.2833787155	-1.4604211345	 0.255503
H	-1.8311910576	-2.3703068783	 1.0925985582	 0.113893
H	 0.6513209563	-2.5993706722	 0.860416056	 0.098648
