16
gdb 25623	3.47479	0.99303	0.77681	1.8068	89.22	-0.1824	0.0003	0.1826	1440.2662	0.124233	-400.756504	-400.747513	-400.746568	-400.791655	32.167	
C	-0.0868514733	 1.4472031882	-0.0038845545	-0.511704
C	-0.0225804415	-0.0049253365	-0.0222859302	 0.244783
C	 0.0167677822	-1.2137397634	-0.0461019054	-0.142894
C	 0.1135749573	-2.6093673124	-0.063949108	 0.184739
C	 1.2108290138	-3.4415441389	-0.0120017682	 0.093124
N	 2.5480504405	-3.0563145795	 0.0025490947	-0.62004
C	 0.7053400453	-4.779361007	-0.0595396242	-0.215622
C	-0.6479526486	-4.6654043211	-0.140561833	-0.032933
O	-1.035544952	-3.3756811451	-0.1507663496	-0.183734
H	 0.5781901613	 1.8898624524	-0.7546295739	 0.148244
H	-1.104044843	 1.7894042868	-0.2251425503	 0.155345
H	 0.1928510467	 1.8577544002	 0.9736580403	 0.145629
H	 2.6729068812	-2.0868189761	 0.2645569815	 0.249687
H	 3.1400669878	-3.6556486858	 0.5612171928	 0.246652
H	 1.2780738794	-5.6936631886	-0.0448918557	 0.107637
H	-1.4404232871	-5.394170993	-0.1972987964	 0.131088
