18
gdb 113423	3.27409	1.03983	0.90706	3.2656	74.32	-0.2298	0.0343	0.264	1309.6726	0.145755	-439.071269	-439.062197	-439.061253	-439.105641	33.095	
C	-0.0008784429	 1.0565608291	 0.499738441	-0.239862
O	-0.1838086529	 0.0193211337	-0.4464061516	-0.230735
C	-1.3818299463	-0.6661147835	-0.2760764137	 0.047518
C	-1.4957196736	-2.0082088103	-0.9586693055	-0.392437
C	-1.4150700327	-1.9243607351	 0.5399653646	 0.375613
C	-0.3421679417	-2.5013850666	 1.4745284174	-0.471823
C	-1.5345838133	-2.8684387958	 2.4015378898	 0.433605
O	-1.6753747333	-3.3999595373	 3.4684960895	-0.357391
N	-2.4264498162	-2.3294659049	 1.4991373226	-0.387416
H	 0.9614163191	 1.5239299882	 0.2800311813	 0.132775
H	-0.7928489227	 1.8163620315	 0.4198369175	 0.110726
H	 0.0100881002	 0.6771540565	 1.53089652	 0.113838
H	-2.2729830751	-0.033035654	-0.2642443798	 0.084249
H	-2.4410461135	-2.2585026654	-1.4291599402	 0.119473
H	-0.614764935	-2.366304538	-1.4814376346	 0.135919
H	 0.2012400831	-3.3654617414	 1.0883911472	 0.137153
H	 0.3594081208	-1.7832374538	 1.9011468003	 0.13761
H	-3.432971974	-2.2582912731	 1.5060935941	 0.251185
