15
gdb 130971	4.21363	0.99843	0.83851	5.3907	69.36	-0.2201	-0.0327	0.1874	1298.6007	0.111878	-453.935703	-453.927393	-453.926448	-453.970071	29.254	
O	 0.6766633306	 0.9227477865	 1.2510214142	-0.230129
C	 0.6252580875	 1.7066081137	 0.3441629206	 0.174901
C	 1.2617992084	 1.4398509844	-1.0211900351	-0.265348
N	 1.2993909927	 2.6255451632	-1.860132599	-0.402966
C	 2.2289048643	 3.6041819006	-1.6384725958	 0.53319
C	 2.6733956243	 4.6665380758	-2.3816868006	-0.387095
C	 3.5941597736	 5.2923701041	-1.5070096971	 0.057239
N	 3.7149381407	 4.6892766477	-0.3509235137	-0.160502
O	 2.8264516419	 3.5873586538	-0.4399141305	-0.218428
H	 0.0855883213	 2.6765560887	 0.4162017504	 0.097025
H	 2.2508848417	 0.9938331085	-0.8577295622	 0.154609
H	 0.6415080755	 0.6899577414	-1.5230834747	 0.143446
H	 1.0298958488	 2.5103430657	-2.8227010036	 0.261978
H	 2.3875047864	 4.9510978002	-3.3793519633	 0.110185
H	 4.1864083923	 6.1795075859	-1.6870542397	 0.131894
