13
gdb 2416	5.25565	2.40476	2.02173	2.3367	49.73	-0.2539	0.0494	0.3034	639.0396	0.101437	-381.506605	-381.50064	-381.499696	-381.536099	23.166	
O	 0.1355692543	 1.4269599285	-0.0891220287	-0.44699
C	 0.1064773834	 0.0415991463	-0.0698582939	 0.194619
C	 0.0284860829	-0.6729992693	 1.3123590086	-0.058826
O	-1.3586514962	-0.1534026761	 1.4479792341	-0.339849
C	-1.2802035481	-0.6639026252	 0.0503138596	-0.03238
C	-0.5951905346	-1.9198241151	 0.6173032684	 0.128861
O	 0.1413687847	-2.6951738112	-0.2827904609	-0.426983
H	-0.5068276353	 1.7059861029	 0.5792563261	 0.288345
H	 0.8099634426	-0.3478765096	-0.8040541297	 0.110509
H	 0.6764883921	-0.5944322615	 2.1863494468	 0.094593
H	-2.1745520018	-0.5743120357	-0.5664456641	 0.09995
H	-1.2433266209	-2.4966889398	 1.2844194594	 0.093536
H	 0.5819561667	-3.3966500541	 0.2064836243	 0.294613
