21
gdb 116152	2.37331	1.28785	0.88502	1.7688	75.34	-0.2407	0.0805	0.3213	1334.1429	0.182834	-461.361937	-461.352828	-461.351884	-461.395667	34.561	
C	-0.0296766967	 1.4741409814	 0.1761359181	-0.410003
C	 0.0261842097	-0.0398637457	 0.0622248144	 0.12679
C	 0.730528337	-0.5211785921	-1.2072663019	-0.081707
O	 0.8450334605	-1.9338265808	-1.2250084367	-0.252622
C	 1.5442755633	-2.410716232	-0.0865601794	-0.096979
C	 0.8542549893	-1.9594565706	 1.1971990263	 0.087707
C	 1.6130029749	-2.310993096	 2.4713391841	-0.071116
O	 0.9501669985	-1.8122449658	 3.6141583018	-0.42439
O	 0.7314983309	-0.5357581909	 1.2002966682	-0.296161
H	 0.9784022464	 1.8997589488	 0.1622452065	 0.126718
H	-0.6011922721	 1.9021884381	-0.6528817817	 0.120938
H	-0.5107083704	 1.7654547594	 1.1135677814	 0.127459
H	-0.9936150196	-0.4598419186	 0.06689048	 0.075947
H	 0.1599799608	-0.2427782214	-2.0983984108	 0.109142
H	 1.7279028895	-0.0528523055	-1.2656781937	 0.088931
H	 1.5569594354	-3.5021218977	-0.1621624638	 0.111667
H	 2.5842346701	-2.0432091513	-0.0947022836	 0.091053
H	-0.1530881761	-2.4051761002	 1.2383632899	 0.080136
H	 1.6765304589	-3.3989178609	 2.5799230763	 0.10811
H	 2.6400015482	-1.9170861513	 2.3967895831	 0.088981
H	 0.7303427015	-0.896279027	 3.4042883615	 0.289397
