22
gdb 99874	1.97782	1.43817	1.05336	3.117	82.85	-0.2429	0.036	0.2789	1269.3075	0.193137	-400.530909	-400.519977	-400.519033	-400.566046	40.464	
C	-0.0245459779	 1.4716942713	 0.1412220122	-0.337458
N	 0.0014564702	 0.0203189171	-0.0368188671	-0.293112
C	 0.6305224283	-0.4792907355	-1.261930297	 0.1256
C	-0.0826926037	 0.0592510665	-2.5136651902	-0.416671
C	 2.0639727633	-0.0699862397	-1.3128484779	 0.266176
N	 3.1769839133	 0.2457917708	-1.2861969363	-0.366097
C	 0.6067388754	-2.0454618357	-1.2071514377	 0.01517
C	-0.8163976298	-2.6033033346	-1.2330489601	-0.405499
N	 1.3646640868	-2.5819178636	-2.3360868242	-0.524013
H	 0.9611418477	 1.9534260929	 0.0418870181	 0.123952
H	-0.7044184155	 1.9286075332	-0.5827578396	 0.132107
H	-0.4137763184	 1.688736927	 1.1393144588	 0.125879
H	 0.4672244737	-0.4028647732	 0.7601433266	 0.22527
H	 0.1319984414	 1.1177180376	-2.6736097123	 0.128719
H	 0.2563734972	-0.502054982	-3.3858095935	 0.153833
H	-1.1615224906	-0.063969358	-2.3952113339	 0.12941
H	 1.0554254932	-2.3094268687	-0.231657074	 0.062502
H	-1.2653597141	-2.47875422	-2.2222379029	 0.1295
H	-0.7992109353	-3.6743755004	-1.0052184795	 0.11096
H	-1.4396079557	-2.1011873105	-0.4914109583	 0.137987
H	 2.358299834	-2.4055369874	-2.2213485786	 0.245339
H	 1.2443484464	-3.5879902971	-2.3842860025	 0.230446
