19
gdb 9339	5.08871	0.89569	0.79963	3.6	70.12	-0.2391	0.0389	0.278	1449.1964	0.164253	-402.2346	-402.224743	-402.223799	-402.270849	33.868	
C	 0.065399207	 1.469459509	 0.202167825	-0.366356
C	-0.0792756774	-0.0492661269	 0.0967346393	-0.295353
C	-1.5439273983	-0.4850386593	 0.0545409539	 0.421906
O	-2.4171131231	 0.2058461136	-0.443981439	-0.381506
N	-1.7903873362	-1.7118540824	 0.5972600975	-0.317728
C	-3.0919804369	-2.3481194126	 0.55841794	-0.144878
C	-3.004658703	-3.7362983265	-0.057981132	-0.079273
O	-2.0922014676	-4.4877487748	 0.7366652053	-0.425197
H	 1.112065959	 1.7696806373	 0.1005339786	 0.106012
H	-0.5222311913	 1.9538810209	-0.5801403081	 0.144609
H	-0.3019315625	 1.834393026	 1.1661670291	 0.120668
H	 0.385256476	-0.4031923407	-0.8334644572	 0.125217
H	 0.4457514359	-0.5551387726	 0.9153312178	 0.097872
H	-1.0298431743	-2.2647005491	 0.9582056822	 0.250261
H	-3.5057146547	-2.4350991803	 1.5718060917	 0.113003
H	-3.7503806001	-1.7023930751	-0.0261721506	 0.145776
H	-4.0036966849	-4.1978533142	-0.0665731216	 0.094012
H	-2.6533319648	-3.6576442372	-1.0974217456	 0.09851
H	-1.9338289328	-5.3320912252	 0.3054227838	 0.292446
