16
gdb 10057	2.66806	1.52135	1.01854	2.4331	67.56	-0.2508	-0.0363	0.2145	1114.5706	0.126085	-383.698749	-383.68941	-383.688466	-383.733557	31.934	
C	 0.0752544662	 0.954376886	 0.8389280392	-0.242383
O	-0.5415670165	 0.0859594321	-0.0955610721	-0.254415
C	 0.2978183894	-0.4255560544	-1.1009547514	 0.017636
C	 1.1437867762	-1.6493878946	-0.6824657779	-0.3571
C	 2.3508315354	-1.3283786348	 0.066196452	 0.281275
C	 3.3578904177	-1.0603119177	 0.6660080653	-0.438473
C	-0.6272755692	-0.7815500264	-2.2659615374	 0.152237
O	-0.3742319172	-1.5982159045	-3.1111247695	-0.243583
H	 0.8006088464	 0.4314776489	 1.4716850824	 0.134806
H	 0.5889336311	 1.7844138093	 0.3312775617	 0.110102
H	-0.7240621799	 1.3601502127	 1.4634463873	 0.130019
H	 0.975299365	 0.3627691342	-1.4776624626	 0.106429
H	 0.4982025618	-2.3183926185	-0.1010643359	 0.142849
H	 1.4046541958	-2.1838613713	-1.6036086113	 0.160237
H	 4.2484664215	-0.8318805681	 1.1972111907	 0.198456
H	-1.5682587937	-0.1914186228	-2.2641378505	 0.101907
