21
gdb 79868	2.8453	1.56193	1.33489	1.599	81.95	-0.2297	0.0927	0.3224	1067.2461	0.183168	-387.057278	-387.049161	-387.048216	-387.089395	32.358	
C	-0.1863481775	 1.5750456831	-0.0191452352	-0.428217
C	 0.0009964342	 0.0650665149	 0.0023160418	-0.026092
C	 1.2338330798	-0.5897251401	-0.6708097561	-0.107639
C	 2.1347470327	-0.1773663636	 0.541646363	-0.104536
C	 3.1079191423	-1.326236696	 0.7720574547	-0.115137
O	 2.2515443842	-2.4588859418	 0.5431896577	-0.287863
C	 1.0190449583	-1.8380033172	 0.2288824924	 0.112588
C	 0.7588877567	-0.6229680706	 1.1740308481	 0.301404
C	 0.3976261908	-0.6637174729	 2.6342515763	-0.530657
H	 0.7321538417	 2.1185117326	 0.2197859158	 0.11408
H	-0.5209736605	 1.91007507	-1.0072037453	 0.116577
H	-0.9506935353	 1.8819958918	 0.7036983828	 0.115779
H	-0.9471592189	-0.4294649198	-0.2486484905	 0.058515
H	 1.5149409855	-0.5794501363	-1.7249090307	 0.066657
H	 2.5017205437	 0.8416415423	 0.6539233126	 0.069303
H	 3.945692142	-1.3374652972	 0.0631288802	 0.099802
H	 3.5124348275	-1.3589116952	 1.7919081151	 0.099296
H	 0.2497331191	-2.5807245196	 0.0177546865	 0.079961
H	 1.1061960223	-1.2826813596	 3.1953826092	 0.127934
H	 0.4011772628	 0.3384983318	 3.0773402718	 0.118445
H	-0.6014374614	-1.0897375866	 2.7796580197	 0.1198
