19
gdb 105738	2.24173	1.50568	1.24801	3.1847	77.8	-0.2289	-0.0302	0.1987	1122.3354	0.157119	-423.038135	-423.028956	-423.028012	-423.072443	33.356	
C	 0.1575524233	 1.5373386668	 0.2175026863	-0.390814
C	-0.0190467678	 0.0345981057	-0.020457328	-0.219954
C	 0.6673584709	-0.4599997981	-1.3069996009	 0.259736
O	 2.0472654574	-0.1228824078	-1.2874345056	-0.286984
C	 2.8405812877	-1.2420990648	-1.6733654318	-0.131998
C	 1.8857891816	-2.4027521835	-1.6901553641	-0.0867
C	 0.6493908622	-1.9686874088	-1.4750233231	-0.148821
C	-0.0166546867	 0.149383064	-2.5430424521	 0.143441
O	 0.5554263978	 0.7051886059	-3.4396510555	-0.248915
H	 1.2186277002	 1.7933044842	 0.2632224154	 0.14432
H	-0.2933597896	 2.1301485358	-0.5856922301	 0.122796
H	-0.3127889377	 1.8378207306	 1.158131551	 0.11302
H	 0.4008171896	-0.5344201903	 0.8157955749	 0.108631
H	-1.0849445167	-0.2224712619	-0.0729702826	 0.096476
H	 3.2960514521	-1.0709880192	-2.6611627069	 0.120739
H	 3.6585071561	-1.3690812985	-0.9501914163	 0.111748
H	 2.1937461091	-3.4259491405	-1.8641205801	 0.115094
H	-0.2590363896	-2.555882345	-1.4438267863	 0.111339
H	-1.1239536601	 0.0034187954	-2.5552121942	 0.066846
