21
gdb 88855	3.59473	1.02311	0.87266	1.3522	84.84	-0.2298	0.0332	0.263	1374.9108	0.183297	-387.082341	-387.073614	-387.07267	-387.116276	33.517	
O	-0.0053274734	 1.4887707843	 0.4411410437	-0.41668
C	 0.0477646521	 0.1177022993	 0.1626701985	 0.090535
C	-0.528617513	-0.8662719302	 1.1505992567	-0.348312
C	-1.2555736895	-0.5608042265	-0.1473400887	-0.018665
C	-2.5561604994	 0.2185926929	-0.140149671	-0.009915
C	-2.8687743695	 0.9186548785	-1.4929395446	-0.22438
C	-4.4047770966	 0.8244350648	-1.6728969045	-0.256208
C	-4.7835169808	-0.3094028576	-0.747789606	-0.073591
C	-3.7910676906	-0.6327501399	 0.0785802466	-0.074129
H	 0.6154377758	 1.6711039838	 1.1539075353	 0.287646
H	 0.9236592478	-0.1929001851	-0.4070991535	 0.083371
H	-0.0468978181	-1.8297397283	 1.2783232792	 0.108026
H	-0.9537147753	-0.4462961739	 2.0571029708	 0.111557
H	-1.2088657554	-1.3332409464	-0.9117240281	 0.083136
H	-2.4842948745	 0.9699819518	 0.6575654251	 0.082107
H	-2.4880910972	 1.941802494	-1.5254008219	 0.106278
H	-2.3752333273	 0.3649583096	-2.2997420291	 0.09564
H	-4.9095731036	 1.7530750581	-1.3696050083	 0.102761
H	-4.6977463178	 0.6459664645	-2.713982536	 0.097936
H	-5.7705653077	-0.7597085705	-0.7466455983	 0.086408
H	-3.8379197658	-1.3896880233	 0.854520094	 0.086479
