16
gdb 33684	3.97667	1.48154	1.38429	1.9463	79.06	-0.2253	0.0267	0.252	958.1303	0.125229	-363.519521	-363.512909	-363.511965	-363.550263	27.563	
C	 0.0375933155	-1.1744939137	-0.0281630551	-0.32981
C	 0.0212463264	 0.0284742974	-0.0144468359	 0.039639
C	-0.0496690684	 1.4458286271	 0.010434147	 0.281062
C	-1.2009904733	 2.3117785679	 0.6197811331	-0.148189
C	-0.5062521099	 3.5993812946	 0.9879926472	-0.090567
C	 0.9857722401	 3.3377478956	 1.0647826781	-0.178016
N	 1.1671543749	 2.299033424	 0.0407319838	-0.160371
C	 0.184898805	 2.5041986969	-1.0297953831	-0.133753
C	-0.9598378636	 3.3686061066	-0.4367832949	-0.090063
H	 0.0663166898	-2.2356105036	-0.0430340876	 0.179728
H	-2.1237143559	 1.939913895	 1.0391784465	 0.101372
H	-1.0103827411	 4.3301982989	 1.6080668982	 0.096961
H	 1.5904597315	 4.2127386887	 0.8057935423	 0.112218
H	 1.3077684601	 2.9543065953	 2.0375923068	 0.11532
H	 0.4883009836	 2.4171288658	-2.0648979743	 0.107585
H	-1.6659505348	 3.9775692634	-0.9810672823	 0.096884
