21
gdb 119627	4.02301	0.88911	0.82152	1.1945	78.4	-0.249	0.076	0.325	1447.6993	0.183087	-424.212771	-424.203793	-424.202848	-424.246882	33.694	
O	-0.1451497946	 1.4702485166	-0.0783095667	-0.418834
C	-0.0222346399	 0.0619031896	-0.2028163912	-0.070522
C	-1.3467209715	-0.5576550873	 0.2370780842	-0.291495
C	-1.3675982602	-2.0633435006	 0.1224242855	 0.338728
C	-1.67688584	-2.7482755621	-1.1896807634	-0.329046
C	-2.6406338034	-2.8670359685	-0.0350012799	-0.119919
C	-2.4716890657	-4.0923363456	 0.8419284372	-0.092624
O	-1.0684033885	-4.2062450592	 1.0665112175	-0.256603
C	-0.5140669258	-2.8953268209	 1.073699593	-0.140847
H	 0.6853742918	 1.8710707311	-0.3503795845	 0.285874
H	 0.1948730544	-0.2334654621	-1.2417091577	 0.089861
H	 0.7998560598	-0.3218869791	 0.4230927549	 0.087489
H	-1.5451923577	-0.2526681095	 1.2726624505	 0.105072
H	-2.1446823697	-0.123502777	-0.3760085043	 0.105627
H	-1.9728958396	-2.1155738423	-2.0196617927	 0.108952
H	-1.1010506397	-3.6261634635	-1.4667935398	 0.119599
H	-3.6092568123	-2.3830345462	-0.0857609385	 0.08861
H	-3.0195935705	-3.9609506398	 1.7897858884	 0.090262
H	-2.8007512192	-5.0300118521	 0.3814114757	 0.107838
H	 0.5366679831	-2.9914584781	 0.7792666908	 0.104844
H	-0.5501185508	-2.4496909635	 2.083129981	 0.087132
