15
gdb 84320	3.32271	1.45942	1.12032	2.0465	67.65	-0.256	-0.0703	0.1857	1033.2979	0.11311	-457.76489	-457.757502	-457.756558	-457.796944	28.227	
O	-0.1501352082	 1.4709996753	 0.338026051	-0.429491
C	 0.0515183528	 0.112221852	-0.0346051383	 0.051509
C	 0.9717743151	-0.574457559	 0.9439327961	-0.074739
C	 0.7723463957	-1.7901782459	 1.4634219398	-0.174901
C	-0.3911682211	-2.6247392309	 1.1003753577	 0.403402
O	-0.4554645019	-3.8123171883	 1.3430665382	-0.328711
C	-1.5163996277	-1.9226757029	 0.3832362775	-0.076877
O	-2.0137179109	-0.7318868984	 1.0194170012	-0.251961
C	-1.2840289018	-0.5875206053	-0.1971797781	-0.006973
H	-0.6829725372	 1.45716266	 1.1433162519	 0.296823
H	 0.5477612766	 0.1559221442	-1.0132930553	 0.112593
H	 1.8463881688	 0.0101212243	 1.2184657404	 0.124974
H	 1.4838273903	-2.2459406837	 2.1446580116	 0.122514
H	-2.2785187051	-2.5820747384	-0.0254686298	 0.115631
H	-1.8843078152	-0.269405633	-1.0480623639	 0.116209
