19
gdb 72997	2.3761	1.59664	1.25944	2.2121	77.15	-0.2414	-0.0267	0.2148	1077.3141	0.156896	-422.998805	-422.989763	-422.988818	-423.032026	33.847	
C	-0.0085216997	 1.5694726497	 0.1666963672	-0.511884
C	 0.0186499186	 0.0695328018	 0.1112085018	 0.208104
C	-0.8422326695	-0.77032028	-0.8394801853	-0.142032
O	-1.0130035684	-1.8076992759	 0.1688558725	-0.28697
C	-0.2786896005	-1.0222114409	 1.0872778627	 0.057684
C	 1.1792455617	-0.8296220923	 0.6002371924	 0.136571
C	 1.8533248753	-1.8550490405	-0.2890060585	-0.506003
C	 2.0167101512	-0.2549581861	 1.6827278608	 0.090781
O	 1.6501256081	 0.5506405285	 2.5112389298	-0.285738
H	 0.5195065729	 2.000470892	-0.692011114	 0.119051
H	-1.0419636202	 1.9320962639	 0.1393348346	 0.1202
H	 0.459745437	 1.9370464157	 1.0799584546	 0.167068
H	-1.8044359581	-0.2937278697	-1.0543915938	 0.12078
H	-0.3974707342	-1.1511498921	-1.7644639604	 0.11306
H	-0.5385586392	-1.0417419455	 2.1388926205	 0.129683
H	 1.1276279508	-2.5838229482	-0.6562230245	 0.148089
H	 2.346450031	-1.3914605611	-1.1502184076	 0.122161
H	 2.6145763802	-2.4067826224	 0.2724468546	 0.12237
H	 3.0513595331	-0.6646745669	 1.7150988327	 0.077026
