18
gdb 126905	3.13705	1.0595	0.80856	3.6055	77.67	-0.1971	0.0196	0.2167	1415.2337	0.148268	-435.253231	-435.243995	-435.243051	-435.28812	33.234	
C	 0.0762889624	 1.4784646579	-0.0624260788	-0.394579
C	-0.0343702461	-0.0088032569	 0.2544755848	-0.12455
N	-1.362456707	-0.5068808973	-0.0923842998	-0.401994
C	-1.6486734967	-1.8368952802	-0.0975408907	 0.544571
C	-2.8596612497	-2.4858077217	 0.0009341731	-0.057633
N	-4.1002809736	-1.8259625441	 0.2136118399	-0.623283
C	-2.4927484874	-3.8485415435	-0.143972036	-0.004125
N	-1.20471604	-4.030066923	-0.3016818432	-0.177957
O	-0.6578733216	-2.7135797984	-0.2745137613	-0.232896
H	 1.0740026369	 1.8473164047	 0.1907619708	 0.125812
H	-0.1060863612	 1.6651185908	-1.1244651723	 0.132138
H	-0.6493007091	 2.0623164987	 0.515579599	 0.117619
H	 0.6948933945	-0.5769362056	-0.3289832624	 0.139904
H	 0.198584975	-0.1887822303	 1.3156203718	 0.105885
H	-2.148096093	 0.041613861	 0.2333325631	 0.250561
H	-4.7154361546	-1.8949515904	-0.5911762734	 0.24167
H	-4.602361266	-2.2083426021	 1.0080102858	 0.240545
H	-3.1365070829	-4.7190421295	-0.1298229104	 0.11831
