20
gdb 102882	3.20816	0.74697	0.63371	3.6707	85.93	-0.2678	0.0277	0.2955	1767.2556	0.168648	-366.00599	-365.995436	-365.994492	-366.042287	37.397	
C	-0.0719334555	 1.5696239498	 0.0817670635	-0.399142
C	 0.0055769314	 0.0439077012	 0.0048478195	-0.186762
C	 0.7183319004	-0.4844126174	-1.261901129	-0.135888
C	 0.8651187072	-2.0215507633	-1.2404052676	-0.190105
C	 1.6462707545	-2.5834506586	-2.4444676523	-0.374248
C	 1.8062459398	-4.0300676279	-2.3722756031	 0.287744
C	 1.9235321647	-5.2229330528	-2.2856545707	-0.425512
C	 0.0142339421	-0.0470071582	-2.473506786	 0.29009
N	-0.5511012651	 0.2872937975	-3.4251944662	-0.339904
H	 0.9272325489	 2.0188330468	 0.0791794022	 0.119043
H	-0.6277512207	 1.9827170676	-0.7652787509	 0.145673
H	-0.5759221778	 1.8836723773	 1.0001213611	 0.122899
H	 0.5511277842	-0.3483003632	 0.8706787858	 0.10824
H	-1.0011041182	-0.3874985101	 0.0459161917	 0.119027
H	 1.7225125777	-0.0391305766	-1.302349796	 0.123453
H	 1.3790152255	-2.2981381082	-0.3144039357	 0.119207
H	-0.1274585181	-2.4819799116	-1.2044513412	 0.129277
H	 1.130385657	-2.3143806135	-3.3743619472	 0.15809
H	 2.6349496485	-2.1078607729	-2.4946204417	 0.131385
H	 2.0325636636	-6.2773403658	-2.2251210862	 0.197431
