15
gdb 128934	7.35433	0.7448	0.6805	3.5553	72.73	-0.2123	0.0091	0.2213	1522.9014	0.115069	-412.999939	-412.991831	-412.990887	-413.033777	28.958	
N	-0.0859356577	-1.1455523012	 0.0794693883	-0.290659
C	-0.0316092371	 0.0071758763	 0.0397528318	 0.254687
C	 0.0412535262	 1.4673746096	-0.0398382575	-0.273671
N	 1.4019678882	 1.9261247872	 0.1911509614	-0.415641
C	 1.6126396411	 3.3091279813	 0.0750913827	 0.255742
C	 2.8294859378	 3.9639965167	-0.0073393831	-0.14515
N	 2.5359142962	 5.2912139447	-0.0481884404	-0.169663
N	 1.2263809454	 5.5515375392	 0.0047602275	-0.22682
C	 0.6516425872	 4.3499316052	 0.0767376315	-0.067472
H	-0.3765118652	 1.7820016449	-1.012321425	 0.14583
H	-0.614601955	 1.886379615	 0.7332473595	 0.167681
H	 2.0759191488	 1.3786761476	-0.3270138181	 0.247798
H	 3.8421507	 3.5959531832	-0.0343184279	 0.131897
H	 3.1841365148	 6.0572503725	-0.113090893	 0.278501
H	-0.4239340708	 4.2781960679	 0.1308274922	 0.10694
