13
gdb 132655	3.22557	1.42497	0.98885	0.9112	65.06	-0.2138	-0.0304	0.1834	1077.7676	0.090337	-494.096715	-494.08933	-494.088385	-494.128357	28.391	
N	 0.0187215692	 1.3509485596	-0.0785301757	-0.558496
C	-0.0009703366	-0.0177301323	-0.0470806978	 0.429614
N	-1.1956730313	-0.6189754593	-0.0154949672	-0.311693
C	-1.1923770632	-1.9530122171	-0.0420234572	-0.053547
C	-0.0259106678	-2.7043452705	-0.0952775556	 0.187418
O	-0.0441518212	-4.065238385	-0.1209194656	-0.443649
C	 1.1436135027	-1.9454398684	-0.1091941978	 0.222286
F	 2.3042935356	-2.610046242	-0.1452956965	-0.080677
N	 1.1921460065	-0.6427957766	-0.0856319022	-0.353894
H	 0.8864373289	 1.7938464709	 0.1741865249	 0.264038
H	-0.8308631278	 1.8093858192	 0.206672763	 0.263899
H	-2.1544843524	-2.4583590862	-0.016713197	 0.129282
H	 0.8686999674	-4.3749503224	-0.1501404754	 0.30542
