14
gdb 132439	3.20087	1.36808	0.96409	2.0525	69.52	-0.2298	-0.0547	0.1752	1117.8907	0.10078	-478.0347	-478.027061	-478.026117	-478.067016	28.422	
C	-0.0309487889	 1.502959295	-0.004035482	-0.459316
C	-0.008655487	 0.0052994974	-0.0342801409	 0.204016
N	-0.0411915245	-0.6342978462	-1.1662047707	-0.277795
C	-0.0210640538	-2.003020674	-1.2053789604	-0.213303
C	 0.0333772852	-2.7096516602	-0.0524802253	 0.364442
F	 0.0568717031	-4.0300933462	 0.0182044504	-0.048547
N	 0.0683552144	-2.0747644055	 1.1457771148	-0.410115
C	 0.0512662952	-0.6755576223	 1.2744439368	 0.374851
O	 0.0840687012	-0.1416934631	 2.3663403777	-0.369116
H	 0.8611319148	 1.8911960943	 0.4997554163	 0.144441
H	-0.080545447	 1.8934567398	-1.0207466713	 0.135903
H	-0.8879331483	 1.8636269199	 0.5753130397	 0.144535
H	-0.0494518704	-2.4957125154	-2.1674378134	 0.132402
H	 0.109019566	-2.6141523835	 2.0012120682	 0.277601
