18
gdb 14950	4.46294	1.32032	1.09818	1.5637	68.69	-0.2455	-0.024	0.2215	1065.6053	0.154952	-384.959021	-384.951467	-384.950523	-384.991374	28.076	
O	-0.1228251484	-0.0228495981	 0.0014641892	-0.247842
C	-0.0221209617	 1.1764689819	 0.008334635	 0.14981
C	 1.2805548392	 1.9453370192	-0.000159095	-0.063446
C	 1.3702450674	 2.8438394347	-1.2523605503	-0.221333
C	 2.6046849997	 3.74573526	-1.1738500673	-0.078917
O	 2.6134182734	 4.5271280181	 0.0072809898	-0.24035
C	 2.6313010259	 3.7252954654	 1.1745222035	-0.078944
C	 1.3987860242	 2.8218871338	 1.2652703106	-0.221278
H	-0.9295104265	 1.8281768318	 0.0223595471	 0.069561
H	 2.0920463403	 1.2084525277	-0.0156587012	 0.092105
H	 1.4121259482	 2.23349355	-2.1613127968	 0.110142
H	 0.474323968	 3.474218664	-1.3190683326	 0.108938
H	 3.5195384241	 3.1301831899	-1.2279037033	 0.089318
H	 2.6251229115	 4.4515258781	-2.009137652	 0.111884
H	 3.5470293281	 3.1090874554	 1.1971214774	 0.089325
H	 2.6707572337	 4.4164359385	 2.0213006477	 0.11189
H	 0.5047167907	 3.4508025446	 1.3632956593	 0.108937
H	 1.4611577623	 2.1956789449	 2.1621667091	 0.1102
