13
gdb 130188	3.57797	1.68018	1.1452	1.3202	65.86	-0.2113	-0.0155	0.1957	963.1908	0.093247	-448.936999	-448.930233	-448.929289	-448.968004	25.861	
N	-0.047284863	 1.4110166255	 0.1695564219	-0.597804
C	 0.057633118	 0.0290336621	 0.0449061138	 0.222682
N	-1.0245285523	-0.7541521693	 0.0074850486	-0.291386
N	-0.5851270259	-2.0559856774	-0.0270379462	-0.35159
C	 0.763384998	-2.0912639655	-0.0262790686	 0.379171
C	 1.2020779267	-0.7934217796	 0.0203105356	 0.218808
O	 2.5751217317	-0.8247599261	 0.0261671154	-0.21315
C	 2.8423526791	-2.1652934409	-0.017670839	 0.04633
N	 1.8227779236	-2.9731426715	-0.0489883653	-0.354193
H	 0.6106572109	 1.9171266066	-0.4084796432	 0.251977
H	-0.9934435072	 1.7229794366	-0.0107324697	 0.255371
H	-1.2588200118	-2.7997170683	-0.0324067152	 0.278784
H	 3.8873247321	-2.4347688623	-0.0226059181	 0.155001
