16
gdb 62325	4.07501	1.30253	1.14942	5.9218	73.21	-0.2241	0.0192	0.2432	1050.1899	0.125245	-396.833248	-396.82575	-396.824805	-396.864845	29.935	
N	 0.1919808954	 1.5168497084	 0.0413569311	-0.584457
C	-0.0289847435	 0.0953796223	 0.0658459289	 0.15088
C	 1.0233767168	-0.5968036272	-0.6686857366	 0.266017
N	 1.8448880354	-1.1411021599	-1.2731221477	-0.338593
C	-0.4634570176	-0.7329654863	 1.2604017755	-0.078339
C	-1.686841377	-0.1857696656	 2.0463556944	-0.071944
N	-2.1529891547	 1.09595468	 1.4541520051	-0.350304
C	-2.5136328512	-0.203490754	 0.8242522064	-0.073688
C	-1.3235489205	-0.7442773508	-0.0102323158	-0.107668
H	 0.2130285229	 1.8404991435	-0.9213785138	 0.232897
H	-0.5831341113	 1.9646321478	 0.5190568371	 0.261549
H	 0.1620476452	-1.5226727873	 1.6564168449	 0.117827
H	-1.9249493637	-0.4486093432	 3.0680916563	 0.111385
H	-2.9608712247	 1.3975595602	 1.9979702646	 0.239809
H	-3.5482521064	-0.481660305	 0.6747002124	 0.110282
H	-1.4353952652	-1.5419241529	-0.7333052827	 0.114348
