21
gdb 63437	3.95252	0.79327	0.78686	3.795	79.95	-0.2434	-0.0206	0.2228	1555.7247	0.179222	-424.233667	-424.223608	-424.222663	-424.269672	36.358	
C	 0.4865491372	 1.2781510016	 0.301290078	-0.427706
C	-0.0487846219	-0.108360932	-0.0238752275	 0.439841
C	-1.5551040895	-0.2059628457	 0.1831007992	-0.425417
C	 0.4766774412	-0.7568792968	-1.3336403077	-0.360462
C	 1.0713303028	-1.8366934592	-0.4093802851	 0.143218
C	 2.5847162927	-2.049051805	-0.4363954365	-0.295829
C	 3.058274448	-2.8881316329	 0.7326381829	 0.15489
O	 3.7290010022	-3.8839577894	 0.6301858732	-0.241395
O	 0.6394378481	-1.1266155113	 0.7718544667	-0.341289
H	 1.570700333	 1.3202308054	 0.1651771845	 0.115031
H	 0.0265303847	 2.0322267767	-0.3466505601	 0.117461
H	 0.2627522199	 1.5384430851	 1.3409328894	 0.126335
H	-2.0830916755	 0.4981355919	-0.4692301562	 0.115763
H	-1.9147080749	-1.215389358	-0.0361603789	 0.118545
H	-1.8115286067	 0.0291833723	 1.2209326954	 0.125602
H	-0.2859300146	-1.0949782907	-2.0370554896	 0.109587
H	 1.2204097661	-0.1603773546	-1.8671086084	 0.106592
H	 0.5631974916	-2.8081789713	-0.484292305	 0.085044
H	 2.8937965624	-2.5324223247	-1.3686013073	 0.119155
H	 3.0732146205	-1.0673739247	-0.3671931988	 0.117451
H	 2.7313304327	-2.5107223066	 1.7254272118	 0.097582
