19
gdb 77626	2.1823	1.42391	1.26786	0.9294	84.21	-0.2268	0.0334	0.2602	1144.4364	0.156553	-385.827558	-385.818198	-385.817254	-385.861137	35.377	
C	 0.0059059074	 1.5685384124	-0.01926767	-0.42729
C	 0.0823326208	 0.0586660091	-0.0376915554	-0.118972
C	 0.6881176479	-0.74021134	-1.1474907118	 0.394955
C	 0.03525401	-1.8021464636	-1.9678680125	-0.483743
O	 1.7833887027	-0.029098496	-1.735946367	-0.317574
C	 2.5298002266	-0.0799954043	-0.4950105638	-0.144724
C	 1.3639367385	-0.7424330493	 0.2404564312	 0.037312
C	 1.4699734395	-1.7437347813	 1.2392555024	 0.17818
C	 1.5694038657	-2.5935309167	 2.0872458025	-0.410636
H	 0.7924676428	 2.010110805	-0.6350895641	 0.13764
H	-0.9552253749	 1.9035684343	-0.4234287788	 0.121237
H	 0.0952677524	 1.9598414272	 0.9992520254	 0.122274
H	-0.7707363222	-0.448459223	 0.4082983233	 0.09898
H	-0.4937691512	-1.356135887	-2.8179203542	 0.134894
H	 0.7768646949	-2.5052410569	-2.3580542536	 0.133937
H	-0.6916919263	-2.3542116142	-1.3660157053	 0.132874
H	 3.3965362434	-0.7411571516	-0.5929293796	 0.119392
H	 2.8503548873	 0.9111487907	-0.1549914808	 0.107309
H	 1.6552538847	-3.3414731048	 2.8356334521	 0.183954
