17
gdb 79218	2.70511	1.673	1.34249	4.4556	76.79	-0.2323	0.0065	0.2388	992.2663	0.136553	-380.810285	-380.802765	-380.80182	-380.842058	29.51	
C	-0.0438916864	 1.5197344571	 0.0491394109	-0.345287
N	 0.1032478395	 0.0702716074	-0.0084763819	-0.112667
C	 0.7860178729	-0.5447696221	-1.1400813064	-0.010093
C	 2.3150679641	-0.591401191	-0.8610331579	-0.103544
C	 2.5168865425	 0.0198561504	 0.5214912363	-0.283126
C	 1.1160398844	-0.5973024815	 0.8620834808	 0.217074
C	 0.7369996526	-0.8726260825	 2.2270896689	 0.190917
N	 0.453736938	-1.0952678789	 3.3256070211	-0.342857
C	 1.3653861854	-1.6380076632	-0.3107882622	-0.15232
H	 0.8694776802	 2.0854084741	-0.1869528131	 0.108239
H	-0.8187706714	 1.8152607645	-0.6650502056	 0.130196
H	-0.3853101347	 1.8023786145	 1.0497008219	 0.138605
H	 0.3633081585	-0.5786653513	-2.1359029295	 0.109291
H	 3.0456306499	-0.7133144041	-1.6495006809	 0.100838
H	 3.2990578977	-0.5040062103	 1.0744969046	 0.12688
H	 2.6377370068	 1.100301505	 0.6391859476	 0.108911
H	 1.3127636801	-2.715120198	-0.3521050647	 0.118944
