17
gdb 45280	2.83214	1.74073	1.26441	4.2313	73.32	-0.2118	-0.0254	0.1864	991.2391	0.137451	-417.94929	-417.942098	-417.941154	-417.980924	28.569	
O	-0.0738259294	 0.0022654401	-0.0844698381	-0.300181
C	-0.0204960034	 1.1947848175	 0.0012912967	 0.322289
C	-1.099501314	 2.3146402382	 0.0474528772	-0.335607
C	 0.0053693119	 3.3764518707	-0.1941329958	-0.093386
N	 0.4706197111	 4.0294252936	 1.0535845292	-0.319192
C	 1.5535373252	 3.0445548005	 1.2052691195	-0.048423
C	 2.8775171719	 3.2342129668	 0.3991882279	-0.182658
N	 2.4456497479	 2.1719877297	-0.5456532663	-0.400433
C	 1.0953084053	 2.2213792524	-0.0564709146	 0.264101
H	-1.8206736056	 2.2123293418	-0.7688789881	 0.130785
H	-1.6321167986	 2.4139943019	 0.9956808986	 0.135675
H	-0.1000566696	 3.9992512829	-1.0838925705	 0.07638
H	 0.7868428964	 4.9874130387	 0.9460396682	 0.219886
H	 1.6629514371	 2.6101630645	 2.2004147857	 0.099267
H	 2.9599130358	 4.2423817219	-0.0296591344	 0.092752
H	 3.8080990627	 2.9952750014	 0.9244490653	 0.114685
H	 2.5928983753	 2.3268934873	-1.5371829405	 0.224061
