23
gdb 85943	2.44242	1.37862	1.17063	0.9125	81.67	-0.2443	0.0825	0.3268	1224.2413	0.203115	-425.456922	-425.446745	-425.4458	-425.491513	38.704	
C	-0.03605169	 1.5748234513	-0.1951614108	-0.418934
C	 0.0491150233	 0.0767744355	 0.0323913583	 0.104003
O	 0.7708069218	-0.5278235351	-1.0362336042	-0.296884
C	 1.1911558635	-1.8067322865	-0.5839671507	 0.45161
C	 0.1715013938	-2.8874932152	-0.9550334303	-0.412532
C	 2.5723658442	-2.0917693327	-1.1626097404	-0.418567
O	 1.2659500338	-1.7187270322	 0.8449222887	-0.316094
C	 0.8228524534	-0.4281359304	 1.2683519793	 0.112688
C	 2.0082371497	 0.4280942705	 1.7079197126	-0.40269
H	 0.9575765421	 2.0220356079	-0.2743823394	 0.128278
H	-0.5781187244	 1.7810671164	-1.1219774357	 0.128518
H	-0.5743018833	 2.0559973604	 0.6275175236	 0.117874
H	-0.9714280887	-0.3375088047	 0.0721148929	 0.068469
H	 0.1009047191	-2.9890931726	-2.041625988	 0.117779
H	 0.4724503491	-3.8484539192	-0.5289895098	 0.122296
H	-0.8159230243	-2.6346210995	-0.5607111247	 0.114852
H	 3.2669297095	-1.3003455205	-0.8735256075	 0.120621
H	 2.9473518622	-3.0467736696	-0.7856479675	 0.122133
H	 2.525321627	-2.1390771916	-2.2541019606	 0.120712
H	 0.1425476598	-0.5734381273	 2.1163781374	 0.076141
H	 2.6645112639	 0.6589428992	 0.8638854133	 0.12541
H	 1.6734247631	 1.3690919289	 2.1568283881	 0.110491
H	 2.5913670814	-0.1179009728	 2.4543609854	 0.123828
