21
gdb 38050	3.34468	1.65771	1.415	0.342	85.5	-0.2186	0.0174	0.2359	997.319	0.186362	-349.925704	-349.918868	-349.917924	-349.956518	29.641	
C	-0.0177908797	 1.628180763	 0.2428852508	-0.253475
C	 1.501303848	 1.3464275824	 0.0182329334	-0.11441
C	 1.7641161856	 0.4154094122	 1.2210634634	-0.081597
C	 0.7109538796	-0.4133960434	 1.2265049028	-0.199249
C	-0.0940990379	 0.0645185395	 0.0185323917	 0.35837
C	-1.2643889027	-0.5630050407	-0.7033854755	-0.35236
C	-1.1803074331	 0.0773481862	-2.124555076	-0.20027
C	 0.2969352294	 0.5733106272	-2.3448143271	-0.272526
C	 1.0474696644	 0.2656897167	-1.0330931013	 0.033239
H	-0.3171185613	 1.9990072704	 1.225596976	 0.088641
H	-0.4883427357	 2.220337984	-0.5465850629	 0.092459
H	 2.2270388181	 2.1322920373	-0.1945114516	 0.05309
H	 2.6125225569	 0.459236995	 1.889932391	 0.095343
H	 0.4710771377	-1.2290902652	 1.8942801092	 0.097678
H	-1.1271431613	-1.649977881	-0.7603779472	 0.097826
H	-2.2356493782	-0.3823172468	-0.2318337971	 0.095761
H	-1.4898368994	-0.6300899129	-2.8988180634	 0.096886
H	-1.8693566571	 0.9247788186	-2.1896179227	 0.102538
H	 0.7669114417	 0.0485463892	-3.1806793014	 0.097587
H	 0.309754621	 1.6358153956	-2.6037221063	 0.102636
H	 1.739241974	-0.5740718072	-1.1417447558	 0.061833
