23
gdb 86905	4.17936	0.76748	0.7057	1.6285	86.73	-0.2609	0.0902	0.351	1688.8352	0.205251	-388.264309	-388.254801	-388.253857	-388.299494	35.542	
C	 0.1619033912	 1.6090532606	 0.2311030164	-0.40648
C	 0.151182706	 0.091406191	 0.1361926999	 0.058461
C	 1.0666940818	-0.6086092575	-0.9088588661	-0.261401
C	 1.3501514516	-1.721981543	 0.1368460031	 0.055134
C	 2.7554854843	-2.3084404063	 0.2297199165	-0.253748
C	 2.9048142621	-3.296164327	 1.3619251504	 0.106514
C	 4.1453009249	-3.4362766689	 2.133599185	-0.18359
O	 3.0173758802	-2.7525576269	 2.6825844462	-0.232338
C	 0.8596513989	-0.7424278145	 1.2402574679	-0.228906
H	 1.1836831294	 1.987247763	 0.3517372007	 0.108618
H	-0.2595871261	 2.0697541852	-0.6697842739	 0.110627
H	-0.4246520017	 1.9587989116	 1.0883006529	 0.113144
H	-0.8788189461	-0.2638227823	 0.0129538416	 0.067485
H	 0.6306054455	-0.9001815041	-1.8683785611	 0.090156
H	 1.9664503097	-0.0125886074	-1.1035913383	 0.0911
H	 0.6236765979	-2.5351725896	 0.0144643372	 0.066092
H	 3.007431299	-2.8152187797	-0.7127902587	 0.097359
H	 3.48628095	-1.5013664668	 0.3648213929	 0.095095
H	 2.248258468	-4.1677896333	 1.3074364446	 0.08728
H	 4.3913194671	-4.3875573471	 2.6039499625	 0.111479
H	 5.0005359996	-2.8063850199	 1.8902817104	 0.110481
H	 1.6998265768	-0.1925503005	 1.6778728657	 0.100638
H	 0.2539665497	-1.1456417366	 2.055143004	 0.096801
