19
gdb 72745	2.48294	1.81731	1.54311	1.163	74.41	-0.2283	0.059	0.2872	969.8726	0.158943	-422.973475	-422.965718	-422.964774	-423.005337	30.846	
C	-0.1495202145	 1.5347853691	-0.0065017011	-0.47779
C	 0.0164813092	 0.0434917126	 0.0952179824	 0.30829
C	 1.003639668	-0.6764233644	-0.868264682	-0.135461
O	 1.7547809937	-1.2341860952	 0.2512385616	-0.337908
C	 0.7757022147	-0.777010047	 1.1625757178	 0.392782
C	 0.9222403765	-0.410496637	 2.6289053942	-0.33899
C	-0.5967602159	-0.7779620773	 2.7988357019	-0.249661
C	-0.6039256582	-1.4415344053	 1.3845343066	 0.037355
O	-1.2242035606	-0.6690503882	 0.3294272359	-0.34431
H	 0.8224641489	 2.029732418	-0.0940924593	 0.126644
H	-0.7424502447	 1.7880885341	-0.8928999401	 0.134157
H	-0.6709298983	 1.93151807	 0.869071915	 0.128093
H	 0.5361737071	-1.4511043853	-1.4845527843	 0.114114
H	 1.6397106561	-0.0323733773	-1.4852168215	 0.106286
H	 1.5698687202	-1.1127641961	 3.1619395052	 0.120263
H	 1.2385960846	 0.608556871	 2.86705796	 0.104205
H	-0.8143569085	-1.4567229795	 3.6251530887	 0.110438
H	-1.2664895371	 0.0817799761	 2.8562006837	 0.117086
H	-0.8272636013	-2.5080764783	 1.3234752352	 0.084409
