18
gdb 36737	5.42728	0.7083	0.66646	3.3866	72.56	-0.2703	0.0354	0.3056	1625.5533	0.148326	-439.100033	-439.091214	-439.09027	-439.135096	30.815	
N	 0.0068641513	-1.1465061421	-0.0821087549	-0.304575
C	-0.0075195211	 0.0075993174	-0.0254807285	 0.255763
C	-0.0003245187	 1.4661427643	 0.0478250698	-0.338888
C	 1.4261539201	 2.048377144	 0.0778617413	-0.207098
C	 1.4068420112	 3.5722029832	 0.1347000918	 0.108786
C	 2.800403973	 4.2301573965	 0.0651521463	-0.134392
O	 2.5766341877	 5.3926472327	-0.7152721147	-0.229104
C	 1.6163706099	 5.0018860537	-1.6589165162	 0.024643
O	 0.7254810482	 4.1153556554	-1.0021521819	-0.274951
H	-0.5374150572	 1.8719954237	-0.8151817747	 0.172768
H	-0.5565159194	 1.7732446866	 0.9414739113	 0.15078
H	 1.9673084042	 1.6591510244	 0.9480651812	 0.12306
H	 1.9698839554	 1.7238485846	-0.8156304885	 0.124791
H	 0.8713849772	 3.9029465637	 1.0360859884	 0.087391
H	 3.1923697663	 4.5341191101	 1.037255706	 0.127033
H	 3.5258381589	 3.5597521463	-0.4227353382	 0.100427
H	 1.0716053101	 5.8868527495	-2.0007639976	 0.124251
H	 2.089009873	 4.4908930157	-2.5169822009	 0.089315
