16
gdb 54048	1.91321	1.51065	0.92931	3.6551	72.89	-0.2823	-0.0385	0.2438	1233.5653	0.123698	-434.103228	-434.094084	-434.093139	-434.13793	32.218	
C	 0.023537827	 1.4813615844	-0.121029092	-0.474047
C	 0.0299439657	-0.0180867535	 0.053626957	 0.406108
N	 1.1469431466	-0.6030609127	 0.2090909614	-0.490614
N	-1.226963913	-0.6779212129	 0.0212341292	-0.129455
C	-1.2811188775	-2.1367057861	 0.0594511515	-0.342069
C	-0.9409874841	-2.6992969426	 1.3719499895	 0.276155
N	-0.6685340026	-3.1575548993	 2.3964684924	-0.293803
C	-2.4482499193	-0.0239256401	-0.0938325108	 0.170006
O	-3.5129206876	-0.5910967809	-0.1548368401	-0.311669
H	 1.0621016113	 1.8082372127	-0.1102285729	 0.165291
H	-0.438314063	 1.7848444314	-1.0657590528	 0.144007
H	-0.5098898451	 1.9828325848	 0.692889973	 0.150488
H	 1.0782410929	-1.6080974156	 0.357520329	 0.232982
H	-2.3090445679	-2.4115727263	-0.1903584844	 0.204914
H	-0.6127962206	-2.5591074091	-0.6979897381	 0.17106
H	-2.3510723627	 1.0681745758	-0.126334692	 0.120644
