13
gdb 21531	3.39242	2.07923	1.2994	2.4039	57.1	-0.2087	0.0277	0.2364	862.8741	0.096757	-431.90748	-431.900059	-431.899115	-431.938728	27.876	
N	 0.0902427339	 1.3696387337	 0.1633082616	-0.589704
C	-0.0269370512	 0.0115584723	 0.0455107366	 0.494439
C	-1.1384796346	-0.7886397357	 0.0074435405	-0.090773
N	-2.4822396961	-0.3358597965	-0.0034795524	-0.630189
C	-0.5651481272	-2.0901842749	-0.0421476375	 0.423107
O	-1.2766480922	-3.2289365379	-0.0998984377	-0.425152
N	 0.7454800803	-2.0950144653	-0.0448646273	-0.286483
O	 1.0946563133	-0.7137677189	 0.0226738251	-0.228556
H	 0.9173293378	 1.7675433694	-0.2581814729	 0.264866
H	-0.7651423824	 1.8517434275	-0.0780521581	 0.269476
H	-2.9676441918	-0.5738922228	 0.856644964	 0.244791
H	-3.008183173	-0.7597640154	-0.7613625324	 0.244773
H	-0.6479762069	-3.9620988956	-0.1430316196	 0.309406
