16
gdb 9186	7.91392	0.81248	0.75001	5.0929	67.25	-0.2649	0.0142	0.2791	1443.408	0.12963	-379.975134	-379.965819	-379.964875	-380.010962	30.803	
C	 0.0627560834	 1.4554224037	 0.0073950665	-0.336345
N	-0.0654864508	 0.0101218864	-0.0213329963	-0.318991
C	-1.2702319298	-0.6218739341	-0.0591740649	 0.429756
O	-2.3396001599	-0.0371488086	-0.040084439	-0.370766
C	-1.1830041129	-2.147419406	-0.1499030459	-0.326506
C	-2.5275258238	-2.7860977859	 0.2335233542	-0.328852
C	-2.5259276214	-4.2325963254	 0.035630375	 0.252865
N	-2.507779719	-5.3768342496	-0.1252167433	-0.306734
H	 0.6076147433	 1.7867309442	 0.8977711874	 0.130519
H	 0.5829125893	 1.8276643953	-0.8820218498	 0.130776
H	-0.9451162862	 1.8705283122	 0.0304357171	 0.175008
H	 0.7720347259	-0.5481940212	-0.0402308284	 0.249267
H	-0.9245636738	-2.4200342361	-1.1798675134	 0.150808
H	-0.3780248799	-2.529799398	 0.4863233835	 0.129532
H	-2.7658394374	-2.5694371814	 1.2797831758	 0.161445
H	-3.3241688369	-2.3299282555	-0.3604328885	 0.178217
