15
gdb 2219	3.76375	2.88713	2.26359	1.7993	56.63	-0.233	0.0665	0.2995	652.5971	0.124552	-345.60818	-345.601516	-345.600572	-345.638285	25.337	
C	-0.1190986925	 1.4780044996	 0.0130033138	-0.491288
C	 0.0962289212	 0.0026963615	 0.0744600938	 0.390842
O	-1.0603037755	-0.8454747816	-0.0994022216	-0.337207
C	-0.5837344603	-1.7418046921	 0.9496496787	-0.103715
C	 0.7190264795	-0.9719196109	 1.0788338929	-0.22388
C	 1.2941760365	-0.7954741429	-0.3203887644	 0.088963
O	 1.2288676265	-1.7795704698	-1.3022756636	-0.438667
H	 0.8201151008	 2.0070049906	 0.198903702	 0.127176
H	-0.4821045025	 1.7717296096	-0.97853731	 0.134763
H	-0.8557405615	 1.8020011268	 0.7550772393	 0.129133
H	-1.2353438201	-1.6748355048	 1.8265006103	 0.114081
H	-0.5202716202	-2.7805048336	 0.6067335284	 0.112701
H	 1.2788972724	-0.8001080147	 1.9889052948	 0.09789
H	 2.2359199435	-0.2537514075	-0.3463213717	 0.104344
H	 0.2976735322	-1.8343377603	-1.5583568328	 0.294864
