21
gdb 117228	3.27578	0.89699	0.82922	3.3381	81.78	-0.2402	0.0507	0.2908	1522.8246	0.181588	-420.42634	-420.416075	-420.415131	-420.462732	36.626	
C	-0.1970204105	 1.1850641796	-0.5643226997	-0.373354
C	-0.1165297742	-0.0988441964	 0.2610932992	-0.131677
N	-1.4203381672	-0.7111887716	 0.4548075947	-0.336063
C	-1.6362645355	-2.0482248726	 0.2419236211	 0.441806
O	-0.8156727441	-2.8045517638	-0.2431365916	-0.400276
N	-2.8922004935	-2.4809637229	 0.7032098664	-0.138116
C	-4.1648103585	-1.926611489	 0.2580116645	-0.268546
C	-3.7669325004	-3.3325263886	-0.0818697112	 0.02855
C	-3.434039289	-3.7190420428	-1.5038918577	-0.398707
H	 0.7985802567	 1.6228892253	-0.6868254728	 0.119498
H	-0.6116496863	 0.9841715704	-1.5564738184	 0.125106
H	-0.8311975103	 1.9349131865	-0.0777885357	 0.109385
H	 0.4952145622	-0.8505355135	-0.2416872183	 0.150778
H	 0.3553951002	 0.1083898956	 1.232009702	 0.102589
H	-2.1033979516	-0.215179146	 1.0046934771	 0.243694
H	-4.896556911	-1.7242164398	 1.0364559183	 0.117981
H	-4.142980825	-1.2001909039	-0.5524765455	 0.122025
H	-4.2182161665	-4.1289844523	 0.5082744329	 0.097288
H	-3.067418127	-2.8637736218	-2.0774518378	 0.124275
H	-2.6564436855	-4.4860026376	-1.5246106401	 0.150211
H	-4.3293903629	-4.1097642046	-1.9987575074	 0.113554
