13
gdb 4699	6.19237	1.34454	1.10468	1.9204	73.17	-0.1839	0.0092	0.1932	993.8452	0.095486	-361.468157	-361.460805	-361.45986	-361.499376	27.915	
O	 0.0825574758	 1.3177789792	 0.2519481195	-0.435099
C	 0.0674096617	-0.0130801344	 0.0076018267	 0.373839
C	 0.0598799089	-0.7598376995	-1.1531145186	-0.280017
C	 0.0436714696	-2.1222765754	-0.7534879018	-0.232329
C	 0.0417985918	-2.1726080454	 0.6283825924	 0.164802
N	 0.0566597032	-0.8509478508	 1.0751284304	-0.36105
C	 0.0283948772	-3.2553676149	 1.5229600674	 0.265684
C	 0.0169866878	-4.1741773555	 2.3050387647	-0.464051
H	 0.0891556109	 1.7822085323	-0.5905433225	 0.310554
H	 0.0653367152	-0.3728076389	-2.1601029482	 0.094222
H	 0.0342940108	-2.9840949838	-1.4017025957	 0.104777
H	 0.0590531564	-0.5596202731	 2.0375335596	 0.272729
H	 0.0068603306	-4.9905843599	 2.9830384861	 0.18594
