16
gdb 115134	2.65562	1.44574	1.09382	3.7878	68.32	-0.248	-0.078	0.17	1114.8908	0.123633	-475.028173	-475.019643	-475.018699	-475.062015	30.295	
C	-0.3534926395	 1.2362049622	-0.1160747131	-0.248669
O	 0.009500651	-0.1354282086	-0.0380866485	-0.251475
C	 0.8638690279	-0.567270672	-1.0832952278	 0.001162
C	 1.2886498428	-2.0000588849	-0.7886137569	-0.117315
O	 0.3374805288	-2.8697430949	-1.4496197013	-0.245151
C	-0.3571756644	-2.2059624566	-2.4092126372	 0.341497
N	-1.1862838243	-2.7057029628	-3.218627007	-0.505014
C	 0.016893604	-0.7362775687	-2.3566035236	 0.308432
O	-0.329883714	 0.1218160229	-3.1207433898	-0.28072
H	 0.536940364	 1.8804178652	-0.073768301	 0.112971
H	-0.9084477749	 1.4653483203	-1.0328393998	 0.145459
H	-0.9852857806	 1.4365001337	 0.7513887411	 0.137148
H	 1.7063286853	 0.1210964724	-1.2272795082	 0.098408
H	 2.2874998406	-2.216193307	-1.181388415	 0.125877
H	 1.2551512848	-2.2154575749	 0.2802125902	 0.142986
H	-1.2789435816	-3.7133424264	-3.069866822	 0.234405
