18
gdb 95528	2.20294	1.65714	1.2046	2.2463	77.55	-0.2487	0.0174	0.2661	1087.9196	0.147825	-401.92769	-401.919129	-401.918185	-401.960753	32.335	
C	-0.1440212866	 1.5470916342	-0.0424265847	-0.416682
C	 0.0211236991	 0.0282279576	-0.0140257363	-0.029591
C	 0.7405656535	-0.4917518592	-1.2527627708	-0.07448
O	 0.8576158914	-1.9244578463	-1.2280472358	-0.225375
C	 1.0093447072	-2.488176621	-0.0111355398	 0.13399
N	 1.0076964268	-1.9614050988	 1.1405396122	-0.265368
C	 0.7851190119	-0.5068428105	 1.2242220379	-0.163272
C	 2.0622386877	 0.1798391524	 1.4375169786	 0.375586
C	 3.1112392961	 0.7456641272	 1.5947104497	-0.491591
H	 0.8262241694	 2.0500067454	-0.0867460718	 0.136437
H	-0.7343907297	 1.8586023332	-0.9104921042	 0.115847
H	-0.6608055889	 1.8994294746	 0.8558044469	 0.123785
H	-0.9707740982	-0.4402598801	 0.0176609658	 0.094018
H	 0.1985398463	-0.2541405755	-2.1713560151	 0.11832
H	 1.7477761962	-0.0613286021	-1.317757252	 0.126296
H	 1.1382008399	-3.5639063834	-0.1187151965	 0.128315
H	 0.1629943059	-0.3381969182	 2.1126845439	 0.113552
H	 4.0407985919	 1.2353506205	 1.7501009021	 0.200212
