15
gdb 61705	2.36451	1.20569	0.98594	2.0795	69.22	-0.2891	-0.071	0.2181	1220.0325	0.108565	-453.948987	-453.9392	-453.938256	-453.984463	33.112	
C	-0.0114742585	 1.6853711824	 0.0450339907	-0.416053
C	 0.0404357484	 0.1577257473	 0.0939622153	 0.113961
O	 0.6887476995	-0.3364638614	 1.2637177238	-0.225832
C	 2.0456203018	-0.2351398308	 1.3515404012	 0.124551
N	 2.596237356	-0.4508346006	 2.4602803169	-0.425821
C	-1.3893869454	-0.4501073613	 0.2020129838	 0.151613
O	-2.3726344448	 0.1183579238	-0.1697649147	-0.217196
C	 0.6425741002	-0.4007159582	-1.1351379066	 0.254143
N	 1.0932529689	-0.8448885096	-2.1025769931	-0.316036
H	 0.9841487711	 2.1047683793	-0.1139211906	 0.139226
H	-0.6715255307	 2.0034707049	-0.7639006447	 0.166232
H	-0.4112931004	 2.0524242505	 0.9927854924	 0.154829
H	 2.5331713083	 0.0071166771	 0.4009240132	 0.122138
H	 3.6079800672	-0.3787861242	 2.3729360147	 0.242874
H	-1.3907496417	-1.4551559092	 0.6667335576	 0.13137
