14
gdb 4599	5.60592	1.60682	1.25859	2.7772	70.24	-0.2258	-0.0664	0.1594	922.4919	0.108015	-378.74679	-378.739872	-378.738928	-378.777947	25.753	
C	 0.0175887631	 1.5226781273	 0.2171383315	-0.467947
C	-0.0376739763	 0.0457275372	-0.0318334569	 0.243086
C	-1.1659823696	-0.6771629034	 0.0604521153	-0.008057
O	-1.2084812486	-2.0177966005	-0.1673113437	-0.224228
C	-0.0478012258	-2.6861405803	-0.5119897042	 0.358698
N	-0.0221536984	-3.9339523504	-0.7378593393	-0.523859
C	 1.1462050722	-1.8421261161	-0.5949146857	-0.01969
N	 1.1672428738	-0.5768941217	-0.3757596228	-0.270228
H	 0.7130397817	 1.7496090215	 1.0322756535	 0.141058
H	 0.3819954655	 2.049463166	-0.6712735628	 0.141059
H	-0.9655818595	 1.9222009807	 0.4785881426	 0.122394
H	-2.141124526	-0.2846623528	 0.3191753689	 0.137133
H	-0.9495141297	-4.3471700361	-0.6305120206	 0.227546
H	 2.0656074076	-2.3566108414	-0.8640832658	 0.143035
