21
gdb 61471	2.52325	0.887	0.81957	0.7685	90.71	-0.254	0.0482	0.3021	1543.863	0.178518	-349.897041	-349.886118	-349.885174	-349.9333	40.105	
C	 0.9596655625	-0.4500062659	 1.2616853832	-0.395046
C	 0.1290138105	 0.0644326799	 0.0682934064	-0.158476
C	 0.7939072938	-0.3367784166	-1.2695551596	-0.17521
C	 0.0483105733	 0.1319733666	-2.5413916747	-0.168775
C	-0.0505931542	 1.6673026451	-2.651506555	-0.392024
C	 0.6955919426	-0.4275763496	-3.7272894209	 0.316113
C	 1.2495347023	-0.878232132	-4.6947770469	-0.460846
C	-1.250674366	-0.4148728495	 0.1501755514	 0.350223
C	-2.3789883527	-0.8257641974	 0.2198879582	-0.496574
H	 1.017329976	-1.5424982986	 1.2492435684	 0.128359
H	 1.9774714033	-0.0504832575	 1.2147412422	 0.1159
H	 0.510536717	-0.1447296559	 2.210115734	 0.126104
H	 0.1072124251	 1.1605180707	 0.1281913402	 0.108974
H	 1.8125791858	 0.0685419483	-1.2833656786	 0.104621
H	 0.8858320726	-1.4275413256	-1.3006260878	 0.114794
H	-0.9721162462	-0.2700056166	-2.4895534205	 0.121369
H	 0.945201844	 2.122095276	-2.6423723091	 0.121651
H	-0.5423264753	 1.9526786605	-3.5847446143	 0.127648
H	-0.6319925747	 2.0820484841	-1.8235182831	 0.121849
H	 1.7249493287	-1.2819253389	-5.5539693741	 0.191397
H	-3.3777599983	-1.1806526467	 0.2848044005	 0.197946
