18
gdb 97693	2.91854	0.79906	0.69498	4.4098	87.83	-0.2495	0.0156	0.2651	1684.7948	0.146247	-364.792888	-364.783117	-364.782173	-364.828945	34.585	
C	 0.2658253982	 1.4458135297	 0.2346415202	-0.36583
C	-0.2654901049	 0.0829233067	-0.2460682146	-0.321471
C	 0.4750323156	-0.4564738634	-1.3812918754	 0.157196
C	 1.0966184378	-0.8787213685	-2.3227485092	-0.0605
C	 1.8367658788	-1.3909566544	-3.4457052091	 0.041275
C	 3.3161624285	-1.7609246962	-3.2573053438	-0.281564
C	 2.3137697418	-2.8514345231	-3.4208522814	-0.281381
C	 1.4688130938	-0.8584254668	-4.7386524962	 0.223661
N	 1.1850420458	-0.4405079696	-5.7789751749	-0.344219
H	 1.309582746	 1.3673056201	 0.5505090231	 0.127549
H	 0.2102029788	 2.1878081239	-0.5660784415	 0.13469
H	-0.3251008881	 1.8061402198	 1.081717285	 0.117925
H	-0.2329109073	-0.6388698004	 0.580104671	 0.132172
H	-1.3237275026	 0.1756852149	-0.5214024432	 0.137984
H	 3.9800282314	-1.5380488491	-4.0838517645	 0.14787
H	 3.7192878198	-1.5666286304	-2.2712595287	 0.143094
H	 2.0153104874	-3.4207795486	-2.5494838696	 0.143546
H	 2.279351909	-3.3876241344	-4.361521987	 0.148004
