14
gdb 9042	4.37892	0.86014	0.76886	2.9098	71.21	-0.2671	-0.073	0.1941	1410.2613	0.103418	-382.52552	-382.51635	-382.515406	-382.561369	29.574	
C	 0.2872366789	 1.5460226058	-0.0660562342	-0.400431
C	-0.0149126538	 0.0280270626	 0.0345838353	-0.229846
C	 0.5603740777	-0.6614191372	-1.2131284801	 0.170967
O	-0.1125631258	-1.0228369156	-2.1374067947	-0.231387
C	 0.5667135858	-0.5518262142	 1.2345289647	 0.12993
C	 1.1018342181	-1.0462240788	 2.1988069704	-0.019442
C	 1.6936152194	-1.6315338152	 3.3756383494	 0.028669
O	 2.8670638663	-1.9018802537	 3.4864972777	-0.225316
H	 1.3642569317	 1.7243165886	-0.1297989362	 0.143177
H	-0.1945970454	 1.9582696674	-0.9561012668	 0.144076
H	-0.0935004513	 2.064645494	 0.8164184487	 0.14568
H	-1.0986096596	-0.1291705183	 0.0160465284	 0.136198
H	 1.6666509826	-0.7683202194	-1.2019968013	 0.103973
H	 0.9740886655	-1.822012926	 4.1973543488	 0.103752
