20
gdb 39139	3.35782	1.39443	1.25672	1.0299	78.06	-0.2309	0.0751	0.3061	1079.3628	0.173297	-403.120438	-403.11279	-403.111845	-403.152871	30.253	
C	 0.0602777643	 1.2987679615	 0.4016855991	-0.070607
C	 1.4617093727	 1.5336913105	-0.1910804531	-0.352477
C	 1.2833084509	 0.1375886692	-0.8274034942	 0.490822
C	 1.2862244176	 0.0101380441	-2.3616115856	-0.286019
C	 1.4651854155	-1.4979754345	-2.6569857485	-0.217617
C	 2.2519469498	-2.0057079719	-1.4608935654	-0.023233
N	 3.4068528835	-1.1415136235	-1.1269664917	-0.35328
C	 2.1440904854	-1.0174808804	-0.3605952748	-0.105121
O	-0.0513256495	 0.0158476151	-0.2475768327	-0.330141
H	 0.0144718089	 1.209152025	 1.4943959435	 0.098516
H	-0.7229100939	 1.9931823703	 0.0740643235	 0.100689
H	 1.532490302	 2.3533850245	-0.9085826012	 0.109375
H	 2.2792379475	 1.6163749098	 0.5271375827	 0.109987
H	 0.3686573041	 0.4259084383	-2.7836186559	 0.101413
H	 2.1353841752	 0.5733312514	-2.7571995846	 0.119548
H	 0.4957607251	-2.0075522089	-2.6879486287	 0.109562
H	 1.9720568291	-1.6803494908	-3.6095073821	 0.100356
H	 2.3229566675	-3.0702445922	-1.262710826	 0.084385
H	 4.0708110786	-1.6758148938	-0.5718610908	 0.230838
H	 2.1165564559	-1.3021311138	 0.6861299865	 0.083002
