14
gdb 12154	3.56943	1.567	1.21563	3.0243	64.27	-0.2899	-0.0136	0.2763	967.6324	0.106938	-378.731942	-378.724342	-378.723397	-378.764178	27.069	
C	-0.1773085373	 1.4445846134	-0.0266014797	-0.412733
C	 0.0342684346	-0.0591043989	 0.0690500139	-0.147833
C	 0.9143974743	-0.7520702637	-1.0156423672	-0.019222
O	 1.8383549793	-1.2089706875	 0.0159527611	-0.255575
C	 1.1174240128	-0.5558147376	 1.0086993102	 0.449561
N	 1.3442392052	-0.4300829793	 2.2300952449	-0.531923
C	 0.3186760109	-1.8538552551	-1.7621787142	 0.284152
N	-0.1754754244	-2.7085862151	-2.3620482455	-0.307743
H	 0.7658441031	 1.968297979	-0.2096257895	 0.131918
H	-0.875087282	 1.6912761084	-0.8320751544	 0.134883
H	-0.5913701567	 1.8179418459	 0.9135737434	 0.155113
H	-0.9114665766	-0.5836551452	 0.2257967802	 0.137519
H	 1.4162280057	-0.0628656028	-1.7011160102	 0.141506
H	 2.2018679811	-0.9034596215	 2.5171660771	 0.240378
