15
gdb 55619	1.8147	1.79682	1.06377	8.3465	82.02	-0.1865	-0.05	0.1365	1110.8616	0.112749	-412.996653	-412.987291	-412.986347	-413.031252	33.588	
N	 0.3450935887	 1.0353763557	-0.2411376694	-0.482051
C	-0.2181072206	-0.1413724798	 0.069904257	 0.439114
N	 0.5490154702	-1.182533999	 0.424865239	-0.482271
H	 0.1085038415	-2.0934311306	 0.4226182457	 0.306473
H	 1.5235166159	-1.1970039068	 0.1561774931	 0.277309
C	-1.6927323781	-0.3057896989	-0.0276725456	-0.37435
C	-1.777163356	-0.7495616804	-1.4861485504	-0.15935
C	-1.4709711604	-2.0911653634	-1.7278296427	 0.207877
N	-1.1801119598	-3.221632118	-1.7763501236	-0.408881
C	-1.684370208	 0.2724924318	-2.4340054339	 0.2082
N	-1.5811403609	 1.2246850535	-3.1031347567	-0.409217
H	 1.315970485	 1.0632887034	-0.5216795603	 0.277199
H	-0.2404560123	 1.7062659479	-0.7218576702	 0.30654
H	-2.0632323415	-1.0656400073	 0.6628767908	 0.146663
H	-2.2189583438	 0.632785302	 0.1560978673	 0.146746
