21
gdb 97553	3.1752	0.69953	0.66136	2.7156	84.77	-0.2465	0.0362	0.2827	1825.9734	0.178955	-424.203172	-424.191784	-424.190839	-424.241334	40.4	
C	 0.0120327349	 1.5800364551	-0.0412486226	-0.363733
C	-0.0287395572	 0.0469936527	 0.0947841383	-0.318475
C	-1.3821547714	-0.497545377	 0.0527611651	 0.070259
C	-2.5095164814	-0.9228003285	 0.0144317106	 0.061081
C	-3.8800490006	-1.4434247141	-0.0307490652	 0.109381
C	-3.8938465181	-2.9790856443	 0.0208038504	-0.413038
O	-4.669539185	-0.9044781607	 1.0454425489	-0.460726
C	-4.6056076519	-0.9211478261	-1.2923081979	-0.047719
O	-5.9600888956	-1.3136132579	-1.304169571	-0.427047
H	 1.0450753763	 1.938302991	-0.0047350337	 0.115376
H	-0.4304569022	 1.8974741896	-0.989192508	 0.130029
H	-0.5476764581	 2.0568501598	 0.7678411636	 0.129801
H	 0.5675346764	-0.4092024435	-0.705923209	 0.132032
H	 0.4539676185	-0.2519884875	 1.0341991896	 0.12963
H	-3.4885675801	-3.334054243	 0.9736123836	 0.10712
H	-4.9205703986	-3.3330774027	-0.092408573	 0.134357
H	-3.2806789055	-3.3982359401	-0.7819181526	 0.124274
H	-4.2680831859	-1.180087774	 1.8757781932	 0.284131
H	-4.496012807	 0.1723715371	-1.3196105824	 0.098749
H	-4.1343736638	-1.3375914173	-2.1866445891	 0.112639
H	-6.3181910037	-1.0383563887	-0.4511103987	 0.291881
