19
gdb 89029	4.2946	0.73214	0.65677	2.7755	73.46	-0.2511	0.0586	0.3097	1701.5022	0.158719	-456.363594	-456.353683	-456.352739	-456.400193	35.16	
C	 0.1082756605	 1.4680668188	-0.2998683777	-0.395275
C	 0.0308881174	 0.0075506737	 0.0803094358	 0.000027
N	 1.2946105271	-0.7432126825	 0.1551022726	-0.334386
C	 0.4938773783	-0.5598939883	 1.3775152606	-0.036396
C	 1.0979391046	 0.2663443562	 2.4763267718	-0.055579
O	 1.8908894224	-0.6214362007	 3.2843206008	-0.264042
C	 2.4192501261	-0.0607236948	 4.3988196462	 0.497487
N	 3.1226765465	-1.0010810655	 5.1026484156	-0.563454
O	 2.2607291334	 1.0895155403	 4.7348415217	-0.397984
H	 0.9998934641	 1.9431065675	 0.1140457712	 0.131794
H	 0.15208618	 1.573626061	-1.3891092074	 0.121769
H	-0.7738232761	 2.0119063145	 0.0549813398	 0.118947
H	-0.8202674238	-0.5138622435	-0.3574973376	 0.083285
H	 1.1817547105	-1.6851972354	-0.2083307366	 0.230988
H	-0.0598004289	-1.4221474849	 1.746731931	 0.087607
H	 1.7351777776	 1.0593120319	 2.079067854	 0.123803
H	 0.3262738211	 0.7266460495	 3.1018518397	 0.121342
H	 3.4031835218	-1.841780567	 4.6263065385	 0.263042
H	 3.7348293473	-0.6436852908	 5.8160108898	 0.267026
