18
gdb 23055	3.29441	1.06692	0.94037	0.8325	78.43	-0.2262	-0.002	0.2242	1299.454	0.14525	-439.005431	-438.996343	-438.995399	-439.0393	33.57	
C	-0.1470608637	 1.4270219396	-0.054564306	-0.402481
C	 0.0650191994	-0.0699582917	-0.0466496936	-0.076256
C	 1.4672166387	-0.6492962819	-0.0978762362	-0.357558
C	 0.6650823149	-0.7248988973	 1.1660176221	 0.380172
O	 1.0121424728	 0.004258215	 2.3554553717	-0.323205
C	 0.56202835	-1.0861983511	 3.2044751868	-0.16111
C	 0.2055964034	-1.8808230783	 1.969772831	 0.27175
N	-0.2680460111	-3.0117614998	 1.6644829722	-0.249245
O	-0.5592359791	-3.7600713612	 2.8195848031	-0.3904
H	 0.6081937182	 1.9313388145	 0.5542282115	 0.134467
H	-0.090395285	 1.8253731836	-1.073053274	 0.119197
H	-1.1283560963	 1.6863066011	 0.355934016	 0.122337
H	-0.7054621898	-0.6577551755	-0.5395473858	 0.102959
H	 1.6446131957	-1.5700885439	-0.6432196574	 0.12802
H	 2.2957211285	 0.0523851601	-0.0896204547	 0.126988
H	 1.3700636539	-1.4987311946	 3.8189015861	 0.132553
H	-0.2800576173	-0.799555182	 3.8446380656	 0.131694
H	-0.9024381132	-4.5808745165	 2.4504160917	 0.310119
