14
gdb 42647	2.99726	1.47712	1.21822	3.8525	75.04	-0.2302	-0.0116	0.2186	1010.0334	0.100714	-399.45388	-399.446763	-399.445819	-399.485489	27.92	
O	 0.0019053438	 0.0790922692	-0.0455696942	-0.332924
C	 0.0059619005	 1.2703655302	 0.0557439816	 0.498529
C	-1.0462116831	 2.3349593534	-0.0052072068	-0.244909
C	-0.4058998461	 3.5597930624	 0.6209477946	-0.097169
N	 0.8517702136	 3.1131027723	 1.2615936695	-0.32095
C	 1.104605122	 2.3523804794	-0.0095004459	-0.247052
C	 0.0073227905	 3.2231605419	-0.7859925521	 0.291849
C	-0.092894567	 3.80858096	-2.0615505349	 0.025559
C	-0.1491806757	 4.3168811495	-3.1519138411	-0.360362
H	-2.1043611018	 2.2576020902	-0.210948097	 0.132045
H	-1.0056668462	 4.3842958629	 0.9849087106	 0.125035
H	 1.4814026105	 3.9151596515	 1.2674925309	 0.230432
H	 2.1264434999	 2.1395392194	-0.3081456793	 0.110329
H	-0.202710791	 4.7627975676	-4.114202246	 0.189586
