14
gdb 49872	2.30396	1.679	1.08514	2.4477	67.11	-0.2588	-0.0443	0.2145	1063.5298	0.101268	-470.039236	-470.031357	-470.030413	-470.072459	28.443	
N	-0.0629677561	 1.3073960558	 0.0174317973	-0.577648
C	-0.0069956801	 0.05118948	-0.0060369437	 0.480519
N	-1.1147527032	-0.7894620566	 0.0280202739	-0.376392
C	-0.7817489087	-2.124541776	-0.0155616279	 0.379864
N	-1.4680416291	-3.1900761188	-0.0165866698	-0.546548
C	 0.7438174935	-2.1079935051	-0.0272450477	-0.067539
O	 1.1078528238	-0.7348941582	-0.0825611684	-0.227966
C	 1.2829043374	-2.7918973473	 1.2334751956	 0.144437
O	 1.8969705301	-2.222082369	 2.0894980809	-0.219237
H	 0.8698108449	 1.7125998847	-0.0107637535	 0.240507
H	-2.047350446	-0.4150242759	 0.0849014821	 0.280795
H	-2.4716148569	-3.0103714844	 0.0184776439	 0.223667
H	 1.1293578314	-2.6345796961	-0.9082110187	 0.147711
H	 1.027702609	-3.870463063	 1.2767136559	 0.117832
