20
gdb 59826	4.4479	0.60658	0.55162	3.5474	88.43	-0.2244	-0.0463	0.1781	2036.7109	0.16708	-403.122501	-403.111485	-403.110541	-403.160439	37.65	
C	 0.1774716076	 1.4030499843	-0.0675977145	-0.325604
N	 0.0650365083	-0.0466864497	 0.0090133939	-0.046188
C	 0.6545575763	-0.5709013754	 1.2303791491	-0.312576
C	-1.3114175664	-0.50908788	-0.1413420749	-0.308056
C	-1.8922080666	-0.1874728431	-1.440617428	-0.009352
C	-2.3827914198	 0.0890586662	-2.5087607846	 0.135063
C	-2.9640541384	 0.4257883479	-3.7944796786	 0.243002
C	-4.2478005293	-0.302146561	-4.1394699676	-0.477871
O	-2.4466305407	 1.2368753199	-4.5330101558	-0.276232
H	 1.2329094253	 1.6867507003	-0.0247117747	 0.122518
H	-0.2348191352	 1.7579643614	-1.0150444738	 0.145389
H	-0.3503587736	 1.9202909976	 0.7571706477	 0.089913
H	 0.1474307944	-0.2167936929	 2.1492247713	 0.092526
H	 0.6188027929	-1.6652061362	 1.2240977507	 0.118966
H	 1.7033742175	-0.2660379641	 1.2878267826	 0.1245
H	-1.3216226741	-1.5988515207	-0.0114309104	 0.137245
H	-1.9827428979	-0.1026931365	 0.64534207	 0.112479
H	-5.008802665	-0.1069665714	-3.3762027517	 0.145045
H	-4.603504849	 0.0283573879	-5.1163884758	 0.14291
H	-4.0750222164	-1.3838111846	-4.1491280549	 0.146321
