22
gdb 103772	3.18805	1.07491	0.94759	2.1307	82.56	-0.2384	0.0595	0.2979	1348.6297	0.192783	-404.3077	-404.297904	-404.29696	-404.342464	36.266	
C	 0.2251932672	 1.4464755754	 0.2719167716	-0.384169
C	-0.2420559575	 0.0591839795	-0.1844178979	-0.22406
C	 0.5296880039	-0.4804011441	-1.3791796788	 0.256646
C	 0.3671284129	 0.2807426663	-2.6801904823	-0.472862
N	 1.8781601769	-0.9995473764	-1.0318045014	-0.411939
C	 0.8365665848	-1.9288531442	-1.4503864868	 0.235664
C	 0.3449592915	-3.1175117512	-0.63007171	-0.134394
O	 0.3017091263	-3.9382215764	-1.82131121	-0.277207
C	 0.829482016	-2.8798160877	-2.6463991138	-0.150175
H	 1.2967182953	 1.4317904907	 0.4935677611	 0.131815
H	 0.045528523	 2.2115136118	-0.4902030456	 0.113087
H	-0.3045367362	 1.7563127929	 1.1776762882	 0.113003
H	-0.1278610195	-0.6442652543	 0.6468297099	 0.105137
H	-1.3115145499	 0.0834488366	-0.4321590794	 0.093885
H	 0.7481927458	 1.3035238941	-2.5915428171	 0.128336
H	 0.9073075207	-0.205151499	-3.4987899179	 0.114171
H	-0.6881028898	 0.3455620993	-2.9688422304	 0.125114
H	 2.5344957422	-0.8379074257	-1.7939201973	 0.223096
H	 1.0649465291	-3.4920525002	 0.1080454997	 0.109198
H	-0.6430417424	-3.0215680002	-0.1628317207	 0.103004
H	 0.1563562034	-2.6266579518	-3.4760436292	 0.103368
H	 1.8203340865	-3.1285635654	-3.052954892	 0.099281
