16
gdb 127464	3.51984	1.12692	0.88275	3.7946	67.5	-0.2402	0.0211	0.2613	1272.9715	0.125002	-471.23095	-471.221989	-471.221045	-471.265509	31.375	
C	-0.2000726521	 1.432630396	 0.0201679459	-0.330311
N	-0.0409973212	-0.0032268942	-0.0258080449	-0.024659
N	-0.091318066	-0.6973772714	-1.2103179857	-0.318644
C	 0.1076443046	-1.9402956047	-0.8225902556	 0.334811
C	 0.1294460512	-3.1213574167	-1.7443839816	-0.150415
O	 1.1785236227	-4.0142336588	-1.4205388053	-0.418123
N	 0.2923094762	-2.1072783378	 0.526379891	-0.437989
C	 0.1948658646	-0.8729347808	 0.9706778858	 0.456485
O	 0.3036826357	-0.4581812413	 2.238030803	-0.424074
H	 0.583505112	 1.9183977602	-0.5672346263	 0.15387
H	-1.1752688871	 1.7156126228	-0.3841474349	 0.153284
H	-0.1290157281	 1.7544421101	 1.059618267	 0.159832
H	-0.8488867407	-3.629467309	-1.7033004255	 0.100921
H	 0.2798788944	-2.7794356025	-2.7716225504	 0.12887
H	 1.1955268323	-4.0728248361	-0.4576797443	 0.294188
H	 0.4684385014	-1.2423640158	 2.7763766619	 0.321954
