15
gdb 47210	2.71358	1.78419	1.1669	4.7421	69.07	-0.2617	-0.0185	0.2432	1006.6369	0.112689	-457.774638	-457.767174	-457.76623	-457.807207	27.773	
O	-0.0276309279	 0.1591641328	 0.6938939156	-0.32254
C	-0.035668505	 1.2357866012	 0.1665925715	 0.399288
O	-1.1872762003	 1.709752809	-0.3585808149	-0.246501
C	-1.3277035726	 2.9798050797	-1.0042355547	-0.114922
C	-0.0746378901	 3.7721744686	-1.1656237892	-0.121182
C	 1.0925533428	 3.3712585785	-0.6754804052	-0.103745
C	 1.2029859031	 2.1035412688	 0.0652313201	 0.201403
C	 2.2196805083	 1.9108928658	 1.1253968898	-0.208146
O	 2.4082670694	 1.3491175347	-0.1605568228	-0.255166
H	-1.779569197	 2.7778241289	-1.9842329501	 0.140142
H	-2.0717424474	 3.5478917506	-0.4288211517	 0.13685
H	-0.173194881	 4.7056773966	-1.7114730428	 0.1161
H	 2.0038417326	 3.9454961043	-0.8079776873	 0.114466
H	 2.8710247671	 2.7464766718	 1.3803167638	 0.11755
H	 2.0023975682	 1.1983950687	 1.917655868	 0.146405
