19
gdb 63423	3.07101	1.22984	1.12004	1.3971	82.46	-0.2536	0.0046	0.2582	1173.8615	0.157615	-385.869943	-385.860866	-385.859921	-385.903476	35.285	
C	-0.0496243008	 1.6087172901	-0.0305030945	-0.421474
C	 0.0247785181	 0.0872571261	 0.0225619927	 0.359227
O	-1.3349947555	-0.3569577503	 0.1164720691	-0.469347
C	 0.7565156106	-0.5390847495	-1.1943875702	-0.270536
C	 1.4539886128	-1.8215551157	-0.6488218282	-0.224608
C	 1.5810174916	-1.5030201964	 0.8382704127	-0.087234
C	 0.8267144566	-0.4652885998	 1.189252681	-0.108389
C	 0.6713477058	-3.0408244923	-0.8546881027	 0.333988
C	 0.0014689325	-4.0296473662	-1.0010850591	-0.487551
H	 0.9512164704	 2.0485183873	-0.0541335775	 0.113383
H	-0.5967865009	 1.9288959383	-0.9223006408	 0.123838
H	-0.5809343497	 1.9896718047	 0.8464257053	 0.123007
H	-1.3214343857	-1.3196077441	 0.1769719203	 0.279972
H	 0.0638134157	-0.7405359432	-2.0130204108	 0.116771
H	 1.5279595481	 0.1479019321	-1.5544838403	 0.102675
H	 2.4367666371	-1.9571036776	-1.1162852131	 0.107137
H	 2.1802500566	-2.1165804564	 1.5009072058	 0.108842
H	 0.7084091791	-0.0795294109	 2.195945906	 0.100443
H	-0.5777923222	-4.9087320759	-1.1406629558	 0.199857
