14
gdb 17871	3.35843	2.21968	2.09902	2.2576	61.88	-0.2396	-0.0231	0.2165	721.8847	0.10838	-382.533576	-382.527559	-382.526615	-382.563574	23.649	
O	 0.0503668343	-0.0042404099	-0.0002685244	-0.303923
C	 0.0137263958	 1.1846521967	 0.0407502364	 0.431965
C	-1.0691572609	 2.2869590245	 0.0267641996	-0.036149
C	-1.2897863669	 2.8574865082	 1.4381550154	-0.268741
C	 0.0647835288	 3.1298275379	 2.0608884594	-0.069026
C	 1.1792168482	 2.8760599591	 1.370718198	-0.053237
C	 0.998792669	 2.3702067883	-0.0473371174	-0.082758
O	-0.0913548888	 3.1111834118	-0.674232446	-0.291263
H	-1.9858009047	 2.1311624317	-0.5468077666	 0.104158
H	-1.8960956807	 3.7716815667	 1.3934120477	 0.124214
H	-1.8556905575	 2.1360467199	 2.0425029909	 0.127146
H	 0.0977101273	 3.5313976626	 3.0691728864	 0.106781
H	 2.1743286724	 3.008366784	 1.7800104537	 0.107512
H	 1.8992828038	 2.3259059885	-0.6601458831	 0.103321
