15
gdb 2833	5.14565	1.70105	1.43075	1.7065	63.68	-0.2597	0.021	0.2808	868.7993	0.122866	-308.465425	-308.457795	-308.456851	-308.497273	27.391	
C	-0.0497321391	 1.4908564565	-0.282820116	-0.37731
C	-0.0395683185	 0.117369575	 0.3990689931	-0.221333
C	-1.3838005862	-0.5600698164	 0.3179841716	 0.093274
O	-1.7716240078	-1.0925256229	-0.9485947453	-0.245905
C	-1.5554995283	-2.0190900416	 0.1301433762	-0.156216
C	-0.4422748175	-2.9238333697	 0.0214464397	 0.342283
C	 0.4655268668	-3.7091127799	-0.046570474	-0.436603
H	 0.9327128908	 1.9669839452	-0.2176363775	 0.116439
H	-0.3119940147	 1.3928084932	-1.3403753789	 0.135871
H	-0.7787423442	 2.1629322898	 0.1832029083	 0.11493
H	 0.7125413323	-0.5307917529	-0.0602276117	 0.120026
H	 0.2304056178	 0.22263469	 1.4577491585	 0.103477
H	-2.1961487083	-0.0482127052	 0.8405226042	 0.092321
H	-2.4716590893	-2.4716688072	 0.5096712559	 0.115216
H	 1.2705211863	-4.3987944338	-0.1145739239	 0.203529
