20
gdb 117799	2.46987	1.15708	0.98667	2.3832	75.98	-0.2641	0.0172	0.2813	1316.7797	0.167218	-440.27331	-440.262293	-440.261348	-440.309795	38.008	
C	 0.1450331728	 0.9710381666	-0.5354504999	-0.250724
O	-0.1899527384	 0.1396934179	 0.5644856798	-0.239173
C	-1.3696701483	-0.6088934898	 0.4116294262	-0.106691
C	-1.080340178	-2.114219402	 0.175801151	 0.196662
C	-0.2420748969	-2.6855762597	 1.3287769913	-0.429693
O	-2.3704436639	-2.6898742748	 0.0709900162	-0.265724
C	-2.4314270736	-4.0836209405	-0.1878132975	-0.257971
C	-0.3449694159	-2.2821601699	-1.1047620468	 0.281633
N	 0.2072531802	-2.4308460362	-2.1095035336	-0.357548
H	 1.0676115881	 1.4897456447	-0.2654023369	 0.132467
H	 0.3161430799	 0.3947205453	-1.4524689223	 0.139561
H	-0.6395394304	 1.7179888375	-0.722798179	 0.112052
H	-1.9507519364	-0.5464139285	 1.339223729	 0.118138
H	-1.9957752696	-0.2395034958	-0.4089096344	 0.115926
H	-0.8443104137	-2.6674684916	 2.2418381696	 0.130292
H	 0.0820787537	-3.7097476259	 1.1337949231	 0.132187
H	 0.6407760758	-2.0597838992	 1.4721949987	 0.156978
H	-2.0442002994	-4.6772917712	 0.6497464972	 0.117923
H	-3.4881919185	-4.3194666438	-0.3271607582	 0.138451
H	-1.8824308777	-4.3501088433	-1.1003127933	 0.135255
