21
gdb 107575	2.59563	1.50048	1.10444	2.912	82.36	-0.233	-0.0079	0.2251	1175.6664	0.183269	-387.125462	-387.116752	-387.115808	-387.158681	33.666	
C	 0.0149473009	 1.5176141056	 0.5042849978	-0.380281
C	 0.0225725345	 0.0897388203	-0.0566864035	-0.280932
C	-1.3604732369	-0.5131485872	-0.1776887025	 0.253415
C	-2.0891748276	-1.0197727588	 1.0673181277	-0.324286
C	-1.6927509593	-1.9921130879	 0.0057607013	-0.096839
C	-2.7728945706	-2.4003403363	-0.994942835	-0.228281
C	-3.3706395108	-1.0733912746	-1.5059082036	-0.338051
C	-2.2775076005	-0.0218171346	-1.2581339525	 0.364608
O	-2.1374136089	 0.9997815	-1.8883524642	-0.334899
H	 1.0329851192	 1.9128342335	 0.5759584832	 0.107059
H	-0.5663265669	 2.176641625	-0.1442005272	 0.147663
H	-0.4273388245	 1.5446512859	 1.5060611781	 0.108197
H	 0.4949343498	 0.0908397273	-1.0462633576	 0.107476
H	 0.6356441685	-0.5587773598	 0.5815823822	 0.0906
H	-1.5007146307	-1.0008670413	 1.9787186602	 0.121557
H	-3.1370115722	-0.7773794373	 1.2133108428	 0.116427
H	-0.8945607853	-2.6940439281	 0.22244238	 0.091965
H	-2.3122495225	-2.9465706688	-1.8248644755	 0.111148
H	-3.5221252313	-3.0616965337	-0.547763082	 0.105146
H	-3.6429406887	-1.0841653792	-2.5626448175	 0.129343
H	-4.2704101262	-0.78248235	-0.9507174623	 0.128963
