16
gdb 11299	4.92941	1.35902	1.21614	2.035	66.85	-0.2478	0.0379	0.2857	995.3212	0.129625	-383.700981	-383.69304	-383.692096	-383.733813	29.222	
O	-0.7316274451	 1.3871308518	 0.5519283185	-0.432858
C	-0.0102840461	 0.2807715287	 0.0265745362	 0.085054
C	 0.916527736	-0.3663422076	 1.0613148712	-0.084511
O	 0.1074487267	-1.2205939733	 1.8597204379	-0.267231
C	-1.1613582637	-1.4360072704	 1.216260188	-0.038954
C	-1.021256685	-0.8402191605	-0.2027559731	-0.242807
C	-1.5073974137	-2.8530313839	 1.2274439846	 0.326452
C	-1.8117638544	-4.0153740774	 1.2224177704	-0.451928
H	-0.0993072645	 2.0312297766	 0.885657318	 0.285183
H	 0.5294973099	 0.558501262	-0.8895032398	 0.073635
H	 1.7097490441	-0.9430363591	 0.5610594164	 0.096674
H	 1.3959095637	 0.3765000829	 1.711497461	 0.09566
H	-1.9237021669	-0.8745625511	 1.7731111031	 0.113803
H	-1.9674004358	-0.4670132533	-0.5964799618	 0.126985
H	-0.6160148735	-1.5879267442	-0.8889744951	 0.11759
H	-2.0775478218	-5.0434912613	 1.2282723843	 0.197254
