20
gdb 12371	2.7551	2.01954	1.34995	1.5294	77.02	-0.2377	0.0222	0.2599	981.4125	0.178275	-349.030348	-349.02219	-349.021246	-349.062432	31.607	
C	-0.03870354	 1.5444785155	 0.0815151851	-0.47782
C	-0.0245066879	 0.0421841358	-0.0096720913	 0.28407
C	-0.0175795563	-0.6160606409	-1.1734680317	-0.146252
C	 0.0186293718	-2.1157628972	-1.3141943245	-0.239936
C	 0.4374524239	-2.8088651727	-0.0122747865	-0.211274
C	-0.298518971	-2.1877274534	 1.1780683682	-0.215318
C	 0.0243749242	-0.6937843581	 1.3160379813	 0.059026
O	 1.2888959482	-0.47437184	 1.9606213742	-0.440296
H	 0.794656131	 1.8979157987	 0.6987537617	 0.13483
H	 0.0311877994	 2.0132877322	-0.9036934737	 0.113644
H	-0.9577840291	 1.9011211105	 0.5648645283	 0.120723
H	-0.0512433475	-0.0441251685	-2.0998190992	 0.077581
H	-0.9752975824	-2.4742646259	-1.6245759505	 0.10827
H	 0.6942962236	-2.3934681012	-2.1328978479	 0.100943
H	 0.2472112998	-3.8852304527	-0.0706780157	 0.094082
H	 1.5209106954	-2.6946519597	 0.1294549419	 0.087432
H	-1.3813541686	-2.3047603688	 1.0378239902	 0.09329
H	-0.0342943766	-2.6861510674	 2.1158163478	 0.100467
H	-0.6974688943	-0.2380702556	 2.0051136671	 0.080149
H	 1.9748346763	-0.6982937407	 1.3223434451	 0.276391
