18
gdb 11973	2.62234	2.23374	1.73544	3.0902	71.94	-0.233	-0.0078	0.2251	862.0264	0.15271	-347.803586	-347.795605	-347.794661	-347.835362	30.488	
C	-0.07239104	 1.5906713162	-0.0562459628	-0.447679
C	 0.020505955	 0.0666342633	-0.0558417903	 0.176694
C	-1.3390848207	-0.5668308748	 0.2701834482	-0.433465
C	 0.719441302	-0.6390047779	-1.2449095821	-0.071176
C	 2.1482883713	-0.2467322888	-1.3446811257	-0.303732
C	 1.7639080373	-1.2924299535	-0.3028003363	-0.17231
C	 1.0988711561	-0.6090154829	 0.8524178547	 0.392683
O	 1.2094221871	-0.6842304194	 2.044539996	-0.333038
H	 0.8711283146	 2.0683770354	-0.3335246467	 0.115804
H	-0.8415882933	 1.9343684202	-0.7571462587	 0.11587
H	-0.344171372	 1.9488312941	 0.9420187242	 0.133045
H	-2.0918876222	-0.2571230087	-0.4631640939	 0.114558
H	-1.2860615589	-1.6602882843	 0.2623924132	 0.119419
H	-1.6760735006	-0.2532969185	 1.2623075936	 0.134338
H	 0.1925986652	-1.1345832844	-2.0508817596	 0.099248
H	 2.7021572239	-0.654728407	-2.1842220224	 0.126312
H	 2.4877185159	 0.7361816888	-1.0335689153	 0.124523
H	 2.2051534293	-2.2813042079	-0.3101498963	 0.108905
