18
gdb 23404	2.812	1.41544	1.3681	1.2057	74.73	-0.2219	0.0091	0.231	1033.6775	0.151219	-435.200282	-435.192748	-435.191804	-435.232206	29.835	
O	-0.1347888379	 1.3108271522	 0.0229002091	-0.39785
N	-0.0046684392	-0.0959481597	 0.0300808592	-0.299444
C	-1.1332730495	-0.6617809407	-0.0157983044	 0.50318
C	-2.5867670369	-0.2257183613	-0.0016830244	-0.119006
C	-3.0994060562	-0.998878811	-1.2292595384	-0.149577
N	-2.2725789586	-2.2482262713	-1.2086282697	-0.311502
C	-1.4255021552	-2.1444660539	 0.0011021153	-0.094015
C	-2.3041373054	-2.2073726674	 1.2753370914	-0.180533
N	-3.1049555974	-0.9379838788	 1.1982552101	-0.304706
H	 0.7849576087	 1.5954595411	 0.0503587929	 0.305924
H	-2.8030900944	 0.8387661453	 0.018657607	 0.095676
H	-4.1700524662	-1.2011871302	-1.13023473	 0.106707
H	-2.9266144793	-0.4440200918	-2.1589089879	 0.108495
H	-2.8642863966	-3.0700494623	-1.1555912296	 0.218968
H	-0.5727262548	-2.8209583681	-0.0206704806	 0.089005
H	-2.9642578802	-3.0829483509	 1.2656715357	 0.097799
H	-1.6948067324	-2.2517199537	 2.1861009838	 0.103675
H	-2.9141098786	-0.3739285275	 2.0190489903	 0.227205
