20
gdb 58966	2.65191	1.43318	1.21173	2.3408	74.47	-0.2195	0.0681	0.2876	1118.7302	0.170309	-440.232523	-440.223515	-440.222571	-440.266178	34.041	
C	 0.0091026698	 1.5257647561	 0.0467772323	-0.422991
C	-0.0718345399	-0.000909634	 0.0109335827	 0.033141
O	-1.4112797444	-0.4717726576	-0.1149200896	-0.444045
C	 0.6898470037	-0.5656429858	-1.1682797921	 0.486317
C	 0.1390556466	-0.4071796794	-2.6065412664	-0.226273
N	 0.5353481732	-1.8180530385	-2.9198732311	-0.326172
C	 0.9345188945	-2.0557062893	-1.5095572843	-0.129279
C	 2.417564855	-1.727790944	-1.2708197584	-0.074808
O	 2.1091643683	-0.3208716876	-1.0630649303	-0.353077
H	 1.0535265866	 1.8463772111	 0.0888340409	 0.14581
H	-0.4576582034	 1.9577805552	-0.844191466	 0.125836
H	-0.5051824908	 1.9215786449	 0.9300755577	 0.103704
H	 0.3911265068	-0.4055673105	 0.9255701976	 0.069538
H	-1.9389737171	-0.0493922089	 0.5696713689	 0.285191
H	-0.941210351	-0.2320615734	-2.6196759173	 0.112785
H	 0.6478884843	 0.3400584871	-3.2229808554	 0.105451
H	-0.2597425213	-2.3842746125	-3.1911324292	 0.222345
H	 0.4856340679	-2.9074073685	-0.9979374997	 0.080695
H	 2.8596038538	-2.1686481147	-0.3681596505	 0.096118
H	 3.0738655477	-1.8879938696	-2.1319307699	 0.109714
