11
gdb 49953	2.40682	1.27626	0.98314	1.9732	62.77	-0.3031	-0.0962	0.2069	1140.5023	0.062899	-451.525145	-451.516862	-451.515918	-451.558787	28.058	
O	-0.2239042848	 0.4249825851	 0.8053082199	-0.212928
C	 0.2751199733	 0.8200140955	-0.2118419827	 0.14553
C	 1.4478158066	 1.7676481377	-0.1995179736	-0.086937
O	 2.3141507334	 1.7182662952	-1.3288485723	-0.227809
C	 1.5236944932	 2.8897096052	-1.1941597444	 0.139082
C	 0.4710827343	 3.0754527797	-2.1777897179	 0.274072
N	-0.3707367287	 3.2240347986	-2.9539039608	-0.301426
C	 2.2269581339	 4.1002433718	-0.8120553198	 0.270855
N	 2.7809601097	 5.0627316554	-0.4962108584	-0.294723
H	-0.0668089912	 0.5176107505	-1.221756821	 0.131751
H	 1.9232779604	 1.9263408052	 0.766564891	 0.162532
