21
gdb 83025	2.57147	1.40897	1.28123	1.8772	83.99	-0.2265	0.0226	0.2491	1129.8612	0.183645	-387.095316	-387.08672	-387.085776	-387.128169	33.83	
C	 0.6507849054	 1.210710615	 0.1709470395	-0.474029
C	 0.0334474526	-0.1576184534	 0.0550161403	 0.293273
C	 0.0981973077	-0.8727503386	-1.0741031488	-0.17449
C	-0.5288413074	-2.2247331728	-1.2902735564	-0.272784
C	-1.0103279093	-2.9097621122	-0.0237000807	-0.106309
C	-0.0367396743	-3.1754927665	 1.0987570574	 0.123707
O	 1.3256534729	-2.8772965269	 1.0039519567	-0.429966
C	-1.0938702503	-2.1122027537	 1.2738348927	-0.10316
C	-0.6972747946	-0.6470803146	 1.2847971514	-0.306079
H	 1.3947217914	 1.243676665	 0.9770119639	 0.126444
H	 1.1387635593	 1.5162180696	-0.7583266055	 0.120605
H	-0.108130426	 1.9636742094	 0.4202564961	 0.124373
H	 0.6156378035	-0.4485333002	-1.9327721145	 0.08058
H	-1.3771126819	-2.1084802667	-1.9801563246	 0.114609
H	 0.1834153271	-2.8753845785	-1.8177107335	 0.113927
H	-1.7748177402	-3.6638432526	-0.1874796169	 0.080778
H	-0.1593959256	-4.0973537601	 1.6583270077	 0.09858
H	 1.4262398537	-2.0857031641	 0.4607345782	 0.284632
H	-1.9118049146	-2.3538189283	 1.9468193768	 0.080286
H	-0.0829890249	-0.4355644647	 2.1724764883	 0.111717
H	-1.6001147545	-0.0314810348	 1.4084026218	 0.113307
