21
gdb 52602	2.03664	0.87501	0.71162	0.2717	97.08	-0.2367	0.0458	0.2825	1753.227	0.177805	-349.915986	-349.903901	-349.902957	-349.956113	40.97	
C	-0.1159501156	 1.4925579545	 0.0154630083	-0.497654
C	-0.0573444598	 0.0375104551	 0.0132152781	-0.000197
C	-0.0015444822	-1.1649473802	 0.0235115105	 0.145989
C	 0.0469317179	-2.636658405	 0.0036858654	-0.12682
C	-1.3993604982	-3.2002122044	 0.0307315661	-0.389983
C	 0.7629863766	-3.1112115591	-1.289430862	-0.389984
C	 0.7850026184	-3.1280382189	 1.179471478	 0.145986
C	 1.3836102364	-3.5588453296	 2.1308907876	-0.000193
C	 2.1104511696	-4.0639797526	 3.2872402123	-0.497654
H	 0.3959410125	 1.9085579257	 0.890372696	 0.148424
H	 0.3606259227	 1.9127334687	-0.877228545	 0.146003
H	-1.1513401488	 1.8504331111	 0.036999023	 0.145997
H	-1.9550088791	-2.8425809428	-0.8408217106	 0.117977
H	-1.3736719007	-4.29350782	 0.0135548111	 0.117978
H	-1.9203377372	-2.876889716	 0.9342914648	 0.128877
H	 1.7834655638	-2.7244437569	-1.3269660764	 0.128876
H	 0.8015166254	-4.2039785768	-1.314446298	 0.117978
H	 0.2201804327	-2.7530502843	-2.1688240144	 0.117978
H	 1.4787118118	-4.7133707737	 3.9034933147	 0.145997
H	 2.9874653673	-4.6467437321	 2.984250578	 0.146003
H	 2.4619553794	-3.2441938303	 3.923597857	 0.148423
