19
gdb 72170	2.42978	2.10525	1.68516	1.2124	72.99	-0.2414	0.0854	0.3267	905.4902	0.161451	-423.014503	-423.007543	-423.006599	-423.045433	28.834	
C	 0.0373449428	 1.4936737725	-0.0926110853	-0.512017
C	-0.0457212087	-0.0024823927	-0.0083365459	 0.417599
O	 0.3269043882	-0.7171910924	-1.2143362048	-0.33865
C	-0.3298687069	-1.861190846	-0.5962340258	 0.030887
C	 0.6489655305	-2.1867387416	 0.5464790264	-0.218922
C	 0.6207969849	-0.7729954007	 1.1982291377	-0.124065
C	-0.5187081744	-0.7667372779	 2.2188461331	-0.086683
O	-1.6871104319	-1.0821526674	 1.4297461616	-0.281088
C	-1.3245842239	-0.8601323357	 0.089813302	 0.066734
H	 1.0721324664	 1.8096990389	-0.2628703912	 0.131166
H	-0.5757674025	 1.8728464928	-0.9148462439	 0.130923
H	-0.3097519518	 1.953546779	 0.837786933	 0.127557
H	-0.6227769259	-2.6387537734	-1.3010370185	 0.076687
H	 0.3032315937	-2.9739040174	 1.2215057812	 0.103797
H	 1.6254251949	-2.4573362413	 0.1402846915	 0.108041
H	 1.5711657534	-0.3844116667	 1.5635400208	 0.072068
H	-0.405268506	-1.5261907297	 2.9988101656	 0.109877
H	-0.6523425778	 0.2108047102	 2.705624221	 0.094725
H	-2.1835662252	-0.5665864205	-0.5122846885	 0.091362
