19
gdb 38940	3.05441	1.87918	1.62222	1.6141	73.07	-0.2452	0.0896	0.3348	897.1587	0.164135	-423.012348	-423.006168	-423.005224	-423.042576	26.672	
C	-0.056144177	 1.5787040813	 0.0564871873	-0.244646
C	 1.4944613396	 1.4404638125	-0.0171015075	-0.080177
C	 1.7671759342	 0.8176377741	 1.3667900624	-0.263011
C	 0.7684494019	-0.3801907189	 1.2810435548	 0.120329
O	 1.394024706	-1.6465441997	 1.0415232268	-0.269472
C	 2.4103570374	-1.5930215181	 0.0802616555	 0.019188
O	 2.0594055982	-0.8956348797	-1.1003567794	-0.284651
C	 1.1917913646	 0.1948739156	-0.9312994746	 0.16074
C	-0.0208390284	 0.0296513388	 0.0205982134	-0.075402
H	-0.467359752	 2.0671873134	 0.9432042145	 0.096931
H	-0.5032627816	 2.0023317016	-0.8459353796	 0.102937
H	 2.1353357917	 2.2565660492	-0.3487689085	 0.06552
H	 2.7975149512	 0.5046176646	 1.5376798251	 0.109729
H	 1.4954729377	 1.5030248703	 2.174445208	 0.099605
H	 0.1650737594	-0.519476672	 2.1790518992	 0.081407
H	 3.3269866191	-1.1514171262	 0.5020526189	 0.087129
H	 2.6163753334	-2.6258617015	-0.2135961127	 0.116743
H	 0.9053937819	 0.5077967546	-1.936960907	 0.087959
H	-0.8809487474	-0.58595494	-0.2390170267	 0.069142
