12
gdb 3853	3.8287	3.46537	1.84166	3.9564	52.4	-0.2116	0.0146	0.2262	638.4912	0.092885	-352.864008	-352.85753	-352.856586	-352.894137	23.565	
N	 0.1141784735	 1.4362730248	 0.0788507985	-0.607314
C	 0.0142903022	 0.0534149706	 0.0112435339	 0.333011
C	-1.0950985447	-0.769672517	-0.0001292173	 0.201079
N	-2.4362377481	-0.3225588989	-0.0287684531	-0.609436
N	-0.6715818772	-2.0661355559	 0.0032388954	-0.232121
N	 0.6253556694	-2.1052798818	 0.0089345957	-0.1378
N	 1.0547531799	-0.8091731973	 0.0303144698	-0.232252
H	 0.769263635	 1.8369591946	-0.5821304655	 0.251693
H	-0.804760332	 1.84411144	-0.0572827926	 0.264786
H	-2.8937082674	-0.4715594294	 0.866575155	 0.246139
H	-2.9689784003	-0.8483084625	-0.7149813243	 0.248003
H	 2.0416602798	-0.6151339871	 0.0737789845	 0.274213
