19
gdb 5076	3.19524	1.89637	1.21697	1.6198	79.76	-0.1859	0.0551	0.241	1025.1236	0.16482	-327.983749	-327.974555	-327.973611	-328.017576	32.973	
C	 0.0129715839	 1.5197544158	 0.001493477	-0.502888
C	 0.0254504467	 0.0215278181	 0.0094730965	 0.215264
C	 0.043827437	-0.8051496602	-1.0871123292	-0.186276
N	 0.0500829528	-2.1044020006	-0.6407351395	-0.305413
C	 0.0358959896	-2.131855048	 0.7358412055	 0.229783
C	 0.0392025557	-3.4276911354	 1.4792883228	-0.505862
C	 0.0203671137	-0.8211079763	 1.171803433	 0.122586
C	 0.001498414	-0.3329472531	 2.5890915779	-0.510251
H	 0.8836633675	 1.9405892872	 0.5202686655	 0.118374
H	 0.0208770586	 1.9091785974	-1.020977816	 0.114474
H	-0.8757747902	 1.9258558569	 0.5010463534	 0.118376
H	 0.052848252	-0.5754574228	-2.1411967193	 0.107101
H	 0.0628292428	-2.9184058657	-1.2292960726	 0.250952
H	 0.9307417631	-4.0293755685	 1.2594756592	 0.122598
H	 0.0255276272	-3.2500302357	 2.5565692973	 0.135346
H	-0.8362721338	-4.0451920769	 1.2396735225	 0.122564
H	 0.8738399306	 0.2929300533	 2.8164677751	 0.119658
H	-0.8855802297	 0.2784818365	 2.7980030536	 0.119657
H	 0.0007709785	-1.1590845418	 3.3057923775	 0.113958
