17
gdb 14959	4.66058	1.56806	1.21919	2.9043	76.63	-0.2345	-0.0262	0.2084	997.5099	0.143328	-363.88333	-363.875706	-363.874761	-363.915617	27.938	
C	-0.0069929274	 1.4340012929	-0.1333333734	-0.323583
N	-0.0102122061	-0.0177093195	-0.1274742842	-0.308459
C	-1.098091154	-0.6347462929	 0.0946142576	 0.396431
O	-2.2847626811	 0.0239670327	 0.2836754117	-0.268656
C	-3.3271225372	-0.6968679839	 0.9516686755	-0.082503
C	-3.5891917181	-2.0569564774	 0.312937685	-0.270039
C	-2.2835300515	-2.7821537293	 0.1432126498	-0.083418
C	-1.136320637	-2.1009647596	 0.0784582314	-0.107922
H	 0.9803813584	 1.7863171424	 0.1799314786	 0.117754
H	-0.1726274363	 1.8055618466	-1.1536291481	 0.124893
H	-0.7738888206	 1.88157091	 0.5096467285	 0.117263
H	-3.0505140421	-0.8316501402	 2.0061567559	 0.111133
H	-4.2037943112	-0.0467259407	 0.9064217718	 0.116959
H	-4.2771799798	-2.6263840013	 0.9487857438	 0.114623
H	-4.0900699099	-1.9391281177	-0.6582793716	 0.126575
H	-2.2911144407	-3.8651238758	 0.0644347999	 0.103622
H	-0.1726279355	-2.5801565164	-0.0425972623	 0.115326
