19
gdb 65118	3.44288	1.13671	0.97037	1.3253	78.06	-0.2296	0.012	0.2416	1254.5832	0.15827	-423.008463	-422.999733	-422.998788	-423.042381	32.096	
C	 0.0230159205	 1.4722686367	-0.4513569808	-0.476895
C	-0.0166494046	 0.00519637	-0.0738598724	 0.306308
C	 1.1791331391	-0.8345034324	-0.3031940924	-0.214124
O	 0.850632845	-0.3676283127	 1.0049357495	-0.266908
C	-1.3534835923	-0.6425540405	-0.0467218907	 0.246835
C	-1.8358729017	-1.4602620659	 0.8850208028	-0.218841
C	-3.2218600056	-1.8988022415	 0.5166237687	-0.104567
O	-3.4972322181	-1.264619011	-0.7320122161	-0.267571
C	-2.3949396583	-0.4570413978	-1.1252656592	-0.16074
H	 1.0479277801	 1.8468019445	-0.4006518838	 0.130427
H	-0.3547189372	 1.6275970944	-1.4674073463	 0.127974
H	-0.5945183736	 2.0627816117	 0.2329946612	 0.134065
H	 1.0560959779	-1.9044679712	-0.4611441394	 0.116014
H	 2.0695497554	-0.3910260073	-0.7486878562	 0.112515
H	-1.319166238	-1.7671475695	 1.7842170384	 0.117231
H	-3.304745991	-2.991518873	 0.4033718907	 0.105833
H	-3.9721070814	-1.5958609773	 1.264762936	 0.105971
H	-2.7143537502	 0.5931668613	-1.2232754956	 0.10388
H	-2.0323632058	-0.7752819884	-2.1165212344	 0.102593
