17
gdb 39048	2.52335	2.27162	1.81075	0.3328	71.02	-0.2336	0.0012	0.2349	836.7413	0.138625	-421.786621	-421.78042	-421.779476	-421.816843	26.104	
C	-0.0104739075	 1.4830598539	-0.2023650051	-0.271276
C	 1.2936983892	 2.1501504497	 0.1736813598	-0.051718
C	 2.1336767299	 1.7298986843	 1.1208957384	-0.023754
C	 1.830324803	 0.5390233534	 1.9729979824	-0.011433
O	 0.4525737577	 0.5799494353	 2.4825219302	-0.295198
C	 0.0665074897	-0.4565559958	 1.5878126746	 0.0573
C	-0.0420406797	-0.0215977426	 0.0864692894	 0.054998
O	 1.251137851	-0.6422362503	-0.1995020193	-0.29149
C	 1.4968750144	-0.8032836293	 1.1922738888	 0.062551
H	-0.8560413634	 1.9643154572	 0.3089810873	 0.126568
H	-0.1786922162	 1.6335013917	-1.2752855168	 0.112323
H	 1.5495690983	 3.0375968483	-0.3998047599	 0.095494
H	 3.0646696101	 2.25904113	 1.2998903486	 0.090224
H	 2.5318004849	 0.4246021483	 2.8041647344	 0.082713
H	-0.7000160662	-1.1226535967	 1.9863675732	 0.087089
H	-0.8358385178	-0.5183060714	-0.4815648297	 0.084409
H	 2.0723221526	-1.6951892361	 1.4420766136	 0.091199
