20
gdb 113015	4.72618	0.84252	0.77664	3.9692	85.67	-0.2109	-0.0035	0.2074	1512.264	0.171638	-403.190494	-403.181401	-403.180457	-403.225279	33.117	
C	 0.0898868802	 1.5511730138	-0.0079075622	-0.388069
C	-0.0005424978	 0.0235787727	 0.0040726352	-0.173919
C	-1.4473974277	-0.5118780456	-0.0029449172	-0.041007
C	-1.5129502186	-2.0712239524	-0.0302317388	-0.207933
N	-2.1057131543	-2.4405148921	 1.2670462451	-0.055786
C	-2.2569904216	-3.7098953349	 1.7395096498	 0.141864
O	-2.7732106209	-4.0002262671	 2.7990708173	-0.331743
C	-2.5363321088	-1.2838500553	 1.9301129101	 0.009794
C	-2.2271670193	-0.1767487445	 1.255159161	-0.170705
H	 1.1321075879	 1.8819607912	-0.0429555132	 0.117809
H	-0.4217204735	 1.9716471171	-0.8811747321	 0.115602
H	-0.3645426733	 1.9879063237	 0.8867863984	 0.122029
H	 0.5216064632	-0.378579392	-0.8740819205	 0.095663
H	 0.5179317604	-0.3744216023	 0.8856148664	 0.103832
H	-1.9476635557	-0.1070275443	-0.8922403747	 0.085117
H	-2.1440394532	-2.4332715841	-0.8486332661	 0.121937
H	-0.521005351	-2.5199629602	-0.1423336655	 0.120954
H	-1.8469144893	-4.4609002501	 1.0362240595	 0.07128
H	-3.0494883214	-1.4113638668	 2.8714346325	 0.154282
H	-2.4652483151	 0.8282089333	 1.571030625	 0.108998
