19
gdb 75510	2.25846	1.92831	1.13944	1.7057	77.63	-0.2449	0.0108	0.2558	1089.5385	0.159978	-423.011942	-423.003896	-423.002952	-423.044671	30.582	
C	 0.1955720184	 1.4828797268	 0.0871174928	-0.485603
C	 0.0316934763	-0.004599439	-0.0286671428	 0.298184
C	-0.07679034	-0.6720603541	-1.1780372759	-0.169135
C	-0.1252783886	-2.1771638495	-1.2285725072	-0.132274
O	 0.5322326386	-2.7740444504	-0.1209430261	-0.259313
C	 0.0707854998	-2.314996721	 1.1263285226	 0.053202
C	 1.2220946315	-2.1620702112	 2.1328282256	-0.091576
O	 1.145762286	-0.7194655109	 2.0808963838	-0.299631
C	-0.0464565708	-0.7804050091	 1.2500230699	 0.028703
H	 1.112192549	 1.720552496	 0.6391788118	 0.147769
H	 0.2482150379	 1.9595307539	-0.8953102708	 0.119713
H	-0.6345598381	 1.932853663	 0.6466516019	 0.122545
H	-0.0982901167	-0.1438566903	-2.1285168575	 0.089288
H	-1.1658050804	-2.5410087986	-1.3060074372	 0.098281
H	 0.4032249642	-2.5424026187	-2.1151750269	 0.119468
H	-0.8063700867	-2.8880263528	 1.4559466575	 0.070789
H	 1.0165826437	-2.545572132	 3.1398612169	 0.098278
H	 2.182524377	-2.5449559335	 1.7736087251	 0.116639
H	-0.9229928813	-0.4592462487	 1.8339235064	 0.074673
