17
gdb 123825	3.57887	1.50685	1.10018	2.3009	73.77	-0.2292	0.0224	0.2516	1055.9054	0.140667	-418.032836	-418.025948	-418.025003	-418.064136	27.146	
C	-0.0066447927	 1.4140337672	 0.0201814088	-0.069231
C	 1.4393833623	 1.9530209676	 0.0006948483	-0.346531
C	 2.1580684048	 1.1988965632	-1.0678333649	 0.330803
C	 1.7042283706	 0.0283411067	-1.6370256085	 0.142517
C	 0.4064326187	-0.5828502797	-1.1990845321	-0.204065
O	-0.0399333641	-0.0011926446	 0.0226513984	-0.246447
C	 2.6880623618	-0.3107127915	-2.5919083627	-0.117549
N	 3.6809975043	 0.5752543521	-2.6125365256	-0.229649
N	 3.3354587643	 1.4857583597	-1.6759683791	-0.299951
H	-0.5261021123	 1.7329436504	 0.9275567972	 0.111398
H	-0.5565911926	 1.8118927632	-0.8481793987	 0.095063
H	 1.4315179201	 3.0337889779	-0.1866146898	 0.109524
H	 1.9076607349	 1.7959067262	 0.9807209399	 0.125328
H	-0.3699232198	-0.4638685061	-1.9749168564	 0.100289
H	 0.5033686085	-1.6547687327	-0.9985385827	 0.122228
H	 2.7194482783	-1.1585098927	-3.2612240925	 0.108361
H	 3.9493726931	 2.2646343031	-1.5070737396	 0.267911
