18
gdb 52195	3.48412	0.72148	0.63423	3.1556	80.43	-0.2459	-0.0192	0.2267	1705.7599	0.145121	-401.894299	-401.884685	-401.883741	-401.930212	34.053	
O	-0.3164211874	 0.4252141918	 0.7434517765	-0.23801
C	 0.1362448659	 0.9359239114	-0.2484190026	 0.155763
C	 1.4089624279	 1.7469886729	-0.305907906	-0.267415
C	 1.1704833614	 3.1465868698	-0.9027975414	-0.21917
C	 2.4666985517	 3.8993286312	-1.0890372656	-0.005611
N	 3.3037513334	 3.4790216892	-2.2149312143	-0.322689
C	 2.6995208601	 4.8351222012	-2.2370389318	-0.254363
C	 1.7014165383	 5.1071038865	-3.2345894751	 0.379037
C	 0.8633962944	 5.3701051867	-4.0556333945	-0.441507
H	-0.3849556328	 0.8393931231	-1.2305306427	 0.073296
H	 1.8380027092	 1.7970515974	 0.6994210949	 0.115224
H	 2.1151829386	 1.2169926562	-0.9607113466	 0.135431
H	 0.6718046881	 3.056220564	-1.8731858528	 0.125677
H	 0.5058073552	 3.7262148473	-0.2510298767	 0.114929
H	 2.9754974577	 4.1718714405	-0.1645349691	 0.094248
H	 4.2912013786	 3.5536351923	-1.9851701352	 0.239392
H	 3.3641059731	 5.6723327208	-2.0331233244	 0.113885
H	 0.1272767867	 5.5939378277	-4.7876480626	 0.201885
