15
gdb 24243	4.1228	1.62112	1.26976	1.8455	69.89	-0.1907	0.0299	0.2206	945.0297	0.115123	-420.618848	-420.612657	-420.611713	-420.649255	25.473	
C	 0.0078900462	 1.4878996233	 0.101231578	-0.318114
C	 1.3045230492	 0.7357774453	 0.0455953361	 0.082159
O	 1.9804300733	 0.4040491034	 1.2713570515	-0.26569
C	 1.1129413738	-0.4305526721	 1.8746405471	 0.419168
C	-0.021979901	-0.776798416	 1.2266235572	 0.167252
C	-0.6961120197	-1.6591779359	 2.1358091509	-0.354118
C	 0.1047554574	-1.7450476701	 3.236000867	-0.025495
O	 1.248546651	-0.9632359179	 3.0865097191	-0.201621
C	-0.0255773018	-0.0291746146	-0.0567608807	-0.222527
H	-0.3202350887	 1.9069709502	 1.0458291012	 0.129508
H	-0.21478982	 2.0912836968	-0.7728070617	 0.120132
H	 2.0074007338	 0.873535231	-0.7648448615	 0.115531
H	-1.6390239435	-2.1681151633	 2.0086532704	 0.115736
H	 0.0435266795	-2.2799434528	 4.1671854497	 0.136977
H	-0.3668060095	-0.4691147374	-0.9869202041	 0.101103
