19
gdb 97501	3.75818	0.66081	0.59485	2.7443	83.42	-0.2572	-0.0517	0.2055	1891.7638	0.15563	-423.012749	-423.001761	-423.000817	-423.050619	37.464	
C	 0.3055780108	 1.3994697417	 0.0425919817	-0.392696
C	-0.0466861939	-0.0998144543	-0.0422851956	-0.072182
C	-1.5569590948	-0.3378559316	-0.0777101892	-0.392262
C	 0.6371413306	-0.7243729434	-1.2570914146	 0.21083
O	 0.0301892309	-1.1569025301	-2.2145371471	-0.299474
C	 2.0887109321	-0.7741064211	-1.2076837392	-0.027123
C	 3.2952011253	-0.827033093	-1.1655394991	 0.150172
C	 4.75104815	-0.9542847576	-1.1672852433	-0.198792
O	 5.3010554476	-1.2127255363	-2.4463288719	-0.395199
H	 1.3869420428	 1.5580993198	 0.069292638	 0.128289
H	-0.0985539933	 1.9408525193	-0.8192163037	 0.129411
H	-0.1260915476	 1.8351407947	 0.9483165581	 0.122892
H	 0.3865584478	-0.5907135138	 0.840717368	 0.095914
H	-2.0020222877	 0.1287593632	-0.9605973709	 0.13243
H	-1.7910872722	-1.4046590014	-0.1186657379	 0.124896
H	-2.0274802508	 0.0873311877	 0.8138670261	 0.107427
H	 5.2070548552	-0.0185635605	-0.8247444509	 0.150605
H	 5.0337611884	-1.728025806	-0.4343573915	 0.12977
H	 4.8303541387	-1.9637001372	-2.823526287	 0.295092
