20
gdb 11624	5.13412	0.85203	0.81524	1.1848	71.94	-0.2623	0.0736	0.3359	1457.694	0.17505	-386.120834	-386.111458	-386.110513	-386.155681	33.607	
C	-0.0894080021	 1.5282601972	 0.3089219017	-0.402058
C	-0.0334945222	 0.027514586	 0.0223304929	 0.135197
O	 0.7695312429	-0.6517476671	 0.9872713837	-0.428407
C	-1.4305595251	-0.597133437	-0.0834520943	-0.187723
C	-1.4002566366	-2.0927115741	-0.4220506489	-0.220129
C	-2.7743949889	-2.7138900118	-0.4034038139	 0.096155
C	-3.0206613323	-4.0708860048	 0.0982638127	-0.180622
O	-3.3567236394	-2.9287956609	 0.888376895	-0.239483
H	 0.9212962796	 1.9343741215	 0.4028840669	 0.123618
H	-0.6089883418	 2.0667615082	-0.4903548801	 0.11491
H	-0.6264648054	 1.7247742963	 1.2454898258	 0.107701
H	 0.4979119197	-0.1336520428	-0.9248713595	 0.085585
H	 0.3618492342	-0.5159616305	 1.8504608757	 0.277329
H	-1.9558996055	-0.4578583964	 0.8720037431	 0.102921
H	-2.0112413294	-0.0502208613	-0.8379553685	 0.09236
H	-0.9550066011	-2.2409730383	-1.4154344383	 0.096464
H	-0.7565723084	-2.608529295	 0.2969092521	 0.115459
H	-3.4815612504	-2.3146857778	-1.1344712435	 0.086331
H	-3.8661215938	-4.6467417832	-0.2763914983	 0.111682
H	-2.1839653939	-4.6634738283	 0.4667000457	 0.112707
