23
gdb 92278	3.40572	1.212	1.03033	0.2548	90.14	-0.233	0.0328	0.2658	1264.2834	0.208764	-351.193458	-351.185259	-351.184315	-351.226331	32.952	
C	-0.7373123206	 1.3835980516	 0.1366166421	-0.406283
C	-0.0054557124	 0.0515637942	-0.0125493992	 0.053525
C	 1.1541517202	 0.0592684552	-1.0228045836	-0.217945
C	 1.9253369316	-1.2445919442	-0.7427929052	 0.001244
C	 3.4563174948	-1.1756467204	-0.9859827386	-0.284336
C	 4.0395533915	-1.1221933504	 0.4056363429	-0.062831
C	 3.1228628496	-1.3077976773	 1.353941126	-0.075208
C	 1.7325967028	-1.4890210923	 0.798112717	-0.042264
C	 0.6787896996	-0.4504569095	 1.2750750114	-0.228732
H	-0.0459289882	 2.175059608	 0.4496373929	 0.11126
H	-1.1966303083	 1.6962937776	-0.8074433399	 0.109272
H	-1.5325877245	 1.3211850925	 0.887329782	 0.109766
H	-0.7291600064	-0.7115294869	-0.3350149612	 0.067117
H	 0.81991003	 0.1438360333	-2.0620359099	 0.087912
H	 1.8013115663	 0.9242166474	-0.819472418	 0.092045
H	 1.4771695913	-2.0583778105	-1.3197928868	 0.064499
H	 3.8263050438	-2.0539619159	-1.531773899	 0.100784
H	 3.7396906974	-0.3042697034	-1.5913189971	 0.098212
H	 5.0982458009	-0.964509928	 0.5850321727	 0.085961
H	 3.324778174	-1.3236450614	 2.4204827058	 0.086481
H	 1.3665311658	-2.5034817987	 1.0005229074	 0.069066
H	 1.180214789	 0.3925851947	 1.767706524	 0.091759
H	-0.0319903984	-0.8656015656	 1.9961643141	 0.088694
