18
gdb 116096	2.68959	1.32611	0.9307	4.4462	69.58	-0.2533	0.0555	0.3087	1241.5971	0.148561	-476.268968	-476.260189	-476.259245	-476.303135	31.568	
C	-0.0394133626	 1.3689600258	 0.1910716097	-0.249236
O	-0.0277563237	-0.0527068539	 0.1664637579	-0.231473
C	-1.2751565985	-0.6319986512	 0.0732232252	 0.239354
C	-1.1213613178	-2.1314964834	-0.086689391	-0.250215
C	-2.5067409933	-2.7686807638	-0.1025383126	-0.167589
N	-3.2910741501	-2.232889436	 0.9958117334	-0.360823
C	-3.0710930062	-1.0667344079	 1.6785960778	 0.466381
O	-3.7558950003	-0.6959427468	 2.5986449303	-0.391464
O	-2.0014300773	-0.3241544391	 1.279444927	-0.264481
H	 1.0039148769	 1.6889356139	 0.1884899729	 0.132945
H	-0.5429004474	 1.7741765415	-0.6987704132	 0.109791
H	-0.5387137946	 1.7480538445	 1.0880136799	 0.146037
H	-1.8465656301	-0.1947058018	-0.7655853465	 0.072137
H	-0.5834754154	-2.3496789054	-1.0120571032	 0.122
H	-0.5282878929	-2.5021128179	 0.7547161089	 0.133458
H	-2.9984759729	-2.5770537426	-1.0680944725	 0.112208
H	-2.426819329	-3.8550788347	 0.0067998191	 0.121227
H	-4.1086587949	-2.728253001	 1.3109536068	 0.259741
