20
gdb 12924	3.34849	1.54342	1.27969	1.7518	75.3	-0.2279	0.0774	0.3053	1058.6504	0.176179	-348.968185	-348.959653	-348.958709	-349.001222	31.769	
C	 0.1950411751	 1.4909846055	 0.151531266	-0.372908
C	-0.1651179961	 0.0176175983	-0.0748245002	-0.211756
C	 0.5663040503	-0.5752680891	-1.2613684113	-0.067624
C	 1.9133579116	-1.2338777183	-1.1631535196	 0.044473
O	 2.0571127232	-1.9309966423	 0.0798239886	-0.286576
C	 0.9764168278	-2.8269471213	-0.2901003765	-0.132875
C	 0.7101035159	-2.0572242779	-1.5842941586	 0.233289
C	 0.3104200551	-2.6818927947	-2.8889772568	-0.498312
H	 1.2674136966	 1.6062024302	 0.3396689455	 0.122904
H	-0.0570310574	 2.1022049619	-0.7224827134	 0.109257
H	-0.3430369418	 1.9023305874	 1.0112100801	 0.110008
H	 0.0848153804	-0.5541724406	 0.823936595	 0.1153
H	-1.248194359	-0.0798500488	-0.2237787138	 0.091858
H	 0.469425866	 0.0045945429	-2.1800959594	 0.079457
H	 2.8203560166	-0.9292663006	-1.6747895534	 0.09648
H	 1.364975109	-3.8370057471	-0.4703356967	 0.103447
H	 0.1845303762	-2.8690696953	 0.4673014333	 0.101576
H	-0.7516053122	-2.956704531	-2.8930664613	 0.121759
H	 0.4704344478	-1.9903855772	-3.722437715	 0.121281
H	 0.8896025048	-3.5900742718	-3.0925011924	 0.118963
