13
gdb 28197	5.42532	1.33284	1.07096	5.4483	65.19	-0.1885	0.0318	0.2203	1013.8836	0.092816	-448.965694	-448.95881	-448.957866	-448.996869	26.337	
O	 0.1300474563	 1.2862340367	 0.1503765641	-0.422316
C	 0.1091191455	-0.049663253	 0.017572755	 0.420009
N	 0.0774920584	-0.7248583888	-1.0957809506	-0.434741
C	-0.0030403905	-2.0422512135	-0.6556933179	 0.29147
C	-0.0335854106	-2.1011712849	 0.7154380747	 0.349141
N	 0.0556200743	-3.422657269	 1.0614491423	-0.396683
C	 0.0612619571	-4.0967123048	-0.1576822247	-0.013133
N	 0.0482385117	-3.2989281768	-1.2028561668	-0.330022
N	 0.1021709693	-0.8058663394	 1.1823006768	-0.44969
H	 0.1085069665	 1.6445773297	-0.7462793571	 0.317776
H	-0.0350573292	-3.8473557351	 1.9680211916	 0.26731
H	 0.0497033111	-5.1755772567	-0.1868939709	 0.128188
H	-0.08326255	-0.4309731144	 2.0970095134	 0.272692
