13
gdb 132829	3.03369	1.49922	1.00337	1.8521	77.35	-0.2576	-0.0584	0.1992	1073.7779	0.089484	-423.597191	-423.590063	-423.589118	-423.62886	27.113	
F	-0.0042574127	 0.037106937	 0.0040156669	-0.053637
C	-0.0108599207	 1.3670856075	 0.0106330348	 0.163936
C	-1.2214105445	 2.0455045289	 0.0296361214	-0.084944
N	-1.3018187691	 3.3760828245	 0.0372062376	-0.264557
C	-0.1547004512	 4.0625307226	 0.0257166458	 0.007694
C	 1.0997486585	 3.4671425481	 0.0065536505	-0.19759
C	 1.1990893337	 2.0682272609	-0.0015939961	 0.021504
C	 2.4483699522	 1.391781258	-0.021093264	 0.225416
C	 3.5144642118	 0.8342072105	-0.0375652455	-0.387487
H	-2.1476055341	 1.4771109201	 0.0388418573	 0.128395
H	-0.2428255009	 5.1453837005	 0.0321689458	 0.117636
H	 2.0010935031	 4.068025017	-0.0021741477	 0.119151
H	 4.451724034	 0.3346365945	-0.0519157569	 0.204482
