15
gdb 31304	2.30579	1.55389	0.93383	5.554	78.07	-0.2134	-0.014	0.1994	1187.2725	0.114029	-416.848734	-416.840529	-416.839585	-416.8819	29.793	
C	 0.0243327117	 1.4059784783	 0.0085144808	-0.251517
O	 0.0039283974	-0.0119014393	 0.0050254944	-0.25666
C	-1.2098801724	-0.5921681114	 0.0127683734	 0.287002
C	-1.3749840146	-1.9766760834	 0.0102637456	 0.105587
N	-2.7425932646	-2.2131373745	 0.0201023579	-0.313223
C	-3.4137571158	-1.0362787347	 0.0285291099	-0.060664
C	-2.4974350914	-0.0000470988	 0.0242986932	-0.288733
C	-0.4260041245	-3.0119922573	 0.0001233909	 0.213916
N	 0.3408031674	-3.8833126392	-0.0081766529	-0.366736
H	 1.0754224124	 1.6965186718	 0.0011560387	 0.144054
H	-0.4725474182	 1.8137285961	-0.8808327342	 0.12698
H	-0.4587506559	 1.8091311319	 0.9075076084	 0.126979
H	-3.1544672845	-3.1299819027	 0.0207602987	 0.280309
H	-4.4914615746	-1.0098469712	 0.0368997132	 0.137958
H	-2.7342753621	 1.0505525944	 0.028995502	 0.114749
