18
gdb 11919	3.12178	1.83243	1.47665	0.9181	80.18	-0.2252	0.0404	0.2656	933.8833	0.152671	-310.618945	-310.610904	-310.60996	-310.650813	31.207	
C	 0.0064980519	 1.5418041548	 0.0613467939	-0.488613
C	 0.0475645942	 0.0436722006	 0.0014135317	 0.297843
C	-0.8360057998	-0.8347172009	 0.8327962227	-0.364406
C	 0.6648630231	-0.9627502718	 1.0165282051	 0.175823
C	 1.2387556946	-1.7920592994	-0.1465427881	-0.287086
C	 0.6233424378	-0.7776714644	-1.1615412477	-0.276846
C	 1.3116171831	-0.7135392474	 2.2574664743	 0.175466
C	 1.8810835845	-0.4983890961	 3.297171972	-0.423418
H	 0.9585473098	 1.9789305565	-0.2592454683	 0.119892
H	-0.7802918491	 1.9413928076	-0.5903323809	 0.121024
H	-0.1952921075	 1.8886918169	 1.0796802955	 0.127699
H	-1.3519505948	-0.3406478964	 1.6494031741	 0.121471
H	-1.3873410811	-1.6600718396	 0.3854357706	 0.105294
H	 2.3297229931	-1.790521505	-0.1634335359	 0.114841
H	 0.8859244035	-2.8267856103	-0.2014719061	 0.098303
H	-0.1092585582	-1.1714953676	-1.8739280842	 0.096621
H	 1.392249798	-0.2363448853	-1.7181127813	 0.104089
H	 2.3762997771	-0.3137429322	 4.2176551525	 0.182002
