16
gdb 49830	2.66724	1.37692	0.98546	2.8387	73.23	-0.2466	-0.0445	0.2021	1162.1656	0.122718	-437.891405	-437.882959	-437.882015	-437.925984	30.205	
O	-0.0034213528	-0.0112758716	 0.2885174995	-0.328883
C	 0.074291935	 1.1976996305	 0.3631342332	 0.129531
N	 1.1898815733	 1.9082251445	 0.0858571321	-0.12594
C	 2.4850771764	 1.4444588146	-0.4314190523	-0.288077
C	 2.8716180604	 2.9415439728	-0.5333706122	 0.319704
O	 3.8368869886	 3.5499971703	-0.8821918276	-0.291877
C	 1.5110120746	 3.3256822291	-0.0010696179	 0.256582
C	 0.6396389999	 4.4744481855	-0.4379746789	-0.313119
C	 1.1824488018	 4.4329280091	 0.9662987614	-0.310634
H	-0.7686696502	 1.8457579477	 0.6769692386	 0.070224
H	 3.0746565849	 0.8566208884	 0.279122333	 0.155444
H	 2.4248821256	 0.9111116789	-1.3855658865	 0.156865
H	 1.0729430941	 5.1735169319	-1.1455358798	 0.147007
H	-0.4143969495	 4.26448721	-0.5842866058	 0.138341
H	 0.4967583917	 4.1917322201	 1.7714099744	 0.138218
H	 1.9918305063	 5.104112928	 1.2336078588	 0.146612
