20
gdb 113046	5.66696	0.68231	0.64456	4.611	80.79	-0.2578	0.0328	0.2906	1728.0028	0.170238	-403.147117	-403.137592	-403.136648	-403.182448	34.148	
C	 0.194209312	 1.1950861746	-0.2010299136	-0.242512
O	-0.0264517748	-0.0647496442	 0.3943938053	-0.237743
C	-1.3184270366	-0.559577186	 0.1860754174	 0.166255
C	-1.6726585409	-1.1792527442	-1.2002608343	-0.29397
C	-2.3764132331	-2.3333276088	-0.4342968518	 0.032415
C	-2.2148853224	-3.7536180804	-0.987175804	-0.359688
C	-2.8116956885	-4.7650582325	-0.1153172789	 0.261382
N	-3.2914709596	-5.5463433003	 0.5882365032	-0.307805
C	-1.5803435277	-1.9308827182	 0.8377195596	-0.271908
H	 1.2154823851	 1.4958387478	 0.0435872771	 0.130407
H	 0.0892668573	 1.1579882169	-1.2957887206	 0.108171
H	-0.5032639061	 1.9542041595	 0.1863880126	 0.106872
H	-2.0709321044	 0.1871259711	 0.4850036792	 0.06802
H	-2.2671512451	-0.5955354393	-1.9063204639	 0.103402
H	-0.7588545528	-1.5269260657	-1.6937252666	 0.108324
H	-3.4411226397	-2.118619963	-0.3055316789	 0.095447
H	-2.678507904	-3.8319383185	-1.9780537566	 0.151138
H	-1.1514796999	-3.9881901645	-1.1157504883	 0.148545
H	-0.6390630306	-2.4842207501	 0.9119170689	 0.117223
H	-2.0905114882	-1.9596685241	 1.8015093942	 0.116025
