19
gdb 72424	2.82005	1.58299	1.32546	3.7282	74.55	-0.2274	-0.0183	0.2091	1026.2738	0.160302	-423.058928	-423.051273	-423.050329	-423.090691	30.718	
C	-0.0274811287	 1.4874827472	-0.0021818441	-0.48291
C	-0.0003501086	-0.0306634665	 0.0046238758	 0.264542
C	 0.7817062359	-0.674693216	-1.1550263504	-0.089335
O	 1.0039013336	-2.0327421413	-0.7316473934	-0.281373
C	 0.5066931358	-2.1346175666	 0.6196099817	-0.008428
C	 0.7195317421	-0.7331811024	 1.1907305452	-0.277532
C	-1.0229584008	-2.1728910626	 0.4513748233	 0.438714
O	-1.7672918575	-3.1047844141	 0.5884786667	-0.324278
C	-1.3821177995	-0.7317804969	 0.035873461	-0.370896
H	 0.9865586361	 1.9007699342	 0.02989388	 0.119422
H	-0.5172154485	 1.8728108906	-0.9033685737	 0.121967
H	-0.5757980388	 1.8757006185	 0.8624190415	 0.121135
H	 0.2211871524	-0.6737787065	-2.097416807	 0.104833
H	 1.7479537313	-0.1805754965	-1.3242011757	 0.098141
H	 0.9542006575	-2.9997727792	 1.1044714989	 0.092113
H	 1.7759909074	-0.4646327877	 1.2750257773	 0.11055
H	 0.2220460999	-0.5739989791	 2.1524345438	 0.109067
H	-2.0404995898	-0.2933592244	 0.7950507124	 0.126103
H	-1.9184180899	-0.7118691108	-0.9175935434	 0.128164
