10
gdb 130757	5.89604	1.08601	0.91709	1.8298	63.68	-0.3073	-0.1466	0.1607	1115.7273	0.053769	-467.594397	-467.587453	-467.586508	-467.626785	24.384	
O	 0.0252381367	-0.0471640715	 0.0025353528	-0.283112
C	 0.0541270786	 1.1386627713	 0.0083355234	 0.496835
O	-1.2109803766	 1.8044619043	 0.028721154	-0.226129
N	-1.3509971459	 3.1482267285	 0.0373238087	-0.072177
C	-0.2526295882	 3.8419089804	 0.0261431123	 0.205112
C	 1.0524868719	 3.2072006095	 0.0056549994	-0.003774
N	 1.1996401954	 1.9322250209	-0.0027167865	-0.279717
C	-0.3709634871	 5.2672427469	 0.0349340579	 0.277066
N	-0.3942010435	 6.4232617575	 0.0410716583	-0.289617
H	 1.9426581086	 3.8354178721	-0.0028344805	 0.175513
