15
gdb 372	6.42417	2.20162	1.75659	4.0632	57.23	-0.3144	0.0383	0.3527	712.3282	0.130797	-250.583259	-250.575974	-250.57503	-250.614218	25.346	
C	-0.0886948453	 1.5447900975	 0.0559013963	-0.397757
C	 0.0126584337	 0.0181953971	 0.0102679781	-0.16672
C	 0.7706086089	-0.515011115	-1.2306178746	-0.122436
C	 2.2557277605	-0.1040926667	-1.2723889395	-0.389647
C	 0.6519847789	-1.9762917207	-1.2936231804	 0.263466
N	 0.5612752548	-3.1281025185	-1.3304976292	-0.324222
H	 0.8912199521	 2.0213493423	 0.151577126	 0.125396
H	-0.5673045245	 1.9385940042	-0.8477268317	 0.120416
H	-0.6905493274	 1.85970634	 0.9131795118	 0.125512
H	 0.5104296082	-0.3559243231	 0.9125223337	 0.117029
H	-0.993162405	-0.4147071917	 0.0108157376	 0.12082
H	 0.2752363611	-0.1204848454	-2.1281597748	 0.124887
H	 2.7522332691	-0.5256545726	-2.149640865	 0.138648
H	 2.3472333024	 0.9833413907	-1.318355482	 0.128282
H	 2.7800848127	-0.4594882981	-0.3804217363	 0.136325
