17
gdb 55752	4.19629	1.12713	1.02889	3.4461	69.16	-0.2455	0.0491	0.2945	1172.6088	0.136835	-455.110185	-455.102147	-455.101203	-455.143405	30.4	
N	-0.172346115	 1.2913107076	-0.0926430114	-0.567877
C	 0.0752994671	-0.0488162167	-0.0577543167	 0.463258
O	 1.1682912909	-0.5618827005	-0.0967129381	-0.392503
O	-1.1048722293	-0.730712368	-0.0035006628	-0.313671
C	-1.0035324024	-2.1369078206	-0.0112481166	 0.410997
C	-0.3490303728	-3.0885308263	 1.0062556943	-0.219348
N	-0.9994419135	-4.0385646706	-0.0166659842	-0.144016
C	-2.2053120312	-3.078910965	 0.0378942093	-0.230507
C	-0.4388650106	-3.0823785726	-1.086398088	-0.219088
H	 0.6152499624	 1.8995607912	 0.048386053	 0.270895
H	-1.0901603366	 1.6304500015	 0.1379449793	 0.267463
H	 0.7390597961	-3.1403138537	 1.0275690933	 0.127384
H	-0.7909303247	-3.1594802167	 2.003174974	 0.102291
H	-2.7732598745	-3.1455445933	 0.9687767931	 0.106393
H	-2.8510610582	-3.1401592664	-0.8411150383	 0.107254
H	-0.9645398334	-3.1474779638	-2.0420918118	 0.103493
H	 0.6433764857	-3.1336226561	-1.2011766684	 0.127583
