19
gdb 79757	3.08894	1.89614	1.63113	0.2121	76.62	-0.2098	0.0873	0.2972	906.3081	0.162974	-382.044688	-382.03815	-382.037205	-382.075243	27.569	
C	 0.1794160685	 1.6008069081	 0.0466003291	-0.396378
C	-0.03809017	 0.0910051008	-0.033304647	 0.033175
C	 0.6495257391	-0.5258239135	-1.2433636033	-0.047508
C	 1.8725824776	-1.2379514873	-0.7683442813	-0.062893
C	 1.79891587	-1.2491791158	 0.7417371164	-0.067605
C	 0.5776008458	-2.0299711573	 1.0978435909	-0.050167
C	 0.0468041805	-2.664053694	-0.1737995991	-0.186151
N	 0.7164124315	-1.9934781216	-1.3027626426	-0.129337
N	 0.554687903	-0.5612060075	 1.1571727803	-0.124273
H	 1.2486888382	 1.8357056017	 0.0569032422	 0.120004
H	-0.2744015324	 2.1071895574	-0.8113594353	 0.112053
H	-0.2646828258	 1.9983751863	 0.9625813076	 0.12609
H	-1.1158164677	-0.1187327662	-0.0371744718	 0.085222
H	 0.5850890474	-0.027486044	-2.2080575385	 0.08923
H	 2.8149906581	-1.2905433886	-1.3001605194	 0.091792
H	 2.6807968073	-1.1484854317	 1.3629531232	 0.091312
H	 0.4472113797	-2.5355887668	 2.0518370499	 0.091036
H	 0.292421274	-3.7314794195	-0.2028227674	 0.111502
H	-1.0404855947	-2.5725099304	-0.279026124	 0.112894
