17
gdb 66325	2.47773	1.47858	1.33932	4.0614	73.03	-0.2709	-0.0026	0.2683	1042.7175	0.137095	-418.037716	-418.029533	-418.028589	-418.070388	30.733	
C	-0.0393878093	 1.5460858123	 0.0167048111	-0.411639
C	 0.0262092641	 0.0094890342	-0.0038039445	 0.098242
C	 0.7296651449	-0.5115292377	-1.2781231119	-0.255397
C	 1.0330807255	-1.9929015343	-1.1129991144	-0.092527
O	 1.7868288871	-2.2303688543	 0.0890634741	-0.217328
C	 1.5078527977	-1.4285181053	 1.1327454121	 0.13951
N	 0.7301691093	-0.4295638448	 1.2146392234	-0.281956
C	-1.3497313019	-0.5295685896	 0.0409326744	 0.302555
N	-2.4219971243	-0.9611761396	 0.0464492097	-0.34912
H	 0.9780392074	 1.9459179118	 0.0036574218	 0.127718
H	-0.5864433755	 1.9274436777	-0.8499485353	 0.127503
H	-0.5317732496	 1.8849510971	 0.9300495293	 0.148458
H	 0.1152987236	-0.3478832418	-2.1676657324	 0.128699
H	 1.6625216367	 0.0484828591	-1.4024953119	 0.122122
H	 0.1076782783	-2.5779177207	-1.0586750352	 0.144322
H	 1.6450778597	-2.3817165577	-1.9290042743	 0.129716
H	 2.0827090963	-1.7390285564	 2.0033379341	 0.139125
