13
gdb 21648	5.69866	1.60028	1.25138	4.4802	64.63	-0.2119	-0.056	0.1559	891.2398	0.098447	-394.822553	-394.81602	-394.815076	-394.85305	25.203	
N	-0.035349677	 1.3896432047	 0.1482185808	-0.566276
C	-0.006743867	 0.0013836677	 0.0363388509	 0.381213
N	-1.142288699	-0.6378407914	 0.0174726165	-0.275648
N	-1.0720293236	-1.9890284592	 0.0074384741	-0.272886
C	 0.0499397655	-2.8070876303	-0.0268071182	 0.418207
O	-0.0450992435	-4.0242042115	-0.0535392605	-0.400641
C	 1.2885107654	-2.0329582926	-0.0230885037	-0.186762
C	 1.2592117111	-0.6834162672	 0.0152675581	-0.125091
H	 0.6696238097	 1.8701322839	-0.3932962125	 0.252568
H	-0.9584033322	 1.7698668434	-0.0151441018	 0.257829
H	-1.9681789073	-2.4561364255	 0.0055098191	 0.271425
H	 2.2129595004	-2.597422309	-0.0431074478	 0.131932
H	 2.1742849574	-0.0988906032	 0.0384040749	 0.114129
