17
gdb 85375	1.992	1.78816	0.97496	2.2721	72.16	-0.2652	-0.0071	0.2581	1175.0422	0.137474	-455.217361	-455.20921	-455.208265	-455.250249	30.716	
C	-0.0016690779	 1.5040273733	 0.0712752059	-0.403325
C	 0.0275925553	-0.0106028404	-0.0229022568	 0.115485
C	 0.7321696405	-0.5407995404	-1.2660261001	-0.268104
C	 0.8235145571	-2.0434705858	-1.2139903633	 0.375968
N	 0.7818417426	-2.7502643387	-2.2694976758	-0.516139
N	 0.9657299073	-2.5262198309	 0.0876473484	-0.411043
C	 1.04185662	-1.7838633946	 1.2650590638	 0.470899
O	 1.3790709812	-2.2739499278	 2.3088081406	-0.372838
O	 0.715381687	-0.4814024774	 1.1623840982	-0.249218
H	 1.0136199517	 1.9103635526	 0.0429585674	 0.133757
H	-0.569557753	 1.9215840858	-0.7650810937	 0.127835
H	-0.4739205812	 1.8177949158	 1.0052124073	 0.140197
H	-0.9963454575	-0.4069279971	 0.0147592175	 0.102985
H	 0.2091529536	-0.2527601659	-2.1789609406	 0.143988
H	 1.7452534068	-0.1208526756	-1.3093875671	 0.136204
H	 0.8770064255	-3.7477227743	-2.0656403508	 0.210175
H	 1.165751971	-3.5069601487	 0.224676689	 0.263175
