19
gdb 90062	2.4858	1.82959	1.50889	2.6962	76.19	-0.2342	0.0627	0.2969	968.9651	0.158259	-422.899044	-422.89131	-422.890365	-422.930563	31.924	
C	-0.160180703	 1.5552590596	-0.1859981852	-0.491146
C	-0.0195219157	 0.0548257988	-0.0354616646	 0.28161
C	-1.2723220697	-0.6612511673	 0.6665745065	 0.08482
O	-1.828788649	-1.8080060853	 0.1109357002	-0.427052
C	-0.366422753	-0.8535324826	 1.981585806	-0.372386
C	 0.8185569858	-0.6600102773	 1.0430848164	 0.344693
C	 2.1527449361	-0.2102761279	 0.403668315	-0.326719
C	 1.1477429247	-0.7180809134	-0.7189676144	-0.028446
O	 0.8733222833	-1.875500067	 0.1335797461	-0.355981
H	 0.7862140661	 2.0524466271	-0.4181870056	 0.117496
H	-0.8555432522	 1.7818795415	-1.0030320922	 0.130772
H	-0.5678629966	 2.0189822409	 0.7197706294	 0.120315
H	-2.0913401034	 0.0466533802	 0.8197279485	 0.086098
H	-1.0687694576	-2.3735552583	-0.0878856912	 0.286348
H	-0.4991499726	-0.0282703184	 2.6856480343	 0.113951
H	-0.4399720958	-1.8110116758	 2.5021629073	 0.118877
H	 2.4005840736	 0.8511437897	 0.453303699	 0.108904
H	 3.0205336709	-0.8549406334	 0.5509232305	 0.116215
H	 1.378101338	-0.9119369711	-1.7715027259	 0.091631
