16
gdb 10092	2.58376	1.67633	1.02972	5.2761	66.73	-0.2541	-0.0327	0.2214	1092.8489	0.129025	-417.08022	-417.071293	-417.070349	-417.114164	30.824	
C	 0.0755687061	 1.3413111789	 0.0166112675	-0.352914
N	 0.0477497488	-0.1062509397	 0.0999095992	-0.292321
C	-1.0535357661	-0.7405634903	 0.1620594268	 0.377193
C	-0.986275043	-2.2563826193	 0.2469060554	-0.106102
O	 0.3415243294	-2.6923220658	 0.2404361502	-0.427084
N	-2.3064857323	-0.1132287865	 0.1556550707	-0.358432
C	-3.5613584346	-0.6854102486	 0.2187602315	 0.161504
O	-3.8041943431	-1.8635539468	 0.291756321	-0.280278
H	 1.1125132082	 1.6804283485	-0.027083284	 0.14172
H	-0.4311978865	 1.7183420452	-0.8850219718	 0.121836
H	-0.3893647431	 1.8199607654	 0.8922330636	 0.121807
H	-1.5121060449	-2.5836478145	 1.1550355977	 0.125344
H	-1.5533387645	-2.6831452287	-0.5925195806	 0.125314
H	 0.8727492452	-1.8798768054	 0.1813777314	 0.288941
H	-2.2938364919	 0.8948596538	 0.0984383814	 0.256832
H	-4.3464353578	 0.0950331739	 0.1931908898	 0.096641
