24
gdb 57187	2.16731	1.24368	1.13604	3.2536	85.15	-0.2399	0.0336	0.2735	1288.2506	0.214679	-405.600106	-405.588648	-405.587704	-405.636121	42.794	
C	 0.3466049357	 1.759180282	-0.0264246071	-0.41262
C	 0.1545102257	 0.2329065789	-0.0287559584	-0.083351
C	 0.7646948425	-0.3126225952	-1.325833491	 0.400201
N	-0.0956754186	-0.9994118782	-2.1349145101	-0.516495
O	 1.9267108544	-0.1260153176	-1.6420280665	-0.377718
C	 0.725582407	-0.5027549067	 1.2346396109	 0.280368
C	-0.1169210873	-0.1148141473	 2.4655025372	-0.418108
C	 0.6057448182	-2.0269800747	 1.0337154835	-0.416978
C	 2.2009455823	-0.144109228	 1.4939063695	-0.413681
H	 1.4010384542	 2.0113729247	-0.1538805798	 0.147303
H	-0.2042488246	 2.2122850288	-0.8569186836	 0.114868
H	-0.0182142825	 2.2117667938	 0.8986743937	 0.113027
H	-0.923864348	 0.0236764094	-0.0420231421	 0.056223
H	-1.0237504278	-1.2469290352	-1.8418948709	 0.256913
H	 0.2777269802	-1.4238606033	-2.9689294997	 0.257308
H	-1.1734061129	-0.3715851913	 2.3257970152	 0.102693
H	 0.2405937199	-0.6509010721	 3.35120179	 0.110869
H	-0.0559170675	 0.9544741793	 2.6870917371	 0.11423
H	 1.2357234341	-2.3784638582	 0.2113409351	 0.127233
H	 0.9192482049	-2.5560203329	 1.939709383	 0.109848
H	-0.4283751023	-2.3240724066	 0.8211526364	 0.093874
H	 2.3161439659	 0.9115970773	 1.7576914066	 0.106956
H	 2.5863683397	-0.7350038794	 2.3321257649	 0.099478
H	 2.8152893566	-0.3401258673	 0.6130808761	 0.14756
