18
gdb 91201	2.05139	1.6488	1.58291	4.6868	72.39	-0.2372	0.0313	0.2685	1007.7793	0.146924	-439.091139	-439.08242	-439.081476	-439.124279	32.839	
C	-0.0628328992	 1.5540594273	-0.052944544	-0.50199
C	 0.0051788318	 0.0489321872	 0.0483287601	 0.152194
C	-1.302989918	-0.7582136655	 0.3060949479	 0.074593
O	-1.7860661354	-1.4166273761	-0.8376507034	-0.416011
C	-0.5952385603	-1.6041263865	 1.4134535727	-0.277589
C	 0.7070196254	-0.7937106485	 1.1791737096	-0.029312
N	 1.5863847063	-1.3362587226	 0.1450717419	-0.331046
C	 0.9643559168	-0.6981865928	-0.9150076927	 0.406593
O	 1.1482440124	-0.7257745995	-2.0995875422	-0.359035
H	 0.9355984162	 2.0017321937	-0.0251785402	 0.128414
H	-0.5287600529	 1.8404291086	-1.0018565995	 0.146615
H	-0.6545882845	 1.9867388075	 0.7607497445	 0.113466
H	-2.0698458141	-0.1006635324	 0.7406454865	 0.071543
H	-2.5970915218	-1.8798692339	-0.6047524065	 0.28697
H	-1.0317245518	-1.4784987597	 2.4074711053	 0.102639
H	-0.5086248394	-2.6694801533	 1.187440276	 0.103101
H	 1.2163321541	-0.3476099413	 2.034227679	 0.085653
H	 2.1221070145	-2.1942645921	 0.138363275	 0.243203
