21
gdb 100707	2.63069	1.00586	0.84405	4.1218	75.54	-0.2348	-0.0037	0.2312	1439.1691	0.178952	-461.380056	-461.368986	-461.368042	-461.416497	39.415	
C	 0.1558883481	 1.7577771296	-0.0092234074	-0.408636
C	 0.0265776772	 0.2290926984	 0.0316914722	-0.097041
C	 0.6336669694	-0.4590566729	-1.2029759815	 0.159991
O	 0.4765600245	-1.860227091	-1.0270013571	-0.455368
C	-0.0156553449	-0.0497008009	-2.5241628289	-0.117763
O	 0.57039631	-0.8887204534	-3.5182349874	-0.432741
C	 0.7591992358	-0.3225065418	 1.270217384	 0.412912
C	 0.0456983873	-1.3896186923	 2.068421296	-0.486111
O	 1.8584216725	 0.0891996418	 1.5631251435	-0.326294
H	 1.2080944031	 2.0481820136	-0.0613366724	 0.143433
H	-0.3755872259	 2.1885434575	-0.861891356	 0.111585
H	-0.2628823653	 2.2013938109	 0.8989943838	 0.119801
H	-1.0291787401	-0.0632339505	 0.082791668	 0.075894
H	 1.7038774581	-0.1999759903	-1.2488240714	 0.092184
H	 0.6773100737	-2.253355152	-1.8859879428	 0.292095
H	-1.102231483	-0.2111008152	-2.4618745232	 0.094293
H	 0.1723370422	 1.009147968	-2.7445243181	 0.099483
H	 0.049921036	-0.8253300976	-4.3234785577	 0.295927
H	-0.9042410621	-1.000200236	 2.4540334707	 0.129395
H	-0.193153765	-2.2247290103	 1.4023944708	 0.163676
H	 0.6706095284	-1.7252842756	 2.897074125	 0.133285
