16
gdb 124127	6.98326	0.72525	0.66031	2.2326	88.27	-0.1998	-0.006	0.1938	1664.5856	0.125355	-396.934797	-396.925679	-396.924735	-396.970217	32.398	
C	-0.1328245801	 1.4665980799	 0.0216857813	-0.510224
C	-0.0181984336	 0.017496597	 0.0049228571	 0.211287
C	 0.0842682816	-1.1849264375	-0.0110880854	-0.063493
C	 0.193300163	-2.5909024084	-0.0277414205	 0.267395
C	 1.2971895999	-3.4329893862	-0.0694922555	-0.420532
C	 0.7559472545	-4.7381814662	-0.0704886255	 0.373645
N	 1.4487016519	-5.9444000066	-0.1734297645	-0.602429
N	-0.5764845498	-4.722101959	-0.0271472106	-0.287052
N	-0.8949332776	-3.4092132756	-0.0124162455	-0.298286
H	 0.8563550634	 1.9370089911	 0.0086582164	 0.155961
H	-0.6862683781	 1.8339610896	-0.8499191197	 0.153177
H	-0.6548067624	 1.8164141981	 0.9195271524	 0.152497
H	 2.3315354577	-3.1346683879	-0.1076322752	 0.102184
H	 2.3036376235	-5.9612374921	 0.3657654963	 0.245039
H	 0.860145135	-6.7305972772	 0.0712648735	 0.249023
H	-1.8601193089	-3.1311688891	 0.0204754454	 0.271807
