20
gdb 55177	3.06652	1.28535	1.08343	3.3739	78.13	-0.2365	0.0326	0.2691	1174.9576	0.171796	-403.156948	-403.14816	-403.147216	-403.191287	33.043	
N	-0.0001315657	 1.1950549338	-0.4908859921	-0.521138
C	 0.0864833791	-0.0489630838	 0.0715315295	 0.381017
O	 1.1300593716	-0.4897471233	 0.5155568704	-0.367118
C	-1.2169865151	-0.828712977	 0.1067563202	-0.094756
C	-2.1881182442	-0.8364922265	-1.1202996617	-0.275991
C	-2.293644155	-2.3866878787	-1.014218114	-0.010771
C	-1.3725498197	-3.1633753865	-1.9831949443	-0.224823
C	-0.1878405834	-2.9968185624	-0.9818172911	-0.224049
C	-1.1521167795	-2.3726971545	 0.0686655969	-0.017188
H	 0.8104689221	 1.7913344414	-0.4540944505	 0.258565
H	-0.8771575952	 1.5892431857	-0.7824077051	 0.258415
H	-1.7550778982	-0.5010315547	 1.0045714413	 0.10078
H	-3.1235004468	-0.2907237251	-0.9728807013	 0.098299
H	-1.7352944226	-0.4933285906	-2.0560300513	 0.101122
H	-3.2932957406	-2.7801665314	-0.8254206178	 0.061812
H	-1.6752988736	-4.2072263576	-2.1040057863	 0.098056
H	-1.2473928911	-2.7291763085	-2.9803213892	 0.091344
H	 0.2649800702	-3.9373507409	-0.6615126246	 0.102752
H	 0.6185786736	-2.3353007106	-1.3019726907	 0.117596
H	-1.2214633159	-2.8928547187	 1.0237628518	 0.066078
