23
gdb 61552	3.558	0.79476	0.73913	2.5891	86.31	-0.2371	-0.0075	0.2296	1653.1835	0.203315	-388.304984	-388.294303	-388.293359	-388.341814	38.48	
C	 0.0464191109	 1.5426062858	-0.0084624778	-0.392756
C	 0.0343529859	-0.0009558375	-0.0040401665	-0.081805
C	 0.6534515622	-0.6105291653	-1.2751211202	-0.199009
C	-0.079252472	-0.2650046213	-2.5549417385	 0.017436
C	 0.3333593756	 0.9140175057	-3.4046859591	-0.251645
C	 0.5885582102	-0.4914630825	-3.8878435384	-0.280492
C	 0.7849727136	-0.4769902968	 1.243484022	 0.385916
C	-0.0382115798	-0.6587309358	 2.5067571542	-0.481133
O	 1.9771965494	-0.6846954852	 1.2253894189	-0.311165
H	 1.0733734338	 1.9142981348	-0.0831284213	 0.130902
H	-0.5209998232	 1.9289918032	-0.8578732668	 0.132419
H	-0.3948613198	 1.9524778538	 0.9059151382	 0.112906
H	-1.0107402004	-0.3291935888	 0.0812970977	 0.071977
H	 1.7005688142	-0.2955765696	-1.3420122971	 0.113166
H	 0.6787413335	-1.7017951388	-1.1573461399	 0.097767
H	-1.1473446071	-0.4728043882	-2.529955604	 0.075981
H	-0.4379937851	 1.4968923729	-3.8965512224	 0.108118
H	 1.1880639828	 1.4975045499	-3.0784653596	 0.112512
H	 1.6130722007	-0.8495796054	-3.8824067036	 0.11323
H	-0.009185219	-0.8719081015	-4.7087530625	 0.108908
H	-0.69241458	 0.2015879244	 2.6824545903	 0.134837
H	-0.6912921547	-1.5322196165	 2.3885918649	 0.141666
H	 0.6173225782	-0.8149263973	 3.3643921415	 0.140264
