25
gdb 120888	5.20054	0.66442	0.64449	0.2141	94.69	-0.2591	0.0882	0.3473	1889.2018	0.228565	-352.341629	-352.331661	-352.330717	-352.377128	37.859	
C	 0.094891358	 1.5969706966	-0.0046885741	-0.379426
C	 0.1369384141	 0.0664230456	-0.0189150198	-0.16159
C	 0.6396427322	-0.5356541637	 1.2985562511	-0.189388
C	 0.7012942886	-2.0571676546	 1.2907731801	 0.056067
C	 1.7769657558	-2.7561408369	 0.3989348258	-0.3109
C	 2.0795097145	-3.6913836463	 1.5767101825	 0.3905
C	 1.9926457594	-5.1900584112	 1.5416627805	-0.315849
C	 3.3090842556	-4.5044395967	 1.839941895	-0.330748
C	 1.3047978642	-2.7780526491	 2.5353611553	-0.329602
H	 1.0904517556	 2.0183154458	 0.1745724258	 0.112629
H	-0.2692344539	 1.9974917386	-0.9560909722	 0.109477
H	-0.565844477	 1.9671479392	 0.7872988302	 0.112422
H	-0.8654728844	-0.3264475438	-0.2355851279	 0.09248
H	 0.779408261	-0.2746608736	-0.8411898172	 0.098784
H	 1.6398057307	-0.1370092227	 1.522678391	 0.086373
H	-0.0098396953	-0.2032727781	 2.1211385103	 0.089361
H	-0.2906670793	-2.4654579794	 1.0661096413	 0.066936
H	 1.4352820048	-3.2186486808	-0.5314150414	 0.094032
H	 2.6142086552	-2.086545906	 0.1675056379	 0.092426
H	 1.4839848957	-5.6947253364	 2.3575576556	 0.107535
H	 1.8774629334	-5.6758393871	 0.5773780168	 0.107449
H	 4.0816442108	-4.5282471849	 1.077333827	 0.107267
H	 3.6877552719	-4.5467402206	 2.8566902764	 0.107484
H	 1.9628892067	-2.1164850237	 3.1110032124	 0.092905
H	 0.6023869115	-3.2554802101	 3.2248428579	 0.093376
