15
gdb 71319	3.43572	1.49939	1.1974	3.9303	70.11	-0.2699	0.0214	0.2913	997.2844	0.112729	-416.717771	-416.710476	-416.709532	-416.749485	28.076	
O	-0.0007230632	 1.3813519081	 0.1727858156	-0.450305
C	 0.0891104689	 0.0124923861	 0.1072308612	 0.345638
C	 0.7724983688	-1.0034588019	 1.0232588517	-0.244873
N	 0.0624406398	-1.9163032959	 0.0265015652	-0.157135
C	-1.1320775003	-0.9317285098	-0.0276240674	-0.044178
C	-1.108941494	-0.9656453181	-1.5701060565	-0.17013
C	-1.6468780615	 0.1538000897	-2.3218821064	 0.268377
N	-2.0806256371	 1.0253379644	-2.945042406	-0.328327
C	 0.3657114402	-0.931261743	-1.1204575759	-0.082849
H	 0.867960461	 1.7694635104	 0.0184108816	 0.293068
H	 1.8628341886	-1.091235668	 0.9877786176	 0.10872
H	 0.4022882704	-1.1062689083	 2.0473779116	 0.117344
H	-1.9814221936	-1.0412207976	 0.6461535498	 0.107278
H	-1.4249318365	-1.9191048473	-2.0021334474	 0.136216
H	 1.2667623484	-1.0339601086	-1.7257390346	 0.101155
