12
gdb 132818	2.39241	1.83109	1.03722	2.5108	59.78	-0.259	-0.0213	0.2377	1005.7192	0.07751	-521.930235	-521.923387	-521.922443	-521.961578	26.058	
O	 0.0846022122	 1.3577177605	 0.0823782796	-0.424295
C	 0.057336893	 0.0105801224	 0.0492282314	 0.319573
C	 0.0510404402	-0.682598592	-1.1570897339	-0.0252
F	 0.0727535246	 0.015189036	-2.3030529356	-0.075229
C	 0.0225412115	-2.0716516176	-1.1349830144	 0.248646
F	 0.0169903216	-2.7144165233	-2.2958185408	-0.052436
N	 0.0008289116	-2.7853490228	-0.0373419991	-0.335471
C	 0.0068910021	-2.1172770406	 1.1260785499	 0.007013
C	 0.0344043771	-0.7362237596	 1.2298416256	-0.22347
H	 0.0972415733	 1.6843661756	-0.8266315064	 0.312697
H	-0.0114486439	-2.7295190403	 2.022465969	 0.125732
H	 0.0384613767	-0.2316159483	 2.1876690447	 0.12244
