19
gdb 95466	3.09594	1.10851	0.89656	2.5656	79.06	-0.2355	-0.0341	0.2014	1303.7711	0.157376	-423.043214	-423.033904	-423.03296	-423.078589	32.973	
C	 0.1056498071	 1.5386070236	-0.2242077092	-0.402165
C	-0.0340774329	 0.0373039226	 0.0302486071	 0.05915
O	 0.4604239831	-0.6895581394	-1.0986099261	-0.277512
C	 1.4229265425	-1.6558690945	-0.6921781264	-0.110905
C	 1.5787064486	-1.4544474635	 0.7863481289	-0.212229
C	 0.7520668945	-0.5013457303	 1.2097748552	 0.283778
C	 0.5656585818	 0.0141755453	 2.6079094469	-0.388578
C	 1.3625733992	 1.290062928	 2.8590685156	 0.166352
O	 0.8894785593	 2.332838586	 3.2246581634	-0.232521
H	 1.158994528	 1.8130100803	-0.33797767	 0.117098
H	-0.4198866343	 1.8040254976	-1.1454508333	 0.127612
H	-0.322314086	 2.1214011527	 0.5972004783	 0.131489
H	-1.1059888512	-0.1948015956	 0.1620723937	 0.080899
H	 1.0701036445	-2.6720369327	-0.9343383493	 0.105468
H	 2.3616613353	-1.502510234	-1.2468174909	 0.108252
H	 2.2565450004	-2.0392478049	 1.3968066653	 0.102734
H	-0.4854714156	 0.2228486501	 2.8301452095	 0.128401
H	 0.93095539	-0.7330861796	 3.3244402074	 0.129657
H	 2.4548694156	 1.1795486082	 2.6717147641	 0.08302
