21
gdb 92117	2.70505	1.56236	1.20685	1.636	82.18	-0.2213	0.0757	0.297	1113.9483	0.182261	-387.043627	-387.035317	-387.034373	-387.076537	32.975	
C	-0.6390291371	 1.3839348693	 0.0818675148	-0.411122
C	-0.0089998794	 0.0007383515	 0.0025016952	 0.032093
C	 1.3142220771	-0.1642040883	-0.8192796533	-0.259847
C	 1.9926880049	-0.7953375891	 0.4137247701	 0.119429
O	 2.695260162	 0.1805640559	 1.2196943246	-0.325231
C	 1.5706750692	 0.2962129845	 2.1016303897	 0.474103
C	 1.7705712834	 0.2760557858	 3.5845350525	-0.344652
C	 1.3047217598	 1.5425820359	 2.8787758031	-0.333834
C	 0.6962573383	-0.616450051	 1.2568726899	-0.20355
H	 0.0858847112	 2.1375728584	 0.4021333343	 0.130346
H	-1.0216539453	 1.6853668575	-0.8996878765	 0.113134
H	-1.4797421524	 1.4034754733	 0.7847269347	 0.109576
H	-0.7579964886	-0.7132193933	-0.3555840731	 0.07295
H	 1.2255249789	-0.827288837	-1.684061792	 0.097313
H	 1.7946454641	 0.7664402861	-1.1316224345	 0.10813
H	 2.5569449173	-1.7245704253	 0.3048703381	 0.07539
H	 1.0588311202	-0.2664495534	 4.1989188359	 0.111041
H	 2.7954850882	 0.2500619386	 3.9385957717	 0.122191
H	 2.0247536198	 2.347463745	 2.7738164194	 0.123471
H	 0.2795147316	 1.8678035667	 3.0178915998	 0.116316
H	 0.1763724969	-1.419911021	 1.7788547458	 0.072753
