15
gdb 97324	4.5987	0.77697	0.66741	3.8515	68.78	-0.2658	-0.0646	0.2012	1608.9286	0.109979	-491.133692	-491.124002	-491.123058	-491.169395	33.025	
C	 0.5547957442	 1.3561476089	 0.1457286556	-0.321388
N	 1.0742016671	 0.0196564959	-0.0746887717	-0.192758
C	 0.5844672655	-0.6406554947	-1.0182912251	 0.111766
O	 1.0718672083	-1.9138287325	-1.2373835534	-0.241203
C	 0.5425482682	-2.646841567	-2.2690811951	 0.398204
O	-0.318114699	-2.2716137292	-3.0052656002	-0.306058
C	 1.2101362119	-4.0398730132	-2.3596148228	 0.290608
N	 2.1664000992	-4.268205302	-1.4269949078	-0.519632
O	 0.8601279197	-4.815720714	-3.2173691928	-0.318794
H	 1.3773094963	 2.0752972341	 0.0723653971	 0.141049
H	-0.2371457084	 1.6518826285	-0.558128382	 0.112895
H	 0.1621026657	 1.4228016249	 1.1657037887	 0.141028
H	-0.1996087524	-0.3480638329	-1.7189536397	 0.143965
H	 2.4070902101	-3.5731191664	-0.7419326313	 0.286804
H	 2.6385743036	-5.1573819303	-1.4344892295	 0.273514
