21
gdb 69577	3.42112	1.29302	1.18072	0.2022	89.58	-0.2132	0.0227	0.2359	1161.5653	0.183153	-349.945848	-349.937703	-349.936759	-349.977954	33.32	
C	-0.0178463198	 1.5473773832	 0.0358398299	-0.482735
C	 0.0408558979	 0.0381933177	 0.0039531069	 0.314372
C	-0.830639229	-0.7901876734	 0.9326439874	-0.326226
C	 0.6718136918	-0.8175913039	 1.096637499	-0.179354
C	 1.4385619451	-1.9259788358	 0.4107576253	 0.3604
C	 2.8020692975	-2.3708884832	 0.9015197002	-0.321406
C	 1.6226817377	-3.2950930504	 1.03452464	-0.308495
C	 1.1527576739	-1.7519279884	-1.0415634844	-0.159189
C	 0.4066663061	-0.6661920976	-1.2672818849	-0.163229
H	 0.9268123281	 1.9912784164	-0.2979480034	 0.118081
H	-0.8127578881	 1.9267623185	-0.6175745833	 0.115587
H	-0.2220161906	 1.9133659151	 1.0470110706	 0.113341
H	-1.3917789181	-0.2549199472	 1.6930462498	 0.101974
H	-1.3300605241	-1.6659160266	 0.5311673694	 0.108387
H	 1.0974183372	-0.3590482195	 1.9831798572	 0.079218
H	 3.5604719693	-2.6021634662	 0.1608965636	 0.111174
H	 3.1853558038	-1.8973123443	 1.8000569655	 0.112078
H	 1.2013955189	-3.455304583	 2.0213105731	 0.114498
H	 1.5733304709	-4.1613301659	 0.3827766133	 0.110556
H	 1.4982258235	-2.4552253151	-1.7915962588	 0.09197
H	 0.0698600181	-0.3222581904	-2.2392567164	 0.088999
