7
gdb 485	0	1.34015	1.34015	4.5941	63.48	-0.284	-0.085	0.199	777.4112	0.036829	-245.711897	-245.706152	-245.705208	-245.733762	19.266	
C	 0.0535445759	-3.7570887492	-0.0177016325	-0.560994
C	 0.036918803	-2.5490683086	-0.0114142221	 0.286816
C	 0.0183070577	-1.1959868937	-0.0044995618	-0.313355
C	 0.0019101197	 0.0185006003	 0.0021111505	 0.582277
C	-0.0168370753	 1.3780303615	 0.0091608428	 0.109106
N	-0.0327310734	 2.541117714	 0.0157569983	-0.320231
H	 0.0689238124	-4.8196895142	-0.0223443053	 0.216381
