16
gdb 33685	3.91747	1.48988	1.39392	2.2283	79.35	-0.2248	0.0255	0.2503	955.7485	0.125292	-363.522117	-363.515477	-363.514532	-363.552896	27.548	
C	 0.0916185924	-1.1572143917	-0.0553341255	-0.33899
C	 0.0279222572	 0.0442889668	-0.0215749876	 0.060702
C	-0.0397541972	 1.4575210768	 0.0182830731	 0.294754
C	 0.0977979166	 2.3364385758	 1.2499358123	-0.130381
C	-1.0158424342	 3.3618160546	 1.2370270834	-0.24647
C	-1.1332742674	 3.5312819129	-0.2608744141	-0.050557
C	 0.1786077044	 3.3279741818	-0.9266761808	-0.05159
C	 1.0304826731	 2.5375275432	 0.0728171559	-0.171588
N	-0.8642494973	 2.2524298906	-0.9916930951	-0.199237
H	 0.1455548366	-2.216843874	-0.0887783178	 0.181103
H	 0.479390562	 1.8901285061	 2.1586412214	 0.108809
H	-1.9376230133	 2.9809338352	 1.6882029238	 0.117809
H	-0.7394754565	 4.2977436889	 1.7345195695	 0.112363
H	-1.9010789359	 4.1503487903	-0.7108282153	 0.10274
H	 0.5286508605	 3.8329878891	-1.818393941	 0.101473
H	 2.105231519	 2.4343673136	 0.0998851277	 0.109061
