16
gdb 28820	3.55665	1.26027	0.93592	3.4064	85.07	-0.2464	-0.0892	0.1572	1203.6796	0.125168	-400.790474	-400.78252	-400.781576	-400.823814	29.315	
C	-0.1864782308	 1.5001381293	 0.0385184612	-0.464652
C	-0.0441737799	-0.0023735727	-0.0302190426	 0.306937
N	-0.1072689282	-0.529033483	-1.2145204633	-0.321259
C	-0.0045801455	-1.8619852026	-1.5174888026	-0.000228
C	 0.1793424241	-2.9791929531	-0.7681297384	-0.147851
C	 0.3367552824	-3.1445529795	 0.6758146948	 0.328689
O	 0.4954565308	-4.2550824289	 1.169104924	-0.362603
C	 0.3048619866	-1.9620695887	 1.5555802991	-0.156451
C	 0.1457631646	-0.6564666149	 1.2533155597	-0.082065
H	 0.7019819969	 1.9529586783	 0.4949625454	 0.139729
H	-0.3252689127	 1.906274017	-0.9626116199	 0.147305
H	-1.0407692334	 1.780156122	 0.6666050082	 0.139681
H	-0.0925989487	-2.0297756611	-2.5903793238	 0.117514
H	 0.220892837	-3.9243342615	-1.3034945565	 0.118274
H	 0.4334164516	-2.2315885411	 2.6013484546	 0.127636
H	 0.1592759153	 0.0328496702	 2.0952590704	 0.109342
