12
gdb 130478	4.04764	1.77744	1.23508	3.0585	69.83	-0.2616	-0.1009	0.1607	891.6207	0.081274	-431.673737	-431.668191	-431.667246	-431.703658	21.927	
O	 0.003609034	 1.2622494724	 0.0088776849	-0.136946
C	 1.2459923217	 1.7432409635	-0.0002582305	-0.003565
C	 2.1257028872	 0.6893836481	-0.0145210232	 0.164671
N	 3.4844126608	 0.6035991432	-0.0279382782	-0.313092
C	 3.9206789654	-0.6279474324	-0.0389567277	-0.038133
C	 3.0551536001	-1.7865539616	-0.0371586247	-0.01457
N	 1.7503167276	-1.7369771889	-0.0244655852	-0.297735
C	 1.2661583543	-0.4605887643	-0.0127501018	 0.430215
N	-0.0155294593	-0.1290868043	 0.0012912625	-0.224178
H	 1.3501951635	 2.816492113	 0.0047378287	 0.174519
H	 4.9973068448	-0.7808056938	-0.050056666	 0.127619
H	 3.5143546698	-2.7733633547	-0.0470420743	 0.131195
