13
gdb 840	6.86805	2.13225	1.64364	1.8932	55.58	-0.198	0.0562	0.2542	722.6311	0.103147	-340.686134	-340.679625	-340.678681	-340.716208	24.147	
C	 0.0081798176	 1.4755767776	 0.0706639161	-0.484565
C	 0.0129968062	-0.0138395896	-0.0250516092	 0.287194
C	-0.1395479479	-0.7981642566	-1.1317835408	-0.193095
N	-0.055846273	-2.113379788	-0.6749065315	-0.297101
C	 0.1394186368	-2.0348822799	 0.6626016934	 0.440999
O	 0.2600301321	-3.1608039404	 1.3879512235	-0.425643
N	 0.1888342207	-0.8085850773	 1.1048865506	-0.407751
H	 0.9536992494	 1.8488437435	 0.4796472246	 0.129715
H	-0.1419879146	 1.9306459895	-0.9121807257	 0.115549
H	-0.7887401243	 1.8267183355	 0.7356543464	 0.129721
H	-0.2947577454	-0.5685961727	-2.1723079394	 0.121895
H	-0.1245914037	-2.9579753499	-1.2153094177	 0.269696
H	 0.3902149761	-2.8760947218	 2.3011829197	 0.313386
