20
gdb 58713	2.03305	1.50652	1.23047	2.0534	80.74	-0.2258	0.0366	0.2624	1154.1699	0.168512	-403.068853	-403.059098	-403.058154	-403.103194	36.089	
C	 0.0710102279	 1.3796719857	-0.1971875275	-0.334542
N	-0.0272439298	-0.0533843914	 0.0589380064	-0.095466
C	 0.6327211473	-0.4151098754	 1.3089371218	-0.33454
C	-1.3983397576	-0.5493923271	-0.0207661198	 0.068484
C	-1.9882159	-0.5561236036	-1.4631052943	-0.107937
O	-2.1677099183	-1.9812427511	-1.4398127305	-0.270614
C	-1.5060203277	-2.0968042719	-0.1699540844	-0.10794
C	-2.2970739498	 0.0169804844	 0.9891528139	 0.35756
C	-3.0019447382	 0.5050010517	 1.8334709656	-0.516311
H	 1.127187315	 1.6603644716	-0.2491964653	 0.121423
H	-0.3886607216	 1.622007413	-1.1599706624	 0.121438
H	-0.4135755372	 1.9946520914	 0.5800820841	 0.110769
H	 0.1878567201	 0.0729251633	 2.1927290811	 0.110767
H	 0.5878025563	-1.4980090273	 1.4582350509	 0.121438
H	 1.6867405522	-0.1275214331	 1.2511446268	 0.121424
H	-2.9324700311	-0.0203505979	-1.5998818835	 0.112459
H	-1.2591696317	-0.2447501928	-2.2206117759	 0.104737
H	-0.5272736248	-2.5832348787	-0.2578118533	 0.104738
H	-2.1217179747	-2.6108321245	 0.5744041386	 0.112462
H	-3.6362115763	 0.9275023337	 2.5734657677	 0.19965
