11
gdb 27619	3.77025	1.30812	0.97116	2.8155	64.96	-0.3041	-0.1002	0.2038	1075.6112	0.068617	-447.794328	-447.787673	-447.786729	-447.825786	24.085	
O	 0.1103818394	 1.28798782	 0.0926181504	-0.367884
C	 0.0705434793	-0.0358295996	 0.051124987	 0.47047
N	 0.0775314618	-0.6211476018	-1.1524839201	-0.362779
C	 0.0356410179	-1.9511071253	-1.1030346438	 0.254584
N	-0.0101870976	-2.7019186517	-0.0022018665	-0.280047
C	-0.0116581359	-1.9874004177	 1.1279086689	 0.079705
N	 0.0268896716	-0.663945594	 1.2272053059	-0.26492
C	 0.0406978904	-2.6461342825	-2.3723311822	 0.302177
N	 0.0448978388	-3.1968376254	-3.3876721247	-0.306479
H	 0.1390659901	 1.6045976104	-0.8222006122	 0.321693
H	-0.0481741958	-2.5474389923	 2.0588671571	 0.15348
