21
gdb 89845	2.78052	1.3467	1.16888	2.7899	77.92	-0.2549	0.0681	0.323	1159.4256	0.182535	-424.222906	-424.214094	-424.21315	-424.256202	34.483	
C	-0.5928108004	 1.4072377162	 0.1684050655	-0.400717
C	 0.0283513221	 0.0192139556	 0.0367216812	 0.017656
C	 0.9284027625	-0.1715069788	-1.2224768808	-0.308423
C	 2.1617498461	-0.9162901307	-0.7147262434	 0.41721
C	 3.294663018	-1.3372218544	-1.5365714303	-0.259763
O	 3.3972193179	-0.1592113299	-0.727231218	-0.286446
C	 1.7993292642	-1.5112506144	 0.6354445904	-0.31593
C	 0.9375402668	-0.3872002901	 1.2328983962	 0.125551
O	 1.741376268	 0.6818072788	 1.7128938778	-0.444774
H	 0.1854105276	 2.1669626747	 0.2789308464	 0.126619
H	-1.1973383163	 1.652741288	-0.7108701135	 0.106693
H	-1.2404806917	 1.4684036863	 1.0492918313	 0.113031
H	-0.7777369719	-0.7247949805	-0.0044146354	 0.069295
H	 0.410212124	-0.7382991653	-2.0021417046	 0.105774
H	 1.2383171474	 0.7811784357	-1.6617236152	 0.11716
H	 3.9131457983	-2.1769557266	-1.2203227126	 0.113865
H	 3.2792993573	-1.1578150452	-2.6111404309	 0.114545
H	 1.1984738137	-2.419201177	 0.5022757144	 0.10335
H	 2.6758523458	-1.7528035017	 1.2407588198	 0.112402
H	 0.3399119274	-0.7128252801	 2.0895329567	 0.072897
H	 2.4865246133	 0.7974507696	 1.1110265153	 0.300003
