22
gdb 22243	3.0709	0.71866	0.67935	1.6643	82.8	-0.2448	0.0099	0.2548	1785.9065	0.190383	-441.451698	-441.440203	-441.439259	-441.489146	40.601	
C	 0.16296888	 1.5686394511	 0.0987363955	-0.384435
C	 0.048165147	 0.0455373943	 0.0003104115	-0.160034
C	 0.7937510008	-0.5331689658	-1.2080120879	-0.205134
C	 0.645003488	-2.0569534468	-1.3366848978	 0.024325
O	-0.7217162393	-2.453105608	-1.4482439127	-0.429721
C	 1.4681833487	-2.6215578369	-2.4790590081	 0.371431
C	 1.0850629559	-2.3483606361	-3.9078073898	-0.475495
N	 2.4741403192	-3.3292038601	-2.1343173246	-0.174107
O	 3.1872470476	-3.7964759993	-3.2512835091	-0.400859
H	 1.2085065846	 1.8846535801	 0.1866071829	 0.114566
H	-0.2542721777	 2.057285537	-0.7891933349	 0.110946
H	-0.3747971356	 1.9519889809	 0.9714285164	 0.114153
H	 0.4432860712	-0.4146358543	 0.9151850478	 0.099903
H	-1.0049259108	-0.2504563687	-0.0549411414	 0.105658
H	 0.4318765996	-0.0526375336	-2.1299803295	 0.084417
H	 1.8626100601	-0.294725114	-1.1402017309	 0.109045
H	 1.007487529	-2.5300862687	-0.4192651219	 0.104906
H	-1.12970262	-1.9319023546	-2.1482648581	 0.280518
H	 0.1939899569	-1.7212934834	-3.9818598283	 0.100831
H	 1.9061304002	-1.8544601048	-4.4368780958	 0.149457
H	 0.8954250138	-3.2884717011	-4.434852474	 0.1534
H	 3.8873193908	-4.3149336872	-2.8409464194	 0.306229
