13
gdb 7021	9.1711	0.93191	0.85031	0.3969	63.28	-0.2766	-0.0289	0.2478	1255.9508	0.092575	-398.593011	-398.584585	-398.583641	-398.627	28.495	
N	-0.3182903517	 1.3507778852	 0.0144167692	-0.415629
C	-0.0597215453	 0.1212407016	 0.0039830028	 0.117525
O	-1.120001006	-0.7551722355	 0.0096660027	-0.207513
C	-0.8451921086	-2.1007461488	-0.0021385814	 0.481249
O	 0.2542932219	-2.5699981558	-0.016569312	-0.315024
C	-2.1684461113	-2.8527672409	 0.0057036704	-0.507729
C	-2.0271459868	-4.2981646794	 0.0002842353	 0.327218
C	-1.9344350018	-5.4943798243	-0.0042728587	-0.425881
H	 0.5487358025	 1.8862184588	 0.0085142827	 0.243005
H	 0.9064014471	-0.3832549238	-0.0095137827	 0.147539
H	-2.7335484125	-2.5104516254	 0.8818998585	 0.174801
H	-2.7459617653	-2.5054529301	-0.8604783131	 0.174874
H	-1.8415954422	-6.5522657716	-0.0091881736	 0.205565
