17
gdb 23510	3.93434	1.30603	1.17417	1.4751	75.41	-0.2283	0.0032	0.2314	1061.2452	0.137793	-417.935708	-417.928648	-417.927703	-417.967141	28.387	
O	-0.11422308	 1.3452638361	 0.1134655869	-0.39219
N	 0.0321601158	-0.0514691731	 0.0301864624	-0.256262
C	-1.1019484846	-0.6215530809	-0.0605523957	 0.440303
C	-2.4906200671	-0.0219615847	-0.0596338051	-0.311127
C	-3.3378478723	-1.2284700316	-0.4582135731	-0.006675
C	-2.9931777762	-1.7400599798	-1.8827195442	-0.258359
C	-2.0697616193	-2.7250016782	-1.186511062	-0.024108
C	-1.2521124511	-2.0962886978	-0.1026876562	-0.126765
N	-2.6684646558	-2.4657411757	 0.1698021892	-0.154912
H	 0.7995849428	 1.6411486873	 0.1836485252	 0.307473
H	-2.7389392818	 0.3314170589	 0.9487228096	 0.133586
H	-2.5825710583	 0.8285200372	-0.740432616	 0.132175
H	-4.3935241612	-1.1560414614	-0.2022435722	 0.087293
H	-3.8383634108	-2.2520980225	-2.3472500613	 0.116449
H	-2.563036729	-1.031365252	-2.5974665319	 0.10652
H	-1.8423427427	-3.7326389306	-1.5224639789	 0.097725
H	-0.5037167984	-2.7166004011	 0.3765802833	 0.108876
