21
gdb 114666	3.29717	1.17654	1.05815	1.6185	78.58	-0.2424	0.0895	0.3319	1247.7779	0.182696	-424.196616	-424.187988	-424.187044	-424.229784	33.11	
C	 0.0075644417	 1.3143599767	-0.1265398681	-0.235281
O	-0.039163312	-0.0425226687	 0.2510985366	-0.250677
C	-1.3139215187	-0.6268509045	 0.1125514894	 0.14178
C	-1.7071475737	-1.0410471524	-1.3496995047	-0.264126
C	-1.7915873588	-2.5564990637	-1.0931538348	 0.066977
O	-2.5466416739	-2.5934709066	 0.1654284335	-0.307665
C	-1.316666561	-2.0428812218	 0.7255849696	 0.026875
C	-0.5034167122	-2.8820369566	-0.2904633783	 0.034746
C	-0.3099574275	-4.3451298358	 0.0764258449	-0.428507
H	 1.0249010151	 1.668311734	 0.057329448	 0.12709
H	-0.2288202808	 1.4575580205	-1.1916866859	 0.107212
H	-0.6937217084	 1.9232954671	 0.465106779	 0.106599
H	-2.0781900813	 0.0086289258	 0.5802482128	 0.071029
H	-2.6676979092	-0.6324829845	-1.6697780314	 0.105758
H	-0.9358898389	-0.7627955584	-2.0733913831	 0.103805
H	-2.1898710528	-3.2091155851	-1.8711421201	 0.074987
H	-1.2241970251	-2.1402808979	 1.8073765123	 0.076606
H	 0.4212618744	-2.4240634106	-0.6512028082	 0.081895
H	-1.2435478242	-4.7787491926	 0.4440365772	 0.133704
H	 0.0207298923	-4.9254201763	-0.7918066302	 0.111873
H	 0.4518730151	-4.4547501187	 0.8555920816	 0.115323
