21
gdb 41097	2.85361	1.84916	1.73647	0.19	85.23	-0.2118	0.0848	0.2966	932.3723	0.185046	-349.875697	-349.868842	-349.867898	-349.906333	29.666	
C	-0.0172849004	 1.46992813	 0.0704237724	-0.210565
C	 1.5346963134	 1.5274083579	-0.0121743258	-0.101952
C	 2.0476506787	 1.3454327146	-1.4734626057	-0.303134
C	 1.6882788368	-0.1618727481	-1.372463199	 0.298715
C	 2.7864080313	-1.2432661826	-1.1746093191	-0.304629
C	 2.6045816126	-1.1076722674	 0.3851920781	-0.351028
C	 1.5159588722	-0.0348150665	 0.1583511383	 0.30609
C	-0.0403076952	-0.0799883982	-0.0560555638	-0.101954
C	 0.1920634448	-0.5483156275	-1.5251629576	-0.303134
H	-0.3480228964	 1.7667146838	 1.0698949422	 0.100087
H	-0.5824548176	 2.0439980917	-0.6728260519	 0.085849
H	 2.0314663677	 2.2521196891	 0.6367258648	 0.056019
H	 1.5637107606	 1.9425941345	-2.2544387099	 0.089214
H	 3.129939444	 1.4939202513	-1.5519552115	 0.093952
H	 2.538034389	-2.2288331786	-1.5797529605	 0.097899
H	 3.777296557	-0.9640823808	-1.5452427295	 0.097899
H	 2.2526273716	-2.0123304751	 0.889048115	 0.105742
H	 3.4876628779	-0.7518630204	 0.9234453514	 0.105743
H	-0.7720018033	-0.6090087548	 0.558614595	 0.056019
H	-0.3934695119	-0.0548364253	-2.3089696306	 0.089214
H	 0.068235387	-1.6307480175	-1.6372581024	 0.093952
