18
gdb 14505	3.27581	2.10136	1.57155	2.5407	72.36	-0.2437	-0.0216	0.2221	861.554	0.153447	-347.757642	-347.750164	-347.749219	-347.789329	28.629	
C	-0.0221674507	 1.6316039396	-0.2321709005	-0.494949
C	 0.0219108255	 0.1057710227	-0.0875404612	 0.284057
C	-1.3686258347	-0.3908658271	-0.4230536765	 0.087707
O	-2.108476646	-0.9800462939	 0.3242376228	-0.253922
C	 1.2277243368	-0.7069338218	-0.7131519975	-0.092332
C	 2.1120174041	-0.1690577044	 0.4505660738	-0.237276
C	 0.7611098695	-0.5794657657	 1.1101965273	-0.069811
C	 0.8501604156	-1.8752960802	 0.2439114762	-0.228723
H	 0.9599540659	 2.0986899227	-0.1545407051	 0.129883
H	-0.4397925806	 1.9117541027	-1.2063714083	 0.122848
H	-0.6663579332	 2.0717387252	 0.5369369894	 0.133333
H	-1.7019870945	-0.1221949393	-1.4553269154	 0.068147
H	 1.4897607945	-0.7695017352	-1.77098346	 0.073571
H	 2.9707094937	-0.7938852134	 0.7082778773	 0.095742
H	 2.3919085323	 0.8838369965	 0.4501468005	 0.094046
H	 0.4871157399	-0.5104565558	 2.1628781718	 0.080177
H	-0.0747924189	-2.4183599434	 0.056308209	 0.116968
H	 1.6659884409	-2.5563864792	 0.4965347964	 0.090532
