16
gdb 87899	2.70441	1.60225	1.17096	4.2122	73.12	-0.214	-0.028	0.1859	1037.479	0.124765	-437.8995	-437.891672	-437.890727	-437.931713	30.18	
O	-0.1702843309	 1.4049584967	-0.0393936801	-0.429921
C	-0.0307499321	 0.0138443733	-0.0092105802	 0.048015
C	-0.3978581571	-0.7347842716	 1.2373607613	-0.365242
C	-1.336808035	-0.7398554201	 0.0495974027	 0.230646
N	-2.5831330201	-0.0259970645	 0.0410982281	-0.354154
C	-3.4229710272	-0.7024414065	-0.8138130199	-0.009308
C	-2.9192861354	-1.8845981044	-1.256507173	-0.279018
C	-1.5544683138	-2.0047532602	-0.7567728135	 0.351619
O	-0.7215154894	-2.8826121605	-0.8962880063	-0.384629
H	 0.5129762447	 1.7896831042	 0.5194361554	 0.298229
H	 0.7370526949	-0.4043083569	-0.6586054923	 0.120308
H	 0.1055692355	-1.6757809274	 1.4343979759	 0.146018
H	-0.7049540901	-0.1516043816	 2.0986565275	 0.121633
H	-2.5397393093	 0.9834909234	 0.0118197257	 0.260532
H	-4.3906692566	-0.2701116172	-1.0376017112	 0.132354
H	-3.4268110881	-2.6137540369	-1.8679742202	 0.112917
