21
gdb 63174	2.27757	1.65378	1.30133	1.2943	78.42	-0.2418	0.0737	0.3155	1087.6207	0.181657	-424.220909	-424.211729	-424.210785	-424.253861	35.666	
C	-0.0387917101	 1.5822793362	 0.0630790821	-0.475536
C	 0.0538901084	 0.0719679446	 0.0581232171	 0.364441
O	-1.1574587258	-0.5467142194	-0.3172952389	-0.469982
C	 1.2991120545	-0.696172286	-0.3510536811	-0.189384
C	 2.6412457235	 0.0063947199	-0.3225602715	-0.104192
O	 2.7127364842	 0.681263264	 0.9331698925	-0.257523
C	 1.8843122128	 0.0031854814	 1.8737609044	-0.141525
C	 0.8063429621	-0.7374847422	 1.0910424238	 0.250838
C	 0.1878524932	-1.9506035308	 1.7445495931	-0.483324
H	 0.8929340982	 2.0480478794	 0.3854860011	 0.150007
H	-0.2701241151	 1.9506081055	-0.9449092041	 0.10156
H	-0.8489859	 1.903462707	 0.7256606968	 0.122728
H	-1.3368029261	-0.3003084008	-1.2313745576	 0.279039
H	 1.1649414636	-1.5520475557	-1.0036580764	 0.086861
H	 3.4526417238	-0.7326467295	-0.4221247328	 0.094583
H	 2.7774630551	 0.7650889341	-1.1017303453	 0.104435
H	 2.4675453185	-0.7285953038	 2.4563425683	 0.091571
H	 1.4976261966	 0.7572415219	 2.5689345032	 0.10608
H	-0.3136205423	-1.6795348876	 2.6812784926	 0.117238
H	-0.5566110955	-2.4071962437	 1.0919204029	 0.141212
H	 0.9538605008	-2.6972210844	 1.9835543297	 0.110873
