19
gdb 104301	2.91332	1.40456	1.23138	2.1965	70.23	-0.2552	0.073	0.3282	1077.5746	0.158547	-460.144597	-460.136092	-460.135148	-460.177482	32.643	
C	-0.4027199842	 1.7111740451	 0.3193998098	-0.424128
C	-0.0068903452	 0.2500939022	 0.1414893094	 0.313057
C	-1.2221424982	-0.6605285041	-0.1168679104	-0.078181
O	-1.8402509532	-0.3374425507	-1.3433812925	-0.4224
O	 0.8499628485	 0.1762857244	-1.0274095744	-0.31502
C	 1.9093128502	-0.7588819167	-0.8285123469	-0.120716
C	 2.0335669361	-0.9213351149	 0.6681887808	 0.028375
O	 2.1316665262	 0.3297939046	 1.3578905534	-0.254775
C	 0.8510272782	-0.3024058041	 1.2660107257	-0.018381
H	 0.4928290383	 2.3232344299	 0.4403802948	 0.136609
H	-0.9638963104	 2.0537197279	-0.5523687857	 0.134452
H	-1.0377171582	 1.8295595237	 1.2032558791	 0.112352
H	-0.8977687293	-1.7150502311	-0.096354662	 0.078172
H	-1.972756081	-0.5308327667	 0.6705186803	 0.106537
H	-1.1159489312	-0.2458170981	-1.9767323919	 0.288514
H	 1.6882460056	-1.7333058502	-1.2910863515	 0.100919
H	 2.8105737162	-0.3490030477	-1.2967422055	 0.123711
H	 2.5707071615	-1.7597652425	 1.1025754591	 0.106953
H	 0.40145124	-0.625264431	 2.2015270184	 0.10395
