19
gdb 107521	2.10382	1.61153	1.11789	0.488	81.64	-0.241	0.0459	0.2869	1155.9607	0.157331	-385.814253	-385.805181	-385.804236	-385.84812	34.135	
C	 0.0297705916	 1.3337836411	 0.2842963795	-0.260005
O	-0.0177046195	 0.016061444	-0.2472323549	-0.283482
C	-1.2491457489	-0.5798353032	-0.126013447	 0.451271
C	-1.7652067321	-1.137592045	 1.169317708	-0.345566
C	-1.5591545338	-2.0589152987	-0.0175632165	-0.142985
C	-2.7345594773	-1.9126968326	-0.9878920308	-0.242972
C	-2.3960908492	-0.3784269095	-1.1493457463	-0.247525
C	-3.4258313233	 0.6019011114	-0.8621339384	 0.322136
C	-4.2840025522	 1.4040421123	-0.6004340015	-0.473251
H	 1.0511125438	 1.6944529518	 0.1450382288	 0.126258
H	-0.664297363	 2.0048952587	-0.2381026094	 0.125045
H	-0.216628649	 1.339851795	 1.3545654562	 0.113949
H	-1.0050223379	-1.2232950326	 1.9390530017	 0.117078
H	-2.7649368563	-0.9112188554	 1.5320750952	 0.116119
H	-0.8735705435	-2.8954186785	 0.0249863401	 0.09846
H	-2.6106630302	-2.4560342665	-1.926205364	 0.11189
H	-3.7230731026	-2.1282261561	-0.574016479	 0.108685
H	-1.9647539302	-0.2003408663	-2.1389578818	 0.110611
H	-5.0397363562	 2.1159695301	-0.3783344799	 0.194283
