18
gdb 80696	2.11986	1.57229	1.34889	4.1143	72.05	-0.2366	-0.0229	0.2137	1059.973	0.145946	-439.038924	-439.030055	-439.029111	-439.072643	32.976	
C	 0.062121196	 1.448551984	-0.3832141605	-0.505962
C	 0.0533900196	-0.0067830708	-0.0244861263	 0.268032
C	-0.9241734778	-0.6641102743	 0.9311641994	 0.099325
O	-1.7121564059	-1.7622614065	 0.5929219905	-0.434506
C	 0.5383743525	-0.8183481001	 1.1905115543	-0.140601
N	 0.9778144519	-1.9467781205	 0.3315531126	-0.375935
C	 0.6919857836	-1.1196610579	-0.8848117485	-0.119501
C	-0.1850820002	-1.7594151431	-1.9442376871	 0.159788
O	-0.5563247929	-1.1643532215	-2.9233147365	-0.257365
H	 1.0761777803	 1.8112815539	-0.5876744314	 0.11704
H	-0.5428378796	 1.6223030228	-1.2800064672	 0.147999
H	-0.354777682	 2.0563080038	 0.4261730832	 0.1218
H	-1.4469030729	 0.0438571244	 1.5694093011	 0.105028
H	-1.1148777463	-2.525808358	 0.61452336	 0.293917
H	 1.0633416817	-0.5499053632	 2.1004305897	 0.098643
H	 1.9680940141	-2.1378885654	 0.4294765749	 0.233614
H	 1.6048715446	-0.7508346373	-1.3667127971	 0.107383
H	-0.4557995067	-2.8218136103	-1.7570527113	 0.0813
