16
gdb 19666	4.52021	2.11802	1.98279	2.001	62.9	-0.2409	0.0779	0.3188	727.133	0.133085	-383.694114	-383.688435	-383.68749	-383.723569	24.008	
O	 0.1813786557	 1.4269001257	-0.0725648008	-0.45018
C	 0.0267152648	 0.0417964902	-0.0360811464	 0.185324
C	 0.1277797097	-0.6761403786	 1.3316196513	 0.012556
O	-0.8356921846	 0.0772108951	 2.098956764	-0.289721
C	-2.0087686465	-0.3284432166	 1.3580975489	 0.070098
C	-2.0543547257	-1.8457592581	 1.6299366484	-0.237222
C	-0.7852225911	-1.8340168161	 0.7629105775	-0.069233
C	-1.3650936869	-0.6188717269	-0.0606923219	-0.130416
H	-0.2047985877	 1.7486994332	 0.7534217936	 0.286707
H	 0.6799115664	-0.4033399905	-0.791741837	 0.089795
H	 1.0500055532	-0.8172933939	 1.8920741192	 0.081855
H	-2.8366726906	 0.3547823915	 1.5367802625	 0.084074
H	-2.0023148489	-2.1653962116	 2.673656621	 0.104262
H	-2.8786387005	-2.3397319806	 1.1092079211	 0.105161
H	-0.3146170679	-2.7110345841	 0.3248944967	 0.079721
H	-2.0081372094	-0.7093339786	-0.9331646081	 0.077219
