18
gdb 98855	3.16554	1.13691	0.96289	2.5486	68.69	-0.2282	-0.0044	0.2238	1263.3489	0.147328	-476.219893	-476.210678	-476.209733	-476.255091	32.65	
C	-0.2504815475	 1.4516038432	-0.6267760937	-0.244995
O	-0.3062663036	 0.0232014871	-0.4844671696	-0.231536
C	 0.8479142816	-0.6245667058	-0.6773546188	 0.526239
O	 1.8958799369	-0.0651172477	-0.9252234754	-0.393064
C	 0.6756892603	-2.1284869961	-0.5909800021	-0.196307
N	 0.5801121063	-2.6797267419	-1.9809329033	-0.325193
C	 1.9551023057	-3.2594618142	-1.8781282344	-0.210341
C	 2.0098737115	-2.918958448	-0.3626729994	 0.144404
O	 3.1201285205	-2.2851117827	 0.183200126	-0.43269
H	 0.4597552611	 1.8792959982	 0.0846213011	 0.1456
H	 0.0562700066	 1.7219265505	-1.6398970448	 0.147615
H	-1.2600687885	 1.8075855607	-0.423842073	 0.137827
H	-0.1659653837	-2.3640508396	 0.0648654889	 0.091644
H	-0.1311287182	-3.4001368293	-2.027741254	 0.227834
H	 2.0421724278	-4.3152077973	-2.1523583998	 0.103148
H	 2.6718144308	-2.6809762066	-2.4707960451	 0.117557
H	 1.8161245651	-3.8051390639	 0.2490178614	 0.09373
H	 3.1709340974	-1.4128712467	-0.2377814641	 0.298526
