20
gdb 5980	3.72119	1.1472	1.09814	2.7456	72.	-0.2508	-0.0248	0.226	1200.8006	0.172311	-386.151416	-386.141053	-386.140109	-386.189349	35.838	
C	-0.1309373487	 1.5788226054	 0.0981117348	-0.379572
C	 0.0416477787	 0.0690350664	 0.0443456231	-0.050304
O	-1.2503484864	-0.5074549813	-0.0374084101	-0.295386
C	-1.3482549115	-1.9269084325	-0.099895149	 0.281978
C	-0.703008576	-2.5137994212	-1.3671459026	-0.426367
C	-0.8174649919	-2.6174675685	 1.1682391745	-0.426361
C	-2.8625477534	-2.1645152989	-0.1778743787	 0.143354
O	-3.3677681315	-3.2537643472	-0.2458179932	-0.263592
H	 0.8439641709	 2.0712564302	 0.1621382186	 0.115276
H	-0.6446239795	 1.9381452701	-0.798017763	 0.126617
H	-0.7243666896	 1.8660479763	 0.9706815749	 0.126616
H	 0.6513278625	-0.2110502114	-0.8272185588	 0.092277
H	 0.5715922581	-0.2831608694	 0.9415083544	 0.092272
H	 0.3885584411	-2.4810461262	-1.3112771972	 0.118221
H	-1.0113933643	-3.5562974977	-1.4775479273	 0.141878
H	-1.0244144743	-1.9590137806	-2.2536454857	 0.124659
H	-1.2195552736	-2.1357472928	 2.0644763751	 0.124659
H	-1.1304209628	-3.664435866	 1.1650255956	 0.141868
H	 0.2745625926	-2.5840235715	 1.2137661211	 0.118235
H	-3.4582443806	-1.2263734534	-0.1656658867	 0.093671
