17
gdb 45474	3.43943	1.462	1.18001	4.9312	74.49	-0.262	-0.0458	0.2162	1043.7567	0.138288	-421.862476	-421.855391	-421.854446	-421.894175	27.801	
O	-0.1379257999	-0.0687519352	-0.0168759527	-0.337285
C	-0.1093629025	 1.1122238195	-0.250060184	 0.410778
O	-1.1185733991	 1.6724977846	-0.9699056736	-0.249128
C	-1.2180103205	 3.0872502784	-1.0811926955	 0.137705
C	-1.8256128545	 3.8801115512	 0.1011084593	-0.249115
C	-0.7664762281	 4.9866876338	-0.1622457577	-0.233216
C	 0.0661930664	 3.9524468005	-0.9930159589	-0.117902
C	 1.1239536098	 3.2647032378	-0.1988349655	-0.060881
C	 1.0129344076	 1.98520572	 0.1651114466	-0.192974
H	-1.7671099453	 3.2621420581	-2.0084074825	 0.101511
H	-2.8801295002	 4.1514856217	 0.0311236902	 0.112286
H	-1.6530812118	 3.3675286812	 1.0499786156	 0.123603
H	-1.1459221835	 5.7936995033	-0.7930112231	 0.114249
H	-0.2757102533	 5.4224790313	 0.7102419251	 0.111591
H	 0.4779065185	 4.3275740477	-1.9358981296	 0.092697
H	 1.999060563	 3.8451591733	 0.0873280585	 0.113545
H	 1.7721802234	 1.4757672627	 0.7466859579	 0.122535
