18
gdb 35041	2.66005	1.42845	1.41936	1.2102	83.36	-0.2171	0.0083	0.2254	1040.0371	0.14846	-364.756528	-364.748679	-364.747735	-364.78877	30.981	
C	-0.310819081	-1.2163355096	-0.1666280772	-0.472745
C	-0.1739869512	-0.0254267395	-0.0598744682	 0.371047
C	-0.0379252233	 1.3997382501	 0.0188985294	-0.216114
C	 0.5260385057	 2.0642514439	 1.2497205704	-0.066009
C	 1.0457087879	 1.3028408287	 2.4111294268	-0.061093
C	 2.3267080439	 0.9400336764	 2.4555944348	-0.064218
C	 3.2556250214	 1.2253418088	 1.3022111242	-0.253457
C	 2.4972587296	 1.2264393333	-0.0329107141	-0.161617
N	 1.2872015963	 2.0723618838	 0.0060610112	-0.123626
H	-0.4368748246	-2.2675841386	-0.247863183	 0.199331
H	-0.7902708758	 1.9490152685	-0.5437569499	 0.112317
H	 0.0863549262	 3.0316128175	 1.4989901872	 0.100523
H	 0.3658606713	 1.1102284561	 3.2360109349	 0.094451
H	 2.7271478635	 0.4330888164	 3.328890664	 0.093315
H	 3.7567710108	 2.1911892886	 1.458508657	 0.119017
H	 4.0532204001	 0.4760210843	 1.255606583	 0.107882
H	 3.136303987	 1.6135796124	-0.8336483393	 0.10334
H	 2.2397868723	 0.1923063688	-0.2890328211	 0.117656
