21
gdb 90783	3.8472	1.32888	1.23264	1.512	81.41	-0.2188	0.0874	0.3063	1120.4317	0.183167	-387.073995	-387.065863	-387.064919	-387.106169	32.596	
C	-0.1057581191	 1.5235390342	 0.048057454	-0.408405
C	 0.0060589212	-0.0031761678	 0.0183185298	 0.026953
C	 0.8056778082	-0.5302201966	-1.2153417627	-0.246511
C	 2.1819433244	-0.8906868258	-0.6549000514	-0.12001
C	 2.3210120912	-0.4098105154	 0.7827474338	-0.216376
C	 0.838458348	-0.5392096535	 1.1848098588	 0.089581
O	 0.9008826476	-1.9986356826	 1.0589541624	-0.347208
C	 2.2172838623	-1.8785893981	 0.4990265347	 0.474221
C	 3.1428741711	-3.0388356503	 0.6529508487	-0.500345
H	 0.8853598354	 1.9903927992	 0.0100348502	 0.119299
H	-0.6770452882	 1.8895527102	-0.8108964129	 0.116313
H	-0.6069675168	 1.8732298534	 0.9573083965	 0.111608
H	-0.9940142669	-0.4481119025	 0.0529394815	 0.077019
H	 0.3166605307	-1.3995996418	-1.6642260525	 0.105702
H	 0.8871937213	 0.237479674	-1.9916568224	 0.093008
H	 3.0575040027	-0.8651071696	-1.2949720344	 0.08145
H	 3.1006539953	 0.2082041321	 1.2059361028	 0.090699
H	 0.5244672327	-0.237910393	 2.1864234276	 0.073169
H	 2.7578562236	-3.9129244255	 0.1156770731	 0.130131
H	 4.1293414495	-2.7979449313	 0.2459772941	 0.121908
H	 3.2563950257	-3.3101914292	 1.7073482983	 0.127795
