14
gdb 835	7.24104	1.97969	1.57321	1.4862	60.58	-0.1872	0.0328	0.22	767.2702	0.114169	-324.605613	-324.598744	-324.5978	-324.636154	25.319	
C	 0.0641839458	 1.4814542981	-0.0025163038	-0.488798
C	-0.0711448117	 0.0008092778	-0.0142470158	 0.386384
C	-1.1245963335	-0.8369787619	 0.189358631	-0.338408
C	-0.622940887	-2.1765817221	 0.0426008979	 0.231592
N	-1.3644107146	-3.3501431394	 0.2488796686	-0.604848
C	 0.702845385	-2.0450061133	-0.2417017584	-0.102055
O	 1.050598234	-0.7167308388	-0.2725692276	-0.18513
H	 0.7854168724	 1.8121482434	 0.7535685622	 0.137555
H	 0.4098086014	 1.8617381619	-0.9707032613	 0.135953
H	-0.9005696876	 1.942106363	 0.2210673799	 0.132293
H	-2.1375068825	-0.5475043092	 0.4251536393	 0.09662
H	-2.3070908434	-3.2795649876	-0.1127822832	 0.242976
H	-0.9206912514	-4.1684996492	-0.1478700265	 0.241221
H	 1.4976210832	-2.7473059927	-0.4270086525	 0.114643
