25
gdb 88818	2.8525	1.05239	0.85881	0.1063	93.3	-0.2542	0.0829	0.3371	1480.3055	0.229038	-352.339834	-352.329936	-352.328992	-352.374791	37.923	
C	 0.133877121	 1.6133054142	-0.3021925674	-0.406285
C	 0.0143905874	 0.1206402108	-0.0808191449	-0.000891
C	 1.2224468458	-0.7808288168	-0.1510892631	-0.309574
C	 0.5093596284	-0.579619701	 1.1700701077	-0.00593
C	 1.1706364496	 0.1458576844	 2.3099816475	 0.035017
C	 0.2987461504	 0.6829131351	 3.4818218409	-0.238956
C	 1.4271907039	 0.2754635731	 4.465273495	-0.221317
C	 2.0260318118	-0.6486016851	 3.3625206308	 0.004309
C	 1.6704161413	-2.1231811668	 3.5345593848	-0.39329
H	 1.0753903018	 2.0126854101	 0.0852335645	 0.11614
H	 0.0979725271	 1.8482016215	-1.3719742627	 0.114353
H	-0.6831834978	 2.1582091668	 0.1843186991	 0.115555
H	-0.8980827059	-0.3021865222	-0.4947936029	 0.078965
H	 1.1413749302	-1.7384839233	-0.6542050081	 0.104506
H	 2.1909479307	-0.3023773012	-0.267215915	 0.10444
H	-0.1132331146	-1.4127514266	 1.487326278	 0.073718
H	 1.7875830254	 0.9618372134	 1.919943885	 0.060677
H	 0.0044281264	 1.7350555928	 3.4491924468	 0.091944
H	-0.6051402562	 0.0813236982	 3.620578095	 0.095979
H	 2.0867103187	 1.1143178392	 4.7048661592	 0.094911
H	 1.1291503836	-0.2066157952	 5.4007079722	 0.089969
H	 3.1076321079	-0.5583067128	 3.2194123457	 0.060048
H	 0.6002995971	-2.2673541833	 3.7217785713	 0.110798
H	 1.934194757	-2.7066337332	 2.6463048667	 0.11652
H	 2.2103261592	-2.5482580619	 4.3878911138	 0.108393
