18
gdb 88217	3.73259	0.72322	0.65771	3.7934	86.1	-0.2465	-0.015	0.2315	1722.8254	0.146193	-401.947467	-401.937399	-401.936455	-401.984	35.401	
C	 0.1243261657	 1.5375399377	-0.2515166564	-0.411162
C	 0.0541010575	 0.0426936285	-0.0466149472	 0.016428
C	 1.2854024768	-0.805686128	-0.092655184	-0.284078
C	 0.5687537078	-0.6060067071	 1.2424314041	-0.200988
C	 1.1784361347	 0.1853615482	 2.263016012	 0.064201
C	 1.6922135628	 0.8619237284	 3.1222230701	 0.047401
C	 2.3451865574	 1.728844287	 4.0863430719	 0.254745
N	 2.1939970563	 1.3293815117	 5.3862710411	-0.521841
O	 2.9577935049	 2.7306477022	 3.7660464317	-0.340256
H	 1.0337280699	 1.956815483	 0.1868165733	 0.143887
H	 0.1181489478	 1.7786247552	-1.3198271411	 0.119608
H	-0.7301711021	 2.0404977457	 0.2127554155	 0.124667
H	-0.8508421649	-0.4253611724	-0.424973688	 0.094997
H	 1.2361438777	-1.7947705129	-0.5339085158	 0.120528
H	 2.239501209	-0.3033221948	-0.2061188378	 0.134012
H	-0.0043823042	-1.4548890762	 1.6031873115	 0.112077
H	 1.7893623121	 0.4377907653	 5.613383039	 0.262762
H	 2.7005829109	 1.8353312484	 6.09448562	 0.26301
