21
gdb 104466	2.13753	1.26747	1.11014	3.4417	80.7	-0.2531	-0.0245	0.2286	1251.8462	0.180367	-424.230017	-424.219726	-424.218781	-424.265148	37.376	
C	-0.3038332124	 0.9924771792	-1.6955880176	-0.41172
C	-0.0059135851	-0.2182188441	-0.8372103672	-0.056063
C	 1.3603290443	-0.6281331859	-0.3869068427	-0.0791
C	 2.6347424667	 0.0970522889	-0.7676073866	-0.416935
C	 0.3797168235	-0.0570778135	 0.6464483757	 0.192528
C	 0.5568980719	 1.3152186501	 1.2777322824	-0.146137
O	-0.6809524603	 1.8986545567	 1.6372527648	-0.429568
C	-0.2584737285	-1.0445117381	 1.5414466065	 0.12021
O	-0.7096435977	-0.7902578225	 2.6382623736	-0.296022
H	 0.4345887724	 1.7878998681	-1.579784266	 0.122816
H	-0.3187437095	 0.7086241592	-2.7532662268	 0.120983
H	-1.2804983514	 1.4125631921	-1.4392333787	 0.143658
H	-0.687349183	-1.0457914998	-1.0250465637	 0.092493
H	 1.5026125985	-1.7043851986	-0.3013449442	 0.090211
H	 2.496816128	 1.1739269852	-0.8807906638	 0.126688
H	 3.4135957885	-0.0606477176	-0.0145915024	 0.128672
H	 3.012488502	-0.2869406143	-1.7212675114	 0.12685
H	 1.2192271583	 1.2166230396	 2.1514698306	 0.098047
H	 1.0375436319	 2.0089147331	 0.5855222746	 0.101175
H	-1.0548072281	 1.3114630053	 2.3073319093	 0.296302
H	-0.3215074	-2.0795035632	 1.1318332336	 0.074914
