20
gdb 75119	3.08175	1.20686	0.9116	3.2115	85.11	-0.21	0.0017	0.2117	1297.4922	0.173011	-403.206728	-403.198076	-403.197132	-403.240083	33.104	
C	-0.274849164	 1.5163329432	 0.082972022	-0.459689
C	 0.0449111389	 0.0427585654	 0.0114931474	 0.260715
C	-0.0017711992	-0.5635638486	-1.1823681393	-0.056653
N	 0.2000521927	-1.8983528563	-1.5595276758	-0.332514
C	 0.1854018071	-3.087981238	-0.8593779777	 0.383145
O	 0.3424547255	-4.1384867949	-1.4529801998	-0.362012
C	-0.0238459447	-3.0136735325	 0.6394972049	-0.302732
C	 0.9037938888	-2.0118371023	 1.3478701108	-0.22942
C	 0.3682873123	-0.5796404292	 1.3464377289	-0.285952
H	 0.5656470969	 2.0848082332	 0.5024450398	 0.120626
H	-0.5087623602	 1.9348594911	-0.8995131838	 0.117741
H	-1.1347921655	 1.7058584382	 0.7395997737	 0.12085
H	-0.2345280304	 0.0475345662	-2.0496460104	 0.096308
H	 0.3070320295	-2.0608843445	-2.550733929	 0.249937
H	-1.0719728162	-2.7519056169	 0.8374938088	 0.120155
H	 0.1322075033	-4.0300362847	 1.0050949635	 0.128814
H	 1.0349424739	-2.3264769027	 2.3884178091	 0.106109
H	 1.8994344886	-2.0457125654	 0.8903759091	 0.113392
H	 1.0922854661	 0.0709663484	 1.8578208457	 0.104402
H	-0.5353753034	-0.5376320597	 1.9754565219	 0.106779
