17
gdb 133104	2.73469	1.43034	1.01054	1.2736	77.57	-0.2572	-0.017	0.2402	1163.5803	0.137013	-426.042876	-426.034962	-426.034018	-426.075705	29.677	
C	 0.0376463793	 1.5641854725	 0.1127332629	-0.37513
C	-0.0574054573	 0.0356739083	-0.0380891561	-0.301347
C	 0.6651612318	-0.4871811024	-1.2538008141	 0.119114
C	-0.0015998664	-0.9452141882	-2.3927290222	-0.056374
N	 0.5868721493	-1.4062000464	-3.4989093131	-0.274538
C	 1.9209711963	-1.4319196807	-3.5106875919	 0.009634
C	 2.7104613783	-1.0099532114	-2.4443493172	-0.251028
C	 2.0552949593	-0.5377847881	-1.3203432652	 0.265013
F	 2.7697132472	-0.1215190035	-0.2690142204	-0.075773
H	 1.0793342153	 1.8803114565	 0.21433094	 0.131446
H	-0.3875843046	 2.0714417128	-0.7587009492	 0.12259
H	-0.5069739607	 1.8982122029	 1.0009525746	 0.11772
H	 0.3530834487	-0.4388997949	 0.8604612451	 0.118572
H	-1.1089099919	-0.264139701	-0.100146385	 0.109537
H	-1.0903650306	-0.9371291173	-2.3988191402	 0.109354
H	 2.3902850087	-1.8092986309	-4.4156417062	 0.115488
H	 3.7924227974	-1.0449728283	-2.4785897717	 0.115722
