23
gdb 78598	2.9088	1.35875	1.1079	0.2055	90.66	-0.2722	0.094	0.3661	1231.5812	0.204872	-351.096881	-351.087866	-351.086922	-351.129789	35.719	
C	-0.1809814878	 1.6170412793	-0.0981366752	-0.423688
C	-0.0525667342	 0.1016556518	-0.0454115528	-0.00735
C	 1.1908566388	-0.5840671855	-0.6543143965	-0.092282
C	 2.0889454051	-0.260661709	 0.5885282925	-0.05614
C	 2.5510920651	-1.7266329101	 0.7192748509	-0.053898
C	 2.9901518597	-2.2609241667	 2.0750191182	-0.423246
C	 1.0623483227	-1.8286543231	 0.3012955587	 0.361138
C	 0.2430238261	-3.07052229	 0.0709645147	-0.52827
C	 0.6570362373	-0.5643790657	 1.1558957456	-0.097944
H	 0.7552538841	 2.1140700325	 0.1756696402	 0.112828
H	-0.4552098519	 1.9542517704	-1.1042475741	 0.111778
H	-0.9584804056	 1.9699777456	 0.5889595526	 0.11156
H	-1.0038145688	-0.3718624144	-0.3207355968	 0.057231
H	 1.5265995294	-0.6133312968	-1.6941051642	 0.057583
H	 2.6683826137	 0.649653286	 0.7485595073	 0.063459
H	 3.250939276	-2.0430297229	-0.0668686385	 0.053267
H	 2.3039717285	-1.9559343873	 2.8722589237	 0.111723
H	 3.0341672697	-3.3560353638	 2.0743772375	 0.112062
H	 3.9886834366	-1.8943331708	 2.3385703668	 0.112575
H	 0.2024547073	-3.6890001362	 0.974827325	 0.118874
H	-0.787016107	-2.8270968433	-0.2116288945	 0.12023
H	 0.6736488022	-3.6815796915	-0.7305749459	 0.117216
H	 0.3588145529	-0.5601640884	 2.2063501049	 0.061294
