20
gdb 41724	3.26722	1.74184	1.69783	1.6825	75.96	-0.2235	0.0797	0.3032	907.1899	0.176574	-403.14715	-403.140943	-403.139999	-403.17732	27.064	
C	-0.0353856575	 1.5658452302	 0.0000838628	-0.260645
C	 1.487385063	 1.9271821475	 0.0529237119	-0.170264
N	 2.2031894318	 0.6668642519	-0.2508511605	-0.097373
C	 1.7839045522	 0.2803913489	-1.6409343215	-0.195478
C	 0.4828494667	-0.5340122828	-1.401563783	 0.097595
O	 0.8782420885	-1.8734177157	-1.0913226418	-0.276784
C	 1.6517734204	-1.7471677527	 0.1177450224	-0.110584
C	 1.4130401453	-0.306115633	 0.5675055038	-0.023117
C	 0.0226223958	 0.0310872007	-0.0397084658	-0.019273
H	-0.5734165392	 1.9262972908	 0.8811522802	 0.101728
H	-0.5375458748	 1.9847605577	-0.877971842	 0.101278
H	 1.7824160065	 2.7064931119	-0.6535084181	 0.1034
H	 1.7742700155	 2.2594981847	 1.0557513648	 0.102623
H	 1.647669207	 1.1702192046	-2.2607021956	 0.099085
H	 2.5360559016	-0.3559237132	-2.1133699643	 0.113894
H	-0.2356602807	-0.5613994253	-2.2211980773	 0.075291
H	 1.2872052624	-2.4725601041	 0.8532629331	 0.105165
H	 2.7130489328	-1.9468184263	-0.0764978783	 0.108509
H	 1.5555481234	-0.1279921314	 1.6344633125	 0.072811
H	-0.8403466209	-0.4957589943	 0.3684559867	 0.072139
