17
gdb 37091	2.17333	2.05062	1.31975	0.7319	72.2	-0.2528	0.0702	0.323	989.2664	0.134756	-421.735914	-421.728428	-421.727484	-421.767754	29.467	
C	-0.0161769311	 1.5340236162	 0.1043360832	-0.327443
C	 1.2636940471	 0.7501897934	-0.0757950073	-0.318676
C	-0.0543653722	 0.0404654016	 0.0155308567	 0.291457
C	-0.4650253301	-0.997948342	 1.0469743536	-0.102207
O	-1.8756765696	-1.2250378781	 0.8905545292	-0.244364
C	-0.9772901861	-1.8990260787	-0.0022646419	-0.096839
C	-0.6106028441	-0.8773412569	-1.0776314003	 0.378485
C	-1.1930333889	-0.6246116707	-2.3907058313	-0.262424
O	 0.1215831338	-1.2007017321	-2.2422289436	-0.276439
H	-0.2091905057	 1.9931340696	 1.0682284951	 0.120962
H	-0.3924673598	 2.1002925078	-0.7417049097	 0.118178
H	 1.7439097873	 0.7585396308	-1.0483870313	 0.131682
H	 1.9446593378	 0.6768576078	 0.7657861755	 0.117502
H	-0.0210261894	-1.2209004885	 2.0099362959	 0.111612
H	-1.0177236686	-2.9796557207	-0.0667275683	 0.117314
H	-1.954457961	-1.2935053318	-2.7884619251	 0.122382
H	-1.2091387294	 0.3888708123	-2.7886362504	 0.118818
