20
gdb 93262	1.96228	1.76583	1.39959	3.9036	75.69	-0.254	0.0337	0.2877	1063.5478	0.170329	-440.309457	-440.300145	-440.299201	-440.342966	35.389	
C	-0.4518212262	 1.5606970933	-0.0023848881	-0.428853
C	-0.0045813849	 0.0977733991	-0.0427611896	 0.160689
C	-1.232120113	-0.8359522155	 0.0445706638	-0.433346
C	 0.8619244207	-0.2749057914	-1.2681702877	 0.079297
O	 1.6479895553	 0.8496277902	-1.6272080366	-0.433871
C	 1.7292038779	-1.4122680479	-0.7069518032	-0.116361
O	 1.8961408141	-1.1253139275	 0.6863902455	-0.24787
C	 0.93683969	-0.2451455808	 1.1071295043	 0.420586
N	 0.8337091363	 0.1871128941	 2.2876449985	-0.550737
H	 0.3982166848	 2.2358242443	-0.0977380005	 0.139821
H	-1.1540374653	 1.7706535952	-0.8156707521	 0.10326
H	-0.9456430487	 1.7586703277	 0.9517235123	 0.136813
H	-1.9180240898	-0.6408637539	-0.7860786697	 0.116812
H	-0.9553117641	-1.8948430663	 0.0153439756	 0.116204
H	-1.7624182607	-0.6569110221	 0.9830821142	 0.142993
H	 0.249572227	-0.6140613222	-2.1148603707	 0.069734
H	 2.220716741	 0.5986347224	-2.3584607348	 0.28631
H	 1.2509685032	-2.3926336836	-0.8253280552	 0.110502
H	 2.7201797044	-1.448004287	-1.1692591503	 0.107735
H	 1.561224088	-0.2090936479	 2.8848242843	 0.220281
