15
gdb 85391	1.9975	1.97915	1.02406	1.647	64.83	-0.2707	-0.0029	0.2679	1101.0663	0.113599	-491.150578	-491.14278	-491.141836	-491.183132	29.039	
C	 0.016675643	 1.4666758241	-0.0032203695	-0.409305
C	 0.0584581764	-0.0397053146	 0.0160869785	 0.19529
O	 0.6451210843	-0.4906279641	-1.1910847854	-0.210563
C	 0.8461760828	-1.8278990004	-1.2719758311	 0.468642
N	 0.9643079198	-2.3703478849	-2.4043499335	-0.537001
N	 0.9168788812	-2.4404459832	-0.0124376227	-0.441447
C	 1.1221243915	-1.7774798027	 1.1949299604	 0.47607
O	 1.5092217725	-2.3169439326	 2.1913599682	-0.364429
O	 0.8418342577	-0.4552407829	 1.1358360582	-0.228866
H	 1.0303456278	 1.8605638921	-0.1045044352	 0.151737
H	-0.5873318475	 1.8061145871	-0.8470893134	 0.146501
H	-0.4218992047	 1.8341851098	 0.9266008035	 0.145295
H	-0.9408162701	-0.4854512846	 0.1157150088	 0.10962
H	 1.1885284321	-3.3599671297	-2.3317019498	 0.223949
H	 1.1383526233	-3.4243102534	 0.017101743	 0.274505
