20
gdb 78783	2.62985	1.74968	1.33687	1.5827	77.94	-0.2448	0.0643	0.3091	1034.3728	0.170514	-403.095234	-403.086801	-403.085857	-403.127471	33.548	
C	-0.0786005896	 1.6336779975	 0.0430803332	-0.435753
C	 0.1206696728	 0.1238118529	-0.0076809414	 0.034991
C	 0.8802112971	-0.5783675497	-1.1245928854	-0.071641
C	 2.3173102589	-0.7406497452	-0.7484934328	-0.084571
N	 1.2866672971	-1.7142520644	-0.2299775886	-0.169825
C	 1.0951529434	-0.6539014638	 0.9083211642	-0.108465
C	 2.5497506151	-0.1738212591	 0.6347369063	 0.422177
C	 3.5722015259	-0.9829078309	 1.4297950669	-0.457421
O	 2.8597900687	 1.2062972577	 0.675998573	-0.478667
H	 0.859201496	 2.1712279851	-0.0906331005	 0.145478
H	-0.7812808854	 1.9445321749	-0.7382539588	 0.1086
H	-0.5106970133	 1.9320559979	 1.0052739643	 0.107108
H	-0.8510619205	-0.378606686	 0.075099744	 0.083554
H	 0.5470462438	-0.7663203507	-2.1401409548	 0.092234
H	 3.0709037343	-1.0516674885	-1.4642677919	 0.0898
H	 0.7982850822	-0.9852333186	 1.9036014886	 0.070094
H	 3.3575273323	-2.0524945311	 1.3729298646	 0.146926
H	 4.5807558448	-0.8039504853	 1.0436956817	 0.122937
H	 3.5534471445	-0.689313683	 2.4871848868	 0.105685
H	 3.1713242318	 1.4232412301	 1.5608296807	 0.27676
