20
gdb 61181	2.49682	1.01585	0.76415	3.8182	85.42	-0.268	0.03	0.298	1493.2114	0.168165	-366.005196	-365.994687	-365.993743	-366.040912	38.057	
C	 0.0031064286	 1.5720686061	-0.0254066426	-0.417587
C	 0.0056308329	 0.0394238804	-0.0064054144	 0.031299
C	 0.783010565	-0.4980363489	 1.2227493617	-0.380318
C	 2.1897205718	-0.1176430081	 1.2235362557	 0.296802
C	 3.3495336119	 0.1978157189	 1.2034965842	-0.432656
C	-1.4403475055	-0.5337425264	-0.0249039146	-0.134562
C	-2.2824139267	-0.0605102598	-1.2279455279	-0.410574
C	-1.4181093129	-2.002005144	-0.0015621877	 0.275853
N	-1.4007166591	-3.1580548619	 0.0019939602	-0.333809
H	 1.0247504231	 1.945581072	 0.0778651951	 0.142733
H	-0.405800759	 1.9711462105	-0.9563891594	 0.122908
H	-0.5875515279	 1.9750137729	 0.8065944508	 0.115079
H	 0.5172248437	-0.3248824443	-0.9055905756	 0.104368
H	 0.3036262121	-0.1287485265	 2.1403471117	 0.127941
H	 0.7078661717	-1.5911596262	 1.2544415992	 0.159595
H	 4.3769388771	 0.4659869793	 1.197835251	 0.197588
H	-1.9432187866	-0.2115102669	 0.8978814501	 0.124132
H	-1.7815744121	-0.3014761886	-2.170135922	 0.138339
H	-3.2590418255	-0.5502773873	-1.2280603919	 0.140531
H	-2.4421761928	 1.018187299	-1.1834648936	 0.132338
