15
gdb 128569	3.09655	1.30148	0.92173	3.5352	71.96	-0.235	-0.0494	0.1856	1193.4796	0.114378	-453.979423	-453.971792	-453.970847	-454.01173	28.47	
C	 0.1073898442	 1.3829515237	 0.0069031777	-0.252721
O	-0.0070227125	-0.0347908895	 0.0034455112	-0.255679
C	-1.2428365254	-0.5645261377	 0.0106924579	 0.400854
C	-2.4224592393	 0.1200524801	 0.021281779	-0.404481
C	-3.6784155757	-0.6024580418	 0.0279878081	 0.438033
O	-4.8000401973	-0.1259306879	 0.0378065643	-0.396377
N	-3.5050362336	-1.9985803272	 0.0226135434	-0.264121
N	-2.3633063116	-2.6896863382	 0.0122886365	-0.183617
C	-1.2624002494	-2.0027094132	 0.0064065599	-0.043003
H	 1.175797923	 1.5990744699	-0.0001707588	 0.146877
H	-0.3629095584	 1.8182403948	-0.8823351345	 0.139969
H	-0.3499772865	 1.8128342844	 0.9054690535	 0.13997
H	-2.4899276068	 1.19863442	 0.0251371579	 0.123422
H	-4.3498065688	-2.5542247272	 0.0270936178	 0.274543
H	-0.330609202	-2.5551608403	-0.0019899038	 0.13633
