17
gdb 32101	3.02083	1.26121	0.95843	0.9119	77.79	-0.2524	-0.0264	0.226	1232.6825	0.137975	-418.088866	-418.080825	-418.079881	-418.122381	29.95	
C	-0.0455402326	 1.5394563661	 0.0481156885	-0.376632
C	-0.0007644943	 0.0013353812	 0.0522107981	-0.249148
C	 0.7514482634	-0.5247223288	 1.2461686652	 0.347543
N	 2.0578609645	-0.7591267233	 1.0994471706	-0.299053
C	 2.7047423734	-1.1939360835	 2.1896379594	 0.015641
C	 2.0901636107	-1.4000696452	 3.4104316574	-0.222118
C	 0.7221467462	-1.1184559419	 3.4436542826	 0.432525
O	 0.0368253297	-1.2877195435	 4.5847619961	-0.408473
N	 0.0540605581	-0.6858036695	 2.3812600411	-0.375225
H	 0.9655901074	 1.9561161952	 0.012270893	 0.129313
H	-0.5972252912	 1.9065177362	-0.8221661815	 0.116095
H	-0.5389277437	 1.9157858325	 0.9494307306	 0.125447
H	-1.0196032172	-0.3962814864	 0.0755542389	 0.11115
H	 0.4961120164	-0.357401236	-0.8527971022	 0.1176
H	 3.7686233215	-1.3875512527	 2.0714582006	 0.11741
H	 2.6172784781	-1.7555178504	 4.2855345292	 0.116911
H	-0.8785976903	-1.0406271299	 4.3875397923	 0.301014
