23
gdb 75274	2.4637	1.3923	1.18594	0.1873	91.9	-0.2138	0.0299	0.2437	1215.6505	0.205357	-351.171906	-351.162572	-351.161628	-351.205108	36.731	
C	-0.0258656782	 1.5107811977	 0.0541779671	-0.498807
C	 0.0070561279	 0.0154448713	-0.0103254223	 0.336644
C	 0.0162779638	-0.7496142928	-1.1090662234	-0.18054
C	 0.062795617	-2.2283351064	-0.7904221646	-0.287249
C	 0.029735018	-2.2721016363	 0.7399302592	-0.090291
C	 0.0151355133	-0.8257244495	 1.2254014849	-0.183717
C	-1.1748104554	-1.7497468145	 1.4918505079	 0.336952
C	-2.5149269067	-1.5535611463	 0.8127652031	-0.462248
C	-1.2972291416	-2.2375575967	 2.9258980738	-0.449624
H	 0.8271751453	 1.9002757568	 0.6245523095	 0.123176
H	 0.0013942164	 1.9592298789	-0.9427067512	 0.120573
H	-0.9288112711	 1.8673845564	 0.5658369706	 0.126079
H	-0.0337706222	-0.3725666651	-2.1255635036	 0.081463
H	-0.77466735	-2.7758201488	-1.245020867	 0.104375
H	 0.9767259733	-2.697364055	-1.1793433063	 0.102653
H	 0.6384704508	-3.0174737349	 1.240708881	 0.075187
H	 0.5914591769	-0.4933924858	 2.084934052	 0.071022
H	-2.4193423604	-1.1176249381	-0.1833795972	 0.123103
H	-3.0393585796	-2.5118472522	 0.7140112287	 0.10956
H	-3.1554202128	-0.8917927041	 1.4080565295	 0.107887
H	-1.8643102873	-1.525544741	 3.53726384	 0.111332
H	-1.8198547845	-3.2007979216	 2.9698315939	 0.112109
H	-0.3155727428	-2.3703904321	 3.3916273944	 0.110361
