16
gdb 79175	2.68298	1.89995	1.4811	1.3472	67.17	-0.2433	-0.0357	0.2075	904.2593	0.125743	-437.855562	-437.84849	-437.847546	-437.887241	27.61	
O	 0.1317521467	 1.3973527202	 0.2424472251	-0.434052
C	-0.0120356682	 0.0013309997	 0.0523338306	 0.003211
C	-1.4451306744	-0.4326389373	-0.1235475857	-0.044203
C	-2.222628496	-0.1055568443	-1.3450940793	-0.02004
C	-1.3584526647	 0.2714326897	-2.5372685293	-0.257561
C	-0.4764879639	-0.959679479	-2.1431339514	-0.12557
N	-1.5674540644	-1.4635385738	-1.2022020943	-0.159681
C	 0.6417625848	-0.4381809084	-1.2751290729	 0.403289
O	 1.8028745511	-0.2770345122	-1.5509467447	-0.329628
H	 1.0710669514	 1.5947375063	 0.1344158356	 0.295363
H	 0.4451526064	-0.5634448219	 0.8808043875	 0.098025
H	-2.0253469937	-0.6724687015	 0.7606796981	 0.106458
H	-3.3009953323	 0.0072894356	-1.2928716568	 0.102164
H	-1.8723008781	 0.0853076534	-3.4818166981	 0.127495
H	-0.8982169882	 1.2622871404	-2.5574600267	 0.128654
H	-0.1868737765	-1.656983357	-2.9254080776	 0.106078
