13
gdb 105	7.20812	7.20681	6.22176	0.0002	49.82	-0.2974	0.1082	0.4056	328.2069	0.116844	-195.158734	-195.154774	-195.15383	-195.185188	15.584	
C	-0.0445774324	 1.5704237601	 0.0110417803	-0.201519
C	 1.4740896832	 1.2298426501	-0.0067263896	-0.023804
C	 1.1682993117	 0.1443109379	 1.0663744852	-0.201645
C	 0.0391253719	 0.0162093398	 0.0024263012	-0.023804
C	 1.1462118991	 0.1542190803	-1.0826776727	-0.201397
H	-0.432979399	 2.0365230932	 0.9212539305	 0.086486
H	-0.4522920887	 2.0457291576	-0.8859162855	 0.086431
H	 2.3071156075	 1.9344078755	-0.0121404539	 0.066707
H	 1.8734729739	-0.6889311545	 1.1373305611	 0.086459
H	 0.8720963351	 0.5020028465	 2.0568232459	 0.086492
H	-0.79393529	-0.6883164323	 0.0076413099	 0.066707
H	 0.8299890169	 0.5207143173	-2.063620376	 0.086423
H	 1.8497119208	-0.6782799316	-1.1756418065	 0.086464
