20
gdb 79823	2.0875	1.91979	1.65119	2.4432	76.92	-0.2163	0.0677	0.284	976.1563	0.171854	-403.112904	-403.104869	-403.103925	-403.144794	32.358	
C	-0.3906931743	 1.5474073968	-0.0268346431	-0.430739
C	 0.0223474322	 0.0859576472	 0.0407464871	 0.035434
N	 0.9651108441	-0.4366047228	-1.0184009593	-0.172685
C	 2.384063256	-0.228289753	-0.5910748262	-0.015851
C	 2.7663114069	 0.8385085001	 0.4292293124	-0.252277
C	 1.9450766751	 0.464837797	 1.6910128381	-0.276934
C	 0.9000755015	-0.5326490758	 1.17116839	 0.362759
O	 0.2676649884	-1.313964654	 2.1477772438	-0.497275
C	 1.6024565158	-1.3111935841	 0.0298660199	-0.089631
H	 0.4379689418	 2.2416454648	 0.1294490779	 0.117575
H	-0.8195621168	 1.7587315101	-1.0121449293	 0.131209
H	-1.159984813	 1.7642657649	 0.7230219935	 0.112215
H	-0.8714206273	-0.5416794659	-0.047055307	 0.088851
H	 3.0662737139	-0.4380356801	-1.4086538463	 0.094949
H	 3.8424146411	 0.7886984529	 0.6236378562	 0.10752
H	 2.5606090474	 1.8497522552	 0.0667037458	 0.110797
H	 2.5710959744	-0.0390433282	 2.4350574365	 0.106445
H	 1.4836208813	 1.3341771783	 2.1733822857	 0.091772
H	-0.0659511589	-0.7290463111	 2.8360836723	 0.278853
H	 1.7159482203	-2.3837565122	-0.0705893979	 0.097013
