14
gdb 42969	3.35996	1.39797	1.06498	3.7534	78.21	-0.2398	-0.0699	0.1699	1076.4579	0.100858	-399.510871	-399.503432	-399.502488	-399.542807	28.493	
O	-0.0158933284	 0.0102088607	-0.1236537524	-0.308209
C	-0.0225223814	 1.210440605	-0.050051801	 0.36425
C	-1.2395252425	 2.1174219982	-0.0050704091	-0.167518
N	-1.2783127374	 2.9383207659	 1.2389584596	-0.321841
C	-0.7323714285	 3.5050934342	-0.0277705818	-0.089939
C	 0.7570431239	 3.4158444508	-0.0643218652	-0.148712
C	 1.1779085823	 2.1337351985	-0.0348381424	 0.031921
C	 2.5039489806	 1.6526022086	 0.0167455735	 0.246033
C	 3.6216684688	 1.2069328671	 0.0578340969	-0.400889
H	-2.1626554835	 1.7960346113	-0.4711177655	 0.117295
H	-2.2381356387	 3.2650693628	 1.3589634914	 0.240529
H	-1.2583693889	 4.3158063201	-0.5174375362	 0.109793
H	 1.4053299435	 4.2831229982	-0.0594293244	 0.128479
H	 4.6075822201	 0.8142370987	 0.0967386164	 0.198808
