13
gdb 20313	6.22982	1.37928	1.13711	4.6764	64.19	-0.2535	0.0029	0.2564	966.6649	0.096323	-357.60737	-357.600307	-357.599363	-357.640428	25.191	
C	-0.2215621979	-0.9208818332	-0.9306938202	-0.418024
C	-0.0764118671	 0.0410259899	-0.2252894753	 0.274673
C	 0.134443792	 1.2167545034	 0.6140366294	-0.475228
C	 1.4304301162	 1.9252064238	 0.3239611684	 0.354268
C	 2.0308783825	 3.0456000279	 0.8532539459	-0.154775
N	 3.2175453537	 3.2531848444	 0.2180480759	-0.187136
N	 3.3902553964	 2.3238143369	-0.6783235292	-0.117842
N	 2.312699562	 1.5197004295	-0.6173227937	-0.225424
H	-0.3745308042	-1.7764327957	-1.5417988718	 0.211699
H	-0.7015196758	 1.9151982619	 0.4799638544	 0.165378
H	 0.108998668	 0.9200721749	 1.6704201388	 0.165377
H	 1.6852418599	 3.7001111347	 1.6372495977	 0.122741
H	 2.2306057242	 0.7218963015	-1.2296003404	 0.284293
