15
gdb 32168	4.03398	1.17515	0.91519	3.9671	70.48	-0.2553	-0.0418	0.2136	1198.3852	0.114577	-450.194554	-450.186299	-450.185355	-450.228002	29.537	
N	 0.1331703537	 1.2886398444	 0.4289980206	-0.553431
C	 0.013237461	-0.0155454449	 0.1189196995	 0.453592
N	-1.2191808684	-0.5507391057	 0.1412459341	-0.338079
C	-1.2639784207	-1.8402272326	-0.1695887161	 0.33293
C	-2.6114275675	-2.5264267153	-0.1693628424	-0.116156
O	-2.5324457087	-3.8810507641	-0.5142024815	-0.427078
N	-0.2117139014	-2.6033952249	-0.4885351208	-0.328482
C	 0.9583585145	-1.958020691	-0.4773226617	 0.074273
N	 1.1483648392	-0.6825960755	-0.1880208277	-0.309501
H	 1.0388177335	 1.7215445826	 0.4002019292	 0.275149
H	-0.6892789546	 1.823981442	 0.642520696	 0.274594
H	-3.0522541356	-2.397342436	 0.8315915224	 0.119668
H	-3.2662340689	-1.9782365848	-0.8646812399	 0.119609
H	-1.59149629	-4.054283017	-0.6736659111	 0.293088
H	 1.8422809839	-2.5399725972	-0.7316707206	 0.129826
