19
gdb 65106	3.00064	1.45462	1.19312	2.0785	75.67	-0.2273	0.0695	0.2968	1089.0832	0.158195	-422.961544	-422.953252	-422.952308	-422.994346	32.651	
O	 0.344378582	 0.9275785187	-1.109196401	-0.456234
C	 0.0875261511	-0.1025655163	-0.191450411	 0.278919
C	 1.199414787	-1.0904117626	 0.0014848266	-0.295633
C	 0.8486465709	-0.1174301925	 1.1100157156	-0.329707
C	-1.3175861155	-0.5936378845	-0.2314093527	 0.438649
C	-2.211095755	-0.6364873205	-1.4286709609	-0.330792
C	-2.6738355663	 0.0893983723	-0.1765228341	-0.208537
C	-2.9944159291	-0.9402158613	 0.8981758439	-0.088771
O	-1.7051656599	-1.5934502054	 0.7213182538	-0.328839
H	-0.0195984596	 1.7413181356	-0.742386391	 0.284237
H	 0.9348924177	-2.1325556199	 0.1370114252	 0.132207
H	 2.1045872143	-0.9054280328	-0.5648745652	 0.122459
H	 1.5301883077	 0.7075768087	 1.2855777908	 0.109627
H	 0.3440963207	-0.5095836319	 1.9849901261	 0.126647
H	-1.909062434	 0.0169301275	-2.2396996488	 0.126565
H	-2.6715898229	-1.5757272286	-1.7249144338	 0.110018
H	-2.9503541858	 1.1352352079	-0.1605637755	 0.094592
H	-3.0730011965	-0.5190558896	 1.9065777002	 0.108874
H	-3.8305904868	-1.6260555147	 0.7162935519	 0.105718
