25
gdb 118847	2.66357	0.8098	0.69743	1.2952	90.27	-0.2483	0.0766	0.3249	1787.1513	0.22658	-389.488802	-389.477583	-389.476639	-389.525406	41.367	
C	 0.0933937812	 1.5767057478	 0.2341268428	-0.38313
C	-0.0020299744	 0.0502437726	 0.2977775325	-0.176539
C	-1.3343567177	-0.4901783065	-0.2412021066	-0.225782
C	-1.4427271189	-2.001987327	-0.172605551	 0.385175
O	-0.4728303014	-2.6778856898	-0.9421172563	-0.477031
C	-1.8939335133	-2.6895480389	 1.0987098967	-0.3563
C	-2.7629499931	-2.7166470655	-0.1491859446	-0.025113
C	-4.1128344198	-2.0306300645	-0.193965412	-0.20594
C	-5.2386479857	-2.926194352	 0.3378462469	-0.371821
H	 1.0554828433	 1.9331869865	 0.6152071998	 0.111096
H	-0.011371981	 1.9366717547	-0.7952989787	 0.116714
H	-0.6962311016	 2.0481237628	 0.8298616632	 0.113854
H	 0.8243222769	-0.3843616639	-0.2794289133	 0.090822
H	 0.1312909228	-0.2856020059	 1.3346516763	 0.095797
H	-2.1575033713	-0.0362658395	 0.3216870477	 0.092562
H	-1.4555233068	-0.1764510894	-1.286612939	 0.099963
H	 0.3717873564	-2.5995942694	-0.4859791021	 0.280238
H	-1.3843955685	-3.602618434	 1.3867063757	 0.10651
H	-2.2199099885	-2.0684317626	 1.9283458188	 0.10304
H	-2.7278414605	-3.6592185201	-0.6906189867	 0.09193
H	-4.085523221	-1.1040495349	 0.3907479097	 0.093896
H	-4.3395517301	-1.733726065	-1.2264230168	 0.099544
H	-6.2053058859	-2.4143854399	 0.2983604726	 0.108071
H	-5.3228977204	-3.8454194028	-0.2520364513	 0.115042
H	-5.0517659007	-3.2170636027	 1.3769358955	 0.117404
