16
gdb 123752	5.06142	1.04713	0.99918	2.8253	70.7	-0.2439	-0.0284	0.2155	1199.0316	0.126988	-434.04041	-434.033111	-434.032167	-434.073424	26.55	
C	-0.0421161783	 1.42655339	-0.1421947681	-0.155076
C	 1.4992635309	 1.495586251	-0.0223841259	-0.245427
C	 1.3996147131	 0.0851769228	 0.6315728596	-0.082014
N	 0.0428823494	-0.0411922027	 0.0513821136	-0.306174
C	 2.3737985184	-0.9661136806	 0.2239690164	 0.446773
N	 3.1291114499	-1.6966260699	 0.9946544864	-0.321732
C	 3.8185429447	-2.450277818	 0.078194603	 0.032596
N	 3.5236513218	-2.2161181073	-1.1708744742	-0.109263
O	 2.5506556358	-1.2161162174	-1.0795065164	-0.190521
H	-0.5448097396	 1.9628448933	 0.6743717589	 0.097243
H	-0.4911560209	 1.7292182559	-1.0926369988	 0.11369
H	 1.9998412314	 1.4610795977	-0.9905665867	 0.135063
H	 1.9291940236	 2.2866967891	 0.5911734847	 0.117135
H	 1.4313379027	 0.1372228481	 1.726779543	 0.096293
H	-0.6514528979	-0.4550555955	 0.6640208562	 0.224901
H	 4.5560634451	-3.1917103167	 0.3492360184	 0.146514
