17
gdb 35634	2.40891	1.80292	1.38784	3.257	76.77	-0.2391	-0.0022	0.2369	977.4129	0.138059	-380.8592	-380.85175	-380.850805	-380.891149	28.959	
N	-0.1904870929	-1.2409895108	 0.0294302566	-0.336104
C	-0.1112201924	-0.087564084	 0.0344554339	 0.282903
C	-0.0133044224	 1.3823905615	 0.0185804633	-0.121871
C	-0.8293709344	 1.9702621758	 1.1936672864	-0.263892
C	-0.1089162008	 1.7519708348	 2.5015512468	-0.07073
C	 1.2218759217	 1.7706275752	 2.554683173	-0.058865
C	 2.013495441	 2.0679853401	 1.3354632129	-0.045827
C	 2.4760853044	 1.0014682108	 0.4029194208	-0.255978
N	 1.3762794589	 1.8968551592	 0.0205120184	-0.1077
H	-0.4618552255	 1.7074055898	-0.92813275	 0.13424
H	-0.9748177451	 3.0415685215	 1.0050807693	 0.130811
H	-1.8230770707	 1.5148491275	 1.2071911989	 0.130005
H	-0.703010364	 1.5720789423	 3.3917058589	 0.104182
H	 1.7586957713	 1.6177355125	 3.4865179982	 0.103087
H	 2.6186334561	 2.9733304032	 1.3957392531	 0.10561
H	 3.3896342047	 1.1342665597	-0.1699845576	 0.122422
H	 2.2356254801	-0.0272302392	 0.656523207	 0.147707
