15
gdb 127455	3.75159	1.15149	0.88717	6.719	72.36	-0.2406	-0.0454	0.1952	1239.7676	0.11357	-450.163795	-450.155264	-450.15432	-450.197327	30.027	
C	-0.0195858571	 1.3864253837	-0.0627514932	-0.341523
N	 0.0023156268	-0.0579666778	 0.0181566415	 0.006021
N	 0.0318168557	-0.8337926207	-1.0920690964	-0.28628
C	 0.0187091741	-2.061576295	-0.5853817274	 0.237389
C	 0.0304862086	-3.2172080243	-1.4987501486	 0.097194
O	 0.0171344835	-4.3727375182	-1.1527815852	-0.25957
N	 0.0001990834	-2.1260372157	 0.7795649953	-0.351974
C	-0.0062483407	-0.8547614922	 1.1232801109	 0.407346
N	-0.0973934799	-0.3547216727	 2.4059343482	-0.605733
H	 0.9832857478	 1.8123190733	 0.0543835782	 0.144883
H	-0.4093393056	 1.6632541893	-1.0419001761	 0.173655
H	-0.6754283777	 1.7829250214	 0.7168616651	 0.154795
H	 0.0538983908	-2.9148647088	-2.5670149633	 0.086514
H	-0.0038766516	-1.0927288082	 3.0909404415	 0.276587
H	 0.512974192	 0.4239879959	 2.6133365494	 0.260697
