22
gdb 106958	3.36916	1.04768	0.97301	2.877	83.31	-0.2239	0.0641	0.288	1337.6353	0.192689	-404.305664	-404.295926	-404.294982	-404.339805	37.316	
C	-0.0381221466	 1.5522774261	 0.1082238143	-0.445587
C	 0.0065432017	 0.0306879819	 0.0151682984	 0.35255
C	-1.3839547073	-0.5695855141	-0.1869665311	-0.445534
C	 1.0607508257	-0.5782139316	-0.9947128136	-0.327098
C	 1.7252681475	-1.3033519355	 0.1824634408	 0.393274
C	 2.3589741705	-2.6533495236	 0.1851542241	-0.218915
O	 3.6374803186	-2.5617311763	-0.4318046035	-0.413884
N	 2.1728686603	-0.229306892	 1.1046694979	-0.368994
C	 0.7689046537	-0.6942532699	 1.1481011691	-0.16336
H	 0.9584055525	 1.9513058538	 0.3104460044	 0.137397
H	-0.4042150551	 1.9891804495	-0.8280604612	 0.106061
H	-0.7102890424	 1.8782893951	 0.9110223558	 0.10276
H	-1.8312646579	-0.2121876338	-1.1211385577	 0.114407
H	-1.3453502632	-1.6638349083	-0.2302984508	 0.105761
H	-2.0560486257	-0.2907790941	 0.633203954	 0.109731
H	 0.6007706109	-1.2535890286	-1.7208896899	 0.094156
H	 1.7048341281	 0.1353471249	-1.5130035768	 0.106465
H	 2.4406460355	-3.012789333	 1.2258618343	 0.078886
H	 1.7096929409	-3.3610272005	-0.3548282578	 0.09019
H	 3.9828018216	-3.4534778094	-0.5367501829	 0.287671
H	 2.6701053165	-0.6779755846	 1.8743357757	 0.22485
H	 0.3459479443	-1.1029228159	 2.0605507964	 0.079213
