23
gdb 76408	2.54716	1.12864	1.10275	1.2803	85.86	-0.2375	0.0738	0.3113	1304.6206	0.203817	-388.262856	-388.252499	-388.251554	-388.297933	38.875	
C	-0.1502123175	 1.3141761148	-0.2758192578	-0.424172
C	 0.1656217784	-0.1342363361	 0.028955204	-0.086347
C	 1.5959991086	-0.634293271	 0.0837967557	 0.033436
O	 2.6573247781	 0.2780364584	 0.0029737757	-0.425202
C	 0.7756547583	-0.6013226163	 1.3488604333	 0.270542
C	 1.135878453	 0.4208470079	 2.414603274	-0.454833
C	 0.2610307238	-1.8887028324	 1.9406934689	-0.033385
C	 0.2891134742	-3.2212452418	 1.2369197648	-0.289091
C	 1.2035617119	-2.9703578284	 2.4110449055	-0.2663
H	 0.670502135	 1.9767217626	 0.0075600505	 0.12585
H	-0.3310980424	 1.4521824741	-1.3483226167	 0.109692
H	-1.0503601572	 1.6484770235	 0.2513439832	 0.118119
H	-0.5377342731	-0.842119662	-0.4041687426	 0.079138
H	 1.815822425	-1.600561083	-0.3694200144	 0.076423
H	 2.7350255817	 0.5594391724	-0.9146571172	 0.28764
H	 1.6164225208	 1.3042501764	 1.9950279323	 0.13112
H	 0.2420818756	 0.737203286	 2.96497989	 0.106521
H	 1.8295288663	-0.0210860139	 3.1379127306	 0.117954
H	-0.6109416814	-1.7320781266	 2.5735088366	 0.078503
H	-0.5599242563	-3.8816025449	 1.3767347899	 0.10765
H	 0.7375886625	-3.2933793483	 0.2520791835	 0.112194
H	 2.2582266279	-2.8330689866	 2.195677718	 0.116289
H	 1.0002072768	-3.4754283146	 3.3488726522	 0.108262
