18
gdb 51561	3.57846	0.8497	0.75039	3.1449	75.64	-0.2626	0.0144	0.2769	1512.2955	0.146228	-439.033507	-439.024504	-439.02356	-439.068767	31.912	
N	 0.0007082834	 1.2018938245	-0.1994928336	-0.435181
C	-0.1095731252	-0.0211720261	 0.0851570366	 0.12941
O	-1.000825651	-0.7872380947	-0.5860138045	-0.188236
C	-1.0274336962	-2.1498421368	-0.2331706684	 0.093721
C	-1.7813198011	-2.5712424903	 0.9982135446	-0.333723
C	-2.3474266839	-2.8468626611	-0.384056749	-0.070506
C	-3.5476354603	-2.0955787343	-0.8567471976	 0.097153
C	-4.2832429578	-2.4965187677	-2.0616299574	-0.185765
O	-4.7970168458	-2.7881425275	-0.7600167078	-0.241746
H	 0.7078412302	 1.6337172847	 0.3918249731	 0.231782
H	 0.4514800629	-0.5758137244	 0.848423062	 0.092701
H	-0.1255096856	-2.6889460215	-0.5132729557	 0.109437
H	-1.4032808486	-3.3995217871	 1.5864861176	 0.124309
H	-2.2593616259	-1.7830169191	 1.5702904606	 0.13453
H	-2.3055187836	-3.8741765432	-0.7326607509	 0.100945
H	-3.5888462155	-1.0488174607	-0.5607005963	 0.11033
H	-4.8364890383	-1.7510631792	-2.6308693072	 0.119894
H	-3.9459540177	-3.3596692553	-2.634718186	 0.110943
