18
gdb 32802	3.30471	1.00534	0.79349	0.7362	76.14	-0.1803	0.0309	0.2112	1434.3583	0.147235	-439.098609	-439.089392	-439.088447	-439.133517	33.387	
C	-0.0324002829	 1.5348415423	 0.0005771208	-0.39121
C	 0.3481005941	 0.0587650305	-0.0446453852	-0.115188
N	 0.3606056906	-0.5090015733	 1.3053164053	-0.417012
C	 0.6752426472	-1.8700959515	 1.4235625415	 0.180009
C	 1.5414952748	-2.4355334786	 2.3108103493	 0.267173
O	 2.3922231407	-1.8673290724	 3.1931360807	-0.430297
O	 1.5406054215	-3.7966071519	 2.2067498218	-0.168777
C	 0.6554821072	-4.1032443706	 1.2174507611	-0.015066
C	 0.1024285386	-2.9770078954	 0.7004515564	-0.24124
H	 0.7021514644	 2.114131529	 0.5722392871	 0.114282
H	-0.0712146829	 1.9551129497	-1.008545377	 0.117407
H	-1.0092642563	 1.6676535052	 0.4743080481	 0.127583
H	-0.3917154423	-0.4924778725	-0.6356127852	 0.109858
H	 1.3165663831	-0.066401126	-0.5585517415	 0.090676
H	 0.9576246419	 0.0358937424	 1.9176428684	 0.226856
H	 2.1550514211	-2.1291775769	 4.0919144148	 0.305651
H	 0.5346160905	-5.1522980098	 1.0065814447	 0.131978
H	-0.6339378311	-2.9300646604	-0.0861307912	 0.107318
