15
gdb 47194	2.29536	1.75043	1.03171	5.2964	71.58	-0.2304	-0.0419	0.1885	1082.3243	0.115486	-454.015523	-454.007888	-454.006944	-454.047935	28.553	
O	-0.0254942083	-0.1206378832	 0.1477812082	-0.340005
C	-0.0033277198	 1.0853758888	 0.0275600923	 0.410842
C	-1.288184209	 1.8975752547	-0.1040821968	-0.288771
N	-1.3867711015	 3.0183250584	 0.8112712338	-0.285868
C	-0.6121515772	 4.1240410326	 0.6636388867	 0.008702
C	 0.5979742493	 4.1998240453	 0.0622954695	-0.207481
C	 1.5196662645	 3.1331702959	-0.3085712864	 0.384249
O	 2.6429514701	 3.3631893223	-0.7188325809	-0.362409
N	 1.1848561045	 1.7746246156	-0.0796330948	-0.373734
H	-1.3575889558	 2.2523156272	-1.1453867127	 0.135925
H	-2.1061587026	 1.2046163442	 0.0875138284	 0.147232
H	-2.2789833108	 3.1431755152	 1.2577525909	 0.263384
H	-1.0431171728	 5.0299640375	 1.0822983935	 0.127315
H	 1.0473126363	 5.1788824576	-0.0405863385	 0.117172
H	 1.993540073	 1.1705631279	-0.1734545132	 0.263448
