20
gdb 65666	3.30385	1.24289	1.05901	3.4776	81.68	-0.2568	0.0258	0.2826	1196.3791	0.170968	-403.09452	-403.08609	-403.085146	-403.127673	32.622	
C	-0.0838534125	 1.6542505554	 0.0893391109	-0.473074
C	 0.0087050409	 0.1356529623	 0.0317211921	 0.461504
O	-1.3326800757	-0.3733005864	-0.066550104	-0.243339
C	-1.9230357116	-0.3264897724	-1.2742250246	 0.115292
N	-3.133853769	-0.6649692569	-1.4018022096	-0.448298
C	 1.1070260152	-0.6070354251	-0.8074338878	-0.109115
C	 2.1240657077	-0.1894132938	 0.2948313207	-0.244041
C	 0.8550577308	-0.6625834845	 1.0645828732	-0.096563
C	 0.8206185273	-1.865615956	 0.0719474562	-0.230012
H	 0.8781273797	 2.140229407	 0.2522864423	 0.126329
H	-0.5042935381	 2.0478383353	-0.8421614358	 0.121051
H	-0.759027674	 1.9418387398	 0.9006665453	 0.139256
H	-1.2554462007	 0.0053238309	-2.0805493946	 0.085642
H	-3.4106299708	-0.5893170695	-2.3785646178	 0.225476
H	 1.2602117702	-0.5681952434	-1.8872064726	 0.073436
H	 2.9934591509	-0.842519278	 0.3910822658	 0.101688
H	 2.4179718861	 0.8574064354	 0.3636573314	 0.09682
H	 0.7013483636	-0.6857734184	 2.1438827313	 0.080043
H	-0.13282848	-2.3715206456	-0.0614328202	 0.124561
H	 1.64876511	-2.5719634061	 0.1598839977	 0.093347
