21
gdb 106767	2.07913	1.50838	1.05177	1.4372	79.11	-0.23	0.0691	0.2991	1231.0911	0.180289	-424.192585	-424.182801	-424.181857	-424.226971	36.633	
C	-0.1448874128	 1.4961164954	-0.0661131361	-0.416044
C	 0.0939597068	 0.0021998086	-0.0211706832	 0.118619
O	 1.2457088051	-0.4450233013	-0.8020364877	-0.349147
C	 1.7392786951	-1.1924911283	 0.3182974442	 0.42249
C	 2.3369217847	-2.5339653132	 0.0417787557	-0.487496
C	 2.0991367633	-0.251256843	 1.4279418989	-0.404263
C	 0.6450970284	-0.677589878	 1.2342381493	 0.16585
C	-0.183850195	-1.3075569257	 2.3091662797	-0.175737
O	-0.8091116382	-0.340308599	 3.1485036632	-0.41347
H	 0.7210352063	 2.0537251862	 0.3006742184	 0.117439
H	-0.3508739383	 1.8205819863	-1.0909975411	 0.1259
H	-1.0103389136	 1.7454137765	 0.5566425717	 0.128957
H	-0.798383513	-0.5330766781	-0.3752543526	 0.079149
H	 3.2472072654	-2.4261770332	-0.5589456831	 0.134667
H	 2.6067053226	-3.0377523713	 0.9743102766	 0.122258
H	 1.6390192616	-3.1688050746	-0.5126507646	 0.128726
H	 2.5817433909	-0.7077737087	 2.2883614147	 0.10935
H	 2.434780056	 0.7552484583	 1.1956177226	 0.114077
H	-1.0078029162	-1.8834588604	 1.8725722585	 0.110393
H	 0.4297172381	-2.0104237467	 2.89582972	 0.085667
H	-0.1117740671	 0.2271432402	 3.4943789249	 0.282614
