12
gdb 20710	7.50075	1.37457	1.17011	3.6563	59.7	-0.2956	-0.0863	0.2093	950.6413	0.083702	-410.842866	-410.835841	-410.834897	-410.874758	23.741	
C	-0.034742176	 1.4561837944	-0.0382729924	-0.47965
C	 0.0052703076	-0.0297982374	-0.0124334333	 0.399671
N	-0.0496317907	-0.8043735631	-1.0766192044	-0.274334
N	 0.0224872788	-2.0294720648	-0.5325122623	 0.061278
C	-0.0031735041	-3.2028817093	-1.3373485227	 0.210815
O	 0.0576184065	-4.3079356888	-0.8968699115	-0.223889
N	 0.1167166178	-2.0121322602	 0.8097523273	-0.078903
N	 0.1065278691	-0.766399289	 1.147515271	-0.226082
H	 0.8869165302	 1.8709106395	 0.3807591081	 0.15879
H	-0.1526773905	 1.8124306073	-1.0621767613	 0.153625
H	-0.8653847551	 1.8260169566	 0.5696302235	 0.1589
H	-0.0864368435	-2.9170383751	-2.3970239119	 0.13978
