17
gdb 41790	2.65893	2.03274	1.52714	1.5295	74.31	-0.2283	-0.0425	0.1858	901.7577	0.139348	-421.831229	-421.824619	-421.823675	-421.862072	26.822	
C	 0.0987848706	 1.5847809767	 0.1035992046	-0.126339
O	 1.4364203619	 1.8789467826	-0.2969137223	-0.247827
C	 2.1572286502	 0.6841926015	-0.0568940675	 0.12026
O	 1.2989102173	-0.3501663109	-0.4670404714	-0.23063
C	 0.0063476743	 0.021626706	 0.0214947439	-0.000406
C	-0.2783853493	-0.6439394889	 1.342139429	-0.089511
C	 0.5999802263	-0.6630033339	 2.3561448923	-0.069443
C	 1.9107320532	-0.0176531221	 2.39167991	-0.084907
C	 2.5831540345	 0.5768017934	 1.391977169	-0.077118
H	-0.0956678827	 1.935736386	 1.1228165744	 0.113964
H	-0.580139382	 2.0894175231	-0.5884621618	 0.117182
H	 3.0302446503	 0.6776541137	-0.7169191348	 0.096288
H	-0.7184974439	-0.2988770022	-0.7309191137	 0.090499
H	-1.2338665859	-1.1485891517	 1.4523923114	 0.097623
H	 0.3141091414	-1.1785122787	 3.2694143421	 0.095704
H	 2.3826239416	-0.0073500685	 3.3719774116	 0.095277
H	 3.5370850321	 1.047129614	 1.6165475933	 0.099384
