20
gdb 122616	3.82492	0.68921	0.62478	3.4732	78.28	-0.2402	0.0389	0.2792	1789.3735	0.1704	-440.301824	-440.29191	-440.290966	-440.338275	34.459	
O	 0.031497277	 1.4132124456	 0.2701758591	-0.419822
C	 0.0430557425	 0.0264794002	-0.0276423361	-0.068919
C	-1.3863539747	-0.4856321467	 0.0947706537	-0.177436
C	-1.4888915326	-1.9941631144	-0.1603698392	-0.182258
N	-2.8371322197	-2.4987214032	-0.0621484444	-0.066902
C	-3.7683913497	-2.6390024712	 1.0622263354	-0.173403
C	-4.7682604143	-3.2902198877	 0.0641961659	-0.370752
C	-3.6630123186	-3.0771468601	-0.9970893653	 0.404652
O	-3.5151572879	-3.3042739697	-2.1698824495	-0.373192
H	 0.9255338482	 1.7516017996	 0.1660715885	 0.287366
H	 0.4196008775	-0.1620161252	-1.0462892652	 0.09187
H	 0.6979661956	-0.5256333032	 0.6673168613	 0.084862
H	-1.7543105711	-0.2462788152	 1.0995019213	 0.109153
H	-2.0229489614	 0.0516554064	-0.6161984265	 0.120362
H	-1.1514617393	-2.2376975436	-1.17368102	 0.139628
H	-0.8388616228	-2.5385919222	 0.5403158813	 0.105216
H	-3.4048353895	-3.2990881216	 1.8582604822	 0.109403
H	-4.0926693427	-1.6891854985	 1.5000207436	 0.114711
H	-5.0117961506	-4.3365835563	 0.2558547122	 0.132445
H	-5.685228016	-2.7279161431	-0.1199457383	 0.133018
