20
gdb 68853	2.4046	1.84651	1.41551	1.6706	78.06	-0.2161	0.0753	0.2914	1005.5873	0.171215	-403.117921	-403.109746	-403.108802	-403.149864	33.191	
C	-0.0155894766	 1.5185128497	-0.0566098832	-0.470736
C	-0.0074715266	 0.016678012	 0.0342774674	 0.299398
C	 1.2695388721	-0.7653961593	-0.1824899463	-0.403018
C	 0.6056418522	-0.7562537052	 1.1810811733	 0.353548
O	 1.2067999932	-0.0743880653	 2.2400949796	-0.473233
C	-0.2935940863	-1.9537118619	 1.489306714	-0.321063
C	-1.4162179009	-1.8305596262	 0.4577678186	-0.004812
C	-2.2916737648	-0.6353088337	 0.5484357844	-0.254948
N	-1.202879586	-0.6722818939	-0.4439335076	-0.128714
H	 0.8729738766	 1.9306052346	 0.4273123698	 0.128056
H	-0.0335674163	 1.8449299731	-1.1012753359	 0.123819
H	-0.8949022816	 1.9379266777	 0.4436977091	 0.11715
H	 1.2331231004	-1.6696463573	-0.7825303426	 0.111537
H	 2.1781434786	-0.1803229118	-0.2811894027	 0.1103
H	 2.0207315586	-0.5343340253	 2.4727336031	 0.282945
H	 0.2328902175	-2.9102714381	 1.3893973424	 0.096557
H	-0.6625908233	-1.8844403142	 2.5179307233	 0.111135
H	-1.7891230519	-2.733182206	-0.0160981109	 0.089862
H	-3.2938329896	-0.6537739101	 0.1310687029	 0.114171
H	-2.1676060854	 0.006601361	 1.4184993813	 0.118046
