16
gdb 48642	2.61955	1.58265	1.30675	4.1982	70.28	-0.2378	-0.0437	0.1941	1001.7498	0.124752	-437.872121	-437.864509	-437.863565	-437.90449	28.662	
O	-0.7057613369	 0.8320723936	 0.5850176087	-0.251156
C	 0.1973976666	 0.8885649009	-0.2132709625	 0.052668
C	 1.3607561954	 1.8087355321	-0.0815806821	 0.117026
C	 1.7023812832	 2.6366157357	 1.1932594613	-0.287147
C	 2.5333514522	 3.5185175503	 0.1952174587	-0.165994
C	 3.5517448201	 2.4895502444	-0.3434922891	-0.176059
N	 2.6570998107	 1.3028395109	-0.5833792989	-0.348904
C	 1.3710239442	 3.2353390902	-0.766569326	 0.43833
O	 0.6836731888	 3.8359920141	-1.5257540741	-0.298066
H	 0.2119626764	 0.2651203416	-1.1326403832	 0.09453
H	 0.8418631805	 3.1475830772	 1.6262029088	 0.1418
H	 2.2757178489	 2.1087856848	 1.9593453575	 0.111302
H	 2.8775926525	 4.5259684188	 0.4172079928	 0.101251
H	 4.0264768894	 2.8173886537	-1.2734096742	 0.127182
H	 4.3353822512	 2.2703528537	 0.3882625228	 0.113215
H	 2.9604809268	 0.5290712479	-0.0002390005	 0.230022
