21
gdb 38795	2.97048	2.06477	1.7122	0.0115	84.15	-0.2506	0.0873	0.338	897.0725	0.187625	-349.914624	-349.908593	-349.907649	-349.944508	27.353	
C	-0.0401388043	 1.5472196237	 0.0896437336	-0.234948
C	 1.5114266144	 1.4791740394	-0.0248547939	-0.031105
C	 2.0866909864	 1.3712614236	 1.3961894291	-0.212237
C	 1.8532479962	-0.0639722787	 1.8937293407	-0.031104
C	 2.8809411705	-0.9918430133	 1.1809912206	-0.234948
C	 1.822528374	-1.1973256358	 0.0925766871	-0.016491
C	 1.3610695205	 0.0544639076	-0.7209566401	-0.049079
C	-0.0376059904	 0.0196962853	-0.0277032431	-0.016491
C	 0.689596419	-0.7959318896	 1.0892969269	-0.04908
H	-0.453844647	 2.0194324293	 0.9873752245	 0.083722
H	-0.5019861353	 1.9983599812	-0.7944286366	 0.091571
H	 1.9969791767	 2.2572130699	-0.6172935419	 0.060246
H	 3.1604868556	 1.5899877822	 1.4237075475	 0.088667
H	 1.5988286599	 2.114219955	 2.0377802718	 0.088667
H	 1.8022822669	-0.1287307051	 2.9824435916	 0.060246
H	 3.8494787381	-0.5534089032	 0.9168511663	 0.083722
H	 3.0502829254	-1.9230739079	 1.7310333351	 0.091571
H	 1.7945905933	-2.1216530638	-0.4897630652	 0.055836
H	 1.4854488848	 0.0655975348	-1.8048614517	 0.057699
H	-0.8940530894	-0.5075135817	-0.4552888128	 0.055836
H	 0.1269851247	-1.5263296927	 1.6727618104	 0.057699
