20
gdb 63015	2.24111	1.76335	1.38884	3.443	78.26	-0.2359	0.0294	0.2652	1041.3614	0.171514	-403.190159	-403.181572	-403.180628	-403.222772	33.835	
C	-0.1361174383	 1.5857077273	 0.0247626349	-0.415464
C	 0.0001906469	 0.0599573555	-0.0416947628	 0.156537
C	-1.3920114389	-0.6006493192	-0.0184811961	-0.427806
C	 0.818409918	-0.4643460414	-1.2206131532	-0.060016
C	 2.2872459893	-0.1156370991	-1.3477254462	-0.326046
C	 1.867571082	-1.4006170509	-0.674051969	-0.009462
N	 1.7242988286	-1.357334074	 0.7523269453	-0.311637
C	 0.7902802291	-0.4490609228	 1.1909981002	 0.374437
O	 0.6191003961	-0.1075678883	 2.3408196904	-0.388633
H	 0.8344954246	 2.0823094504	-0.0637391471	 0.113332
H	-0.7783899853	 1.9510109671	-0.7830200458	 0.107908
H	-0.5756520928	 1.8752488991	 0.9831482875	 0.138455
H	-1.9939239855	-0.2530484764	-0.8651129254	 0.112045
H	-1.316820889	-1.6910643981	-0.0781934815	 0.118928
H	-1.9161502345	-0.3447381333	 0.9063996083	 0.136395
H	 0.2866883256	-0.7242502476	-2.1288047122	 0.091282
H	 2.7178098106	-0.179328018	-2.3415602219	 0.117024
H	 2.7074919351	 0.6644913317	-0.7208614299	 0.120148
H	 2.082093374	-2.3683434881	-1.112462725	 0.102983
H	 2.4522437744	-1.656915974	 1.3834644294	 0.249589
