14
gdb 133144	2.3322	1.85269	1.03914	3.7341	68.35	-0.2402	-0.0564	0.1838	1057.9314	0.10125	-478.012996	-478.005226	-478.004282	-478.045826	28.202	
C	-0.0042381922	 1.5311039498	 0.0040475946	-0.505438
C	-0.0083681242	 0.0277975917	 0.0108345996	 0.135592
C	-1.1397384823	-0.7064632454	-0.1404504797	 0.114168
F	-2.3245302579	-0.1364823215	-0.3054425503	-0.046212
C	-1.142888433	-2.1664205777	-0.1337361284	 0.33827
O	-2.1102774652	-2.8914263615	-0.262620953	-0.380514
N	 0.146284555	-2.67173699	 0.0452239269	-0.274514
N	 1.2987182967	-2.0035745838	 0.1997140437	-0.198222
C	 1.2126694807	-0.7062169012	 0.1815829692	-0.040863
H	 0.634264199	 1.9122634329	-0.8001343219	 0.147685
H	-1.0102441995	 1.9269536453	-0.1358391349	 0.15295
H	 0.3947147143	 1.9207880158	 0.9467360751	 0.147692
H	 0.2260757139	-3.6802391104	 0.0610822019	 0.279432
H	 2.1493212947	-0.1732905941	 0.3071922871	 0.129975
