17
gdb 51535	5.91015	0.69903	0.66754	2.1471	70.07	-0.2518	-0.0409	0.2109	1613.0164	0.132661	-458.955911	-458.946607	-458.945663	-458.992223	31.411	
O	-0.1729662662	 0.6063019557	 1.2337488494	-0.235046
C	 0.2082987459	 0.9396841193	 0.1412941916	 0.154033
C	 1.4922115679	 1.7033393213	-0.1196646558	-0.294605
C	 1.2512370474	 2.9683252237	-0.9369703823	 0.139631
C	 2.4840322336	 3.677661184	-1.5409886075	-0.319664
C	 1.8079269588	 3.388858507	-2.8922999534	 0.057136
O	 0.7259931408	 2.6667284104	-2.2622305556	-0.315275
C	 1.2717647713	 4.5880582703	-3.6530317562	 0.132493
O	 1.801208438	 5.6681409336	-3.671531353	-0.230963
H	-0.375822546	 0.7012503709	-0.7735983698	 0.09907
H	 1.9593772327	 1.9485880787	 0.8392935399	 0.126822
H	 2.1686457992	 1.0479909314	-0.6857343399	 0.121846
H	 0.5672262913	 3.6402615264	-0.402890206	 0.100139
H	 2.6019119397	 4.7368725664	-1.3125135661	 0.139441
H	 3.4286458803	 3.1573318011	-1.3785294008	 0.119102
H	 2.3664291451	 2.7531555115	-3.5953889943	 0.109213
H	 0.3219901603	 4.3799085881	-4.1942560799	 0.09663
