19
gdb 108352	2.7267	1.50571	1.249	1.5964	73.84	-0.2533	0.0572	0.3104	1063.0994	0.159081	-422.95634	-422.948326	-422.947382	-422.988858	31.369	
O	 0.0966205975	 1.4024324149	-0.1448924933	-0.419544
C	 0.0509569717	-0.0127283745	-0.0050981934	-0.171463
C	-1.3633295925	-0.5400910603	 0.0139880269	 0.31127
C	-2.2347088163	-0.3707196366	 1.299802697	-0.293179
C	-2.5356901541	-1.9026921346	 1.2985518887	-0.22047
C	-1.6803368964	-2.0765935695	 0.0097159	-0.131872
C	-2.4052893507	-1.8757578729	-1.3428483106	 0.016598
O	-3.4556264509	-0.9203123094	-1.1499699408	-0.241955
C	-2.1239369837	-0.4280180141	-1.3339076614	-0.029478
H	-0.3675037532	 1.7840572575	 0.6076681467	 0.286345
H	 0.5924410156	-0.4109396793	-0.8715891857	 0.107663
H	 0.5901637557	-0.3452863692	 0.8966080387	 0.087508
H	-1.6577954523	-0.0385513488	 2.1688575411	 0.089359
H	-3.1092325456	 0.2715596715	 1.1853635811	 0.113307
H	-2.1220773315	-2.4315358179	 2.1600239166	 0.098456
H	-3.5885776847	-2.1670162247	 1.1906879341	 0.114298
H	-0.878424672	-2.8161111982	 0.0019239377	 0.072411
H	-2.5313833946	-2.5776068442	-2.1599308554	 0.102735
H	-1.966370662	 0.2885738402	-2.1323043978	 0.10801
