23
gdb 81775	2.10113	1.65317	1.26741	1.0877	85.44	-0.2363	0.071	0.3074	1155.3984	0.203454	-388.274749	-388.264734	-388.26379	-388.308399	39.141	
C	-0.4568725416	 1.5451475844	 0.354617209	-0.417328
C	-0.1086887781	 0.0693974328	 0.1933649972	-0.023737
C	 0.3213174522	-0.4492214931	-1.1861983919	-0.118558
C	 1.6644152773	 0.1103514601	-1.5691191067	-0.347774
C	 1.6071462802	-1.0442987598	-0.6054691009	 0.353059
C	 2.273595693	-2.366399832	-0.8612259033	-0.498796
C	 1.2228069877	-0.538815169	 0.7998239718	 0.323446
C	 2.1927235984	 0.3769207751	 1.5373694556	-0.458228
O	 0.9453220543	-1.6884715348	 1.5942025567	-0.479818
H	 0.3187992604	 2.2022094905	-0.0507027109	 0.11304
H	-1.3895086375	 1.7781550087	-0.1712130305	 0.115446
H	-0.5994750031	 1.810933575	 1.4083494026	 0.107104
H	-0.9254031701	-0.5470398657	 0.5812735209	 0.073111
H	-0.3462915799	-0.8767295731	-1.9261238894	 0.077875
H	 2.0081682677	-0.1537763011	-2.5648401024	 0.108188
H	 1.9700565041	 1.1065992321	-1.2599897196	 0.099476
H	 2.2151999274	-2.6297215846	-1.9226136257	 0.10893
H	 3.3353650725	-2.3403732075	-0.5870159054	 0.113379
H	 1.7980547802	-3.1608031664	-0.2805425297	 0.136181
H	 2.4732579959	 1.2504766646	 0.9440353723	 0.116714
H	 1.7450734786	 0.7455716401	 2.4694129892	 0.1026
H	 3.1027685764	-0.1735961978	 1.7949967568	 0.123686
H	 0.6119593341	-1.3841695187	 2.4451379042	 0.272001
