21
gdb 110312	1.93592	1.45904	1.00707	0.7749	78.77	-0.2237	0.0655	0.2892	1265.4524	0.181166	-424.183755	-424.174022	-424.173078	-424.218075	36.689	
C	 0.7586728644	 0.6128208343	-1.7182229761	-0.41521
C	 1.2389884374	-0.7058848283	-1.1207421569	 0.054087
C	 2.7420293528	-1.1389199077	-1.244368038	-0.318826
C	 2.7742918374	-1.4062989523	 0.2596498887	 0.397906
O	 3.4270209117	-2.5404698961	 0.7170614671	-0.465327
C	 2.4910785343	-0.1870592058	 1.0746857869	-0.103868
C	 3.0401490032	 1.2063963695	 0.8442583514	-0.105092
O	 4.2978339908	 1.3750628241	 1.4904245942	-0.420454
C	 1.3214275891	-0.9036920122	 0.3994858112	-0.198343
H	 1.3379976298	 1.4701057844	-1.3657918465	 0.119673
H	 0.8271747653	 0.5919158891	-2.8118150686	 0.113876
H	-0.2897583415	 0.7946222352	-1.4570067509	 0.115696
H	 0.62046102	-1.5118138628	-1.5303959389	 0.08118
H	 2.8673170002	-2.058493896	-1.8193188223	 0.115407
H	 3.4495150698	-0.3940693769	-1.6248310595	 0.091645
H	 3.5766962179	-2.4520466686	 1.6633281886	 0.28551
H	 2.48771798	-0.4203287946	 2.1421826522	 0.083399
H	 3.1185448401	 1.4368057417	-0.2258140653	 0.091834
H	 2.3773157835	 1.9561414687	 1.2898624939	 0.111122
H	 4.9074941816	 0.7410218526	 1.0984805652	 0.282405
H	 0.5086720821	-1.2784940585	 1.0123952634	 0.083378
