11
gdb 503	12.11679	1.70392	1.61189	3.1684	45.39	-0.2579	-0.0377	0.2203	701.3499	0.083436	-322.45625	-322.449687	-322.448743	-322.487435	21.048	
O	-0.3310600833	 0.2565364955	 0.3282110351	-0.226709
C	 0.1729270723	 1.328107695	 0.1246452537	 0.153035
C	 1.4696694372	 1.526433031	-0.6478181412	-0.240689
N	 1.4611302671	 2.7397367537	-1.4381540284	-0.283816
C	 2.2573586061	 3.8085739384	-1.1436279442	 0.159029
O	 3.0212259756	 3.8636007432	-0.2057624022	-0.309495
H	-0.2772090394	 2.2763891101	 0.4976762456	 0.088373
H	 2.2835158276	 1.64117305	 0.0792369337	 0.177773
H	 1.6672461792	 0.6378356609	-1.2551018968	 0.137971
H	 0.8759389885	 2.78963169	-2.2568853508	 0.257608
H	 2.124893839	 4.6327080821	-1.8702922245	 0.086919
