20
gdb 79249	2.34305	1.66899	1.41924	2.266	78.79	-0.2285	0.067	0.2955	1052.3134	0.169926	-403.094309	-403.08553	-403.084586	-403.127027	34.202	
C	-0.0783641912	 1.5681798371	-0.1206088547	-0.431175
C	 0.0839553427	 0.0686870173	 0.0488706039	 0.066218
N	 1.1343238542	-0.6201227384	-0.7812362362	-0.199094
C	 2.3843598376	-0.6181326519	 0.0769146418	-0.089792
C	 2.106344162	 0.0765398801	 1.4081868959	-0.324356
C	 0.6999282381	-0.5643879942	 1.3045811664	 0.307353
O	-0.1189456563	-0.758389101	 2.4017339179	-0.475989
C	 1.3312433798	-1.6376751318	 0.2870374985	 0.272125
C	 1.2309154384	-3.1143206072	 0.1150867563	-0.532652
H	 0.8615992588	 2.1075936021	 0.0210482615	 0.119013
H	-0.4395062377	 1.792653826	-1.1292304128	 0.125541
H	-0.8101463487	 1.9554092853	 0.5963384763	 0.123773
H	-0.8621279584	-0.4366704063	-0.1750445011	 0.083591
H	 3.3240890606	-0.7004110201	-0.4535776418	 0.095236
H	 2.6941093366	-0.3919131782	 2.2055346624	 0.093402
H	 2.1820700424	 1.1649059358	 1.4897531416	 0.099462
H	 0.4203838007	-1.0265639605	 3.1529045718	 0.28385
H	 0.1855313559	-3.4342648064	 0.043089593	 0.130158
H	 1.7433455173	-3.4234295131	-0.8013457675	 0.135709
H	 1.6864906671	-3.6463228746	 0.9577907569	 0.117627
