19
gdb 69854	2.324	2.07338	1.48951	0.5608	73.49	-0.2331	0.0762	0.3093	962.6532	0.15842	-422.979404	-422.971531	-422.970587	-423.011113	31.82	
C	-0.0702406754	 1.4728143189	 0.0653389794	-0.504352
C	 0.0467375755	-0.0182799492	-0.0134166747	 0.399263
O	-0.5508099763	-0.8002758864	 1.0417543374	-0.295412
C	 0.8683307839	-0.8986575004	 0.8138563017	-0.039743
C	 1.2836456764	-1.9400974786	-0.2538984075	 0.03165
C	-0.0368324737	-2.2720750765	-0.9734828602	-0.267098
C	 0.1622075164	-0.78870149	-1.3763929559	 0.327968
C	-0.3720811889	-0.1721188819	-2.6377414132	-0.514864
O	 1.6217569124	-1.0512170109	-1.3773961366	-0.333884
H	 0.7067909707	 1.9496968641	-0.5403242879	 0.136977
H	-1.0442935411	 1.8156613887	-0.3006516893	 0.127299
H	 0.0397792424	 1.8058761174	 1.1002473044	 0.133147
H	 1.5166370189	-0.5830316774	 1.624158124	 0.103839
H	 2.0579975732	-2.6680848452	-0.0172760201	 0.0797
H	 0.1384112005	-2.9267182839	-1.8271963625	 0.104529
H	-0.9107463738	-2.5609124924	-0.393606357	 0.119484
H	-1.4594424327	-0.0597044184	-2.573244193	 0.129304
H	 0.0634847929	 0.81745391	-2.8080035042	 0.130869
H	-0.1387235012	-0.8010950479	-3.5005640948	 0.131324
