16
gdb 125628	3.21537	1.37199	0.9686	5.9187	77.21	-0.2155	-0.0239	0.1916	1167.1628	0.125559	-434.107592	-434.099193	-434.098249	-434.140315	31.749	
C	-0.0241810195	 1.460671165	-0.0422858902	-0.455035
C	-0.0223415873	-0.0357858381	-0.0217053752	 0.221175
N	-0.0763365224	-0.6647789674	-1.1543114715	-0.250279
N	-0.0661248123	-2.0187777866	-1.1153834427	-0.291759
C	-0.0135080827	-2.7704609279	 0.0195479963	 0.455513
N	-0.0824162699	-4.1442075036	-0.172982657	-0.587123
C	 0.048293181	-2.1459216524	 1.233878148	-0.337099
C	 0.0377352064	-0.7082201213	 1.3088349394	 0.336894
O	 0.0878189313	-0.0476744104	 2.3438978828	-0.399012
H	 0.8762028403	 1.844238033	 0.4484799173	 0.144318
H	-0.0773651363	 1.8321706933	-1.0665589172	 0.124396
H	-0.8693038345	 1.8423299	 0.539545937	 0.145257
H	-0.2203494174	-2.4530537489	-2.010781973	 0.269693
H	 0.4622468558	-4.4961073421	-0.9496909496	 0.256101
H	 0.1033041472	-4.6723522233	 0.6676517278	 0.26654
H	 0.1174358402	-2.7220859395	 2.1486281677	 0.100422
