16
gdb 28519	3.15733	1.3207	0.9322	2.399	77.17	-0.1767	0.0128	0.1896	1183.2075	0.125338	-437.95069	-437.942429	-437.941485	-437.982841	32.574	
N	-0.0210346403	 1.4441295694	-0.0838819636	-0.597877
C	-0.0296502758	 0.0398359026	-0.0385470897	 0.20571
C	-1.2064698527	-0.7054657553	 0.0335809149	-0.166259
C	-1.2006704195	-2.0978015004	 0.0173058787	-0.205169
C	 0.0074061738	-2.7802764778	-0.0767151563	 0.394227
O	-0.0248047476	-4.149200481	-0.0926939199	-0.452311
C	 1.2006383834	-2.0579671815	-0.1487482176	-0.413485
C	 1.1799859319	-0.6671258786	-0.127663741	 0.368976
O	 2.3209294588	 0.0924479617	-0.1842243635	-0.463508
H	 0.8696640337	 1.8341537449	 0.1929566099	 0.252711
H	-0.7755039668	 1.8661577997	 0.4398130237	 0.240256
H	-2.1534834817	-0.1779800048	 0.1014083448	 0.084698
H	-2.1238197848	-2.6614449656	 0.0754882912	 0.097367
H	 0.8742779073	-4.483670728	-0.1640531036	 0.291892
H	 2.1540827304	-2.5789472415	-0.2174169338	 0.066633
H	 3.08793696	-0.4871244438	-0.2110460542	 0.29614
