11
gdb 132895	3.07757	1.36439	0.9453	3.4281	57.98	-0.2427	-0.0734	0.1693	1063.6106	0.064134	-541.788499	-541.781686	-541.780742	-541.820062	25.418	
F	 0.0053570037	-0.0029265917	 0.0035070584	-0.066104
C	-0.0230169731	 1.3294075794	 0.0105532871	 0.193653
C	-1.1895559413	 1.99863791	 0.0294974673	-0.037483
O	-1.2203817351	 3.3500409434	 0.0366736685	-0.213047
C	-0.0810920025	 4.1487152232	 0.025440538	 0.366818
O	-0.1947385953	 5.3414228469	 0.0329322682	-0.329584
C	 1.1693565203	 3.3906909515	 0.0049293693	 0.126487
F	 2.2692158753	 4.124546099	-0.0060970485	-0.040381
C	 1.2130312841	 2.041898508	-0.0024051826	-0.314545
H	-2.1693464488	 1.5422943145	 0.0403124066	 0.160677
H	 2.1559648726	 1.5082059558	-0.0176812323	 0.153508
