18
gdb 55539	2.99185	1.22261	0.90397	1.2371	76.59	-0.2361	-0.0026	0.2334	1287.5483	0.147196	-435.279781	-435.270376	-435.269431	-435.315017	33.315	
C	-0.1911968957	 1.4513906139	 0.1278823165	-0.495016
C	-1.0748776882	 0.2223318583	-0.0375965188	 0.413478
O	-2.1623190913	 0.2642990883	-0.5698747888	-0.340678
N	-0.4929600741	-0.9214709887	 0.481352666	-0.349152
C	-0.9792520247	-2.2279627703	 0.6477936763	 0.394529
N	-0.207678529	-3.0344158298	 1.2700348155	-0.543984
N	-2.273392545	-2.4686173814	 0.2020808686	-0.078949
C	-2.6609233684	-2.4734548669	-1.1963757562	-0.20014
C	-2.6368863469	-3.7393107111	-0.4003359094	-0.247526
H	-0.6622225799	 2.2883911454	-0.3857008356	 0.153229
H	-0.0738644774	 1.6996543333	 1.188148357	 0.147601
H	 0.8076788382	 1.2824803786	-0.2873625895	 0.139393
H	 0.4166464175	-0.8262694483	 0.9094085731	 0.261559
H	-0.6391509517	-3.9522964264	 1.3525075878	 0.219942
H	-3.5935829759	-1.9683402155	-1.4190572661	 0.142654
H	-1.8783435044	-2.3384092053	-1.9379416695	 0.129672
H	-1.8371957629	-4.4479922214	-0.6071087283	 0.123819
H	-3.5617985903	-4.1798800727	-0.0403540085	 0.129568
