19
gdb 93376	3.08277	1.41175	1.09762	3.0358	76.07	-0.2312	-0.0149	0.2162	1128.0803	0.159732	-423.044184	-423.036072	-423.035128	-423.07676	31.57	
C	-0.2411314924	 1.4794188009	 0.0354616232	-0.397476
C	 0.0482062561	-0.0154625658	 0.0376971502	 0.102489
O	 0.7689809577	-0.3042102662	-1.1573532169	-0.25872
C	 0.96379777	-1.686640677	-1.3772966963	-0.185714
C	 1.583915737	-2.4531613507	-0.2052739635	 0.364324
O	 1.8971404139	-3.6158247813	-0.3366900362	-0.325856
C	 1.6800692041	-1.7296058278	 1.0883002399	-0.146461
C	 2.3445446212	-0.3539926007	 1.1671676205	-0.293887
C	 0.8583743486	-0.4577214533	 1.2476333281	-0.032531
H	 0.6929366675	 2.048384663	 0.0439315512	 0.12863
H	-0.8064076979	 1.7530281157	-0.8590890396	 0.126829
H	-0.8257682065	 1.757846078	 0.9172889401	 0.116695
H	-0.9063790108	-0.5708818519	 0.025143221	 0.07053
H	 0.0102568506	-2.1906916226	-1.6123452158	 0.121104
H	 1.6102328022	-1.7873233762	-2.253285157	 0.140062
H	 1.8173251354	-2.3835171678	 1.9420442446	 0.10802
H	 2.9077960548	-0.1577620664	 2.0718106707	 0.124007
H	 2.772406591	 0.0519615756	 0.258880141	 0.140882
H	 0.3784501276	-0.3075468052	 2.2099954648	 0.097071
