17
gdb 116834	11.05162	0.3733	0.37166	1.4185	96.05	-0.238	-0.0176	0.2204	2869.6276	0.132556	-421.747985	-421.737201	-421.736257	-421.786211	35.39	
C	 0.2786003775	 1.3999014064	 0.1170818779	-0.218175
O	 0.2927143219	-0.0093008745	 0.1508547364	-0.228758
C	 0.3695490924	-0.5688084191	-1.1449378338	-0.229194
C	 0.3860017872	-2.0205030805	-1.069666438	 0.158086
C	 0.40363909	-3.2301537053	-1.0472483991	-0.053719
C	 0.4232941122	-4.5883121604	-1.0143453355	-0.221819
C	 0.4449174231	-5.7978354243	-0.9864310235	 0.314072
C	 0.4279115547	-7.2515460581	-0.9484531916	-0.245796
O	 1.7564348273	-7.7524235271	-1.0135060567	-0.407116
H	 1.1925050966	 1.8077043811	-0.3434340879	 0.106906
H	-0.5890784203	 1.7876465392	-0.4401515871	 0.106275
H	 0.2185883743	 1.7452817325	 1.151208174	 0.134166
H	-0.4877283549	-0.2405725115	-1.759870624	 0.120901
H	 1.2784849593	-0.2175107699	-1.6656417425	 0.122394
H	-0.078898829	-7.5743036695	-0.0237239021	 0.125409
H	-0.1823924241	-7.6209321441	-1.7895128379	 0.124047
H	 1.7025002618	-8.713120125	-0.9785111687	 0.292323
