18
gdb 73228	2.19519	1.95357	1.40441	4.8235	71.41	-0.2295	0.0185	0.248	989.1956	0.148931	-439.115048	-439.106995	-439.106051	-439.147593	30.545	
C	-0.2336512028	 1.462009941	 0.0089877567	-0.460196
C	 0.0235747797	-0.023931182	 0.0308097328	 0.326338
O	-1.171357359	-0.7963790093	 0.3325377235	-0.315775
C	-0.4803872369	-1.5432319448	 1.3553481999	-0.083214
C	 0.8148964043	-0.7293292342	 1.1605798624	-0.133556
C	 1.9956552015	-1.4546400179	 0.4940972004	-0.189078
N	 1.6528336438	-1.4164109959	-0.9187905345	-0.319531
C	 0.6585154281	-0.5453996543	-1.2754925083	 0.384609
O	 0.3278458933	-0.2547222061	-2.4034835673	-0.382264
H	 0.7050046318	 2.0176441207	-0.090177608	 0.119813
H	-0.8614839689	 1.7034893632	-0.8533246133	 0.154655
H	-0.74027512	 1.7780307627	 0.9245707534	 0.118498
H	-0.9687134171	-1.4387965161	 2.3308358616	 0.10771
H	-0.3999115975	-2.6095494382	 1.1071035479	 0.104503
H	 1.1164603676	-0.1226486584	 2.0137235315	 0.088796
H	 2.9450569721	-0.9386831254	 0.6920653081	 0.111214
H	 2.0980125459	-2.4854826783	 0.8538388619	 0.115031
H	 2.2267920441	-1.8392309467	-1.6317515288	 0.252447
