16
gdb 4757	6.70186	1.29523	1.10038	3.5713	70.61	-0.1828	0.0367	0.2195	1078.4152	0.12966	-379.946711	-379.938127	-379.937183	-379.980323	29.809	
C	-0.0118329274	 1.404037875	-0.0056328341	-0.315716
N	 0.0323606611	-0.0479554218	-0.0323112866	-0.388841
C	 0.5793151745	-0.6377906484	 0.9407793363	 0.516543
N	 0.7262291507	-2.001191838	 1.1103271442	-0.423317
C	 1.4069365238	-2.2696242407	 2.2998702888	 0.309742
C	 1.7254681718	-3.6502450573	 2.7503729961	-0.5008
C	 1.65334411	-1.0768346375	 2.8568288463	-0.13946
O	 1.1564883671	-0.058178927	 2.0563387873	-0.223383
H	 0.9764347331	 1.8583186436	 0.155301382	 0.109571
H	-0.3979355493	 1.7650919343	-0.9626658936	 0.112364
H	-0.6732303023	 1.785778312	 0.7858031904	 0.110119
H	 0.4301298405	-2.6622614902	 0.4156091582	 0.268563
H	 2.3610012852	-4.1729067948	 2.0255330902	 0.13831
H	 2.2543520975	-3.6226269965	 3.7053491663	 0.144011
H	 0.8163703487	-4.2489395131	 2.8820233326	 0.139405
H	 2.1375663149	-0.7841594695	 3.7713761257	 0.14289
