19
gdb 64181	2.19517	1.50853	1.36074	3.8339	75.83	-0.2514	0.0224	0.2738	1080.9088	0.15744	-419.203441	-419.193804	-419.19286	-419.237219	36.259	
C	-0.1678604192	 1.5280691981	-0.0413625107	-0.464154
C	-0.006477477	 0.0157840115	-0.0774011966	 0.382519
O	-1.1896023642	-0.6308832135	-0.4601140599	-0.45383
C	 1.2028531972	-0.4803193072	-0.8997248276	-0.208215
N	 1.9924363677	-0.5764196121	 0.3519006325	-0.337583
C	 0.7647159531	-0.5896686022	 1.1879527806	 0.060268
C	 0.8710359538	 0.2017848355	 2.490771178	-0.444273
C	 0.2824181635	-1.9501177478	 1.4769639042	 0.274406
N	-0.0479209738	-3.0286325335	 1.7325807461	-0.346847
H	 0.7824960095	 2.0273189565	 0.1614884858	 0.14219
H	-0.5388512138	 1.8689121632	-1.0126196279	 0.133488
H	-0.8858336006	 1.8353776786	 0.7282431395	 0.115731
H	-1.9252417427	-0.2709655045	 0.0479603088	 0.28393
H	 0.9695128285	-1.4408183051	-1.3736104423	 0.124743
H	 1.6212778147	 0.2059866381	-1.6420755768	 0.10748
H	 2.5810698381	-1.3979871162	 0.4394852131	 0.234255
H	 1.2610664387	 1.2007787357	 2.2909280868	 0.130743
H	-0.1029921492	 0.2828508862	 2.9836512789	 0.126977
H	 1.5545296156	-0.3000885012	 3.1820620273	 0.138173
