20
gdb 68357	2.77214	1.72255	1.29719	2.5344	79.2	-0.2393	0.0292	0.2685	1030.5541	0.172818	-403.148182	-403.14024	-403.139295	-403.180537	31.314	
C	-0.0126634379	 1.572924667	 0.0145224293	-0.464877
C	 0.0538054956	 0.0510452092	-0.0809402094	 0.269632
C	 1.2302739152	-0.5616576297	-0.8957282406	-0.265874
C	 1.3444641461	-1.6684796481	 0.1937635821	 0.018644
C	 0.5816721589	-0.7193494657	 1.1645371327	-0.265885
N	 0.6213777907	-2.8777937864	-0.1264540244	-0.262386
C	-0.582531679	-2.8672352352	-0.5046261082	 0.129695
O	-1.4933625482	-1.8831086563	-0.715961674	-0.251462
C	-1.3020641726	-0.4678851012	-0.5474770846	-0.084673
H	 0.9486883151	 1.9748986019	 0.3482878719	 0.118916
H	-0.2449329292	 2.0282598332	-0.9551703807	 0.118253
H	-0.776163091	 1.8994191237	 0.7301010937	 0.118244
H	 1.0316630762	-0.89888719	-1.916574854	 0.103803
H	 2.1015301254	 0.0999506155	-0.8991362442	 0.096519
H	 2.3577133253	-1.945164393	 0.4915730721	 0.074089
H	 1.2658283637	-0.1032369256	 1.7554329792	 0.096519
H	-0.1483036532	-1.1857801318	 1.8315271412	 0.103806
H	-1.0770748802	-3.8111812074	-0.732563419	 0.120544
H	-2.0751404123	-0.1522220572	 0.1642538115	 0.113248
H	-1.5446690286	-0.0233224029	-1.5207999945	 0.113244
