21
gdb 53615	4.63418	0.71423	0.64293	0.1803	93.77	-0.2321	0.0286	0.2608	1793.4384	0.182324	-349.949822	-349.940057	-349.939113	-349.98638	34.847	
C	 0.0644724067	 1.5290139003	-0.0161521409	-0.497481
C	 0.0604509771	 0.0727148207	 0.0020458139	 0.093977
C	 0.0704461358	-1.1317413926	 0.0166635072	 0.036529
C	 0.0464346234	-2.5906567449	 0.0302126078	-0.36719
C	-1.3823723425	-3.1831486648	 0.0206786719	-0.005622
C	-1.3956301869	-4.7352320241	-0.0154809491	-0.230772
C	-2.5874313577	-5.1691988238	 0.8756858786	-0.255651
C	-2.8389553299	-3.9425542263	 1.7215173039	-0.070386
C	-2.1951114819	-2.8732732736	 1.2582402641	-0.056683
H	 0.6930318351	 1.9166663099	-0.8257652501	 0.14545
H	-0.9450205512	 1.9291971427	-0.1630769678	 0.145279
H	 0.4478946676	 1.9397599076	 0.9246331372	 0.145272
H	 0.5956124552	-2.9757269243	-0.8395584426	 0.121313
H	 0.5769911805	-2.9643869081	 0.9164683865	 0.121654
H	-1.8939324589	-2.7722454777	-0.8619302015	 0.084418
H	-1.4556217117	-5.1319649026	-1.0323174825	 0.096377
H	-0.4621147172	-5.1086638259	 0.4217096929	 0.100151
H	-3.4761856666	-5.4148153832	 0.27695832	 0.104649
H	-2.3648430448	-6.0630749393	 1.4696036635	 0.100985
H	-3.5041443344	-3.9503209231	 2.5784132406	 0.088735
H	-2.2455793777	-1.8724617769	 1.6719345863	 0.098998
