19
gdb 52877	2.91913	0.97835	0.8097	1.8119	85.46	-0.2314	0.0504	0.2817	1473.5639	0.15717	-385.831536	-385.821832	-385.820888	-385.868365	34.44	
C	-0.3461965182	 1.6058554016	-0.1031580292	-0.502024
C	-0.1747986681	 0.1607052804	-0.0600965325	 0.117305
C	-0.0408665478	-1.0363444579	-0.0153232655	-0.031122
C	 0.1515191864	-2.4625248044	 0.0033823231	 0.169308
C	-0.123195669	-3.2324332319	 1.2843073595	-0.307048
C	-1.0715675461	-3.3629196489	 0.1284260272	-0.298257
C	 1.2705059882	-2.9384564293	-0.8898052535	-0.026637
C	 2.6188090467	-3.214071224	-0.3825719825	-0.169843
O	 1.7154315681	-4.280075194	-0.7055826575	-0.236426
H	 0.619971957	 2.1201996134	-0.1551932517	 0.147397
H	-0.9342595732	 1.9165004296	-0.9741524937	 0.146739
H	-0.8639236996	 1.9694786213	 0.7915418676	 0.148324
H	 0.5271115481	-4.0754251336	 1.4869547201	 0.134313
H	-0.4328090286	-2.6568996607	 2.1479756762	 0.120601
H	-2.0385840011	-2.8787115036	 0.189404233	 0.122743
H	-1.0490169543	-4.2896513408	-0.4341303035	 0.131144
H	 1.1679828004	-2.6393290077	-1.9337038656	 0.098622
H	 3.4789528673	-3.1200159061	-1.0430129052	 0.117866
H	 2.822851554	-3.0857305935	 0.6788127536	 0.116997
