18
gdb 89758	2.47473	1.5647	1.14525	2.6808	72.29	-0.2417	0.051	0.2926	1094.3342	0.14691	-439.014282	-439.005938	-439.004994	-439.047176	32.008	
O	 0.5784879617	 0.7232516664	-0.7882493008	-0.430564
C	 0.0458567043	-0.28693397	 0.0250310408	 0.066835
C	 0.0543574296	-0.1157480455	 1.5854548421	-0.401392
C	-1.3858444521	-0.6494579542	 1.6072516863	 0.274811
C	-1.9389308791	-1.7628744153	 2.4073760595	-0.297586
N	-2.4721571309	-0.3893966914	 2.5439650749	-0.366829
C	-1.478557306	-0.473037546	 0.1099346814	 0.364238
C	-2.5283636866	 0.1832060261	-0.6722757685	-0.276178
O	-2.2856204827	-1.2313074832	-0.7624967686	-0.276441
H	 0.1248333131	 1.5466138838	-0.577151251	 0.279717
H	 0.538522384	-1.2144405163	-0.2789941569	 0.111912
H	 0.8121650968	-0.6730120917	 2.1394398753	 0.115587
H	 0.1121584779	 0.9425997737	 1.8640170492	 0.102272
H	-2.6194059601	-2.4676210758	 1.9385356847	 0.134776
H	-1.3274888656	-2.1696133323	 3.2090507245	 0.114029
H	-2.1067964682	 0.0431399669	 3.389705723	 0.232402
H	-3.4543183714	 0.4662858152	-0.1760456113	 0.133539
H	-2.2610968746	 0.7521847898	-1.5617220947	 0.118873
