20
gdb 18595	3.30385	1.97159	1.61583	1.5016	73.19	-0.2403	0.0732	0.3135	890.9403	0.179191	-349.005706	-348.998409	-348.997465	-349.037181	28.81	
C	-0.767046542	 1.3433585806	-0.0658724568	-0.409391
C	-0.0375641649	 0.0067559908	-0.0573119789	 0.036913
C	 1.2527058364	-0.1264049573	-0.9214024543	-0.274768
C	 2.0149994318	-0.7098163239	 0.3040123194	 0.128155
O	 3.1076264789	 0.0462674968	 0.7891041753	-0.254761
C	 2.5800184496	 1.163093919	 1.4955983037	-0.089115
C	 1.2920929978	 0.6595132565	 2.1731874399	-0.235507
C	 0.7763645302	-0.4245824249	 1.2113628943	-0.059976
H	-0.091062168	 2.1778436137	 0.1505100302	 0.11402
H	-1.2133090473	 1.5325245044	-1.0485362077	 0.114943
H	-1.5742598155	 1.3675911772	 0.6749112238	 0.113744
H	-0.7497800837	-0.7846445753	-0.3120646001	 0.070777
H	 1.1822683718	-0.7823022847	-1.7925569003	 0.096473
H	 1.6686773977	 0.8314454959	-1.2478781498	 0.102955
H	 2.3500739091	-1.7435165015	 0.1969065456	 0.074951
H	 3.3446194242	 1.5035073233	 2.1991319326	 0.107064
H	 2.3616308184	 1.9944744621	 0.8062980715	 0.089732
H	 1.5339086815	 0.2039546871	 3.1380422086	 0.105519
H	 0.5746667803	 1.4637001009	 2.3560204927	 0.101752
H	 0.3501218238	-1.2714717806	 1.7518771703	 0.066518
