13
gdb 128895	4.3945	1.22159	1.04184	3.7064	69.24	-0.2768	-0.017	0.2598	1071.273	0.091666	-411.751761	-411.744947	-411.744003	-411.783591	24.676	
N	-0.2183127181	-1.2072668918	-0.2037545721	-0.305604
C	-0.1237580562	-0.0589960622	-0.1203391708	 0.300463
C	-0.017610665	 1.3888912414	-0.0133083781	-0.339701
C	-0.2829745435	 1.9988192334	 1.4327866736	-0.177802
N	 1.1040151449	 2.4980561673	 1.339154693	 0.094476
N	 2.1072231598	 3.2078730269	 1.870953123	-0.167172
N	 3.0635293687	 3.1338501025	 0.9705885807	-0.170055
C	 2.6765070042	 2.3991067896	-0.1201431502	-0.207362
C	 1.3881900535	 1.9889790431	 0.1330549241	 0.335614
H	-0.6247496454	 1.8609137677	-0.7897428802	 0.160973
H	-1.0368158096	 2.7861510901	 1.4701128597	 0.162126
H	-0.4357977699	 1.2660798682	 2.2253891988	 0.171963
H	 3.3402504365	 2.2368953038	-0.9514145615	 0.142082
