17
gdb 45478	3.06816	1.79512	1.57365	3.1619	72.43	-0.248	0.0095	0.2574	898.8062	0.139884	-418.007299	-418.000917	-417.999973	-418.037983	26.261	
N	-0.106510353	 1.2536718604	-0.5875170768	-0.552325
C	-0.0393396722	 0.0893022496	-0.1021655104	 0.416628
O	 1.1071077734	-0.5159151973	 0.3369569851	-0.25762
C	 0.8212338003	-1.8329928171	 0.8695308813	 0.060824
C	 0.6945277759	-1.6987655187	 2.3885947137	-0.216301
C	-0.6742791227	-0.9920382339	 2.5231973661	-0.173001
N	-1.4869514852	-1.4486028596	 1.3635344755	-0.112998
C	-0.6104581469	-2.1631050352	 0.4324665266	-0.077234
C	-1.1849711361	-0.8545690679	 0.0359864085	-0.106268
H	 0.8198019088	 1.6839049781	-0.6169198322	 0.223517
H	 1.5968422568	-2.5132242379	 0.5167405422	 0.095413
H	 0.660374341	-2.6935070992	 2.8459800276	 0.110731
H	 1.5257564198	-1.1419916052	 2.8266438525	 0.11895
H	-1.2002563517	-1.2742267831	 3.4379076823	 0.116506
H	-0.5735972734	 0.0976412103	 2.5189378126	 0.128798
H	-0.9022007044	-3.1332882808	 0.0465120644	 0.104274
H	-2.0383253604	-0.7123295526	-0.6151906192	 0.120106
