25
gdb 103541	2.0214	1.4234	1.18452	0.1487	93.48	-0.2346	0.0272	0.2619	1268.285	0.22855	-352.379958	-352.369898	-352.368954	-352.414174	39.206	
C	 0.3347382359	 1.5778038173	 0.2168241579	-0.400555
C	 0.3531032865	 0.0519041308	 0.0620662547	-0.193852
C	 0.6959979659	-0.4772403169	-1.3576877065	 0.256315
C	-0.4116608667	-0.1012959322	-2.355427266	-0.445397
C	 2.0625855891	 0.0331489878	-1.7909409001	-0.079264
C	 3.0208725362	-0.8817797494	-1.6609136216	-0.092932
C	 2.4755897099	-2.1901995287	-1.1434382522	-0.274513
C	 0.9490766635	-2.0299265439	-1.3559815693	 0.009049
C	 0.0871017435	-2.8787630445	-0.4213484809	-0.41783
H	 1.3096302442	 2.0170415237	-0.0163448182	 0.117468
H	-0.4092765695	 2.049542348	-0.4324837158	 0.115596
H	 0.088402567	 1.8534479353	 1.2471253484	 0.110403
H	 1.0818728773	-0.3583489754	 0.771701658	 0.093911
H	-0.6249188321	-0.3468099369	 0.3592043685	 0.090656
H	-0.5558068281	 0.9817812107	-2.4183998287	 0.111421
H	-0.1661843487	-0.4585321422	-3.3607041384	 0.112114
H	-1.3712657085	-0.5448635469	-2.0646866271	 0.109321
H	 2.2156559177	 1.0525653105	-2.1299543128	 0.086233
H	 4.0733868773	-0.7214036799	-1.8694162162	 0.087962
H	 2.8757257044	-3.0655941985	-1.6683818266	 0.097883
H	 2.7278700597	-2.3308642672	-0.0813046817	 0.099387
H	 0.7462056276	-2.3590076053	-2.3834690221	 0.070237
H	 0.2735046792	-2.6497098666	 0.6326315365	 0.115561
H	-0.9820390049	-2.7343861491	-0.6119684985	 0.111732
H	 0.3030882738	-3.9427373604	-0.5673055513	 0.109094
