17
gdb 112146	2.67283	1.20803	0.98425	4.3938	68.94	-0.2293	-0.0864	0.1429	1210.4157	0.134669	-458.993814	-458.985112	-458.984168	-459.027805	31.803	
O	 0.0715806336	 1.1972687365	-0.4732697516	-0.415958
C	-0.0548471223	-0.2014325027	-0.2932899325	-0.075914
C	-1.4506091538	-0.4807738886	 0.2650919249	-0.027603
C	-2.5459197805	-0.0429347712	-0.7372829109	-0.340386
C	-2.7835925022	-1.2505292562	-1.627240346	 0.317234
O	-3.307648145	-1.297399677	-2.706872107	-0.281337
C	-2.214444322	-2.4962749502	-0.8749527616	 0.318506
O	-2.2279243471	-3.6169650716	-1.305731128	-0.280163
C	-1.6680703072	-2.000287547	 0.4554269566	-0.358448
H	 0.9128497893	 1.3773821539	-0.902725225	 0.294286
H	 0.0800339638	-0.7422835978	-1.2468601742	 0.094902
H	 0.7021855973	-0.5878239171	 0.4072980987	 0.096912
H	-1.545177283	 0.0600910424	 1.2097099119	 0.094846
H	-3.4872220381	 0.1801041138	-0.2174618986	 0.134615
H	-2.2710230394	 0.8452995918	-1.3085069464	 0.154524
H	-0.7750860336	-2.5550097893	 0.7560221765	 0.133992
H	-2.4340805497	-2.1861133797	 1.2199008731	 0.139992
