15
gdb 21208	6.90119	1.31418	1.11729	2.2354	64.32	-0.1895	0.0454	0.2349	1033.4598	0.121436	-392.187521	-392.179553	-392.178609	-392.219606	28.82	
C	-0.0483350069	 1.3971434809	 0.0978441565	-0.314828
N	-0.0490161932	-0.0324441526	-0.1508281686	-0.371614
C	-1.2290738889	-0.7262802371	-0.0456529296	 0.438053
N	-2.4167605901	-0.1436712363	-0.0544276346	-0.32147
N	-3.2534511178	-1.2476161001	-0.0081090196	-0.262419
C	-2.5218337673	-2.37631398	 0.0591639476	 0.41979
N	-3.0651290047	-3.638820132	 0.2069506791	-0.60073
N	-1.2323625373	-2.0978249712	 0.0235825499	-0.397475
H	 0.9584192317	 1.7861872616	-0.0718018244	 0.115999
H	-0.731989432	 1.8866943965	-0.6004794279	 0.147685
H	-0.3683120586	 1.6629155284	 1.1163654211	 0.11426
H	 0.7358349357	-0.5497650893	 0.2138771375	 0.244268
H	-4.2409802135	-1.1168968937	 0.1218002584	 0.267499
H	-3.9100482574	-3.8016984394	-0.3233044514	 0.253628
H	-2.3741000096	-4.3548542756	 0.0290891258	 0.267353
