17
gdb 36467	2.89283	1.08352	0.84503	4.3317	78.62	-0.2545	0.0077	0.2622	1327.4988	0.135705	-380.822396	-380.813519	-380.812575	-380.856547	32.329	
C	-0.0637693911	-1.1863408454	-0.2031648992	-0.416089
C	-0.074113866	 0.0152727021	-0.1784513821	 0.284234
C	-0.0471265825	 1.4722054994	-0.1427293224	-0.380459
C	 1.3621252739	 2.0057643806	 0.1481313589	-0.015471
C	 2.3532167707	 1.8813579137	-1.0382484283	-0.172576
N	 2.0553462394	 3.2888570439	-1.3986556331	-0.300396
C	 1.5330442185	 3.5512809012	-0.0432816406	-0.148425
C	 0.3480086557	 4.4085191345	 0.0247806634	 0.306062
N	-0.5925015994	 5.0763187423	 0.0996413184	-0.33091
H	-0.0745040485	-2.2479049693	-0.226838116	 0.198149
H	-0.3974940952	 1.876817142	-1.1000718627	 0.156646
H	-0.74432781	 1.8408387667	 0.619684888	 0.148337
H	 1.7176863933	 1.6290499266	 1.1071897043	 0.100257
H	 3.3838522555	 1.7039055599	-0.7036597342	 0.101215
H	 2.1001266693	 1.1540175067	-1.8149950432	 0.125041
H	 2.8393978646	 3.8652453408	-1.6828121957	 0.231084
H	 2.2758409816	 3.9452015941	 0.6654009149	 0.113301
