18
gdb 15889	2.69331	1.81578	1.2408	3.2724	68.61	-0.2375	-0.0177	0.2199	1015.617	0.151896	-384.948802	-384.940115	-384.939171	-384.982263	31.616	
C	 0.0038504809	 1.6716828202	 0.1861700953	-0.391028
C	-0.2566236957	 0.1612828588	 0.2091909177	-0.191213
C	 0.7114906935	-0.5770774331	 1.1293338186	-0.087636
C	 0.6826044765	-2.136041357	 1.2288244368	 0.074627
O	 0.0858562465	-2.6630790643	 0.0617393996	-0.425249
C	 2.2431257446	-2.1735270391	 1.1927732991	-0.366936
C	 2.1946082346	-0.7042733918	 0.7339246021	 0.393695
O	 2.9765842419	 0.0220983212	 0.1919898581	-0.296975
H	 1.0268174487	 1.8833269142	-0.1361589981	 0.145976
H	-0.6842440073	 2.1755457847	-0.4994260021	 0.110706
H	-0.1329475097	 2.1136738406	 1.1798619455	 0.107495
H	-1.2828586955	-0.0426301748	 0.5378999412	 0.100677
H	-0.1707943993	-0.2526673495	-0.7996328909	 0.118633
H	 0.671329417	-0.1556959364	 2.1436569373	 0.099273
H	 0.2178875915	-2.5412451407	 2.135391498	 0.069403
H	 0.2261228814	-3.6151034111	 0.0553355428	 0.288149
H	 2.7046917938	-2.27444282	 2.1807417034	 0.126815
H	 2.7037803768	-2.8864478619	 0.5041197458	 0.12359
