21
gdb 95372	2.63483	1.66927	1.25945	0.4642	77.25	-0.2456	0.0773	0.3229	1074.6734	0.184786	-424.246275	-424.238138	-424.237193	-424.279135	31.381	
C	-0.535552958	 1.4533232057	 0.1686635656	-0.409116
C	 0.1293632942	 0.0899945412	 0.0043733448	-0.001839
C	 1.3119489528	 0.0527680152	-0.9705378269	-0.091611
O	 2.0658317368	-1.1084419462	-0.6304219679	-0.283617
C	 1.8382889685	-1.462569485	 0.7371748129	 0.0945
C	 3.0631400717	-1.1835042695	 1.6132802639	-0.239789
C	 2.8846373366	 0.2992573545	 1.9451662988	-0.079691
O	 1.4738101464	 0.5027850584	 2.0398928626	-0.278216
C	 0.7741421366	-0.4848834626	 1.2784387218	 0.082297
H	 0.1691303082	 2.1743932782	 0.5895964354	 0.13321
H	-0.8934806925	 1.8344571763	-0.7934508322	 0.110926
H	-1.3955979986	 1.3935476495	 0.8431155891	 0.116378
H	-0.6121209788	-0.6458736222	-0.3344674851	 0.07636
H	 1.0092253128	-0.0344540172	-2.0187804858	 0.104114
H	 1.9262937948	 0.9619793362	-0.8691062101	 0.091524
H	 1.5274945468	-2.5118480894	 0.7700634272	 0.077291
H	 3.013292022	-1.7910049701	 2.5233997284	 0.103245
H	 3.9943275949	-1.4080633366	 1.0897107537	 0.114593
H	 3.331441613	 0.5959625729	 2.8986837513	 0.106088
H	 3.3143179229	 0.931833924	 1.1544772044	 0.098952
H	 0.0374625989	-0.9577785734	 1.937057498	 0.074399
