18
gdb 14962	4.33007	1.52698	1.19698	2.411	71.52	-0.2231	0.0216	0.2447	1024.3712	0.155679	-381.119628	-381.111688	-381.110744	-381.152353	28.953	
C	-0.1738074808	 1.463342191	-0.0174295328	-0.326514
N	-0.1065231882	 0.0115018411	-0.0478222265	-0.286628
C	 0.6147162864	-0.5720467022	-0.9044283939	 0.381919
C	 0.6382761956	-2.0872774899	-0.9942588007	-0.254854
N	 1.9182228887	-2.6696037264	-1.4043910585	-0.287251
C	 2.4246784832	-1.9723908233	-2.584732466	-0.173322
C	 2.5424999613	-0.4706958845	-2.3527813782	-0.07436
O	 1.321218986	 0.1064586083	-1.8659566329	-0.258668
H	 0.6592641418	 1.9616368646	-0.5253376423	 0.116616
H	-1.1071094057	 1.7956016623	-0.4893475	 0.1251
H	-0.211330895	 1.7919951794	 1.026079774	 0.118834
H	 0.3243785566	-2.4934703341	-0.0320221069	 0.132622
H	-0.1151594987	-2.3877570496	-1.7367409353	 0.126555
H	 2.5886315842	-2.5743319367	-0.6456864419	 0.218976
H	 3.4020288767	-2.379053229	-2.8660619834	 0.108596
H	 1.7343300554	-2.1665260633	-3.4156585917	 0.116392
H	 3.3417695577	-0.2663582442	-1.6245270249	 0.100121
H	 2.7770321146	 0.0701030968	-3.2747589282	 0.115867
