15
gdb 28738	3.48753	1.21026	0.90162	0.9957	74.69	-0.1821	0.0062	0.1883	1223.6522	0.114407	-450.151329	-450.142906	-450.141962	-450.18553	30.203	
N	-0.3226802245	 0.6998845241	 1.249744564	-0.599294
C	-0.2265478586	-0.1848074433	 0.1862129783	 0.335816
C	-0.5245625772	-0.1715409529	-1.135564776	-0.190146
N	-0.2925103607	-1.4462054037	-1.6667227625	-0.356732
C	 0.1270285965	-2.1296193871	-0.6543739944	 0.515376
N	 0.4759018812	-3.4632440361	-0.6902080023	-0.391238
C	 1.0931524668	-4.2482968867	 0.2612044796	 0.074605
N	 1.4410173319	-3.8387260382	 1.4135136986	-0.439213
O	 0.1930431535	-1.4506438537	 0.5147578368	-0.170541
H	 0.4463909831	 0.6048056202	 1.9029703693	 0.262748
H	-0.4042452245	 1.6591561704	 0.940760297	 0.25719
H	-0.8804219244	 0.6429671836	-1.7441265812	 0.109023
H	 0.3144012791	-3.8720956854	-1.5964398382	 0.272289
H	 1.2299410285	-5.2658233133	-0.1240480237	 0.09475
H	 1.8660332294	-4.6027269278	 1.9341800845	 0.225367
