23
gdb 114686	3.5372	1.0242	0.95417	1.1588	85.27	-0.2514	0.0791	0.3305	1355.3923	0.20646	-388.292592	-388.283277	-388.282333	-388.326346	36.146	
C	-0.4188801903	 1.4067158485	 0.1622849138	-0.481073
C	 0.1102352218	 0.0076158726	-0.0482594539	 0.375766
C	-0.6373400543	-1.1652834224	 0.5428285986	-0.337022
C	 0.7377165309	-0.8097748668	 1.0611507697	-0.06196
C	 1.9307247478	-1.5777174084	 0.5149668406	-0.235456
C	 1.8676568544	-1.4495857922	-1.035961435	 0.022857
C	 1.4649526461	-2.7464267166	-1.7375813713	-0.090521
O	 2.4746305288	-3.7126018642	-1.4795259206	-0.420332
C	 0.8950537632	-0.2711170191	-1.3291570634	-0.310652
H	 0.3853853232	 2.1502083484	 0.1032627656	 0.110851
H	-1.1674262486	 1.6705553325	-0.5949166679	 0.113237
H	-0.8953538389	 1.507469634	 1.1428730003	 0.111613
H	-1.4813284674	-0.9342690356	 1.1854709331	 0.102441
H	-0.770868848	-2.0708697736	-0.0398190522	 0.103086
H	 0.8047131675	-0.4094526974	 2.0681162458	 0.073268
H	 2.8548742252	-1.1264152657	 0.8923626195	 0.094181
H	 1.9509054137	-2.6289170762	 0.8201899116	 0.108547
H	 2.8647385726	-1.2130640935	-1.4206491273	 0.082338
H	 0.4853021172	-3.0995333996	-1.3798393361	 0.085841
H	 1.367095677	-2.5568199405	-2.8189854235	 0.083262
H	 2.1984382145	-4.548140572	-1.866769861	 0.285384
H	 0.2377787654	-0.4865164426	-2.1816633849	 0.090085
H	 1.4630736781	 0.6272272404	-1.5980131614	 0.094258
