21
gdb 113398	4.06385	0.99577	0.91718	2.0318	83.82	-0.2298	0.0848	0.3146	1365.2405	0.181656	-386.999712	-386.991138	-386.990194	-387.033079	33.271	
C	 0.2811178389	 1.5357359663	 0.2304173278	-0.369384
C	-0.2033345524	 0.1327211651	-0.1516969918	-0.199482
C	 0.5377789932	-0.4455220385	-1.3420305444	-0.10748
C	 1.884150419	-1.1473317677	-1.1406378456	-0.392716
C	 0.6768130374	-1.9162043513	-1.5358991134	 0.459883
C	-0.0021004315	-3.1656023762	-0.9511842921	-0.045587
C	-1.0274930874	-3.1239732321	-2.1127923074	-0.218816
C	 0.3964027414	-2.8974766527	-2.6821034552	-0.051818
O	 0.8797973358	-3.9984938631	-1.8090755224	-0.311107
H	 1.3464543465	 1.5279447976	 0.4830326571	 0.119967
H	 0.1430744588	 2.2393594064	-0.5979243653	 0.114228
H	-0.2685590027	 1.9247742267	 1.0932056954	 0.111045
H	-0.0865958828	-0.5430469933	 0.7052301491	 0.09387
H	-1.2793257168	 0.1635521981	-0.3692777924	 0.096999
H	 0.4585868132	 0.1495598185	-2.2509168762	 0.081818
H	 2.6668742866	-0.9881207827	-1.8753879396	 0.113835
H	 2.2459110645	-1.2497826154	-0.1213882742	 0.11369
H	-0.1338949203	-3.474693065	 0.0857352299	 0.094401
H	-1.4725909691	-4.0874503011	-2.3643648616	 0.104704
H	-1.7356709855	-2.2924073567	-2.147301026	 0.098114
H	 0.7415043231	-2.8828802029	-3.7162317718	 0.093837
