16
gdb 23107	1.90533	1.75875	0.92597	2.8046	77.87	-0.2341	-0.0678	0.1663	1198.8455	0.123505	-437.871967	-437.863355	-437.86241	-437.906419	30.756	
O	 0.0461735408	 1.301905513	 0.1647247156	-0.395381
N	 0.0737790688	-0.0943088565	 0.008450948	-0.23238
C	-1.0926285433	-0.614171023	-0.0119727081	 0.295929
C	-1.2327349408	-2.1236711617	-0.1773211789	-0.292145
C	-2.7427379081	-2.4045386011	 0.0231970956	-0.280546
C	-3.354415961	-1.0415867424	 0.1277649761	-0.097928
C	-2.44964579	-0.0410435406	 0.1122238463	 0.12777
C	-2.8670625179	 1.3874592418	 0.2087479549	 0.059113
O	-4.0273803961	 1.7103050353	 0.3388537243	-0.270064
H	 0.9824774932	 1.5259344697	 0.1646527431	 0.308826
H	-0.9043889664	-2.4215706562	-1.1775716192	 0.133796
H	-0.6021808504	-2.6583667605	 0.5361682278	 0.133134
H	-3.1835118351	-2.9806871642	-0.7989713299	 0.127635
H	-2.9442412535	-2.984877978	 0.9333979966	 0.1314
H	-4.4202834823	-0.8657959324	 0.2185641023	 0.139274
H	-2.0614569479	 2.1352546568	 0.1491866957	 0.111565
