20
gdb 61892	4.71209	0.66125	0.63938	4.3845	77.77	-0.2415	-0.0155	0.226	1765.3594	0.168796	-440.257266	-440.24742	-440.246476	-440.293511	34.886	
O	-0.2157354604	 1.3573573555	 0.1438072387	-0.444007
C	 0.1372418415	-0.0095929719	 0.032247763	 0.123229
C	 0.8860889581	-0.1961648763	-1.2910443521	-0.280737
C	 0.0265132065	 0.1476806618	-2.4900098403	 0.151345
O	-0.1217215926	-0.5725537532	-3.4450464198	-0.245477
C	 0.982537708	-0.4273556967	 1.2401391927	-0.163389
N	 0.2505183707	-0.0752347319	 2.4539803937	-0.086039
C	-0.5293070194	-1.1342636125	 3.0927005931	-0.222741
C	 0.7306251015	-0.6366962334	 3.7102319878	-0.221803
H	-0.4152762899	 1.4926808938	 1.0814709214	 0.289789
H	-0.7712722671	-0.638186353	 0.0192320135	 0.073741
H	 1.747425492	 0.4863747438	-1.2880116353	 0.124778
H	 1.247349415	-1.2223644206	-1.4038674552	 0.113888
H	-0.4725012881	 1.1373068536	-2.4279435612	 0.101302
H	 1.2320434426	-1.5008329082	 1.1876221765	 0.088163
H	 1.9199911873	 0.1417304585	 1.233586828	 0.111309
H	-1.4935769542	-0.8373998448	 3.4936891219	 0.125649
H	-0.5073095173	-2.1232267538	 2.6385786713	 0.118643
H	 1.5977458542	-1.2933106074	 3.6716315441	 0.117474
H	 0.6999560515	 0.0281234269	 4.5684713083	 0.124884
