18
gdb 125963	3.64827	1.19759	1.08774	3.3113	78.8	-0.2073	0.0321	0.2394	1161.6737	0.149614	-398.121253	-398.113173	-398.112228	-398.154309	30.557	
C	-0.517417309	 1.4876688975	-0.0049568975	-0.411882
C	-0.2640651107	 0.0063117259	 0.130558623	 0.006855
C	 0.9958655718	-0.606126733	-0.3735996772	-0.249394
N	 0.7620073159	-0.5176383417	 1.0636130102	-0.184731
C	 1.5438630606	 0.3552073921	 1.8210881098	 0.41785
C	 2.8370183206	 0.8333671132	 1.692703735	-0.304217
C	 3.0443478352	 1.600606642	 2.8610613637	-0.000527
N	 1.9814364869	 1.6122425246	 3.6560028711	-0.232961
N	 1.0793670946	 0.8429474875	 3.0013743247	-0.255439
H	 0.4163198457	 2.0554270718	 0.0068125406	 0.140018
H	-1.0360054047	 1.6935851214	-0.9468390124	 0.127096
H	-1.1477903939	 1.8578834823	 0.8107205343	 0.125893
H	-1.1575347268	-0.6146237972	 0.1241555194	 0.099944
H	 1.0042397646	-1.6126956433	-0.7817279851	 0.123249
H	 1.7309598845	 0.0700961938	-0.8049776744	 0.125178
H	 3.524571815	 0.6415632239	 0.8859792245	 0.097157
H	 3.9307247168	 2.1473950741	 3.1493326582	 0.106735
H	 0.185884133	 0.6527955549	 3.422074522	 0.269176
