15
gdb 9050	4.64265	0.95429	0.8253	5.0082	66.78	-0.2726	-0.0066	0.2659	1304.0706	0.118197	-358.851993	-358.84321	-358.842266	-358.886238	29.953	
C	-0.1163417788	 1.5195737548	 0.0472951654	-0.400053
C	 0.018094667	-0.0181368135	 0.0100790687	-0.097809
N	 0.6248329183	-0.5867422373	-1.1950587649	-0.293045
C	-0.1764402063	-0.4272719067	-2.4031791106	-0.275438
C	 0.4561193669	-1.1140558645	-3.5328212668	 0.266555
N	 0.9605753363	-1.6298249194	-4.4342589354	-0.286971
C	 0.7907982344	-0.4781070179	 1.1762452008	 0.282045
N	 1.403584671	-0.8024575085	 2.0997950306	-0.306491
H	 0.8666970595	 1.9925494508	-0.0328080574	 0.14048
H	-0.7435809107	 1.8693087759	-0.7767408875	 0.130734
H	-0.5765165955	 1.8431369456	 0.984686552	 0.149499
H	-0.9834193107	-0.4604217393	 0.0983869401	 0.13936
H	 1.56060347	-0.2187035995	-1.3323005824	 0.245347
H	-1.160290267	-0.8819631131	-2.231309517	 0.163035
H	-0.3604099744	 0.6163381229	-2.7094406758	 0.14275
