16
gdb 43224	2.96625	1.85521	1.63016	2.2325	67.35	-0.2312	-0.0324	0.1988	861.9983	0.127255	-437.847183	-437.8409	-437.839956	-437.877749	25.67	
O	-0.0341136007	 0.0465101814	 0.1926523057	-0.314221
C	-0.0120399297	 1.2420918901	 0.1439053184	 0.416056
C	-1.0972273523	 2.3449871463	-0.0294283162	-0.043465
O	-1.391038654	 2.9811567632	 1.2047805337	-0.263974
C	-0.1939032863	 3.1861159045	 1.9621712523	-0.107035
C	 0.9522716215	 3.4657187581	 0.9891398055	-0.022974
N	 0.4766665011	 4.3685693762	-0.0983955338	-0.302875
C	 0.0235898539	 3.1719407394	-0.8119521761	-0.017565
C	 1.0731570847	 2.2820813642	-0.0592385909	-0.183621
H	-2.0379660386	 2.0992831721	-0.5214482013	 0.101509
H	-0.3828418784	 4.0441844351	 2.6154809084	 0.118439
H	 0.0254197369	 2.3094835577	 2.5909875645	 0.114806
H	 1.8731140789	 3.7725413109	 1.4907704127	 0.091183
H	-0.283571813	 4.9826252586	 0.1944637744	 0.222357
H	-0.0730644466	 3.2190290193	-1.8970690675	 0.091259
H	 2.0696757225	 2.0300578327	-0.4147207097	 0.10012
