23
gdb 101372	2.71477	1.2323	1.00106	1.1293	85.65	-0.2392	0.0825	0.3217	1308.2794	0.204973	-388.251303	-388.241645	-388.2407	-388.286182	36.178	
C	-0.1697822301	 1.5815890553	-0.1595676065	-0.234261
O	-0.0607979043	 0.1980126047	 0.0731814931	-0.238637
C	-1.2909590069	-0.5190115644	 0.0204842299	 0.113077
C	-1.7269747968	-0.7628478219	-1.4297616679	-0.404981
C	-1.1219888209	-1.8347045889	 0.7803101767	 0.020974
C	 0.1434999995	-2.7314856575	 0.5378720326	-0.2541
C	 0.3550188512	-2.7978602387	 2.0580535294	-0.0428
C	 0.5810545928	-1.4226440996	 2.6136991943	-0.270318
C	-0.8264355148	-1.8504679726	 2.2885394394	-0.084904
H	 0.8245588596	 2.0121486591	-0.0149837275	 0.124771
H	-0.502448625	 1.8167621256	-1.1813228566	 0.10513
H	-0.8674940268	 2.0588400448	 0.5466024535	 0.103636
H	-2.0676934024	 0.0752009739	 0.533916339	 0.059974
H	-2.6967204866	-1.26990031	-1.4594853054	 0.113042
H	-1.8270582798	 0.1738974747	-1.9851602112	 0.113453
H	-0.9928145422	-1.3888852134	-1.9467479711	 0.126024
H	-2.021351966	-2.4300873317	 0.5908901882	 0.069719
H	-0.1019786454	-3.6917869777	 0.0794483421	 0.094766
H	 0.9568011858	-2.266212498	-0.0256071875	 0.107251
H	 0.6179520751	-3.6918861167	 2.609989076	 0.078817
H	 0.801574485	-1.389204984	 3.6765659611	 0.099887
H	 1.0758461695	-0.6626058491	 2.0209011718	 0.124973
H	-1.5906034904	-1.897978254	 3.0563897965	 0.074508
