18
gdb 90537	4.4864	1.01472	0.93081	5.09	76.23	-0.2698	0.028	0.2978	1251.9334	0.148467	-401.933674	-401.925476	-401.924532	-401.966979	31.042	
O	-0.141882774	 1.502815322	 0.4798355687	-0.425855
C	 0.0511784227	 0.1541910331	 0.1247978798	 0.129349
C	 0.326414709	-0.888091673	 1.2582067338	-0.292464
C	-0.8752762085	-1.7359773988	 0.7551904028	-0.023893
C	-2.1889322264	-1.4800731389	 1.5589342611	-0.156808
C	-2.4738409196	-0.2319517576	 0.6471281207	-0.247513
C	-1.2515815994	-0.5829451531	-0.2431008188	-0.037111
C	-3.1777672247	-2.5397905496	 1.4441889526	 0.259105
N	-3.9581283487	-3.3866984368	 1.3352964181	-0.328796
H	 0.711699131	 1.8879569035	 0.7015365913	 0.28802
H	 0.7917187594	 0.0599959968	-0.6815096735	 0.073403
H	 1.2985110065	-1.3832461094	 1.2086835004	 0.106532
H	 0.1923558959	-0.4783141488	 2.2637842282	 0.104476
H	-0.6712551177	-2.7604274698	 0.4493922557	 0.091593
H	-2.034179765	-1.2599362138	 2.6194921721	 0.11891
H	-3.434020323	-0.2779926361	 0.133649619	 0.128205
H	-2.3900172489	 0.7240906243	 1.1643576132	 0.134585
H	-1.4581977786	-0.7402975239	-1.3011413753	 0.078262
