17
gdb 45081	2.82429	1.83027	1.29595	3.3509	73.65	-0.2427	0.0168	0.2595	973.6616	0.138802	-417.976348	-417.969411	-417.968467	-418.00772	28.036	
N	-0.0909266133	 1.2654923024	 0.2618300148	-0.52301
C	-0.0283562163	 0.0338864375	-0.0276464796	 0.430328
O	 1.1690599484	-0.6114867201	-0.1717922894	-0.258363
C	 1.3063135117	-1.7513509694	-0.994336095	 0.091304
C	 1.1756147198	-3.1241387883	-0.407913838	-0.313296
C	 0.1059874305	-2.5866120476	-1.339235241	-0.063735
C	-1.2134802857	-2.1210599101	-0.7902082324	-0.056492
N	-1.3194235197	-2.0048091849	 0.6641806306	-0.33572
C	-1.2702984745	-0.7714246289	-0.1583470471	-0.109042
H	 0.8507890273	 1.661540342	 0.3038937569	 0.219297
H	 2.0633647187	-1.5751082519	-1.7518212508	 0.106334
H	 1.8398866988	-3.9000586551	-0.7709060943	 0.114289
H	 0.9008323514	-3.1803457432	 0.6383940646	 0.151812
H	 0.0605585308	-2.9791704781	-2.349390374	 0.095531
H	-2.0909154534	-2.4434252826	-1.3437275834	 0.094041
H	-2.2746926184	-2.1679132079	 0.9694014367	 0.242961
H	-2.1652141661	-0.1667801538	-0.2446660784	 0.113762
