15
gdb 6308	3.81476	1.24238	1.08165	3.1246	63.09	-0.2918	-0.0074	0.2844	1105.7804	0.116188	-399.852355	-399.84333	-399.842386	-399.887464	30.221	
C	-0.1829052571	 1.6387031901	 0.156843492	-0.403951
C	-0.0142491734	 0.1231660486	 0.0428686974	-0.018946
O	 0.7147214946	-0.393631871	 1.172756826	-0.246707
C	 2.0608316931	-0.5121159642	 1.0053618001	 0.442021
C	 2.6923040574	-1.0786195263	 2.2498212177	-0.480939
O	 2.6335795782	-0.2003978319	-0.0055352134	-0.343281
C	-1.3055348657	-0.5754873951	 0.0186486138	 0.285454
N	-2.333211043	-1.0999286865	-0.0282181795	-0.312192
H	 0.8019766498	 2.1092607778	 0.1234222735	 0.149555
H	-0.7809942594	 2.0136294963	-0.6776657999	 0.146395
H	-0.6812380287	 1.8987596233	 1.093333618	 0.146854
H	 0.5420670167	-0.1222975759	-0.866662091	 0.161087
H	 2.2795124094	-2.0700891714	 2.4562350657	 0.162071
H	 3.7704363546	-1.14375028	 2.1109556099	 0.155283
H	 2.4600142935	-0.4447114137	 3.1098461797	 0.157296
