20
gdb 106777	2.3855	1.53358	1.14004	2.6514	75.64	-0.2075	0.0499	0.2574	1141.9894	0.169148	-440.222822	-440.213358	-440.212414	-440.256506	35.877	
C	-0.4056839767	 1.3068376952	-0.5398876148	-0.333304
N	 0.0485719931	-0.0408742593	-0.2431771353	-0.131659
C	 1.3279565783	-0.5085602191	-0.864265239	-0.227308
C	 1.8542366782	-0.8637032448	 0.524821959	 0.365381
O	 2.530542942	-2.0396216305	 0.7799672616	-0.47628
C	 1.8799547697	 0.3659792029	 1.4008592724	-0.400245
C	 0.5594981562	-0.3327979901	 1.0983150619	 0.268098
C	-0.3041181981	-0.9693603149	 2.1484904665	-0.190334
O	 0.572997878	-1.7406826703	 2.9779863653	-0.427175
H	 0.3396492391	 2.0944867981	-0.3314196455	 0.096215
H	-0.6776121634	 1.3716262747	-1.5984648252	 0.120487
H	-1.3030757771	 1.5272233574	 0.047885134	 0.116896
H	 1.171976616	-1.3764824776	-1.5119271078	 0.11237
H	 1.8913025037	 0.2601806428	-1.4094101358	 0.094422
H	 2.1853619395	-2.3760185814	 1.6176415264	 0.294133
H	 2.2555242312	 0.1791494663	 2.4018183274	 0.121785
H	 2.1049062567	 1.3532986471	 1.0035509678	 0.09923
H	-0.8452362465	-0.2244727462	 2.7529410699	 0.094785
H	-1.0470499566	-1.6073531518	 1.6487284099	 0.105597
H	 0.0548916069	-2.1501455586	 3.6763485613	 0.296907
