21
gdb 86948	3.18074	0.90815	0.79397	3.8444	79.84	-0.2441	-0.0196	0.2245	1498.8147	0.179894	-424.226155	-424.216046	-424.215102	-424.262635	35.862	
C	 0.1079457869	 1.453307777	-0.2453629404	-0.404645
C	 0.0529491878	-0.0220183387	 0.0932741516	 0.160851
O	 0.8908614508	-0.8223738941	-0.778176974	-0.316505
C	 1.4313340872	-1.5600587803	 0.3392219914	 0.13379
C	 2.9517500407	-1.6901984955	 0.2614809074	-0.298882
C	 3.371045066	-2.4681165416	-0.9692818442	 0.15589
O	 4.0567906587	-3.458669018	-0.9480950997	-0.243044
C	 0.7671654728	-0.5898084216	 1.356396081	-0.088178
C	 1.6651760575	 0.3447764003	 2.1577631013	-0.407958
H	 1.1277972467	 1.843083094	-0.1983972795	 0.119788
H	-0.2678384931	 1.6108689266	-1.2612933268	 0.130895
H	-0.5216052229	 2.0298836245	 0.4408217656	 0.118405
H	-0.9884678832	-0.3706061991	 0.0316868725	 0.074556
H	 0.9880895004	-2.5660492219	 0.3852778887	 0.082378
H	 3.3943269876	-0.6888143142	 0.191967221	 0.117444
H	 3.3474322984	-2.1958972639	 1.1474946739	 0.11929
H	 2.9870248986	-2.0516362335	-1.9251222945	 0.098665
H	 0.0823602644	-1.1002077761	 2.0385559967	 0.079208
H	 2.3805353359	 0.8847883176	 1.5315904908	 0.12426
H	 1.065644867	 1.0901096739	 2.6903939112	 0.120904
H	 2.2355343919	-0.2142642651	 2.9066846761	 0.122887
