25
gdb 101029	2.15827	1.17953	0.99455	1.1674	89.28	-0.2471	0.0807	0.3279	1405.7564	0.226666	-389.476365	-389.46533	-389.464386	-389.512579	40.747	
C	 0.6479277077	-0.156703213	 1.3155374401	-0.382649
C	 0.0126441849	-0.2072382824	-0.0806189541	-0.264098
C	-1.412177254	-0.7490799257	-0.1106505958	 0.370364
C	-1.8667378786	-1.4232940758	-1.3827208439	-0.310682
C	-1.5631348927	-2.2507843603	-0.1547696345	-0.308262
C	-2.4484290069	 0.0572353465	 0.6754510871	 0.056584
C	-2.5770196663	 1.5002468225	 0.1726479859	-0.402611
O	-3.6990343432	-0.6188553596	 0.5766209296	-0.247765
C	-4.6019045677	-0.3511089635	 1.6214726381	-0.235125
H	 1.6965448764	 0.1508666168	 1.2538277624	 0.109988
H	 0.1389093294	 0.5545514517	 1.9741347804	 0.115773
H	 0.6128944703	-1.1390380369	 1.7982012339	 0.118978
H	 0.0475817181	 0.790194314	-0.5363638053	 0.09621
H	 0.6268437983	-0.847276683	-0.7251026593	 0.093562
H	-2.9090655188	-1.3239499853	-1.6604053915	 0.122847
H	-1.1729450806	-1.4571829102	-2.2165600629	 0.098573
H	-0.6565635133	-2.8476536796	-0.1469927726	 0.098054
H	-2.4067655885	-2.691269986	 0.3609390527	 0.116873
H	-2.1475300035	 0.0739293226	 1.7362126491	 0.062724
H	-3.3686519114	 2.0321816708	 0.7081093411	 0.111897
H	-1.6491539237	 2.0585680002	 0.3252633295	 0.118116
H	-2.8165759011	 1.5084131925	-0.8947955759	 0.125114
H	-5.4828802096	-0.9760668916	 1.4531147398	 0.125888
H	-4.1728502654	-0.6016818736	 2.6044132528	 0.104133
H	-4.9242814996	 0.700339609	 1.6467521032	 0.105514
