17
gdb 81404	4.32964	1.14893	1.09855	1.1738	73.82	-0.2407	0.0301	0.2707	1123.2456	0.135621	-421.754789	-421.747008	-421.746063	-421.786768	30.89	
O	 0.0044959418	 1.3894615233	-0.1435806238	-0.440744
C	 0.0327051358	-0.0113039131	-0.0219436136	 0.120032
C	 0.0602489959	-0.6037900361	 1.421425922	 0.057834
C	-1.421430903	-0.1844868708	 1.5435172821	-0.249369
C	-1.4084808592	-0.6033817238	 0.0393603363	-0.083638
C	-1.0544100629	-2.0991045249	 0.1645101394	-0.09878
O	 0.0112367311	-2.0158154774	 1.1591608739	-0.284789
C	-2.1406508104	-2.9633087297	 0.6082137707	 0.340218
C	-3.0447624143	-3.677768059	 0.949297926	-0.429142
H	 0.8883268048	 1.7228162194	 0.0417465868	 0.288596
H	 0.7317979715	-0.4761967235	-0.7306652716	 0.071069
H	 0.8317555203	-0.3947201882	 2.1619276718	 0.078518
H	-2.0500558058	-0.7519285468	 2.2309231117	 0.113488
H	-1.5501674568	 0.8892912225	 1.6621301615	 0.121814
H	-2.1842355218	-0.327913201	-0.6722443335	 0.090416
H	-0.6320568592	-2.4966795749	-0.7668924511	 0.10646
H	-3.8389195078	-4.3123743659	 1.2569755213	 0.198016
