16
gdb 9806	3.34209	1.69179	1.2988	1.1211	60.83	-0.2672	-0.0436	0.2236	944.0571	0.127278	-420.861933	-420.853469	-420.852524	-420.895132	30.399	
C	-0.2943268268	 0.971940001	-1.2946532682	-0.464427
C	-0.0370804522	 0.256138067	 0.0084931793	 0.379806
C	 1.2080631692	-0.4931617419	 0.2218129009	-0.22518
O	 1.0109662323	 0.7932769448	 0.8271131502	-0.275595
C	-1.3024519401	-0.1284561055	 0.7810859749	-0.012776
O	-2.1163420087	-0.9660280546	 0.0049991613	-0.429519
C	-1.0025531252	-0.7745176601	 2.122423117	 0.121069
O	-1.4838050476	-1.8434335589	 2.4163323247	-0.267282
H	 0.6470771212	 1.2029123368	-1.7987711888	 0.126058
H	-0.9110163497	 0.3484528398	-1.9471053831	 0.150367
H	-0.8294216698	 1.9108728144	-1.1153311177	 0.126791
H	 1.234930488	-1.337744675	 0.9098975475	 0.123617
H	 1.9561394296	-0.5227685366	-0.5681811146	 0.123231
H	-1.8344443468	 0.8140526568	 1.0169805512	 0.098332
H	-2.2865224989	-1.7438325084	 0.5614419228	 0.296955
H	-0.3429975744	-0.2122475894	 2.8065783125	 0.128554
