17
gdb 98857	3.21991	1.13787	0.98555	1.7288	65.42	-0.2551	-0.0193	0.2358	1235.2607	0.134856	-496.101083	-496.09206	-496.091116	-496.136256	31.576	
C	-0.4394895246	 1.4751547917	 0.4829925502	-0.246965
O	-0.2530371678	 0.0514877171	 0.5577600299	-0.226648
C	-0.9430673676	-0.6706136901	-0.3287630667	 0.48285
O	-1.6807895279	-0.1909965613	-1.1641551516	-0.392376
C	-0.7142642859	-2.1642840436	-0.1619824213	-0.054515
O	-1.9124884795	-2.800172709	 0.3262906331	-0.283338
C	-2.2047488807	-3.3875769577	-0.9657181413	-0.111504
C	-0.8180020384	-2.9624171552	-1.5059993781	 0.090041
O	-0.7206867951	-2.2976268474	-2.7213727356	-0.428266
H	 0.2048411414	 1.8972422894	 1.2532296322	 0.141826
H	-0.1554414095	 1.8450483371	-0.5048171419	 0.147761
H	-1.48460221	 1.7312969256	 0.6712184828	 0.149688
H	 0.145087723	-2.3529254312	 0.4870787837	 0.097527
H	-2.417275556	-4.4588189242	-0.8868591805	 0.109959
H	-3.0367061068	-2.8790309814	-1.4677945417	 0.11363
H	-0.1028163821	-3.7873512834	-1.5311736791	 0.10943
H	-1.2635298024	-1.4978634464	-2.6477157541	 0.300899
