23
gdb 121290	4.06895	0.8465	0.73251	1.0204	88.08	-0.2418	0.0257	0.2675	1626.748	0.206093	-388.308233	-388.298753	-388.297809	-388.342995	35.558	
C	 0.0328526146	 1.5577759202	-0.0215087195	-0.38113
C	 0.0066239972	 0.0283400932	 0.0310808789	-0.170058
C	-1.4131731582	-0.5467441188	-0.0007487124	-0.184287
C	-1.4566393746	-2.0710539336	 0.0029894069	 0.127079
C	-2.8780710371	-2.6386627148	 0.1093784605	-0.261609
C	-2.8844165839	-4.1110198206	-0.2080330907	-0.067928
C	-1.8528946617	-4.6969293023	-0.8101347863	-0.06526
C	-0.6479498227	-3.914469747	-1.2535148638	-0.114844
O	-0.844314769	-2.5157491977	-1.2055265168	-0.262639
H	 1.0580078297	 1.940522164	 0.0041696408	 0.109781
H	-0.4375805846	 1.9300806162	-0.938519037	 0.11386
H	-0.5068103444	 1.9960636091	 0.8259719361	 0.109372
H	 0.5701435439	-0.3859796904	-0.8112209393	 0.115046
H	 0.5148284363	-0.3164584619	 0.9418100114	 0.087859
H	-1.9854588351	-0.1817390766	 0.8624296451	 0.089252
H	-1.9369258478	-0.192592354	-0.8985180213	 0.100481
H	-0.8694014353	-2.4493609589	 0.8593708115	 0.060368
H	-3.2655235331	-2.4670541784	 1.1220213737	 0.101423
H	-3.549460287	-2.095619173	-0.5713759738	 0.1095
H	-3.7580202246	-4.68976897	 0.0802909362	 0.087452
H	-1.8415498285	-5.7657529068	-1.0068482437	 0.088734
H	 0.2321921246	-4.2045863472	-0.6486396989	 0.093546
H	-0.4012828485	-4.1503822705	-2.2960974576	 0.114002
