15
gdb 16407	3.67851	2.26014	1.77926	4.0364	60.39	-0.2337	0.0152	0.2489	752.7806	0.121932	-399.815246	-399.809096	-399.808152	-399.845432	24.175	
O	 0.0069722289	-0.041836592	 0.0240617139	-0.376833
C	 0.012932266	 1.1713317097	 0.0172618029	 0.421734
N	-1.1160297782	 1.9476512163	 0.0213469366	-0.317933
C	-1.0730962315	 3.4054943849	 0.0784247356	-0.161889
C	 0.387589365	 3.8399864049	-0.0284129473	 0.090666
C	 1.1324052392	 3.0878487334	-1.1520844637	-0.253979
C	 1.2771437771	 2.0352556153	-0.0330136199	-0.026098
O	 1.1436921839	 3.0914077341	 0.964198734	-0.289775
H	-1.9954665488	 1.4628452894	 0.1181353769	 0.250763
H	-1.6583837752	 3.8441536889	-0.740977885	 0.112053
H	-1.489421375	 3.7703096302	 1.0264812839	 0.121828
H	 0.5021530613	 4.9214453896	 0.074611105	 0.088705
H	 0.591465886	 2.8184600671	-2.0610540899	 0.116665
H	 2.0861676824	 3.5600144725	-1.3901678558	 0.120952
H	 2.178099459	 1.4334140958	 0.0789902128	 0.10314
