23
gdb 104014	3.01474	1.31308	1.21192	1.3048	84.67	-0.255	0.0719	0.3269	1173.6917	0.207033	-388.286818	-388.278185	-388.277241	-388.319507	35.138	
C	 0.0156556637	 1.5891832013	 0.0572330577	-0.409851
C	-0.0049795328	 0.0560980682	 0.0541220278	-0.22306
C	-1.4116036513	-0.5551643735	-0.033371865	 0.432085
O	-2.1914080961	-0.1360390899	 1.089396665	-0.495674
C	-2.158309441	-0.3218220705	-1.3994274201	-0.273232
C	-2.4450250368	-1.7868494842	-1.7865427457	-0.017763
C	-2.8965439415	-2.4056594361	-0.432277413	-0.228366
C	-1.4228151196	-2.099636516	-0.0345758053	-0.039495
C	-1.068371393	-2.4548991265	-1.5092443505	-0.233493
H	 1.0427517944	 1.9639850167	 0.0931999884	 0.118473
H	-0.4555221189	 2.0051018845	-0.8401930902	 0.118408
H	-0.5023777839	 1.9967299417	 0.9324628231	 0.111269
H	 0.6036282771	-0.310053034	-0.7794414667	 0.094965
H	 0.4641324854	-0.31227131	 0.9745451894	 0.099727
H	-2.3207764213	 0.8150568592	 1.0241634507	 0.27474
H	-3.0712584309	 0.2627889551	-1.2515395734	 0.08993
H	-1.5385160409	 0.1882103055	-2.1439203131	 0.090028
H	-2.99374364	-1.9590193734	-2.7134173112	 0.054937
H	-3.6847782757	-1.9085097406	 0.1341678629	 0.104747
H	-3.0901373739	-3.4780397671	-0.5096093535	 0.089682
H	-0.9372498403	-2.5798353698	 0.8156648982	 0.059093
H	-1.0808067875	-3.5335549634	-1.682380504	 0.096277
H	-0.1751250952	-2.0184509772	-1.9650815614	 0.086572
