16
gdb 82260	3.14494	1.39667	1.06996	3.7953	76.21	-0.2672	-0.0604	0.2068	1093.9048	0.124851	-400.756155	-400.748406	-400.747462	-400.788444	29.286	
C	-0.0921564721	 1.5527751378	 0.0050316039	-0.404888
C	 0.0149278194	 0.0218068678	-0.0024837935	-0.13082
C	 0.802523623	-0.5359830829	-1.1874532023	 0.02766
O	 2.1564131912	-0.0892812899	-1.2495058484	-0.247805
C	 1.8893803258	-1.3928050804	-0.6807513015	 0.00112
C	 1.7992724401	-1.3591641338	 0.8058595809	-0.18591
C	 0.7930561126	-0.5539820367	 1.1852177393	 0.187601
C	 0.4624328794	-0.2207711541	 2.5259359154	 0.226154
N	 0.1542018841	 0.0662662745	 3.6055287417	-0.338964
H	 0.9022658683	 1.9985673776	-0.0757335201	 0.144049
H	-0.6972710719	 1.8980308486	-0.8383067538	 0.123756
H	-0.5610947302	 1.9065235529	 0.9272435542	 0.141138
H	-0.9950748592	-0.4093654652	-0.0067925721	 0.105142
H	 0.3154878454	-0.6951840608	-2.1455877938	 0.107284
H	 2.3162834667	-2.2325113282	-1.218487572	 0.11202
H	 2.4697766274	-1.8847547973	 1.4729793421	 0.132461
