15
gdb 35833	2.07815	1.64483	1.03343	3.9513	79.27	-0.2558	-0.0498	0.206	1131.5467	0.113104	-379.643519	-379.635273	-379.634329	-379.676876	30.212	
C	 0.0369313057	-1.1716719935	 0.4342921175	-0.467136
C	-0.003678207	 0.0015277884	 0.180008399	 0.397334
C	-0.0210113191	 1.4306328695	-0.1472956219	-0.323653
N	-0.8098090186	 2.2317421702	 0.8145989484	-0.288354
C	 0.1385752756	 2.9342183999	 1.6992795851	-0.210716
C	 1.4685175752	 2.8584721183	 0.994358944	-0.179857
C	 1.3955057497	 2.0293547381	-0.0502450049	 0.222988
C	 2.442187399	 1.6708333078	-0.9363390235	 0.223732
N	 3.2709918493	 1.3712074414	-1.6883105381	-0.33337
H	 0.0661907692	-2.2089510631	 0.6612555934	 0.206532
H	-0.4338870147	 1.5491124534	-1.1559509922	 0.123748
H	-1.3389407252	 2.9182601776	 0.2915478105	 0.233806
H	-0.1894197272	 3.9625942853	 1.8862150567	 0.124453
H	 0.2041535539	 2.442921448	 2.6817641989	 0.137989
H	 2.3620337342	 3.371038429	 1.3278595671	 0.132504
