25
gdb 93849	2.12105	1.52696	1.14048	1.3608	87.48	-0.258	0.0698	0.3277	1232.5207	0.228335	-389.515761	-389.505383	-389.504439	-389.550025	40.319	
C	-0.792429707	 1.1815371313	-0.0178186329	-0.422949
C	 0.0999894921	-0.0575834091	-0.0731374549	 0.034974
C	 1.2190031019	 0.0261911474	-1.145669335	-0.228242
C	 2.3702315036	-0.8769245685	-0.6312021125	-0.264409
C	 1.8493926145	-1.4782461543	 0.6916305293	 0.129804
O	 2.8545700882	-1.755901833	 1.6537911948	-0.447664
C	 0.838390986	-0.4440998928	 1.2400713544	 0.273004
C	 1.5764813941	 0.7501022474	 1.8734364479	-0.427006
C	-0.0914572124	-1.0793678441	 2.27957777	-0.448273
H	-0.2130397878	 2.086276945	 0.1927134959	 0.116383
H	-1.2995698803	 1.3333278295	-0.9769329793	 0.110131
H	-1.5669463338	 1.0912410562	 0.7512854452	 0.112497
H	-0.540674955	-0.9145037851	-0.3268522587	 0.062651
H	 0.848569183	-0.2832342513	-2.1272493814	 0.094118
H	 1.5598546467	 1.0608955556	-1.2571203867	 0.098179
H	 2.6530383305	-1.6536156252	-1.3486605306	 0.087059
H	 3.2711118125	-0.293615493	-0.4173164592	 0.10543
H	 1.2870675182	-2.4008343735	 0.4699542314	 0.055023
H	 3.432868514	-2.4358727769	 1.2959660194	 0.281677
H	 2.1997984132	 1.2862611926	 1.151129819	 0.106544
H	 0.8646914695	 1.4668011885	 2.2938160091	 0.106502
H	 2.2289023184	 0.4048793091	 2.6785150124	 0.131697
H	 0.4845670771	-1.4496888334	 3.1335669315	 0.123926
H	-0.8241383871	-0.3583339273	 2.6577057752	 0.107037
H	-0.6430590399	-1.9256769551	 1.8539478958	 0.101909
