20
gdb 93130	2.54264	1.41479	0.95779	2.5811	82.03	-0.2256	-0.0234	0.2022	1230.7096	0.170755	-403.154005	-403.14521	-403.144266	-403.187586	32.987	
C	-0.1749012685	 1.5056081041	 0.0566317337	-0.327585
N	-0.0243943226	 0.0567267839	 0.0345164234	-0.094534
C	-1.3217368746	-0.5777255096	-0.1883586738	-0.183762
C	-1.3071498824	-2.0625173476	 0.0170369276	-0.059582
C	-0.2897509129	-2.6988166847	 0.5861617943	-0.07142
C	 0.9260983467	-1.9706714087	 1.0810544722	-0.270357
C	 0.6733872253	-0.4516123486	 1.2115869648	-0.022369
C	 2.0464655913	 0.1939829503	 1.3214256632	 0.141065
O	 2.5797957939	 0.5019042535	 2.3543706839	-0.252012
H	 0.8004065601	 1.9956319281	 0.130750115	 0.127465
H	-0.6432824488	 1.8373811884	-0.8753743316	 0.122822
H	-0.7994127376	 1.8614909714	 0.8974687527	 0.101655
H	-2.1046462691	-0.1362245425	 0.46465408	 0.089572
H	-1.6363246699	-0.3501960347	-1.2165343969	 0.113362
H	-2.1883314466	-2.6014656737	-0.3188542537	 0.094273
H	-0.3071638141	-3.7785401986	 0.7071639026	 0.093204
H	 1.2417441738	-2.3548883304	 2.0577067122	 0.123219
H	 1.7682978741	-2.148362452	 0.3955580865	 0.11578
H	 0.1295502213	-0.2534451647	 2.1529884887	 0.07295
H	 2.5580564006	 0.3040323761	 0.3365932755	 0.086254
