19
gdb 72184	3.07964	2.04115	1.6263	0.3743	77.53	-0.206	0.0675	0.2735	891.3158	0.161816	-381.999132	-381.992471	-381.991527	-382.029619	28.288	
C	 0.03215067	 1.5602468906	 0.0054715134	-0.480491
C	-0.0111842216	 0.0606656722	 0.1164467813	 0.361857
C	-1.2862303994	-0.7193930651	 0.4003199399	-0.220852
N	-0.4729370907	-1.7887606084	 1.0850525332	-0.133293
C	-0.0910741265	-2.7679902492	 0.053624614	-0.198722
C	 0.956180338	-2.0561547682	-0.7826047982	-0.037102
C	 1.7403163148	-1.1798201412	 0.0990819323	-0.050701
C	 0.7125286257	-0.8063889268	 1.1700966685	-0.087143
N	 0.864937217	-0.5751618004	-0.9802768093	-0.202158
H	 1.0649196301	 1.9210164434	-0.0236090805	 0.124427
H	-0.4587516649	 1.8860428298	-0.9182204216	 0.12738
H	-0.4782390052	 2.0281197575	 0.8537150663	 0.113924
H	-1.9433349241	-0.2171430714	 1.1192119453	 0.101881
H	-1.8820785064	-1.0648470413	-0.4514782456	 0.100991
H	 0.3542239599	-3.6639418166	 0.506116782	 0.104583
H	-0.9803845284	-3.0829844383	-0.5006404107	 0.109516
H	 1.4251223845	-2.5516939958	-1.627480204	 0.097528
H	 2.8178227106	-1.0644959582	 0.1235827921	 0.093873
H	 0.9907750964	-0.5095303125	 2.1797654017	 0.074502
