20
gdb 118978	3.19498	0.95568	0.90816	1.6529	75.09	-0.2499	0.0196	0.2695	1367.2532	0.170774	-440.296308	-440.286896	-440.285952	-440.331118	34.346	
C	 0.1470923017	 1.4790376244	 0.0505575306	-0.42368
C	-0.0273766166	-0.0459390621	 0.0096614301	 0.262732
C	-1.5098457914	-0.4626451813	-0.0140329586	-0.233943
C	-2.3447440832	 0.0278394303	 1.1728322426	-0.07467
O	-3.6832033243	-0.446009049	 1.1088158775	-0.419597
C	 0.753441923	-0.6773241352	-1.1858719972	-0.149184
O	 1.8164780032	-1.4414024381	-0.5681221958	-0.221468
C	 1.5968267571	-1.3400228856	 0.763382883	 0.114714
N	 0.6397935923	-0.6364230422	 1.1997757871	-0.291166
H	 1.2068843325	 1.7425493484	-0.0180532349	 0.118906
H	-0.3806477312	 1.9543852442	-0.7836303021	 0.114522
H	-0.2361362347	 1.8928557343	 0.9859697211	 0.135594
H	-1.9723868377	-0.1091361447	-0.9444163365	 0.102807
H	-1.5523937488	-1.5603761027	-0.0372805203	 0.086233
H	-1.854731228	-0.258147881	 2.1129565378	 0.115261
H	-2.4251933582	 1.1189693042	 1.1631482253	 0.109785
H	-3.6605575946	-1.4006330133	 1.2288635713	 0.279961
H	 0.1436563834	-1.3640455094	-1.7810314218	 0.114613
H	 1.2077759345	 0.0641929446	-1.8481035454	 0.117957
H	 2.299270881	-1.8983836158	 1.3730968164	 0.140622
