16
gdb 54618	4.16804	1.04621	0.84121	10.7744	93.67	-0.1408	-0.0577	0.083	1294.9977	0.124985	-434.065807	-434.057134	-434.05619	-434.098987	33.155	
N	 0.0245542348	 1.321335607	 0.0723296422	-0.539959
C	-0.0562294354	-0.0454110713	-0.0043776721	 0.22132
N	 1.1476548799	-0.726375636	-0.0703150279	-0.56364
H	 1.9372441496	-0.1671497767	-0.361065909	 0.263082
H	 1.1069403566	-1.5884891813	-0.5943002671	 0.270004
C	-1.2806272381	-0.6848281707	-0.0122772344	 0.39291
C	-2.5933879434	-0.1862751936	-0.0957066948	-0.433966
C	-3.5422651324	-1.2763430215	-0.0519694551	 0.36702
O	-4.7790531284	-1.2852512873	-0.1137937549	-0.473463
C	-2.6649482156	-2.4392466793	 0.0878048096	-0.179258
H	-2.9526396115	-3.4720374176	 0.2294290807	 0.126179
N	-1.3607597333	-2.0872669858	 0.0493511544	-0.333595
H	 0.8825477442	 1.7067110324	 0.4388906754	 0.261414
H	-0.8026425673	 1.7726334608	 0.4355625483	 0.280883
H	-2.8603596111	 0.8427255333	-0.2910788273	 0.083413
H	-0.6380237987	-2.6514187724	 0.4715377117	 0.257657
