16
gdb 43999	3.63473	1.52823	1.46163	3.8266	68.82	-0.2402	0.0464	0.2867	939.8374	0.125244	-437.846302	-437.839516	-437.838572	-437.877361	27.518	
N	-0.0808150087	 1.1524026922	-0.5547876969	-0.556672
C	-0.0092371761	 0.0331095962	 0.0022424362	 0.452054
O	 1.1498079084	-0.6396228383	 0.3688384087	-0.28221
C	 0.7799101034	-1.8435471455	 0.9873642478	 0.291556
C	 0.0256232455	-1.7788782061	 2.2895668884	-0.391903
C	-0.7185767771	-1.8651030247	 0.9841298678	 0.305505
C	-0.7375616383	-3.245992278	 0.3109173906	-0.288613
C	 0.8379941553	-3.2235950616	 0.3127335996	-0.288095
O	-1.1291573616	-0.677186968	 0.3646672829	-0.255057
H	 0.8494157291	 1.5219142666	-0.7336527076	 0.238908
H	 0.0365765876	-2.6312426077	 2.9620892765	 0.129451
H	 0.0099813872	-0.8080469301	 2.770329942	 0.147867
H	-1.2348196039	-4.0429008257	 0.869134776	 0.115566
H	-1.1540275666	-3.2005485965	-0.6960234813	 0.134528
H	 1.2552667313	-3.1671384702	-0.6934200308	 0.131827
H	 1.3567974543	-4.0062460626	 0.8717342501	 0.115288
