20
gdb 82991	3.51689	1.5622	1.44103	0.6645	77.54	-0.2084	0.0877	0.296	990.478	0.174173	-403.113685	-403.106755	-403.105811	-403.144575	28.992	
C	 0.0119412493	 1.4732539497	-0.1668455778	-0.328427
N	-0.0026679258	 0.0244423751	 0.0063397938	-0.103526
C	-1.1856009616	-0.5290356894	 0.7598739942	-0.052461
C	-0.8973367534	-2.0301334205	 0.5912373479	-0.207587
C	 0.5377602493	-2.0135479383	 1.2122985447	-0.066759
C	 0.3735270995	-2.2673783832	 2.711339741	-0.084952
O	-0.4865192398	-1.1922364803	 3.1430635231	-0.283945
C	-0.4411697903	-0.2231213746	 2.1194493679	 0.135456
C	 0.7666416249	-0.4682500183	 1.1881613381	-0.041555
H	 0.9923397505	 1.7735289021	-0.5520387729	 0.119937
H	-0.7353333771	 1.7452283861	-0.9194560698	 0.120267
H	-0.1881809154	 2.0707902582	 0.7383240422	 0.097073
H	-2.1741818825	-0.1453397604	 0.5049188669	 0.06425
H	-1.5823565114	-2.6762092527	 1.1459970095	 0.098944
H	-0.9042504739	-2.3044543268	-0.4645881276	 0.105438
H	 1.2842030844	-2.631966292	 0.7154445387	 0.072899
H	-0.1135180186	-3.2222607293	 2.9346916285	 0.106918
H	 1.3262989993	-2.2240769361	 3.2601551723	 0.091469
H	-0.5979136001	 0.7676112789	 2.5399559788	 0.088006
H	 1.7736923226	-0.0864421183	 1.3584051605	 0.068558
