19
gdb 41232	3.28963	1.82145	1.7178	1.8653	76.75	-0.2414	0.0775	0.3189	879.8784	0.163468	-385.839954	-385.833977	-385.833032	-385.869791	26.777	
C	 0.049298254	 1.5024580777	-0.2172846436	-0.179562
O	 1.4726341989	 1.4491116883	 0.1430711164	-0.366386
C	 1.1880765479	 0.2600538368	 0.9106918369	 0.427078
C	 1.825851049	-1.1285697685	 1.0373462808	-0.311498
C	 0.517118803	-1.7615051179	 1.5955120778	-0.057236
C	-0.1771533993	-0.7205274843	 2.4555655072	-0.052384
C	 0.6821822475	 0.5256469229	 2.3566968146	-0.280263
C	-0.7222758971	-0.9848742308	 1.0666801069	-0.131305
C	-0.0673073048	-0.0201876479	 0.1002276004	-0.011037
H	-0.5033830087	 2.1867053608	 0.434624396	 0.108437
H	-0.0825807377	 1.794464533	-1.2619593135	 0.110026
H	 2.1352377343	-1.5502319786	 0.0777255993	 0.105143
H	 2.6497770501	-1.2081729869	 1.7531298258	 0.099395
H	 0.4547292131	-2.8184320225	 1.8180332202	 0.086783
H	-0.7301774975	-0.990825484	 3.3460498863	 0.083237
H	 1.5064420698	 0.5482079024	 3.0769788741	 0.097813
H	 0.1145156047	 1.4543362496	 2.4476016212	 0.099856
H	-1.6573666694	-1.5047775207	 0.9033871539	 0.083521
H	 0.1953874723	-0.5446629195	-0.8240992707	 0.08838
