19
gdb 57884	2.5584	1.32745	0.99601	2.7164	72.05	-0.2625	-0.0399	0.2226	1227.5515	0.155872	-460.160953	-460.151157	-460.150213	-460.195634	35.927	
C	-0.7316285102	 1.7260309874	 0.4310588965	-0.413348
C	-0.0967400593	 0.3698162493	 0.0857996684	 0.071595
O	 0.7869494197	-0.0135043247	 1.1076154659	-0.441935
C	-1.1062125389	-0.7610183813	-0.1444421851	 0.273602
O	-1.0793606008	-1.7360311833	 0.58065917	-0.337518
C	-2.0643792411	-0.7271082071	-1.3124958748	 0.320109
C	-2.2622399244	-2.0554214993	-2.007800761	-0.462056
C	-3.1415381793	 0.2856285472	-1.3257303524	-0.214693
O	-1.9904770475	 0.4317255689	-2.1526031491	-0.258001
H	 0.0734430792	 2.4094797222	 0.7118078928	 0.136488
H	-1.2648544053	 2.1472009265	-0.4226144836	 0.136826
H	-1.4062558052	 1.6351277014	 1.2880854956	 0.119731
H	 0.4508080359	 0.4830586898	-0.865157049	 0.103379
H	 0.4729850025	-0.8792761811	 1.4139893633	 0.292063
H	-2.585107094	-2.8082072445	-1.2856291365	 0.15211
H	-3.0097679877	-1.9603394608	-2.7982834793	 0.128543
H	-1.3245845262	-2.3979489912	-2.4563625228	 0.136552
H	-4.0664373384	 0.040669392	-1.8456030934	 0.128921
H	-3.236687369	 1.0057292886	-0.5165729356	 0.127631
