20
gdb 6139	2.89849	1.77797	1.50828	2.2227	71.05	-0.2408	0.0636	0.3044	969.5916	0.174056	-386.137171	-386.127742	-386.126798	-386.170803	34.889	
C	-0.256997715	 1.1543220341	-1.3752876529	-0.413581
C	 0.3135142154	-0.1279921384	-0.8035479483	 0.130215
O	 1.7001411224	-0.331124947	-1.1554110708	-0.343324
C	 2.1030856589	-0.4865913837	 0.2398993146	 0.407194
C	 2.5439834175	-1.9216114544	 0.5072119657	-0.428709
C	 3.1759459432	 0.5251514317	 0.610555629	-0.420495
C	 0.6574403842	-0.1686163037	 0.7109790207	-0.003576
O	 0.5721173192	 1.0444791566	 1.4238630186	-0.419989
H	 0.2683829192	 2.0263670767	-0.9798560542	 0.131894
H	-0.1588951967	 1.1476518005	-2.4650625132	 0.12734
H	-1.3225488941	 1.2466756447	-1.1339947121	 0.103048
H	-0.2927559108	-0.9883532749	-1.1236797354	 0.06335
H	 3.4457308155	-2.1531497247	-0.0682701196	 0.123524
H	 2.7660549236	-2.0689128395	 1.5697177594	 0.114776
H	 1.764294141	-2.6316502184	 0.2149937173	 0.113684
H	 2.8275446442	 1.5448619132	 0.4435671601	 0.130468
H	 3.4592889711	 0.4260815536	 1.6629515132	 0.115071
H	 4.0637491343	 0.3500141684	-0.0056039757	 0.116428
H	 0.1774731724	-0.9848469213	 1.2657826042	 0.064226
H	-0.3497797356	 1.1986131364	 1.6522096892	 0.288457
