15
gdb 127676	3.57129	1.1869	0.89588	0.2714	70.81	-0.2478	-0.0071	0.2407	1229.2589	0.113931	-450.147374	-450.138992	-450.138048	-450.181685	28.518	
C	 0.0074640128	 1.4100919514	 0.0482583106	-0.339423
N	 0.028295724	-0.0370173785	 0.0447527907	-0.064644
N	 0.0628519282	-0.7539871691	-1.1185643036	-0.256013
C	 0.0724420178	-1.9983468236	-0.6837796734	 0.03666
N	 0.0470473305	-2.1498529578	 0.6733406849	-0.380207
C	 0.0201515614	-0.898759803	 1.0777933257	 0.53163
O	-0.0125494728	-0.4215513147	 2.3357045327	-0.231177
C	-0.0218054534	-1.3310197985	 3.3681128726	 0.11133
N	-0.0535027953	-0.8788615379	 4.5389849221	-0.425792
H	 0.9027725344	 1.7977253088	-0.4437516885	 0.156202
H	-0.8771113119	 1.7720436005	-0.4812531763	 0.156215
H	-0.0192562238	 1.7507083798	 1.0834175438	 0.168758
H	 0.0985235521	-2.837168479	-1.3628919153	 0.13305
H	 0.0006358999	-2.3632927369	 3.0171959329	 0.159328
H	-0.0566924039	-1.6476139016	 5.2068488711	 0.244084
