16
gdb 14549	4.9747	1.52481	1.4248	2.584	67.04	-0.2497	-0.0308	0.2189	901.1187	0.13013	-383.720313	-383.713095	-383.712151	-383.751608	27.604	
O	-0.1219225023	 1.3678681154	 0.0122462401	-0.481869
C	-0.0911668453	-0.0170805403	 0.015873853	 0.379984
C	 1.0093579599	-0.5820821963	-0.7901241293	 0.09275
O	 1.7918661324	 0.1272777589	-1.3845648129	-0.298226
C	-0.4546418929	-0.8178157474	 1.2533072364	-0.132246
C	-1.5141361106	-0.0399755517	 2.0454187207	-0.233725
C	-2.4454365682	-0.0640391907	 0.7903669435	-0.233724
C	-1.3660003725	-0.8413495894	 0.0251174969	-0.132256
H	 0.6257570029	 1.6311029242	-0.5482195863	 0.296408
H	 1.0787028735	-1.6882882521	-0.8202202497	 0.092615
H	 0.2026358748	-1.5843641457	 1.6490125664	 0.093726
H	-1.9201506056	-0.621453172	 2.8751426565	 0.108747
H	-1.2021145872	 0.9413926255	 2.4077634318	 0.122675
H	-3.346456808	-0.6582702385	 0.9530290282	 0.108748
H	-2.7196334996	 0.9021933046	 0.3626479108	 0.122665
H	-1.5399557413	-1.6293532244	-0.6994375762	 0.093728
