18
gdb 658	4.29007	4.28816	2.44709	0.	62.98	-0.2913	0.087	0.3783	593.5711	0.169722	-235.729507	-235.723729	-235.722785	-235.758349	23.005	
C	-0.0219289296	 1.528322794	 0.044393621	-0.175863
C	 1.4078990992	 2.0854253253	-0.0142873274	-0.175805
C	 2.1641232938	 1.5644540431	-1.2454269394	-0.176057
C	 2.1568342392	 0.0295174709	-1.301591782	-0.175863
C	 0.7270053072	-0.5275859521	-1.2429114035	-0.175805
C	-0.0292185328	-0.0066166388	-0.0117729922	-0.176057
H	-0.5294077315	 1.8780328268	 0.950563698	 0.086365
H	-0.5975353245	 1.9226118166	-0.8050583731	 0.08953
H	 1.3889537624	 3.1811348794	-0.0147735462	 0.08635
H	 1.9487510146	 1.7848224481	 0.8942177587	 0.089545
H	 1.6886260888	 1.9602405623	-2.1540163951	 0.089558
H	 3.1934974459	 1.9404479693	-1.2464209565	 0.086376
H	 2.6643128268	-0.3202010834	-2.2077592668	 0.086365
H	 2.7324383605	-0.364771928	-0.4521376345	 0.08953
H	 0.1861546946	-0.2269832513	-2.1514169166	 0.089545
H	 0.7459513455	-1.6232953665	-1.242425558	 0.08635
H	 0.4462760281	-0.4024023226	 0.8968173806	 0.089558
H	-1.0585950982	-0.3826035931	-0.0107827772	 0.086376
