20
gdb 86934	3.4312	0.8624	0.74418	3.4067	78.84	-0.2283	0.0059	0.2341	1548.2091	0.168651	-440.286101	-440.276291	-440.275346	-440.321678	34.737	
C	 0.0776348219	 1.5188620021	 0.0196257606	-0.414641
C	 0.0664720349	 0.0068167524	-0.1071657495	 0.049531
C	 0.8245754615	-0.6804290144	-1.2663026915	 0.098703
C	 1.2813631017	-1.7197326278	-0.2246693735	-0.205098
N	 0.9421945478	-0.7411761733	 0.825472118	-0.084992
C	 0.3795535468	-1.2292473842	 2.0658201926	-0.324972
O	 0.0195325689	-1.1727873166	-2.3253560401	-0.185025
C	 0.3565101107	-0.8639767969	-3.5935083036	 0.16498
O	-0.2716488691	-1.2364752111	-4.5371172072	-0.272919
H	 1.1024708687	 1.9009921713	-0.0093891923	 0.12111
H	-0.4962290504	 1.9788029573	-0.7922191132	 0.122623
H	-0.374858215	 1.8357763586	 0.9651351153	 0.12419
H	-0.9688849838	-0.3764877247	-0.0978805906	 0.075217
H	 1.6438759668	-0.0694408836	-1.6594088864	 0.095486
H	 0.6154821035	-2.5974554567	-0.2470823686	 0.103691
H	 2.3239233458	-2.0532279054	-0.2373137644	 0.107503
H	 1.1298722374	-1.8134044614	 2.6088930242	 0.124478
H	 0.0922413951	-0.3848374341	 2.7008904721	 0.123856
H	-0.5114177442	-1.8679578748	 1.9167544155	 0.09623
H	 1.267090171	-0.2360132767	-3.6535911175	 0.080049
