16
gdb 61345	3.12339	0.90302	0.77804	3.3399	80.23	-0.259	-0.03	0.2289	1459.1391	0.120556	-400.706542	-400.696492	-400.695547	-400.742466	35.676	
C	 0.0668600806	 1.6609252511	 0.0997246227	-0.386569
C	 0.0433667589	 0.1237361963	-0.0031860724	-0.118797
N	 0.6550330826	-0.3479154208	-1.2472758401	-0.329508
C	-0.0752688028	-0.4787148164	-2.3901157035	 0.304801
O	-1.2570976051	-0.1915866153	-2.4715722966	-0.373317
C	 0.690773211	-0.9965739194	-3.5164243849	 0.207848
C	 1.2969033009	-1.419444332	-4.4645380004	-0.385846
C	 0.7027268142	-0.5108825425	 1.1366024101	 0.285481
C	 1.2688635817	-1.0077132593	 2.0725656101	-0.430979
H	 1.095404233	 2.0314718864	 0.1068528427	 0.123312
H	-0.4640809418	 2.0852927281	-0.7553482291	 0.145421
H	-0.426088348	 1.9841103175	 1.0203884533	 0.131325
H	-1.0036042547	-0.197044289	-0.0468259271	 0.148662
H	 1.6259338298	-0.6163989897	-1.2432839414	 0.263501
H	 1.8210542552	-1.7932894974	-5.3102294889	 0.210699
H	 1.7508611344	-1.4573355975	 2.9055257853	 0.203964
