17
gdb 22351	2.38121	1.3602	0.91057	3.4263	72.72	-0.246	-0.0092	0.2368	1239.5063	0.135468	-455.156701	-455.147869	-455.146924	-455.190796	32.615	
C	-0.0805477178	 1.5889275729	 0.0425999629	-0.385366
C	 0.0076751125	 0.059718066	 0.0271979496	-0.04134
N	 0.7726470634	-0.4649400211	-1.0948238278	-0.323347
C	 1.8385652836	-1.274464018	-0.8030225377	 0.416058
O	 2.5696877125	-1.8032547486	-1.6091899031	-0.375697
C	 1.9182534646	-1.375978888	 0.7221705388	-0.450182
C	 0.7826873763	-0.52069666	 1.2059553032	 0.390748
N	 0.4338112143	-0.2492140005	 2.3966022308	-0.217648
O	 1.272583461	-0.8780544283	 3.3261245855	-0.385695
H	 0.918799807	 2.0332498777	 0.0507679862	 0.125757
H	-0.6171870088	 1.9549845587	-0.8387687434	 0.114683
H	-0.6172919482	 1.916750163	 0.9360992784	 0.142768
H	-1.0119144952	-0.3522154165	 0.0214644044	 0.107808
H	 0.530172354	-0.278079854	-2.055070336	 0.252016
H	 1.8221786116	-2.4181113682	 1.044710427	 0.159248
H	 2.890126921	-1.0290158233	 1.0871914299	 0.159832
H	 0.9026076081	-0.5900348616	 4.1677932011	 0.310359
