19
gdb 106740	2.34076	1.48153	1.08998	3.6796	77.01	-0.2449	-0.014	0.2309	1165.6637	0.158036	-423.021128	-423.012035	-423.011091	-423.05519	33.904	
C	-0.0279095825	 1.5151216394	 0.0839064259	-0.492074
C	 0.0283057638	 0.01548505	 0.0537513285	 0.27445
C	 1.2328647583	-0.7802735708	-0.3121694071	-0.366018
C	 0.676838306	-0.9636009275	 1.0957218687	 0.172751
C	 1.4618669007	-0.8280227758	 2.3744949688	-0.183078
O	 1.9662955169	-2.0891768356	 2.783953342	-0.416152
C	-0.5629173484	-1.7832282561	 1.0199068422	 0.385149
O	-0.9786169716	-2.6624086911	 1.7317183737	-0.344634
C	-1.2086606165	-0.9007379754	-0.0740532653	-0.412104
H	 0.9345788559	 1.9441834418	 0.3792189289	 0.126233
H	-0.2763527236	 1.9129929683	-0.9070849106	 0.131741
H	-0.7897142055	 1.873767181	 0.7844512106	 0.126552
H	 1.175138041	-1.5846243783	-1.0414192857	 0.120102
H	 2.1759844411	-0.2405471154	-0.3259208358	 0.124797
H	 2.3254074243	-0.1676083084	 2.244082467	 0.107667
H	 0.8233338613	-0.3863942541	 3.156129622	 0.095246
H	 1.201903788	-2.6742427427	 2.8641082281	 0.297839
H	-2.1373419594	-0.4572464209	 0.2988049769	 0.130668
H	-1.3934342398	-1.3478993186	-1.055623639	 0.120866
