23
gdb 117820	1.87074	1.16675	1.13167	2.4109	82.98	-0.2364	-0.0232	0.2132	1360.6404	0.201268	-425.438326	-425.42695	-425.426006	-425.474981	40.566	
C	 0.1914121879	 1.5638821028	-0.076715396	-0.38397
C	-0.1357542211	 0.0802845278	-0.1055914266	-0.047702
O	 0.6231330694	-0.5022903939	-1.1609698764	-0.281948
C	 0.7418112477	-1.9070784004	-1.2010662387	 0.266033
C	-0.6177566206	-2.6340786083	-1.1798586602	-0.44886
C	 1.4856436062	-2.2345560462	-2.5187516228	-0.203905
C	 2.8127229314	-1.4908783475	-2.691582738	-0.392563
C	 1.5962058799	-2.4440973412	-0.0484421543	 0.154358
O	 2.1362256981	-1.7775114599	 0.7942044484	-0.262391
H	 1.2520594182	 1.7122122081	 0.1423376198	 0.133641
H	-0.0301562533	 2.0257681115	-1.0433949726	 0.12169
H	-0.4001231793	 2.0691578753	 0.6928599957	 0.111768
H	 0.1166806069	-0.3809177505	 0.8553635647	 0.11129
H	-1.2114222585	-0.0686919117	-0.2846906656	 0.085021
H	-1.2334822292	-2.2773375125	-2.0103582975	 0.13269
H	-0.4801251696	-3.7134119862	-1.2937959009	 0.122168
H	-1.1611914007	-2.4620107339	-0.2469252195	 0.128247
H	 1.6452184132	-3.3186497257	-2.5675951709	 0.097476
H	 0.8051632517	-1.9811238464	-3.339531833	 0.108028
H	 3.2659893924	-1.740267378	-3.6555098618	 0.109943
H	 2.6537742044	-0.4118851798	-2.6499218025	 0.142356
H	 3.5306738192	-1.7520367235	-1.9072766624	 0.123418
H	 1.6964781559	-3.5567185399	-0.056183159	 0.073214
