17
gdb 30282	3.0182	1.62952	1.12206	1.7781	74.1	-0.2188	0.0025	0.2213	1062.1054	0.138781	-418.024094	-418.016616	-418.015672	-418.056279	28.39	
C	 0.0738134893	 1.5931296435	-0.0470694968	-0.362873
C	-0.0162274255	 0.0702301304	 0.0727529317	-0.103427
N	 0.6706936966	-0.61073498	-1.0773858534	-0.325495
C	 1.5567031888	-1.7298874253	-0.6432680538	-0.288353
C	 1.5707217716	-1.4820671621	 0.8201160275	 0.295262
C	 0.730625994	-0.5200106826	 1.2269556595	 0.256472
N	 0.8283473779	-0.3622661561	 2.6011075606	-0.344456
C	 1.7218554213	-1.2422869005	 2.9309118045	 0.032414
O	 2.2366794365	-1.9778481926	 1.8942151604	-0.195496
H	 1.1197014292	 1.9065424692	-0.1028356668	 0.119839
H	-0.4368732471	 1.9378288704	-0.9513913297	 0.109687
H	-0.3939546076	 2.0726220774	 0.8190006284	 0.122084
H	-1.0804627301	-0.2131663177	 0.1156727022	 0.080087
H	-0.0029495263	-0.9318527531	-1.7590832179	 0.222637
H	 1.15291335	-2.7219598006	-0.9002256992	 0.109628
H	 2.5461984126	-1.6530532651	-1.1143884707	 0.123072
H	 2.1100010188	-1.4700776451	 3.9110070735	 0.148917
