14
gdb 133251	3.2252	1.43461	0.99921	4.4957	72.56	-0.2254	-0.0616	0.1638	1094.5193	0.100378	-474.120447	-474.112615	-474.111671	-474.153242	28.426	
C	-0.0323970684	 1.4537117455	 0.0096563546	-0.337266
N	-0.0066773934	-0.0002214833	 0.0529705971	-0.107357
N	-0.0451968492	-0.6415368088	-1.1595273399	-0.0525
N	-0.0270281123	-1.8935639374	-1.218108383	-0.249977
C	 0.0338871155	-2.7346639399	-0.051885932	 0.399201
N	 0.0501795784	-4.0063308833	-0.1689376348	-0.523358
C	 0.0744429578	-2.0546850785	 1.2286631621	-0.3922
C	 0.0520494105	-0.7167305348	 1.2170729141	 0.470653
F	 0.0836683048	 0.0356278073	 2.3065037355	-0.05355
H	 0.8698946001	 1.8743805528	 0.461770482	 0.15407
H	-0.0791601859	 1.7288961902	-1.0433536976	 0.170378
H	-0.9089611674	 1.8450691678	 0.533093556	 0.154065
H	 0.0140581755	-4.2466904492	-1.161753173	 0.223943
H	 0.120878354	-2.6131288685	 2.1522148588	 0.143899
