18
gdb 122799	4.26783	0.65457	0.59111	3.2815	72.53	-0.2635	-0.0744	0.1892	1851.3523	0.144784	-476.216489	-476.206402	-476.205458	-476.25322	33.961	
C	-0.1286170717	 1.3400629557	 0.0186935271	-0.226947
O	 0.0177016846	-0.0601688897	 0.0316694121	-0.227385
C	 0.5426413914	-0.5674070547	-1.1706619094	-0.067225
C	 0.624277755	-2.0736360909	-1.0761883395	-0.072799
O	-0.712425786	-2.595324707	-1.0931287936	-0.23804
C	-0.8317616416	-3.9252715476	-0.9926183032	 0.317503
N	 0.1429128717	-4.7310866574	-0.9072793368	-0.509191
C	-2.2912081216	-4.3277652118	-0.9968886311	 0.107899
O	-2.6340409308	-5.4783575044	-0.9226673371	-0.235677
H	 0.8364223997	 1.8511372268	-0.1276091697	 0.105125
H	-0.8157476913	 1.6716502633	-0.7756452826	 0.10688
H	-0.5399617597	 1.6337255279	 0.987101839	 0.131656
H	-0.0870558963	-0.2803392391	-2.0293275143	 0.097378
H	 1.5564770292	-0.1730912402	-1.3578394558	 0.092923
H	 1.1865427203	-2.4899204844	-1.9187562959	 0.125003
H	 1.1206068179	-2.3825491423	-0.1511795197	 0.138102
H	-0.2325457328	-5.6799843793	-0.8424830171	 0.246367
H	-3.009424998	-3.487600785	-1.0720349022	 0.108428
