18
gdb 96728	1.91249	1.22887	0.87491	3.4184	72.65	-0.2568	-0.0251	0.2318	1374.8171	0.143772	-476.242919	-476.232326	-476.231382	-476.279672	36.02	
C	 0.1314982053	 1.5199464885	-0.3442870241	-0.334533
N	 0.0390734018	 0.0767558552	-0.2786825235	-0.289542
C	-1.0331877945	-0.5258279753	-0.0248153515	 0.412438
O	-1.0482253789	-1.9175763113	 0.0150801143	-0.242957
C	 0.1129663313	-2.6075705431	 0.2540700138	 0.174739
O	 0.1368054235	-3.7969512774	 0.1958163337	-0.257979
C	-2.4555536023	-0.0368941838	 0.2233129484	 0.046569
C	-3.3175442096	-0.226879488	-1.0322514472	-0.407263
O	-3.0103659221	-0.6768585309	 1.3575702566	-0.428704
H	 0.9506921448	 1.8490883664	 0.3032569127	 0.141424
H	 0.400268148	 1.8095032875	-1.3662392704	 0.141521
H	-0.7751381967	 2.0679907245	-0.0595443705	 0.118123
H	 0.9497702362	-1.9435702692	 0.5022804554	 0.130101
H	-2.4206160737	 1.0236200675	 0.4812555086	 0.106908
H	-3.3360165736	-1.2797910462	-1.3299382316	 0.135949
H	-4.3395096074	 0.0956457157	-0.8180986166	 0.133975
H	-2.9295631792	 0.3591189658	-1.8715327267	 0.124915
H	-2.9493629829	-1.6277629958	 1.2065237385	 0.294316
