25
gdb 60164	3.98856	0.72818	0.6655	1.2578	90.07	-0.2558	0.0717	0.3275	1815.1033	0.227436	-389.492057	-389.481408	-389.480464	-389.52807	39.958	
C	 0.0816174941	 1.5824808819	-0.0627473929	-0.400418
C	 0.0419846502	 0.0545927457	-0.0006247683	 0.137736
O	 0.7269002738	-0.4276349871	 1.1558725071	-0.423097
C	-1.386458431	-0.4985081511	-0.0940999781	-0.22835
C	-1.4718349731	-2.0196816755	-0.1091941272	 0.06588
C	-1.2417618719	-2.831643468	 1.195953334	-0.225724
C	-2.372719939	-3.8011852656	 0.7533237777	 0.054292
C	-3.3273928708	-4.3587770186	 1.7974383643	-0.407384
C	-2.8699108316	-2.6905480026	-0.2151546975	-0.260789
H	 1.1115110636	 1.9386814947	 0.0264912946	 0.122119
H	-0.3359789559	 1.954303035	-1.004169672	 0.113777
H	-0.5034834357	 2.0200508608	 0.7562468634	 0.104232
H	 0.6255423154	-0.3479133911	-0.8389289979	 0.085925
H	 0.2553022602	-0.099785835	 1.929733509	 0.274402
H	-1.9785650453	-0.1041790648	 0.7469014378	 0.076035
H	-1.8530493025	-0.0991886099	-1.0054991972	 0.093094
H	-0.8192759701	-2.410315296	-0.8999935957	 0.06599
H	-0.2451444551	-3.2359016802	 1.3813607303	 0.101484
H	-1.5495255474	-2.2540622264	 2.0761868863	 0.077015
H	-1.9408699676	-4.623895591	 0.1709899087	 0.067842
H	-3.773049173	-3.5528822231	 2.3923781845	 0.106097
H	-4.1460643839	-4.920415847	 1.3328569954	 0.110818
H	-2.8118016163	-5.035336883	 2.4887058835	 0.111927
H	-3.6399797079	-2.0720930979	 0.2620730507	 0.088299
H	-3.2285361593	-2.9857526243	-1.2053351505	 0.088801
