15
gdb 3361	5.148	2.80754	2.13062	1.5944	55.73	-0.2517	0.0738	0.3256	628.3861	0.127483	-345.630685	-345.624966	-345.624022	-345.660445	21.364	
C	-0.0790936379	 1.4647309801	-0.2847061326	-0.087227
O	 1.135256379	 1.7184101765	 0.4549708108	-0.291628
C	 1.3911049859	 0.2991487922	 0.5903183109	 0.108041
C	 1.3918436488	-0.2189990728	 2.0372888704	-0.097208
O	 0.2344716513	-1.0378274873	 2.1608014565	-0.246972
C	-0.7590891526	-0.5202967108	 1.2865424417	-0.093749
C	-0.0077303063	-0.0409303229	 0.0306561383	-0.082058
H	-0.9362427493	 2.0163763505	 0.1201435523	 0.104937
H	 0.0389047523	 1.7114634811	-1.3473387154	 0.101884
H	 2.268696676	-0.0040530304	 0.0099062315	 0.082023
H	 2.2591832717	-0.8374679057	 2.2839788413	 0.107653
H	 1.3567309536	 0.6433933222	 2.7200224207	 0.104657
H	-1.4768003588	-1.3213250668	 1.0927460687	 0.111334
H	-1.2958812615	 0.3195444521	 1.7580589347	 0.092964
H	-0.0771429123	-0.734591388	-0.8067471198	 0.08535
