21
gdb 98157	2.58642	1.10477	0.96077	2.7472	84.85	-0.2412	-0.0128	0.2284	1364.8732	0.177705	-387.082167	-387.071108	-387.070164	-387.118349	40.233	
C	 0.1035993198	 1.5409647719	-0.0112165567	-0.379398
C	-0.0854633682	 0.0625822596	 0.3225772929	-0.293485
C	-1.4506265832	-0.470623419	-0.097507638	 0.383508
O	-2.3134750022	 0.2647807266	-0.509433375	-0.299261
C	-1.6819887854	-2.0113075333	-0.0352643671	-0.065955
C	-1.1947153838	-2.5751981676	-1.3995721364	-0.406372
C	-0.9125934759	-2.6925212723	 1.1198222913	-0.422474
C	-3.1121721201	-2.2829466356	 0.1153550108	 0.374395
C	-4.2733411746	-2.5545935356	 0.2603976204	-0.48381
H	 1.0807376736	 1.8905920725	 0.3335442944	 0.109118
H	 0.0354696203	 1.7111778783	-1.0889668419	 0.12891
H	-0.6721076154	 2.1474063729	 0.4615715161	 0.137413
H	 0.6980022058	-0.5519137586	-0.1385866842	 0.120863
H	 0.0196299989	-0.1077165442	 1.4024917302	 0.131177
H	-0.1266572368	-2.381840188	-1.5417265177	 0.116107
H	-1.3547625016	-3.6562340638	-1.4304426058	 0.13124
H	-1.7491637203	-2.1182719202	-2.2221603657	 0.144627
H	-1.214208094	-2.2886617423	 2.0901117398	 0.130102
H	-1.1321450927	-3.7633410618	 1.121069014	 0.13136
H	 0.1678680187	-2.5693468681	 1.0080735078	 0.117006
H	-5.305909493	-2.7709037316	 0.3810742208	 0.194929
