17
gdb 56523	1.93958	1.63659	1.11919	3.863	74.34	-0.2593	0.0124	0.2717	1132.382	0.132997	-417.973835	-417.963739	-417.962794	-418.008326	37.255	
C	-0.0230644777	 1.5405768436	 0.0842452082	-0.419377
C	-0.0110613726	 0.0091668783	 0.0363728665	 0.135646
O	 0.6963974628	-0.4194949725	 1.1968985314	-0.448546
C	-1.3805174996	-0.5145016131	 0.0136723112	 0.325062
C	-2.4950371671	-0.9626097982	-0.0227295134	-0.455297
C	 0.7701511598	-0.5004575247	-1.2413661484	-0.143349
N	 2.1486318195	-0.0447662955	-1.3392724808	-0.504313
C	 0.7655040693	-1.9751394702	-1.2241518049	 0.295828
N	 0.7697022678	-3.1280762832	-1.1499277517	-0.323013
H	 0.9978617909	 1.9201321752	 0.1675436299	 0.12225
H	-0.4948666632	 1.9541294612	-0.8108501017	 0.12754
H	-0.5845210383	 1.869197872	 0.9603427233	 0.147226
H	 0.546623321	-1.3673235277	 1.3041220036	 0.302053
H	-3.477993413	-1.3654897483	-0.0497727675	 0.21005
H	 0.2239295426	-0.1720503317	-2.1322080094	 0.13639
H	 2.1757798313	 0.9437053466	-1.56277426	 0.242595
H	 2.6037943267	-0.1723952819	-0.4391226562	 0.249255
