19
gdb 83971	2.35204	1.73253	1.29286	3.4385	74.15	-0.2259	-0.0299	0.1961	1044.6961	0.160003	-423.038563	-423.030436	-423.029491	-423.071538	30.861	
C	 0.3062550197	 1.6806510652	 0.0905403776	-0.410013
C	 0.1518269057	 0.1667856947	 0.0146251193	-0.110748
C	 0.6290594247	-0.6642037982	-1.2268478164	-0.085917
C	 1.7899271209	-0.1153587985	-2.0771698809	-0.2326
C	 3.053461798	-0.5687919931	-1.3178070786	-0.098531
O	 2.7038972908	-1.8065396939	-0.6969459246	-0.244054
C	 1.3647714534	-1.6863118993	-0.2894288302	 0.004275
C	 1.0906746513	-0.6902360629	 0.8832501273	 0.354476
O	 1.5550931109	-0.5498895291	 1.9766721774	-0.293993
H	 1.3379419784	 1.9923028686	-0.0998257867	 0.123559
H	-0.3402638573	 2.1850725914	-0.6342678839	 0.121056
H	 0.0384293812	 2.0338288603	 1.0905664393	 0.137771
H	-0.8849517859	-0.1104037698	 0.2475884023	 0.10609
H	-0.182131523	-1.055793506	-1.8394699899	 0.07951
H	 1.7644489218	-0.5824917612	-3.0655981892	 0.113274
H	 1.7573343903	 0.9674418882	-2.2208106763	 0.108846
H	 3.914795025	-0.7535096507	-1.9634356951	 0.115694
H	 3.3453008635	 0.170449517	-0.5562161577	 0.107897
H	 0.9373172407	-2.6833897526	-0.1579498937	 0.103407
