19
gdb 60889	2.86961	1.28433	1.06344	2.8683	76.14	-0.2412	-0.024	0.2172	1178.929	0.157022	-422.969171	-422.960281	-422.959336	-423.004304	32.585	
C	-0.0011461929	 1.520426095	-0.0209172608	-0.417029
C	 0.0662300464	-0.0171553657	-0.0129638345	-0.213927
C	-1.341787375	-0.5971283366	-0.0112883254	 0.160354
O	-1.7860329375	-1.3061196464	 0.854021055	-0.251917
C	 0.8217552089	-0.5401202183	-1.2122733909	 0.4296
C	 2.2370373725	-0.1749841284	-1.741698322	-0.271719
C	 1.4983763848	-1.0278853226	-2.7987393413	 0.052267
C	 1.0360233674	-2.0022878287	-1.6945174831	-0.266723
O	 0.2791794262	-0.2179912553	-2.5664034911	-0.349033
H	 1.0056186703	 1.9461372059	 0.0098105977	 0.129408
H	-0.4903698461	 1.8796943926	-0.9307149203	 0.145276
H	-0.5548776225	 1.8915523552	 0.8459486238	 0.12874
H	 0.5648156787	-0.3795678389	 0.8928237712	 0.102291
H	-1.953529132	-0.3026220952	-0.8921030003	 0.096559
H	 2.3792289496	 0.8719735452	-2.0111600887	 0.110502
H	 3.102560868	-0.6116560235	-1.2370759309	 0.099188
H	 1.7712493265	-1.2318667923	-3.8332934706	 0.100992
H	 1.7916784657	-2.6045190827	-1.184208113	 0.100455
H	 0.1244886212	-2.5585199293	-1.9163630649	 0.114717
