17
gdb 84356	2.60989	1.48449	1.19436	1.5942	69.66	-0.2423	-0.0353	0.207	1075.8296	0.133606	-458.97963	-458.970561	-458.969616	-459.013414	33.781	
C	-0.2324748212	 1.602037453	-0.1595115992	-0.451511
C	 0.0652491248	 0.1085981072	-0.1081293035	 0.234151
O	-1.1393553681	-0.6609226971	 0.0376208181	-0.467539
C	 0.8368698617	-0.4367291895	-1.2864900998	-0.08357
C	 1.8655839334	-1.2066853735	-0.9265656912	-0.097865
C	 1.9546113041	-1.3957006118	 0.5661772806	 0.005554
O	 3.2542980398	-1.2386579075	 1.0899996894	-0.442724
C	 1.0072921319	-0.2883016873	 1.0507502634	 0.331426
O	 1.0639597195	 0.2180774462	 2.1427395068	-0.33646
H	 0.6749396423	 2.1790531362	-0.3596969318	 0.131965
H	-0.9636328848	 1.8090918881	-0.9460691727	 0.127205
H	-0.6347827872	 1.9392941356	 0.8015749751	 0.130307
H	-1.6296526833	-0.2874836194	 0.7804045248	 0.287495
H	 0.5512773316	-0.2052563743	-2.3062253535	 0.111236
H	 2.5614503944	-1.6884721098	-1.6031528686	 0.11915
H	 1.5374074052	-2.3779674117	 0.8519970387	 0.107003
H	 3.1437929959	-0.8464027443	 1.9669021834	 0.294177
