23
gdb 123224	10.57803	0.38761	0.38229	3.0152	85.75	-0.253	-0.0247	0.2283	2833.3723	0.202248	-425.434146	-425.422629	-425.421685	-425.473166	38.602	
C	-0.0781681342	 1.5793455687	-0.0582592431	-0.379434
C	-0.0285818368	 0.049039686	-0.062301956	-0.166293
C	-1.417691203	-0.5908155349	 0.028065394	-0.178672
C	-1.3685098157	-2.1120933516	 0.0306176542	-0.055759
O	-2.6905499996	-2.6089218712	 0.1153285311	-0.245361
C	-2.7586496614	-4.0141120801	 0.1347044678	-0.058604
C	-4.2287495018	-4.4169273129	 0.2565084645	-0.279941
C	-4.4323683602	-5.9001519057	 0.0530293154	 0.15374
O	-4.9926018513	-6.6332302201	 0.8258274554	-0.233194
H	 0.9252740451	 2.0110170603	-0.1236823924	 0.112763
H	-0.6604743757	 1.9581591484	-0.9053719131	 0.116023
H	-0.5450244544	 1.9569254125	 0.8579979058	 0.116509
H	 0.4750720208	-0.2979418403	-0.9742555956	 0.096747
H	 0.5890399975	-0.2990096613	 0.7762371096	 0.097325
H	-1.9274672908	-0.2568554647	 0.9400859017	 0.105593
H	-2.0390842833	-0.2620393748	-0.8140160111	 0.104219
H	-0.8804305934	-2.4844127975	-0.8869854909	 0.0846
H	-0.7695860335	-2.4769587092	 0.8829270263	 0.086733
H	-2.3221568542	-4.4368969458	-0.7878864161	 0.088323
H	-2.1792932373	-4.4218237672	 0.9800544679	 0.100112
H	-4.6425135517	-4.121778798	 1.223298344	 0.130663
H	-4.7816652338	-3.8903747972	-0.5340578451	 0.131911
H	-4.0170519211	-6.2924075735	-0.9058652943	 0.071997
