16
gdb 86524	3.48066	1.01355	0.83625	3.8578	74.39	-0.2426	-0.0423	0.2003	1323.5857	0.124171	-434.053926	-434.045006	-434.044062	-434.088523	31.444	
O	 0.261541987	 1.2471245376	-0.4864381318	-0.4187
C	 0.0273395017	-0.0330982402	 0.0326294759	 0.104259
C	 0.0934487763	-0.1982559143	 1.5875054857	-0.216099
N	-1.2847742377	-0.7045361267	 1.5310679028	-0.082237
C	-1.4835214831	-0.358916749	 0.1205598474	-0.179947
C	-2.2507470422	-0.7488438362	 2.4862596504	 0.259733
N	-3.4988903158	-0.7578411194	 2.1940583284	-0.521503
C	-1.7388508663	-0.8166094036	 3.8486023399	 0.245661
N	-1.3739467206	-0.8603813769	 4.945143822	-0.333495
H	 1.2109726921	 1.3776533521	-0.5748589463	 0.292874
H	 0.6035429491	-0.8020089542	-0.4947207934	 0.089022
H	 0.8209450132	-0.9095581579	 1.9895893078	 0.1251
H	 0.1919387708	 0.7668706032	 2.0979694595	 0.127664
H	-2.1111967138	 0.5280911645	-0.0191242869	 0.1393
H	-1.8638872147	-1.176259786	-0.4968869138	 0.128878
H	-4.0718525859	-0.8492477029	 3.0292325623	 0.23949
