12
gdb 3365	4.63244	3.03136	2.92701	1.0961	48.93	-0.2445	0.0112	0.2557	534.4676	0.091236	-360.491873	-360.486181	-360.485237	-360.521353	20.837	
O	 0.0642267293	 1.4061726981	 0.2721959865	-0.415455
C	-0.0255888618	 0.0308719354	 0.11120883	 0.072822
C	-0.4657529273	-0.8109805489	 1.2769984294	 0.019914
O	-1.1631031927	-0.1235186927	 2.300235291	-0.195767
C	-2.2696366985	 0.3854615344	 1.7074803001	 0.121385
N	-2.5010730356	 0.1056526146	 0.4866753257	-0.273007
C	-1.3697350064	-0.6746694701	 0.0433757315	-0.104401
H	-0.5605916289	 1.8210985458	-0.3333374345	 0.298688
H	 0.7541449511	-0.4202717757	-0.501687732	 0.103521
H	 0.071324122	-1.6797254022	 1.6337938611	 0.118464
H	-2.8907605649	 0.994504412	 2.3519991617	 0.148705
H	-1.5570435363	-1.4385740406	-0.7016034607	 0.10513
