21
gdb 90042	2.82535	1.58286	1.26488	1.6594	84.33	-0.2228	0.076	0.2988	1094.551	0.180983	-386.978189	-386.969765	-386.96882	-387.010433	34.061	
C	-0.4670710113	 1.5208746236	-0.0201448224	-0.403794
C	-0.0139993008	 0.0675443382	-0.0497039865	 0.008125
C	 1.243826824	-0.3008046901	-0.9634686097	-0.3508
C	 2.0075831453	-0.4899025075	 0.3486063224	 0.384333
C	 2.8668528216	-1.104615535	 1.4733194957	-0.349645
C	 1.8798386736	 0.0056117729	 2.0654712436	 0.385152
C	 1.8769641049	 0.5960134675	 3.4446127687	-0.507024
O	 2.2734393829	 0.8633696192	 0.9433498642	-0.365181
C	 0.7345414253	-0.5909542205	 1.1865194828	-0.112298
H	 0.3650571489	 2.1879225281	 0.2055207831	 0.1418
H	-0.8978703147	 1.8095586117	-0.9861577705	 0.105522
H	-1.2423593085	 1.6645617118	 0.7409439727	 0.108468
H	-0.868307283	-0.566998809	-0.3038936601	 0.074676
H	 1.0856825433	-1.2292976001	-1.5176903918	 0.107603
H	 1.6346280569	 0.4696140572	-1.6328820693	 0.114275
H	 2.6826463975	-2.1526231392	 1.7252273416	 0.09671
H	 3.9238507698	-0.8329045422	 1.5118443415	 0.105972
H	 2.8740468765	 0.9636594312	 3.7069667743	 0.130555
H	 1.1725549362	 1.4315844949	 3.4962283635	 0.13373
H	 1.5773594659	-0.1564095888	 4.1805483242	 0.124289
H	 0.361594706	-1.5797085438	 1.462674632	 0.067532
