17
gdb 93994	2.99984	1.35692	0.96615	4.8514	72.24	-0.2487	-0.0256	0.2231	1177.9614	0.136999	-455.181804	-455.173351	-455.172407	-455.215257	30.885	
O	 0.0852383673	 1.3375826113	 0.3607536702	-0.439264
C	 0.0076362313	-0.0307749173	 0.0820957074	 0.049807
C	-1.4102580452	-0.5678663287	-0.1107717401	-0.252743
C	-1.1788318731	-1.8016499524	-1.0021102701	-0.190803
N	-0.0025575739	-1.4369462073	-1.8082524376	-0.103185
C	 0.3155004531	-2.1424396373	-2.9671906231	 0.078578
N	 1.3763860235	-1.9595651231	-3.6349181196	-0.409375
C	 0.6811270696	-0.3599855485	-1.2545834096	 0.405333
O	 1.6080644437	 0.2638634769	-1.7093652733	-0.356006
H	 0.8527540024	 1.6581966915	-0.1377550269	 0.295993
H	 0.5258286181	-0.624083781	 0.8583737171	 0.093308
H	-1.9230479804	-0.815919509	 0.8196717491	 0.119153
H	-1.9962423919	 0.1867707055	-0.644271123	 0.12926
H	-0.9716586805	-2.6973071486	-0.4023825468	 0.123698
H	-2.0310260031	-2.0213966812	-1.6510240478	 0.127806
H	-0.4733212679	-2.8660227288	-3.2105164519	 0.095692
H	 1.3836354971	-2.577266702	-4.4452367142	 0.232747
