16
gdb 29044	2.72466	1.65117	1.02812	3.2391	90.23	-0.2002	-0.0514	0.1487	1099.928	0.127102	-400.813578	-400.806058	-400.805114	-400.845446	29.41	
N	 0.0244532142	 1.3530113007	 0.0089112444	-0.519352
C	-0.0338618342	 0.0089454251	 0.0014285527	 0.216366
C	-1.2486191169	-0.6586182019	 0.0046517429	-0.177464
C	-1.5299517474	-2.0325312234	-0.0011721666	-0.062764
C	-0.6707612653	-3.1073997488	-0.011689554	-0.130667
C	 0.7363280921	-3.0613089116	-0.0193289265	-0.071534
C	 1.5896035038	-1.9876137217	-0.0185647986	-0.168738
C	 1.3481563816	-0.5708389149	-0.0099267341	 0.315048
O	 2.2867905028	 0.2378488891	-0.0114899095	-0.418852
H	 0.9611226971	 1.738436607	 0.0037524981	 0.280504
H	-0.7942168825	 1.9332577877	 0.0141949349	 0.261288
H	-2.1244444673	-0.0113306824	 0.013137312	 0.079143
H	-2.5907793024	-2.2727974433	 0.003462721	 0.09788
H	-1.1205580057	-4.0953034947	-0.0144315031	 0.09263
H	 1.22635176	-4.033142692	-0.0271657188	 0.100669
H	 2.6547879402	-2.2030063249	-0.025798885	 0.105842
