21
gdb 85898	2.66439	1.36531	1.22107	1.8953	76.79	-0.2514	0.0758	0.3272	1142.1475	0.181786	-424.226119	-424.217128	-424.216184	-424.259277	35.255	
C	 0.0837603614	 1.5217879039	-0.0612092392	-0.43383
C	-0.0256481498	-0.0076457727	-0.0262989264	 0.261411
C	-1.4976879104	-0.4406326888	 0.0869375775	-0.429723
C	 0.668301754	-0.677503163	-1.2460406392	-0.295727
C	 1.2605516446	-2.0274642201	-0.7568917613	 0.129766
O	 2.4313156573	-2.4276398513	-1.4446359027	-0.4414
C	 1.4694216513	-1.8060951113	 0.7304126774	-0.00881
O	 2.173221585	-0.5735668223	 0.9878098355	-0.284219
C	 0.7475343073	-0.604258857	 1.1487340577	 0.036734
H	 1.1325168282	 1.8332893009	-0.0548979254	 0.127798
H	-0.3884547974	 1.9284498765	-0.9620084632	 0.11342
H	-0.4111733753	 1.9737281249	 0.8059090977	 0.109154
H	-2.0785853234	-0.0518777735	-0.7557381939	 0.118904
H	-1.6008467997	-1.530948306	 0.0911085842	 0.115867
H	-1.9522292206	-0.0590943012	 1.0081872749	 0.113781
H	-0.0139766261	-0.8111189401	-2.0892904365	 0.100959
H	 1.4956425594	-0.0523508436	-1.5938303395	 0.101748
H	 0.5478402914	-2.8474968279	-0.9018265992	 0.090859
H	 3.1093147055	-1.7733814757	-1.2371076385	 0.28615
H	 1.715254525	-2.6314083271	 1.3934272712	 0.097487
H	 0.3950107122	-0.4538256748	 2.1677876191	 0.089671
