20
gdb 57898	3.0063	1.02062	0.96603	1.9315	77.96	-0.2399	-0.0398	0.2001	1337.8356	0.168601	-440.270484	-440.260606	-440.259662	-440.305584	36.114	
C	-1.7486927385	 1.1910450732	 1.2223130601	-0.40078
C	-0.560190899	 0.5759812467	 0.4618030702	 0.052806
O	 0.5257933809	 0.3715754115	 1.3236070818	-0.439874
C	-0.9566568545	-0.7485272973	-0.193935184	 0.36348
O	-0.4406099233	-1.779706655	 0.2023707913	-0.358999
C	-1.9686186004	-0.7003984191	-1.2861443595	-0.100475
C	-1.9838559929	-1.8199580287	-2.2912910231	-0.236482
N	-3.0846483258	-1.6673130479	-1.376852578	-0.080317
C	-3.2712818521	-2.6755828577	-0.3350787057	-0.329159
H	-1.4153574994	 2.1100488265	 1.7102381535	 0.137804
H	-2.5832910697	 1.4321880627	 0.5575516801	 0.121151
H	-2.0991395295	 0.5008948877	 1.9956127594	 0.128401
H	-0.2672072179	 1.2670299109	-0.3470997165	 0.09131
H	 0.6543460922	-0.5907747935	 1.3458592274	 0.291363
H	-2.2436837607	 0.2992754454	-1.6117409574	 0.099748
H	-2.1825181325	-1.580547315	-3.3328807676	 0.124602
H	-1.2693628545	-2.6216742878	-2.1124358424	 0.136497
H	-2.3390088458	-3.0958308539	 0.0582697626	 0.145245
H	-3.836561519	-2.2308962779	 0.4895907428	 0.125277
H	-3.8752372678	-3.4806724308	-0.7642274351	 0.128402
