16
gdb 51830	3.16523	1.08626	0.88252	1.9919	66.95	-0.2586	-0.031	0.2276	1269.3478	0.123484	-475.038858	-475.030355	-475.029411	-475.073389	29.529	
N	-0.0660524054	 1.320452133	 0.058037996	-0.536607
C	-0.0303589284	 0.0728801806	-0.103739179	 0.393805
O	 1.0760343677	-0.6955244477	-0.3081277928	-0.231177
C	 0.6779908517	-2.0668625357	-0.3114324947	 0.013874
O	-0.704066335	-2.0927222667	-0.5553364299	-0.251159
C	-1.2346709407	-0.8511136159	-0.0985371861	-0.002223
C	-1.8830910714	-0.9552166545	 1.2879212679	-0.293186
C	-3.0904910942	-1.8694241123	 1.2790606418	 0.164494
O	-3.301843067	-2.7287404798	 2.0921630671	-0.231002
H	 0.8695018226	 1.7274392021	 0.0358326562	 0.233708
H	 1.1989503747	-2.5896917402	-1.1177396693	 0.136788
H	 0.9342784254	-2.5100078931	 0.6628049581	 0.116155
H	-1.9742691521	-0.5150401833	-0.83210654	 0.126993
H	-1.1749180589	-1.3039076154	 2.0447968567	 0.126685
H	-2.2140698914	 0.054392146	 1.5674849384	 0.155097
H	-3.8048597075	-1.6758524671	 0.4445809497	 0.077755
