14
gdb 125460	7.25231	0.86697	0.77972	3.0385	67.85	-0.2716	-0.0327	0.2388	1394.2771	0.100261	-470.008516	-470.000162	-469.999218	-470.043142	28.195	
C	-0.0252238239	 1.4432508706	 0.080570876	-0.495341
C	-0.0735246701	-0.0364426203	-0.030113892	 0.42735
N	-1.0340012898	-0.8407940008	 0.3188481549	-0.357157
C	-0.510377643	-2.0566920957	-0.0213945981	 0.462812
O	-1.2375228647	-3.1611200089	 0.1906177951	-0.205806
C	-0.6172800358	-4.3838579995	 0.0647823232	 0.113697
N	-1.3393513391	-5.4092999194	 0.1011043377	-0.413559
N	 0.6865219836	-2.0388801602	-0.5531490848	-0.227318
O	 0.98804642	-0.6664419105	-0.5517247503	-0.197476
H	 0.8295290173	 1.7547575798	 0.6880452249	 0.162983
H	 0.087017203	 1.8977331047	-0.9083406582	 0.164068
H	-0.9469392973	 1.7988456125	 0.5399224194	 0.170008
H	 0.4663579142	-4.3076537066	-0.0397426114	 0.151188
H	-0.7618910843	-6.2448957357	 0.0266695935	 0.24455
