17
gdb 46549	3.84972	1.16883	1.0577	3.3727	67.95	-0.2631	0.0052	0.2682	1143.1224	0.136595	-458.989408	-458.981733	-458.980788	-459.022325	28.584	
O	 0.0515557306	 0.1950649146	-0.681683216	-0.325718
C	-0.0489778393	 1.2641508404	-0.1595457969	 0.417244
C	-1.2935929107	 1.9478562265	 0.3963551625	-0.364215
C	-0.8576843401	 3.4070523896	 0.5432801398	-0.297106
C	 0.6625288623	 3.2875590782	 0.7173534817	 0.349972
C	 1.5506935687	 4.4966275679	 0.3779813296	-0.127696
O	 1.9173888124	 4.6641526165	 1.7622226327	-0.267325
C	 1.2687716096	 3.4326925168	 2.1339866461	-0.120669
O	 1.0286042113	 2.0838711128	 0.0376384817	-0.253135
H	-2.1451415805	 1.781421093	-0.2639604624	 0.145188
H	-1.5295988873	 1.4838249231	 1.3608807062	 0.144949
H	-1.074548151	 3.9639320646	-0.3744477216	 0.123181
H	-1.3270396311	 3.9369801807	 1.3739658764	 0.125019
H	 2.4066855054	 4.2400214655	-0.257606238	 0.12106
H	 1.0391183698	 5.3784939809	-0.0254384631	 0.107313
H	 0.5668527879	 3.5680390746	 2.9653737819	 0.104797
H	 1.985145332	 2.638414324	 2.3767282294	 0.11714
