21
gdb 38875	2.61707	2.07185	1.85798	1.5469	78.6	-0.2428	0.0842	0.327	886.5676	0.188972	-387.107983	-387.10198	-387.101036	-387.137828	27.428	
C	-0.0351087425	 1.5382743219	-0.0025096939	-0.204221
C	 1.4970139618	 1.7829532817	-0.0331193656	-0.039178
C	 1.8873596087	 1.8188189158	-1.5258047817	-0.21617
C	 1.197343028	 0.6076906083	-2.2216204875	-0.21617
C	 0.9948218391	-0.489081095	-1.1549245093	-0.039179
C	 2.3438554186	-0.5941849381	-0.3951423394	-0.204221
C	 2.0173708204	 0.4551081845	 0.6770803023	 0.077274
O	 0.8279034906	-0.1516555463	 1.2105269357	-0.268649
C	 0.0379518476	 0.0048271857	 0.0192903763	 0.077274
H	-0.5126248197	 1.882929608	 0.9167588351	 0.100382
H	-0.5507376597	 1.9848640337	-0.8556820481	 0.090212
H	 1.8167678447	 2.6816085033	 0.4967748312	 0.063954
H	 1.5617531483	 2.7623905977	-1.9753682398	 0.094364
H	 2.9742161178	 1.7769834753	-1.6492527995	 0.097285
H	 0.2427431925	 0.9021937947	-2.6691176137	 0.097285
H	 1.8164993835	 0.2249278624	-3.0392956871	 0.094364
H	 0.653516955	-1.4289145459	-1.5917718639	 0.063954
H	 2.4960646804	-1.5603180492	 0.0899173394	 0.100382
H	 3.204814155	-0.3810426021	-1.03274629	 0.090213
H	 2.7479465556	 0.6032541363	 1.4724000244	 0.070423
H	-0.9004557658	-0.5403650227	 0.1211652449	 0.070422
