20
gdb 6823	2.77741	1.6204	1.37297	2.8847	75.64	-0.2421	-0.024	0.2181	1018.8287	0.175267	-349.012657	-349.003821	-349.002877	-349.046102	32.879	
C	-0.106699065	 1.5095760141	 0.0745800796	-0.444929
C	-0.0135293324	-0.0176216921	-0.0002222368	 0.319923
C	-1.3803130335	-0.6274040858	-0.2885553773	-0.44852
C	 1.1658851121	-0.4835280567	-0.9116680815	-0.251036
C	 2.0398350995	-0.6918023207	 0.349261925	-0.252722
C	 0.7562418576	-0.6738011671	 1.2245213837	-0.087559
C	 0.7943183036	 0.0677174179	 2.529529788	 0.147572
O	 0.2411197716	-0.2860967502	 3.5412396384	-0.258418
H	 0.8653385829	 1.9777145418	 0.2593951715	 0.114593
H	-0.4847863755	 1.9044393127	-0.8750171928	 0.117338
H	-0.7919177829	 1.8334792641	 0.8658155376	 0.123839
H	-1.7850667923	-0.2441789062	-1.2328997136	 0.114662
H	-1.3215018029	-1.7177781192	-0.3662923053	 0.113324
H	-2.0970737465	-0.3848849531	 0.5042273814	 0.124125
H	 0.9401577818	-1.4272393374	-1.416353895	 0.101555
H	 1.5211846985	 0.2317993106	-1.6584808662	 0.097315
H	 2.6509478292	-1.5948184945	 0.4013836129	 0.109212
H	 2.6833148471	 0.1691836306	 0.5575976523	 0.106491
H	 0.3670299089	-1.6774192275	 1.4136781986	 0.087767
H	 1.3891009781	 1.0115775087	 2.5097746493	 0.065468
