18
gdb 66599	3.04048	2.03254	1.87712	1.5639	80.7	-0.2011	-0.0789	0.1222	845.7508	0.148271	-364.658406	-364.65176	-364.650816	-364.688797	28.276	
C	 0.0372161198	 1.5155353259	-0.1614243519	-0.502585
C	 0.1261477705	 0.0300224631	 0.0166786008	 0.334632
C	 0.7836999489	-0.9092279806	-0.9257149952	-0.095156
C	 0.8634539064	-2.1623778687	-0.0560042837	-0.110865
C	 1.0080141604	-1.6987313044	 1.3619273008	-0.077481
C	 0.121271344	-0.6399082586	 1.4008741366	-0.100274
C	-1.1909558152	-1.4818275308	 1.3829429111	-0.250684
C	-0.8068451037	-2.0579669571	-0.0517081003	 0.018587
N	-0.7107548968	-0.820164945	-0.9006324676	-0.173577
H	 0.9261306969	 2.0098791811	 0.2440692618	 0.120578
H	-0.0538783461	 1.7718996812	-1.2212052258	 0.123779
H	-0.8384577316	 1.9153019412	 0.361325456	 0.123308
H	 1.3705526063	-0.6649269547	-1.8038284705	 0.092615
H	 1.3477825624	-3.0696625137	-0.4117765347	 0.080617
H	 1.0145251198	-2.4449552616	 2.1564499415	 0.109415
H	-1.2666148304	-2.237961428	 2.1658498853	 0.111922
H	-2.1231018027	-0.9102645381	 1.3201187627	 0.116004
H	-1.4160397291	-2.8347461613	-0.5234210069	 0.079166
