17
gdb 110075	2.0458	1.38399	1.05434	5.6403	74.85	-0.271	-0.0175	0.2535	1208.0062	0.134376	-418.012653	-418.003315	-418.00237	-418.047361	32.549	
C	-0.1147052759	 1.457731244	 0.4406340915	-0.390969
C	-0.0806085189	-0.0031760505	-0.0253508004	-0.210791
C	-1.462106578	-0.5817140493	-0.2409920514	-0.014705
C	-1.7188432625	-2.0818980225	-0.1779145022	-0.191748
C	-0.6216122115	-2.9777817445	 0.1096863894	 0.323803
N	 0.261908032	-3.7033337406	 0.2798130919	-0.330976
N	-2.2252152609	-1.1803314711	 0.8321290852	-0.075778
C	-1.9672513333	-1.2286343466	 2.1952429279	 0.150507
O	-1.8909534035	-2.2403974524	 2.8416234192	-0.274364
H	 0.9000416079	 1.8537174243	 0.5338030954	 0.132306
H	-0.6566193322	 2.0897466611	-0.2708007493	 0.12545
H	-0.6028605383	 1.5588085832	 1.4151145479	 0.127313
H	 0.4611987085	-0.0728043826	-0.9764518458	 0.126048
H	 0.4700814741	-0.6220474517	 0.6909393907	 0.135812
H	-2.0766960853	-0.0393465254	-0.9597653919	 0.117929
H	-2.4706572948	-2.5118723297	-0.8350612219	 0.149858
H	-1.9254173974	-0.2135808156	 2.6320724337	 0.100306
