19
gdb 32976	3.26576	1.12939	0.85263	2.4848	79.14	-0.1958	0.0493	0.2452	1371.7289	0.159536	-419.247622	-419.238157	-419.237213	-419.28324	33.103	
C	 0.070747615	 1.49862811	-0.0859994542	-0.392801
C	 0.0345575912	-0.0155707821	-0.016714652	-0.036639
O	 0.6923634313	-0.5190911429	-1.1912534858	-0.285821
C	 0.745937702	-1.8548824011	-1.2854137853	 0.487659
N	 0.273804227	-2.7368464639	-0.4418590751	-0.379939
C	 0.5929322603	-3.9591025872	-1.0104886587	-0.104919
C	 1.2540112309	-3.788653539	-2.1899474971	-0.132785
N	 1.3543611423	-2.4125359846	-2.3706586758	-0.08868
C	 1.9741261257	-1.7133860829	-3.477011839	-0.35054
H	 1.1012855386	 1.8641379723	-0.1126710469	 0.126854
H	-0.4475185666	 1.8616171596	-0.9781595606	 0.126859
H	-0.4221134337	 1.9207790547	 0.7947809508	 0.123157
H	 0.5493754075	-0.3984854946	 0.8710362399	 0.122409
H	-0.9902751685	-0.4011982923	 0.0099218096	 0.122517
H	 0.3224209395	-4.885085567	-0.5270216908	 0.104481
H	 1.6587587488	-4.4787351754	-2.9114107663	 0.12026
H	 1.4852786063	-1.9682338252	-4.4229112992	 0.138181
H	 1.8758494853	-0.6414331157	-3.3066078504	 0.161572
H	 3.0371875372	-1.9644775627	-3.5514047032	 0.138175
