20
gdb 82510	2.73225	1.58953	1.38011	1.177	77.71	-0.2162	0.0727	0.2889	1029.964	0.171768	-403.112267	-403.104161	-403.103217	-403.144331	32.697	
C	-0.1785742055	 1.5552037441	-0.027568307	-0.435012
C	 0.0231872098	 0.0563795576	-0.0608752101	 0.011013
C	 0.6394951402	-0.6840402076	-1.1956189906	-0.062725
C	 1.4116242441	 0.0902714047	-2.2196756042	-0.100542
C	 2.8148566361	-0.4169356905	-2.5154781334	-0.355052
C	 2.5948647093	 0.6910622401	-1.5166195834	 0.400709
O	 2.9779145402	 1.9981715667	-1.8245620502	-0.476597
C	 2.5103862332	 0.2821111964	-0.0421037689	-0.243353
N	 1.3357976751	-0.6061443272	 0.1182547218	-0.123165
H	 0.5324211975	 2.1053164421	-0.6457501543	 0.14936
H	-1.187457112	 1.7941442153	-0.381068408	 0.11982
H	-0.0969650883	 1.9300283324	 0.999226856	 0.121593
H	-0.7512115619	-0.4838558047	 0.4828756699	 0.087774
H	 0.2589213408	-1.6664096187	-1.4689787542	 0.086164
H	 0.8977660946	 0.6461559147	-2.9961259533	 0.099841
H	 3.105717562	-1.40136373	-2.1606107748	 0.116383
H	 3.2330241682	-0.1251509591	-3.4725451928	 0.112853
H	 3.9354448859	 2.0595722544	-1.7388787792	 0.28474
H	 3.3976414599	-0.2704053327	 0.2896418721	 0.09768
H	 2.4243578809	 1.1778021621	 0.5827645444	 0.108514
