19
gdb 4813	5.33936	1.20924	1.07013	1.9326	79.79	-0.1968	0.0477	0.2445	1172.7101	0.16611	-327.968906	-327.960311	-327.959367	-328.002699	31.031	
C	 0.0963461471	 1.5535621098	 0.1852607837	-0.359474
C	-0.0976685612	 0.0491593268	-0.0705931445	-0.293545
C	 0.6462505143	-0.4520367833	-1.2756078488	 0.275603
C	 0.0943630494	-0.8627049482	-2.4699512269	-0.201464
N	 1.1036730173	-1.2477104661	-3.320093443	 0.027631
C	 0.9318652331	-1.6529408365	-4.6977065162	-0.333901
C	 2.3060043593	-1.077024853	-2.6813699503	-0.086486
C	 2.0596670988	-0.590398608	-1.4190675763	-0.268721
H	 1.1540533103	 1.793570818	 0.3337734724	 0.116247
H	-0.2579005203	 2.1417967563	-0.6672274434	 0.113979
H	-0.451773763	 1.8772197184	 1.0765362543	 0.103048
H	 0.2210507828	-0.5061523986	 0.8213186642	 0.099077
H	-1.1667928445	-0.1616789367	-0.1921918655	 0.092723
H	-0.9372222388	-0.9174888146	-2.7832849582	 0.106497
H	 0.8790099005	-0.7924059481	-5.3757293183	 0.135262
H	 1.7712731846	-2.2830408945	-5.001217139	 0.138036
H	 0.0119278715	-2.2342882954	-4.8021809529	 0.138118
H	 3.230385505	-1.3226612288	-3.1807849161	 0.109735
H	 2.8060321239	-0.3770500275	-0.6680266551	 0.087636
