18
gdb 81469	2.37168	1.98747	1.69	3.0585	70.32	-0.2169	0.0534	0.2703	899.9612	0.149824	-439.02498	-439.01785	-439.016905	-439.056134	28.969	
O	 0.020718612	 1.4961213838	-0.0689909123	-0.420825
C	 0.0102444337	 0.0942757144	 0.0146451777	 0.093873
C	 0.2200787946	-0.6604248458	 1.3456862174	 0.028413
C	-0.4932224584	 0.0090782376	 2.5284910149	-0.167019
N	-1.9452397347	 0.1718665499	 2.3169115576	-0.093603
C	-2.4381356458	 1.2552666748	 1.4645336929	-0.263421
C	-2.4053354547	-0.1461757709	 0.9562363749	-0.017114
C	-1.32990978	-0.6781322399	 0.0341588431	 0.026952
O	-0.6238895104	-1.7155247189	 0.8015150204	-0.292811
H	 0.9080153613	 1.7812447376	-0.3054455651	 0.292989
H	 0.6459888455	-0.3540730363	-0.7565124995	 0.093566
H	 1.217076819	-1.0227737136	 1.6135101334	 0.07283
H	-0.3660497381	-0.6278304105	 3.4110646745	 0.113743
H	-0.0242127712	 0.9760721713	 2.7465764918	 0.104627
H	-3.392363935	 1.6683365194	 1.7831766872	 0.107395
H	-1.7356615672	 1.9696103192	 1.0554522303	 0.146907
H	-3.3302969798	-0.7196312082	 0.9188334578	 0.093979
H	-1.7269548609	-1.0615305239	-0.908575467	 0.079517
