17
gdb 51829	3.11267	1.12487	0.90742	3.8603	70.91	-0.2272	-0.0306	0.1966	1260.3805	0.136137	-455.167266	-455.158599	-455.157655	-455.201989	30.372	
N	 0.1026958676	 1.2676139065	 0.2685724688	-0.608971
C	 0.0697401541	 0.0382458012	-0.0365944165	 0.471903
O	 1.1435352625	-0.7507963904	-0.3393773453	-0.249865
C	 0.6797035014	-2.0490675821	-0.7407275506	-0.095209
C	-0.7497513018	-2.1365343288	-0.1867022605	-0.192484
N	-1.0788769013	-0.7248485404	-0.1134048397	-0.109974
C	-2.3401162636	-0.2279467707	 0.3795420258	-0.251965
C	-2.5358172286	-0.4540296173	 1.8754338805	 0.147976
O	-3.5965050718	-0.6972055363	 2.3868598299	-0.231285
H	 1.0505016188	 1.6287867292	 0.2021541353	 0.227723
H	 0.6913273985	-2.1097271026	-1.834833595	 0.124754
H	 1.3559548866	-2.8006251135	-0.330270505	 0.130324
H	-1.425696499	-2.674873764	-0.8585031387	 0.125385
H	-0.780635983	-2.6302810663	 0.7966954577	 0.115654
H	-2.3457961656	 0.8555056424	 0.2089025688	 0.175044
H	-3.1785267285	-0.6745312119	-0.1638502651	 0.127326
H	-1.5998302463	-0.362398445	 2.4718830696	 0.093665
