15
gdb 30383	3.12752	1.50605	1.20215	2.9118	76.92	-0.2457	-0.1014	0.1443	1036.73	0.113408	-412.979689	-412.971913	-412.970969	-413.012261	28.172	
C	 0.4496417483	 1.2864935811	-0.1161001825	-0.330104
N	 0.2213718123	-0.1405197072	 0.029075936	-0.261263
C	 0.2634490848	-0.6621386793	 1.1761445426	 0.35898
N	-0.0067166685	-2.0524417814	 1.3116102602	-0.189534
C	 0.8993047183	-2.790458633	 1.8255131077	-0.017249
C	 2.190802057	-2.3316250165	 2.3675213366	 0.013421
N	 2.4064928658	-1.2255434904	 2.9846187146	-0.204548
C	 1.3769676013	-0.303826018	 3.181371228	 0.064734
N	 0.4114284156	 0.0128251849	 2.4080082431	-0.230171
H	 1.4617267173	 1.4588004807	-0.5027658707	 0.127805
H	-0.2465993305	 1.6760702331	-0.8652961348	 0.129343
H	 0.3354412391	 1.8540186076	 0.8151995717	 0.127889
H	 0.7115001808	-3.8663031083	 1.8766863183	 0.134538
H	 3.0274249268	-3.0316683219	 2.2992751158	 0.136587
H	 1.4759373317	 0.2381780187	 4.1221306832	 0.139572
