20
gdb 77240	2.26596	1.1694	0.97194	3.6856	78.12	-0.2296	0.0333	0.2629	1314.3323	0.168631	-440.295724	-440.285442	-440.284497	-440.331328	37.195	
C	-0.1103797818	 1.4826985214	 0.1935899147	-0.44491
C	 0.0395151859	-0.0178248096	 0.0507750618	 0.262892
C	-1.18996081	-0.7307151485	-0.4800390024	-0.448344
C	 1.3762037671	-0.5919065621	-0.3491169105	 0.007075
O	 2.4309194935	 0.315658049	-0.5425794701	-0.427946
C	 0.8798738069	-0.7911968456	 1.0675347244	-0.03747
N	 1.6046779683	-0.1123293582	 2.094298904	-0.27891
C	 1.3308521828	-0.2587817799	 3.4167349927	 0.151119
O	 0.4451716652	-0.9498953514	 3.8743703511	-0.327762
H	 0.8051440986	 1.9598184923	 0.5443147265	 0.120463
H	-0.3715300409	 1.9336641052	-0.769988752	 0.119079
H	-0.9111180007	 1.7178399571	 0.9030633144	 0.123206
H	-1.4527947968	-0.3691709366	-1.4810448839	 0.117469
H	-1.0337694487	-1.8123352086	-0.5459476873	 0.113959
H	-2.0494804463	-0.5608751729	 0.1777282105	 0.128166
H	 1.3853610424	-1.4462779295	-1.0245021817	 0.091832
H	 3.254804837	-0.1834001972	-0.526333177	 0.294866
H	 0.5212937543	-1.7644085416	 1.3838909282	 0.118122
H	 2.3712105039	 0.4758528646	 1.8040179474	 0.247544
H	 2.0304291293	 0.328674432	 4.0449294791	 0.069549
