21
gdb 80481	2.37309	1.5612	1.36559	1.8653	78.11	-0.2337	0.0611	0.2948	1084.9806	0.182244	-424.213538	-424.204566	-424.203622	-424.246736	34.808	
C	-0.0261548785	 1.6163522859	-0.1928329809	-0.397314
C	 0.0577272432	 0.1187927019	-0.0018378247	-0.029743
C	 1.3333902085	-0.6558244549	-0.1834337012	 0.061228
O	 2.5180200685	 0.1002922069	-0.1430841327	-0.271217
C	 2.9721249503	 0.1431911993	 1.2166727486	 0.136556
C	 3.8763096154	 1.3469682208	 1.4060976477	-0.431653
C	 1.6874355017	 0.0988683608	 2.09534685	 0.048582
O	 1.1929443337	 1.3706204021	 2.4946609104	-0.41838
C	 0.6933379423	-0.6066583612	 1.1830380578	-0.099576
H	 0.9401767775	 2.0909587288	-0.0278130521	 0.132459
H	-0.3464652269	 1.8379524859	-1.2171346164	 0.103435
H	-0.7458853872	 2.0653823003	 0.4966221407	 0.120467
H	-0.8219590322	-0.4152910615	-0.3572378938	 0.082821
H	 1.3889153632	-1.5530912477	-0.7939348212	 0.086849
H	 3.5386931133	-0.780607644	 1.4234831062	 0.06535
H	 3.3232488653	 2.2769842828	 1.2535420665	 0.135275
H	 4.3052276044	 1.3502053913	 2.4147464035	 0.106977
H	 4.7026863839	 1.3134254437	 0.6916676338	 0.132301
H	 1.8772265249	-0.5186881242	 2.985543128	 0.066396
H	 1.821107369	 1.7535860249	 3.1154215704	 0.283005
H	 0.1580141596	-1.4566039419	 1.5884512994	 0.086183
