17
gdb 29551	3.13372	1.71683	1.12464	3.452	82.15	-0.2006	-0.0149	0.1857	1054.7933	0.138929	-380.928802	-380.921497	-380.920553	-380.960484	28.212	
C	-0.0199297101	 1.4955411923	 0.0663653874	-0.494175
C	-0.0072167421	 0.0037899175	 0.0110166999	 0.224265
C	-0.0257797174	-0.8071989655	-1.0642180082	-0.21308
C	-0.0017434112	-2.26860843	-0.6534671766	-0.247739
N	 0.0325764019	-2.1545485154	 0.7935441783	-0.004653
C	 0.0676031311	-2.9276756335	 1.9263465921	-0.153596
C	 0.0840100802	-2.0210692585	 2.9655405285	-0.097985
N	 0.0607040338	-0.7207378712	 2.5064015877	-0.366941
C	 0.0299345448	-0.8482027879	 1.1969391158	 0.328416
H	 0.868695039	 1.8701460009	 0.5859529332	 0.145525
H	-0.0513314834	 1.9325779344	-0.9343979517	 0.122314
H	-0.885823964	 1.8533876681	 0.6338764617	 0.145571
H	-0.0541108673	-0.5020500575	-2.1012079252	 0.106758
H	-0.8908874668	-2.8141445799	-0.993054278	 0.1378
H	 0.8800141011	-2.7971734391	-1.0363927681	 0.137798
H	 0.0773866658	-4.0045604828	 1.904471004	 0.125738
H	 0.1117117447	-2.2410446721	 4.0224083991	 0.103986
