22
gdb 104581	2.43022	1.15429	0.94487	2.4134	82.55	-0.2314	-0.0072	0.2242	1365.6547	0.192351	-404.349868	-404.339585	-404.338641	-404.385883	37.617	
C	-1.2364709542	-1.0649132937	 0.1453081225	-0.415949
C	 0.1424465871	-0.4022201949	 0.204913099	-0.251083
C	 1.0449455317	-0.5773514539	-1.0152179356	 0.320631
C	 2.2856482084	 0.3229311825	-0.9943745968	-0.345571
C	 1.8996391168	 1.778901396	-1.2586828988	 0.392993
C	 1.983476348	 2.2372965765	-2.6982973837	-0.478418
O	 1.5104601026	 2.499154894	-0.3653686476	-0.309828
C	 1.1483249441	-1.8920147384	-1.7002233993	-0.290069
N	 0.4827126685	-0.7575277759	-2.3690525706	-0.344997
H	-1.8657578862	-0.6372554655	-0.6428628083	 0.12107
H	-1.1787004369	-2.1468078215	-0.0133948966	 0.119481
H	-1.7640479449	-0.9059808439	 1.0901407155	 0.126005
H	 0.0187869516	 0.6706860253	 0.3861374822	 0.138092
H	 0.6911360388	-0.7866387627	 1.0748398503	 0.106102
H	 2.7613291321	 0.2629643824	-0.0103713975	 0.117474
H	 2.9934360955	-0.0229455816	-1.7526335425	 0.102582
H	 1.4329335254	 1.5302182421	-3.3287917674	 0.166973
H	 1.5848757513	 3.2474588429	-2.8006321226	 0.131712
H	 3.0271409848	 2.2177654419	-3.0349687363	 0.13373
H	 2.0912683675	-2.1994305296	-2.1450923512	 0.114578
H	 0.5326397673	-2.7139119456	-1.3458882092	 0.113252
H	-0.5252166092	-0.8783241364	-2.3214640857	 0.23124
