22
gdb 113863	2.90811	1.0572	0.94828	2.1856	83.81	-0.216	0.063	0.2789	1363.5946	0.194217	-404.295133	-404.285756	-404.284812	-404.329781	35.035	
O	 0.0018162702	 1.5440844969	 0.3347883371	-0.401394
C	 0.0214396863	 0.1246061836	 0.4012979409	-0.12085
C	-1.3400178822	-0.4603643993	 0.0785027178	 0.005263
C	-2.5583584311	 0.3899056049	-0.009467518	-0.253563
N	-2.0351766626	-0.2850282572	-1.1982533087	-0.101587
C	-1.4430497453	 0.5311868288	-2.2443469932	 0.084193
C	-0.6050166156	-0.2265679571	-3.3086722267	-0.233657
C	-1.2852546229	 0.6418943483	-4.4012538283	-0.212951
C	-2.4061195719	 0.9720723409	-3.3774248451	-0.231793
H	 0.9079831665	 1.8586857339	 0.4052078089	 0.289597
H	 0.7716756812	-0.2905640498	-0.2906382446	 0.099683
H	 0.295140029	-0.2129675547	 1.4139301076	 0.095926
H	-1.4434357924	-1.4696880212	 0.4762357581	 0.088405
H	-3.5137349734	 0.0277993252	 0.362024227	 0.105557
H	-2.4034112894	 1.4624514174	 0.0752669664	 0.129647
H	-0.8862310026	 1.3903572417	-1.8502642739	 0.07934
H	 0.484779094	-0.1935177729	-3.2253710628	 0.083213
H	-0.9279388759	-1.270022746	-3.3646730057	 0.105464
H	-0.6891750764	 1.5234134905	-4.6544429702	 0.098071
H	-1.5787663727	 0.1469245308	-5.3294600539	 0.096041
H	-3.2402459432	 0.2688486036	-3.4528820606	 0.105643
H	-2.7982043594	 1.9916284316	-3.3482417921	 0.089753
