23
gdb 59214	3.08079	1.15862	1.04816	1.378	84.96	-0.2597	0.0766	0.3363	1278.0283	0.207281	-388.28248	-388.273735	-388.272791	-388.315814	34.79	
C	 0.0190216069	 1.5156679124	 0.1889198302	-0.401493
C	 0.0361376199	-0.0136018569	 0.1324845732	 0.0816
O	 0.7164997459	-0.5595887715	 1.2650110502	-0.431863
C	-1.3695466564	-0.5993889985	 0.0194912497	 0.04842
C	-2.1082017907	-0.5277056773	-1.3586697306	-0.031191
C	-1.3187634178	-1.8097746726	-1.753939097	-0.234341
C	-1.4868971403	-2.1347466407	-0.2403563264	-0.019394
C	-3.011009138	-2.3446957526	-0.1398294657	-0.220392
C	-3.4859845938	-1.1161304448	-0.9924396916	-0.21498
H	 1.0350234317	 1.9009598933	 0.3102879544	 0.121712
H	-0.4101812379	 1.9440203736	-0.7225083203	 0.117562
H	-0.5832344399	 1.8656862049	 1.0369671093	 0.103258
H	 0.6515858459	-0.3249168832	-0.7174188581	 0.086708
H	 0.217222004	-0.308744124	 2.0504921649	 0.272785
H	-1.957842906	-0.2302120033	 0.8739561836	 0.039999
H	-2.0981377077	 0.3726778896	-1.9751097239	 0.055082
H	-1.7853009076	-2.4891031429	-2.4743507542	 0.084584
H	-0.2874181397	-1.6189699399	-2.050002101	 0.101289
H	-0.8391001329	-2.8423054556	 0.2761180504	 0.067471
H	-3.327873908	-3.3008564575	-0.5662076532	 0.0944
H	-3.3703489523	-2.3030053295	 0.8927631464	 0.091868
H	-4.0983185077	-0.4155210233	-0.4170077998	 0.092852
H	-4.0570264878	-1.4120593595	-1.8772646407	 0.094064
