17
gdb 67853	2.34129	1.65468	1.31777	0.6523	79.04	-0.2264	0.0131	0.2395	1027.7679	0.134823	-384.647422	-384.639258	-384.638314	-384.679667	32.277	
O	-0.0420069942	 1.4120580615	-0.0005521806	-0.466519
C	 0.0082058253	 0.0235229685	-0.0742587616	 0.370093
C	 0.8936294232	-0.6485035245	-1.0733551919	-0.158563
C	 0.2978928802	-1.7160972615	-1.6054897884	-0.053418
C	-1.1008214039	-1.9200302612	-1.0593658387	-0.292418
C	-1.2582763801	-0.7872200001	-0.0495740986	-0.107513
C	-0.3478558373	-0.7846493511	 1.1858989891	-0.314
C	 0.368380433	-1.9439403045	 1.6189570853	 0.363355
C	 0.957044963	-2.9253904389	 1.9918798747	-0.466467
H	 0.7340393957	 1.7171289874	 0.4822374648	 0.28641
H	 1.8969461529	-0.2987953864	-1.2867430802	 0.09393
H	 0.7510242971	-2.402612444	-2.3113067765	 0.099606
H	-1.860276033	-1.8652580226	-1.8493156296	 0.112217
H	-1.2050917956	-2.904971897	-0.5868823799	 0.126384
H	-2.2157740371	-0.2956079578	 0.0697314993	 0.102088
H	-0.7322244099	-0.1538284365	 1.9837536215	 0.113108
H	 1.4850244008	-3.7846585313	 2.3233031214	 0.191707
