18
gdb 37997	3.31661	1.84683	1.52559	1.4854	81.91	-0.2244	-0.0083	0.2161	905.3524	0.150826	-364.703921	-364.697652	-364.696707	-364.734134	27.13	
C	-0.0979095866	 1.3556630118	 0.2107995594	-0.273445
C	 1.392019082	 1.5190321579	-0.2270803032	-0.076404
C	 2.3678203722	 0.2978651127	-0.2186804177	-0.013344
C	 2.4707688916	-1.0488103412	 0.4781532532	-0.031266
N	 1.9002919195	-1.3628842566	 1.7956770614	-0.333612
C	 1.2611029629	-1.9201051225	 0.5644087951	-0.102818
C	 0.0006675147	-1.1456775043	 0.3739321426	-0.125334
C	 0.0544235645	-0.0386122404	-0.3755987483	 0.155948
C	 1.2587613642	 0.3846285498	-1.2168983139	-0.160846
H	-0.3691669585	 1.4250575612	 1.2677930573	 0.107421
H	-0.688928191	 2.0636583767	-0.3819305936	 0.103969
H	 1.842193882	 2.4914687416	-0.4070039545	 0.088976
H	 3.3380912582	 0.6522579931	-0.5659614078	 0.079863
H	 3.4115044966	-1.5415279076	 0.2372630135	 0.079377
H	 2.4614953969	-2.0811069028	 2.2504013399	 0.22667
H	 1.3493166863	-2.9871360681	 0.3808263373	 0.089213
H	-0.7211483975	-1.2029566542	 1.1864461917	 0.095992
H	 1.342506462	 0.3733498329	-2.2961860724	 0.08964
