17
gdb 79110	2.48711	1.92948	1.51966	2.8029	70.68	-0.2323	-0.01	0.2222	917.8048	0.137308	-421.823465	-421.816358	-421.815414	-421.854855	28.632	
O	 0.0651211034	 1.4320705304	 0.0834902407	-0.429278
C	-0.0000502332	 0.0321608212	-0.044975322	 0.127224
C	-1.3921442241	-0.5640557713	-0.0025892141	-0.088278
C	-2.1078144492	-0.430981432	-1.3365377872	-0.051899
C	-1.6863602752	 0.6305497559	-2.3365246085	-0.348685
C	-0.1785966945	 0.3895663002	-2.5112209221	 0.437602
O	 0.5485608566	 0.9310263005	-3.30217186	-0.330423
C	 0.2264127717	-0.6391711832	-1.4638857628	-0.233236
C	-1.0385994753	-1.4808910432	-1.1713750529	-0.087666
H	 0.9869759756	 1.7064417892	 0.0277518735	 0.290379
H	 0.6487492348	-0.4704747467	 0.6838712263	 0.084178
H	-1.9430262073	-0.793837672	 0.9013758263	 0.090202
H	-3.1407606179	-0.7588984523	-1.3203390502	 0.09396
H	-2.1921988403	 0.5053247244	-3.3001292337	 0.124136
H	-1.8482036292	 1.6594714564	-2.0027107945	 0.142306
H	 1.1920902999	-1.1067337594	-1.6409227442	 0.082162
H	-1.1581585657	-2.5492308582	-1.2805438144	 0.097317
