16
gdb 67866	2.58556	1.7253	1.42392	3.0126	69.12	-0.2421	-0.0358	0.2063	956.1645	0.123909	-437.909291	-437.901576	-437.900632	-437.941607	29.049	
C	-0.2714828861	 1.4780638288	-0.0627028694	-0.460357
C	 0.0133828167	-0.0103185557	-0.0178724444	 0.174177
N	-1.2102753856	-0.8226402405	-0.1215030406	-0.286375
C	-1.1663267242	-1.6619509089	 0.8309878009	 0.10632
O	-0.1138068318	-1.6726985914	 1.6871939788	-0.222198
C	 0.8007258529	-0.6889337856	 1.1676773498	 0.028675
C	 1.8522252066	-1.2694317014	 0.192475112	-0.379447
C	 1.1275447949	-0.5464701162	-0.9659232667	 0.383437
O	 1.3641813495	-0.3957874489	-2.1250852303	-0.28399
H	 0.6476219677	 2.0604392645	 0.0564247998	 0.118146
H	-0.7191764188	 1.7353318734	-1.0261130081	 0.15255
H	-0.9709714331	 1.7595056593	 0.730155031	 0.128016
H	-1.9295797241	-2.4003911962	 1.0495015557	 0.149471
H	 1.1700209679	-0.0855966516	 1.9958947308	 0.103505
H	 2.8785923459	-0.9237948534	 0.3457970159	 0.141511
H	 1.8566339414	-2.3611615663	 0.1269030149	 0.14656
