20
gdb 119349	3.85667	0.99082	0.95375	1.5466	78.6	-0.2247	0.0776	0.3024	1313.826	0.171866	-403.065578	-403.057246	-403.056302	-403.09907	31.808	
O	 0.0500193559	 1.4700277014	-0.1513372498	-0.418105
C	 0.0209639574	 0.054613299	-0.2357091846	-0.062749
C	-1.3576781633	-0.5270913792	 0.104426388	-0.375147
C	-1.3961860169	-2.0140466503	 0.0280862026	 0.40778
C	-1.3586099886	-3.0485856446	-1.0634589942	-0.134135
C	-0.156158428	-3.6817777137	-0.3907357137	-0.17701
N	-0.54519356	-2.9891439024	 0.9015247178	-0.207995
C	-1.8456134026	-3.6944946794	 1.2351795754	-0.175475
C	-2.4738373302	-3.0600651823	 0.0084057323	-0.156328
H	-0.0602379344	 1.7112069696	 0.7738631598	 0.281777
H	 0.2790308868	-0.1880101474	-1.271959748	 0.112376
H	 0.7819798323	-0.4077122026	 0.4100514222	 0.109293
H	-1.6416825981	-0.2053136116	 1.1171794527	 0.096594
H	-2.1043622486	-0.1074186781	-0.580459523	 0.113868
H	-1.5933964139	-2.9250723131	-2.1138298057	 0.08975
H	-0.0847432551	-4.7730174451	-0.315361545	 0.09596
H	 0.7944513265	-3.2769610955	-0.7480691767	 0.108421
H	-1.7650674816	-4.7852808574	 1.3092429736	 0.095852
H	-2.2456695823	-3.2936413248	 2.1703680253	 0.106367
H	-3.5152028155	-2.9395642622	-0.265407219	 0.088907
