19
gdb 79957	2.55006	1.60182	1.38535	1.5487	76.	-0.2341	0.0002	0.2343	1020.0651	0.158521	-423.013444	-423.00499	-423.004045	-423.045667	33.964	
C	-0.2047311228	 1.5893444603	 0.0127828357	-0.445641
C	 0.0226685052	 0.0737121627	-0.0194245248	 0.368283
O	-1.2437752134	-0.6036916991	-0.0487680247	-0.47186
C	 0.9008828876	-0.3999779681	-1.1713459521	-0.170709
C	 1.861487064	-1.2371095223	-0.7638721163	-0.092764
C	 1.8882199203	-1.3791766438	 0.7179855871	-0.158769
C	 2.1856409368	-0.087151907	 1.4623997584	 0.115333
O	 2.8281390395	 1.0031340651	 0.8767441521	-0.421929
C	 0.7524542094	-0.4744008013	 1.2098853567	-0.131465
H	 0.7348510417	 2.1295304905	 0.1479384101	 0.137564
H	-0.6727675377	 1.9294970972	-0.9196484768	 0.097658
H	-0.8735061531	 1.8424612546	 0.8403203009	 0.125625
H	-1.7472221221	-0.2526113732	-0.7917493151	 0.271355
H	 0.7189498648	-0.0927308057	-2.1964532394	 0.09267
H	 2.5806196724	-1.7280737758	-1.4107505232	 0.105867
H	 2.1409324893	-2.3305954973	 1.1723380234	 0.090567
H	 2.5259748595	-0.1993026762	 2.487264729	 0.110458
H	 2.7639014575	 0.8961265558	-0.0817061884	 0.281208
H	 0.1257036412	-0.7528602965	 2.0489261474	 0.096547
