18
gdb 110427	3.52879	1.22779	1.03692	4.4737	75.18	-0.2465	0.0038	0.2503	1182.8313	0.147575	-401.909521	-401.901654	-401.90071	-401.942146	30.073	
C	 0.0248866869	 1.5895352165	-0.0706279791	-0.386849
C	 0.1559527439	 0.0640971551	-0.0145414265	-0.20009
C	 0.6563151517	-0.5481462026	-1.3205599703	 0.001689
C	 0.6232690556	-2.0841996523	-1.3264108298	-0.05139
C	-0.6919536114	-2.1285772573	-1.9724109902	-0.048924
C	-0.4139863382	-0.6541293618	-2.4609977592	-0.22207
C	 0.3846184557	-1.3656992045	-3.5421708945	 0.440002
O	 0.6791461665	-1.1730069284	-4.6780577116	-0.315965
N	 0.5395642693	-2.5883302644	-2.7500103678	-0.213556
H	 0.9859059802	 2.0614766809	-0.3013394509	 0.122794
H	-0.6907011432	 1.9041404248	-0.8373697189	 0.120898
H	-0.3204445272	 1.9879797029	 0.887816365	 0.119995
H	 0.8537466102	-0.2121460228	 0.7871798273	 0.103155
H	-0.8092487573	-0.3861294666	 0.2506394684	 0.102075
H	 1.603120861	-0.0813106123	-1.621164629	 0.087108
H	 1.0751463146	-2.7718693212	-0.6221140798	 0.113252
H	-1.573165806	-2.748059487	-1.9036803679	 0.126566
H	-1.1184119823	 0.1439151809	-2.6777227051	 0.10131
