18
gdb 89269	2.52703	1.83588	1.36206	3.2732	70.37	-0.2295	0.0561	0.2857	970.4863	0.148053	-439.00661	-438.999048	-438.998104	-439.038067	31.157	
O	 0.0929841046	 1.4383680665	-0.1154389438	-0.436957
C	 0.024568695	 0.0480641504	-0.0006884266	 0.139234
C	 0.3138705714	-0.598063953	 1.4041712983	-0.343297
C	-1.0943755735	-1.2538769226	 1.3846852493	 0.409375
O	-1.2148762781	-2.637803971	 1.5312545972	-0.48237
C	-2.2859527713	-0.4290946246	 1.9623555673	-0.13709
N	-2.0219479208	 1.005979633	 1.6998453907	-0.359184
C	-2.5701123561	 0.1406458633	 0.6160392508	-0.051946
C	-1.3925614479	-0.6355974363	-0.0114647249	-0.108023
H	-0.4814449394	 1.7747025934	 0.5896349254	 0.291816
H	 0.671813628	-0.3626174227	-0.7798697526	 0.087412
H	 1.1087131981	-1.3484664334	 1.3814859987	 0.099511
H	 0.506602449	 0.122408703	 2.2015296667	 0.101775
H	-0.9566113952	-2.8685104633	 2.4310464578	 0.279224
H	-2.9562508274	-0.7307146811	 2.759489953	 0.09537
H	-2.7987454004	 1.5377297638	 2.0893717795	 0.237837
H	-3.5101378055	 0.402180223	 0.146392126	 0.099937
H	-1.6581975308	-1.2771314482	-0.8507950927	 0.077375
