17
gdb 133706	2.59891	1.23725	1.16004	3.2362	61.05	-0.2439	0.0686	0.3125	1129.9394	0.131232	-549.503966	-549.494597	-549.493653	-549.538217	34.411	
C	 0.026795381	 1.4747012019	-0.1319476691	-0.418797
C	 0.1367954499	-0.0297055871	-0.0499185668	-0.030111
C	 1.4761042876	-0.7235467534	-0.1297121913	-0.33463
C	 0.73943449	-0.6942963688	 1.1824437344	 0.129813
N	 1.2724917761	 0.0349463712	 2.2996636475	-0.575409
C	 0.1051650386	-1.9883270538	 1.6414616175	 0.290758
F	 0.989720858	-2.8038422728	 2.2257145885	-0.070926
F	-0.871256742	-1.7507931354	 2.5346761643	-0.087534
F	-0.447055915	-2.6688326966	 0.6177402505	-0.091096
H	 0.850353607	 1.9672131853	 0.3932386948	 0.105909
H	 0.0491470611	 1.8102016707	-1.1737931712	 0.127307
H	-0.910630171	 1.8291748336	 0.3109089594	 0.124012
H	-0.6844183903	-0.5717242055	-0.5072430884	 0.104738
H	 1.5425905564	-1.6651210452	-0.661761579	 0.133779
H	 2.3677776858	-0.1072004648	-0.1965130422	 0.112928
H	 2.1195574771	 0.5341181034	 2.0673026277	 0.238528
H	 0.6017483398	 0.6879446773	 2.6874064431	 0.240731
