17
gdb 46634	2.97324	1.60993	1.11111	4.2916	74.06	-0.246	-0.0043	0.2417	1062.0502	0.138478	-421.879041	-421.871925	-421.870981	-421.910813	27.594	
O	-0.1598655947	-0.0088987482	 0.099872187	-0.336607
C	-0.0326567542	 1.1775216276	 0.0259791436	 0.441176
O	-1.1155693268	 2.0180512618	-0.047185274	-0.238698
C	-0.7246111426	 3.4162289224	-0.0288170769	-0.182677
C	 0.7078923747	 3.3661276257	 0.3890524151	 0.308926
C	 1.5291612016	 4.0113378343	 1.209684107	-0.221979
C	 2.7946092253	 3.2008355863	 1.4366778704	-0.248236
C	 2.3922045248	 1.7668627464	 0.9718773881	-0.236676
C	 1.2367660143	 2.0199704786	-0.0178910809	-0.224685
H	-0.8747423199	 3.8258788432	-1.0359266093	 0.125463
H	-1.3818209784	 3.9438004777	 0.6668572531	 0.135633
H	 1.3413502592	 4.9655619362	 1.6887143173	 0.103491
H	 3.6326001838	 3.5932494341	 0.843564787	 0.113374
H	 3.119698688	 3.225413126	 2.4821139891	 0.112644
H	 3.2216492874	 1.2128216705	 0.528677478	 0.1114
H	 2.0256649326	 1.1861043913	 1.8236267887	 0.124912
H	 1.5864416849	 2.0106603561	-1.0620468034	 0.11254
