18
gdb 47827	2.43459	1.76954	1.16586	4.0804	73.1	-0.2421	-0.0029	0.2392	1056.0205	0.149324	-439.083111	-439.075373	-439.074429	-439.115811	29.597	
O	-0.1690983885	 0.576412334	 1.3343146755	-0.311297
C	-0.1676634175	 1.3228197549	 0.3924857402	 0.372075
O	-1.3490170377	 1.816031206	-0.0647960129	-0.23464
C	-1.6209301538	 1.9919550537	-1.4612022068	-0.074936
C	-0.9190851537	 3.1785552274	-2.1051894684	-0.228601
C	 0.5529934891	 2.9052132459	-2.4283334069	-0.147233
N	 1.4655362064	 2.5977005947	-1.337505907	-0.088612
C	 1.4351982009	 3.2860812759	-0.07468611	-0.24309
C	 1.1507748052	 1.8038277335	-0.160110891	-0.122737
H	-1.3855915391	 1.0642617611	-2.0001343743	 0.113315
H	-2.7043007511	 2.1278265339	-1.49511979	 0.12764
H	-1.4304255079	 3.4048607476	-3.0495583213	 0.110575
H	-1.0403549702	 4.0621490715	-1.4683388926	 0.11701
H	 0.6063232416	 2.060803901	-3.1275911349	 0.113714
H	 0.9796569255	 3.7700098807	-2.9492353489	 0.115303
H	 2.3906547957	 3.6231507376	 0.3190831392	 0.128442
H	 0.5871117614	 3.9237333183	 0.169725152	 0.125499
H	 1.9378072439	 1.1169046325	 0.135912448	 0.127573
