21
gdb 102025	2.08494	1.29622	0.8613	3.0436	82.86	-0.2473	-0.0129	0.2344	1411.3914	0.181328	-420.4493	-420.438858	-420.437914	-420.485304	37.186	
C	-0.030031659	 1.5100428732	 0.0357857744	-0.375833
C	-0.0762534106	-0.0157396386	-0.0465686527	-0.161505
N	-1.449453384	-0.5530144502	-0.037827127	-0.108566
C	-2.0392518187	-0.784857682	-1.2744331088	 0.101168
N	-3.233924799	-1.1758121572	-1.4716634985	-0.469604
C	-2.0320787502	-0.7215620287	 1.2367282373	 0.420825
O	-1.3864808158	-0.4053770309	 2.2170748537	-0.35738
C	-3.4278722272	-1.2986554976	 1.3444655895	-0.268613
C	-3.8584296938	-1.4719750851	 2.7998970083	-0.383606
H	 1.0083870688	 1.8558388399	 0.020497637	 0.119603
H	-0.5543965082	 1.9708342089	-0.8077920252	 0.115208
H	-0.49172703	 1.8518767786	 0.9645183379	 0.149436
H	 0.4106398937	-0.3682154634	-0.9602850047	 0.105713
H	 0.4477854536	-0.4503874094	 0.8045880752	 0.142582
H	-1.3254842222	-0.5827315572	-2.0809709879	 0.099287
H	-3.3993976413	-1.2744668197	-2.4708877156	 0.229036
H	-4.1154009773	-0.6519281099	 0.7904440005	 0.144348
H	-3.4636401858	-2.2433007962	 0.7925920648	 0.137874
H	-3.1833483174	-2.1435892227	 3.3363019576	 0.125911
H	-3.8536786531	-0.516854206	 3.3306889692	 0.127684
H	-4.8687826823	-1.8886616957	 2.842721135	 0.106432
