17
gdb 38168	2.67304	2.02945	1.37712	1.3239	72.33	-0.2144	0.0194	0.2338	932.7504	0.138942	-417.971241	-417.964425	-417.963481	-418.002348	27.435	
C	 0.1135019925	 1.4884169618	 0.0514511266	-0.364072
C	 1.346993171	 0.5867030014	-0.0281075279	-0.05921
N	 2.2071887903	 0.3991470374	 1.1050657894	-0.263822
C	 1.8429874429	-0.4249684316	 1.9946799119	 0.123257
O	 0.707358447	-1.1665888093	 2.0947591331	-0.237857
C	-0.3380824123	-0.9309260477	 1.1614146033	 0.056392
C	-0.591444939	-1.9971720027	 0.0651862522	-0.194346
N	-0.7078754054	-0.8908742042	-0.9315621407	-0.383034
C	-0.0315339519	 0.0070279436	 0.0067407249	 0.306459
H	-0.0936934984	 2.0028326341	 0.9855596785	 0.121139
H	-0.1245807457	 2.0546279419	-0.8435576141	 0.121559
H	 1.8877021345	 0.6261350613	-0.970176459	 0.097858
H	 2.4822433685	-0.6359540197	 2.8489351851	 0.126837
H	-1.2346150987	-0.6827597499	 1.7367098026	 0.103357
H	 0.2873401497	-2.640620574	-0.0624570685	 0.110413
H	-1.489931074	-2.6120398069	 0.1599741493	 0.112322
H	-0.208438671	-1.0523359256	-1.8010989566	 0.222748
