17
gdb 63450	1.92098	1.77535	1.06502	1.8099	82.54	-0.2568	-0.0024	0.2545	1159.6724	0.130192	-384.60654	-384.59658	-384.595636	-384.640697	37.054	
C	-0.0643911358	 1.5384041586	-0.017094295	-0.465102
C	-0.0777943375	 0.0274254665	 0.0440498581	 0.35323
C	-1.2533782522	-0.6400289241	-0.6337998395	-0.465103
O	 1.1867917024	-0.603513802	-0.1653327442	-0.304421
C	 0.6321526477	-0.6784040877	 1.1685760979	 0.002131
C	 1.3276852562	 0.076246292	 2.187142559	 0.285959
C	 1.8950891174	 0.6851062069	 3.0538457183	-0.446842
C	 0.2007729697	-1.98845347	 1.6026521887	 0.285959
C	-0.1537778911	-3.0688165897	 1.9911637145	-0.446839
H	 0.803310002	 1.9493066271	 0.4995006112	 0.143534
H	-0.0347307994	 1.8604861459	-1.0634642058	 0.128545
H	-0.9725128677	 1.9489046955	 0.435770654	 0.126618
H	-1.2569255181	-0.3790996529	-1.6974773889	 0.128548
H	-1.2022535969	-1.7250685439	-0.5405691773	 0.143534
H	-2.1956098572	-0.2918888563	-0.1987363207	 0.126616
H	 2.4025490713	 1.2216439419	 3.8173403444	 0.201817
H	-0.4618430607	-4.0266611577	 2.331666135	 0.201818
