19
gdb 23056	3.13249	1.08137	0.91897	0.9678	82.06	-0.2283	-0.0034	0.2249	1324.6514	0.158117	-419.134678	-419.125493	-419.124549	-419.168737	34.232	
C	-0.0888672446	 1.4175059072	-0.1963334786	-0.392272
C	 0.0281952314	-0.0712853795	 0.0129885511	-0.06592
N	 1.3813546085	-0.6435451834	-0.044539576	-0.385735
C	 0.662423514	-0.653656829	 1.2299949632	 0.282395
C	 1.1237296821	 0.0067062333	 2.5439383763	-0.314997
C	 0.5159867455	-1.2069318691	 3.3293058081	-0.328225
C	 0.2009446241	-1.8507039252	 1.9903283097	 0.353227
N	-0.2007596561	-2.9746706752	 1.5642919706	-0.262313
O	-0.4915446056	-3.85041088	 2.6256585537	-0.389816
H	 0.752277824	 1.9395174488	 0.2670296979	 0.128187
H	-0.0859198668	 1.6577529894	-1.2649370418	 0.124384
H	-1.0202289864	 1.8014249701	 0.233809953	 0.116933
H	-0.7777152793	-0.6700527277	-0.4096027801	 0.097442
H	 1.3595364385	-1.5803577573	-0.4433127741	 0.241399
H	 2.2098041262	 0.0837507089	 2.6241705305	 0.119915
H	 0.6787670971	 0.9790344854	 2.7654427939	 0.108889
H	 1.209869915	-1.7743642318	 3.9544298579	 0.131255
H	-0.3708945453	-0.973754326	 3.9250128511	 0.128468
H	-0.7644732821	-4.6493199389	 2.1619477239	 0.306784
