20
gdb 101595	3.34766	0.8457	0.74767	2.45	73.44	-0.2555	0.0607	0.3163	1581.7098	0.168798	-477.466829	-477.455874	-477.454929	-477.504212	37.608	
C	-0.1388850908	 1.2857537282	 0.1329458104	-0.329388
N	-0.0251912039	-0.1352681714	-0.1154691735	-0.355971
C	 0.6776619239	-0.6376186651	-1.1643112329	 0.524872
O	 1.2859601427	 0.0126121719	-1.9862579977	-0.41412
O	 0.5966699151	-1.9968249282	-1.1605886893	-0.311855
C	 1.3276787833	-2.6884063336	-2.2064385599	 0.118892
C	 2.7839319675	-2.8676022665	-1.7960164977	-0.398297
C	 0.577142157	-4.0042579395	-2.3955022317	-0.072563
O	 0.5630852798	-4.7966479853	-1.2222406786	-0.419212
H	 0.4589641344	 1.7987944443	-0.6210263133	 0.17166
H	-1.177284066	 1.627881136	 0.0537296555	 0.126382
H	 0.2409735291	 1.548653276	 1.1265593837	 0.126682
H	-0.4925448783	-0.7925050314	 0.4853853978	 0.249366
H	 1.261588383	-2.0877015791	-3.1180013302	 0.108642
H	 2.8535123133	-3.4852994878	-0.897480817	 0.128294
H	 3.3371621445	-3.3657927817	-2.5986717738	 0.117586
H	 3.2467200312	-1.8956892832	-1.613951989	 0.137962
H	-0.444110018	-3.7862312085	-2.7438073412	 0.092131
H	 1.0763926542	-4.596550727	-3.1691245138	 0.112081
H	 0.1864544983	-4.2443653882	-0.5282332877	 0.286857
