20
gdb 98462	2.22743	1.29526	0.95449	1.7017	75.83	-0.2554	-0.0229	0.2324	1305.4459	0.169684	-440.280731	-440.270836	-440.269892	-440.315901	35.878	
C	-0.1703765494	 1.7253892843	-0.3551154332	-0.38438
C	-0.412009274	 0.3005677144	-0.8461663559	-0.30475
C	 0.8608126493	-0.504177122	-1.015409655	 0.341235
O	 1.9553129976	-0.0542105143	-0.7391138346	-0.334113
C	 0.7467123408	-1.9207880425	-1.5378103082	 0.190052
C	-0.5707116463	-2.6560467458	-1.4286855214	-0.143485
O	-0.9442394854	-2.8544514269	-0.0741848411	-0.419015
C	 1.7148783031	-2.271011764	-2.6259386186	-0.259765
N	 1.9247247128	-2.7745110092	-1.2735010611	-0.34995
H	 0.3516932871	 1.7228326546	 0.6048322126	 0.134134
H	 0.4497973257	 2.2848575487	-1.0602901123	 0.12858
H	-1.1192910801	 2.2545829465	-0.2327735839	 0.111887
H	-1.0511344222	-0.26508378	-0.1554161479	 0.155725
H	-0.9500885099	 0.2954897728	-1.8044475045	 0.122819
H	-1.3845339908	-2.0888338138	-1.8902407559	 0.111757
H	-0.4845035985	-3.6118133632	-1.9642718434	 0.10057
H	-0.2200775004	-3.3412378618	 0.3373460828	 0.294545
H	 1.4249517086	-3.0131333807	-3.3652605971	 0.122856
H	 2.3612171208	-1.4757073239	-2.9856704359	 0.132066
H	 2.6191002313	-2.1781353931	-0.8207656255	 0.249234
