18
gdb 62611	3.00045	1.76301	1.52313	2.7399	74.54	-0.21	-0.0039	0.2061	929.5983	0.147867	-401.900952	-401.893461	-401.892517	-401.932215	30.677	
C	-0.0660303745	 1.6017547406	-0.001761694	-0.467815
C	 0.0690411447	 0.0873025675	-0.0073275052	 0.421117
O	-1.2069430134	-0.5273743403	 0.1209339145	-0.468889
C	 0.7522494347	-0.638052349	-1.1580159465	-0.081953
C	 2.2512736751	-0.7416197694	-1.0425423887	-0.080271
C	 2.99972818	 0.1632006208	-0.1209413872	-0.088928
C	 2.3787249295	 0.1612841799	 1.0596446591	-0.090529
C	 1.1219252832	-0.6543002811	 0.9155310027	-0.131746
N	 1.3960463874	-1.6378005898	-0.2343552023	-0.124909
H	 0.8989913478	 2.0983418169	-0.1179915635	 0.125536
H	-0.7245688168	 1.913319517	-0.8183778597	 0.126926
H	-0.5132060932	 1.9481743703	 0.9391426154	 0.102688
H	-1.5961032649	-0.2183382977	 0.9466715029	 0.275379
H	 0.2269873211	-0.9421066549	-2.058637879	 0.1
H	 2.7599333387	-1.2185815457	-1.8755181481	 0.094842
H	 3.8868750976	 0.7142146421	-0.4038297153	 0.108496
H	 2.6299396903	 0.7481383428	 1.933794465	 0.106892
H	 0.7079728927	-1.1209329902	 1.80963687	 0.073162
