21
gdb 94285	2.8746	1.42071	1.19234	1.5591	82.2	-0.2272	0.0772	0.3043	1133.7882	0.182721	-387.032266	-387.023941	-387.022996	-387.065089	32.542	
C	-0.2374250237	 1.4874736941	 0.0340890234	-0.396678
C	-0.0290260746	-0.025576451	 0.0333323927	-0.067602
C	 1.1761125562	-0.4976862052	-0.844041842	-0.219891
C	 2.0273050686	-0.7130068402	 0.4426160125	-0.314395
C	 0.7279334617	-0.5920606933	 1.2486512089	 0.36658
C	 0.6450976081	-0.3241147859	 2.7322266043	-0.236336
C	-0.8181170451	-0.2842446826	 3.1675024864	-0.092385
O	-1.1000794495	-1.5470123371	 2.5044676706	-0.286712
C	 0.2808966625	-1.683445185	 2.1600487612	 0.018738
H	 0.694318226	 2.0181783062	 0.260468003	 0.111485
H	-0.5852320406	 1.8295254858	-0.9469588514	 0.112814
H	-0.9818935212	 1.793432572	 0.7758675765	 0.116231
H	-0.9761069238	-0.5337980849	-0.1691382664	 0.080641
H	 0.9726437017	-1.433183624	-1.370099826	 0.103544
H	 1.5586208876	 0.2312848553	-1.5630890574	 0.094638
H	 2.5755077915	-1.6560102524	 0.5251567507	 0.099099
H	 2.7273744521	 0.1073475516	 0.6299439782	 0.102006
H	 1.4935364656	-0.0096685392	 3.326532931	 0.093896
H	-0.9518284468	-0.3863659555	 4.2506003594	 0.107825
H	-1.447287795	 0.5314304944	 2.7943391449	 0.106985
H	 0.7307187288	-2.6681397526	 2.2382218494	 0.099516
