20
gdb 57098	2.39231	1.39197	1.14686	3.684	78.26	-0.2604	0.0366	0.2969	1175.0544	0.171846	-403.17913	-403.170047	-403.169103	-403.213446	33.154	
C	-0.2170131668	 1.5071712451	 0.0583185658	-0.394359
C	-0.0163017074	-0.0185521595	-0.0008775348	-0.15844
C	-1.3070905792	-0.7165396694	 0.0151441223	 0.290707
N	-2.3185492278	-1.2760692068	 0.0309257477	-0.341137
C	 0.8200686695	-0.4405969984	-1.2318524053	 0.13906
C	 1.0100933958	-1.9686228769	-1.4086070779	-0.270123
C	 0.1388145089	-2.3011801597	-2.6338485415	-0.220078
C	 0.1723899645	-0.98130931	-3.4047261377	-0.067404
O	 0.1690360121	 0.0350142602	-2.4049838	-0.266087
H	 0.7565064173	 2.0024654343	 0.1196945064	 0.121725
H	-0.7265963527	 1.8534536249	-0.842264148	 0.157949
H	-0.8069366471	 1.7915889205	 0.932682687	 0.131933
H	 0.5345075364	-0.3426251328	 0.8918291835	 0.122334
H	 1.7943280026	 0.0604760014	-1.1291523272	 0.077052
H	 2.0622373048	-2.1917759308	-1.6073244945	 0.107445
H	 0.7156508741	-2.5296659558	-0.5185375669	 0.119321
H	 0.5225362139	-3.1438377597	-3.2135697246	 0.102895
H	-0.8846402368	-2.5283009243	-2.3251769079	 0.139236
H	 1.0801720237	-0.9050029527	-4.0243083011	 0.090697
H	-0.6972800058	-0.8173221796	-4.0462139552	 0.117275
