21
gdb 110941	2.53892	1.17939	0.99722	2.7385	78.57	-0.2413	0.0717	0.313	1294.6337	0.181951	-424.17428	-424.164873	-424.163929	-424.208716	34.818	
C	-0.4622586711	 1.1322326149	 0.2506244827	-0.23936
O	 0.4251981868	 0.0912698508	-0.109673761	-0.23572
C	 0.9201070099	-0.5967575108	 0.9994724927	 0.14018
C	 0.1548141345	-1.6824147252	 1.6914688102	-0.114671
C	-0.6691257127	-2.4870282037	 0.6763226017	-0.270006
C	 0.6483686849	-2.8699153619	-0.0793968296	 0.024168
C	 0.7559632553	-2.6427496575	-1.5823940075	-0.100952
O	-0.0349975465	-3.575438014	-2.3133628143	-0.422711
C	 1.4521650061	-1.9828502156	 0.8845420587	-0.160197
H	 0.0374949395	 1.8887253197	 0.8745615497	 0.107551
H	-0.7995801028	 1.6045010767	-0.6747373493	 0.127832
H	-1.3332774243	 0.7510274522	 0.8023542979	 0.112001
H	 1.4960056864	 0.0382505333	 1.6771641262	 0.085437
H	 0.0021810345	-1.6894117668	 2.7644342582	 0.085509
H	-1.1751992433	-3.3494075787	 1.113037616	 0.105284
H	-1.3988086491	-1.9002541895	 0.107430262	 0.092866
H	 0.8763091517	-3.9218715846	 0.1185405681	 0.082004
H	 0.4959139627	-1.6074860775	-1.8318974035	 0.111231
H	 1.7893182079	-2.8124923445	-1.9066472074	 0.101964
H	-0.9580963406	-3.3759173083	-2.1287474851	 0.281076
H	 2.4448000404	-2.2236332089	 1.2489876133	 0.086516
