22
gdb 93774	2.33562	1.46536	1.10979	1.6253	83.53	-0.2374	0.0306	0.2679	1221.1846	0.194145	-404.384455	-404.374906	-404.373962	-404.418394	36.043	
C	-0.1000901635	 1.5847648021	-0.1290332395	-0.393521
C	 0.0164206961	 0.0584229934	-0.0118243223	-0.027993
C	 0.7753221444	-0.5369439446	-1.1965339352	-0.082987
O	 2.1570602678	-0.1521226804	-1.1830877485	-0.26302
C	 2.7531856754	-0.0915407922	 0.0425881017	 0.391244
C	 4.2244394259	 0.1657673107	-0.1041119655	-0.452289
N	 2.2011425136	-0.2187501589	 1.1769004502	-0.316785
C	 0.7522384403	-0.4274899154	 1.2586132084	 0.05586
C	 0.2394441025	 0.1917539007	 2.5602933876	-0.395825
H	 0.8784948621	 2.0700140281	-0.0701112987	 0.131755
H	-0.5526229047	 1.8620876423	-1.0869322678	 0.10935
H	-0.7260180569	 1.9980891071	 0.6655703204	 0.12027
H	-0.9932067314	-0.3716546498	-0.0187435684	 0.073627
H	 0.7195698797	-1.6334197624	-1.1807432228	 0.104745
H	 0.3837445275	-0.1872445093	-2.1558439764	 0.109511
H	 4.3937801585	 1.0847168014	-0.6744903489	 0.135573
H	 4.6792856977	 0.2533929677	 0.881578914	 0.142201
H	 4.6991831064	-0.6496506672	-0.659543911	 0.134996
H	 0.5867968599	-1.5130380275	 1.3319787008	 0.079344
H	 0.4341813575	 1.2673162304	 2.5904625727	 0.120117
H	-0.8374872503	 0.028659668	 2.6773678557	 0.101398
H	 0.7562271416	-0.2608467342	 3.4104569633	 0.122429
