14
gdb 715	5.97304	5.2497	4.16578	0.2808	55.83	-0.2442	0.1074	0.3515	420.7831	0.122208	-233.24225	-233.237852	-233.236908	-233.269547	18.147	
C	-0.0135962567	 1.4908256789	 0.1368495624	-0.219952
C	 1.5033833749	 1.4193699005	-0.0216615295	-0.053681
C	 1.9715349874	 0.10491215	 0.6255989856	-0.053684
C	 0.7321800545	-0.6031539739	 1.1679143761	-0.219951
C	 0.0000441088	-0.0472932609	-0.0852003956	-0.053803
C	 1.4174514586	 0.1158286322	-0.7791068732	-0.071189
H	-0.4371212867	 1.8618826693	 1.0782096336	 0.084277
H	-0.4735381541	 2.0161036876	-0.7050718919	 0.095754
H	 2.1994646424	 2.2325849375	-0.183806688	 0.080488
H	 3.0032165062	-0.024149748	 0.9274519278	 0.080488
H	 0.8463636643	-1.6898626753	 1.1197215966	 0.095755
H	 0.3390117396	-0.3173708185	 2.1512559117	 0.084275
H	-0.8672502028	-0.5590539005	-0.4972099543	 0.066585
H	 1.8286448536	-0.2036654887	-1.7253460514	 0.084639
