18
gdb 55416	2.66965	1.53992	1.00123	4.3656	75.55	-0.237	0.0065	0.2436	1159.7113	0.14946	-435.324222	-435.315593	-435.314649	-435.357776	31.845	
C	 0.0870580667	 1.4912385316	 0.1432408346	-0.462458
C	 0.0324367817	-0.0115154424	 0.0308488352	 0.39146
O	 1.0290668348	-0.7076760797	-0.0121407846	-0.357072
N	-1.21315258	-0.6354164654	-0.0119394154	-0.136882
C	-1.2602630382	-2.0950691038	-0.1388763822	-0.149679
C	-2.7311542537	-2.4078872892	 0.1629193448	-0.192244
N	-3.3764175817	-1.1580691463	-0.2261011808	-0.349641
C	-2.5022113673	-0.0818854921	-0.0879344902	 0.438745
N	-2.7581227425	 1.166078026	-0.0628264368	-0.583314
H	 1.1381978008	 1.7735795687	 0.2046139406	 0.128543
H	-0.3933444231	 1.9633865215	-0.7161696588	 0.159332
H	-0.4633409188	 1.8418194825	 1.0186501414	 0.152877
H	-0.9785935908	-2.3973397241	-1.1537099791	 0.128739
H	-0.5612196313	-2.5604047694	 0.5552145116	 0.143524
H	-3.1039427578	-3.2515622081	-0.4234027737	 0.121648
H	-2.8753431351	-2.6355243586	 1.2288402903	 0.112214
H	-4.327610234	-0.9939689158	 0.0657373806	 0.244678
H	-3.7605202699	 1.3298106945	-0.1283608477	 0.209531
