21
gdb 77588	2.70574	1.40626	1.19757	1.7791	83.15	-0.2411	0.0906	0.3316	1160.0131	0.180699	-387.048711	-387.039685	-387.038741	-387.08187	35.07	
C	-0.1007759704	 1.5511983085	 0.0808541855	-0.408878
C	-0.0256572007	 0.0362671283	-0.0367934954	-0.151453
C	 0.72245467	-0.5849871693	-1.2536787532	 0.382454
C	 0.1008201495	-1.2034598624	-2.4697381672	-0.337042
C	 1.0047245727	 0.0036910405	-2.601282754	-0.320587
C	 1.6947539494	-1.2549757155	-0.3089938245	-0.156887
O	 2.3038478844	-0.2150153472	 0.4825386329	-0.292934
C	 1.0051743812	-0.6948848024	 0.8671141094	 0.425598
C	 0.8179452559	-1.1918971511	 2.2634354529	-0.504016
H	 0.9029803837	 1.9816723267	 0.0375820377	 0.134923
H	-0.6953736523	 1.9834316186	-0.7314671566	 0.110418
H	-0.5678322384	 1.8525630831	 1.0250667562	 0.110594
H	-1.0170707603	-0.4190140073	 0.0717573203	 0.072411
H	 0.4771657162	-2.1644198738	-2.8073106169	 0.111546
H	-0.9647934484	-1.0662735478	-2.6257965486	 0.111229
H	 0.544953786	 0.9562732359	-2.8446911905	 0.11424
H	 1.9931929449	-0.1335804425	-3.0272223751	 0.115594
H	 2.2567432756	-2.1746264451	-0.4362474728	 0.096667
H	 0.7336888098	-0.3561435834	 2.9676883237	 0.129841
H	-0.0946830622	-1.7914320904	 2.3437929286	 0.122988
H	 1.6703651034	-1.8052848533	 2.5674967276	 0.133294
