18
gdb 71629	2.80519	1.69086	1.60301	1.0745	70.96	-0.2399	0.0818	0.3218	937.6551	0.14954	-439.019466	-439.012336	-439.011392	-439.050715	28.627	
C	 0.0106890041	 1.4783874312	-0.0370387623	-0.533603
C	-0.0070289502	-0.0187305618	-0.005185464	 0.267708
N	 0.7007934971	-0.898694151	-1.0176307793	-0.357268
C	 0.0525907848	-1.8824403789	-0.0744535515	-0.148382
C	 0.5831199264	-0.974657774	 1.0770001066	 0.129372
O	-0.0730227679	-1.0023038087	 2.320397813	-0.271
C	-1.3653294763	-1.5473219527	 2.2006415463	 0.014881
O	-2.0662044722	-1.0240991918	 1.0966545887	-0.270563
C	-1.2296883069	-0.9905027233	-0.0381683381	 0.088977
H	 1.0383956828	 1.8545537155	-0.0378588412	 0.132993
H	-0.4987134431	 1.8654821549	-0.9262986057	 0.120452
H	-0.5024763314	 1.8726434235	 0.8457091995	 0.138802
H	 0.1764513832	-0.8874739076	-1.8993993047	 0.208945
H	 0.1564034046	-2.9584003528	-0.2155345832	 0.086698
H	 1.6620633835	-0.938908031	 1.229008574	 0.09835
H	-1.2902544125	-2.6433606596	 2.0979235927	 0.090885
H	-1.9213978205	-1.2893931318	 3.1038207373	 0.122912
H	-1.8533265154	-0.9692598001	-0.937233788	 0.079842
