16
gdb 42705	3.17516	2.03261	1.88937	4.094	70.4	-0.2327	-0.0124	0.2203	797.3412	0.127094	-400.684433	-400.678663	-400.677719	-400.714366	24.468	
O	 0.0193699585	 0.0764312555	 0.3233943074	-0.315011
C	-0.0594622021	 1.2401968308	 0.0769440209	 0.427839
C	-1.1531324548	 2.2796527722	-0.084364744	-0.212498
C	-1.0525367758	 3.1902072508	 1.2374844517	-0.053678
C	 0.0419201531	 2.686946129	 2.211597297	-0.244735
C	 1.0819631327	 3.1045479338	 1.1471950438	-0.016281
C	 0.0289951414	 4.0868632292	 0.5322216291	-0.055708
C	-0.0417445251	 3.1844629047	-0.7052600594	 0.008458
N	 0.995180838	 2.2333980918	-0.1269350602	-0.211225
H	-2.1461251086	 2.060876409	-0.475351418	 0.086727
H	-2.0040453827	 3.5591671796	 1.613611917	 0.086608
H	 0.1181560341	 3.3648471504	 3.0679762748	 0.108356
H	 0.0193342252	 1.6525349073	 2.5643774499	 0.130166
H	 2.1066999107	 3.3462366614	 1.4247620939	 0.092091
H	 0.067652519	 5.1716717791	 0.5801921762	 0.081076
H	 0.0441132365	 3.4556902855	-1.7558209901	 0.087815
