18
gdb 104503	1.95252	1.29281	0.97832	3.5184	72.08	-0.2793	0.0255	0.3049	1276.4413	0.14546	-439.080652	-439.07089	-439.069946	-439.115926	34.762	
C	 0.4573290348	 1.9334302285	 1.4737569421	-0.431042
C	 0.0361423198	 0.4913510146	 1.3646041202	 0.032203
O	 0.2025119259	-0.1663644481	 0.0947144903	-0.308401
C	 0.9335647489	-0.6680899144	 1.2237049598	 0.346334
C	 2.4395676483	-0.5653202138	 1.0819736664	-0.141599
O	 2.8965948139	-1.4517710598	 0.0727372071	-0.414847
C	 0.4446385104	-2.0421772318	 1.6887334018	-0.405585
C	 0.7081331469	-2.2680651709	 3.1078414731	 0.262094
N	 0.9263673319	-2.4189482994	 4.2325901068	-0.31016
H	 1.4046411022	 2.1274476492	 0.9688217758	 0.133094
H	-0.304518727	 2.5757652091	 1.0207042807	 0.137761
H	 0.5533428553	 2.2186512629	 2.5264740058	 0.138473
H	-0.9305757395	 0.2789014225	 1.8269576479	 0.097034
H	 2.7374122826	 0.4681208672	 0.8718295781	 0.101249
H	 2.927330079	-0.8761709553	 2.0114485725	 0.137465
H	 2.478701354	-1.1736149962	-0.7508257285	 0.296134
H	-0.6286361862	-2.1303096201	 1.4975642236	 0.158562
H	 0.955758619	-2.8117180744	 1.1002477364	 0.171229
