23
gdb 106043	2.56086	1.47499	1.17103	0.2786	88.95	-0.2377	0.0879	0.3255	1190.3718	0.206132	-351.116377	-351.107517	-351.106572	-351.149654	34.92	
C	-0.0031011295	-0.6257022079	 0.7093528831	-0.377198
C	-0.3514271184	-0.353114483	-0.7599693626	-0.307774
C	 0.8042230985	-0.5449955598	-1.7046564905	 0.371087
C	 0.5801513912	-0.9203365116	-3.1844108272	-0.122319
C	 1.8357464819	-0.5602208585	-3.9742745373	-0.241108
C	 2.6186638298	-0.9712861993	-2.69817533	-0.082377
C	 1.3634326342	-1.8328606176	-2.2650485649	-0.135371
C	 2.2094391787	 0.0675943013	-1.6084653141	-0.01968
C	 2.4363934786	 1.5614442818	-1.8119905692	-0.428333
H	 0.3599173168	-1.6498642498	 0.8442674805	 0.115688
H	 0.7787926061	 0.0523477928	 1.0667161318	 0.117397
H	-0.8784319406	-0.4893312734	 1.3520021764	 0.108795
H	-1.1743811415	-1.0120383732	-1.0663404674	 0.095193
H	-0.7364101416	 0.67143685	-0.8581858494	 0.098424
H	-0.4250516694	-1.0712065761	-3.559320939	 0.076534
H	 2.0037887132	-1.2763344568	-4.7841819161	 0.095598
H	 1.9641723957	 0.4571380937	-4.3601116112	 0.084948
H	 3.6478151467	-1.3204540658	-2.7644613128	 0.061335
H	 1.2294079686	-2.8682229155	-1.9857446831	 0.082683
H	 2.6595165391	-0.2456958381	-0.6585828655	 0.065892
H	 1.9440186482	 1.9351451994	-2.7141988293	 0.117347
H	 2.0413448177	 2.1330481192	-0.9644927707	 0.112327
H	 3.5054999559	 1.7905415282	-1.8911183817	 0.110911
