17
gdb 56607	3.15173	0.93447	0.93241	3.854	68.88	-0.2702	0.0149	0.285	1323.988	0.135092	-455.112155	-455.102788	-455.101844	-455.146819	33.615	
O	-0.5419093021	 1.0984557751	-0.2694789662	-0.414856
C	 0.0637451179	-0.1191756669	 0.0902439286	-0.01855
C	 0.6685732864	-0.7959677797	-1.0807943395	 0.275043
N	 1.1359047634	-1.3313294509	-1.9914431334	-0.316754
C	 1.1254168161	 0.0986613382	 1.1924234992	 0.080245
O	 1.9891843578	 1.0989099398	 0.6615534545	-0.449573
C	 0.4938108589	 0.5397514665	 2.4898844676	-0.020261
C	 0.1710736927	-0.4482537932	 3.5461832606	-0.245028
N	 1.289642512	 0.4932314807	 3.7334611572	-0.332721
H	 0.1871227668	 1.7214732925	-0.4017748498	 0.301939
H	-0.7257694129	-0.7693564109	 0.4806591411	 0.141222
H	 1.6743095654	-0.8432021407	 1.3521115818	 0.089606
H	 2.4466155901	 1.5291799841	 1.391299228	 0.303112
H	-0.1254954249	 1.4282384612	 2.4001833141	 0.11823
H	-0.6837542686	-0.2812218934	 4.1939354142	 0.134577
H	 0.4014571025	-1.4944069983	 3.3602670815	 0.120892
H	 2.1665116183	 0.0006305758	 3.5688005507	 0.232877
