21
gdb 76793	1.92428	1.79349	1.14024	2.0871	78.25	-0.251	0.0578	0.3088	1158.8033	0.180471	-424.197514	-424.187893	-424.186949	-424.231555	36.349	
C	-0.5873505262	 0.8323437213	-1.5907674104	-0.418124
C	 0.2336665924	-0.2696862211	-0.9412607972	-0.067616
C	 1.7407049321	-0.423937459	-1.3104572165	 0.066588
O	 2.2494810747	 0.8281551993	-1.7312018371	-0.424634
C	 2.052656458	-0.7586805357	 0.1902303668	-0.080865
C	 3.3118164118	-0.1975913627	 0.8307826264	-0.43858
C	 0.6824615978	-0.153411889	 0.52046211	 0.441901
C	 0.3459183394	 0.8706461907	 1.5092921424	-0.262502
O	-0.1061800584	-0.4868502134	 1.6471907744	-0.285371
H	-0.070633923	 1.7924348687	-1.5288026401	 0.133263
H	-0.7694234193	 0.6165017927	-2.648513732	 0.115605
H	-1.5612513987	 0.9248270677	-1.0982659263	 0.117382
H	-0.2571024643	-1.2414858827	-1.0714695939	 0.085255
H	 1.9805780436	-1.2093137889	-2.0380533629	 0.060923
H	 3.2021906446	 0.7440952431	-1.8368069229	 0.287154
H	 1.9986803301	-1.8446684436	 0.3326527404	 0.083258
H	 3.4029029243	 0.8752992806	 0.6378334899	 0.123224
H	 3.2962672729	-0.3471251821	 1.9153071813	 0.127901
H	 4.2113607176	-0.6937914849	 0.4480205382	 0.109893
H	 1.0906573716	 1.189661022	 2.2372897836	 0.111058
H	-0.4318540809	 1.6017167269	 1.293694096	 0.114287
