20
gdb 34858	3.53433	1.23121	1.13142	4.4616	82.42	-0.2901	0.0357	0.3258	1147.0866	0.174814	-366.034359	-366.026825	-366.025881	-366.06621	30.214	
N	-0.0450341563	-1.1210895897	-0.0723809745	-0.334307
C	-0.0183734874	 0.0343101976	-0.0211519263	 0.262887
C	 0.0191622836	 1.4854897876	 0.0476284849	-0.151334
C	-0.1127061742	 2.0618261871	 1.500864592	-0.006887
C	 1.4338724343	 1.9267239187	 1.6141143524	-0.246379
C	 1.4672406026	 2.0889501197	 0.0663575377	-0.006887
C	 1.3733461579	 3.568331844	-0.3412992004	-0.220264
C	 0.5603394854	 4.3774702743	 0.6983578191	-0.200019
C	-0.5372201937	 3.5355311515	 1.3933923524	-0.220264
H	-0.6665071224	 1.8976500575	-0.6997652949	 0.105927
H	-0.7360884666	 1.4995987389	 2.1977565101	 0.085575
H	 1.9756827138	 2.6525894466	 2.2245813958	 0.099817
H	 1.7242995652	 0.9179766154	 1.9149140586	 0.123964
H	 2.2312670705	 1.5505434371	-0.496443891	 0.085575
H	 2.3779368031	 3.9957119078	-0.4311837852	 0.102531
H	 0.9193918539	 3.6338667097	-1.3377594306	 0.102802
H	 1.2511334125	 4.739733473	 1.4660391851	 0.111106
H	 0.1289618286	 5.2720452496	 0.2401594685	 0.100824
H	-1.4865026597	 3.5925623103	 0.8466634894	 0.102802
H	-0.7312502611	 3.9423331732	 2.391790977	 0.102531
