19
gdb 87938	3.89123	1.03377	0.93725	3.3704	75.61	-0.2341	-0.0133	0.2208	1271.4033	0.158659	-423.041542	-423.033023	-423.032078	-423.074911	32.805	
O	-0.1332656727	 1.4102516071	-0.0858512102	-0.421029
C	-0.0494628869	 0.020071822	 0.0451205674	 0.035157
C	-0.5260666058	-0.6451714807	 1.3173840301	-0.378865
C	-1.3425395082	-0.7247729914	 0.0379894964	 0.340154
C	-2.6834172812	 0.008075115	-0.0561089458	-0.280653
C	-3.722034363	-1.1210116563	 0.039318685	-0.320787
C	-3.0289618194	-2.3572638524	-0.5460285199	 0.405897
O	-3.5625379524	-3.3919829785	-0.8488600465	-0.31231
C	-1.5290759214	-2.0498475904	-0.6835251713	-0.410639
H	 0.5575308412	 1.8033461334	 0.4576743092	 0.289376
H	 0.7963953833	-0.4364465428	-0.47132996	 0.085045
H	-0.0047806274	-1.5319532024	 1.664543924	 0.111298
H	-0.8947021358	 0.0076680371	 2.1024029357	 0.113843
H	-2.7991862477	 0.7733904458	 0.7124561628	 0.110329
H	-2.7590622586	 0.5139108506	-1.0260699507	 0.114197
H	-3.9571940287	-1.3535878977	 1.086427653	 0.132032
H	-4.6704158202	-0.9272053926	-0.4668687683	 0.126568
H	-1.3096682173	-1.959963572	-1.7569898147	 0.132998
H	-0.9261841275	-2.8776857236	-0.3016977563	 0.127389
