16
gdb 51098	4.62233	0.93061	0.85153	0.9218	72.08	-0.258	-0.0362	0.2217	1320.3162	0.122473	-437.863198	-437.854886	-437.853941	-437.897381	30.094	
N	-0.0705410225	 1.1826772096	-0.1253530614	-0.55156
C	-0.0811753383	-0.0618372766	 0.0024856327	 0.452064
O	 0.9774396235	-0.963037838	 0.1712691142	-0.308247
C	 0.0469187259	-2.0809786055	 0.0285344983	 0.445371
C	 0.4949925917	-3.2358582239	-0.8113786584	-0.386889
C	 1.6276617401	-4.0173637641	-0.1585547797	 0.158598
O	 1.6528460282	-5.2164450837	-0.0729642148	-0.23045
C	-0.9036307098	-2.0488130515	 1.1713138073	-0.326813
C	-1.1260390482	-1.1255524444	-0.0362859447	-0.270554
H	 0.8789286259	 1.5549913386	-0.0726137716	 0.233643
H	-0.3343054033	-3.9209206681	-1.0053804194	 0.136435
H	 0.8630235686	-2.8531979061	-1.7735618442	 0.142256
H	 2.4561049998	-3.3882774523	 0.2335370734	 0.102617
H	-1.6091314945	-2.8724090214	 1.2276236005	 0.135951
H	-0.5936202161	-1.6355470753	 2.1255993294	 0.137974
H	-2.0293627711	-1.1300906572	-0.6280111817	 0.129603
