18
gdb 68264	2.43517	1.49789	1.44453	2.6439	78.46	-0.2435	0.0405	0.284	1035.4093	0.146091	-401.848049	-401.839593	-401.838648	-401.880514	33.584	
C	 0.0006953371	 1.4642703882	 0.0980020913	-0.518827
C	 0.0114570729	-0.0284961949	-0.0313375355	 0.269904
C	 0.7077918316	-0.9458096548	-1.072289422	-0.293488
C	 0.0548434591	-1.8795393532	-0.0292007276	-0.091504
N	 0.4993277185	-0.9513120023	 1.0928018435	-0.409854
C	-1.2434998192	-0.9965970059	-0.0788854789	 0.294494
O	-2.0652275959	-1.0061496032	 1.0472119227	-0.494383
C	-2.063212104	-1.0117965944	-1.276746446	 0.295662
C	-2.7489855785	-1.0147141198	-2.2633294982	-0.446115
H	 1.0125770576	 1.8622087993	 0.2293356164	 0.121588
H	-0.4308582177	 1.9170620399	-0.8001202366	 0.137433
H	-0.6045753647	 1.7638977711	 0.9590458154	 0.137666
H	 0.3251704521	-0.9548462339	-2.0950628742	 0.118114
H	 1.8005864416	-0.9224283944	-1.0456964096	 0.09305
H	 0.11736106	-2.9639411924	 0.0670651887	 0.090567
H	 1.5214475714	-0.9283105988	 1.132751508	 0.210705
H	-1.4377561893	-1.004206911	 1.7893091205	 0.291502
H	-3.3595464225	-1.0218883096	-3.132318408	 0.193487
