12
gdb 203	8.94272	3.37005	2.48533	0.8398	51.11	-0.2183	0.025	0.2434	512.5694	0.097541	-269.263476	-269.25813	-269.257186	-269.292093	19.399	
C	-0.0177756804	 1.5234060237	 0.0135854756	-0.501201
C	 0.0011479748	 0.026366108	 0.01460421	 0.247588
C	-0.0630406732	-0.8021104203	-1.0621482286	-0.09185
O	-0.0207762048	-2.1087962365	-0.6812714439	-0.14173
C	 0.0739299007	-2.1150006969	 0.6733440659	 0.007285
C	 0.0918208962	-0.8468664841	 1.1559028116	-0.271718
H	 0.8928608122	 1.9371163369	 0.4615681828	 0.129841
H	-0.0960512719	 1.9167285392	-1.0037741692	 0.124563
H	-0.8647995927	 1.9149933794	 0.5882908152	 0.129823
H	-0.1390274462	-0.6254737668	-2.1227182304	 0.129327
H	 0.1181438746	-3.0876505672	 1.1349571678	 0.132472
H	 0.1604480807	-0.5552639754	 2.192886593	 0.105601
