17
gdb 35353	2.6129	1.61202	1.33948	1.5359	80.23	-0.2287	0.0044	0.2331	1013.7884	0.135663	-384.621204	-384.613406	-384.612461	-384.653607	30.097	
C	 0.09453076	-1.2081854189	 0.0479233011	-0.465215
C	 0.0316065833	-0.0073929859	 0.0435132431	 0.373394
C	-0.0332954445	 1.4353939392	 0.0451786048	-0.276761
C	-0.1209050918	 2.0826272516	 1.4988743649	-0.322926
C	 1.3780702874	 2.2362306339	 1.3896196206	 0.225074
C	 2.5097294742	 1.7372127452	 1.8702259705	-0.224401
C	 3.4147305558	 1.424868331	 0.6893563008	-0.105675
O	 2.5809023853	 1.5465332044	-0.4835170618	-0.270699
C	 1.3882396276	 2.1730135983	-0.0987049369	 0.104413
H	 0.1478725001	-2.2684533915	 0.0392228982	 0.196255
H	-0.7907023844	 1.7973598536	-0.6558601028	 0.104074
H	-0.6772801023	 3.023470596	 1.4681766848	 0.117735
H	-0.5060256033	 1.4505915248	 2.2988028743	 0.128187
H	 2.7357112315	 1.4251806633	 2.8816854323	 0.107024
H	 4.2801369626	 2.0983562732	 0.5910741146	 0.106623
H	 3.7976140838	 0.3976896569	 0.7473309691	 0.11846
H	 1.2430250146	 3.111414225	-0.6512266477	 0.084439
