20
gdb 55086	3.79863	1.08683	0.93933	3.9532	81.74	-0.225	0.0327	0.2577	1310.6831	0.169445	-403.150378	-403.140974	-403.14003	-403.185033	34.404	
C	-0.0505344352	 1.4188574166	-0.1688756244	-0.487199
C	 0.0076834765	-0.0955954526	-0.0406794896	 0.366103
O	 1.0280516065	-0.7409759681	-0.1983672984	-0.365201
N	-1.1724122798	-0.6931779119	 0.3061577271	-0.066969
C	-2.5820591299	-0.2718711658	 0.1829223112	-0.246507
C	-2.9774491136	-1.7573056874	 0.0620420022	 0.309661
C	-4.1962759466	-2.3596075669	 0.6948339329	-0.494196
C	-2.2138785155	-2.3826496729	-1.0844192042	-0.32925
C	-1.4976620699	-2.105009969	 0.2090429397	-0.044579
H	 0.9637250029	 1.8121950984	-0.1000333152	 0.147251
H	-0.4640518203	 1.6975609361	-1.1449438554	 0.137815
H	-0.6792318866	 1.8751443296	 0.6011148119	 0.129438
H	-2.9578534778	 0.2025966821	 1.0971543001	 0.113922
H	-2.8067034229	 0.3703172566	-0.6768763796	 0.110866
H	-5.1073440654	-2.0743302655	 0.1550959865	 0.124585
H	-4.1416802064	-3.452711226	 0.6893609824	 0.125834
H	-4.3095399085	-2.0352168596	 1.7353266487	 0.122376
H	-2.4513066898	-3.4267000545	-1.2660393763	 0.117993
H	-1.9604633057	-1.8139368324	-1.9754473359	 0.113014
H	-0.9870896321	-2.8469238466	 0.8091288161	 0.115043
