18
gdb 114927	3.13945	1.08004	0.8515	1.6422	81.79	-0.2449	-0.0278	0.2171	1367.5346	0.146688	-401.937499	-401.928494	-401.92755	-401.971966	32.811	
C	-0.0736081389	 1.5421648808	 0.1802373814	-0.386625
C	-0.0794134425	 0.0119914174	 0.1944284105	-0.184568
C	-1.4409019914	-0.5955884229	-0.1215304921	 0.088233
C	-1.5024261487	-2.1448477195	-0.0305954339	-0.215611
N	-2.4459529801	-2.438430243	 1.0548589287	-0.321944
C	-2.869363597	-1.309457051	 1.4656301473	 0.253646
O	-2.411592147	-0.169757417	 0.8771727526	-0.264573
C	-3.8121003403	-1.1174024402	 2.5170123354	 0.273884
C	-4.6069041843	-0.944878335	 3.4009197467	-0.35802
H	 0.9194437377	 1.9333942278	 0.419562251	 0.115706
H	-0.3571896801	 1.9293922483	-0.8047561152	 0.115336
H	-0.7825150416	 1.9378438996	 0.9122992799	 0.138179
H	 0.6348197136	-0.3777387831	-0.5427100955	 0.103398
H	 0.2471972625	-0.3616565543	 1.1731897893	 0.108453
H	-1.8061363586	-0.2230826398	-1.0848967243	 0.089923
H	-1.8525670424	-2.6097976542	-0.9583832476	 0.12069
H	-0.5235217335	-2.5816782669	 0.2006933573	 0.117454
H	-5.3105545675	-0.8021582571	 4.1840609283	 0.206439
