20
gdb 8576	3.50921	1.92178	1.70678	1.5997	73.06	-0.2342	0.0802	0.3144	873.8027	0.179666	-349.001001	-348.993891	-348.992947	-349.032183	28.532	
C	-0.2538670545	 1.5001281123	 0.0190562367	-0.399254
C	 0.0244042882	-0.0108121125	 0.0001079335	 0.042296
C	 0.7054486133	-0.4559285773	-1.3370208476	-0.223911
C	 2.1435158942	-0.9138425466	-1.1173084289	 0.102586
C	 2.9152416459	-0.0031854185	-0.1418042916	-0.25543
C	 2.2424785944	-0.9208968115	 0.8982240234	 0.102586
C	 0.833009566	-0.4650158721	 1.2609478153	-0.223912
O	 2.1298049226	-1.967308133	-0.110112993	-0.300677
H	 0.6700585807	 2.0875133105	-0.0242466061	 0.116476
H	-0.8720641922	 1.7956420672	-0.8356091419	 0.111725
H	-0.7852767423	 1.7894563853	 0.9322059207	 0.111725
H	-0.9512381744	-0.5041461512	 0.0462861184	 0.078897
H	 0.1570660219	-1.2927141207	-1.7824169448	 0.104623
H	 0.6809786405	 0.3636522609	-2.0659607806	 0.090057
H	 2.6339302148	-1.2346618018	-2.040947516	 0.070846
H	 3.9924756852	-0.1690121255	-0.1952779647	 0.107783
H	 2.6972788018	 1.0661896979	-0.1273590771	 0.098061
H	 2.8209030993	-1.2479894429	 1.7671176347	 0.070846
H	 0.8803542383	 0.3494513759	 1.994478343	 0.090057
H	 0.3306067963	-1.3050722465	 1.7520771066	 0.104622
