21
gdb 88384	2.13045	1.44862	1.13039	4.0826	82.84	-0.2329	0.0355	0.2683	1203.2606	0.180682	-383.251124	-383.240978	-383.240033	-383.285845	37.566	
C	 1.6864207882	 0.8937382339	-1.0039486365	-0.335018
N	 0.9094725365	-0.1690905294	-0.3836470573	-0.083439
C	 1.5871868388	-1.2980194372	 0.2298804545	-0.262192
C	 0.7971587748	-0.3374454501	 1.0590746788	 0.006142
C	 1.4139533204	 0.5540082713	 2.1637051966	 0.05315
C	 0.8623018796	 0.0456122848	 3.5203659236	-0.407145
C	 2.9577521244	 0.5669150478	 2.2378693471	-0.42504
C	 0.9367763629	 1.9371013973	 1.9705865573	 0.287313
N	 0.5643531108	 3.0224408328	 1.8287038219	-0.35161
H	 2.6937252899	 1.0394406034	-0.5873479065	 0.103634
H	 1.7999646685	 0.6538788901	-2.0657883889	 0.127432
H	 1.141012922	 1.8370962801	-0.9227755342	 0.153579
H	 1.1928354077	-2.2860202268	 0.0024437765	 0.117458
H	 2.6723079675	-1.2563583689	 0.3099367178	 0.108973
H	-0.2102089665	-0.6400259325	 1.3421498106	 0.101587
H	 1.1667969298	-0.9949252688	 3.6672892307	 0.128671
H	 1.253937234	 0.6446207758	 4.3461956115	 0.133209
H	-0.2289003747	 0.095413568	 3.5470047463	 0.138936
H	 3.420733798	 0.932598358	 1.3210563035	 0.140752
H	 3.2809625615	 1.2161795117	 3.0563886081	 0.135244
H	 3.3253759662	-0.4431571714	 2.4362597584	 0.128366
