21
gdb 81041	2.4849	1.70112	1.27843	2.5189	76.93	-0.2459	0.0681	0.314	1059.346	0.184329	-424.228569	-424.220399	-424.219455	-424.260479	33.616	
O	-0.2608930131	 1.3670631405	-0.0318435916	-0.470435
C	-0.0829136351	-0.0396103163	 0.0259054218	 0.097638
C	 0.0906797198	-0.6109629678	 1.4586783583	-0.064976
C	-1.4578837718	-0.5139604721	 1.6072093114	-0.299228
C	-1.4955778662	-0.6818602836	 0.0502667214	 0.429884
O	-2.496140037	-0.0662780919	-0.7054256607	-0.501689
C	-1.3858271068	-2.1587596683	-0.3395054198	-0.244479
C	-0.5506039627	-2.9443391948	 0.6979129264	-0.208692
C	 0.5520003244	-2.0753225757	 1.3501326883	-0.209578
H	 0.559924542	 1.7952504001	 0.2288882347	 0.286025
H	 0.623500938	-0.3786932728	-0.7461357153	 0.053393
H	 0.7099245471	-0.0263947076	 2.1450155542	 0.054934
H	-1.9774724368	-1.2455100851	 2.2298332146	 0.090437
H	-1.7657964712	 0.4937189262	 1.888827538	 0.100817
H	-2.3238207626	 0.8827391993	-0.6594487063	 0.288201
H	-2.3943266208	-2.5788030719	-0.4142575796	 0.10647
H	-0.9434743455	-2.2201864926	-1.3408838332	 0.099454
H	-1.221490803	-3.3005329082	 1.4859399934	 0.107243
H	-0.1181995938	-3.8415618418	 0.245081139	 0.094904
H	 1.4769706492	-2.1144669373	 0.760023646	 0.09405
H	 0.798623706	-2.4756935582	 2.339502859	 0.095626
