15
gdb 6596	6.09174	1.32198	1.32038	4.1323	67.14	-0.2813	0.0251	0.3064	932.5324	0.119544	-362.630793	-362.62385	-362.622906	-362.661672	26.956	
O	-0.0819898688	 1.3260117079	 0.0054673963	-0.460976
C	 0.0230648809	-0.0438108346	 0.0015710361	 0.379236
C	 0.6686719096	-0.9757174399	 1.0803781731	-0.316727
C	 0.0429124611	-1.9095538542	-0.0028293997	 0.225089
C	-1.2114876962	-0.9758238464	 0.0084863548	-0.283106
C	 0.6527671134	-0.9707637694	-1.0908183649	-0.316723
C	 0.0519281229	-3.3458179511	-0.0061759258	 0.166597
N	 0.0604444656	-4.5023365338	-0.0089618222	-0.355169
H	 0.8021806818	 1.7088622104	-0.0001284684	 0.290045
H	 1.7594412017	-0.9859969262	 1.1457659211	 0.105965
H	 0.1944411682	-0.9950850102	 2.0635329432	 0.115005
H	-1.8124244399	-0.9911163651	 0.9197181911	 0.114895
H	-1.8257057846	-0.9869787753	-0.8939070845	 0.114896
H	 0.1641833255	-0.9856620683	-2.0669982084	 0.115006
H	 1.7424609889	-0.9807086639	-1.1722244016	 0.105965
