20
gdb 70456	3.38383	1.00291	0.89799	4.3476	83.48	-0.2608	0.0392	0.2999	1352.1484	0.170989	-366.008779	-365.999866	-365.998922	-366.042671	33.575	
C	-0.0949074997	 1.5336090846	 0.0811892014	-0.499794
C	 0.0270698564	 0.0366240365	 0.037762562	 0.342576
C	-0.8162309156	-0.8787795164	 0.8886553591	-0.331241
C	 0.6785626689	-0.9430882268	 1.0249952947	-0.088203
C	 1.2615216624	-1.7674345462	-0.1282130073	-0.247866
C	 0.647494065	-0.7411889159	-1.1370128076	-0.037564
C	-0.2932909574	-1.2412634702	-2.2466018104	-0.366419
C	 0.4036950217	-2.0529420198	-3.2424961127	 0.260646
N	 0.9776183489	-2.6914405196	-4.0164170048	-0.309933
H	 0.8415266955	 2.0198346553	-0.2157471718	 0.11971
H	-0.8829104791	 1.8934198924	-0.5921729538	 0.120003
H	-0.3456815615	 1.8794632311	 1.0892062453	 0.122564
H	-1.3401971585	-0.3807404208	 1.69865908	 0.113774
H	-1.3650283593	-1.7193221855	 0.4683226016	 0.102582
H	 1.1801886377	-0.7250774788	 1.9602646089	 0.089804
H	 2.3519465956	-1.7843233402	-0.1640563997	 0.114561
H	 0.8967831196	-2.7977214748	-0.2033782097	 0.10438
H	 1.4447222856	-0.1505017389	-1.5976717428	 0.092592
H	-1.1073589823	-1.8391336814	-1.8224396239	 0.148087
H	-0.7594614038	-0.3899906147	-2.7571420385	 0.149741
