23
gdb 115619	2.36926	1.18422	0.96666	1.6528	86.18	-0.2522	0.0775	0.3297	1377.8993	0.204065	-388.2759	-388.265971	-388.265027	-388.310925	37.044	
C	-0.4669159717	 1.4960852164	 0.0400427966	-0.387395
C	-0.2560012539	-0.0202800504	 0.0431698465	-0.169561
C	 0.8083259261	-0.4769065773	 1.0434900246	-0.087295
C	 0.3596394077	-0.5011755116	 2.542083247	-0.233001
C	 0.2471151128	-2.0553043543	 2.4851240875	-0.320137
C	 0.97001664	-2.0039200574	 1.1383480718	 0.444245
O	 0.7288130827	-2.9031723235	 0.065611336	-0.297079
C	 2.0501336314	-2.8585600914	 0.6346791375	-0.020567
C	 3.1574681605	-2.3580756665	-0.2549788162	-0.41849
H	 0.4556349782	 2.0220810914	-0.2305777006	 0.112026
H	-1.2394786871	 1.7870084575	-0.6785011987	 0.113068
H	-0.7765870159	 1.8615438275	 1.0252939102	 0.115396
H	-1.2036688266	-0.5279233618	 0.2654969575	 0.096409
H	 0.0358606485	-0.3609169339	-0.9570350916	 0.1075
H	 1.7406451174	 0.069107937	 0.8577968917	 0.064517
H	 1.1369972776	-0.1554952329	 3.2269208756	 0.102384
H	-0.5643408411	 0.0362612182	 2.7675764575	 0.101215
H	 0.7268264304	-2.6232623515	 3.2862192039	 0.102225
H	-0.7833890585	-2.405751193	 2.3785232003	 0.115339
H	 2.2948341635	-3.7454663538	 1.2239824548	 0.084299
H	 2.8572525983	-1.4506478163	-0.7851364596	 0.126785
H	 4.0539313794	-2.1378275725	 0.3353861096	 0.119077
H	 3.4247448504	-3.1154419799	-0.999425202	 0.12904
