18
gdb 64114	3.627	1.0149	0.96294	3.6098	82.09	-0.2552	-0.0494	0.2058	1288.2642	0.14633	-401.980739	-401.971654	-401.97071	-402.014765	33.35	
C	 0.1085753106	 1.4644466124	-0.0697669733	-0.405802
C	-0.0973275511	-0.0537112625	 0.0388468132	 0.336446
C	-1.5903298792	-0.4135204988	 0.0166601215	-0.405796
O	 0.5491987108	-0.6901966755	-1.0837703641	-0.304237
C	 1.5625107493	-1.5879762894	-0.665468987	-0.175392
C	 1.5475857586	-1.5048009248	 0.8470835998	 0.178058
C	 0.6101054203	-0.6386932252	 1.235047326	-0.230057
C	 2.42139509	-2.2574170906	 1.6728141352	 0.205392
N	 3.149759841	-2.8867814859	 2.3171868433	-0.328255
H	 1.1736687781	 1.7095588022	-0.0650980874	 0.124816
H	-0.3269101712	 1.827871379	-1.0048998915	 0.131995
H	-0.3743889715	 1.9866629293	 0.7621758731	 0.117625
H	-2.0383858526	-0.0634575721	-0.9176320205	 0.131986
H	-1.7261892197	-1.4960161924	 0.0820105805	 0.124817
H	-2.1199229028	 0.0566901908	 0.851242836	 0.117626
H	 1.3479495013	-2.60667488	-1.019987062	 0.124489
H	 2.5371519109	-1.2925906283	-1.0805365431	 0.124498
H	 0.3689634375	-0.3734982881	 2.2560918301	 0.13179
