17
gdb 106134	2.96265	1.6	1.42943	2.3257	70.67	-0.2478	-0.0097	0.2382	965.658	0.137716	-417.957568	-417.950301	-417.949357	-417.989547	28.386	
O	 0.0845690394	 1.4221430125	-0.2410420087	-0.409529
C	 0.0408854566	 0.0340106554	 0.0403920301	-0.205858
C	-1.3609142281	-0.481180235	 0.1304192749	 0.328859
C	-1.9815273157	-1.8074448414	-0.1133060068	-0.103083
C	-2.8643110992	-1.6765793354	 1.127284324	-0.235844
C	-2.5236110125	-0.1439635254	 1.1279763749	-0.081761
N	-3.5784456139	 0.4968723272	 0.3270525795	-0.180776
C	-3.3557673665	 0.1009968433	-0.8608976685	 0.023462
N	-2.1650238075	-0.662782765	-1.0977810648	-0.204837
H	-0.3599349337	 1.5538459265	-1.0858104224	 0.292398
H	 0.5873590461	-0.5570213472	-0.7105325701	 0.101609
H	 0.5510761125	-0.0961623206	 1.0010509813	 0.116399
H	-1.5714825957	-2.7138798239	-0.5419042873	 0.109788
H	-3.92321271	-1.9410164125	 1.0696900518	 0.112222
H	-2.3884005578	-2.1905587129	 1.96582338	 0.117944
H	-2.3312630997	 0.3547100018	 2.07442354	 0.091036
H	-4.0065836043	 0.3099229727	-1.703859988	 0.12797
