17
gdb 65057	2.3346	1.50396	1.24794	2.523	73.97	-0.262	0.0181	0.2801	1080.6934	0.132144	-421.745993	-421.736936	-421.735992	-421.779716	33.773	
C	 0.0123992644	 0.80003603	-1.3732418911	-0.474888
C	-0.0262482994	 0.02764699	-0.0760183464	 0.293231
C	 1.1993537205	-0.4820756001	 0.5541280971	-0.215969
O	 0.5429988384	 0.6877178876	 1.0560164103	-0.268281
C	-1.3290217229	-0.6965133088	 0.2003699529	 0.176644
C	-1.9337918051	-0.6406552469	 1.5459880938	-0.215871
O	-2.441533646	 0.1707081152	 0.4888569249	-0.277169
C	-1.6094293803	-1.8106524747	-0.6749121191	 0.298834
C	-1.8032824191	-2.7355486053	-1.4178643629	-0.424274
H	 0.9786938452	 1.2948981752	-1.4929262303	 0.126792
H	-0.1554797973	 0.132885021	-2.2238443769	 0.136697
H	-0.7745224767	 1.5601050968	-1.3744982219	 0.146749
H	 1.1534046746	-1.3564675925	 1.2015324385	 0.115749
H	 2.1597492407	-0.3080290819	 0.0716924379	 0.119178
H	-2.5823013805	-1.4552760716	 1.8627062555	 0.121022
H	-1.394745554	-0.108170046	 2.3248994925	 0.140221
H	-1.9886562626	-3.553079298	-2.0703556549	 0.201334
