18
gdb 65973	2.41358	1.46905	1.29241	1.3189	72.84	-0.2486	-0.0432	0.2053	1068.1584	0.146673	-439.055038	-439.046571	-439.045626	-439.088081	32.35	
O	 0.0065621007	 1.3659082817	-0.5393486838	-0.477717
C	-0.0275530003	 0.0641246633	-0.0550079806	 0.247793
C	 0.0140479611	-0.1629778466	 1.4989652344	-0.287565
C	-1.1235463663	-1.2161556917	 1.3683995038	-0.312092
C	-1.3984499501	-0.6604358611	-0.0286872233	 0.307336
C	-2.6345455936	-0.04685294	-0.5510131063	-0.29162
N	-2.1133642077	-1.3091810969	-1.1189801269	-0.381107
C	 1.017620837	-0.7744765079	-0.7535707924	 0.120359
O	 1.7259871454	-0.3169056853	-1.6197676766	-0.284888
H	 0.7230140101	 1.387970155	-1.1954718354	 0.292571
H	 0.9622321116	-0.4860131046	 1.9346274866	 0.108288
H	-0.3157033508	 0.7542117239	 1.9896404233	 0.131996
H	-0.7515526754	-2.2445816823	 1.3439724429	 0.114227
H	-1.9383796255	-1.1568609802	 2.0920783884	 0.115725
H	-3.562026187	-0.1483511151	 0.0065409286	 0.120924
H	-2.5286961034	 0.869795451	-1.123454693	 0.133299
H	-1.6545536629	-1.1242085871	-2.0090712713	 0.235774
H	 1.1011336272	-1.831351836	-0.4321332485	 0.106695
