18
gdb 31534	3.31588	1.11579	0.86131	2.4296	78.03	-0.1686	0.0473	0.2159	1351.3354	0.146315	-439.108083	-439.098337	-439.097393	-439.143081	34.696	
C	-0.1776368922	 1.4309375844	-0.1723076086	-0.33037
N	-0.0853869504	 0.0954998684	 0.4158890798	-0.383011
C	-1.1670481446	-0.759252517	 0.2640501367	 0.420433
C	-1.285893071	-2.0889462177	 0.0040422762	-0.401721
C	-2.6986468301	-2.4014700065	 0.0785840899	 0.179271
C	-3.359286762	-3.7255348323	-0.13497188	-0.506779
C	-3.3068936087	-1.2293459369	 0.3720406802	 0.267072
O	-4.5962662901	-0.9188886708	 0.6211266408	-0.426828
O	-2.3927927829	-0.2087103698	 0.502511621	-0.20921
H	 0.7316700837	 1.9848724667	 0.0726070123	 0.123991
H	-0.3052020613	 1.4243988544	-1.2661135603	 0.109148
H	-1.0254428219	 1.9597788826	 0.2674305209	 0.148777
H	 0.7739706651	-0.3774678533	 0.1726413573	 0.239888
H	-0.4832347606	-2.7721140679	-0.2269302503	 0.089996
H	-3.0489528451	-4.4598149743	 0.6180393024	 0.125744
H	-4.4461042905	-3.6256038705	-0.0755927477	 0.130866
H	-3.1093005999	-4.1471618183	-1.1158056706	 0.120524
H	-4.8837476276	-0.2209788011	 0.0192881101	 0.302207
