18
gdb 75186	4.60623	0.94341	0.8255	2.1612	75.81	-0.2483	-0.0358	0.2124	1372.4979	0.147219	-439.115434	-439.106576	-439.105632	-439.149719	31.641	
C	-0.0347873325	 1.4875002405	 0.0400584291	-0.453692
C	-0.0420452555	-0.0072190497	-0.0752108827	 0.399515
N	-0.0424444815	-0.5987992855	-1.1962056574	-0.306038
C	 0.0109789825	-2.0502523089	-1.2426814988	-0.175585
C	 0.499086309	-2.7024894005	 0.0714498394	-0.12504
C	-0.2177800482	-1.9941593551	 1.225781232	-0.091136
O	-0.0378215574	-0.5800501889	 1.163687489	-0.256068
C	 0.1885523021	-4.1805184886	 0.0709881239	 0.150756
O	 1.0075412218	-5.0615426293	 0.103609351	-0.241093
H	 0.8323777283	 1.8156513173	 0.6219751502	 0.141464
H	-0.0007670193	 1.929974892	-0.954439608	 0.147285
H	-0.928480891	 1.832450469	 0.5698020568	 0.138908
H	-0.9866941521	-2.4332372019	-1.5032484539	 0.112636
H	 0.6724751537	-2.3413779325	-2.0652643534	 0.128017
H	 1.5806567082	-2.5782163614	 0.1759126095	 0.110298
H	-1.2935625014	-2.2184588276	 1.2009291185	 0.113572
H	 0.1743216765	-2.301057593	 2.1981412055	 0.131672
H	-0.9026522832	-4.4130382159	 0.0150684895	 0.074532
