17
gdb 45566	2.96441	1.48951	1.30942	2.2244	66.76	-0.2437	-0.0261	0.2176	1002.4135	0.137258	-458.9935	-458.986148	-458.985204	-459.026426	27.779	
O	 0.2394083285	 0.0224384542	 0.45423944	-0.303337
C	 0.1126789491	 1.1932972886	 0.2109052979	 0.371978
C	-1.1746987139	 2.0108373447	 0.3370516064	-0.334353
C	-0.7406757516	 3.4721024455	 0.5349777949	 0.061451
O	-0.7578920874	 3.8770659432	 1.8996402501	-0.248959
C	 0.54873209	 3.6968820574	 2.3908806388	 0.004063
O	 1.422865591	 3.9944727738	 1.3286286959	-0.248958
C	 0.7816592945	 3.5540423002	 0.1363749697	 0.061449
C	 1.2078769596	 2.1390724314	-0.2867666656	-0.334354
H	-1.7263329261	 1.8999176457	-0.6055543211	 0.132624
H	-1.8172661371	 1.6465946129	 1.1403049527	 0.14454
H	-1.3702130053	 4.1740779907	-0.0147075441	 0.096931
H	 0.7255292582	 4.3986531276	 3.2103795752	 0.127266
H	 0.6972977217	 2.6601257391	 2.745100543	 0.095564
H	 0.9880395068	 4.3009976615	-0.6321985291	 0.096931
H	 2.19391165	 1.8624908875	 0.0900889382	 0.14454
H	 1.2364148119	 2.059366996	-1.3812717629	 0.132625
