21
gdb 80857	1.82799	1.8145	1.65904	1.6474	77.52	-0.2393	0.0673	0.3066	1035.6635	0.182037	-424.214661	-424.205749	-424.204804	-424.247406	35.027	
C	-0.2727049778	 1.6190031968	-0.1341173815	-0.437676
C	 0.0026306618	 0.1290973594	-0.007399746	 0.00198
C	 1.1734655859	-0.5953330726	-0.7113055966	 0.057241
C	 2.4460218593	 0.1324946367	-0.2393795598	-0.271464
C	 2.1052520926	 0.1373632907	 1.2863336776	 0.090093
O	 2.002387082	 1.4086703977	 1.9060489134	-0.438319
C	 0.7180987132	-0.549261175	 1.201181598	 0.387997
C	 0.038004874	-0.9363371699	 2.4820810206	-0.512447
O	 1.0599348686	-1.6538639763	 0.2954593554	-0.338196
H	 0.5983957087	 2.2289440778	 0.1043933436	 0.133915
H	-0.6051020015	 1.8573031832	-1.1510701719	 0.108778
H	-1.0756116967	 1.917013798	 0.5488073018	 0.117893
H	-0.9054218338	-0.4504396571	-0.1996155239	 0.080701
H	 1.1195141552	-0.9515632307	-1.7405606134	 0.072754
H	 3.3448366684	-0.4418400631	-0.4746191456	 0.102208
H	 2.5531294852	 1.1442987984	-0.6404275725	 0.098985
H	 2.7882026746	-0.5106075862	 1.850541524	 0.074779
H	 2.889387796	 1.7626830886	 2.0182805608	 0.287324
H	-0.1202494395	-0.0455738737	 3.0973891175	 0.137131
H	-0.9270692126	-1.413358863	 2.2912433343	 0.121746
H	 0.6622539164	-1.6349480997	 3.0497713742	 0.124577
