20
gdb 116336	2.51803	1.61773	1.25504	1.0977	74.94	-0.2304	0.0878	0.3182	1080.6287	0.172181	-440.244457	-440.236112	-440.235168	-440.277393	31.725	
C	 0.6240489349	 1.1550897001	 0.2410946553	-0.244975
O	 0.6176345316	-0.2494673163	 0.0547927229	-0.243145
C	 0.4579950478	-0.63793484	-1.2880958947	 0.212484
O	 1.5179389281	-0.1767240923	-2.1046806691	-0.28072
C	 2.7210655223	-0.956300648	-2.1080017008	-0.054035
C	 2.7273839933	-2.0700230789	-1.0645692566	-0.187358
N	 1.561346598	-2.9304687053	-1.2990141814	-0.095872
C	 0.5808497553	-3.0351138077	-0.217988332	-0.248341
C	 0.3153768275	-2.1479357748	-1.3778475446	-0.061702
H	 1.4481596253	 1.6313337253	-0.3013743835	 0.12579
H	-0.3225654782	 1.6032228048	-0.0967698783	 0.107691
H	 0.738759219	 1.3333603437	 1.3123166409	 0.12523
H	-0.4310099665	-0.1437066944	-1.7061614884	 0.073106
H	 2.8363717644	-1.3945693501	-3.1078834838	 0.109824
H	 3.5593591295	-0.271768032	-1.9366279372	 0.103647
H	 3.6381681838	-2.6667538498	-1.1811615836	 0.103579
H	 2.7323899502	-1.631980311	-0.0583353186	 0.112647
H	 0.072099713	-3.9926159449	-0.1503047149	 0.113004
H	 0.8052513004	-2.5559411405	 0.7299365355	 0.131457
H	-0.3657936594	-2.4724530477	-2.1605951471	 0.09769
