18
gdb 106722	2.50409	1.51415	1.20139	2.2249	71.83	-0.2404	0.0657	0.3061	1078.5128	0.14693	-439.004781	-438.996291	-438.995347	-439.037922	32.501	
O	 0.098275647	 1.3673908445	-0.4449889433	-0.414109
C	 0.0612213503	 0.0872718288	 0.1707654692	-0.167845
C	-1.3059792322	-0.5199574486	 0.1445005281	 0.270734
C	-1.9664320007	-1.1075853238	-1.0772724174	-0.392085
C	-1.846684125	-1.9444657931	 0.1773482904	 0.308081
O	-1.1629307551	-3.1451984097	 0.2333700763	-0.461223
C	-2.8552196505	-1.4693613193	 1.1924703751	-0.10037
C	-2.1880411071	-0.7771814504	 2.3195857942	-0.247314
N	-2.3711559857	-0.027713486	 1.0600677626	-0.165397
H	-0.5852446831	 1.9020129667	-0.02638013	 0.29209
H	 0.7579141062	-0.5459636468	-0.3872253974	 0.1193
H	 0.4256913504	 0.1387499885	 1.2093266203	 0.089021
H	-2.927933413	-0.7272870698	-1.4116791734	 0.116236
H	-1.2747134066	-1.3822293835	-1.8686316408	 0.119394
H	-1.5463657629	-3.7480827693	-0.4127685226	 0.289901
H	-3.9161203057	-1.7015150374	 1.1983048694	 0.096943
H	-2.8168806528	-0.4105410813	 3.1252935322	 0.121244
H	-1.1869369737	-1.0806831595	 2.615968777	 0.125398
