21
gdb 81529	3.17317	1.27306	1.05985	2.6693	83.84	-0.2426	-0.0199	0.2227	1210.5768	0.181104	-387.045011	-387.035896	-387.034952	-387.078694	34.63	
C	-0.1093212428	 1.6258451046	 0.6136793049	-0.446192
C	 0.0683754094	 0.1373373791	 0.3432171517	 0.053796
C	 1.2928190883	-0.4222028938	-0.4591881273	-0.090991
C	 2.1602295906	-0.150434869	 0.810221772	-0.246166
C	 0.844284788	-0.7948375825	 1.3357977158	-0.113582
C	 0.9726615234	-1.8308700643	 0.1459578173	 0.281499
C	-0.2425812371	-2.6554585109	-0.300683726	-0.499223
C	 2.1181045342	-2.819391627	 0.2354805201	 0.083154
O	 3.1065983864	-2.8206235871	-0.453954546	-0.253892
H	 0.798186823	 2.1363479085	 0.94229304	 0.121087
H	-0.4603691841	 2.1304828406	-0.2934062998	 0.119718
H	-0.8722436539	 1.7799021711	 1.3850954421	 0.117641
H	-0.8947412371	-0.2586040259	 0.0172961234	 0.061877
H	 1.5598930027	-0.2124504607	-1.4957286318	 0.075726
H	 3.0804776948	-0.7235378786	 0.910122524	 0.116861
H	 2.3333724729	 0.8912395212	 1.0740785464	 0.092927
H	 0.5816432141	-1.0252330874	 2.370884452	 0.068486
H	-1.1869016053	-2.1147428745	-0.2354247425	 0.132267
H	-0.1166299468	-2.9913597099	-1.3356957524	 0.134297
H	-0.3414666123	-3.552319894	 0.3223342635	 0.122247
H	 1.9527574516	-3.6263241594	 0.9907374826	 0.068463
