22
gdb 87143	2.70727	1.1787	1.13857	2.4902	81.81	-0.2442	0.0743	0.3185	1249.9949	0.191599	-404.311717	-404.301532	-404.300588	-404.346952	37.993	
C	 0.2291048094	 1.1661713881	-0.6095933604	-0.401377
C	 0.6287431898	-0.1914491058	-0.0824502214	-0.022292
N	 1.8812812323	-0.2928810183	 0.685648018	-0.377207
C	 0.6040038888	-0.5959657212	 1.3557967141	 0.24093
C	 0.2291172695	 0.3724064369	 2.4638386605	-0.464067
C	 0.2001824931	-2.0266807408	 1.6533005174	 0.357827
C	-1.2898488462	-2.3056593956	 1.6010158622	-0.460767
C	 1.1334619846	-3.1531094942	 1.4847451408	-0.237219
O	 0.8656466894	-2.6240995492	 2.7823204064	-0.279301
H	 0.4528958727	 1.9569319465	 0.1087480393	 0.128285
H	 0.7742398294	 1.3910906241	-1.5326916043	 0.121333
H	-0.8421706096	 1.1964562553	-0.8374685745	 0.114561
H	 0.4323052811	-1.0062914654	-0.7811279059	 0.07436
H	 2.386010422	-1.137685618	 0.4359531735	 0.222277
H	 0.6596037787	 1.3566732426	 2.2768167077	 0.129484
H	-0.8561129954	 0.4796595656	 2.5619188316	 0.113548
H	 0.6231317642	 0.0058105296	 3.4167067245	 0.138363
H	-1.6854536628	-2.1276560372	 0.5960234891	 0.122934
H	-1.4920936984	-3.3425226308	 1.8805116802	 0.126049
H	-1.8325333488	-1.6577629035	 2.2957291716	 0.131578
H	 0.7310729773	-4.1470567778	 1.2874184327	 0.110389
H	 2.1496511489	-3.0027188311	 1.1234627868	 0.110313
