19
gdb 111715	2.23154	1.4642	1.08849	0.3849	84.05	-0.2245	0.0358	0.2603	1187.6489	0.157663	-385.817987	-385.808922	-385.807977	-385.851727	34.033	
C	 0.0166913921	 0.9936180388	 0.4436908724	-0.238764
O	-0.2214461623	 0.0063767923	-0.5435431868	-0.233588
C	-1.399720471	-0.6954216184	-0.3307342704	 0.074842
C	-1.5777747743	-2.0375922857	-0.9326422605	-0.174969
C	-0.2574560967	-2.813552381	-0.9429507204	-0.220811
C	-0.135978586	-2.640530253	 0.6007767892	-0.289252
C	-1.4737469969	-1.8727765131	 0.6279270988	 0.135852
C	-2.4733831704	-1.9872231425	 1.6311418228	 0.182548
C	-3.3138060433	-2.0877996113	 2.488616205	-0.411566
H	 0.9623068969	 1.4782895785	 0.1914611848	 0.129019
H	-0.7817141153	 1.7503006247	 0.4549115074	 0.111271
H	 0.0900362017	 0.5522804627	 1.4470432769	 0.119127
H	-2.2964629188	-0.0733894576	-0.3111694895	 0.092804
H	-2.4569421093	-2.2816335574	-1.5173469861	 0.100607
H	-0.3909805123	-3.8573915706	-1.2317374753	 0.105532
H	 0.5375814478	-2.3714899339	-1.5471236931	 0.115644
H	-0.2016325192	-3.5886311981	 1.135938969	 0.115366
H	 0.7300718598	-2.0826095982	 0.9653897135	 0.104305
H	-4.0545536125	-2.1769348564	 3.2436159125	 0.182033
