17
gdb 36313	3.44198	1.1799	1.11997	4.5218	72.31	-0.2471	0.0265	0.2736	1126.5028	0.137383	-417.983903	-417.976126	-417.975182	-418.016952	28.88	
N	 0.112246862	-1.076017807	-0.1388489065	-0.305903
C	 0.057732858	 0.0340005323	 0.1759003889	 0.280933
C	-0.0336672752	 1.4480451451	 0.552725702	-0.302236
N	 1.2366492331	 2.1219682166	 0.2790466387	-0.098885
C	 1.5693428578	 2.6322423294	-1.0456471956	-0.045015
C	 0.4544205238	 2.8724237464	-2.046434168	-0.117108
O	-0.5539922916	 3.6050625932	-1.3496657108	-0.253166
C	 0.0511743785	 4.3311745373	-0.2824055487	-0.112389
C	 1.3077509414	 3.5665120085	 0.091209256	-0.054122
H	-0.9030646203	 1.8831243398	 0.0415885834	 0.167343
H	-0.2174206756	 1.5052506478	 1.6315276297	 0.155103
H	 2.5613859744	 2.3913196692	-1.4147720238	 0.110798
H	 0.8501067044	 3.4426461239	-2.9012740543	 0.108889
H	-0.0116946313	 1.9590541129	-2.4311671403	 0.131748
H	 0.3288850478	 5.3515013565	-0.5908487018	 0.108543
H	-0.689750633	 4.410054327	 0.5210511328	 0.117706
H	 2.0883908658	 4.082091891	 0.6428574485	 0.107759
