17
gdb 72427	2.92652	1.64057	1.36232	3.4973	67.3	-0.2356	-0.0235	0.2121	976.9999	0.136293	-458.990245	-458.982807	-458.981863	-459.021925	29.229	
C	 0.0070714266	 1.4688404081	 0.0558079136	-0.484318
C	-0.0288679075	-0.0352651638	-0.0444392918	 0.340989
C	 0.7975197787	-0.6844673576	-1.1751345519	-0.10323
O	 1.049535971	-2.0012801786	-0.6587863459	-0.27261
C	 0.5143017031	-1.97827099	 0.6691401578	 0.043538
O	 0.6321050478	-0.6493880539	 1.1009429581	-0.272413
C	-1.0093429615	-2.1273642578	 0.4901885584	 0.446294
O	-1.7028258352	-3.0866550661	 0.678201008	-0.315156
C	-1.4110008707	-0.7238974883	-0.0049922212	-0.391864
H	 1.0388494755	 1.8235360244	 0.1303779551	 0.136678
H	-0.4535934824	 1.9209196952	-0.8277975973	 0.129914
H	-0.5410156048	 1.8080322357	 0.9389608698	 0.136282
H	 0.254187884	-0.7506071445	-2.123241793	 0.111803
H	 1.7473246856	-0.1616974341	-1.3335587497	 0.110828
H	 1.0312873599	-2.6866825125	 1.3127003875	 0.111557
H	-2.0659070185	-0.2449003185	 0.7291065266	 0.138186
H	-1.9354545215	-0.7695132777	-0.962324864	 0.133523
