18
gdb 52899	2.27632	1.09217	0.81297	2.6455	84.14	-0.2429	-0.0368	0.206	1453.5223	0.144619	-401.917734	-401.907523	-401.906579	-401.954125	35.248	
C	 0.0583665919	 1.6153783543	 0.3722228152	-0.506235
C	 0.0326670329	 0.171354661	 0.1947294548	 0.214844
C	 0.0051250379	-1.0262899744	 0.0666939174	-0.06105
C	 0.0190169581	-2.4469085614	-0.1435370726	-0.00021
N	-0.4486774439	-3.3418886679	 0.9456784458	-0.352803
C	-1.2657361593	-3.2647870225	-0.2480794905	-0.014387
C	-2.6182377421	-2.6130184984	-0.1349649623	-0.402372
C	 1.1465264234	-2.9844802211	-0.9739009748	 0.086914
O	 1.464644815	-4.1500578829	-0.9708736954	-0.272541
H	 1.0770589747	 2.0075152337	 0.2803704025	 0.153074
H	-0.5629814356	 2.1224964808	-0.3740764171	 0.150882
H	-0.315949349	 1.894661213	 1.3630876014	 0.156479
H	 0.1406207962	-4.1753190832	 0.8972037228	 0.250055
H	-1.1939648917	-4.0978352136	-0.9460694411	 0.108328
H	-2.5807626387	-1.7615989004	 0.5469567538	 0.141827
H	-2.9663315898	-2.2674740723	-1.1134509269	 0.12311
H	-3.346749449	-3.3342487718	 0.2505277633	 0.128823
H	 1.6727726089	-2.2325173131	-1.5947506163	 0.095262
