21
gdb 111005	2.50729	1.39431	1.10889	1.3954	77.94	-0.2369	0.0599	0.2967	1194.5137	0.182629	-424.202194	-424.193491	-424.192546	-424.235395	34.073	
C	-0.108561202	 1.5735245942	-0.0382322557	-0.383064
C	-0.1651247204	 0.0421152266	-0.0949940941	-0.222926
C	 0.666076112	-0.5302346434	-1.2387123819	 0.009088
C	 2.2120506273	-0.6536705468	-1.0942419394	 0.08856
C	 1.9963424575	-1.9495337192	-0.2796254816	-0.320137
C	 0.8272648136	-2.0814166788	-1.3174682527	 0.340559
O	-0.2952712087	-2.8842415137	-1.1561603756	-0.485417
C	 1.6473248967	-2.1899519947	-2.6182220228	-0.136107
O	 2.6154190612	-1.146300954	-2.3901975858	-0.277837
H	 0.9111525609	 1.9314705835	 0.1404055762	 0.115686
H	-0.4529486737	 2.0175767507	-0.9785672942	 0.117337
H	-0.7425575131	 1.9612060965	 0.7650859093	 0.112872
H	 0.1465757624	-0.3685052488	 0.8707827976	 0.097541
H	-1.20333993	-0.2824807758	-0.2354488801	 0.112925
H	 0.3626177615	-0.0608716278	-2.181793673	 0.070833
H	 2.8668917698	 0.1590270242	-0.7879034453	 0.082622
H	 2.8027164736	-2.686856682	-0.3073620057	 0.094072
H	 1.6474592084	-1.791138439	 0.7393418511	 0.10997
H	-0.0244988309	-3.8082882293	-1.1924209971	 0.283629
H	 2.1500040216	-3.1595940538	-2.7374265946	 0.086987
H	 1.0514587722	-1.9820558484	-3.5147066846	 0.102807
