18
gdb 30758	3.08305	1.16987	0.89248	1.4766	77.53	-0.1761	0.0396	0.2157	1286.3223	0.14885	-435.282002	-435.272223	-435.271279	-435.317157	35.634	
N	 0.1240494127	 1.3804001713	-0.1834820913	-0.618682
C	 0.042402403	-0.0288178079	-0.0417657368	 0.183758
C	-1.0511440477	-0.8327134893	 0.1948252807	-0.16845
N	-0.5973641828	-2.1134712338	 0.3843086028	-0.304731
C	 0.7768428785	-2.1610303413	 0.2115248961	 0.201475
C	 1.5123596508	-3.4495331856	 0.3085744602	-0.179634
O	 1.0161199248	-4.4461709923	-0.5932276704	-0.421448
C	 1.1985285418	-0.8671071028	-0.031873766	 0.133194
N	 2.496281496	-0.3756260876	-0.2748637336	-0.624168
H	 0.4282260458	 1.6425379529	-1.1169363367	 0.241587
H	-0.77116569	 1.8245463736	-0.017235065	 0.235351
H	-2.099490497	-0.5886633766	 0.263486914	 0.104832
H	-1.1742069956	-2.9359572398	 0.4026400945	 0.259678
H	 2.5866067004	-3.2683337323	 0.1515047632	 0.087873
H	 1.4071268089	-3.9086493264	 1.2998348737	 0.110932
H	 1.0098451039	-4.0446214835	-1.4693966017	 0.277951
H	 3.2172508565	-0.9412755958	 0.1550039313	 0.235574
H	 2.5761221399	 0.5738030171	 0.0764073349	 0.244907
