17
gdb 36285	4.15118	1.11982	1.05548	4.5556	77.06	-0.2346	-0.0047	0.2298	1155.7719	0.137115	-380.813974	-380.806632	-380.805688	-380.846204	28.819	
N	 0.1056976908	-1.0973103723	 0.2064086875	-0.308549
C	 0.0430002003	 0.0512857821	 0.3118158899	 0.281658
C	-0.0495735745	 1.511862125	 0.4143796247	-0.301224
N	 1.2664190863	 2.1140394375	 0.1958621658	-0.096409
C	 1.7518523827	 2.1724150998	-1.2569643173	-0.058544
C	 0.83452815	 3.41775187	-1.48626125	-0.228775
C	 1.2653113212	 3.633068067	 0.0011767797	-0.053485
C	 2.7757022046	 3.835686369	-0.1655332957	-0.068131
C	 3.1017185472	 2.8550158375	-1.0105940006	-0.058671
H	-0.8596949176	 1.8379354816	-0.2600143329	 0.128281
H	-0.3679071798	 1.764911642	 1.4329864802	 0.15442
H	 1.7029612771	 1.2598958737	-1.8492526157	 0.093871
H	 1.1545186442	 4.1582845608	-2.2216085924	 0.107425
H	-0.2236489286	 3.1835235473	-1.6253144024	 0.103812
H	 0.7108005297	 4.2421561952	 0.7149963369	 0.076016
H	 3.3829948263	 4.5821156497	 0.3238399865	 0.113027
H	 4.0561888501	 2.5588010641	-1.4187049344	 0.115277
