15
gdb 123657	4.12705	1.60875	1.26807	4.9028	70.71	-0.1982	0.0017	0.1999	939.5956	0.117008	-412.953051	-412.946839	-412.945895	-412.983458	25.426	
C	 0.0114852313	 1.4914577173	 0.097134305	-0.301543
C	 1.316525679	 0.7339671431	 0.0107484254	 0.007546
N	 2.0473597524	 0.3311204317	 1.2106404764	-0.400465
C	 1.1383831335	-0.4487268664	 1.9446687007	 0.332551
C	 0.0040893074	-0.7478772775	 1.2367454334	 0.348146
N	-0.6790037	-1.5586260887	 2.0719051527	-0.334966
N	 0.0043050859	-1.7370179759	 3.2324017714	-0.136211
N	 1.1224481768	-1.042794816	 3.1532436108	-0.300659
C	-0.025259372	-0.024050878	-0.0480179571	-0.202422
H	-0.2967304764	 1.9173565237	 1.0455884462	 0.125658
H	-0.2611597188	 2.072050312	-0.7775061441	 0.12153
H	 1.9255643717	 0.8563560125	-0.8776226499	 0.107881
H	 2.4992249504	 1.085068767	 1.712733602	 0.247437
H	-1.5603008885	-2.0313649078	 1.9561345708	 0.278059
H	-0.3907191726	-0.474065247	-0.9630990436	 0.10746
