16
gdb 54458	3.49102	1.37516	1.12813	3.4448	69.98	-0.2324	-0.031	0.2014	1066.2603	0.122202	-437.800012	-437.792102	-437.791157	-437.832679	29.852	
C	 0.0573021625	 1.4043212835	-0.2845315249	-0.493905
C	-0.0208334478	-0.0302697072	 0.1943193015	 0.295762
O	 0.932014182	-0.6104330972	 0.6818795544	-0.337722
C	-1.3157488604	-0.7209032446	 0.0390050291	 0.197162
N	-1.5689452506	-1.994782903	 0.7551204985	-0.335876
C	-1.4871814843	-2.0330891051	-0.6917331451	-0.131714
C	-2.8340446364	-1.5004350759	-1.2978227668	 0.021848
O	-3.7065030416	-1.1342467249	-0.232062466	-0.206327
C	-2.6693268187	-0.2296388152	-0.5943361162	-0.057436
H	 1.0766304694	 1.7739309249	-0.1708076102	 0.148269
H	-0.250707543	 1.4808319275	-1.3335585477	 0.138776
H	-0.6272545119	 2.0328857696	 0.2972620953	 0.147764
H	-0.6490850329	-2.2650526595	 1.1139569423	 0.25618
H	-0.7190373829	-2.5767418996	-1.2270313913	 0.122855
H	-3.2632969372	-1.7471903313	-2.2605045052	 0.119751
H	-2.9356927963	 0.785339708	-0.8621790574	 0.114614
