25
gdb 92326	1.91945	1.83467	1.17524	0.1779	91.35	-0.2712	0.071	0.3422	1200.5774	0.231249	-352.368695	-352.359807	-352.358863	-352.40181	35.939	
C	-0.4020895672	 2.2350394368	-0.0153922636	-0.413327
C	 0.3591840715	 0.9411018573	-0.277986732	 0.054026
C	 1.7858606703	 1.0623181167	-0.8825821239	-0.251053
C	 2.3208083025	 0.0180933969	 0.1362763505	 0.008957
C	 3.3529332646	 0.543252307	 1.147718688	-0.223074
C	 2.5196735886	 1.3573388725	 2.155812917	-0.221109
C	 1.2242858536	 0.533654957	 2.2968087866	 0.0561
C	 0.0931056649	 1.2041681915	 3.0791549429	-0.419144
C	 0.9272449733	 0.0216411379	 0.8664248165	-0.055608
H	 0.1839010576	 2.94424688	 0.5774141362	 0.11587
H	-0.6370942179	 2.7262618757	-0.9673274228	 0.108275
H	-1.3483495849	 2.0591868249	 0.5065097241	 0.113321
H	-0.2618144435	 0.3122610163	-0.925775355	 0.068017
H	 1.8820719032	 0.7974542081	-1.9389066935	 0.090515
H	 2.2280081554	 2.055773088	-0.7451727533	 0.088985
H	 2.6209379453	-0.9272850284	-0.3205319487	 0.057108
H	 3.8348912821	-0.2955541286	 1.6647881489	 0.091074
H	 4.147018618	 1.1272714034	 0.6701954489	 0.089683
H	 3.0307509361	 1.5046557484	 3.1126224491	 0.088809
H	 2.295764762	 2.3555059022	 1.7577088771	 0.095345
H	 1.501210673	-0.3724787696	 2.857543757	 0.069676
H	-0.1766644746	 2.1800510645	 2.6694601948	 0.116669
H	-0.8094883737	 0.5831490827	 3.0841173461	 0.108077
H	 0.3900632021	 1.3579282769	 4.1226058104	 0.106989
H	 0.4022453876	-0.9362338082	 0.9170651487	 0.055818
