19
gdb 79461	2.47715	1.84601	1.45553	0.6509	73.39	-0.236	0.0636	0.2996	970.8498	0.159977	-422.983706	-422.976097	-422.975153	-423.015294	30.872	
C	-0.0212003978	 1.5142704345	 0.0005601721	-0.51324
C	 0.0340388814	 0.0072949943	-0.0046960413	 0.239213
C	-1.2645562225	-0.8115552965	-0.1751506931	-0.267428
C	-0.6721244945	-2.0885285155	 0.4519618147	 0.058284
O	-0.4158216428	-1.6280075394	 1.8130228501	-0.293375
C	 0.6381521957	-0.8744477659	 1.2003681764	 0.071123
C	 0.8600253722	-1.9215662935	 0.0851044902	-0.152122
C	 1.0193569284	-0.7836461222	-0.9277539021	 0.127336
O	 0.7789072773	-0.9408697604	-2.3032008637	-0.445404
H	 0.9656318824	 1.9475924691	 0.1977366489	 0.11457
H	-0.3602910663	 1.8963301272	-0.9691918	 0.126083
H	-0.7105883063	 1.886349276	 0.7663657	 0.120915
H	-2.1006129895	-0.4467245404	 0.4251713253	 0.110978
H	-1.5854610899	-0.8956453224	-1.2179342105	 0.083466
H	-1.2079206693	-3.0353972475	 0.4018781669	 0.082771
H	 1.3840798652	-0.4578072791	 1.874929391	 0.085737
H	 1.5167928239	-2.784354659	 0.1758906447	 0.078886
H	 2.0271130896	-0.3614576605	-0.8510740424	 0.088373
H	-0.003584737	-1.4871331286	-2.4218353073	 0.283834
