17
gdb 3356	4.45651	2.92616	2.27501	1.5043	62.84	-0.2478	0.0809	0.3287	648.7122	0.151225	-309.71344	-309.707473	-309.706529	-309.743542	23.05	
C	-0.0585973954	 1.4568992651	-0.3619136761	-0.216191
C	 1.3681313453	 1.6594205628	 0.2203663337	-0.216188
C	 1.4271955846	 0.1580887456	 0.6215195567	-0.022314
C	 1.2424361479	-0.1384518312	 2.1120657952	-0.090868
O	-0.1374501541	 0.0870402955	 2.3813057599	-0.249137
C	-0.8436455374	-0.4347598371	 1.2603986847	-0.090876
C	-0.0157712941	-0.0467858191	 0.0324439225	-0.022303
H	-0.8445521242	 2.0288481057	 0.1390566545	 0.101699
H	-0.1374519919	 1.6348900581	-1.4369498038	 0.097027
H	 2.1190247369	 1.9550227188	-0.5160992052	 0.097029
H	 1.4254408841	 2.3511843061	 1.0653516389	 0.10169
H	 2.2404818951	-0.4175496415	 0.1763973352	 0.067009
H	 1.511389127	-1.1855980981	 2.3321575437	 0.082884
H	 1.8214610722	 0.5152771554	 2.7712531013	 0.105323
H	-0.9286444103	-1.5321944994	 1.3359341843	 0.082883
H	-1.8503447179	-0.0063018929	 1.2722253745	 0.105324
H	-0.129023208	-0.7538986437	-0.7910198	 0.067008
