18
gdb 19166	4.0113	1.50741	1.28271	1.7916	66.98	-0.2602	0.0815	0.3417	990.4078	0.153416	-384.901734	-384.89376	-384.892816	-384.934101	30.174	
O	 0.0614323283	 1.5018293125	 0.2588993294	-0.419746
C	 0.0694776993	 0.1114733264	 0.4924797976	-0.127439
C	-1.2534792734	-0.5459841716	 0.1172719847	 0.350469
C	-2.4924809752	 0.2335235421	 0.2297567504	-0.220676
O	-1.8519660881	 0.0464690209	-1.0492874255	-0.286077
C	-1.2688946639	-2.0443715308	 0.1743366185	-0.076277
C	-2.2425614173	-2.8374107634	-0.655400474	-0.27337
C	-0.7771521543	-2.8442971786	-1.009558444	-0.262358
H	-0.3151812989	 1.6128015701	-0.6243021561	 0.291103
H	 0.87567684	-0.3905582993	-0.0671385351	 0.0969
H	 0.2690218644	-0.0396114414	 1.5596131892	 0.113371
H	-3.4401297382	-0.2883649836	 0.3429211163	 0.117216
H	-2.4503393912	 1.2501658829	 0.6114645626	 0.129313
H	-1.0266085291	-2.4404171585	 1.1573877481	 0.089602
H	-2.677514465	-3.7292287087	-0.2188885259	 0.111133
H	-2.9004395619	-2.2777829712	-1.310266619	 0.129297
H	-0.4828875308	-2.2915690546	-1.8950545052	 0.124275
H	-0.1966523246	-3.7401162032	-0.8206111919	 0.113265
