16
gdb 77973	3.54102	1.19825	1.03977	4.1049	67.31	-0.244	0.0081	0.2521	1130.8955	0.123779	-474.959437	-474.951614	-474.950669	-474.99174	30.115	
O	-0.1681307497	 1.5817036877	-0.0540208768	-0.441378
C	 0.0200052601	 0.1869762585	-0.1086794067	 0.138379
C	 0.1050384164	-0.6551604804	 1.2145119554	-0.15216
C	-1.4221761881	-0.323974279	 1.4736978249	 0.181283
O	-1.8606960981	 0.9034277043	 1.9281312603	-0.438399
C	-1.2738762056	-0.6714438022	-0.0624624734	-0.14597
N	-0.3572170487	-1.7854159027	 0.3525611783	-0.069564
C	-0.7195529421	-3.0352478187	 0.7971513598	 0.137171
O	-0.2006660062	-3.6175013646	 1.7217382155	-0.310158
H	 0.6914456868	 2.0044741785	 0.0426680296	 0.302218
H	 0.7359706294	-0.107000446	-0.8819779008	 0.102394
H	 0.9293004362	-0.7688956594	 1.9159660269	 0.110711
H	-1.9348802698	-1.0994899756	 2.0470189379	 0.109912
H	-1.420405423	 1.5818930233	 1.3966089495	 0.294685
H	-2.0303407463	-0.797797384	-0.8369843577	 0.10179
H	-1.4847528414	-3.4953075697	 0.1392187373	 0.079085
