18
gdb 94930	3.74326	1.07986	0.95591	2.4108	73.76	-0.2496	-0.002	0.2477	1237.0825	0.148144	-439.090251	-439.081991	-439.081047	-439.123285	31.008	
O	-0.3334638919	 1.3855220442	 0.6449491477	-0.429244
C	 0.0229858396	 0.1693848029	 0.0009351987	 0.120814
C	 0.8843868792	-0.7732998802	 0.8782969066	-0.253583
C	-0.1153898932	-1.680219523	 1.6426912715	-0.248416
C	-1.3173937285	-1.7659448376	 0.7186953769	-0.014713
C	-1.2283485596	-0.6477015395	-0.2908403898	-0.087944
N	-0.9747759917	-2.0328495039	-0.6650538646	-0.084615
C	-1.7679532047	-2.773541085	-1.525141343	 0.137918
O	-2.3289273087	-3.8014949825	-1.2351151224	-0.289982
H	-0.8062876329	 1.1695085759	 1.4564584126	 0.282068
H	 0.5508278169	 0.4727113217	-0.9072565454	 0.098658
H	 1.5211187846	-1.3858251562	 0.236044344	 0.123737
H	 1.5323909091	-0.1930515384	 1.5385558963	 0.110734
H	 0.3068454565	-2.6614086917	 1.8754386644	 0.122986
H	-0.4277731769	-1.2285189965	 2.5921134475	 0.102513
H	-2.2731197849	-2.1421152482	 1.0689929344	 0.114985
H	-2.1113635584	-0.1509280477	-0.6825593111	 0.108686
H	-1.7734124245	-2.3448783741	-2.5459453644	 0.085397
