16
gdb 54440	3.51487	1.21017	1.0411	3.41	70.25	-0.2572	-0.0453	0.2119	1145.5462	0.122296	-437.8865	-437.878117	-437.877173	-437.919942	30.745	
C	 0.705248183	 1.2588308664	 0.2599482141	-0.507038
C	-0.3032134585	 0.1793660922	-0.0711960467	 0.305556
O	-1.311591505	-0.0012812149	 0.5752800232	-0.295269
C	-0.0297691781	-0.6850748711	-1.2592368275	 0.230807
C	 1.2952491686	-0.932024985	-1.8656534887	-0.28333
N	 0.3786513696	-0.0425633268	-2.6181996163	-0.202301
C	-0.6040960867	-0.9360520628	-3.2416171373	 0.417518
O	-0.9008445648	-1.0061481308	-4.3895573748	-0.282648
C	-1.0951448544	-1.5521678753	-1.925347611	-0.437746
H	 0.987924645	 1.8139210432	-0.6396877127	 0.163365
H	 0.2773398145	 1.9315362801	 1.0034770422	 0.150969
H	 1.6160669699	 0.8095262423	 0.6726425052	 0.145269
H	 2.1594764316	-0.4038352467	-1.4777977773	 0.144838
H	 1.511240158	-1.9217028045	-2.2621842274	 0.14132
H	-1.0112162498	-2.6358277844	-1.8170547411	 0.139982
H	-2.1128510427	-1.2415195519	-1.6806595838	 0.168708
