18
gdb 61034	2.80423	1.17072	0.86348	3.3705	73.36	-0.2495	-0.0245	0.225	1301.5699	0.146089	-439.093488	-439.084291	-439.083347	-439.128256	32.579	
C	-0.0990772565	 1.4459623638	-0.2114390258	-0.39947
C	-0.0526505571	-0.0733117687	-0.0444334473	-0.105356
C	 0.5918169134	-0.7593372945	-1.2467336366	 0.137231
O	 0.951705904	-0.1718427103	-2.2357399986	-0.245736
C	 0.6669032939	-0.5010395915	 1.24518037	-0.137327
C	-0.0059719297	-0.1864261743	 2.6023106288	-0.107563
O	-0.0472382293	-1.6124652082	 2.9201427323	-0.249348
C	 0.5087178708	-1.9420510766	 1.7035616341	 0.433426
N	 0.7535519456	-3.0600510872	 1.1914347593	-0.54178
H	 0.9117352625	 1.8626582972	-0.2550659101	 0.130537
H	-0.6003522739	 1.7140518498	-1.1437373901	 0.13965
H	-0.6324342187	 1.9184397993	 0.618832247	 0.111067
H	-1.0771292834	-0.4763007913	 0.0060734723	 0.103446
H	 0.7072214372	-1.8571934859	-1.1449056113	 0.125858
H	 1.7161662075	-0.1916527211	 1.2121060016	 0.119165
H	 0.5918061357	 0.3615578233	 3.3334376937	 0.127962
H	-1.0165523509	 0.2270804603	 2.54729805	 0.124919
H	 0.487335159	-3.8273292142	 1.8107363109	 0.233318
