18
gdb 108154	3.31327	1.42712	1.22303	3.9736	76.	-0.2165	-0.0541	0.1624	1064.4308	0.145717	-401.811858	-401.803921	-401.802977	-401.844273	30.96	
C	 0.2756989865	 1.5309744749	 0.0854051487	-0.378391
C	-0.0701047724	 0.0471072811	-0.0991357065	-0.288382
C	 0.549327191	-0.5650777995	-1.3346311669	 0.279218
C	 0.1248900058	-0.0991045499	-2.7582391778	-0.218156
N	 1.033888451	-0.8749663128	-3.6710597698	-0.231374
C	 1.4719188845	-1.7517358702	-2.8699270183	 0.264516
O	 2.7742095635	-1.6920502224	-2.3475976259	-0.266784
C	 1.9928863433	-1.3109755864	-1.1262773244	 0.028095
C	 0.7804884513	-2.0313355691	-1.4976885407	-0.25386
H	 1.3582759939	 1.6752737855	 0.1569808093	 0.124957
H	-0.0847634308	 2.1347095313	-0.7532060575	 0.125754
H	-0.1808914092	 1.9255791276	 0.9976942002	 0.118098
H	 0.2463329332	-0.5179294848	 0.7863984042	 0.102662
H	-1.160677528	-0.0737492731	-0.1573687712	 0.108202
H	-0.9547339725	-0.2550839059	-2.9119752086	 0.108111
H	 0.3492145562	 0.9517443294	-2.9653759159	 0.133256
H	 2.5756298258	-1.2557885063	-0.2142961374	 0.128479
H	 0.2871706869	-2.9197183494	-1.1251888016	 0.115597
