15
gdb 27845	2.07251	1.78485	0.95961	3.7936	76.42	-0.1867	-0.0109	0.1758	1145.4622	0.113512	-453.990054	-453.982155	-453.981211	-454.022172	31.097	
N	 0.0869029212	 1.337246609	 0.16904289	-0.563418
C	-0.0555525807	-0.022234954	 0.0615224481	 0.463491
C	-1.2297129733	-0.7045870006	 0.0375275184	-0.362812
C	-1.1575492001	-2.1291474309	-0.002979693	 0.442955
O	-2.3533584777	-2.7622056715	-0.0203160385	-0.42985
C	 0.0393569186	-2.7795156352	-0.0242295536	-0.362252
C	 1.2717698947	-2.0485294895	-0.0088282402	 0.389016
N	 2.4391906066	-2.549428594	-0.030855359	-0.555965
O	 1.1404249024	-0.633606382	 0.0314439557	-0.272296
H	 0.973136502	 1.6998001246	-0.148628735	 0.26633
H	-0.7125600094	 1.8912139297	-0.0937877628	 0.266712
H	-2.1836715244	-0.1988363113	 0.0608811593	 0.10263
H	-2.20302925	-3.7140516408	-0.0475708188	 0.304057
H	 0.1168456777	-3.8588176905	-0.0566288052	 0.099491
H	 3.1489459523	-1.818960143	-0.0096907754	 0.211911
