20
gdb 91876	2.30784	1.58069	1.06258	3.2942	79.3	-0.2322	-0.0119	0.2203	1172.4622	0.172713	-403.163616	-403.155402	-403.154458	-403.196338	32.14	
C	 0.0859442587	 1.5731233643	 0.0200469972	-0.40379
C	 0.0096071764	 0.0443657202	 0.0087290564	 0.021977
C	 0.572178976	-0.5365263922	-1.3051087482	-0.198951
C	 0.8430195444	-2.0363378455	-1.2640424427	-0.048029
N	 2.0767409575	-2.4403516303	-0.591737081	-0.330562
C	 0.7763050671	-2.7993984534	 0.0279552262	-0.137353
C	 0.4448246295	-2.0614390293	 1.2881653875	 0.419253
O	-0.0633642852	-2.6229326858	 2.2333727725	-0.328913
C	 0.7182371969	-0.5703958593	 1.2389783853	-0.315046
H	 1.1280979036	 1.9120487348	-0.0051804675	 0.118195
H	-0.4256041184	 2.001181126	-0.8488258978	 0.113039
H	-0.3793282388	 1.9857831082	 0.9207823075	 0.117623
H	-1.0497555683	-0.2425687022	 0.0720002864	 0.083667
H	-0.1269642925	-0.3175161684	-2.1198009884	 0.100658
H	 1.5142203596	-0.0317949834	-1.5528753969	 0.111219
H	 0.5574974969	-2.5955973999	-2.152338444	 0.094919
H	 2.4739273363	-3.2681616759	-1.0281050324	 0.240684
H	 0.4600793113	-3.8383299949	 0.0175418099	 0.097592
H	 1.7992413209	-0.403621623	 1.1590781646	 0.131196
H	 0.3592370082	-0.1247275	 2.1699004553	 0.112621
