19
gdb 54309	2.64773	1.351	1.08782	1.6593	75.43	-0.2448	-0.0219	0.2229	1183.0073	0.156791	-423.011912	-423.002637	-423.001692	-423.046517	33.938	
C	-0.1182209395	 1.4824644317	 0.2085609551	-0.479895
C	-0.1947873922	-0.0298317486	 0.1999677029	 0.330758
O	-0.5168795154	-0.6754694196	 1.1714021623	-0.304381
C	 0.1710401518	-0.7427409233	-1.0896101337	 0.26828
C	-0.6025346947	-0.3908686571	-2.3023675834	-0.217344
O	 0.7273646573	 0.085204797	-2.1196609934	-0.263104
C	 0.7696802612	-2.1068933322	-0.9231816251	-0.060675
C	 1.4867798172	-2.77561647	-2.0635354452	-0.284488
C	 2.2711017817	-2.2604837681	-0.8827208048	-0.262427
H	 0.927129837	 1.7918353583	 0.1004153779	 0.155339
H	-0.6559594933	 1.924638317	-0.6348473654	 0.141245
H	-0.519449994	 1.8561906311	 1.1510318222	 0.139882
H	-0.7275099617	-1.1563268265	-3.0655536974	 0.128922
H	-1.3819670674	 0.3682593912	-2.2629379418	 0.120421
H	 0.201099326	-2.7309281361	-0.2437584428	 0.111125
H	 1.363970017	-3.8460602729	-2.1832566885	 0.112977
H	 1.5825659833	-2.2207347344	-2.9903299249	 0.123827
H	 2.8705572353	-1.3712238856	-1.0434169561	 0.122302
H	 2.6910410604	-2.9708213418	-0.1801059278	 0.117236
