15
gdb 91617	2.32274	2.10507	1.50952	4.9567	59.27	-0.2619	0.0026	0.2645	886.3893	0.114189	-494.93286	-494.925962	-494.925018	-494.964208	26.875	
O	-0.0486017209	 1.433954165	-0.0285854662	-0.419206
C	 0.0371659038	 0.0295639511	 0.0298486819	 0.108229
C	 0.5832373538	-0.5571197427	 1.3726169403	-0.281095
C	-0.6505364971	-1.3462766373	 1.8382811711	 0.18899
O	-1.1887491242	-1.8526382108	 0.6323718767	-0.245117
C	-1.3984568717	-0.5681949327	 0.0298037444	-0.125357
C	-2.1724541813	 0.140847966	 1.1511150278	 0.48247
O	-3.0334483112	 0.9615719126	 1.1310212474	-0.33133
O	-1.6407959651	-0.4015152207	 2.2975718092	-0.244514
H	 0.8407434812	 1.7990094675	-0.058259032	 0.295809
H	 0.5897142864	-0.377135836	-0.8257388258	 0.092221
H	 1.4340564414	-1.2245615391	 1.2207244557	 0.117718
H	 0.8556714975	 0.2318303193	 2.0758559453	 0.127459
H	-0.5291236855	-2.1291056604	 2.583545557	 0.113137
H	-1.9124332271	-0.6393802118	-0.9235369028	 0.120585
