18
gdb 40326	4.58293	1.27729	1.2179	2.1113	78.07	-0.2075	0.0681	0.2756	1066.8252	0.148187	-364.66919	-364.662152	-364.661207	-364.700928	28.285	
C	-0.2458372773	 1.3507901411	-0.2113568565	-0.267857
C	 1.1918392267	 1.0788907725	 0.1401873853	-0.260737
C	 0.203518727	-0.0665351516	 0.0653359716	-0.169868
C	-0.2298754265	-0.7563974287	 1.2933414982	 0.387679
C	-1.6144494569	-1.3107244308	 1.6896606128	-0.178895
C	-0.9159105677	-2.3773421314	 2.566837169	-0.047532
C	 0.4218058642	-1.8509585463	 2.1921156185	-0.132631
N	-0.2674005249	-1.3200193006	 3.4221874107	-0.180183
C	-0.9326375036	-0.2665265642	 2.5375111696	-0.080636
H	-0.863606541	 1.84257774	 0.5321635835	 0.115359
H	-0.4894575627	 1.6125506644	-1.2347426955	 0.114311
H	 1.9388126248	 1.1586693641	-0.6415873352	 0.113059
H	 1.5352452572	 1.377893456	 1.1243407147	 0.119636
H	 0.295400993	-0.7071312434	-0.8089409693	 0.086447
H	-2.5401192216	-1.2817643193	 1.1329092842	 0.095724
H	-1.2278896138	-3.3343004629	 2.9678044408	 0.095507
H	 1.4118173678	-2.291016548	 2.2305278445	 0.092895
H	-1.2367455846	 0.7177456188	 2.8729857231	 0.097721
