16
gdb 9528	2.84446	1.84785	1.55213	2.9613	60.34	-0.2682	-0.0071	0.2611	894.4808	0.129005	-420.900687	-420.892377	-420.891433	-420.933404	29.788	
C	 0.0168761972	 1.6025405635	-0.0093392404	-0.391082
C	 0.0857700487	 0.0729314095	 0.0193502936	-0.215478
C	 0.7468625725	-0.5194757615	-1.2242719324	 0.221305
O	 2.0617527251	-0.0376003229	-1.2902773587	-0.464231
C	 0.5110058599	-2.0411216619	-1.4347414045	-0.134997
O	-0.3705985232	-1.7550486384	-2.5674128537	-0.24101
C	-0.1133629964	-0.4073560371	-2.5106253781	 0.389443
O	-0.4712686196	 0.4363036364	-3.2680972044	-0.324305
H	 1.0194252068	 2.0305342495	-0.0767711873	 0.13752
H	-0.5593289346	 1.9537974187	-0.8701301555	 0.141991
H	-0.4597856475	 1.980964416	 0.8992688989	 0.113632
H	 0.6636204715	-0.2674681763	 0.8875326593	 0.113588
H	-0.9187352888	-0.3547546866	 0.116642851	 0.110569
H	 2.415837318	-0.1823952856	-2.1741814126	 0.295385
H	 1.3934050525	-2.5984474228	-1.7580776042	 0.121022
H	-0.0237004123	-2.5777904604	-0.648852361	 0.126649
