18
gdb 57055	2.35739	1.44581	0.98752	2.1563	71.87	-0.2677	0.0246	0.2923	1193.8566	0.146724	-439.079921	-439.070665	-439.069721	-439.114411	33.287	
C	-0.0801675638	 1.4897612198	 0.1059738746	-0.411668
C	 0.0366815585	-0.0426154152	 0.050412906	-0.139008
C	 0.5994627019	-0.5148023609	-1.2176768213	 0.259134
N	 1.0746536818	-0.9227161948	-2.1901095808	-0.336485
C	 0.903000162	-0.5849544868	 1.2003169163	 0.103862
O	 0.3006764766	-0.3299206482	 2.4821030166	-0.294788
C	 0.1471919769	-1.7448099775	 2.7529300288	-0.086626
C	 0.8458426482	-2.1229462724	 1.4376992578	 0.051856
O	 0.0181994064	-2.880402698	 0.5934774889	-0.425544
H	 0.8954857494	 1.9632545303	-0.0359079213	 0.134602
H	-0.7581477742	 1.8599723676	-0.6665510041	 0.135544
H	-0.4686679429	 1.7752843223	 1.0860950329	 0.150621
H	-0.9565172367	-0.4937218328	 0.1481171686	 0.140016
H	 1.9114487961	-0.1553642494	 1.1402145014	 0.089173
H	 0.6505052918	-2.0386116453	 3.6794258612	 0.113829
H	-0.9040340297	-2.0516398878	 2.7860826421	 0.120679
H	 1.833141444	-2.5817489746	 1.5611923314	 0.090422
H	 0.4862273636	-3.0481657863	-0.232572399	 0.30438
