16
gdb 1682	4.28424	1.96415	1.4566	3.3432	57.58	-0.2395	0.035	0.2744	845.3709	0.13492	-362.942862	-362.934257	-362.933313	-362.976204	29.777	
C	 0.1193995979	 1.5086082235	-0.7422860827	-0.240398
O	-0.2025296408	 0.1357164262	-0.7908187508	-0.258824
C	 0.9106533069	-0.7312566096	-0.9675067105	 0.043208
C	 1.7165762034	-0.9424728694	 0.3150009904	-0.398688
C	 0.4145316279	-2.0827075109	-1.5132849457	 0.373184
N	-0.8914873547	-2.1047874252	-1.8722521009	-0.514447
O	 1.174036018	-3.0272507324	-1.6231234656	-0.377232
H	 0.7258559819	 1.7631729145	 0.1374554542	 0.116935
H	 0.6637153283	 1.8268468532	-1.6445019485	 0.11104
H	-0.8230394487	 2.0586431085	-0.6855372228	 0.129628
H	 1.57174503	-0.3194521642	-1.7481599048	 0.096309
H	 2.2177902218	-0.0231777343	 0.6290573153	 0.111234
H	 1.057718443	-1.2756334805	 1.1225474354	 0.125241
H	 2.4692715481	-1.7122687976	 0.136262421	 0.152448
H	-1.4684993447	-1.30040677	-1.6965848282	 0.27114
H	-1.2876760684	-2.9658141017	-2.2089125057	 0.259222
