22
gdb 86745	4.08861	0.97269	0.85908	0.9886	89.14	-0.2279	0.0237	0.2516	1428.7336	0.194906	-367.193728	-367.184892	-367.183948	-367.227728	33.901	
C	 0.6350154349	 1.5739482699	-0.1793318692	-0.388229
C	-0.0992850208	 0.2385649328	 0.0357646231	-0.02108
C	 0.2240081759	-0.8321374647	-1.0441205452	-0.244525
C	 1.2074406381	-1.835476924	-0.3894440492	 0.022094
C	 1.0399592391	-1.5549758938	 1.0865566852	-0.075287
C	 0.3331676858	-0.4508669239	 1.3113522745	-0.072291
N	 0.8687149845	-3.2194999458	-0.7331186149	-0.067161
C	 1.477415726	-3.7437659761	-1.9526480841	-0.220274
C	 1.9493584714	-4.1940106844	-0.6153160499	-0.225315
H	 1.7180218405	 1.4205255987	-0.239583513	 0.114703
H	 0.3071532617	 2.0559786371	-1.1065025395	 0.111702
H	 0.4432526696	 2.269133457	 0.6451056913	 0.110875
H	-1.1758918123	 0.4525153855	 0.056234569	 0.074125
H	-0.6810250348	-1.3873616468	-1.3058591146	 0.113361
H	 0.6210395931	-0.3909232904	-1.9627099698	 0.089374
H	 2.2519645845	-1.6202358013	-0.6922418371	 0.053427
H	 1.4830542903	-2.1913744766	 1.8447639258	 0.0914
H	 0.1151418604	-0.0377265845	 2.2913681506	 0.089267
H	 0.8445728584	-4.3830033898	-2.5613510837	 0.114562
H	 2.1395301176	-3.0877427447	-2.5163830879	 0.107147
H	 2.9266239161	-3.8388620759	-0.2902848717	 0.107144
H	 1.66823046	-5.1687029183	-0.2270224297	 0.114982
