21
gdb 65510	3.45431	1.16013	1.12561	1.8109	81.6	-0.2473	0.086	0.3333	1196.7234	0.181985	-387.036542	-387.02803	-387.027086	-387.069666	33.612	
C	 0.0898873033	 1.5921289016	-0.0831953952	-0.483117
C	 0.0234005442	 0.0690734247	-0.0663018858	 0.299847
C	 0.9914925368	-0.6617001529	-1.0904812699	-0.312805
C	 1.7156036052	-1.2911839775	 0.1033904402	 0.039112
O	 2.2146521077	-0.2174515735	 0.9138546762	-0.256042
C	 0.8463479134	-0.6023786416	 1.0676351211	-0.003498
C	-1.3692938403	-0.5322797991	-0.1234092959	-0.015605
C	-2.5711167671	 0.075017337	 0.5590441374	-0.285918
C	-2.491859684	 0.0459894866	-0.9484302685	-0.284165
H	 1.1286392629	 1.9074189544	 0.0392103512	 0.136849
H	-0.2775109874	 2.0008444507	-1.0301033753	 0.115364
H	-0.4939136429	 2.0376459177	 0.7289058743	 0.114604
H	 0.4611033437	-1.3831913112	-1.7163973792	 0.105436
H	 1.6138977791	-0.0189805615	-1.7183436535	 0.10499
H	 2.2362887196	-2.2395127371	 0.170976635	 0.10043
H	 0.514343705	-0.8822318142	 2.0620617051	 0.096251
H	-1.3459209478	-1.6202911468	-0.0966921823	 0.077506
H	-3.2670736893	-0.5935083384	 1.0539667348	 0.110477
H	-2.463389298	 1.0368273468	 1.0471657791	 0.115299
H	-2.3251286098	 0.9880196817	-1.4584136696	 0.114636
H	-3.1352464742	-0.6395597973	-1.4889043092	 0.110351
