19
gdb 28449	2.9931	1.38276	0.96267	0.5809	87.39	-0.2355	-0.0347	0.2008	1250.1837	0.158725	-382.146857	-382.137652	-382.136708	-382.18103	33.451	
C	-0.0477009268	 1.502418743	 0.0366405198	-0.472195
C	-0.0277867341	-0.0007902565	-0.0068581161	 0.305236
C	-0.0976880896	-0.714076703	-1.2005802845	-0.076278
N	-0.0803741587	-2.0477075445	-1.241233022	-0.293727
C	 0.0079066738	-2.6973545427	-0.0800030772	 0.276648
C	 0.0272537355	-4.2014696422	-0.1264396214	-0.486909
C	 0.07962046	-1.9861973543	 1.1377508693	 0.271875
C	 0.1798838669	-2.6960446642	 2.46152075	-0.486424
N	 0.0610600915	-0.6538124486	 1.1606884457	-0.351281
H	 0.8603500884	 1.884897897	 0.513791893	 0.14016
H	-0.1211508629	 1.9308197396	-0.9661144436	 0.122212
H	-0.8954340715	 1.8582529956	 0.630999084	 0.140158
H	-0.1699159739	-0.1966558365	-2.1544309256	 0.104034
H	 0.9449750663	-4.6066749019	 0.3159489638	 0.130622
H	-0.8102524017	-4.6328649333	 0.434452206	 0.130627
H	-0.0378738876	-4.5316270564	-1.1640219939	 0.141388
H	 1.0742550676	-3.328225531	 2.5106633858	 0.131713
H	 0.2233191619	-1.9604160863	 3.2656201718	 0.140426
H	-0.6804595653	-3.3544986539	 2.629515415	 0.131716
