12
gdb 14602	5.8906	0.77918	0.70468	3.7675	73.13	-0.2637	-0.0419	0.2218	1470.3476	0.080875	-381.296868	-381.288556	-381.287612	-381.331033	27.958	
O	 0.4569501314	 0.1011640669	-0.1811282621	-0.260458
C	 0.5223600272	 1.2860301814	-0.2896259222	 0.184008
O	 0.5998652148	 2.1075472667	 0.7818686927	-0.164893
C	 0.7113148044	 3.514547665	 0.5068111062	-0.28311
C	 2.0852668694	 3.9327983961	 0.2779959977	 0.490594
C	 3.2270100736	 4.2810991755	 0.0830709428	-0.343159
C	 4.5110164712	 4.6723499442	-0.1360600455	 0.303645
C	 5.6502551186	 5.0199133072	-0.3316350625	-0.531958
H	 0.5147724772	 1.8321169352	-1.2528528828	 0.086313
H	 0.0820613994	 3.7818855124	-0.352942606	 0.149587
H	 0.2953942739	 4.0137124326	 1.3864846531	 0.167185
H	 6.653559329	 5.3239872969	-0.5018816813	 0.202245
