20
gdb 96991	2.75205	1.35378	1.12441	2.1372	82.2	-0.2429	0.0343	0.2772	1193.4136	0.170183	-403.138288	-403.129131	-403.128187	-403.172419	33.572	
C	 0.1656588778	 1.4081786851	-0.130578356	-0.339568
N	 0.3987649543	-0.0295850881	-0.1357430332	-0.342305
C	 0.5711418477	-0.6265693255	 0.9492055397	 0.439985
O	 0.5970648381	-0.1425636091	 2.2549469384	-0.291862
C	 0.902269029	-1.4692048229	 2.7819010034	 0.072986
C	-0.3702978144	-2.2335015181	 3.1916064118	-0.233758
C	-0.4866654525	-2.8010304357	 1.7428792256	-0.280459
C	 0.8370992985	-2.0640044583	 1.3390244685	 0.168465
C	 1.9177809299	-2.823064812	 0.6064188592	-0.493246
H	 0.8898357561	 1.8903121566	-0.7962299701	 0.124808
H	-0.8295838722	 1.613002902	-0.5414296491	 0.125451
H	 0.2357890837	 1.86982464	 0.8612964036	 0.125638
H	 1.7798491442	-1.446376238	 3.428798306	 0.088597
H	-0.1848127769	-3.0043211935	 3.9437446826	 0.108546
H	-1.1816629229	-1.5902436681	 3.53732396	 0.1184
H	-0.3831060066	-3.8877616099	 1.6978069901	 0.108873
H	-1.3705673601	-2.5129318672	 1.171064855	 0.117587
H	 1.6061147909	-3.0150691141	-0.4255581317	 0.141602
H	 2.8512968954	-2.2529692569	 0.5690794704	 0.126184
H	 2.1200806897	-3.7867648264	 1.0852002359	 0.114079
