15
gdb 42205	3.34356	1.16427	0.87299	1.4549	77.52	-0.2468	-0.0842	0.1626	1247.3595	0.110926	-420.601692	-420.593205	-420.59226	-420.635845	29.894	
O	-0.0102663061	-0.0592172834	-0.0596653461	-0.300029
C	-0.0424925546	 1.1566181139	-0.0111695122	 0.162248
C	 1.1815585001	 1.9441327448	-0.0016044366	 0.256806
C	 2.1906924877	 2.6007074247	 0.0066150591	-0.42462
C	-1.3006247389	 1.9301752091	 0.041654483	 0.208214
C	-2.5241247192	 1.3939152098	 0.0429558942	-0.178488
C	-3.5527124754	 2.4773116547	 0.1037856531	-0.109106
O	-2.8184007998	 3.6965379472	 0.1378281457	-0.267447
C	-1.4168516418	 3.4353291865	 0.1023814104	-0.178374
H	 3.0910563646	 3.1662363747	 0.0134527692	 0.217982
H	-2.7457804099	 0.3354311507	 0.0057859267	 0.139614
H	-4.2235603281	 2.4600116266	-0.7704098563	 0.119019
H	-4.1914071768	 2.3912434123	 0.997776845	 0.119011
H	-0.9332298497	 3.8568574164	 0.9958547687	 0.117583
H	-0.9651481621	 3.9257405619	-0.7724504941	 0.117588
