13
gdb 1068	7.74692	2.01171	1.62084	1.601	55.52	-0.1986	0.0135	0.2122	731.0147	0.103561	-340.656628	-340.650307	-340.649363	-340.686868	22.711	
C	 0.0318044517	 1.4048941558	-0.0772375016	-0.328775
N	-0.1622449886	-0.0180365295	 0.1190543125	-0.370532
C	 0.574049022	-0.6478107003	 1.0991506571	 0.305363
C	 1.2514045644	-0.1427434059	 2.1689910407	-0.128172
O	 1.7655118821	-1.2169535359	 2.8716395835	-0.142909
C	 1.376608727	-2.2904643775	 2.1699022485	 0.08374
N	 0.6721945852	-2.0346962331	 1.1145372932	-0.323005
H	 1.0800049137	 1.6806806628	-0.2761947901	 0.113704
H	-0.5847758492	 1.7410046712	-0.913427336	 0.129313
H	-0.2950869372	 1.9493803929	 0.8160739868	 0.133215
H	-0.2246693856	-0.5695143074	-0.7240462226	 0.246373
H	 1.4511930735	 0.8342857461	 2.5669066347	 0.134201
H	 1.6818370509	-3.2561822192	 2.5417261933	 0.147485
