19
gdb 36366	2.53209	1.16888	0.99115	0.7212	81.88	-0.2262	0.0335	0.2597	1272.8878	0.158352	-381.963163	-381.954063	-381.953119	-381.997557	33.795	
C	-0.7640696841	 0.1302465349	-1.1722239581	-0.457639
C	-0.0562643331	 0.3942632009	-0.2359008487	 0.299261
C	 0.8407490867	 0.6901180743	 0.885127393	-0.282989
N	 1.759288168	 1.8313767615	 0.7630919158	-0.101436
C	 1.9869414995	 2.4827826217	-0.5209239065	-0.267882
C	 1.2670692482	 3.1979732834	 0.5745446099	-0.004639
C	-0.1837377261	 3.548442814	 0.4671041286	-0.001163
C	-0.8529760972	 4.2086869613	 1.6197682501	-0.246691
N	-0.56844374	 4.9699976995	 0.3924173249	-0.32431
H	-1.4003443591	-0.1029154192	-1.990256905	 0.203859
H	 0.2512386345	 0.8353226903	 1.7980235461	 0.142313
H	 1.4645196363	-0.195482877	 1.0599180246	 0.142972
H	 3.0232115445	 2.7146612257	-0.754112151	 0.114207
H	 1.3852570565	 2.1608828157	-1.3685067823	 0.128204
H	 1.8297730324	 3.9238393171	 1.1665027037	 0.080663
H	-0.7782336617	 2.9067726528	-0.1748150401	 0.11347
H	-1.9066795374	 4.0306045319	 1.8148971907	 0.120794
H	-0.2543667343	 4.405483674	 2.5062359337	 0.111352
H	 0.2529713965	 5.5550425872	 0.5336815308	 0.229656
