14
gdb 14828	3.6481	1.50711	1.1498	3.8603	65.4	-0.2731	-0.0007	0.2724	1012.052	0.106986	-378.721714	-378.713839	-378.712894	-378.754658	26.818	
C	-0.0877808312	 1.436848094	-0.069783952	-0.343965
N	-0.1514635715	-0.0155402836	-0.1615713627	-0.307153
C	 0.5913487722	-0.6210544239	-0.9528804119	 0.477241
O	 1.5483654715	-0.1777166235	-1.8525159704	-0.256922
C	 1.891918255	-1.5346606249	-2.2449134189	-0.08594
C	 0.7877079985	-2.0972485589	-1.3076231131	-0.31622
C	 1.2029908357	-2.9920911504	-0.2421456436	 0.292238
N	 1.5533726506	-3.7080536394	 0.5941223629	-0.313054
H	 0.6689071199	 1.8932636104	-0.7175898545	 0.13147
H	-1.0690721585	 1.8504493498	-0.3243757002	 0.137246
H	 0.1184005418	 1.7139894845	 0.9688684496	 0.140882
H	 1.730993571	-1.6953585057	-3.3124522653	 0.137288
H	 2.9152760216	-1.7857696984	-1.9608347097	 0.14777
H	-0.0695844565	-2.5185264301	-1.8383290202	 0.159119
