19
gdb 83344	2.11868	1.64998	1.53386	2.6881	69.76	-0.2355	0.0573	0.2928	1006.1857	0.159534	-460.144626	-460.136129	-460.135185	-460.176904	33.804	
O	 0.1889269426	 1.4591687098	-0.1304772269	-0.448915
C	 0.044099459	 0.0732818037	 0.0015469779	 0.101221
C	 0.1534144914	-0.6366799145	 1.3877217501	-0.133488
C	-0.9483972101	 0.0711021539	 2.2049384094	-0.242845
C	-2.0956439507	 0.0892705856	 1.1369639703	-0.282462
C	-1.3666924979	-0.6214331856	-0.007702308	 0.377234
O	-2.1247538862	-0.8320261947	-1.1476961545	-0.493673
C	-0.6665424505	-1.7924089988	 0.7432889845	 0.075042
O	-0.0011564193	-2.6129192294	-0.1954793049	-0.457201
H	-0.4812666993	 1.9005453955	 0.4003256541	 0.283791
H	 0.7105153366	-0.3794526708	-0.730804033	 0.097111
H	 1.114623368	-0.8139818284	 1.8697194638	 0.062415
H	-1.2249136259	-0.4877068309	 3.103040455	 0.103878
H	-0.6445029786	 1.0722461717	 2.5238928788	 0.101777
H	-2.9851636124	-0.4628537873	 1.4497061586	 0.110726
H	-2.4216714652	 1.0959168704	 0.8546311647	 0.100718
H	-1.6205387955	-1.424815948	-1.7177804266	 0.290958
H	-1.29138999	-2.3861385521	 1.423975403	 0.064303
H	 0.6097815139	-3.1885767402	 0.2739784538	 0.289412
