21
gdb 59281	2.43059	1.42233	0.96119	2.434	84.46	-0.2368	-0.0172	0.2196	1270.7182	0.181632	-387.130253	-387.120992	-387.120048	-387.164696	34.994	
C	 0.0337545204	 1.5193854691	 0.1488860321	-0.397839
C	-0.0934220936	-0.0034058112	-0.0008938353	 0.041998
C	-1.5705984311	-0.4168606824	-0.0490705544	-0.397608
C	 0.6780991028	-0.5213699735	-1.2528607407	-0.148572
C	 2.1075117918	-0.0522914486	-1.3784513374	-0.080693
C	 2.99528815	-1.0479623317	-1.3609334056	-0.085362
C	 2.3433919304	-2.396111332	-1.2417317867	-0.362847
C	 0.8435794989	-2.0581276206	-1.2418843435	 0.387082
O	-0.0464641917	-2.869888453	-1.2354926408	-0.310722
H	 1.0688139725	 1.8355933391	 0.3051386482	 0.113838
H	-0.3477790821	 2.0348666942	-0.7409142897	 0.112146
H	-0.5521236548	 1.8657345124	 1.0064610304	 0.114021
H	 0.369164792	-0.4666296315	 0.88200921	 0.074968
H	-2.080190443	 0.0792714458	-0.8843867332	 0.106923
H	-1.6824897223	-1.4939796293	-0.1817924064	 0.149268
H	-2.0802887192	-0.1194983866	 0.8733074579	 0.105098
H	 0.0851677953	-0.2412397339	-2.1367696127	 0.100147
H	 2.3651651396	 0.9950940739	-1.4797555747	 0.103968
H	 4.069149057	-0.9223538639	-1.4392125243	 0.100919
H	 2.5721131996	-3.0779233573	-2.0705611143	 0.136442
H	 2.6057316976	-2.9381672992	-0.3233858689	 0.136825
