19
gdb 54860	3.2319	1.34553	1.09737	2.3491	80.61	-0.2289	-0.0132	0.2158	1148.6259	0.159013	-385.904949	-385.896553	-385.895609	-385.938762	31.816	
C	-0.1056744029	 1.5564450272	-0.092653133	-0.477426
C	 0.1100293662	 0.0650697378	 0.1063822576	 0.377234
O	 1.2100214625	-0.3983227912	 0.2865286844	-0.292209
C	-1.1670151343	-0.7952187821	 0.0652875489	-0.149508
C	-1.6118295606	-1.0843631509	-1.3669992148	-0.098272
C	-1.8461522179	-2.3843565454	-1.5609188668	-0.070498
C	-1.5512704657	-3.1942637579	-0.3470655597	-0.092358
C	-0.0981398165	-3.1810435988	 0.0880865173	-0.262434
C	-1.0574682573	-2.1872228991	 0.6838562589	-0.047198
H	 0.8539794586	 2.0584071573	-0.2207837657	 0.141591
H	-0.7527798894	 1.7548130471	-0.9535210437	 0.136314
H	-0.61453458	 1.9702422428	 0.7864195366	 0.142369
H	-1.9498655426	-0.2097638695	 0.5716167586	 0.085857
H	-1.6940459159	-0.3093091473	-2.1203176414	 0.096418
H	-2.179923998	-2.8211679121	-2.4956456926	 0.098629
H	-2.1787055902	-4.0383197144	-0.0837985514	 0.086225
H	 0.2317373234	-3.9792791848	 0.74492718	 0.108694
H	 0.6459217687	-2.8362156041	-0.6177427117	 0.129421
H	-1.3111921584	-2.2969899948	 1.7311288084	 0.08715
