18
gdb 32325	2.97144	1.29605	0.97706	5.0773	74.22	-0.2072	0.0264	0.2336	1220.5119	0.147446	-439.148743	-439.139649	-439.138705	-439.183014	32.554	
C	-0.1365017584	 1.5524318081	 0.0212701135	-0.375951
C	 0.0402392563	 0.0227367008	 0.0166785665	-0.299434
C	 0.743512079	-0.5068067617	-1.1886843733	 0.270051
C	 2.0033319611	-0.9413372304	-1.3361658843	-0.131721
O	 2.2350168492	-1.3180875905	-2.6428841667	-0.212164
C	 1.0737549351	-1.1232053797	-3.3557083137	 0.480781
O	 0.9369185859	-1.3685134172	-4.5262086863	-0.416449
N	 0.1544140486	-0.6134485507	-2.4597061328	-0.177951
C	-1.2152649229	-0.3465525938	-2.8414702835	-0.353167
H	 0.8346543655	 2.0522215758	-0.0349561585	 0.130134
H	-0.7370316682	 1.8947960859	-0.8265410044	 0.126332
H	-0.6382218913	 1.8762137324	 0.9379769236	 0.121975
H	 0.6190685974	-0.2780189506	 0.8960050836	 0.122529
H	-0.939649629	-0.4610212212	 0.1168438743	 0.11578
H	 2.8233811052	-1.0420583328	-0.6473634841	 0.149848
H	-1.3162468137	-0.6486602648	-3.8851215188	 0.176097
H	-1.917384371	-0.9237714057	-2.231137779	 0.135775
H	-1.4599645788	 0.7168102661	-2.753620126	 0.137537
