19
gdb 89429	2.88235	1.69935	1.47101	2.6174	73.14	-0.2343	0.0775	0.3118	970.1358	0.160094	-422.999781	-422.992314	-422.99137	-423.031166	30.918	
C	 0.0326509723	 1.4757065171	 0.0931711175	-0.481477
C	-0.0326963282	-0.0142837606	-0.1120636465	 0.412277
C	 0.7210016106	-0.6345837405	-1.2841561032	-0.273889
C	 0.3862020786	-2.1495851178	-1.160534787	 0.12486
O	 1.4252228	-2.8985598117	-0.5547281656	-0.446013
C	-0.9114374635	-2.1605588663	-0.338243421	-0.112546
C	-0.7870723091	-1.5361169938	 1.0363740424	 0.080959
O	 0.4066412751	-0.7492401526	 1.1097330259	-0.356043
C	-1.3993263861	-0.7485637732	-0.0704223891	-0.196581
H	 1.0671377065	 1.7920066579	 0.2596317365	 0.130839
H	-0.3483519487	 1.9996174325	-0.7899339497	 0.120448
H	-0.5619661947	 1.7737324253	 0.9608443499	 0.128752
H	 0.3462117523	-0.2172799858	-2.2262019091	 0.098539
H	 1.8012963027	-0.4711704098	-1.2362997866	 0.108902
H	 0.2331986145	-2.6053930007	-2.1421522361	 0.081891
H	 1.5840051901	-2.4720986563	 0.2976103915	 0.285566
H	-1.6298157152	-2.9642404356	-0.4521191777	 0.091952
H	-1.1797684765	-1.950694729	 1.9570506386	 0.105519
H	-2.3880704006	-0.3412605293	-0.2303016008	 0.096045
