22
gdb 56809	2.32696	1.25695	0.94521	1.5099	88.44	-0.2156	0.0502	0.2658	1339.601	0.190997	-367.148302	-367.137543	-367.136599	-367.183905	39.439	
C	-0.828118998	 1.2818488318	 0.3390806316	-0.394395
C	 0.4848750095	 0.590813318	-0.0874705986	-0.190442
C	 1.4729684865	 1.5763632777	-0.5315462305	 0.335931
C	 2.2784015908	 2.3995332668	-0.8770027344	-0.467753
C	 1.0421743533	-0.2386658242	 1.0708773445	 0.003648
C	 0.6406911991	-1.6611994474	 1.3193024275	-0.01255
C	-0.3310958238	-2.4295495641	 0.446958789	-0.41808
N	 2.0067674505	-1.3220346047	 0.9114259279	-0.108073
C	 2.5130442747	-1.6896213395	-0.4027151197	-0.319457
H	-0.6591624152	 1.9226312726	 1.2096087749	 0.129054
H	-1.2188728936	 1.9052590508	-0.4690728904	 0.125825
H	-1.5816727044	 0.5340022785	 0.6022003616	 0.119338
H	 0.2600764069	-0.0617355516	-0.9373975197	 0.102396
H	 2.9938309851	 3.1192105111	-1.1896080154	 0.194651
H	 1.2480713822	 0.3875016015	 1.940224188	 0.090965
H	 0.5896214362	-1.9731256246	 2.3633478256	 0.086534
H	-0.3705862389	-2.0792618134	-0.5859776371	 0.120544
H	-0.0667497942	-3.4927026696	 0.4251622245	 0.124375
H	-1.342088008	-2.3535827452	 0.8613277186	 0.12397
H	 1.7749255461	-1.7056336646	-1.2174652783	 0.097089
H	 3.3011859989	-0.9845996702	-0.6817684139	 0.136363
H	 2.9574260563	-2.6880854597	-0.3376454658	 0.12007
