16
gdb 48076	2.82992	1.45067	1.09064	2.6784	70.98	-0.2431	-0.0846	0.1585	1096.5565	0.123164	-437.857627	-437.849399	-437.848455	-437.890999	29.782	
O	 1.8858846946	 1.7504695161	 1.8865759936	-0.225102
C	 1.2984105038	 1.2088195132	 0.9890155962	 0.092175
C	 0.9687054904	 1.8662841469	-0.3593318422	 0.197974
O	 0.8814810978	 1.1345318218	-1.3239912156	-0.296519
C	 0.8452087655	 3.3297128253	-0.4446229291	 0.252904
C	 0.8399818494	 4.1584660601	-1.7338451587	-0.308304
C	 1.6178422393	 5.2883319198	-0.9776250557	-0.240154
C	 1.5903823469	 4.4362935218	 0.2997490023	-0.077634
N	 0.2508185413	 4.0657571106	 0.6813171848	-0.341433
H	 1.0177947178	 0.1337914045	 1.0042478166	 0.107354
H	 1.4293166175	 3.7003154552	-2.529267312	 0.132989
H	-0.1501490761	 4.4053092951	-2.1288055928	 0.107392
H	 2.6245347796	 5.4334088001	-1.3740359567	 0.121373
H	 1.1288465567	 6.2639985177	-0.8938204377	 0.108701
H	 2.3717430263	 4.324757169	 1.0404029588	 0.131361
H	-0.456626971	 4.7210308627	 0.3513642781	 0.236922
