17
gdb 72759	3.18931	1.51061	1.22608	4.2426	79.17	-0.2277	-0.0318	0.196	1037.049	0.136588	-417.981156	-417.973467	-417.972523	-418.013088	30.256	
C	-0.0807423289	 1.6054876065	-0.1674056206	-0.431606
C	-0.0532416387	 0.0959169447	 0.0394502848	 0.322422
C	 0.8032544664	-0.645808049	-1.0685641222	-0.230963
N	 1.9336543234	-0.7924989664	-0.0692479502	-0.376308
C	 0.9630180401	-0.4875968594	 0.946844217	 0.223331
C	 0.3956908491	-1.0384729464	 2.0226796075	-0.286115
C	-1.0634800172	-0.8753009868	 1.8336402482	 0.381976
N	-1.9789784886	-1.242393695	 2.6244926374	-0.546913
O	-1.3031092239	-0.3389898473	 0.5594026493	-0.297707
H	 0.9025432572	 1.978469389	-0.4695063193	 0.113885
H	-0.8003307019	 1.8596475111	-0.9516469689	 0.135261
H	-0.3794029544	 2.1088606679	 0.7556155309	 0.137727
H	 0.4166411992	-1.6329823317	-1.3277531383	 0.13958
H	 1.0378591406	-0.0698912115	-1.967283875	 0.114905
H	 2.673284614	-0.1076488564	-0.1939106139	 0.245411
H	 0.8060126067	-1.6627841857	 2.8009131566	 0.132437
H	-2.8971174431	-1.1010022536	 2.2016194966	 0.222676
