15
gdb 50283	2.75163	1.24977	0.99427	3.433	67.91	-0.2566	-0.0571	0.1995	1164.9959	0.109672	-457.73068	-457.722372	-457.721428	-457.764531	29.271	
O	-0.0954610523	-0.0457643706	-0.4367855533	-0.249592
C	-0.0492180896	 1.1002085612	-0.0679105014	 0.156336
C	 1.217229214	 1.9184705106	-0.0135029132	-0.170946
C	 1.2413163526	 3.267386239	-0.8326092154	-0.274739
C	 1.4557078745	 4.024598464	 0.4809908993	-0.01117
O	 0.374583157	 3.7218695038	 1.342025875	-0.252183
C	 1.4260375405	 2.7595811983	 1.2734406551	 0.292539
C	 2.1868077362	 2.4133819747	 2.5000525123	 0.05365
O	 2.1877122405	 3.0741741693	 3.5060726852	-0.243481
H	-0.9601404026	 1.6446548996	 0.2605460071	 0.100905
H	 2.0744307901	 1.2834903057	-0.2463786324	 0.109126
H	 2.0913767281	 3.3080422562	-1.5151954301	 0.132384
H	 0.3269891694	 3.5357222809	-1.3673206351	 0.13212
H	 2.0076831082	 4.9360434592	 0.6785610714	 0.135734
H	 2.7888533534	 1.4832259481	 2.4017492556	 0.089318
