14
gdb 20435	4.93449	2.20728	1.56082	2.7211	62.94	-0.2143	0.0326	0.2469	766.294	0.11118	-378.732373	-378.726454	-378.72551	-378.762577	22.269	
C	 0.0747530143	 1.378865421	-0.1720215397	-0.104799
C	 1.5214221944	 1.8183292976	 0.1949455533	-0.193647
N	 2.0649624914	 0.5231906518	 0.5322507098	 0.011557
N	 3.2968713106	 0.0947981568	 0.9003515123	-0.306077
C	 3.0653640696	-1.1613407402	 1.2821555541	 0.022508
C	 1.6984582575	-1.546609099	 1.1908983983	-0.402238
C	 1.1044405558	-0.4030087597	 0.7106470845	 0.488291
O	-0.1282573999	 0.0670537935	 0.4204415827	-0.280183
H	-0.6933346567	 2.0464825135	 0.2197060729	 0.13595
H	-0.0436214358	 1.2845251103	-1.2563172772	 0.132088
H	 2.0390974385	 2.2812097411	-0.6483930331	 0.139872
H	 1.555534446	 2.5023760636	 1.0510325274	 0.133533
H	 3.89363652	-1.7731180547	 1.6106249092	 0.111272
H	 1.2453514542	-2.4921331356	 1.4310957955	 0.111873
