16
gdb 48129	3.9416	1.08004	0.86471	3.6418	75.42	-0.2422	-0.0722	0.1701	1269.6064	0.125019	-434.075602	-434.06727	-434.066325	-434.109661	29.228	
N	-0.0828197881	 1.3354428951	-0.0592991349	-0.490192
C	 0.0307446299	 0.0654448187	-0.0045451919	 0.286311
C	-1.2487521933	-0.7441770155	 0.146514331	 0.113711
O	-2.3058651748	-0.395279005	-0.2976134177	-0.206953
N	 1.2080007719	-0.6643773666	 0.0197193925	-0.12757
C	 2.5420102528	-0.0480536501	 0.0225081462	-0.212257
C	 3.4624632564	-1.2992886457	-0.0160556525	-0.176537
N	 2.5841182405	-2.4596329144	-0.2502982882	-0.255812
C	 1.3883736386	-2.031868694	-0.2080251272	 0.076266
H	 0.8233418154	 1.8011086602	-0.1234772507	 0.224516
H	-1.1456778129	-1.6802360865	 0.7373515816	 0.094844
H	 2.6660310247	 0.5922387757	-0.8595811405	 0.129691
H	 2.6781880806	 0.5689386119	 0.915508783	 0.134351
H	 4.2150185046	-1.2368002256	-0.8062909256	 0.130437
H	 3.9965375688	-1.4420337275	 0.9295267132	 0.129621
H	 0.5225760548	-2.6690302607	-0.3459931282	 0.149572
