19
gdb 70056	3.00013	1.63787	1.30519	1.3325	81.15	-0.2286	0.0004	0.2291	1027.5829	0.160243	-385.841941	-385.834415	-385.833471	-385.873496	30.351	
C	-0.0113298425	 1.5649632252	 0.1149146182	-0.495649
C	 0.0863149239	 0.0600538046	 0.0141154455	 0.321811
C	-0.8234893607	-0.8022332435	 0.8468621945	-0.318987
C	 0.6648532552	-0.8051518559	 1.1567875381	-0.107984
C	 1.3548248635	-1.9731340574	 0.5168259225	-0.19543
C	 1.3720975284	-1.7988463928	-0.8047921581	 0.133767
C	 0.9002038692	-2.465711032	-2.0750059669	-0.14437
O	-0.0787580684	-1.3882579289	-2.203145418	-0.308886
C	 0.6772732508	-0.5473632205	-1.2457891343	 0.04327
H	 0.9324864128	 2.045290678	-0.1674472551	 0.118332
H	-0.7935001314	 1.952876465	-0.5478758359	 0.125933
H	-0.2542854186	 1.8833307807	 1.1332792212	 0.11482
H	-1.4763019687	-0.277115709	 1.5370617579	 0.110684
H	-1.2539895751	-1.6917341195	 0.3997222595	 0.122393
H	 1.0073460569	-0.3563949745	 2.0833912636	 0.087207
H	 1.5657243166	-2.8914362348	 1.0537590155	 0.101557
H	 1.6045117656	-2.4587478889	-2.917466259	 0.104522
H	 0.4324347036	-3.4516290973	-1.9896632328	 0.116933
H	 1.2561433089	 0.1922770516	-1.8161261065	 0.070078
