17
gdb 78373	4.12385	1.22851	1.13787	2.4107	75.17	-0.2254	0.0018	0.2272	1094.7433	0.136452	-421.754085	-421.746821	-421.745877	-421.785641	28.881	
O	 0.1560988974	 1.1200549626	 0.174588516	-0.433545
C	-0.0455002227	-0.2456392201	-0.0219722498	 0.11263
C	-1.4885501574	-0.6059330413	-0.093258737	-0.128069
C	-0.6053193118	-0.6676057398	-1.3805923008	-0.230278
C	-0.678945763	-2.166430425	-1.3129630557	 0.233973
C	-0.0202360777	-3.3172184938	-1.2451664031	-0.258054
C	-0.6553092036	-4.1090127187	-0.0982413003	-0.109695
O	-1.4180564642	-3.1486155993	 0.6631658091	-0.283362
C	-1.7388726872	-2.1229225118	-0.2578460168	 0.096685
H	 1.0225435267	 1.3471702806	-0.1784971718	 0.290975
H	 0.6660600212	-0.9038100025	 0.4773458186	 0.09962
H	-2.2403971209	 0.1287161472	 0.1664491801	 0.099984
H	-0.5838995758	-0.0000777803	-2.2311669214	 0.104274
H	 0.8612342175	-3.6514115938	-1.7770882667	 0.104947
H	-1.3115139906	-4.9237670695	-0.4477177505	 0.101731
H	 0.0994871413	-4.5516053851	 0.5625725162	 0.115059
H	-2.7576055893	-2.2549180095	-0.658777366	 0.083124
