21
gdb 83886	2.0455	1.81922	1.29945	3.0279	76.99	-0.2452	0.0578	0.3029	1074.2424	0.184831	-424.222621	-424.214241	-424.213297	-424.255111	33.635	
O	-0.084955936	 1.3764569662	-0.2377927158	-0.417146
C	-0.0482370915	-0.017087493	-0.0696840466	 0.067314
C	-0.4609971206	-0.6428095395	 1.246877621	-0.093116
C	-0.8613693278	 0.2268760417	 2.4357852626	-0.212198
C	-2.3694649325	 0.5146019561	 2.4754265066	-0.202247
C	-2.8413470045	 1.0941471899	 1.1384643178	-0.217693
C	-2.6727037261	 0.0903325066	-0.0171979032	 0.1354
O	-2.8491337972	 0.714806274	-1.2840193628	-0.450492
C	-1.3731987544	-0.7087059527	 0.026188742	-0.092324
H	 0.6828922712	 1.7622138825	 0.1972426413	 0.293333
H	 0.7400810771	-0.5090422561	-0.6380512803	 0.086631
H	 0.061039354	-1.5611109208	 1.4989715775	 0.084581
H	-0.5474934245	-0.2682895431	 3.3597687777	 0.096173
H	-0.3234504359	 1.1840089204	 2.401849987	 0.083359
H	-2.9132843759	-0.4154029825	 2.6903544575	 0.094078
H	-2.5972471632	 1.207039538	 3.2936075574	 0.090286
H	-3.8944336436	 1.3897810784	 1.1845916236	 0.094219
H	-2.2632913819	 1.9960667306	 0.910399085	 0.099516
H	-3.4936000373	-0.6342058392	 0.0505617302	 0.08244
H	-2.0985176195	 1.3113077111	-1.3936872061	 0.288739
H	-1.4345262799	-1.6607810687	-0.4921112725	 0.089148
