19
gdb 79737	2.51494	1.75403	1.40134	3.103	73.66	-0.2303	0.0693	0.2996	1000.416	0.159823	-423.001702	-422.993993	-422.993048	-423.033365	31.33	
C	-0.0579356097	 1.5019819086	 0.0307381956	-0.479927
C	 0.0222583227	-0.007358111	 0.0243020009	 0.262181
C	-1.2659796307	-0.7850574777	-0.3057442645	-0.329139
C	-1.3109996922	-1.9886476015	 0.6258058061	 0.039258
O	-0.2774904757	-2.9696841095	 0.4097209889	-0.279505
C	-0.1039965855	-1.9877483543	 1.4681329798	 0.036853
C	 0.7576485347	-0.8022717257	 1.1251668468	-0.190066
C	 1.3351348236	-0.683461389	-0.2800778129	 0.093536
O	 1.5068963044	-1.7401760635	-1.1601620264	-0.43359
H	 0.9030928632	 1.9462906564	 0.3089942626	 0.117397
H	-0.3236851735	 1.8888042673	-0.9603068634	 0.123431
H	-0.8100687909	 1.8636227365	 0.7426698389	 0.112214
H	-2.1398613634	-0.1529081188	-0.1142268881	 0.108628
H	-1.308096174	-1.0916019323	-1.3574698706	 0.126571
H	-2.2633501959	-2.4138613969	 0.9318396333	 0.104096
H	-0.0701320148	-2.416070793	 2.4650390444	 0.107678
H	 1.2659795455	-0.3095940565	 1.9473087045	 0.082744
H	 2.176993451	 0.0014472323	-0.3586594354	 0.096941
H	 0.9290646414	-2.4564995215	-0.8535119905	 0.300698
