16
gdb 77146	2.61229	1.42955	1.10073	1.1619	66.5	-0.2469	0.0055	0.2525	1095.8212	0.125047	-471.222968	-471.214377	-471.213433	-471.256589	32.049	
N	-0.0886854834	 1.2810443715	 0.2333565038	-0.520278
C	 0.0085458266	-0.0180328065	-0.1603986162	 0.394159
O	 0.9966818712	-0.5120750938	-0.6713583007	-0.371373
C	-1.2728175233	-0.843109769	-0.0086259087	-0.137959
N	-0.9810082277	-2.2723350912	 0.2234494101	-0.318023
C	-1.3023867241	-2.1895986116	 1.5772836754	 0.334323
N	-1.0615885691	-2.8110010242	 2.6505350886	-0.5503
C	-2.0060591968	-0.848978301	 1.3837804576	 0.04927
O	-1.716962983	 0.1511494755	 2.3253655499	-0.431616
H	 0.7658392639	 1.8178245928	 0.2039391663	 0.259601
H	-0.7482105625	 1.4948602049	 0.9696990868	 0.27591
H	-1.9129015839	-0.6554445241	-0.8773238735	 0.114852
H	-0.1200512682	-2.6723319828	-0.1338049987	 0.255124
H	-0.4580077856	-3.622095195	 2.5084550438	 0.223103
H	-3.0903091891	-0.9352190679	 1.2604024071	 0.1163
H	-1.202897955	-0.2686601776	 3.0278051784	 0.306906
