16
gdb 128905	6.72651	0.70209	0.66747	4.3186	75.39	-0.2523	0.0086	0.2608	1589.1474	0.126784	-396.968143	-396.959953	-396.959009	-397.002406	29.115	
N	-0.0067301711	-1.2156525448	 0.0258645169	-0.30368
C	-0.024640131	-0.0603863938	 0.0513179298	 0.253533
C	-0.0164148891	 1.4006152745	 0.0771134212	-0.324495
C	 1.4115232037	 1.9894012382	-0.0660955424	-0.33308
C	 1.4087555645	 3.4877145991	-0.0376560688	 0.208026
C	 1.4643299703	 4.3585014542	-1.1098812942	-0.12908
N	 1.4087302897	 5.610141808	-0.5956538953	-0.173063
N	 1.3218688201	 5.6288188271	 0.7465899054	-0.21726
C	 1.3196447387	 4.3443479845	 1.0874045667	-0.081098
H	-0.6552326443	 1.7722859761	-0.7312271997	 0.154085
H	-0.469185751	 1.7400231265	 1.0148980225	 0.157648
H	 2.0340202499	 1.5928173972	 0.7424910674	 0.132912
H	 1.8483449406	 1.626989913	-1.0014181352	 0.126633
H	 1.5461626061	 4.1813699955	-2.1711410417	 0.137727
H	 1.4407767171	 6.4835350628	-1.0937179658	 0.278758
H	 1.2627535158	 4.0694711619	 2.1313764634	 0.112435
