12
gdb 48219	1.74522	1.4394	1.43903	0.4838	60.76	-0.2959	-0.0815	0.2143	1033.9171	0.072424	-472.634269	-472.624887	-472.623943	-472.669699	30.225	
O	-0.396562111	 0.0448319371	 0.1582172141	-0.213663
C	-0.2221052286	 1.2276681113	 0.1197709585	 0.16232
C	 1.2001400594	 1.8456624355	 0.0241518592	-0.207166
C	 2.2536047058	 0.7075209771	 0.1189283021	 0.162245
O	 2.9630654773	 0.4240226098	-0.8015453219	-0.213578
C	 1.3499009519	 2.5606855545	-1.3469331846	 0.162259
O	 0.4961480211	 2.5097356093	-2.183333018	-0.213651
C	 1.4008805967	 2.799744016	 1.1069927703	 0.235758
N	 1.5602378758	 3.5569887104	 1.9667658767	-0.29645
H	-1.0418549784	 1.9683509689	 0.1465026163	 0.140657
H	 2.2844944626	 0.1930000907	 1.096497106	 0.140661
H	 2.3009833575	 3.1085343895	-1.4759232487	 0.140609
