16
gdb 49289	3.23424	1.36068	1.0343	6.5131	76.23	-0.2153	-0.0284	0.1869	1116.6892	0.125864	-437.894719	-437.887109	-437.886165	-437.927	28.6	
O	-0.1068920281	-0.0539596569	-0.4224400427	-0.31428
C	-0.0197268272	 1.1478849464	-0.2550797884	 0.077903
C	 1.1970667219	 1.8621010963	 0.0672364388	 0.156114
C	 1.1802745791	 3.2145552797	 0.2170515607	-0.025345
N	 2.268481367	 3.9608033425	 0.4999940064	-0.307195
C	 3.6365286217	 3.452083964	 0.4455686116	-0.192531
C	 3.6946269726	 1.9375218768	 0.4674698538	 0.040434
O	 3.0956767183	 1.2916695523	 1.5771676867	-0.261079
C	 2.4732770229	 1.1471923667	 0.2645509505	-0.069408
H	-0.916373361	 1.8051462534	-0.3600952217	 0.042978
H	 0.2487447734	 3.7678520467	 0.1296463161	 0.128324
H	 2.1589479647	 4.9595017928	 0.5495793789	 0.258808
H	 4.1345781461	 3.7960825023	-0.4733585464	 0.119972
H	 4.2010635391	 3.8573947176	 1.2946358324	 0.129504
H	 4.6595552222	 1.5359155552	 0.1543033469	 0.099072
H	 2.5334714675	 0.1424754642	-0.1424385036	 0.116727
