19
gdb 111153	4.15357	1.03133	0.95546	3.174	76.35	-0.2443	0.0737	0.3181	1298.0932	0.157719	-422.923678	-422.915405	-422.914461	-422.956618	31.796	
C	-0.2019429174	 1.5255640206	 0.0138972594	-0.380079
C	 0.1326946948	 0.0336103322	-0.0959860789	-0.220659
C	 0.8246471757	-0.5036618913	 1.1458271352	 0.036438
C	-0.038668952	-0.8409618965	 2.4022879661	-0.090064
O	-0.5996043295	-2.0065114687	 1.6711496556	-0.312044
C	 0.8578955878	-2.0439639744	 1.3783966904	-0.105229
C	 1.0981993278	-1.7613372943	 2.8680664729	 0.573381
C	 2.2140403589	-1.7252213817	 3.8009175734	-0.309505
O	 1.107861458	-2.6573506258	 3.9299875427	-0.281504
H	 0.6981122135	 2.12739638	 0.1833478825	 0.112287
H	-0.6771730417	 1.8897883751	-0.9018447761	 0.117015
H	-0.8904648351	 1.7184391481	 0.8436266531	 0.117707
H	-0.7764524505	-0.5480278898	-0.2709363225	 0.122169
H	 0.788995977	-0.1297714203	-0.9605017732	 0.095445
H	 1.7645674639	 0.0192052889	 1.3592674291	 0.071614
H	-0.7283575638	-0.2219831371	 2.9749491216	 0.10265
H	 1.2263497734	-2.8446540974	 0.7378161048	 0.101989
H	 3.1674150747	-2.1779884769	 3.5340545781	 0.124166
H	 2.2608656445	-0.9583309109	 4.572181406	 0.12422
