23
gdb 116464	1.94816	1.62817	1.06186	1.3812	82.25	-0.2363	0.0775	0.3138	1248.9988	0.206054	-425.428793	-425.419243	-425.418299	-425.4633	35.796	
C	-0.0072406161	 1.4094750746	-0.152181391	-0.235262
O	-0.017155583	 0.0361040165	 0.1546775652	-0.241819
C	-1.2851266002	-0.5937492024	 0.0678303353	 0.123638
C	-1.743071589	-0.7961959317	-1.3856513579	-0.101512
O	-0.8878876024	-1.6563049663	-2.1082943898	-0.238738
C	-0.8014630863	-2.9460448939	-1.5243233125	-0.078851
C	-0.2851370106	-2.886666877	-0.0858784683	-0.198634
C	-1.169581773	-1.9604496095	 0.7667825737	 0.005107
C	-0.6795840513	-1.8399421979	 2.2112750543	-0.407086
H	 0.9927763906	 1.7832696653	 0.0821545216	 0.127047
H	-0.209743049	 1.6106057821	-1.2138549661	 0.111428
H	-0.7428836423	 1.9655120541	 0.4508467432	 0.100666
H	-2.0402865966	 0.0250765454	 0.5851648381	 0.05201
H	-2.7763588711	-1.1882654654	-1.3708531987	 0.079572
H	-1.7589008844	 0.1504715016	-1.9333139327	 0.103682
H	-1.7931386633	-3.4335492016	-1.5464632776	 0.078404
H	-0.1303446929	-3.5242630597	-2.1661235712	 0.10457
H	-0.2658170777	-3.8964013668	 0.3413474136	 0.087373
H	 0.742109299	-2.5067537395	-0.0876569575	 0.118665
H	-2.1857107041	-2.3815995533	 0.77773383	 0.06662
H	 0.3179643353	-1.3954107836	 2.2446966726	 0.132957
H	-1.3491471199	-1.207146501	 2.8045299394	 0.104342
H	-0.6365440917	-2.8239537298	 2.6897825964	 0.105821
