21
gdb 58452	3.00635	1.02256	0.98396	3.4566	78.66	-0.2393	-0.0178	0.2215	1318.6097	0.179035	-424.239884	-424.229814	-424.228869	-424.27509	37.832	
C	 0.1224306149	 1.4544485835	-0.1697516281	-0.423426
C	-0.0740148951	-0.0473046735	 0.0446482676	 0.076822
O	 0.6770042392	-0.5121361646	 1.1636933102	-0.437008
C	-1.5448400927	-0.4904561926	 0.1416605248	 0.340626
C	-2.3069538735	 0.1733744897	 1.2902337518	-0.474883
C	-2.3249598667	-0.4269982411	-1.2184949228	-0.404805
C	-2.6538370814	-1.9180908086	-1.0449938606	 0.40942
O	-3.4068135888	-2.6662449974	-1.5977321787	-0.292061
C	-1.7090051183	-2.0503266477	 0.1542027803	-0.392012
H	 1.1850129593	 1.6735878456	-0.3036116688	 0.128999
H	-0.4176297355	 1.8095681069	-1.05293151	 0.12363
H	-0.2344408754	 2.0300891602	 0.6920641971	 0.112988
H	 0.365329637	-0.5779515136	-0.8105862021	 0.08216
H	 0.4793305223	 0.0595230177	 1.912930754	 0.280258
H	-2.3849908032	 1.2573474571	 1.1601512931	 0.120873
H	-3.326333221	-0.2211314802	 1.3570810399	 0.124138
H	-1.8230273865	-0.025480616	 2.2530934548	 0.112793
H	-3.182304771	 0.2489870009	-1.2816857325	 0.124636
H	-1.6828031815	-0.2536696445	-2.0899666665	 0.12587
H	-0.7883653665	-2.5883643821	-0.0946777676	 0.136319
H	-2.1376726655	-2.5061991999	 1.0508689039	 0.124664
