16
gdb 70782	3.95119	1.33294	1.13075	0.9838	76.62	-0.2351	0.0315	0.2666	1058.5944	0.123413	-400.619061	-400.611453	-400.610509	-400.650761	30.532	
O	 0.129974018	 1.3161781823	 0.1257410645	-0.470172
C	 0.1049128634	-0.0510031229	 0.0846716155	 0.41078
C	 0.7829199985	-0.9815772687	 1.089684845	-0.357666
C	 0.1071203143	-1.9547097962	 0.0826308022	 0.267867
C	 0.0978921448	-3.3808752204	 0.06493508	 0.07027
C	 0.082994943	-4.5844165107	 0.0393555039	-0.372514
C	-1.1347935208	-0.995429127	-0.1131395609	-0.144731
N	-1.0286028598	-0.8992552029	-1.6022691123	-0.360075
C	 0.3910870819	-0.9925582409	-1.1398762263	-0.144733
H	-0.3788822441	 1.6380309696	-0.6296291387	 0.297487
H	 1.8759246967	-0.9827835465	 1.0994291048	 0.110924
H	 0.3802416749	-0.9855975026	 2.1058490128	 0.110925
H	 0.0724305165	-5.6459863334	 0.020422748	 0.180991
H	-2.0796356644	-1.0193495657	 0.4311568339	 0.090846
H	-1.3220953365	-1.7758273194	-2.0408928456	 0.218956
H	 1.2512542637	-1.0130835146	-1.8101363569	 0.090846
