13
gdb 19642	6.01501	1.79887	1.70287	4.2732	62.13	-0.2313	-0.0418	0.1895	752.2059	0.094605	-361.337156	-361.331047	-361.330103	-361.367593	22.926	
O	-0.037001439	 0.1404740883	-0.6047523022	-0.254704
C	 0.1387287983	 1.0213674789	 0.2024611133	 0.018967
C	 1.2756326839	 1.9531437674	 0.151760461	 0.278805
C	 1.8048441936	 3.1265036197	 1.01159629	-0.18929
C	 2.5419116642	 3.6759119806	-0.2185954896	-0.108724
C	 3.1982692409	 2.665533197	 0.6855075109	-0.00334
N	 2.7007869548	 1.4906533835	-0.1630285464	-0.187403
C	 2.0250168224	 2.4737177131	-1.0450702962	-0.082032
H	-0.5725976153	 1.1980740636	 1.0402624246	 0.074717
H	 1.4131792309	 3.653284594	 1.8696129943	 0.109009
H	 2.803417309	 4.6944682968	-0.4639987674	 0.109434
H	 4.1227877368	 2.6641970014	 1.2471009107	 0.113962
H	 1.8356945594	 2.2843380357	-2.0945796429	 0.120599
