23
gdb 80483	2.03071	1.64493	1.44722	1.3959	83.99	-0.2469	0.0662	0.3131	1104.8834	0.206821	-388.288209	-388.279082	-388.278138	-388.321367	36.162	
C	 0.4803533388	 1.7076421298	 0.1349171051	-0.40324
C	-0.0012552161	 0.253638464	 0.2185823931	 0.01968
C	 0.1395717856	-0.5058968839	-1.139386034	-0.236888
C	 1.0800406708	-1.6862201964	-0.9254305551	-0.111743
C	 2.4916620727	-1.3864908038	-0.4811690909	 0.091268
O	 3.0217572543	-0.0892648392	-0.5211693571	-0.408587
C	 1.456068379	-1.7399180735	 0.5449061183	-0.08519
C	 0.6966487216	-0.6504406184	 1.3009812104	 0.014363
C	 1.544436163	 0.0730025307	 2.3556354838	-0.402936
H	 1.5371596525	 1.7628422622	-0.1329336924	 0.13025
H	-0.0962579222	 2.2467939311	-0.6250507297	 0.099165
H	 0.3384773275	 2.2346016519	 1.0834796902	 0.105835
H	-1.0662577958	 0.2965741848	 0.4733365891	 0.068494
H	-0.8309676856	-0.8825397178	-1.4780554056	 0.095891
H	 0.4994107034	 0.168190901	-1.9267037642	 0.083483
H	 0.911323864	-2.5874119896	-1.5063185328	 0.077047
H	 3.2291331892	-2.1639788462	-0.6835880028	 0.081582
H	 3.174045078	 0.1403186763	-1.4441408612	 0.287592
H	 1.5877392067	-2.6880712516	 1.0576136065	 0.07888
H	-0.1040091816	-1.1749642573	 1.8387963217	 0.068
H	 2.3873883154	 0.5966481649	 1.9002608619	 0.140177
H	 0.9487600599	 0.7970015364	 2.9214612388	 0.104671
H	 1.9479130688	-0.6490710554	 3.0738691268	 0.102207
