18
gdb 71818	3.37935	1.61256	1.49848	1.8369	73.89	-0.2272	0.0744	0.3016	934.7093	0.150043	-401.881045	-401.874371	-401.873427	-401.911596	28.657	
O	-0.112026804	 1.4008714718	-0.0500757266	-0.465689
C	 0.0143918785	 0.0228516226	-0.0628027719	 0.390472
C	 0.7273176178	-0.7706489913	-1.1560737195	-0.294393
C	-0.1959190356	-1.9794386691	-0.7856850135	-0.069859
C	 0.4510376131	-2.8713284348	 0.2883966448	-0.039075
N	 1.7329259659	-2.3537547808	 0.8376745554	-0.340042
C	 0.456616512	-2.0817250725	 1.5397027808	-0.043449
C	-0.2472633608	-0.7824551567	 1.2215871381	-0.12467
C	-1.1168735656	-0.9676737275	-0.0072628427	-0.139955
H	 0.6877779108	 1.7703820975	 0.3407798486	 0.284667
H	 0.4415570243	-0.3623623439	-2.1298544511	 0.094735
H	 1.8057108152	-0.9176210912	-1.0978985147	 0.113521
H	-0.6256825614	-2.5295593986	-1.620940472	 0.069418
H	 0.2842839819	-3.9433250732	 0.2741918455	 0.082762
H	 2.2139143379	-3.1143026039	 1.315147943	 0.224826
H	 0.2911450867	-2.5306627785	 2.5146442033	 0.08172
H	-0.630399516	-0.1704165529	 2.0300773244	 0.0847
H	-2.1888748409	-0.833857727	-0.0737611219	 0.090312
