16
gdb 44165	3.05439	1.16865	0.99222	3.6998	74.35	-0.2476	0.0028	0.2504	1196.441	0.123546	-400.701813	-400.693671	-400.692727	-400.735212	30.722	
O	 0.2868497247	 0.0779254184	 0.3450956497	-0.335397
C	 0.1805030299	 1.2541367017	 0.1514739109	 0.413678
N	-0.952589759	 2.0845554016	 0.0337883074	-0.340603
C	-0.1362253419	 3.2933313138	-0.0987921221	-0.044537
C	 0.8262886761	 3.4806795929	 1.0344820609	-0.008718
C	 0.5294624795	 3.1568405297	 2.4935003378	-0.395051
C	 1.7449009726	 2.9577147164	 3.2753851642	 0.313419
C	 2.7595183448	 2.8087586193	 3.901183363	-0.445061
C	 1.1238403336	 2.4360880091	-0.0454364164	-0.2293
H	-1.7708338504	 2.0035813581	 0.6268097951	 0.24394
H	-0.4003264186	 4.0547310116	-0.8211064267	 0.116706
H	 1.4588858981	 4.3586574472	 0.9156329458	 0.114209
H	-0.0527504816	 3.9808458593	 2.9272632768	 0.134518
H	-0.1016529565	 2.26389037	 2.5639416865	 0.14165
H	 3.649676058	 2.663880481	 4.4615535108	 0.200046
H	 2.0143877706	 2.4682148997	-0.6561229037	 0.120503
