17
gdb 49558	2.67059	1.64654	1.53113	2.1181	67.53	-0.2458	-0.0242	0.2216	938.4269	0.136526	-458.941467	-458.934089	-458.933145	-458.973461	28.102	
O	-0.3247561482	 0.3879050793	 0.7123357139	-0.262076
C	-0.0167634459	 1.1288762364	-0.1876928146	 0.146236
C	 1.2111020716	 2.0034708816	-0.1468925119	-0.110328
C	 1.2523436747	 3.4153239146	-0.7870419855	 0.042001
C	-0.0815269038	 4.124609014	-0.5793012554	-0.082467
O	-0.6909672674	 3.6477102988	 0.6184397808	-0.267539
C	 0.2285729756	 3.4051147329	 1.6863785302	-0.085285
C	 1.5230303312	 2.824477936	 1.1273049012	 0.064429
O	 2.1304836957	 3.8520579116	 0.2892693456	-0.29979
H	-0.6134479527	 1.1754928764	-1.1267052057	 0.078713
H	 2.0850267363	 1.4224600996	-0.4559900628	 0.122737
H	 1.6883728605	 3.5682736052	-1.7771818099	 0.088742
H	 0.1023826216	 5.2079280108	-0.5316931284	 0.112041
H	-0.7940459693	 3.9210181037	-1.3856916848	 0.113541
H	 0.4605003174	 4.3348287572	 2.2249860937	 0.110091
H	-0.2713618642	 2.7044965444	 2.3604711644	 0.134021
H	 2.2024324768	 2.4387088077	 1.8894095892	 0.094933
