17
gdb 102905	3.32845	0.74061	0.63067	2.8261	73.49	-0.298	0.0036	0.3016	1676.0834	0.135094	-418.034142	-418.024257	-418.023313	-418.070066	33.893	
O	 0.1212577802	 1.4228367701	 0.0013326031	-0.41183
C	 0.0682468011	 0.0185835244	-0.0231340454	-0.074817
C	-1.3849265923	-0.5229645285	-0.0229768248	-0.163062
C	-1.421191595	-2.0598479734	-0.1329497774	-0.201952
C	-2.854894936	-2.6226180442	-0.1898982579	-0.355683
C	-2.864087218	-4.0760240668	-0.3360701666	 0.261811
N	-2.8483207461	-5.2250760136	-0.4547586479	-0.295049
C	-2.0712560722	-0.0503967999	 1.1832140899	 0.266125
N	-2.5775974161	 0.3330553374	 2.149580337	-0.325051
H	-0.1744560256	 1.7255481681	 0.8675079781	 0.30184
H	 0.5481949296	-0.2960338995	-0.954793997	 0.127888
H	 0.6219286636	-0.4357237523	 0.811690191	 0.113266
H	-1.8976245151	-0.0785591099	-0.8853566964	 0.140436
H	-0.8792552166	-2.3503902303	-1.0382135366	 0.136152
H	-0.8909883923	-2.5033916944	 0.7155880869	 0.142694
H	-3.4042028723	-2.3559081769	 0.719950797	 0.179041
H	-3.4040441969	-2.1842562703	-1.0314909928	 0.158191
