17
gdb 5533	3.14446	1.9142	1.23558	1.4538	72.73	-0.1756	0.0403	0.2159	988.3871	0.142295	-363.887451	-363.879094	-363.87815	-363.92074	29.916	
C	-0.1553484187	 1.4035202557	 0.1935260046	-0.33005
N	 0.43630827	 0.1062203681	-0.1308095343	-0.386916
C	 0.8265408556	-0.7149109084	 0.9151012951	 0.328797
C	 0.7343628904	-2.0637883597	 1.1258225325	 0.155425
C	 0.0563707526	-3.0788062221	 0.2582658291	-0.515316
C	 1.4382214864	-2.294611273	 2.3619827571	-0.253975
C	 1.8754080891	-1.0927897967	 2.8034336633	-0.032136
O	 1.5107492195	-0.1085214825	 1.9191807349	-0.180016
H	 0.5596417744	 1.9896015812	 0.7738348933	 0.151057
H	-0.3579782109	 1.938460616	-0.7373580649	 0.122753
H	-1.0892176815	 1.3304339041	 0.7718108239	 0.111685
H	-0.1002374665	-0.4101048396	-0.8135556191	 0.238612
H	 0.7596317638	-3.6244091589	-0.3839861726	 0.127833
H	-0.4729902574	-3.8248818414	 0.8607381022	 0.127222
H	-0.687392003	-2.6150622027	-0.4003195547	 0.106949
H	 1.5772507004	-3.2460410101	 2.8533443229	 0.101597
H	 2.4132837157	-0.7577022598	 3.6733917568	 0.126476
