21
gdb 122836	7.30496	0.52501	0.4974	2.3737	77.84	-0.2604	0.0174	0.2778	2249.6795	0.179079	-461.386744	-461.375503	-461.374559	-461.425192	37.308	
C	-0.0573318468	 1.5323008737	 0.0109898776	-0.384007
C	-0.0523767737	 0.0018271203	 0.0028779104	-0.183465
C	-1.457302037	-0.5825678631	 0.0128308908	-0.026546
O	-1.3605452741	-1.9936738132	 0.0044545138	-0.227699
C	-2.6031998085	-2.625831309	 0.0127041017	-0.175207
C	-2.4051028441	-4.1330946597	 0.002672035	 0.410561
O	-1.3569558001	-4.7162770349	-0.0117998295	-0.334519
O	-3.6146620927	-4.7333537104	 0.0125036992	-0.234386
C	-3.5849526502	-6.1658676346	 0.0041495747	-0.238394
H	 0.9625474733	 1.9270000452	 0.0035761105	 0.11939
H	-0.5751658138	 1.9358954831	-0.8662314472	 0.116125
H	-0.55870691	 1.9265823921	 0.9019011335	 0.116123
H	 0.4731888802	-0.3737691049	-0.8821911415	 0.111887
H	 0.4894818749	-0.3830235931	 0.8740360365	 0.111874
H	-2.010338672	-0.2431956478	 0.9065035378	 0.08453
H	-2.0268046447	-0.2338045952	-0.8667746076	 0.084531
H	-3.2001253687	-2.3625417549	 0.9027687957	 0.116367
H	-3.2165725548	-2.3531223936	-0.8632618783	 0.116369
H	-3.0612719105	-6.5461130319	 0.8849640975	 0.141758
H	-4.6271136854	-6.4851866459	 0.0125591817	 0.132916
H	-3.0785842914	-6.5361414323	-0.8909081925	 0.141792
