19
gdb 113097	2.31351	1.27697	0.9139	2.6286	73.28	-0.2416	-0.0003	0.2413	1288.067	0.158816	-460.15469	-460.145598	-460.144654	-460.189207	33.537	
O	-0.0412657698	 1.3216913278	-0.5172558597	-0.419213
C	-0.0442975042	-0.071642159	-0.2867014816	-0.057006
C	-1.436762199	-0.5650961758	 0.1157025849	 0.052416
O	-2.363430652	-0.241384888	-0.9375355178	-0.315992
C	-3.0266937522	-1.4272951914	-1.413468877	 0.052416
C	-2.7815686397	-1.5560280207	-2.919365573	-0.057006
O	-3.2624092993	-0.4250917991	-3.6152952391	-0.419213
C	-2.4521952547	-2.5368875797	-0.5794007998	-0.107106
C	-1.5607210898	-2.053452675	 0.278005618	-0.107106
H	-0.7604167583	 1.4913368459	-1.1366595591	 0.286164
H	 0.2896583658	-0.6353098122	-1.172695882	 0.086994
H	 0.6673782338	-0.2621314993	 0.5243991293	 0.106475
H	-1.7412814146	-0.0183310209	 1.0220357952	 0.094033
H	-4.1096185617	-1.3026495859	-1.2557934293	 0.094033
H	-1.7051062404	-1.7170400066	-3.0912310818	 0.086994
H	-3.3212774851	-2.4251307917	-3.311828832	 0.106475
H	-2.8794183555	 0.3422342115	-3.1746737545	 0.286164
H	-2.7512488984	-3.5713913227	-0.6916166997	 0.115239
H	-0.9873695949	-2.6148627572	 1.0048551789	 0.115239
