19
gdb 35760	3.00372	1.46639	1.29539	4.6134	78.04	-0.2283	0.0255	0.2538	1041.1827	0.162881	-382.05589	-382.048484	-382.04754	-382.087817	29.396	
N	-0.1290744942	-1.1870777333	-0.399857622	-0.3306
C	-0.0611826819	-0.0509856537	-0.1994585589	 0.285854
C	-0.0071776783	 1.390210183	 0.0824579261	-0.1169
C	-0.7357838771	 1.7429971293	 1.4296150687	-0.241685
C	 0.2522522038	 1.967556434	 2.6035462239	-0.206292
C	 1.637961168	 2.3764976749	 2.0794992983	-0.016942
C	 1.4976734284	 3.1640126361	 0.7535837578	-0.187562
N	 1.3994009397	 1.8482328154	 0.0153925244	-0.116893
C	 2.1639819848	 1.2466115509	 1.1704855141	-0.181889
H	-0.5429890089	 1.8854148793	-0.7362991593	 0.129339
H	-1.2982464679	 2.664069874	 1.2569754954	 0.116774
H	-1.4743964516	 0.9763393586	 1.6731244629	 0.128046
H	-0.1545541366	 2.7383946905	 3.2668693042	 0.103391
H	 0.3563980726	 1.058023996	 3.2058783555	 0.112944
H	 2.2830544828	 2.7686419746	 2.8698732896	 0.06884
H	 0.6562456335	 3.8496537052	 0.6186909141	 0.103933
H	 2.4194897144	 3.668729842	 0.452444773	 0.11535
H	 3.2348587523	 1.3086975988	 0.9580469995	 0.111476
H	 1.9040362862	 0.2131200246	 1.4159544426	 0.122816
