20
gdb 80451	2.43382	1.54083	1.25127	0.9858	79.83	-0.2312	0.0254	0.2566	1129.2853	0.169801	-403.168611	-403.159401	-403.158457	-403.202184	34.411	
C	-0.1039307879	 1.5617674635	 0.1005458498	-0.41474
C	 0.0628826196	 0.0604814801	 0.0750374736	-0.091307
C	 1.3612208971	-0.6372483723	-0.2381607043	-0.002124
O	 2.5529809913	 0.1146636155	-0.0659688738	-0.241861
C	 2.606482588	 0.4178221646	 1.2673172059	 0.372772
C	 3.7685420259	 1.2503260236	 1.6846275451	-0.481751
N	 1.6746158556	-0.0322490841	 2.0129274207	-0.336254
C	 0.759840405	-0.7608942932	 1.1577620694	 0.297793
C	 0.1211429344	-1.9842735948	 1.759840439	-0.471078
H	 0.7312504662	 2.0603877042	 0.5960384805	 0.12937
H	-0.1781973921	 1.9620832302	-0.9161331126	 0.119104
H	-1.0160156228	 1.8375158679	 0.6396329503	 0.121747
H	-0.7860114747	-0.4719483482	-0.3498286339	 0.088292
H	 1.4592073997	-1.4098507373	-0.9913391642	 0.103402
H	 4.70435224	 0.7843521611	 1.3608621096	 0.144724
H	 3.7205575514	 2.2403180259	 1.2196045697	 0.145316
H	 3.7662113509	 1.3610071281	 2.7685220266	 0.152794
H	-0.5293127285	-1.7054517485	 2.595290042	 0.129968
H	-0.4843860031	-2.5152863037	 1.0192474656	 0.111075
H	 0.881390084	-2.6732799227	 2.141797551	 0.122759
