15
gdb 4967	3.31419	2.24075	1.34815	2.9639	69.97	-0.2445	-0.0042	0.2403	871.187	0.120753	-362.73184	-362.724907	-362.723962	-362.762684	26.502	
C	 0.0285116735	 1.5094699904	 0.0487240162	-0.542652
C	 0.0234159476	 0.0035541497	 0.0291335402	 0.15148
C	-0.0514164136	-0.7193423115	-1.1613060377	-0.049514
N	-0.0608065429	-2.0494484228	-1.2589397213	-0.287653
C	 0.0078337086	-2.7304026985	-0.1102981714	 0.006372
C	 0.0860582009	-2.1359723243	 1.1410992067	-0.202224
C	 0.0940872078	-0.744798599	 1.2130416931	 0.326458
O	 0.1708358684	-0.1710349399	 2.4401802857	-0.427653
H	 0.9448243055	 1.9155091122	 0.498154541	 0.133498
H	-0.0341718102	 1.9078348129	-0.966828457	 0.142419
H	-0.8224220042	 1.9200233194	 0.6089420477	 0.133433
H	-0.1076462538	-0.1708171507	-2.1009418751	 0.099607
H	-0.0000346022	-3.8146724829	-0.1931552414	 0.107698
H	 0.1402611601	-2.7229710749	 2.0502005417	 0.106479
H	 0.1679388145	 0.7875348598	 2.3481358917	 0.302251
