25
gdb 53501	3.53206	0.66019	0.58976	0.0947	98.88	-0.2392	0.0619	0.3011	2015.3875	0.22577	-352.348563	-352.336495	-352.335551	-352.387421	42.745	
C	 0.0589495165	 1.5410970818	-0.0394182086	-0.498347
C	 0.0376311974	 0.0846503633	-0.0376657275	 0.106378
C	 0.0303245823	-1.1200593543	-0.0384049469	 0.031047
C	 0.0053771328	-2.5795785308	-0.0236597143	-0.375101
C	-1.4244570159	-3.1853113892	 0.0124682314	 0.054904
C	-2.2156327733	-2.7209683619	-1.2194889136	-0.40653
C	-1.3819520292	-4.7294915237	 0.1437734743	 0.053283
C	-0.6559674376	-5.1987272615	 1.4161805635	-0.399411
C	-2.7885202965	-5.3500883237	 0.1105013447	-0.403808
H	 0.8961053345	 1.9291858196	 0.5517134929	 0.144901
H	 0.1603342497	 1.9392236236	-1.0553567254	 0.144508
H	-0.8627395458	 1.9543789563	 0.3855000162	 0.144801
H	 0.5287062928	-2.9654021828	-0.9107467611	 0.117742
H	 0.5802242411	-2.927110368	 0.840952674	 0.123672
H	-1.921710537	-2.7875987247	 0.9089185413	 0.075479
H	-1.8203136358	-3.1811712599	-2.1338609673	 0.106522
H	-3.2752473046	-2.9761796922	-1.1470911377	 0.113013
H	-2.1404214058	-1.6364990621	-1.3328552385	 0.127106
H	-0.8264887672	-5.1162647214	-0.7246428462	 0.067489
H	 0.4002179138	-4.9183717446	 1.4317987028	 0.115122
H	-1.1275966491	-4.7788018858	 2.3130088061	 0.112778
H	-0.7008489843	-6.2892804297	 1.5020163408	 0.109286
H	-3.300905237	-5.1723117361	-0.8376729253	 0.116019
H	-2.7320983336	-6.4338015218	 0.2557654812	 0.108208
H	-3.4155839081	-4.9428714107	 0.9132461432	 0.110938
