18
gdb 100568	3.17585	0.90843	0.77888	3.9074	72.68	-0.2683	-0.0437	0.2246	1450.0196	0.144784	-439.1097	-439.099324	-439.09838	-439.14635	35.673	
C	 0.3874419668	 1.2600225141	-0.493578685	-0.409912
C	-0.0171538626	-0.1801978007	-0.1163673937	-0.088084
C	-1.5318336091	-0.3264771525	 0.0336294138	-0.082531
O	-1.9300187829	 0.5251171688	 1.0973776866	-0.426025
C	 0.5235333165	-1.1976438966	-1.1042591713	 0.374718
O	-0.1737820862	-1.9388508974	-1.7488793022	-0.285123
C	 2.0698356067	-1.282234741	-1.2549692345	-0.413587
C	 2.5460075805	-0.446967066	-2.3516386554	 0.268666
N	 2.9093046385	 0.2231924985	-3.2203341236	-0.302726
H	 1.4706243956	 1.4042294305	-0.4845649189	 0.128714
H	 0.02140048	 1.5190302166	-1.491955132	 0.137895
H	-0.0592537139	 1.9464474325	 0.2276111948	 0.152026
H	 0.4392192357	-0.410314948	 0.8584551379	 0.108483
H	-2.0212686124	-0.0541010846	-0.9128025423	 0.105064
H	-1.7830933675	-1.3757721356	 0.2394874681	 0.103237
H	-2.8885205412	 0.4952262619	 1.1636184539	 0.29255
H	 2.574101401	-0.9815317098	-0.3313834669	 0.159169
H	 2.3159687148	-2.3263103006	-1.4681228692	 0.177467
