19
gdb 39287	2.67635	2.08991	1.51301	1.5773	72.86	-0.2434	0.0706	0.314	912.5011	0.163177	-423.025562	-423.019058	-423.018114	-423.056348	27.013	
C	-0.0453075932	 1.4368164467	-0.3989912673	-0.269763
C	 1.3951593669	 1.6415201761	 0.1520132528	 0.099041
O	 1.4526627217	 2.4185826706	 1.3443614216	-0.268868
C	 1.8723118925	 1.584155754	 2.4205342233	-0.094303
C	 1.3151536724	 0.1940207228	 2.0944018009	-0.055983
C	-0.216665303	 0.0935510913	 2.3249816492	-0.101074
O	-0.7948895274	-0.4459559312	 1.1427590396	-0.253052
C	 0.002090816	-0.0628348231	 0.0429771889	 0.094197
C	 1.4519878282	 0.144265061	 0.5604670464	-0.078721
H	-0.8034107865	 2.0476174628	 0.094827871	 0.114435
H	-0.1295323585	 1.56412126	-1.4812046751	 0.101011
H	 2.1360451567	 2.0014795603	-0.5687328814	 0.074076
H	 2.9707554557	 1.558209937	 2.4962661644	 0.090366
H	 1.4757903338	 2.0126804708	 3.3471354762	 0.109479
H	 1.8556535533	-0.6088975265	 2.5990119721	 0.079075
H	-0.4846749925	-0.5667986998	 3.1541851236	 0.107461
H	-0.6270943574	 1.0927036589	 2.5335454792	 0.101328
H	-0.1682005084	-0.7871238535	-0.7554669972	 0.08188
H	 2.2558019796	-0.4836936581	 0.1795212817	 0.069413
