17
gdb 20107	4.519	1.5718	1.41478	1.6573	68.41	-0.2535	0.0765	0.33	920.6494	0.143039	-363.795007	-363.787975	-363.787031	-363.826486	26.826	
C	 0.0834408442	 1.5017548197	 0.0199143288	-0.185426
O	 1.1729374471	 0.60011925	-0.1818469217	-0.237647
C	-0.1327617137	 0.0473583907	 0.0222275325	-0.019458
C	-0.3341998195	-0.7155497251	 1.276636185	 0.360647
C	 0.2970817432	-0.4034834179	 2.6430042203	-0.311094
C	 0.3680173641	-1.9415827785	 2.9266479843	-0.237985
C	-0.2661142111	-2.1983343603	 1.552664909	-0.087472
N	-1.5471381559	-1.5155386594	 1.4138364375	-0.366186
H	 0.0969958951	 2.0445166399	 0.9641199314	 0.112353
H	-0.2089254308	 2.0887582807	-0.8495419469	 0.117525
H	-0.5814140723	-0.4100456886	-0.8592340681	 0.098238
H	 1.2877566722	 0.0450847827	 2.5486221069	 0.127227
H	-0.3108183017	 0.2066515798	 3.3198131399	 0.092823
H	 1.3965420951	-2.3008757677	 3.0019821876	 0.114475
H	-0.1992761031	-2.318212426	 3.7844742027	 0.09862
H	-0.0584760511	-3.0257928222	 0.8835344756	 0.098655
H	-2.0194840518	-1.3680584878	 2.3045695553	 0.224703
