23
gdb 116315	2.89812	1.21489	0.95054	1.4462	85.23	-0.237	0.082	0.319	1322.0887	0.207256	-388.286846	-388.27802	-388.277076	-388.320337	34.552	
C	 0.0932167611	 1.5695058695	 0.0550323885	-0.390078
C	 0.015863097	 0.0414822241	-0.0259597527	-0.174449
C	-1.4145080263	-0.5245189057	-0.0455903849	 0.015483
C	-2.2426364979	-0.0685270052	-1.2627288537	-0.224248
C	-3.5247885125	-0.8896857832	-1.3733239663	-0.072751
O	-3.2413724086	-2.2559412072	-1.6391609015	-0.25788
C	-2.4116702411	-2.8710313315	-0.6938934538	 0.088337
C	-0.9444089877	-2.9691277136	-1.0222691659	-0.309032
C	-1.4185257885	-2.0442376576	 0.0825948397	-0.054785
H	 1.1325425695	 1.9050404657	 0.1256445629	 0.112438
H	-0.3459866826	 2.0477607376	-0.82600841	 0.118137
H	-0.4371547529	 1.9474273764	 0.9367606492	 0.111727
H	 0.54871999	-0.309880675	-0.9188744148	 0.096105
H	 0.5474691976	-0.3912136127	 0.8314425968	 0.09137
H	-1.9345596151	-0.1417290196	 0.8462325855	 0.067595
H	-2.4916282742	 0.9943027176	-1.1747909644	 0.097977
H	-1.6688478228	-0.1892116212	-2.1907740975	 0.101075
H	-4.119551178	-0.7878954135	-0.4501126879	 0.084017
H	-4.1429402042	-0.5514910813	-2.2099972208	 0.103813
H	-2.8960242893	-3.7099791022	-0.1984690592	 0.087092
H	-0.396161173	-3.863173867	-0.7455606258	 0.106825
H	-0.6480711592	-2.5311430874	-1.96934948	 0.116639
H	-1.2093988911	-2.3959184372	 1.0897239465	 0.084594
