15
gdb 117023	4.28608	0.86685	0.72757	3.1708	70.1	-0.2921	-0.1187	0.1733	1487.8537	0.110352	-453.962496	-453.953006	-453.952062	-453.997984	32.141	
C	-0.1766942397	 1.5086619693	 0.0141585405	-0.39159
C	-0.0038589202	 0.0033815662	 0.002757458	-0.042347
O	-1.3232501569	-0.5840441653	 0.0129328667	-0.230186
C	-1.3824642286	-1.9098329447	 0.0046577623	 0.343027
N	-0.3678680562	-2.6738436984	-0.0112093463	-0.53032
C	-2.8277304059	-2.3765649048	 0.016483283	 0.246361
O	-3.785236509	-1.6541565889	 0.0308015992	-0.241254
C	-2.9832002573	-3.8485812544	 0.0083852872	 0.230095
N	-3.1386153061	-4.9945441173	 0.0024690786	-0.30347
H	 0.8056398019	 1.9897276335	 0.0070327022	 0.128328
H	-0.7330995161	 1.8448427186	-0.8648286549	 0.136851
H	-0.7146667696	 1.8335022921	 0.9087481008	 0.136853
H	 0.5270517379	-0.3495443938	-0.8873192281	 0.130859
H	 0.5456443837	-0.36074089	 0.8769027676	 0.130842
H	-0.634155088	-3.6579360122	-0.0150802367	 0.255951
