17
gdb 5605	3.31348	1.82998	1.19657	3.3125	71.46	-0.1908	0.0507	0.2415	985.5691	0.142315	-363.886164	-363.877657	-363.876713	-363.920573	29.753	
C	-0.0258570073	 1.4234977915	 0.0666163892	-0.340218
N	-0.008681591	-0.02196062	 0.0300509559	-0.041597
C	-0.0253135708	-0.7890938471	-1.113624775	-0.113383
C	-0.0003236331	-2.1121521026	-0.7463345019	-0.166394
C	 0.0330467932	-2.1555411041	 0.6748108241	-0.219142
C	 0.0269309754	-0.8559457386	 1.1272125486	 0.291188
C	 0.0527000835	-0.3210089427	 2.5238692317	-0.189029
O	 0.0784337526	-1.42214138	 3.4128444913	-0.408312
H	 0.8690070525	 1.8233083223	 0.5573797003	 0.135263
H	-0.0534165004	 1.8042801586	-0.9556422919	 0.140778
H	-0.9075723234	 1.8012157769	 0.597069275	 0.135358
H	-0.053467803	-0.3170698604	-2.0832358713	 0.108207
H	-0.0053428819	-2.9552890214	-1.4199889352	 0.089269
H	 0.0584443268	-3.0282083747	 1.306733538	 0.104622
H	 0.9355438193	 0.3280799127	 2.6714867429	 0.091888
H	-0.8315029093	 0.3166984733	 2.7083173495	 0.091734
H	 0.1016974869	-1.0778889637	 4.3098030888	 0.289766
