20
gdb 65677	3.96849	1.00598	0.95665	3.5461	81.66	-0.2536	0.0247	0.2782	1314.4794	0.170246	-403.113954	-403.105113	-403.104168	-403.14749	33.599	
C	 0.0062344097	 1.59574891	-0.3698939624	-0.46481
C	 0.0394462963	 0.1285281171	-0.0114746838	 0.413511
O	-1.1223066331	-0.5625630088	-0.4589081209	-0.232408
C	-2.2485033519	-0.3885869918	 0.2654709991	 0.113953
N	-3.3369767726	-0.8853834386	-0.1366969285	-0.444196
C	 1.2270724432	-0.777706505	-0.1520991213	-0.101244
C	 2.5319903546	-0.0804959452	 0.2440223584	-0.24875
C	 1.9259332107	 0.2279149912	 1.6543532529	-0.246251
C	 0.6304474698	-0.4788258535	 1.2377805729	-0.114584
H	 0.9346474043	 2.1017983676	-0.0990615057	 0.128473
H	-0.1447184405	 1.7099781969	-1.447861335	 0.136631
H	-0.8146777403	 2.1092067265	 0.1423315849	 0.118592
H	-2.0927770777	 0.1875378293	 1.1865223072	 0.090916
H	-4.0775619284	-0.6774710055	 0.5301270299	 0.22708
H	 1.1350842523	-1.6742775011	-0.7523039626	 0.103237
H	 3.3700759265	-0.7772398941	 0.3056035262	 0.112191
H	 2.8399244151	 0.77156942	-0.3699925311	 0.101361
H	 2.4512433462	-0.3043914941	 2.4497590134	 0.11188
H	 1.8392635807	 1.2793635835	 1.9455013489	 0.099528
H	 0.0327066153	-1.1233101642	 1.8713008174	 0.094892
