19
gdb 47946	2.12869	1.82637	1.23598	4.2892	70.98	-0.2731	0.0284	0.3016	1064.7032	0.161499	-460.206251	-460.198304	-460.197359	-460.23878	30.572	
O	 0.2439149381	 0.0095350848	 0.2856678317	-0.375087
C	 0.0152757549	 1.1613369007	 0.055674668	 0.488954
O	-1.2299365802	 1.6566218635	-0.0101767077	-0.24524
C	-1.4163967942	 2.8954463987	-0.7277650457	-0.073875
C	-1.3378527914	 2.7079745619	-2.2485652281	-0.200649
C	-0.1235456006	 1.9550829659	-2.8381378734	-0.208012
C	 1.2855175718	 2.4905352598	-2.4988353898	-0.196268
C	 1.8714581185	 1.8986301387	-1.2160855625	-0.09557
O	 0.9616054603	 2.1234081597	-0.1276783524	-0.260722
H	-2.4203187744	 3.222193238	-0.4475272176	 0.11889
H	-0.6973485566	 3.6340378102	-0.3733709985	 0.13
H	-2.2394126587	 2.1796279707	-2.5795418784	 0.114886
H	-1.3906330661	 3.7129206976	-2.6886451664	 0.105379
H	-0.1824519823	 0.8948122519	-2.5624243877	 0.12962
H	-0.2514403116	 1.9755451291	-3.9256050349	 0.103093
H	 1.9760832501	 2.251684546	-3.3167018906	 0.106571
H	 1.265431047	 3.58452299	-2.4195423942	 0.10532
H	 2.0516864891	 0.8221374055	-1.3096476172	 0.133773
H	 2.8088365562	 2.386827517	-0.9391978046	 0.118936
