17
gdb 67373	2.26561	1.98408	1.93759	0.7523	71.35	-0.2354	-0.0006	0.2348	868.5381	0.137438	-421.794575	-421.787816	-421.786871	-421.82524	28.098	
O	-0.1260954576	 1.392021186	-0.0274110791	-0.478871
C	 0.0033991973	 0.0160429966	 0.0058407289	 0.345623
C	 0.5856939875	-0.8953449811	 1.1274226707	 0.031975
C	-0.7949558158	-1.576508517	 1.2781410597	-0.243775
C	-1.3155909537	-0.8075011851	-0.0036569424	-0.10842
C	-1.2520095222	-1.5919058939	-1.2883344553	-0.081719
C	-0.0280847918	-1.5793776549	-1.8261261453	-0.072545
C	 0.9162214358	-0.7879941207	-0.9617400735	-0.006566
O	 1.4465537598	-1.555968447	 0.1764260888	-0.316007
H	 0.7516270246	 1.786743261	 0.0280256116	 0.28647
H	 1.1216225745	-0.5687601247	 2.0218195945	 0.074958
H	-0.7965879005	-2.6662923104	 1.2272416002	 0.109683
H	-1.3100819053	-1.2468280745	 2.1848699585	 0.104259
H	-2.2373141916	-0.2443146501	 0.149618587	 0.084031
H	-2.1017972975	-2.1393598249	-1.6823368598	 0.100925
H	 0.2752000267	-2.1010451136	-2.7259448816	 0.100257
H	 1.7297893797	-0.2724944658	-1.483341103	 0.069721
