16
gdb 61727	2.50476	0.81289	0.6318	3.1852	89.86	-0.2568	-0.0329	0.2239	1702.9378	0.120889	-400.688966	-400.678987	-400.678043	-400.725095	34.686	
C	-0.0841990003	 2.0199887187	 0.066247218	-0.392543
C	-0.1590210556	 0.5063118123	-0.1345160912	-0.110453
O	 0.3848220622	 0.2430664275	-1.4394167799	-0.180114
C	 0.1854849167	-0.9982156728	-1.9372170456	 0.133471
N	 0.6331117433	-1.2899591925	-3.0788486619	-0.43558
C	 0.558599582	-0.2293833792	 0.9063149111	 0.555932
C	 1.1423625033	-0.8430176595	 1.7706936601	-0.390462
C	 1.8048425232	-1.5262128889	 2.7429227965	 0.308049
C	 2.3906238785	-2.1345829597	 3.6055392674	-0.553845
H	 0.9560135658	 2.3505509861	 0.0318174988	 0.14873
H	-0.6423028616	 2.5192894428	-0.7291308213	 0.137271
H	-0.5114162968	 2.2917485653	 1.0341374604	 0.134469
H	-1.2134589225	 0.1924355337	-0.1219600384	 0.118398
H	-0.3759583221	-1.6593490731	-1.2642829973	 0.096294
H	 0.3935181661	-2.2516390452	-3.3110938236	 0.231694
H	 2.9098285978	-2.6664334555	 4.3640327968	 0.198691
