17
gdb 7798	3.20037	1.94211	1.2794	3.0878	66.5	-0.254	0.0189	0.273	948.565	0.142963	-401.010441	-401.002852	-401.001908	-401.042451	28.311	
C	 0.0134732837	 1.5069523548	 0.0744145566	-0.403673
C	-0.0250331243	-0.0024887353	-0.0889423771	 0.121589
C	 0.8184639319	-0.5154177107	-1.2453898452	-0.094782
O	 0.8049048722	-1.9280524795	-1.2601280272	-0.242549
C	 1.4193668226	-2.4421506215	-0.0948961096	-0.158545
C	 0.875710627	-1.8584347208	 1.1953858242	 0.365389
N	 0.9400351729	-2.5248573304	 2.2679585712	-0.505196
O	 0.4297918094	-0.5716215369	 1.1612261839	-0.264357
H	 1.0415961911	 1.8558625931	 0.2110135782	 0.129144
H	-0.4089932643	 1.9970031246	-0.8079912061	 0.12382
H	-0.5693619198	 1.8074234213	 0.9485272559	 0.136531
H	-1.0579512667	-0.3433335869	-0.2436913276	 0.096817
H	 0.3983543948	-0.1786506037	-2.1973014083	 0.118559
H	 1.8504627018	-0.1331460697	-1.1619536777	 0.09417
H	 1.2683240855	-3.5214053151	-0.0838060821	 0.147488
H	 2.5055127533	-2.2465148391	-0.1196006744	 0.116145
H	 0.5918255387	-1.9672115642	 3.0511287653	 0.219451
