21
gdb 41777	2.84178	1.59839	1.1531	1.0337	84.14	-0.2304	0.0208	0.2512	1114.3064	0.184971	-387.080353	-387.072583	-387.071639	-387.112498	31.242	
C	 0.0794860137	 1.590773972	 0.2790045071	-0.242883
C	 1.5184517609	 1.5770147788	-0.3023674616	-0.233811
C	 1.2396654802	 0.1547403496	-0.8834982859	-0.049418
C	 2.3169277394	-0.8768952625	-0.7503432808	-0.044997
C	 2.1265767797	-2.1301159314	-0.3391186949	-0.065387
C	 0.7649203019	-2.6799936083	 0.0157874692	-0.290069
C	 0.1299530469	-2.0012948891	 1.2461554869	-0.056537
O	 0.2581024429	-0.5906897191	 1.280072273	-0.24861
C	-0.0139302892	 0.0648781239	 0.0622423205	 0.110841
H	-0.0424632222	 1.9113960527	 1.3151727668	 0.110157
H	-0.6256983273	 2.1372047183	-0.3526243043	 0.099475
H	 1.7801364686	 2.3611001459	-1.0164346448	 0.094293
H	 2.2776055574	 1.547533223	 0.4830095203	 0.111048
H	 0.9126668878	 0.2428556036	-1.9289620121	 0.076861
H	 3.3233344322	-0.5446406432	-1.0018663457	 0.08395
H	 2.9794835668	-2.7984247223	-0.2550284377	 0.084995
H	 0.0890361892	-2.5709584106	-0.8413872561	 0.112625
H	 0.8178284259	-3.7546779317	 0.2192954606	 0.099867
H	-0.9338160315	-2.2876348207	 1.2984752805	 0.083842
H	 0.6149745617	-2.3513716717	 2.1630682001	 0.107094
H	-0.9415492149	-0.316471947	-0.3881983212	 0.056665
