23
gdb 41399	2.42726	1.82424	1.2717	0.031	88.17	-0.2579	0.0826	0.3404	1092.0354	0.208656	-351.151018	-351.143136	-351.142192	-351.184993	31.929	
C	-0.0947505418	 1.4755942752	-0.1744682142	-0.232113
C	 1.4335405045	 1.584386092	 0.1040695484	-0.32015
C	 1.5324082541	 0.0384605829	 0.1751971867	 0.414477
C	 2.5505946985	-0.7876604363	-0.6527893886	-0.320116
C	 3.0359773517	-1.4952057661	 0.646775084	-0.23212
C	 1.9353765655	-0.7500624926	 1.4572757916	-0.054199
C	 0.6653724484	-1.5412152713	 1.8366846018	-0.221359
C	-0.5026350588	-0.6554190001	 1.3521764918	-0.22138
C	-0.0134364724	-0.0679270379	 0.0111481733	-0.054199
H	-0.7498728095	 1.9964997796	 0.5294556675	 0.093072
H	-0.372737518	 1.7832721574	-1.1855143622	 0.096988
H	 2.0133567222	 2.0385391517	-0.7049293884	 0.095981
H	 1.6986281595	 2.0946045415	 1.0355039395	 0.094013
H	 2.093565423	-1.4487161402	-1.395954462	 0.094018
H	 3.3141419695	-0.1896054313	-1.1589952024	 0.095977
H	 2.9640525295	-2.586437601	 0.655596176	 0.093064
H	 4.0544607783	-1.221564257	 0.9330798712	 0.096989
H	 2.3024365263	-0.1507047198	 2.2963287286	 0.05607
H	 0.6490219698	-2.4961334586	 1.2958149101	 0.092126
H	 0.6050289118	-1.7796422717	 2.903130133	 0.092333
H	-1.4460596007	-1.2036484524	 1.267389263	 0.092334
H	-0.6697243682	 0.1557444668	 2.0724327719	 0.092124
H	-0.3683020032	-0.6570976708	-0.8402724108	 0.056071
