20
gdb 110033	2.066	1.64815	1.04619	4.5926	75.13	-0.2337	0.0107	0.2445	1198.0429	0.171717	-440.320093	-440.310916	-440.309972	-440.354077	33.768	
C	-1.2199973902	 0.904899025	-0.5541979549	-0.322704
N	-0.595594399	-0.407801512	-0.3844209835	-0.303986
C	 0.5736093874	-0.6264134487	-1.2350456157	-0.128508
C	 1.2428307631	-1.98745417	-0.9677966284	-0.015223
C	 1.37892716	-2.4362915527	 0.4845803018	-0.440163
C	 0.3862860541	-2.9218069317	-1.8367722716	-0.077539
O	-0.0152038981	-2.1323842949	-2.9670017688	-0.218868
C	 0.0714814308	-0.8080871447	-2.6800554561	 0.459708
O	-0.232529279	 0.0407813886	-3.4681810424	-0.346675
H	-0.5255111087	 1.7465200275	-0.3885904248	 0.098296
H	-1.6153157647	 1.0000253788	-1.5674438062	 0.158143
H	-2.0507382826	 0.9959709949	 0.1509259989	 0.116636
H	-0.3109900872	-0.511313977	 0.5831131633	 0.223301
H	 1.2909141135	 0.2101414163	-1.2088541448	 0.076912
H	 2.2422999568	-1.9380050315	-1.4173701007	 0.093311
H	 0.4025863465	-2.5500608074	 0.9654381678	 0.133432
H	 1.8843246848	-3.4059904361	 0.5393609177	 0.126281
H	 1.9731668123	-1.7259255125	 1.0687797198	 0.124689
H	 0.9295822079	-3.7919979316	-2.2121909487	 0.119962
H	-0.5104115079	-3.2574271002	-1.3039807429	 0.122995
