21
gdb 118115	3.25028	0.74726	0.68936	1.7007	75.72	-0.2571	0.0655	0.3226	1702.8808	0.179397	-461.332959	-461.322147	-461.321203	-461.369813	38.146	
C	 0.2031625761	 1.4886529207	-0.3285012387	-0.420167
C	 0.0081870829	 0.0483912776	 0.0673447976	 0.07883
O	 1.1794673705	-0.7738598429	 0.1953771611	-0.265056
C	 0.3885367823	-0.5366989556	 1.362018729	 0.041145
C	 1.0391995705	 0.2223204975	 2.5030236161	 0.077418
O	 0.0394951014	 0.6946677998	 3.4060668989	-0.43119
C	 2.096687243	-0.6377270282	 3.199421543	-0.192004
C	 2.8374844035	 0.1056355643	 4.3035118928	-0.080832
O	 3.7446401303	-0.8066646691	 4.9045383491	-0.422549
H	 1.0399307116	 1.9490168177	 0.199854932	 0.13034
H	 0.4038569307	 1.5583419911	-1.4026316786	 0.128969
H	-0.7033003103	 2.0654735117	-0.1167944123	 0.128985
H	-0.8068585973	-0.452054837	-0.4604378754	 0.088723
H	-0.1773793762	-1.4124942336	 1.6980880924	 0.077138
H	 1.514076998	 1.1271607507	 2.1114940554	 0.091721
H	-0.3496908905	-0.0731244189	 3.8403614215	 0.280318
H	 1.6207776709	-1.5299275357	 3.630939973	 0.09332
H	 2.8136243682	-0.9948578001	 2.4522350999	 0.129076
H	 3.3672945132	 0.9713312388	 3.8725519067	 0.085359
H	 2.1139689857	 0.497311486	 5.0328441359	 0.094953
H	 4.1946927852	-0.3518047049	 5.6222030007	 0.285504
