23
gdb 118762	2.79804	0.98366	0.8507	1.1876	82.99	-0.2418	0.0789	0.3207	1499.4374	0.2029	-425.412647	-425.40207	-425.401126	-425.448676	38.353	
C	 0.21646894	 1.3869128442	-0.5994933467	-0.221924
O	-0.0205325909	 0.0419119032	-0.9393493529	-0.23872
C	 0.811405679	-0.8593612672	-0.2424337816	-0.099621
C	 0.4655643846	-2.2798166155	-0.6790099321	 0.411012
C	-0.9680576224	-2.6500274789	-0.3318197404	-0.438687
C	 0.9412043981	-2.6688797734	-2.0993820662	-0.343246
C	 1.8477671794	-3.6874302269	-1.3757853149	 0.165933
C	 3.3481223943	-3.5878668423	-1.5674644787	-0.399358
O	 1.4174897655	-3.2013311964	-0.0773018591	-0.348257
H	 0.034319943	 1.5754799841	 0.4702692584	 0.105798
H	 1.2505547299	 1.6897554572	-0.828413004	 0.104069
H	-0.4697405081	 2.0003034108	-1.1886499235	 0.126564
H	 1.8739011067	-0.6586226935	-0.455051467	 0.084351
H	 0.6712294379	-0.7663152911	 0.8483370689	 0.090072
H	-1.6628008711	-1.9482547445	-0.8014486862	 0.132979
H	-1.2001449115	-3.663506349	-0.6712641818	 0.111435
H	-1.1146853561	-2.6109262805	 0.7527807025	 0.118046
H	 0.1760766898	-3.0861326672	-2.7556457673	 0.10462
H	 1.4749321613	-1.8767601906	-2.6287954802	 0.106608
H	 1.5250950472	-4.7291758186	-1.5117366307	 0.071929
H	 3.6896087615	-2.5534142734	-1.4611761253	 0.11651
H	 3.8701192425	-4.1990704797	-0.8242347734	 0.125653
H	 3.6300945497	-3.946708861	-2.5637617477	 0.114232
