18
gdb 30873	2.39245	1.39682	0.92515	0.1989	77.77	-0.1767	0.0349	0.2116	1280.1652	0.146651	-439.103307	-439.093722	-439.092778	-439.137917	34.296	
C	-0.2830028193	 1.1784332996	 0.0578479341	-0.251608
O	 0.6264547253	 0.0893750258	-0.1423439459	-0.277576
C	 0.8930195349	-0.6385872028	 0.9554443498	 0.322675
C	 0.6283963393	-1.9397451757	 1.2495055107	 0.128935
N	-0.1344913073	-2.8512541705	 0.495606719	-0.617846
C	 1.2245010334	-2.166596134	 2.5395948125	-0.33489
C	 1.7919839438	-0.9937569607	 2.9297872206	 0.367778
C	 2.5403411139	-0.5791808938	 4.1445421801	-0.487581
O	 1.5971631631	-0.0407952633	 1.9702784046	-0.221945
H	 0.139620742	 1.9168361636	 0.7469720417	 0.133979
H	-0.4363436613	 1.6377172562	-0.9204376786	 0.130564
H	-1.2396045711	 0.8174046278	 0.4540327864	 0.12295
H	-0.2892080443	-2.4994194193	-0.442342062	 0.243269
H	 0.3167137822	-3.7562922375	 0.4262930961	 0.241107
H	 1.2147377606	-3.0882367617	 3.1016715084	 0.099355
H	 3.5532032533	-0.2372010412	 3.9009500402	 0.134846
H	 2.0373123268	 0.2415915611	 4.6693781763	 0.133576
H	 2.6221102546	-1.4234106337	 4.8330564761	 0.132412
