17
gdb 37714	3.56219	2.02537	1.53184	1.4953	75.95	-0.2094	0.0022	0.2116	860.7312	0.138584	-380.742637	-380.73663	-380.735686	-380.772536	26.092	
C	-0.0739904448	 1.4985237246	 0.0902057088	-0.227929
C	 1.3128901583	 2.1228555509	-0.0477611028	-0.074841
C	 2.3878267939	 1.3554976693	-0.2600494848	-0.219341
C	 2.0253905923	-0.0779032393	-0.3395699193	 0.336243
N	 2.7031570631	-1.4068487579	-0.4658332429	-0.420167
C	 1.2201802371	-1.7409190501	-0.3628901851	-0.076147
C	 0.9958860785	-0.6336909894	 0.6879380967	-0.008402
N	-0.1637222708	 0.0150226244	-0.0224845003	-0.167078
C	 0.7363310793	-0.4796629914	-1.1269981967	-0.04595
H	-0.5036063586	 1.7828435052	 1.0603972333	 0.119754
H	-0.744718517	 1.9285928198	-0.6658601296	 0.118113
H	 1.3821824147	 3.2035853389	 0.040044195	 0.097765
H	 3.4003883267	 1.7305351547	-0.3574512653	 0.103514
H	 3.0216051262	-1.5511944797	-1.4288344622	 0.207583
H	 0.8407641412	-2.7618507816	-0.3847304116	 0.090266
H	 1.1006079963	-0.6797294582	 1.7718435386	 0.088628
H	 0.5211777737	-0.3423543802	-2.1891360016	 0.077989
