24
gdb 122527	2.99901	0.66687	0.58249	2.4349	87.37	-0.2207	0.0782	0.2989	1980.3386	0.215843	-405.514369	-405.503425	-405.502481	-405.551429	39.208	
C	-0.2273981382	 1.6040626008	-0.3524325155	-0.371057
C	-0.4945074373	 0.1006905206	-0.3952858129	-0.118307
N	 0.4605491176	-0.5492357687	-1.2859248651	-0.075913
C	 1.7210635481	-1.0057143165	-0.7093277024	-0.270707
C	 0.7138176266	-1.9898496573	-1.1989532228	 0.022032
C	-0.0047646934	-2.9285390807	-0.2487526252	-0.225743
C	-1.355425251	-3.4117073016	-0.7931651532	-0.163884
C	-2.0445687138	-4.4056768111	 0.1317340504	-0.074104
O	-3.2741337098	-4.7832536878	-0.4688620327	-0.421022
H	 0.7658795932	 1.8120092003	 0.0590547503	 0.116529
H	-0.2702356102	 2.0286179168	-1.3592264586	 0.126524
H	-0.9669511333	 2.11156885	 0.2746585779	 0.108498
H	-0.4720286142	-0.3014966714	 0.6314549288	 0.079155
H	-1.5006303173	-0.0850668156	-0.7900397171	 0.105013
H	 2.6223755965	-0.7891213741	-1.2775705013	 0.109981
H	 1.8403663363	-0.9272376115	 0.3723035581	 0.099594
H	 0.8861181461	-2.4325821019	-2.1809023038	 0.085913
H	 0.6484217154	-3.7952919482	-0.0762141801	 0.099301
H	-0.1411345962	-2.4571743398	 0.7309686077	 0.09724
H	-2.0279885651	-2.5613949103	-0.9531739507	 0.113463
H	-1.216474532	-3.8859402524	-1.7724381254	 0.107518
H	-1.3922248135	-5.2807721379	 0.289857862	 0.082653
H	-2.209070076	-3.9428850948	 1.119276094	 0.082293
H	-3.7136466786	-5.4100748869	 0.1128338777	 0.285031
