18
gdb 64183	2.18258	1.52863	1.35885	4.8644	72.	-0.2767	0.0061	0.2829	1067.2176	0.144438	-439.082066	-439.072375	-439.071431	-439.11687	35.475	
C	-0.2770974562	 1.5125017332	-0.0192330295	-0.465755
C	 0.0179759809	 0.0218716268	-0.0839901671	 0.30638
O	-1.0807881458	-0.70586537	-0.5686341503	-0.449173
C	 1.297056866	-0.3990159816	-0.8305162642	-0.099002
O	 1.9351013742	-0.8386096022	 0.3900394833	-0.301693
C	 0.7505141129	-0.6107509451	 1.1802113755	 0.17401
C	 1.0491106388	 0.2431793849	 2.4072388736	-0.440941
C	 0.125862042	-1.8790266282	 1.5976095354	 0.278822
N	-0.3772853135	-2.8534035904	 1.9621802991	-0.340295
H	 0.6036237998	 2.0969747541	 0.2567522936	 0.133038
H	-0.6185438852	 1.8485091786	-1.0027181988	 0.139604
H	-1.0683568905	 1.728198413	 0.7083185977	 0.121203
H	-1.8538959968	-0.5167755755	-0.0244676386	 0.287846
H	 1.1246031487	-1.2239223526	-1.5289428522	 0.128842
H	 1.8664209408	 0.3979957894	-1.3193527615	 0.110477
H	 1.5312215161	 1.1758014614	 2.1097497125	 0.13048
H	 0.133127598	 0.4680971691	 2.9616296645	 0.133926
H	 1.7274606598	-0.2983754149	 3.0719289971	 0.152233
