18
gdb 73109	2.78203	1.54436	1.26368	5.0205	71.28	-0.2565	0.0574	0.3139	1046.3429	0.148792	-439.138019	-439.130123	-439.129179	-439.170396	30.675	
C	-0.035931956	 1.5027494919	-0.0514464422	-0.469958
C	-0.0388616745	-0.0155877625	 0.0184992533	 0.299429
C	-1.3501651357	-0.737110349	 0.4595098377	-0.26399
C	-0.5147092208	-1.6652935531	 1.3913387862	-0.252959
C	 0.7222615948	-0.7592674905	 1.1620544709	 0.080388
O	 1.8666196047	-1.3778908322	 0.5880629881	-0.247341
C	 1.7741965746	-1.3197702475	-0.7819905103	 0.4674
O	 2.5864755661	-1.7992974458	-1.5213609368	-0.391286
N	 0.6163259204	-0.649024801	-1.1101400528	-0.404843
H	 0.9812312702	 1.8853990901	-0.183151938	 0.132305
H	-0.6456974505	 1.857802902	-0.890603391	 0.123165
H	-0.4525795547	 1.9343163306	 0.8638739301	 0.123859
H	-2.0195041951	-0.0709756698	 1.0101721295	 0.105956
H	-1.9125146668	-1.2221086614	-0.3401764176	 0.108307
H	-0.8571877489	-1.7559985941	 2.423578581	 0.110628
H	-0.3540689187	-2.6657755599	 0.9853826389	 0.127508
H	 1.0390718077	-0.1590714448	 2.0164324497	 0.095048
H	 0.4978652932	-0.3434889932	-2.0620097467	 0.256383
