13
gdb 130542	3.65972	1.21316	0.91113	2.0266	73.53	-0.261	-0.0666	0.1944	1167.9801	0.090255	-415.607158	-415.599574	-415.59863	-415.639841	27.524	
O	 0.0213139042	-0.0666174737	 0.0031234149	-0.317792
C	-0.0196241348	 1.1516069986	 0.0074350581	 0.166146
C	 1.2025781566	 1.9452454417	 0.0009170764	 0.255565
C	 2.2184624502	 2.590735679	-0.0045626576	-0.432065
C	-1.2716499292	 1.9088466767	 0.0188867171	 0.119445
C	-2.5474095594	 1.3592496767	 0.0264282882	-0.089311
N	-3.4000810742	 2.3965345207	 0.0357841431	-0.184785
N	-2.7864837716	 3.6058211067	 0.035151731	-0.216292
C	-1.4958937274	 3.310975466	 0.0249410701	-0.104582
H	 3.1252479879	 3.1451493514	-0.0096946802	 0.213673
H	-2.8698140081	 0.3308519772	 0.0255562705	 0.170392
H	-4.4064498041	 2.3657153216	 0.0429203319	 0.28511
H	-0.75841454	 4.0992938273	 0.0220890665	 0.134496
