23
gdb 114055	2.52444	1.18478	1.00619	1.5767	86.55	-0.2359	0.0769	0.3128	1323.6825	0.204404	-388.26883	-388.25884	-388.257896	-388.303187	37.992	
C	 0.0101580076	 1.5391623754	-0.0243886031	-0.497993
C	-0.029435411	 0.0408630329	 0.0751828221	 0.325321
C	 1.1282322474	-0.8409936352	-0.3163470341	-0.380926
C	 0.6058232556	-0.9207513915	 1.0968382144	 0.2993
C	 1.4828520451	-0.6574612247	 2.2905113583	-0.502311
C	-0.6694312745	-1.7878139901	 1.0907203688	-0.018932
C	-1.4196970841	-1.8385075319	 2.4086685754	-0.105928
O	-2.6711216038	-2.4672865787	 2.1684851317	-0.421899
C	-1.3075771098	-0.8075465545	 0.0527664669	-0.292621
H	 1.0028250671	 1.9313308347	 0.2218150353	 0.113447
H	-0.2305438596	 1.8755790738	-1.0407184222	 0.118821
H	-0.7123220849	 2.0057650662	 0.6556306373	 0.111525
H	 0.9890172443	-1.6687119873	-1.0103345096	 0.097041
H	 2.0828436318	-0.3327084464	-0.4230093978	 0.100337
H	 2.1930552226	 0.1499829767	 2.0831865183	 0.115413
H	 0.9032118432	-0.3661395488	 3.1736206998	 0.113991
H	 2.0697392674	-1.5450113543	 2.558777399	 0.118618
H	-0.5241932759	-2.8145788421	 0.7333650874	 0.066099
H	-0.8324419459	-2.3960301209	 3.1564071981	 0.084069
H	-1.5572942511	-0.8152075651	 2.7973620044	 0.080002
H	-3.163037738	-2.4833554552	 2.9944173424	 0.285146
H	-2.1782636131	-0.2951898549	 0.4713689702	 0.101562
H	-1.5901387506	-1.2290410582	-0.9177355429	 0.089918
