21
gdb 38248	3.12474	1.67374	1.38364	1.799	81.13	-0.2387	0.0842	0.3228	1000.7087	0.186897	-387.076468	-387.069561	-387.068617	-387.107645	28.991	
O	 0.0013855393	 1.4412098634	 0.1976855592	-0.280243
C	 1.3067958962	 1.9678073815	-0.1037850496	-0.103533
C	 2.0065109497	 0.8628436667	-0.8876513994	-0.003341
C	 3.5141634679	 0.4966255055	-0.7928462544	-0.261447
C	 3.3637974695	-0.932461874	-0.2080124716	-0.014972
C	 2.3739846794	-0.6655023194	 0.956311473	-0.259971
C	 1.3914724339	-0.3876081621	-0.2211093845	 0.34376
C	-0.0469444812	 0.017372908	-0.0231732252	-0.195901
C	 2.127296861	-1.5260329325	-0.9717010799	-0.315147
H	 1.1739411204	 2.8968023052	-0.6681599006	 0.098957
H	 1.8366170216	 2.210796238	 0.8293022059	 0.089052
H	 1.6843601622	 0.9173183295	-1.9337607144	 0.075055
H	 4.0077593476	 0.5141123546	-1.7683025127	 0.096236
H	 4.0802788004	 1.1481412299	-0.119183083	 0.100477
H	 4.2728606515	-1.5175721641	-0.0649218547	 0.061257
H	 2.1037172043	-1.5715579689	 1.5044358864	 0.094511
H	 2.6051343796	 0.1411662536	 1.6574230562	 0.094473
H	-0.5252944957	-0.4506233078	 0.8445020184	 0.099158
H	-0.6601215429	-0.197559766	-0.911180197	 0.092446
H	 2.1252453324	-1.499896411	-2.0659379696	 0.090483
H	 1.874823693	-2.5279737901	-0.6160706423	 0.098687
