18
gdb 92291	2.70836	1.71693	1.35861	2.3499	71.72	-0.2446	0.0224	0.267	995.0536	0.149082	-439.081602	-439.073838	-439.072894	-439.114399	29.233	
C	 0.3382869597	 1.5452290428	-0.0953166821	-0.406275
C	 0.0906359829	 0.0635879101	 0.0718295563	 0.132003
O	 0.8497346797	-0.7525417895	-0.8541415635	-0.312313
C	 1.2553127573	-1.6563452485	 0.2001077447	 0.089587
C	 2.7511808697	-1.9137733454	 0.2325427902	-0.184836
N	 3.5538422085	-0.8646069125	 0.8476554078	-0.261039
C	 2.9903763011	-0.0524058451	 1.6292876736	 0.129374
O	 1.6829503579	 0.0479090098	 1.997367056	-0.235913
C	 0.7079977315	-0.6947030176	 1.2742225328	 0.04071
H	 1.3982032977	 1.7851259604	 0.0128268488	 0.133637
H	 0.0132014872	 1.8601681686	-1.0914335287	 0.130894
H	-0.228885237	 2.1141652467	 0.6482856521	 0.122657
H	-0.9829401853	-0.159859919	-0.0179992596	 0.076359
H	 0.6938167343	-2.598661965	 0.1421467358	 0.077441
H	 2.9434673718	-2.8481308998	 0.7774668359	 0.116609
H	 3.1046804098	-2.0730932397	-0.7922925262	 0.128428
H	 3.5648858805	 0.7117548094	 2.1495837539	 0.126148
H	 0.0128791726	-1.0970739256	 2.0120098623	 0.096529
