18
gdb 82655	4.31893	1.34785	1.3053	3.3067	75.35	-0.2361	-0.0146	0.2215	1017.9539	0.149417	-401.902479	-401.895396	-401.894451	-401.933793	28.578	
C	-0.1392042591	 1.616719799	 0.0894818419	-0.440636
C	 0.0481115954	 0.1146928083	-0.0233194263	 0.073526
C	 0.6298857899	-0.5695446571	-1.2598037916	-0.073308
C	 2.2019120905	-0.2891191658	-1.2867215939	-0.191124
C	 2.3725785957	 0.1078439143	 0.2022937834	-0.180804
N	 1.1633828332	-0.5783860459	 0.7627030675	-0.162181
C	 1.0564364374	-1.7257852515	-0.2702321065	-0.129947
C	 2.3346170024	-1.8058220514	-1.0912734934	 0.445035
O	 2.9745535412	-2.6915495172	-1.5767357127	-0.326856
H	 0.6569102172	 2.1892282597	-0.3927017187	 0.123727
H	-1.0827843231	 1.9046136353	-0.3852849312	 0.125182
H	-0.1915372495	 1.9137637196	 1.1427978306	 0.135923
H	-0.8801460632	-0.3850852551	 0.2729165054	 0.089428
H	 0.1271671322	-0.7317554417	-2.212437541	 0.088872
H	 2.7084983459	 0.2559937518	-2.0785768024	 0.09069
H	 3.2809954035	-0.3075554297	 0.6481284682	 0.120066
H	 2.3467713966	 1.1770505063	 0.4091066258	 0.113083
H	 0.4388685837	-2.5640908688	 0.040148585	 0.099322
