21
gdb 118436	2.13757	1.29312	0.91091	4.8869	76.23	-0.2356	0.0513	0.2869	1345.4644	0.182155	-457.58101	-457.570539	-457.569595	-457.61711	37.913	
C	-0.0195748774	 1.6273557971	-0.0574573116	-0.378604
C	-0.0197322118	 0.0943142754	-0.023491538	-0.178006
N	 0.6350259519	-0.5255414956	-1.1690926859	-0.074599
C	 2.0641675489	-0.8373624751	-1.0726436163	-0.222847
C	 2.3547856323	-2.2948094638	-0.7079034169	-0.01853
O	 1.8142891403	-3.2200447881	-1.6205061399	-0.434779
C	 0.0266568067	-0.7537766505	-2.3756448478	 0.470839
N	-1.25889164	-0.2773137121	-2.5383836308	-0.564893
O	 0.6054461198	-1.3150617187	-3.3058871837	-0.438982
H	 1.0036019902	 2.0139969042	-0.0896141529	 0.129715
H	-0.5471414153	 2.0000965253	-0.939783255	 0.134877
H	-0.5074619595	 2.0311664925	 0.8355424594	 0.119381
H	 0.4948994485	-0.2600739154	 0.8752328151	 0.123206
H	-1.0431983823	-0.2889803646	 0.0675261326	 0.109284
H	 2.5258032484	-0.6056383101	-2.0364507161	 0.138668
H	 2.5091309478	-0.1757455084	-0.3217010229	 0.100752
H	 3.450849153	-2.4033312983	-0.6323296484	 0.08074
H	 1.9467345023	-2.5143102522	 0.2913484046	 0.08227
H	 1.5419798002	-2.7323726738	-2.4152440467	 0.302752
H	-1.8428298603	-0.0885466389	-1.7418447762	 0.253193
H	-1.7271065337	-0.6828737687	-3.3330155728	 0.265563
