17
gdb 115084	2.25392	1.60346	1.1359	2.8531	69.33	-0.2356	-0.0294	0.2063	1106.7827	0.136829	-455.167599	-455.159151	-455.158207	-455.20126	30.502	
C	 0.171281581	 1.2081622071	-0.6196136152	-0.321262
N	-0.2327594772	 0.3550218798	 0.4940008526	-0.294176
C	-1.4797130974	-0.3802796301	 0.2676259251	-0.130686
C	-1.3282595597	-1.6765061393	-0.5482696443	-0.194182
N	-0.607406115	-2.7093474394	 0.1926952076	-0.240262
C	-0.7355919354	-2.7026688828	 1.4452491908	 0.128055
O	-1.4953542973	-1.8511532272	 2.2186699425	-0.217731
C	-2.0595965874	-0.7234887661	 1.6348605809	 0.45809
O	-2.8910382895	-0.1183206709	 2.2352006241	-0.300276
H	 1.1298406628	 1.6748574906	-0.377479734	 0.130512
H	 0.2816565882	 0.6897303138	-1.5869185538	 0.103251
H	-0.5649266366	 2.0084696165	-0.7486013292	 0.133903
H	 0.5125056972	-0.2956861811	 0.719647176	 0.230398
H	-2.1897753298	 0.3009816825	-0.2074099945	 0.113615
H	-2.3128058284	-2.0748464561	-0.8314435759	 0.130456
H	-0.7924321343	-1.4760022245	-1.4810686899	 0.125531
H	-0.2479933912	-3.4363716728	 2.0814323073	 0.144763
