17
gdb 65549	2.98526	1.54587	1.3285	2.4247	71.87	-0.2427	0.0104	0.2531	988.185	0.137738	-417.976438	-417.968954	-417.96801	-418.008137	29.611	
O	-0.0771184469	 1.3889140447	-0.0190093238	-0.472211
C	-0.02373682	-0.0264075425	 0.0040296378	 0.256801
C	 0.4260957222	-0.6381464321	 1.400742675	-0.232022
N	-0.8059094987	-1.3140539017	 1.8719069829	-0.116818
C	-1.2174640067	-2.0108630735	 0.5853115904	-0.197489
C	-1.4591211881	-0.589164183	 0.0230952436	-0.058378
C	-1.8466677464	-0.277550757	 1.4908661526	-0.191988
C	 0.7790928572	-0.5209333361	-1.1246148213	 0.229821
N	 1.4415113238	-0.8960913349	-1.9951758902	-0.340615
H	 0.822681972	 1.7331842046	-0.0411764416	 0.294147
H	 1.2457470059	-1.35385567	 1.3127105991	 0.129074
H	 0.7128871957	 0.169133342	 2.0790285306	 0.118849
H	-0.4520970588	-2.646063283	 0.131352071	 0.124351
H	-2.1376563122	-2.5770028343	 0.7393011274	 0.121711
H	-2.0782008807	-0.3631924467	-0.844843134	 0.0923
H	-2.8432476405	-0.6337219613	 1.7575277703	 0.11695
H	-1.674563748	 0.7272566146	 1.8787628902	 0.125517
