22
gdb 116805	5.64902	0.48311	0.46476	2.4778	85.31	-0.2427	0.0248	0.2675	2393.7701	0.190781	-441.479033	-441.467591	-441.466647	-441.517398	39.242	
C	-0.1347029663	 1.3502759614	 0.0052026163	-0.24837
O	-0.0440987756	-0.0674700084	 0.0516279758	-0.192896
C	 0.5618788049	-0.6459061038	-1.0056347208	 0.125226
N	 0.7028684587	-1.8937116723	-1.0625457535	-0.210261
C	 1.3669250725	-2.4445289778	-2.2283580699	-0.157888
C	 2.606283665	-3.2481560524	-1.8186469336	-0.181395
C	 3.2522861229	-3.995154681	-2.9912478762	 0.137529
C	 4.5205616844	-4.7409182502	-2.5746743948	-0.400032
O	 2.3236953467	-4.8741450339	-3.627034163	-0.428906
H	 0.8577759523	 1.817503741	-0.0133367207	 0.125361
H	-0.7087375268	 1.6896966519	-0.8658963153	 0.126426
H	-0.6543836145	 1.6553054916	 0.9142705975	 0.14568
H	 0.9002170461	 0.0616374464	-1.7803044418	 0.069721
H	 0.6747596118	-3.122293389	-2.7400630382	 0.118371
H	 1.6549778766	-1.6672634933	-2.9595299555	 0.074415
H	 3.3444811309	-2.5783282807	-1.3601062818	 0.092568
H	 2.3180804531	-3.9678284467	-1.0401348711	 0.098762
H	 3.5093656412	-3.2713466849	-3.7758991913	 0.085081
H	 5.2794113227	-4.0515370452	-2.1904393791	 0.114572
H	 4.3004468769	-5.4678291705	-1.7826865688	 0.1071
H	 4.9399074702	-5.2813347389	-3.4276414127	 0.122396
H	 2.0745232166	-5.5462051833	-2.9821579413	 0.276539
