16
gdb 54086	2.28325	1.21475	0.87278	1.3482	66.96	-0.2606	-0.0489	0.2117	1285.7597	0.121121	-475.076901	-475.067375	-475.066431	-475.113247	32.879	
N	-0.3900614839	 1.3545470551	 0.1828979715	-0.527533
C	-0.1359723724	 0.0752650467	-0.1808896948	 0.401229
O	 0.8952916114	-0.2883874605	-0.7142969044	-0.362926
C	-1.303782987	-0.9163966761	 0.0528717713	-0.204044
C	-0.8501659579	-2.3635030373	-0.1367684126	-0.327558
C	-1.9384046577	-3.2792015184	-0.6381486124	 0.147825
O	-3.0563885283	-2.9221842496	-0.9179520245	-0.241679
C	-2.0814155077	-0.7304441589	 1.3478006944	 0.161852
O	-2.3395788612	 0.3287611331	 1.8672221309	-0.261184
H	 0.3702329843	 2.0117928383	 0.1094948522	 0.261271
H	-1.1683894683	 1.5482375579	 0.7987632142	 0.279287
H	-2.0500913609	-0.6985276486	-0.7275705438	 0.168929
H	-0.0157210485	-2.3828374644	-0.8488962734	 0.174884
H	-0.43765739	-2.7939649911	 0.7869216545	 0.129875
H	-1.6342353731	-4.3432494934	-0.7472371511	 0.092483
H	-2.4406392088	-1.6765522029	 1.8047920081	 0.10729
