23
gdb 88461	2.841	1.15547	1.11808	1.4689	85.96	-0.2437	0.0682	0.3118	1271.2748	0.205204	-388.269309	-388.259823	-388.258879	-388.303283	37.082	
C	-0.2240127591	 1.432883502	-0.2532599143	-0.415629
C	-0.0750003023	-0.0211204318	 0.1436329324	-0.002115
C	 1.2160597357	-0.7778180322	-0.075289138	-0.313549
C	 0.7371776199	-0.5020655776	 1.3289127572	-0.008345
C	 1.5056833104	 0.3943598265	 2.2810113484	 0.38531
O	 2.2855833743	 1.2993815174	 1.5257355127	-0.477956
C	 0.6017281714	 0.9898021024	 3.4101240051	-0.269218
C	 1.0584353178	-0.1660254265	 4.3408874416	-0.214095
C	 2.2516893624	-0.4257623178	 3.3831817542	-0.267884
H	 0.6953424437	 1.9891526604	-0.0684393678	 0.139466
H	-0.4741828193	 1.5152211339	-1.317311556	 0.106331
H	-1.0303203222	 1.9162022693	 0.3110743839	 0.104984
H	-0.9763485006	-0.6069288171	-0.0259303066	 0.074657
H	 1.178512668	-1.7943293719	-0.452568124	 0.099085
H	 2.0687589014	-0.1997171362	-0.4123822448	 0.12742
H	 0.3024881728	-1.350953716	 1.8508373134	 0.0762
H	 2.7413376692	 1.8818302662	 2.1410302792	 0.27388
H	 0.9881865135	 1.9576686696	 3.7486909593	 0.08556
H	-0.4641644855	 1.0959951566	 3.195394959	 0.10312
H	 1.2969590892	 0.0914752335	 5.374572443	 0.098228
H	 0.3455987716	-0.99434548	 4.3508225312	 0.107494
H	 2.5207070397	-1.458327888	 3.1471309547	 0.101029
H	 3.1541245979	 0.102810017	 3.7093676063	 0.086027
