21
gdb 60888	2.72972	1.25971	1.03907	2.6698	83.43	-0.2445	-0.0204	0.2241	1231.4601	0.181776	-387.054735	-387.045812	-387.044868	-387.089342	33.468	
C	-0.002289543	 1.5289785685	 0.0504948406	-0.418847
C	 0.0172798112	-0.0064308083	-0.0303846614	-0.197899
C	-1.4008338925	-0.5469463799	-0.0087158377	 0.163663
O	-1.8091115736	-1.3978974686	 0.7382371093	-0.252044
C	 0.7203959674	-0.5008530686	-1.2864762569	 0.358854
C	 2.1892244435	-0.1904562911	-1.7184809149	-0.2665
C	 1.616572445	-1.1272574475	-2.8191840256	-0.045952
C	 1.0038035068	-1.9853653	-1.6786036703	-0.260274
C	 0.321090792	-0.2696090054	-2.7834380358	-0.259174
H	 1.0152233007	 1.9271666971	 0.0072660674	 0.129934
H	-0.5665345862	 1.9609795833	-0.7831486883	 0.124408
H	-0.4611835732	 1.8704898852	 0.9830881076	 0.126986
H	 0.5305648874	-0.4256908147	 0.8427067333	 0.09403
H	-2.0713970814	-0.086857758	-0.773792038	 0.070223
H	 2.4090028213	 0.8387225657	-2.0163060618	 0.090526
H	 2.9794716974	-0.6016576715	-1.0835429261	 0.09186
H	 2.1374316581	-1.4877789243	-3.7060770309	 0.075586
H	 1.7043311969	-2.5306369322	-1.0398343326	 0.092968
H	 0.13607088	-2.5999065955	-1.9341078072	 0.097129
H	-0.5958024382	-0.7546378737	-3.1304525019	 0.093712
H	 0.3993003005	 0.7532942195	-3.162802249	 0.090809
