21
gdb 111390	2.17652	1.48355	1.09981	2.5619	82.49	-0.238	-0.0197	0.2183	1206.8545	0.181553	-387.072214	-387.062995	-387.06205	-387.106787	34.111	
C	 0.0603473754	 0.995059654	-1.4241706055	-0.384698
C	-0.2510325752	 0.6174025105	 0.0282165576	-0.192996
C	-1.4672563958	-0.3010707456	 0.1243651815	 0.009454
C	-1.3746745413	-1.7378097953	-0.4173885028	-0.049679
C	-0.5011941049	-2.6031544394	 0.4469193287	-0.282792
C	-1.9046598566	-2.3068435253	 0.8977122332	-0.074999
C	-1.9815626582	-0.8775441018	 1.4991786032	-0.133427
C	-1.2108457704	-0.748911569	 2.7834395021	 0.149421
O	-0.0573728113	-0.4098031121	 2.8935690963	-0.255915
H	 0.9286485527	 1.6582913817	-1.4826383255	 0.11302
H	 0.2813598346	 0.1065778855	-2.025924442	 0.117482
H	-0.785071589	 1.5110298335	-1.8943212412	 0.107809
H	 0.618438177	 0.1438387859	 0.4896046245	 0.119518
H	-0.4412920511	 1.5247902206	 0.6145795896	 0.094775
H	-2.3197587142	 0.2011245115	-0.347583965	 0.074865
H	-1.6458076569	-2.0372360957	-1.4225202267	 0.087727
H	-0.345995052	-3.6120412853	 0.0785542458	 0.113629
H	 0.3473302936	-2.1880084852	 0.9828946039	 0.134505
H	-2.6420334242	-3.0821323542	 1.0627772861	 0.092864
H	-3.020258061	-0.590468519	 1.691130296	 0.08521
H	-1.7920041514	-1.0631190052	 3.6837287506	 0.074229
