16
gdb 8766	3.32076	1.31783	1.20275	3.5925	67.08	-0.2672	0.0031	0.2703	1051.982	0.129224	-379.957201	-379.948227	-379.947283	-379.991262	30.751	
C	-0.0496136894	 1.5869136295	-0.025779775	-0.391601
C	 0.0625728327	 0.0520241224	 0.0269087943	-0.139572
C	 0.7060232559	-0.458618834	-1.203333219	 0.286046
N	 1.2222228778	-0.8442782548	-2.1622367489	-0.315975
N	 0.7469437594	-0.4405347112	 1.2110002256	-0.030293
C	 2.1442628507	-0.0947559243	 1.4356343218	-0.361313
C	 0.1022898353	-1.2784232337	 2.0842202997	 0.162412
O	 0.5838332389	-1.7421863454	 3.0915138606	-0.327736
H	 0.9346805609	 2.0550812073	-0.0922479431	 0.147485
H	-0.6294403853	 1.8902075035	-0.9009450194	 0.147307
H	-0.5526103622	 1.9430220426	 0.8766052102	 0.139043
H	-0.950333182	-0.3668956122	 0.0524277661	 0.142417
H	 2.263075096	 0.9693795789	 1.6646478083	 0.13332
H	 2.4878003904	-0.6812997743	 2.2872724406	 0.177126
H	 2.7452065588	-0.3387667465	 0.5534924438	 0.150449
H	-0.9378526178	-1.4847151077	 1.7628631744	 0.080885
