19
gdb 41414	3.31394	1.84768	1.50662	1.6203	77.31	-0.2243	0.0907	0.315	919.7441	0.162208	-385.837987	-385.831553	-385.830609	-385.868386	27.57	
C	-0.04664924	 1.4702595243	 0.0356017004	-0.237686
C	 1.5108459441	 1.5740417185	-0.0610789258	-0.33706
C	 1.5567788815	 0.0807531769	-0.398068158	 0.318607
C	 2.4663968183	-1.0400306747	 0.0589408253	-0.167181
O	 1.7722853678	-2.2078504667	-0.425472195	-0.278308
C	 0.9448864047	-1.7876631035	-1.4977990124	 0.109249
C	-0.218807106	-0.8263249445	-1.2485981233	-0.11429
C	 1.1309613461	-0.3580029165	-1.8259160593	-0.177611
C	 0.0535982631	-0.091086011	 0.04458565	-0.049382
H	-0.4873343948	 1.9128314072	 0.9309639287	 0.101455
H	-0.569614675	 1.8650770588	-0.8385301865	 0.104496
H	 1.9353220479	 2.2670496053	-0.7927630464	 0.097754
H	 1.9598407733	 1.7850460896	 0.9146838971	 0.104089
H	 3.4795426495	-0.9897085319	-0.3706432265	 0.088761
H	 2.5459841145	-1.1217672671	 1.1480124136	 0.104871
H	 0.8242996439	-2.544076178	-2.2638945464	 0.102166
H	-1.1676021467	-0.942217735	-1.7648080319	 0.078515
H	 1.4112889571	 0.0800749259	-2.77548348	 0.084752
H	-0.2033715193	-0.5715906175	 0.9924207064	 0.066804
