14
gdb 2838	3.66164	2.4522	1.66666	4.2202	58.79	-0.2631	0.0281	0.2912	749.3643	0.112858	-324.563745	-324.556558	-324.555614	-324.59507	25.27	
C	-0.4073693898	 1.0140266014	-0.0423720222	-0.245878
O	 0.5933033342	 0.0187890581	 0.1254188244	-0.224145
C	 0.9783158229	-0.5774968686	-1.0542519956	 0.140902
C	 1.5638695352	-1.9374604677	-0.9502819429	-0.317831
C	 0.1833102652	-1.7781311945	-1.5905146518	-0.218792
C	-0.9769248316	-2.2283611837	-0.8806846081	 0.296967
N	-1.925834462	-2.5850681838	-0.3222312959	-0.342118
H	-0.0596937297	 1.8177317151	-0.7072643294	 0.110752
H	-1.3328743821	 0.5868918291	-0.4470574821	 0.134337
H	-0.6050137918	 1.4288227399	 0.9474021247	 0.140099
H	 1.3602348131	 0.1018255438	-1.8182686754	 0.101145
H	 2.3835043524	-2.2147299296	-1.6020632412	 0.133777
H	 1.5844085837	-2.3739688919	 0.0409806622	 0.156064
H	 0.1196983602	-1.8867641576	-2.6681312168	 0.134719
