15
gdb 35440	2.50124	1.42851	1.10204	2.3943	77.34	-0.2578	-0.0056	0.2522	1102.7742	0.112205	-379.600485	-379.592515	-379.591571	-379.633151	29.968	
C	 0.1033983377	-1.1990268357	 0.0302247154	-0.377402
C	 0.0501377883	 0.0018233369	-0.0105916836	 0.20546
C	-0.0585638493	 1.4198697547	-0.0313511513	 0.157568
C	 0.2785104711	 2.2778499816	-1.1932623157	-0.272198
N	 1.1355233917	 2.3923794643	-0.007602863	-0.153696
C	 0.3731387866	 3.2531667108	 0.9563602837	-0.17347
C	-0.810560956	 2.2391114954	 1.0403331412	-0.234883
C	-2.1542769297	 2.6943645919	 0.7172724769	 0.278621
N	-3.2081561437	 3.0818521852	 0.4416111153	-0.324437
H	 0.1592320736	-2.2594793837	 0.0582320307	 0.202116
H	 0.7690442299	 1.7858710352	-2.0260665522	 0.145423
H	-0.3813384046	 3.1005310354	-1.4631230589	 0.136443
H	 0.9149530756	 3.3467169081	 1.8973001236	 0.134317
H	 0.1322779085	 4.2455815291	 0.5665962334	 0.132701
H	-0.8203217496	 1.7190892009	 1.9994678244	 0.143436
