19
gdb 68281	2.17262	1.65006	1.47432	3.0184	76.1	-0.2467	-0.031	0.2157	1028.5661	0.156929	-422.98375	-422.974687	-422.973743	-423.017493	33.961	
C	-0.0044437546	 1.4304675077	-0.1520879657	-0.52486
C	 0.0199235631	-0.0680346078	-0.0349165739	 0.296933
C	 0.6782845948	-1.1070412954	-1.0020779155	-0.272441
C	 0.018871666	-1.9662484377	 0.110720126	-0.133785
C	 0.6137773021	-0.9379667664	 1.1228932878	-0.298397
C	-1.2315958316	-1.0216737944	 0.0120180781	 0.334908
O	-2.1305689339	-0.9554508207	 1.0969647363	-0.502491
C	-2.1466830034	-1.1260568715	-1.1972582526	 0.108916
O	-1.9628268138	-0.6173330609	-2.2742215252	-0.256925
H	 1.0081500081	 1.846231648	-0.1152866678	 0.118425
H	-0.4648942718	 1.7314445442	-1.0978861334	 0.142188
H	-0.5833561565	 1.8733749871	 0.6655441983	 0.124003
H	 0.281288626	-1.175332599	-2.0116971495	 0.12966
H	 1.7707584219	-1.11425282	-0.9944516442	 0.092845
H	 0.0055099611	-3.0538110341	 0.1962198917	 0.080248
H	 1.7037061746	-0.9401483894	 1.2057317225	 0.100088
H	 0.1658103499	-0.8453032106	 2.1162219579	 0.079634
H	-1.7045698854	-1.2853980034	 1.8925301191	 0.289626
H	-3.0633670567	-1.7168080757	-0.98128943	 0.091428
