18
gdb 7252	4.29111	1.19652	1.03196	4.5225	70.63	-0.2497	-0.0201	0.2296	1168.9011	0.15316	-381.163674	-381.154578	-381.153634	-381.197711	32.313	
C	-0.0342911439	 1.7030548952	 0.1105703517	-0.379261
C	-0.1028858607	 0.1768779294	 0.0320751028	-0.054642
C	 0.6510353667	-0.4789477774	 1.2079073679	-0.38482
C	-1.5418032692	-0.31843512	-0.0062642731	 0.3811
N	-2.5125162393	 0.3979341181	 0.3793851418	-0.500456
N	-1.6441256085	-1.6509862487	-0.4868740177	-0.337075
C	-2.7830621664	-2.4066098498	-0.6021377888	 0.16596
O	-3.9025032083	-2.0555488085	-0.3036594687	-0.299221
H	 1.0094117877	 2.0322745248	 0.1215017519	 0.103167
H	-0.538180072	 2.1657386943	-0.7413903877	 0.123621
H	-0.5280424065	 2.0627828301	 1.0159467382	 0.142736
H	 0.3805569616	-0.1473264846	-0.902149016	 0.076337
H	 0.6222984922	-1.5727504521	 1.1637394098	 0.104742
H	 1.7009708261	-0.1715547046	 1.2061714209	 0.121967
H	 0.2060158668	-0.1720503242	 2.1595089566	 0.138201
H	-3.3941494579	-0.1103604155	 0.3070836469	 0.251736
H	-0.7883762659	-2.0938299575	-0.786875151	 0.254363
H	-2.5610787225	-3.4104982291	-1.0141425955	 0.091543
