18
gdb 58027	1.78329	1.53803	0.9731	5.3364	73.24	-0.2639	-0.0336	0.2303	1256.0654	0.143936	-439.117717	-439.107278	-439.106334	-439.15366	36.574	
C	 0.0201483851	 1.4981379785	 0.1227054539	-0.43987
C	-0.0728037126	-0.0219073	 0.1580465034	 0.145825
O	 0.3611971733	-0.5554722482	 1.4005337267	-0.431213
C	-1.5132144591	-0.5551796669	-0.1420157617	-0.278543
C	-2.0192714639	-0.058420051	-1.4170908184	 0.299658
N	-2.4185538806	 0.3582152922	-2.4184200414	-0.328793
C	-1.457031848	-2.1104735663	-0.1526579172	 0.418855
C	-2.0387886534	-2.8021746952	 1.0544648611	-0.490294
O	-0.9335366889	-2.683618303	-1.0719775958	-0.291561
H	 1.0442682247	 1.8077656347	 0.3479592589	 0.137714
H	-0.2564948838	 1.8908120383	-0.8584922331	 0.160235
H	-0.6500506374	 1.9488686005	 0.8663152032	 0.114042
H	 0.5862629969	-0.4592331982	-0.5985077209	 0.13312
H	 0.0576887787	 0.0316020271	 2.1018468346	 0.28627
H	-2.1797453229	-0.2042841129	 0.6550033537	 0.115272
H	-3.096713156	-2.5413544846	 1.1723956044	 0.144094
H	-1.9294480872	-3.8824706185	 0.9565351644	 0.151131
H	-1.510477855	-2.4489361964	 1.9466298143	 0.154057
