16
gdb 123435	4.85342	0.96625	0.90556	2.5532	70.04	-0.2559	-0.0272	0.2287	1281.5048	0.126151	-434.038878	-434.031213	-434.030269	-434.07287	27.369	
C	-0.0786785193	 1.6048115472	 0.298104548	-0.365505
C	-0.1790800581	 0.0851649019	 0.3123462179	 0.025263
C	-1.3510577654	-0.5792510962	-0.3081933638	-0.243032
N	-0.0215070627	-0.6706422137	-0.9345285395	-0.304506
C	 1.3168031527	 2.0639098262	 0.0384425818	 0.447333
N	 1.8647867869	 2.3480809389	-1.1078264501	-0.31496
C	 3.1524418353	 2.6470104766	-0.7359230637	 0.042999
N	 3.399747919	 2.5627276642	 0.5414688362	-0.113544
O	 2.1627017305	 2.1681707048	 1.0708616823	-0.195829
H	-0.7110421894	 2.0129742296	-0.4954009409	 0.136734
H	-0.4230626062	 2.0110992118	 1.2546281597	 0.140918
H	 0.2988237133	-0.3851241347	 1.1690524154	 0.111632
H	-1.7309933343	-1.5109655177	 0.1006203537	 0.126247
H	-2.1065047703	 0.054366069	-0.766978526	 0.114636
H	 0.0494813977	-0.0316061439	-1.7237768422	 0.241998
H	 3.9220418303	 2.9382201163	-1.4358808089	 0.149614
