20
gdb 74389	3.21558	1.55651	1.21083	1.6135	84.78	-0.2068	0.0043	0.2112	1093.2888	0.171112	-365.943301	-365.935342	-365.934397	-365.975218	32.053	
C	-0.0072811343	 1.4807594911	 0.0408473114	-0.51006
C	-0.0250629452	-0.0067925078	-0.0250678428	 0.352003
C	-0.0597326775	-0.8597344752	-1.0504850411	-0.286687
C	-0.0131000345	-2.2318704891	-0.3996109898	 0.352432
C	 0.0914699476	-3.4409267775	-1.2968690309	-0.51424
C	-0.8946608072	-2.1709445527	 0.9008573326	-0.098918
C	 0.1755577705	-3.0135738003	 1.5995900739	-0.20015
N	 1.0443525681	-2.0679641363	 0.764437413	-0.17733
C	 0.0341049419	-0.949785984	 1.1631260487	-0.095468
H	 0.9008574229	 1.8441263814	 0.5382155065	 0.135059
H	-0.0489760229	 1.9259743644	-0.9568787103	 0.127777
H	-0.855395103	 1.8667254104	 0.6208331325	 0.127858
H	-0.0774602865	-0.6638219691	-2.1142971046	 0.099619
H	 1.0090642346	-3.3899810249	-1.8921242601	 0.132421
H	 0.1014932495	-4.383169036	-0.7440394712	 0.121364
H	-0.7569120663	-3.4688869502	-1.9892529208	 0.121709
H	-1.9899019311	-2.2171715529	 0.9758636369	 0.055314
H	 0.306044787	-2.8754693963	 2.6768071412	 0.094555
H	 0.2784448194	-4.0687451694	 1.3382505115	 0.096947
H	 0.1606961671	-0.5530990057	 2.1724316235	 0.065795
