14
gdb 1847	6.83669	1.97684	1.56299	3.4337	60.41	-0.2076	0.002	0.2096	763.2752	0.113831	-324.631468	-324.624768	-324.623824	-324.661894	24.669	
C	-0.0148469246	 1.4998801741	 0.039543503	-0.488858
C	-0.0017337763	 0.0086783832	-0.008992854	 0.26581
C	-0.049679893	-0.7794140242	-1.0899890931	-0.108628
N	-0.0175102223	-2.1416375309	-0.7424304807	-0.318544
C	 0.0561326814	-2.3158213648	 0.6268580871	 0.419312
O	 0.0963501672	-3.3729512776	 1.2123055595	-0.369816
C	 0.0705390466	-0.8888872113	 1.205610417	-0.439672
H	 0.8870337285	 1.8979616532	 0.5225764277	 0.125732
H	-0.0718066431	 1.9280710955	-0.9657214146	 0.123133
H	-0.8696697745	 1.8795338986	 0.6142721982	 0.125734
H	-0.106944614	-0.4981089809	-2.1324126602	 0.122255
H	-0.043617645	-2.914315222	-1.3860569981	 0.259323
H	 0.9794412222	-0.7453563086	 1.8023044081	 0.142061
H	-0.7749498232	-0.7641048842	 1.8928820899	 0.142158
