15
gdb 28849	3.22077	1.37548	1.02083	3.4166	82.81	-0.2184	-0.0743	0.1441	1114.2086	0.114138	-416.825142	-416.817641	-416.816697	-416.857256	28.848	
O	 0.080940876	 1.3056680284	 0.3788747157	-0.423088
C	 0.0098282032	-0.0271394431	 0.1048215495	 0.33421
C	-1.2048569192	-0.6289762177	 0.1730647852	-0.176675
C	-1.4945484289	-2.0023894376	-0.1248182204	-0.062516
C	-0.6320524462	-3.0363635672	-0.2315532076	-0.102823
C	 0.8148552773	-2.9843295408	 0.010810489	 0.287919
N	 1.394308544	-3.9799308997	 0.5641190405	-0.49742
N	 1.5550144161	-1.8917456553	-0.4810088385	-0.2528
C	 1.2221763103	-0.6608264437	-0.3981630251	-0.083424
H	 0.9973270645	 1.5988214267	 0.332849198	 0.305118
H	-2.0424024676	 0.0144739212	 0.4260949856	 0.115683
H	-2.5512909237	-2.2305768683	-0.2381321232	 0.108829
H	-1.0187612392	-4.0302694483	-0.4315949027	 0.123938
H	 2.4019134913	-3.8052234791	 0.6031501246	 0.216574
H	 1.9538884521	 0.0527900745	-0.8008930704	 0.106474
