20
gdb 13659	5.07876	0.87513	0.80155	0.917	81.63	-0.2541	0.059	0.3132	1455.0912	0.175273	-311.828766	-311.819472	-311.818528	-311.863133	34.049	
C	 0.0168554675	 1.5390248861	-0.2438536261	-0.404485
C	 0.0245874688	 0.0420847482	-0.0190387071	-0.011945
C	 1.3123258366	-0.7467153875	-0.0379051888	-0.292295
C	 0.5333817735	-0.6025980546	 1.2516722638	 0.01228
C	 1.0921571635	 0.1855435607	 2.4169256504	-0.205429
C	 2.055693344	-0.6647649096	 3.275138969	-0.34547
C	 2.6064934475	 0.0667974706	 4.40901051	 0.291668
C	 3.0459587256	 0.6959374563	 5.3344746869	-0.43917
H	 0.9122448524	 2.0206698783	 0.1588992595	 0.117559
H	-0.0200405157	 1.7668046	-1.3149043424	 0.116973
H	-0.8536588392	 2.0110876454	 0.2255831554	 0.116797
H	-0.8304467898	-0.4630854466	-0.4620596652	 0.082229
H	 1.3382668531	-1.7094141941	-0.5368411301	 0.107869
H	 2.2356772916	-0.1801863449	-0.1237654404	 0.107276
H	-0.016757861	-1.4896893283	 1.5603202687	 0.078817
H	 1.6297443606	 1.0716536542	 2.0658363181	 0.108201
H	 0.2790192179	 0.5500345723	 3.0560878365	 0.108744
H	 1.5290113786	-1.5576751501	 3.6371980795	 0.126607
H	 2.8719115833	-1.0327651518	 2.6406774245	 0.132458
H	 3.4407428411	 1.2397657354	 6.156268298	 0.191316
