19
gdb 13903	2.8976	1.56838	1.46116	3.212	73.03	-0.2414	0.0292	0.2706	998.7801	0.164704	-365.095597	-365.086322	-365.085378	-365.129241	33.785	
C	-0.1331817988	 1.2992007118	 0.6795216041	-0.416378
C	 0.1241058256	-0.0838000871	 0.1205255447	-0.021044
C	 0.5911741423	-0.3386015009	-1.2821268658	-0.019199
C	 0.854135745	 0.7584870814	-2.291315081	-0.416208
C	 1.5337555242	-0.6377117663	-0.1121172773	-0.153133
C	 2.7535283376	 0.1853217287	 0.1477953677	 0.422709
N	 3.8195208853	-0.5324728634	 0.6244007933	-0.531882
O	 2.8456309526	 1.3878084202	-0.0495500982	-0.380948
H	 0.6315751044	 2.0112591012	 0.3717329309	 0.161621
H	-1.1130464663	 1.6633223721	 0.3508223363	 0.109659
H	-0.1413975575	 1.2726444494	 1.7746744051	 0.110742
H	-0.5563678559	-0.8368970628	 0.5120179068	 0.084428
H	 0.1912781418	-1.2453257146	-1.7308670435	 0.084819
H	 1.3669317846	 1.6088474612	-1.843747007	 0.161523
H	 1.4823448869	 0.3833495698	-3.1065128088	 0.112142
H	-0.0891766958	 1.1006906697	-2.7316655288	 0.109091
H	 1.657861863	-1.6922095678	 0.11713806	 0.069243
H	 3.7312569128	-1.4860927253	 0.9272199896	 0.255495
H	 4.6362999483	-0.0142932474	 0.9043014218	 0.257321
