19
gdb 78266	2.56172	1.40652	1.13637	0.8825	75.75	-0.2045	0.0717	0.2762	1151.8781	0.157019	-422.939836	-422.930932	-422.929988	-422.972643	34.776	
C	-0.0194944659	 1.4965197697	 0.0743293318	-0.418704
C	 0.0092419617	-0.0181399944	 0.047090835	-0.036832
C	 1.3549509094	-0.6512401338	-0.2278775131	-0.065093
C	 0.7625655274	-0.6869327606	 1.1699313605	-0.143646
C	 0.7929440895	-2.2424012587	 1.139130056	 0.339262
O	 1.2830991257	-2.9436932829	 2.2284159629	-0.45151
C	 0.0893355497	-2.9234761192	 0.015902146	 0.001272
O	-1.2010553348	-2.6282698062	-0.4485818044	-0.415828
C	 1.3893727009	-2.2010551682	-0.2781159077	-0.201937
H	 0.915724627	 1.9053326624	 0.4732581088	 0.112231
H	-0.1591030034	 1.9054572964	-0.9322655267	 0.115922
H	-0.838481237	 1.8632747692	 0.7023190142	 0.118392
H	-0.8872804251	-0.4881630615	-0.3328930322	 0.110343
H	 2.1981319206	-0.0615945085	-0.5659671788	 0.085696
H	 1.1109134085	-0.1550977678	 2.0466273711	 0.087908
H	 0.5472187635	-3.1159147569	 2.8280704779	 0.286463
H	 0.2841940749	-3.997699662	 0.0810139048	 0.096761
H	-1.21694526	-2.8076435474	-1.395474898	 0.285786
H	 2.2383711374	-2.7434697897	-0.676766538	 0.093514
