17
gdb 41688	4.07459	1.4941	1.27169	1.6933	72.12	-0.241	-0.0031	0.2379	982.8215	0.138965	-417.989124	-417.982452	-417.981507	-418.020025	26.556	
C	 0.0063677523	 1.4941023683	 0.1395166037	-0.097041
O	 1.3456712752	 1.961314115	-0.0011189179	-0.256333
C	 2.1236408265	 1.0064385887	-0.7157892399	-0.165053
C	 1.4226685494	-0.3174375382	-0.5281640399	 0.304654
C	 1.7367175356	-1.6391812034	-1.207265589	-0.273938
N	 1.3423449458	-2.6681230019	-0.2243994676	-0.205829
C	 0.9978557678	-2.0570989068	 0.8372782908	 0.038063
N	 1.088275875	-0.6332967743	 0.8937237799	-0.165181
C	 0.0712588924	-0.0085508247	-0.0082293144	-0.102174
H	-0.3596093721	 1.8262989598	 1.1159409505	 0.122251
H	-0.6498135859	 1.9066922547	-0.644100591	 0.097461
H	 2.1776918575	 1.2503851836	-1.7896624275	 0.09682
H	 3.1373148641	 1.025597693	-0.3021498833	 0.120364
H	 1.1993917598	-1.795710189	-2.1484853476	 0.123843
H	 2.8076588494	-1.7375749997	-1.4274483509	 0.123888
H	 0.6645869048	-2.5751304752	 1.7321474755	 0.128895
H	-0.8090797375	-0.5856087799	-0.2713012314	 0.10931
