17
gdb 94796	2.90867	1.46054	1.07903	3.1863	68.82	-0.2537	-0.0477	0.206	1100.5816	0.135332	-458.965084	-458.956972	-458.956028	-458.997904	30.755	
O	 0.0908463631	 1.3985469671	 0.1404487045	-0.440868
C	-0.009324448	 0.0091736937	 0.023775218	 0.064791
C	-1.4383164016	-0.5508855562	-0.0744981482	-0.256458
C	-1.2258500049	-1.9711093545	-0.6599109886	-0.323445
C	-0.0596003574	-1.8060390955	-1.626768972	 0.326337
C	 0.642204692	-2.8756214167	-2.3549874787	-0.23483
O	-0.263343135	-2.0149473711	-3.0295771665	-0.249286
C	 0.6377656237	-0.5166687821	-1.2542225835	 0.312615
O	 1.4900176406	 0.0675380111	-1.8755626763	-0.332525
H	 0.7986615675	 1.6667612479	-0.4643798268	 0.294014
H	 0.5028681726	-0.496726365	 0.8665150063	 0.093976
H	-1.9611030726	-0.5551035699	 0.8834818629	 0.115397
H	-2.0090130018	 0.0727225138	-0.7711475952	 0.125747
H	-0.9611232708	-2.6758855933	 0.1366183342	 0.115971
H	-2.1078185377	-2.3610388228	-1.1715676767	 0.131397
H	 1.6922523618	-2.7410112852	-2.6100135093	 0.134532
H	 0.3074846086	-3.9036005213	-2.218648014	 0.122634
