23
gdb 95014	2.41373	1.73432	1.33551	0.2752	87.23	-0.2375	0.0774	0.3149	1085.4543	0.208663	-351.139695	-351.13174	-351.130796	-351.171795	32.786	
C	-0.1418926505	 1.5828476143	-0.0774632567	-0.403625
C	 0.0009393458	 0.0621277471	-0.0035815951	 0.031323
C	 0.6498128839	-0.5804799421	-1.2603337875	-0.227446
C	 1.3091776562	-1.9047602151	-0.7930624785	-0.2349
C	 1.5982410182	-1.7356313723	 0.713131104	-0.016443
C	 2.9147123899	-1.0965026885	 1.2030424387	-0.061573
C	 3.2035660122	 0.2223009322	 0.5481775217	-0.283903
C	 2.1595367032	 0.1693955516	 1.6315918979	-0.064865
C	 0.822307508	-0.4659323081	 1.1911725032	-0.020483
H	 0.8383834188	 2.0673688143	-0.1383276662	 0.120332
H	-0.7212494693	 1.8860539248	-0.9563562768	 0.107944
H	-0.6527704419	 1.9785923019	 0.8072473298	 0.107407
H	-1.0051836007	-0.36828087	 0.0987048582	 0.065886
H	-0.0905416001	-0.7496231841	-2.0492498583	 0.08717
H	 1.3946672816	 0.0982989766	-1.6884097433	 0.100812
H	 0.6100973812	-2.736270215	-0.9366512457	 0.093628
H	 2.2077305774	-2.1448155125	-1.370328284	 0.096781
H	 1.3641133846	-2.639147271	 1.2797723852	 0.065132
H	 3.6869770187	-1.634289215	 1.7407669428	 0.078817
H	 4.1377264034	 0.6790186641	 0.8627230545	 0.107449
H	 2.9625701758	 0.4178188825	-0.4896236265	 0.108015
H	 2.2824340358	 0.7480416993	 2.5398382484	 0.078969
H	 0.1913199879	-0.6463774352	 2.0650962943	 0.063573
