18
gdb 61671	3.84644	0.81107	0.7699	4.4729	73.01	-0.2586	0.0109	0.2696	1502.9209	0.146938	-439.071199	-439.06193	-439.060985	-439.106402	32.711	
O	-0.1531220492	 1.4048068524	 0.1133207329	-0.410578
C	 0.0348802899	 0.0102299214	-0.0530377595	-0.018986
C	 0.8237373173	-0.3441836421	-1.3276445022	-0.232262
C	 0.0683697996	 0.0977352116	-2.5712119094	 0.155758
C	 0.5467836466	-0.4471859301	-3.9352050403	-0.307486
C	-0.8561977061	-1.083060607	-4.011375059	-0.058283
O	-1.1974940689	-0.5961790921	-2.6944610324	-0.296085
C	 0.6737614437	-0.5841451741	 1.1380404441	 0.256061
N	 1.2077251404	-1.025094064	 2.0632854721	-0.31712
H	 0.704976585	 1.8064972979	 0.2930934867	 0.294133
H	-0.9713214587	-0.4110172198	-0.1499102096	 0.164162
H	 1.8109787281	 0.1351086371	-1.2946627952	 0.107244
H	 0.9837264781	-1.4277365086	-1.3585650581	 0.12269
H	-0.0889725935	 1.182781261	-2.5440158823	 0.091619
H	 0.7738941737	 0.3031945834	-4.6931784292	 0.116954
H	 1.3729700878	-1.1585930855	-3.8744552103	 0.1137
H	-1.5172547294	-0.6659807562	-4.78042054	 0.108763
H	-0.8944123644	-2.1769017552	-4.0663192383	 0.109717
