17
gdb 55491	4.74963	0.65891	0.6058	4.4407	79.42	-0.2276	0.0233	0.2509	1803.8061	0.134846	-417.981746	-417.971718	-417.970774	-418.020178	34.09	
N	-0.3690469926	 1.2531521393	 0.4188552677	-0.528234
C	-0.3824688936	-0.1035181925	 0.5817951793	 0.43039
O	-0.0846681401	-0.6456941298	 1.6216421664	-0.336904
C	-0.7677351701	-0.8658640333	-0.7049221031	-0.503157
C	-0.9900252505	-2.2833068179	-0.4835826591	 0.076398
C	-1.1672865262	-3.4579700397	-0.2871962102	 0.124501
C	-1.3912600325	-4.8452118471	 0.0053559602	-0.160381
C	-0.3226707366	-5.6395705999	 0.6841812841	-0.225651
N	-1.5393195673	-5.2792988704	 1.4175213113	-0.309127
H	-0.1735880152	 1.8216426384	 1.2264682896	 0.264679
H	-0.7324648811	 1.7004829534	-0.4043429156	 0.259885
H	-1.660133767	-0.3985020286	-1.1427113539	 0.139978
H	 0.040589958	-0.7083137623	-1.4328855182	 0.155681
H	-2.0611337275	-5.3674136168	-0.6731652113	 0.112821
H	-0.2222484587	-6.6961279039	 0.4516775037	 0.121506
H	 0.6048594702	-5.1257126198	 0.9175093079	 0.128361
H	-1.3481156792	-4.4809795192	 2.0193579811	 0.249256
