19
gdb 120523	5.57949	0.70484	0.66877	5.662	77.89	-0.2487	0.0169	0.2656	1674.412	0.15919	-419.181866	-419.172467	-419.171523	-419.21701	33.192	
C	 0.6234840978	 1.404113089	 0.051750418	-0.229508
O	 0.1727006943	 0.0734327862	-0.0600813996	-0.234451
C	 0.566807658	-0.549766741	-1.2610157232	-0.071946
C	 0.0303086798	-1.9737161553	-1.238001743	 0.029758
C	 0.7171150338	-2.919766261	-2.256135151	-0.269421
C	 1.541109574	-3.4494474594	-1.0422068756	-0.111637
N	 0.5581401055	-2.8158865688	-0.1380274526	-0.301418
C	 1.680177572	-4.899680019	-0.8939653764	 0.291163
N	 1.8010286951	-6.0448876931	-0.7961478937	-0.322453
H	 1.7226547126	 1.4661658786	 0.01962898	 0.106392
H	 0.2201942598	 2.0386994734	-0.7523169943	 0.109779
H	 0.2747973587	 1.7870062822	 1.0134979999	 0.13408
H	 0.1687445483	-0.0103117901	-2.1381545475	 0.092757
H	 1.6686029971	-0.5492241078	-1.3505594117	 0.081102
H	-1.0638157889	-1.9447331496	-1.2586684291	 0.092771
H	 0.0463335792	-3.6734369481	-2.6668910657	 0.138463
H	 1.2917674081	-2.4592893721	-3.0606402839	 0.118877
H	 2.5480991335	-3.0116128373	-1.0130623996	 0.112897
H	 0.9363794112	-2.3050273068	 0.6528376591	 0.232794
