15
gdb 7312	3.49143	1.45993	1.07389	6.7774	59.64	-0.2619	-0.0006	0.2612	1050.1789	0.116785	-436.990372	-436.981576	-436.980632	-437.024518	30.617	
C	-0.1665190696	 1.7714642242	-0.1140990024	-0.429427
C	 0.1204595864	 0.2781525349	-0.0134442542	 0.006892
O	 0.9168319818	 0.082362573	 1.15109349	-0.180539
C	 1.6644308288	-1.0473628753	 1.2216431224	 0.188643
O	 2.2895761971	-1.3272597464	 2.1976835285	-0.278384
C	-1.1059749674	-0.6616651037	 0.0728131279	 0.406717
N	-2.2623915159	-0.203757533	-0.478019647	-0.523668
O	-0.9930963332	-1.7708355415	 0.5529885235	-0.347726
H	 0.7752772049	 2.3239248349	-0.0862717076	 0.148791
H	-0.665701496	 2.0152335756	-1.0568819188	 0.12246
H	-0.7844006186	 2.1109732925	 0.7218162017	 0.144838
H	 0.6824706351	-0.0462538812	-0.9023592426	 0.116273
H	 1.6525563397	-1.6325551705	 0.2869301726	 0.08942
H	-2.3982223968	 0.7601312204	-0.7242082284	 0.265392
H	-3.0745181363	-0.796116854	-0.4052073155	 0.270318
