12
gdb 5647	5.49493	2.24436	1.5935	2.8579	61.47	-0.2041	-0.002	0.2022	718.6025	0.087943	-377.553237	-377.547906	-377.546962	-377.58242	21.312	
N	 0.0172196185	 1.3422034723	 0.009601543	-0.233764
C	 1.3048754533	 1.8576711181	-0.0001931789	-0.236052
C	 2.1036594054	 0.7451643307	-0.0139795063	 0.294274
O	 3.419787605	 0.3728245406	-0.028809683	-0.223985
C	 3.339064949	-1.0060842814	-0.0354359234	 0.041258
N	 2.1647119758	-1.534906952	-0.0269758987	-0.346976
C	 1.3155143094	-0.4243157612	-0.0126676235	 0.229655
C	-0.0080010906	-0.0353506751	 0.002295159	-0.204587
H	-0.8076625041	 1.9161414834	 0.0207868325	 0.26751
H	 1.4908103763	 2.9167823799	 0.0037360011	 0.133876
H	 4.290034613	-1.5172058508	-0.0474601371	 0.145729
H	-0.9369269611	-0.5789080844	 0.0083567755	 0.133061
