18
gdb 33016	4.93577	0.90853	0.77926	2.5022	82.05	-0.2479	-0.0181	0.2297	1450.3149	0.149226	-401.993999	-401.985642	-401.984698	-402.028297	30.04	
C	 0.4033971801	 1.4280026607	-0.0549428158	-0.225985
O	 0.4822505541	 0.0232631044	-0.1135448172	-0.230854
C	 0.1994492568	-0.5932972949	 1.1212533172	-0.157921
C	 0.3828931792	-2.0854929536	 1.0002427428	 0.219501
C	-0.2592301892	-2.9546149951	 1.8844927806	-0.056417
N	-0.1201419447	-4.2810636382	 1.8721195749	-0.265812
C	 0.6828102546	-4.8006566191	 0.9392336218	 0.001468
C	 1.362504512	-4.0311492067	-0.0002457009	-0.116133
C	 1.211581764	-2.6494417432	 0.0322600739	-0.143131
H	 1.118286027	 1.8467129053	 0.6709036257	 0.107338
H	 0.6436082696	 1.8093711182	-1.049969951	 0.131299
H	-0.6063622064	 1.7684561032	 0.222797135	 0.108359
H	 0.8695098335	-0.1932835918	 1.9042549611	 0.104249
H	-0.8298166671	-0.3642450731	 1.4463736185	 0.100348
H	-0.9271484995	-2.5535376479	 2.6461989559	 0.097892
H	 0.7825823131	-5.883553716	 0.9417215068	 0.106277
H	 1.9955825968	-4.5064578056	-0.7416595746	 0.100151
H	 1.7142442764	-2.0079418067	-0.6814297148	 0.119371
