19
gdb 65393	4.06899	0.92864	0.90961	3.0355	77.97	-0.2521	-0.0022	0.25	1341.1766	0.158305	-419.170937	-419.16178	-419.160836	-419.205446	33.418	
C	 0.1758106716	 1.3256301542	 0.4249724341	-0.491264
C	-0.069198597	-0.1443586495	 0.1408790851	 0.274796
C	 0.9993287069	-0.905731974	-0.6114479795	-0.278435
N	 0.7926470175	-1.1266303583	 0.7994934345	-0.085923
C	 1.7402306689	-0.8822888575	 1.7764184181	 0.136771
O	 2.9214690245	-1.1041900124	 1.6651411636	-0.288784
C	-1.4902773383	-0.6158045193	-0.0260591682	-0.024611
C	-2.6573372307	 0.1311921178	 0.5085440029	-0.251571
N	-2.4249455948	 0.0531019815	-0.9444774137	-0.322676
H	 1.2468877851	 1.5429418562	 0.4342881121	 0.143304
H	-0.2809293977	 1.9582508262	-0.3432939206	 0.128163
H	-0.2397779049	 1.6229892677	 1.3923875164	 0.136772
H	 0.7113063515	-1.7216570058	-1.2688094861	 0.131358
H	 1.9034142084	-0.3747539897	-0.8989268141	 0.135211
H	 1.2770293131	-0.5210648467	 2.7145009021	 0.084672
H	-1.5570239091	-1.7007696375	-0.0624778421	 0.101629
H	-3.526857532	-0.414531561	 0.8632369133	 0.12654
H	-2.4839909411	 1.0766285466	 1.0139667637	 0.11335
H	-2.0290199216	 0.9280802314	-1.2797412817	 0.230697
