21
gdb 102989	1.93735	1.38001	1.10868	1.8528	85.94	-0.2353	0.0505	0.2858	1258.5766	0.179025	-387.046049	-387.035347	-387.034403	-387.081262	39.52	
C	-0.3768532153	 1.5158468416	-0.0875111717	-0.384398
C	 0.1701912919	 0.0963503678	 0.0993246513	-0.248591
C	 0.7733045497	-0.477258231	-1.1826351088	 0.07955
C	 1.9085457015	 0.246914169	-1.6938509685	 0.287262
C	 2.8651978008	 0.8457850848	-2.1126170292	-0.448214
C	 0.7815921942	-1.9960669484	-1.4414047198	-0.104737
C	 0.2579790148	-2.9949795398	-0.4328793947	-0.42928
C	-0.1484783701	-1.1001923809	-2.2214619184	 0.050512
O	-1.5112838965	-1.0750034078	-1.9119452471	-0.419572
H	 0.4030701221	 2.1952512585	-0.443812866	 0.126323
H	-1.1921657376	 1.5192200094	-0.8167402298	 0.130969
H	-0.7634271442	 1.9086548041	 0.8580621223	 0.105458
H	 0.9436860457	 0.0914153825	 0.8763585675	 0.099518
H	-0.6343799486	-0.5558209551	 0.4428451242	 0.109525
H	 3.7052380515	 1.3784351981	-2.4834836466	 0.187956
H	 1.6545803278	-2.3327256095	-1.9930145712	 0.095561
H	-0.731488324	-2.7196129959	-0.0623407472	 0.130091
H	 0.1747801269	-3.985485407	-0.8943504191	 0.115735
H	 0.9304197965	-3.089149598	 0.4258259526	 0.126977
H	 0.0852955334	-0.9014790022	-3.2662746757	 0.09715
H	-1.9150240405	-1.8728512002	-2.2702569342	 0.292204
