11
gdb 23779	3.35536	2.2954	1.36298	4.3309	55.68	-0.2498	-0.0481	0.2017	790.378	0.072686	-442.533754	-442.527764	-442.52682	-442.56402	22.352	
F	-0.0325628455	 0.0357919695	 0.0048014142	-0.051873
C	-0.028280336	 1.361643236	 0.0109855436	 0.091116
C	-1.1960176968	 2.0286049559	 0.029389645	-0.045847
O	-1.2653925518	 3.3815329303	 0.0366424973	-0.181073
C	-0.1075070812	 4.0747560104	 0.0247356799	 0.083901
C	 1.1078158267	 3.5012960456	 0.0061468215	-0.269205
C	 1.2742538808	 2.0461636988	-0.0028186742	 0.29156
O	 2.3425918583	 1.4595056621	-0.0196088088	-0.36585
H	-2.1688452387	 1.5564144206	 0.0398918184	 0.15938
H	-0.2936854754	 5.1411884414	 0.0321587343	 0.152602
H	 1.9969484494	 4.1194857093	-0.0026051212	 0.135289
