21
gdb 122593	3.78562	0.77012	0.67184	2.0743	80.96	-0.2252	-0.0243	0.2008	1732.8567	0.18018	-424.229279	-424.219236	-424.218292	-424.265545	35.559	
C	 0.1689297517	 1.442685757	-0.1892042356	-0.383448
C	-0.1191673236	-0.0250048814	 0.1362625525	-0.183964
C	 0.8363639154	-0.5821913607	 1.1806409168	-0.053856
O	 0.4862583886	-1.9403156819	 1.4316578053	-0.256455
C	 1.2933159851	-2.5620698489	 2.3801914814	 0.056263
C	 0.9427991038	-4.0395648858	 2.7082279358	-0.272566
C	 2.4535412463	-4.4204053128	 2.6617266622	-0.341162
C	 2.6977949475	-3.071919607	 1.9588459684	 0.368162
O	 3.5492966544	-2.6478048935	 1.2322596711	-0.29596
H	 1.1854580198	 1.5731025759	-0.57602903	 0.120945
H	-0.5250550014	 1.8201123646	-0.9455685729	 0.117539
H	 0.06858322	 2.0765836352	 0.6988625767	 0.115601
H	-1.1454117242	-0.1403923098	 0.5037604854	 0.104497
H	-0.0396593753	-0.6374919024	-0.7690187308	 0.109819
H	 1.8758696411	-0.520106402	 0.831464338	 0.120184
H	 0.765469639	-0.0028798762	 2.1177872456	 0.082628
H	 1.3807182262	-1.9583866678	 3.301802493	 0.082803
H	 0.4129378701	-4.2151256572	 3.6442326486	 0.112075
H	 0.3839138357	-4.4825475186	 1.8815288495	 0.129729
H	 2.9253378189	-4.455356936	 3.6488613573	 0.132795
H	 2.7455405309	-5.3116918908	 2.1028839715	 0.134371
