15
gdb 30301	3.14514	1.6076	1.15321	0.6029	66.67	-0.2025	0.025	0.2275	1009.8277	0.114349	-457.770931	-457.763831	-457.762887	-457.80261	27.407	
O	 0.0799640791	 1.4777582389	 0.1808000692	-0.424373
C	 0.0510271134	 0.071347374	-0.0342614645	-0.044326
C	 0.6256075749	-0.7551523073	 1.1816819948	-0.121154
O	-0.481235836	-1.4486883191	 1.8556936835	-0.27851
C	-1.4842877231	-1.2982893687	 0.9865407274	 0.442908
C	-1.3171552242	-0.5315251511	-0.1144960628	 0.100247
C	-2.5853905644	-0.5899759468	-0.7913045553	-0.353781
C	-3.3759292959	-1.392384151	-0.0287093752	-0.021534
O	-2.6899646239	-1.8471365286	 1.1004866226	-0.202637
H	-0.6638227631	 1.6940269799	 0.7547272622	 0.27849
H	 0.6850262151	-0.0825374073	-0.912486553	 0.100553
H	 1.3258520351	-1.5258186443	 0.8489483737	 0.128178
H	 1.1056052254	-0.1005784484	 1.9105799576	 0.133764
H	-2.880260335	-0.114425634	-1.7138004174	 0.122103
H	-4.3888946874	-1.7451261462	-0.1101945228	 0.140073
