21
gdb 87447	2.49331	1.50502	1.29552	1.5084	83.44	-0.2303	0.0641	0.2944	1102.1261	0.181611	-387.017019	-387.008215	-387.007271	-387.049991	34.627	
C	-0.0580400386	 1.4818502476	-0.0047877402	-0.532815
C	-0.0121816107	-0.0234242339	-0.0084688623	 0.258972
C	 0.6554693019	-0.9567530217	-1.0723659116	-0.253213
C	 0.0392887601	-1.9200423734	-0.0149328599	-0.135578
C	 0.6042936096	-0.9658890699	 1.0786261198	-0.251462
C	-1.2047701178	-1.0141959535	-0.0444166502	 0.375449
C	-2.5098769768	-1.0279475989	 0.7024060413	-0.447896
C	-2.4662502067	-1.0195710115	-0.8228085394	 0.014744
O	-2.9047206261	 0.0847915253	-1.5719171178	-0.430844
H	 0.9500664898	 1.9045311503	 0.0640250142	 0.124358
H	-0.5141238936	 1.8650065315	-0.9246089134	 0.122954
H	-0.632662946	 1.8601906851	 0.848892026	 0.117588
H	 0.2030638896	-0.9612382785	-2.0667901136	 0.1014
H	 1.7482705817	-0.9262891602	-1.1208556286	 0.083673
H	 0.061092613	-3.0099930138	-0.0188186135	 0.072087
H	 1.6934917045	-0.9351520199	 1.1815184061	 0.083746
H	 0.1054701169	-0.9814775868	 2.0510280317	 0.091215
H	-2.8391085292	-1.9302877284	 1.210309268	 0.113072
H	-2.8299727093	-0.109392511	 1.1910695021	 0.104109
H	-2.7647793149	-1.9313351677	-1.3324596894	 0.104805
H	-2.7371225874	 0.8836088892	-1.0623781993	 0.28364
