19
gdb 125953	2.84336	1.62413	1.08593	1.8919	81.52	-0.2273	0.0229	0.2502	1117.3146	0.163059	-382.107618	-382.099967	-382.099023	-382.13961	30.123	
C	-0.0503686643	 1.5741575692	 0.0327976159	-0.39289
C	 0.0425837902	 0.0470322277	 0.0491239076	-0.101885
C	 0.7755790583	-0.563581689	-1.1902948072	-0.208441
C	 1.4915572191	-1.8724148088	-0.7215984252	-0.366283
C	 1.6667197924	-1.6106962511	 0.7454665315	 0.232103
C	 2.3104509975	-2.0320759584	 1.8850807062	-0.222556
N	 1.8572503443	-1.2148956391	 2.8816620649	-0.185329
N	 0.9614017023	-0.2864300531	 2.46525849	-0.345057
C	 0.8554355989	-0.5414626179	 1.1693291345	 0.342112
H	 0.9472281411	 2.0236225799	-0.0138117864	 0.114796
H	-0.6225489309	 1.9237398326	-0.833110008	 0.106771
H	-0.5412739141	 1.944148704	 0.9375780407	 0.128401
H	-0.9780588293	-0.3603784955	 0.0977908886	 0.08531
H	 0.0989783072	-0.7340895835	-2.0322160955	 0.094565
H	 1.5353695398	 0.1521972253	-1.5253620601	 0.10383
H	 0.8573479355	-2.7512255811	-0.8980969536	 0.108509
H	 2.4243634235	-2.0437647358	-1.2679219963	 0.106172
H	 3.032360444	-2.8080267831	 2.0865723987	 0.130283
H	 2.1399644545	-1.2160429421	 3.8467688637	 0.269592
