19
gdb 22662	3.76687	0.90885	0.77501	2.8992	86.86	-0.1823	-0.0081	0.1742	1489.8277	0.159294	-419.188094	-419.178787	-419.177843	-419.2226	34.371	
C	 0.0339059004	 1.513726217	 0.3223107945	-0.380768
C	-0.0243919918	 0.0413934259	-0.1255716223	-0.288498
C	-1.4140082959	-0.5147203062	-0.168262025	 0.378241
C	-2.1165858993	-0.9342839382	-1.2500975511	-0.342754
C	-3.4266544702	-1.3631327196	-0.8057295821	 0.399153
C	-3.5037208515	-1.0659122937	 0.686526583	-0.247732
N	-2.1196578984	-0.6906974465	 1.0173824418	-0.360914
N	-4.4099737619	-1.9100127998	-1.4185744547	-0.270197
O	-4.1009847274	-2.0873028032	-2.7886571073	-0.40443
H	 1.0650900886	 1.8775382585	 0.3047311153	 0.12421
H	-0.5635699166	 2.146806779	-0.3402107164	 0.131145
H	-0.3404893919	 1.646542805	 1.3429426702	 0.113569
H	 0.416805964	-0.0547484992	-1.1214883962	 0.120765
H	 0.5825924743	-0.5684090536	 0.5557581946	 0.119871
H	-1.7519095821	-1.0037895838	-2.2612362623	 0.112005
H	-4.1971353171	-0.2385677079	 0.8866191564	 0.124747
H	-3.8346759059	-1.931389034	 1.2676269451	 0.133864
H	-1.9944158236	 0.0018243789	 1.7408529461	 0.238184
H	-4.9015622637	-2.5076792184	-3.1174355695	 0.299537
