14
gdb 18803	3.3472	3.14991	2.42039	0.1865	59.98	-0.2423	-0.0131	0.2293	628.5635	0.109361	-382.481118	-382.476037	-382.475092	-382.50994	21.657	
O	-0.0330926862	 1.4449716508	 0.0992549333	-0.288063
C	 1.4376535869	 1.4153163496	-0.0181321743	-0.014155
C	 1.9517276859	 1.2514242865	 1.3807623173	-0.051194
C	 1.4958434066	 0.1445882098	 1.9807605157	-0.051194
C	 0.788293556	-0.7842992722	 1.0402393812	-0.014153
O	 1.7738562557	-1.1177910625	-0.0062833041	-0.288064
C	 1.3098680509	-0.0137274707	-0.7556761615	 0.068896
C	-0.0465073404	 0.0419472747	-0.0655977422	 0.068897
H	 1.8111518647	 2.2712510632	-0.5796341054	 0.080811
H	 2.5704813541	 2.003291181	 1.8562370091	 0.107496
H	 1.6677436906	-0.1121571918	 3.0193980149	 0.107496
H	 0.3492584693	-1.6812722766	 1.4762407059	 0.080811
H	 1.5397517515	-0.0562150519	-1.8207181068	 0.096207
H	-1.0022812855	-0.3701272197	-0.390646303	 0.096207
