16
gdb 44073	3.17291	1.68245	1.49262	4.2193	69.27	-0.2341	0.0092	0.2433	908.6132	0.125608	-437.792964	-437.786404	-437.78546	-437.82359	27.203	
O	-0.1060689287	 0.045041347	-0.0435257982	-0.370373
C	 0.0046428907	 1.2388917715	 0.0655750493	 0.438013
N	-0.9871469312	 2.1931046349	 0.2550490477	-0.333954
C	-0.2870897721	 3.4998586337	 0.1096880656	 0.243853
C	-1.0213067264	 4.3275995876	-0.9750896524	-0.198735
O	-0.3367371964	 3.4989339787	-1.9959484716	-0.311932
C	 0.7067614971	 3.2751011788	-0.9860418626	 0.142466
C	 1.2384616193	 2.1340147471	-0.0215381261	-0.244685
C	 0.8945687302	 3.2537133233	 1.1070751949	-0.319703
H	-1.8892496576	 2.0454416181	-0.173460643	 0.253304
H	-2.1096433247	 4.2446200879	-1.0455998931	 0.123046
H	-0.7058570986	 5.3737809067	-1.0455420125	 0.123306
H	 1.4683564681	 4.0525852005	-1.1041155223	 0.096193
H	 2.2102005167	 1.6529286194	-0.1039358216	 0.10192
H	 1.6438760745	 4.0445786276	 1.1490152228	 0.125326
H	 0.6453464593	 2.8763032273	 2.100015363	 0.131955
