23
gdb 116949	5.0242	0.46752	0.45175	1.4951	92.32	-0.2424	0.0591	0.3015	2498.4595	0.202845	-388.272625	-388.260907	-388.259963	-388.312763	40.757	
C	-0.4821463655	 1.3280520627	-0.1762788526	-0.379534
C	 0.0534669143	-0.0853480489	 0.076042076	 0.052107
C	 0.7416481061	-0.6533378331	-1.1706159001	-0.390343
C	 1.0257112624	-0.1173518541	 1.2815406926	-0.347976
C	 0.4159608991	 0.2696830366	 2.5495142424	 0.042956
C	-0.1057180852	 0.5938365831	 3.5863587154	 0.079381
C	-0.7263508802	 0.9547689499	 4.8550325945	-0.325425
C	-0.9742157283	-0.2598961277	 5.7559635747	-0.062372
O	-1.5765293953	 0.2216218424	 6.9457694064	-0.415759
H	 0.3320902898	 2.0098209998	-0.4513725796	 0.108504
H	-1.2087376828	 1.331699274	-0.9952118428	 0.108474
H	-0.9696033035	 1.7304104916	 0.7159364133	 0.127104
H	-0.7955594467	-0.733854124	 0.3286679366	 0.081657
H	 1.6105326907	-0.0452640791	-1.4504252286	 0.112267
H	 1.0911165359	-1.678311645	-1.0060605615	 0.109436
H	 0.0581641894	-0.6652077335	-2.0255730679	 0.111332
H	 1.4438351794	-1.1284428573	 1.3753965286	 0.119029
H	 1.879176454	 0.5417575568	 1.0663519816	 0.120153
H	-0.0976335537	 1.6675528109	 5.4029022948	 0.134243
H	-1.6860064677	 1.4584660397	 4.6853578198	 0.133943
H	-1.6235016484	-0.9767379103	 5.2313538101	 0.096073
H	-0.0180292961	-0.765134573	 5.9585054229	 0.096562
H	-1.7374757076	-0.5270113416	 7.5269672635	 0.288188
