18
gdb 64518	3.54073	1.41378	1.25864	2.9469	75.09	-0.2438	-0.0232	0.2207	1031.8255	0.147632	-401.898765	-401.890992	-401.890048	-401.930971	30.031	
C	-0.0325700617	 1.6078765198	 0.0048849397	-0.479345
C	 0.0688918375	 0.0914555456	-0.02966795	 0.204168
C	-1.2919118932	-0.5682212925	 0.0946561147	 0.131028
O	-2.3299812554	 0.0339310142	 0.2074019882	-0.265581
C	 0.857151799	-0.6248749236	-1.12759549	-0.08926
C	 2.2904682781	-0.7397352407	-0.7167112029	-0.04767
C	 2.4644488303	-0.1200970325	 0.6558417862	-0.254935
C	 1.0554484852	-0.6859294869	 0.9074180501	-0.054409
N	 1.2892608947	-1.744276464	-0.2175757222	-0.159909
H	 0.9381293245	 2.0816094673	-0.1543738569	 0.11552
H	-0.7177596198	 1.9570944897	-0.7724593932	 0.135986
H	-0.4384480493	 1.9480151006	 0.962218339	 0.131406
H	-1.2651929332	-1.6789258338	 0.0778743539	 0.100951
H	 0.5334928538	-0.8233660672	-2.1437684721	 0.103542
H	 3.0575989525	-1.0255614426	-1.42737282	 0.105218
H	 3.2042025788	-0.6778211632	 1.2356724968	 0.121335
H	 2.6425460719	 0.9532368313	 0.7624167767	 0.107607
H	 0.738427206	-1.0119652714	 1.8965900121	 0.094348
