18
gdb 106397	3.45768	1.44976	1.27872	3.2108	70.51	-0.2341	0.0671	0.3011	1018.6711	0.148997	-439.008694	-439.001435	-439.000491	-439.040242	29.553	
O	 0.0723428167	 1.379293657	-0.1396032053	-0.418385
C	 0.0284645858	-0.0234172624	 0.0349003196	-0.17855
C	-1.3857021099	-0.5298166563	 0.116926041	 0.393102
C	-2.5021580111	 0.0819153364	 1.0198408776	-0.263291
C	-3.3202033652	-0.4611039785	-0.1825000452	 0.048828
O	-2.1929942425	-0.1342358492	-1.0387894893	-0.308368
C	-3.1634083931	-1.9942313744	 0.0060010271	-0.054925
N	-2.2777820075	-2.6108104516	-1.0067752512	-0.316943
C	-1.7023336741	-2.0463431037	 0.2349394296	-0.130843
H	-0.5386607367	 1.5746242939	-0.8605000779	 0.292976
H	 0.5422649909	-0.5523087266	-0.7841312295	 0.107045
H	 0.5615559319	-0.2512203174	 0.9647786174	 0.109844
H	-2.6698307719	-0.3494337352	 2.0109363451	 0.092099
H	-2.4552554585	 1.1705659768	 1.0492417391	 0.117389
H	-4.2714163248	-0.0476406074	-0.5147835373	 0.086941
H	-3.8932122485	-2.5806372926	 0.5508250198	 0.097144
H	-2.3331648009	-3.6219496248	-0.8881083946	 0.230655
H	-1.2143530706	-2.6745251541	 0.9703740139	 0.095281
