21
gdb 117040	4.44192	0.72296	0.63139	2.0282	82.67	-0.2333	-0.0463	0.187	1825.0306	0.18039	-420.442752	-420.431679	-420.430735	-420.480306	38.154	
C	 0.010748808	 1.5390906727	-0.0539453291	-0.385783
C	 0.0102772028	 0.0084676284	-0.0594130086	-0.167479
C	-1.4031541202	-0.5721938802	-0.0456667695	-0.274535
C	-1.4380530441	-2.0816055741	-0.0513635304	 0.361386
O	-0.4392274586	-2.7723045233	-0.0687484963	-0.333436
C	-2.8076206293	-2.753821835	-0.034506739	 0.261379
N	-3.8544875698	-2.0107184455	-0.0161665302	-0.538339
N	-2.7115742905	-4.1081212809	-0.0418089086	-0.29579
C	-3.8509110628	-4.9895308728	-0.0291122488	-0.336334
H	 1.0311489019	 1.9342941284	-0.0638803578	 0.11256
H	-0.51075518	 1.9407612691	-0.929985847	 0.114376
H	-0.4911211078	 1.9344477289	 0.8363169679	 0.114397
H	 0.5453910944	-0.3653445449	-0.9394212026	 0.107716
H	 0.5648779577	-0.3714884388	 0.8058094613	 0.107601
H	-1.977248106	-0.2303655636	 0.8249186313	 0.140285
H	-1.9961591404	-0.2239175399	-0.9009942352	 0.140157
H	-4.7133116799	-2.5630307586	-0.006491312	 0.209258
H	-1.7707037797	-4.471339471	-0.0573059373	 0.261693
H	-3.5039019964	-6.0240737002	-0.0358669739	 0.136216
H	-4.4686309907	-4.8417619186	 0.867313924	 0.132363
H	-4.4918965487	-4.8380192698	-0.9084719482	 0.13231
