20
gdb 66166	3.90429	0.86036	0.82839	1.8428	75.38	-0.2388	-0.0276	0.2112	1432.7406	0.168748	-440.254504	-440.244828	-440.243884	-440.290119	34.687	
C	-0.6011094306	 1.3251072543	 0.1700967331	-0.445368
C	-0.0910312455	-0.0976873146	-0.0358068739	 0.278837
C	 1.2146261418	-0.1589700206	-0.8958709134	-0.111661
O	 2.0134060382	-0.377710362	 0.2834085392	-0.27019
C	 0.8444501136	-0.5816193878	 1.0973829608	-0.122779
N	-1.1724520999	-1.0249677283	-0.3273577892	-0.342298
C	-1.922087201	-0.7826507145	-1.554048685	-0.266289
C	-3.1190034381	 0.1340668907	-1.3316183635	 0.177834
O	-3.573620629	 0.870477493	-2.1667562462	-0.241737
H	 0.2245766686	 1.9774994647	 0.4679777856	 0.131462
H	-1.0326973018	 1.7411290121	-0.74596405	 0.13633
H	-1.3645886086	 1.3495455683	 0.9537265245	 0.125175
H	 1.252458651	-1.0161362197	-1.5843747974	 0.086544
H	 1.5150795267	 0.7481864614	-1.4325608862	 0.104558
H	 0.8635791164	 0.0166876474	 2.0152645098	 0.108255
H	 0.7039583096	-1.6396926094	 1.3644181504	 0.090829
H	-0.8094211711	-1.9703926295	-0.327871539	 0.224284
H	-1.3308908799	-0.3895124039	-2.395681429	 0.119266
H	-2.3481163534	-1.7389568876	-1.8875582717	 0.132172
H	-3.560193587	 0.0422614759	-0.313288409	 0.084773
