19
gdb 67599	2.66687	1.86111	1.76521	1.3492	76.48	-0.2342	0.0834	0.3176	901.733	0.162596	-385.889713	-385.883115	-385.882171	-385.920102	28.644	
O	 0.2381838708	 1.3479358199	-0.2032186677	-0.481793
C	 0.1343761998	-0.0320651796	-0.085166837	 0.40939
C	 1.0506751977	-0.9476778116	-0.8526715068	-0.104622
C	 0.246397271	-2.0751687675	-1.4841454457	-0.239162
C	-1.0823310387	-2.0446456074	-0.7368116602	-0.056359
C	-1.0257432402	-2.0014113829	 0.7756075068	-0.063683
C	 0.3572143201	-1.9995615398	 1.4200786965	-0.238863
C	 1.1138906664	-0.9113145397	 0.6725168236	-0.148045
C	-1.2246092205	-0.7201815891	-0.0109820207	-0.156079
H	 0.039146602	 1.7373571472	 0.6552391089	 0.280629
H	 1.898147715	-0.5282211338	-1.3831633534	 0.087256
H	 0.0884750001	-1.878720031	-2.5512860736	 0.101106
H	 0.7488624967	-3.0473923573	-1.4040000251	 0.098007
H	-1.9462662992	-2.5187497639	-1.1903211959	 0.079122
H	-1.851344278	-2.4492041934	 1.3186613071	 0.078104
H	 0.2827385614	-1.7517869444	 2.4861583733	 0.094341
H	 0.8477076228	-2.9789184089	 1.3509542228	 0.099481
H	 2.0054969016	-0.4754373506	 1.1106071949	 0.080536
H	-2.133713639	-0.1328612762	-0.0013551379	 0.080635
