15
gdb 10664	2.75796	2.10224	1.33225	2.2976	68.49	-0.2533	-0.0308	0.2225	913.1403	0.116439	-362.622505	-362.614223	-362.613278	-362.655191	30.161	
C	 0.7607700854	 1.1203423975	 0.2702861889	-0.501526
C	-0.2794429806	 0.0942188352	-0.1015456194	 0.345967
O	-1.2934890909	-0.0792243955	 0.5403978107	-0.320606
C	-0.0305335064	-0.7561468089	-1.3357065787	 0.0259
C	-0.2548309944	-2.2356133062	-1.1027991669	-0.244121
N	-1.2218629353	-1.4666936237	-1.8580865897	-0.330124
C	 0.9471268345	-0.317025393	-2.2935367499	 0.237636
C	 1.780233598	 0.0554936686	-3.0762091844	-0.393227
H	 1.7509992687	 0.6577372904	 0.3341292156	 0.150871
H	 0.8259199238	 1.880498899	-0.5153998687	 0.160513
H	 0.4941363116	 1.5854215589	 1.2193890221	 0.14385
H	 0.3471480909	-2.9309668003	-1.6795554339	 0.138207
H	-0.4953614111	-2.5326944333	-0.0856873715	 0.136129
H	-1.9879745881	-1.2112217229	-1.2314293003	 0.253432
H	 2.5069423541	 0.3816346541	-3.7787008739	 0.1971
