23
gdb 123004	4.68157	0.54382	0.52801	2.1819	82.92	-0.2532	0.0721	0.3253	2134.8799	0.203556	-425.407194	-425.396351	-425.395407	-425.444029	39.368	
O	-0.0889970578	 1.4883159768	 0.0363685741	-0.420811
C	 0.0033573119	 0.0787559783	 0.1791548008	-0.07526
C	-1.3778843236	-0.5110671346	-0.0718559837	-0.164769
C	-1.411361401	-2.0363384351	 0.0578354674	-0.198606
C	-2.8002556953	-2.630239665	-0.2131808534	-0.243809
C	-2.8526376694	-4.1393368957	-0.0691138792	 0.424798
O	-2.0363672695	-4.8439968961	-0.9741227205	-0.472068
C	-3.0683568425	-4.7638277122	 1.2893211124	-0.320486
C	-4.1515521156	-4.8209763425	 0.226655608	-0.304856
H	 0.7819660385	 1.8645551497	 0.1921787425	 0.284884
H	 0.7252192225	-0.3483400344	-0.5368990755	 0.082433
H	 0.3479740661	-0.1976251741	 1.1896926014	 0.081773
H	-2.0824630226	-0.0566229043	 0.6356749528	 0.104604
H	-1.7067635712	-0.2104279743	-1.0741419422	 0.107334
H	-0.6898715747	-2.4731946771	-0.646390764	 0.089555
H	-1.0817326709	-2.3293079189	 1.0643525963	 0.094452
H	-3.5288943471	-2.1818915803	 0.4734886212	 0.093155
H	-3.1179288929	-2.3644434537	-1.2297441839	 0.104193
H	-1.1225270022	-4.7434295372	-0.6874234982	 0.281338
H	-2.5363954544	-5.6847265578	 1.5011082225	 0.111025
H	-3.2171666625	-4.1154110638	 2.1465140838	 0.108317
H	-5.0390381783	-4.2112484719	 0.3568288113	 0.110913
H	-4.3179909474	-5.7746770259	-0.2603055539	 0.121891
