16
gdb 98138	4.76666	0.84155	0.71842	4.1743	70.71	-0.2598	-0.0764	0.1834	1490.5277	0.12394	-471.22701	-471.217757	-471.216812	-471.261702	32.584	
O	 0.4030433044	 1.3261334194	-0.0811831899	-0.424283
C	 0.3302136657	-0.0705866021	-0.0529374339	-0.123334
C	-1.1038363208	-0.5444327023	 0.0141271716	 0.334993
O	-2.0211951304	 0.2557690902	 0.0364453333	-0.355302
C	-1.3743977476	-2.0299152727	 0.0525328666	 0.281067
N	-0.3909772752	-2.8370923656	 0.0276963929	-0.501187
N	-2.7369004975	-2.296768354	 0.1124407594	-0.322647
C	-3.3377536674	-3.5319680682	 0.1599390112	 0.102852
N	-2.6784074907	-4.6229738007	 0.1533430282	-0.450772
H	-0.5114557987	 1.6434133914	-0.0506354616	 0.293272
H	 0.7975268796	-0.5221062841	-0.9405478576	 0.141577
H	 0.8691295146	-0.490306905	 0.8092803822	 0.141646
H	-0.7231456559	-3.8046332798	 0.0589387629	 0.263685
H	-3.316495951	-1.4681854544	 0.1205839696	 0.272322
H	-4.4296718426	-3.4528386975	 0.2030484588	 0.109785
H	-3.3054228064	-5.4223730145	 0.1939080464	 0.236328
