19
gdb 74148	2.41923	1.47935	1.15456	5.3472	78.53	-0.2589	-0.0334	0.2255	1143.9655	0.157491	-423.100222	-423.091003	-423.090058	-423.13371	34.56	
C	-0.0276876631	 1.5021893449	 0.0269657683	-0.502903
C	-0.0063795764	 0.0111978634	-0.0392700648	 0.333395
C	-0.0175925013	-0.7768359678	-1.1166350802	-0.387758
C	 0.0137530856	-2.1923645988	-0.6959042843	 0.419937
O	 0.0151338492	-3.1958213433	-1.3528113535	-0.353884
O	 0.0439590638	-2.2098293882	 0.6771212636	-0.258029
C	 0.0343596194	-0.8668313099	 1.2022047084	 0.250715
C	 1.3189252101	-0.6730807508	 2.0175482338	-0.414833
C	-1.2190108782	-0.7129406587	 2.0727349981	-0.414818
H	 0.8593987273	 1.8873690157	 0.5434174641	 0.143407
H	-0.0597696605	 1.9425210662	-0.9719300162	 0.140417
H	-0.8985537893	 1.860581805	 0.5882771776	 0.143274
H	-0.0448920045	-0.4866609716	-2.1573163818	 0.125543
H	 2.1992608549	-0.8109332391	 1.3844814709	 0.131911
H	 1.3546319843	 0.327983237	 2.4572760145	 0.119142
H	 1.3557279587	-1.4062605918	 2.8274320765	 0.136714
H	-1.197689319	-1.4466990657	 2.8826501148	 0.13672
H	-1.2667929824	 0.2866206397	 2.5147202674	 0.119133
H	-2.1212912286	-0.8783772262	 1.4783593528	 0.131915
