17
gdb 55222	3.19764	1.22428	1.01776	5.8068	68.59	-0.2483	-0.0306	0.2178	1178.8348	0.13679	-455.21301	-455.204408	-455.203464	-455.246927	31.311	
C	 0.0734998651	 1.3421591449	-0.3709120631	-0.485977
C	-0.0233018336	-0.0693252939	 0.1748065304	 0.391477
O	 0.9134301749	-0.6277026173	 0.6939102259	-0.296817
C	-1.3974927997	-0.7646132005	 0.1046458377	-0.10239
C	-2.0289915339	-0.8442422979	-1.3113962242	-0.18947
N	-1.5683202175	-2.1485677419	-1.7459507556	-0.334411
C	-1.2753240322	-2.97016045	-0.6626753997	 0.43346
O	-1.0292446993	-4.1510678457	-0.7002856943	-0.396778
N	-1.3256642778	-2.1617543892	 0.4798974838	-0.328982
H	 0.2679042757	 1.301742548	-1.4491101287	 0.158693
H	-0.8548880579	 1.9031183855	-0.2265291821	 0.133804
H	 0.9070278586	 1.8604642553	 0.1050986268	 0.15411
H	-2.0584865811	-0.1959607957	 0.7736801535	 0.111123
H	-3.123692713	-0.7817295513	-1.2395044464	 0.117297
H	-1.6861452926	-0.0437161343	-1.9725836922	 0.117874
H	-1.9497590144	-2.5903063956	-2.56710759	 0.255734
H	-0.6464829914	-2.4003968405	 1.1902855682	 0.261252
