20
gdb 51865	3.80376	0.94363	0.83614	3.7653	83.41	-0.2388	0.0127	0.2515	1411.6668	0.173041	-403.196515	-403.187896	-403.186952	-403.230835	32.318	
O	-0.0879062263	 0.2333382321	-0.916493232	-0.325729
C	-0.0416989537	 1.2501619334	-0.2560161267	 0.152581
N	 1.0650152899	 1.7359242651	 0.3657650845	-0.289263
C	 2.3751594812	 1.09188494	 0.2978106896	 0.008154
C	 3.3373610503	 1.8583511516	-0.6263551155	-0.208943
C	 4.7683936244	 1.3302691432	-0.4803389727	-0.211985
C	 5.2794179033	 1.5145903568	 0.9565255696	-0.240979
C	 4.2387837685	 1.1324926072	 1.976838461	-0.060041
C	 2.9544402363	 0.9309081819	 1.683713036	-0.068913
H	-0.9244085896	 1.8987725353	-0.0855698212	 0.072394
H	 0.9868704289	 2.6050100272	 0.8715499342	 0.243538
H	 2.1684187563	 0.1057956992	-0.1349659138	 0.131172
H	 2.9883646448	 1.7794644704	-1.6605226113	 0.11035
H	 3.3112449521	 2.9235807421	-0.3588753503	 0.087941
H	 4.7851868231	 0.2630252978	-0.7353168371	 0.107952
H	 5.4346162701	 1.8328534643	-1.1889700343	 0.096252
H	 6.1882061876	 0.9212680889	 1.1173669777	 0.106582
H	 5.5829330971	 2.5595837487	 1.1215516792	 0.108617
H	 4.576290635	 1.0098231648	 3.0036276203	 0.089469
H	 2.2526000608	 0.63150404	 2.4584696926	 0.09085
