16
gdb 128503	2.0843	1.64613	0.95952	2.7353	68.75	-0.2336	-0.0372	0.1964	1191.1935	0.123919	-471.159888	-471.150936	-471.149992	-471.194936	31.006	
C	-0.4232367688	 1.3360966254	-0.327806573	-0.247847
O	-0.5298008298	-0.078881703	-0.5015670028	-0.277505
C	 0.4493818434	-0.6588646544	-1.2138802921	 0.279104
C	 0.589283014	-1.9909816589	-1.4928087765	 0.277865
C	-0.2114377838	-3.2034960019	-1.1176364051	-0.276625
N	-0.6487389717	-3.2504655203	 0.2784595779	-0.4988
O	 1.703534981	-2.1081471344	-2.2284350581	-0.202999
N	 2.2476202311	-0.8175641156	-2.3985903256	-0.029139
N	 1.4918367938	 0.0043586017	-1.7927915049	-0.208366
H	 0.5017986598	 1.5984312743	 0.1952577522	 0.141838
H	-0.4423002062	 1.851335973	-1.293021832	 0.144355
H	-1.2878550783	 1.6259278383	 0.2696495668	 0.138082
H	-1.1035157514	-3.2602477089	-1.7533721725	 0.139212
H	 0.3852359484	-4.0931939853	-1.3406904962	 0.141732
H	 0.1612651672	-3.2175295488	 0.8910573761	 0.233551
H	-1.1945433188	-2.4199449613	 0.4901897259	 0.245543
