17
gdb 44855	3.31719	1.64387	1.47476	2.1366	70.88	-0.2184	-0.0164	0.202	919.0931	0.139618	-417.988347	-417.981947	-417.981003	-418.019007	26.795	
O	 0.0113256182	 0.0219918653	 0.0257170005	-0.322428
C	-0.007825696	 1.2231623795	 0.0277815505	 0.421089
C	-1.2562109757	 2.144503091	 0.0298403802	-0.340009
C	-0.5821157864	 3.5408743218	 0.0345211485	-0.032374
N	 0.6404316767	 3.3361119628	-0.7839617589	-0.28776
C	 1.1894356529	 2.2041353025	-0.0109037771	-0.137014
C	 1.2035572712	 2.7874179436	 1.4081548045	-0.034348
N	 1.3817407243	 4.2548360174	 1.4666074082	-0.326976
C	 0.0223981501	 3.688154394	 1.4353259952	-0.023896
H	-1.842188922	 1.9805021904	-0.8809740584	 0.125087
H	-1.9013532257	 1.9185430248	 0.8846797481	 0.123473
H	-1.1924307297	 4.3683893788	-0.3285220344	 0.08277
H	 0.3886687775	 3.0331082494	-1.7223085579	 0.222961
H	 2.1178524812	 1.7904952931	-0.401443338	 0.091328
H	 1.4917818431	 2.1597686432	 2.242599125	 0.107563
H	 1.6009826292	 4.4980446659	 2.4310863156	 0.233597
H	-0.6337015189	 3.7696484266	 2.2945301884	 0.096938
