18
gdb 87585	2.52622	1.63906	1.30985	2.3926	71.31	-0.2379	0.0456	0.2835	1019.1856	0.147144	-439.006797	-438.998625	-438.997681	-439.039218	32.069	
O	 0.0889132148	 1.3551143315	-0.0622923351	-0.439696
C	 0.0203973705	-0.0394442314	-0.0305776918	 0.067579
C	-0.415393158	-0.7734360247	 1.2249446257	-0.40418
C	-1.3072203109	-0.7248942761	 0.0231323394	 0.269793
C	-2.6805366176	-0.054469526	-0.1032963837	 0.027286
O	-2.7600074641	 1.2795615707	-0.5935503942	-0.433194
C	-3.0506567828	-1.2110902681	-1.0225107733	-0.073741
C	-2.0454752432	-1.4052491559	-2.0945933752	-0.254315
N	-1.7263916652	-1.9259834104	-0.7556124247	-0.157972
H	-0.8149469983	 1.6918702157	-0.1380100873	 0.294385
H	 0.809209838	-0.5059749485	-0.6164839224	 0.104953
H	 0.0663867824	-1.7200253886	 1.4473935961	 0.124895
H	-0.6995170217	-0.1784655167	 2.0880358795	 0.119256
H	-3.241012881	-0.0632069543	 0.8343275207	 0.112332
H	-2.6120592963	 1.2526305561	-1.545966281	 0.289214
H	-3.9944727927	-1.7450788257	-1.0132035313	 0.105682
H	-2.257086455	-2.1828018211	-2.8220964102	 0.130109
H	-1.4604320989	-0.5725092866	-2.480704381	 0.117615
