15
gdb 67679	2.58617	1.92328	1.38476	2.7642	64.77	-0.2369	-0.0073	0.2296	919.4847	0.112508	-457.741334	-457.734113	-457.733169	-457.7729	27.88	
O	-0.0511102622	 1.4133842485	 0.0608839431	-0.445766
C	 0.0819077066	 0.0491987544	 0.0638550425	 0.211569
C	-0.2349921107	-0.8170792475	-1.1763358659	 0.038045
O	 0.5722975502	-1.9187048579	-1.4959847997	-0.262513
C	 0.4673158155	-2.848740895	-0.4075360643	-0.090582
C	-0.1322072392	-2.0291604981	 0.7408458983	-0.210593
C	-1.0684485447	-1.0222459933	 0.0200084219	-0.175995
C	 0.7694785705	-0.8062158197	 1.0807942336	 0.380232
O	 1.5553513957	-0.5890443072	 1.9590804108	-0.339482
H	 0.6495624671	 1.7948004277	-0.4802099046	 0.301891
H	-0.588254468	-0.261724883	-2.0378452972	 0.124574
H	-0.1858523256	-3.6859865891	-0.6890635661	 0.10798
H	 1.4659525422	-3.2344270926	-0.1827000929	 0.129271
H	-0.5031282546	-2.5958901775	 1.5928261929	 0.107059
H	-2.1301833427	-0.8755272398	 0.1533928276	 0.12431
