15
gdb 123443	4.98638	0.96634	0.87336	3.2994	66.72	-0.2586	-0.0737	0.1849	1278.4586	0.113101	-450.040599	-450.03303	-450.032086	-450.074062	27.059	
C	-0.0624118413	 1.565780153	 0.365489471	-0.348051
C	-0.174772959	 0.0510661864	 0.2816874339	 0.02733
C	-1.3524131985	-0.5674304095	-0.3746112644	-0.244584
N	-0.0236423848	-0.6405743826	-1.0035149348	-0.303686
C	 1.3417676133	 2.0389514328	 0.1891168829	 0.427317
N	 2.1289911495	 2.4679296149	 1.1331545383	-0.145649
O	 3.2931070248	 2.7594325231	 0.5055631482	-0.13669
N	 3.1535617455	 2.4850221709	-0.8511644004	 0.053114
N	 1.9887068818	 2.0548232901	-1.0383537903	-0.202343
H	-0.6801728527	 2.0255792796	-0.414087667	 0.131598
H	-0.4291499458	 1.9176019698	 1.3340970066	 0.146267
H	 0.2957053665	-0.472258224	 1.1117272893	 0.110701
H	-1.7429135203	-1.5146614772	-0.0146080107	 0.127518
H	-2.1005734761	 0.0969935588	-0.8008028769	 0.114711
H	 0.054592047	 0.0324532239	-1.7625984656	 0.242448
