17
gdb 106093	2.50715	1.67022	1.26561	2.5809	72.6	-0.235	0.0054	0.2404	1030.5241	0.135369	-421.777048	-421.769196	-421.768251	-421.809717	29.744	
C	 0.0643301636	 1.3497387016	-0.2467937445	-0.265096
O	 0.0000645056	-0.0065841079	 0.1874855747	-0.275065
C	-1.2458135609	-0.5337198761	 0.1704577355	 0.433962
C	-1.7250666369	-1.9291254891	 0.0613270824	-0.14588
C	-2.6906624845	-1.7699954043	 1.2396241205	-0.235091
C	-2.5914053183	-0.2376927096	 0.9876968787	-0.265068
C	-3.2294521617	-0.0648430435	-0.4111355535	 0.445071
O	-4.0905976253	 0.6511724862	-0.8408603347	-0.34407
C	-2.1659040791	-0.9103694118	-1.0312635215	-0.281348
H	 1.1134160207	 1.6444650677	-0.1939556802	 0.137776
H	-0.2968656996	 1.4484909918	-1.2779682834	 0.129211
H	-0.5296667806	 2.0033422352	 0.4044123722	 0.128391
H	-1.1664488488	-2.8032667102	-0.2486761029	 0.107287
H	-3.6878188762	-2.2158121632	 1.1545492364	 0.107842
H	-2.2244381123	-2.0666681256	 2.1823874583	 0.115002
H	-2.7515818382	 0.4966718444	 1.7718695525	 0.095076
H	-1.8941636377	-1.0464868157	-2.0688460106	 0.112
