17
gdb 102002	2.40762	1.33825	0.91897	2.1403	80.59	-0.2553	-0.0544	0.201	1252.6223	0.134425	-418.004193	-417.994579	-417.993634	-418.039071	34.262	
C	 0.0260277109	 1.5796514587	-0.0503440043	-0.381788
C	 0.0197993083	 0.0518653934	 0.0014976497	-0.153613
N	-1.3371116375	-0.5141214412	 0.015577388	-0.121464
C	-1.9928728886	-0.7238253141	-1.1968941765	 0.100307
N	-1.4344045356	-0.4348349239	-2.3022235215	-0.481329
C	-2.0173926252	-0.8293455891	 1.185964229	 0.321863
O	-3.1433586513	-1.2890539763	 1.2054529335	-0.349669
C	-1.2998133065	-0.5727597594	 2.4240944936	 0.180846
C	-0.8009864472	-0.3873142679	 3.5026864388	-0.375538
H	 1.0574296443	 1.9449034317	-0.073361719	 0.120653
H	-0.48276323	 1.934739691	-0.9493451732	 0.146284
H	-0.4665107041	 2.0056574713	 0.8287906551	 0.123283
H	 0.5147204739	-0.357013052	-0.880918584	 0.145152
H	 0.5400192719	-0.3097273232	 0.8895306265	 0.127798
H	-2.9871552123	-1.1456664137	-1.0528869531	 0.148882
H	-2.0562328396	-0.6643523249	-3.07515688	 0.233491
H	-0.3601428115	-0.2260263005	 4.4565225676	 0.214842
