21
gdb 80008	2.79153	1.75067	1.55871	0.221	84.89	-0.2305	0.0174	0.2479	982.3309	0.185865	-349.940666	-349.933621	-349.932676	-349.971421	30.595	
C	-0.0499116367	 1.5909908496	 0.0118963618	-0.431891
C	 0.0453320637	 0.0674793463	 0.0125322283	 0.041933
C	 1.0343245786	-0.574068842	-1.0015264602	-0.090784
C	 2.3668074378	-0.1503631783	-0.3709935621	-0.072898
C	 2.1999506225	-0.1602319946	 0.9556906046	-0.072897
C	 0.7536216592	-0.5906832114	 1.2303780974	-0.090783
C	 0.7369312009	-2.0970986819	 0.8440653457	-0.011685
C	-0.3377556034	-2.6658880111	-0.0559948877	-0.333687
C	 0.9252742073	-2.0859498738	-0.653498329	-0.011684
H	 0.9243668282	 2.0677684214	 0.1379314232	 0.121194
H	-0.4833702921	 1.9465854944	-0.9295278643	 0.10813
H	-0.703550647	 1.9335517638	 0.8218484708	 0.10813
H	-0.9685996872	-0.3159430287	-0.1178419572	 0.065707
H	 0.8951122401	-0.3206441648	-2.0539586108	 0.054031
H	 3.2806817627	 0.0330367841	-0.9217134046	 0.089832
H	 2.9486653555	 0.0133968101	 1.7181690771	 0.089832
H	 0.3576872478	-0.3524546338	 2.2191655693	 0.054031
H	 1.2973112033	-2.7771013806	 1.4767217823	 0.081628
H	-0.4049356736	-3.7501401389	-0.0725169963	 0.105256
H	-1.3012519942	-2.1845977585	-0.1735859355	 0.114977
H	 1.6261031764	-2.7576420114	-1.137597483	 0.081628
