15
gdb 62458	3.81724	1.22912	1.19826	2.6591	66.62	-0.2506	0.0113	0.2619	1046.2523	0.113396	-453.915654	-453.907752	-453.906808	-453.948104	29.163	
N	-0.2236823524	 1.4212261085	 0.0963824527	-0.555718
C	-0.0567297779	 0.0024705646	 0.0166633576	 0.036356
C	 1.0380022803	-0.5360355168	-0.7556398243	 0.237697
N	 1.9198786734	-0.9564088403	-1.378288939	-0.336608
C	-0.4679272673	-0.8512962295	 1.2475442589	 0.036266
O	-1.1778893	-0.2064582287	 2.2511851538	-0.258236
C	-2.4038801481	 0.2660483004	 1.6980429332	 0.037621
O	-2.5253527032	-0.25980476	 0.3785662936	-0.258237
C	-1.3309822227	-0.8854439844	 0.0480873434	 0.036254
H	 0.5889464827	 1.8635855121	 0.5124295347	 0.250915
H	-0.3713572115	 1.8255870187	-0.822218603	 0.250916
H	 0.1776742191	-1.647067812	 1.5962305002	 0.139923
H	-3.2404142724	-0.093913416	 2.3102514076	 0.116951
H	-2.3826148754	 1.3583293141	 1.6516244693	 0.125974
H	-1.4345708244	-1.7108575107	-0.6444427386	 0.139926
