19
gdb 125082	2.86118	1.31001	0.9734	2.8629	83.34	-0.2137	0.023	0.2367	1243.2544	0.160909	-382.086199	-382.077458	-382.076514	-382.12123	31.935	
C	 0.1744819521	 1.5580296293	 0.0915599414	-0.51584
C	 0.0385301026	 0.0665072999	 0.0212801761	 0.096187
C	-0.1228485978	-0.7246982815	-1.1078257482	 0.324465
N	-0.1982949744	-2.0062487566	-0.653671176	-0.281642
N	-0.0982392425	-2.1128941437	 0.6879447225	-0.239354
C	 0.0443988707	-0.8556846486	 1.0927167087	-0.069209
C	-0.2051897234	-0.3466578291	-2.5293830744	-0.085833
C	 0.3869281679	-1.214564368	-3.6243221743	-0.270729
C	-1.1050950838	-1.0844090241	-3.5033365413	-0.270715
H	 1.0404370107	 1.923771976	-0.4726836725	 0.12494
H	-0.7092426203	 2.0754976809	-0.3002135461	 0.125128
H	 0.3046357978	 1.8807485523	 1.1283335842	 0.126235
H	-0.3153985865	-2.845738656	-1.1946754244	 0.265328
H	 0.1490839459	-0.6408557822	 2.1473154283	 0.103084
H	-0.1243535104	 0.7237208571	-2.6824214042	 0.094645
H	 0.8853599133	-0.7188247747	-4.4497196431	 0.122027
H	 0.8512956169	-2.1488177902	-3.3260445723	 0.114626
H	-1.6695223281	-1.9289221233	-3.1216842989	 0.114625
H	-1.6362933309	-0.4988521778	-4.2452437552	 0.122033
