16
gdb 47782	2.11385	1.72662	1.18886	5.7489	68.91	-0.2816	-0.0206	0.261	1057.1041	0.125917	-437.938669	-437.930716	-437.929772	-437.971798	28.961	
O	 0.0307397228	 0.0255952435	 0.4002503644	-0.307016
C	-0.0172957209	 1.1587589352	 0.0169500615	 0.416671
O	-1.1939363985	 1.7205657678	-0.3102676182	-0.222955
C	-1.3150908492	 2.9396950797	-1.0754761828	-0.059011
C	-0.1635860841	 3.9143219364	-0.8872572687	-0.233031
C	 1.1597739436	 3.1796131249	-1.0877503141	-0.233529
C	 1.2558775021	 2.0399542006	-0.0513145684	-0.261786
C	 1.511175437	 2.5773118619	 1.2885060182	 0.283685
N	 1.7105899148	 3.0354431821	 2.3306373551	-0.317479
H	-1.4014800633	 2.6477475954	-2.1297384348	 0.123365
H	-2.2689582623	 3.3713698492	-0.7653556865	 0.136968
H	-0.2774656377	 4.7291214166	-1.6089124482	 0.12105
H	-0.1971176391	 4.3573224343	 0.1142582926	 0.142502
H	 1.2018217942	 2.7399160522	-2.0911195011	 0.118837
H	 2.0180409355	 3.8481864181	-0.9863817899	 0.133087
H	 2.0700802049	 1.3508981721	-0.2921794292	 0.158643
