16
gdb 34578	3.46597	1.26182	0.99776	4.452	89.24	-0.2374	-0.0727	0.1647	1154.0821	0.126757	-363.653087	-363.645656	-363.644712	-363.685007	28.631	
N	 0.3522001298	-0.8982716836	-1.0394670923	-0.338951
C	 0.179069998	 0.1578627692	-0.5926542565	 0.220738
C	 0.0092020025	 1.4545449468	-0.0283825628	 0.11195
C	-1.2209730835	 2.0269520489	 0.021139314	-0.110888
C	-1.4934418371	 3.3820110979	 0.4154760246	-0.102235
C	-0.6604329324	 4.4479917657	 0.2490303755	-0.096436
C	 0.6569356082	 4.4188347685	-0.3379340139	-0.049932
C	 1.5069801234	 3.3752782078	-0.2945722175	-0.081447
C	 1.2267263807	 2.1568066518	 0.5437970295	-0.355874
H	-2.0742314978	 1.4281499366	-0.2862210611	 0.11884
H	-2.5094963623	 3.5875281202	 0.7420066791	 0.105093
H	-1.0725202481	 5.4319365293	 0.4606246388	 0.104822
H	 0.9633588872	 5.3173853717	-0.868583524	 0.103353
H	 2.4324813255	 3.408768372	-0.8615447061	 0.110408
H	 1.0039141538	 2.4558341495	 1.576277737	 0.131421
H	 2.083922382	 1.4826294578	 0.5656942158	 0.129136
