17
gdb 24131	5.12173	0.97584	0.87186	2.5516	75.03	-0.2398	0.0003	0.2401	1310.9157	0.137602	-418.000015	-417.992317	-417.991372	-418.03338	28.234	
C	-0.0575604325	 1.4765840229	-0.3102537395	-0.289319
N	-0.1396882761	 0.0165929219	-0.2271609777	-0.06331
C	-0.2123355854	-0.5433235084	 1.1200861053	-0.211253
C	-1.4150097349	-0.5175602925	 0.2438308963	-0.222168
C	 1.3461942605	 1.9607705786	-0.2345024432	 0.364454
C	 2.2249765938	 2.5009903981	-1.1134181975	-0.189781
N	 3.4277637352	 2.7706527793	-0.4701903184	-0.25662
C	 3.2213859112	 2.3850255771	 0.7450225374	 0.073335
O	 1.9868371359	 1.8845798605	 0.9792921755	-0.175728
H	-0.4719083103	 1.7865847684	-1.2751539033	 0.12543
H	-0.657643584	 1.9679893878	 0.4777271404	 0.099687
H	 0.3403204564	-1.4650269356	 1.2750903974	 0.121088
H	-0.1915605534	 0.1470786355	 1.9609556313	 0.117195
H	-2.2020148098	 0.190167002	 0.5008132776	 0.109935
H	-1.7591136992	-1.4185872758	-0.2550744708	 0.121103
H	 2.0808589847	 2.7149207534	-2.1605924596	 0.126796
H	 3.9000621178	 2.4132922367	 1.5830466888	 0.149156
