13
gdb 5283	5.11938	1.64602	1.24555	3.4754	62.77	-0.2366	-0.0286	0.208	895.9511	0.096525	-398.665547	-398.658316	-398.657372	-398.697743	25.68	
N	-0.1440436393	 1.3186621456	 0.0186041489	-0.542027
C	 0.0401822118	-0.0326528378	 0.0119045954	 0.308262
O	 1.1358539772	-0.5664032963	 0.0031119124	-0.366627
C	-1.2001581503	-0.8311148807	 0.0170666276	 0.292053
C	-1.3892833406	-2.1806705893	 0.0143995852	-0.242583
C	-2.8011586449	-2.3902162138	 0.0218855093	-0.174894
C	-3.3663460101	-1.1520411781	 0.0289846484	-0.017844
O	-2.4105425658	-0.1903287043	 0.0265799489	-0.193344
H	 0.669647215	 1.9093513664	 0.0119816741	 0.264026
H	-1.0615739398	 1.727833333	 0.0217065994	 0.268674
H	-0.6034852315	-2.9181272343	 0.0075115423	 0.140569
H	-3.3254011213	-3.3327091662	 0.022086747	 0.121639
H	-4.3851129005	-0.8004173442	 0.0359402512	 0.142095
