21
gdb 105390	1.91551	1.26441	0.9323	4.1477	80.	-0.2689	0.0063	0.2753	1371.1147	0.17973	-424.244424	-424.234225	-424.233281	-424.279651	36.931	
C	-0.2716186952	 1.5070229303	-0.9865227348	-0.378406
C	-0.0432591267	 0.2491842191	-0.1396683308	-0.246511
C	-1.3322260134	-0.4661540372	 0.2098621715	 0.405068
C	-2.0250620929	-1.3570107863	-0.7793199732	-0.336531
C	-1.4329621453	-1.9506264847	 0.4837839093	-0.064796
C	-0.2486183328	-2.8914288045	 0.448986475	-0.414283
O	-2.2375878146	 0.3667974659	 0.9403799901	-0.228538
C	-2.0378958523	 0.4657091034	 2.270584674	 0.156215
O	-2.6973318657	 1.1759364889	 2.9692788701	-0.277577
H	 0.6773496263	 2.0067392953	-1.2009523156	 0.114165
H	-0.7461212137	 1.2556928588	-1.9405327916	 0.120646
H	-0.9220197022	 2.2159469487	-0.4678151549	 0.13997
H	 0.6117498237	-0.4443605598	-0.6759201094	 0.105774
H	 0.4844694581	 0.5148990166	 0.7860292854	 0.101309
H	-3.1031129351	-1.2760469125	-0.8530715396	 0.131696
H	-1.5147444942	-1.5446174853	-1.7188914052	 0.115641
H	-2.173088855	-2.2003072689	 1.2398701352	 0.102071
H	 0.4482463614	-2.6438795994	-0.3563791151	 0.121564
H	 0.3091473537	-2.8727576339	 1.3916676421	 0.122846
H	-0.5860732028	-3.9198762532	 0.2823271231	 0.127222
H	-1.2172591314	-0.1820313212	 2.6315829744	 0.082455
