21
gdb 110579	3.12357	1.25578	1.05283	1.4122	82.86	-0.2518	0.073	0.3248	1232.2215	0.182146	-387.020324	-387.011778	-387.010834	-387.053361	33.544	
C	 0.0652949764	 1.611775485	 0.1126399388	-0.375387
C	-0.1868710076	 0.1117454495	-0.0806961668	-0.218842
C	 0.5860083514	-0.4782574735	-1.2537117152	-0.061312
C	 2.0932358314	-0.8087934029	-1.1079182012	-0.054101
C	 1.8453440806	-2.1494781384	-0.3355832848	-0.119428
C	 2.7309516275	-2.959366564	-1.3042167591	-0.277915
C	 2.0311866639	-1.9252208192	-2.2083936481	-0.079094
C	 0.6955081119	-2.0124040614	-1.4139210238	 0.393623
O	-0.2916086095	-2.9330693935	-1.7148011554	-0.477948
H	 1.1234268592	 1.8129396691	 0.3109879892	 0.117338
H	-0.215464266	 2.1766663498	-0.7830913791	 0.115476
H	-0.513015135	 2.009593838	 0.9524111872	 0.110616
H	 0.0724176772	-0.4242508461	 0.841568924	 0.091138
H	-1.2611856995	-0.0546200226	-0.2412278489	 0.090612
H	 0.3367928105	 0.0449007015	-2.1874739571	 0.060022
H	 2.9310692939	-0.1335409551	-0.9452868962	 0.074701
H	 1.7271139313	-2.2640872455	 0.7428211428	 0.066645
H	 3.8137463639	-2.855237045	-1.1834315862	 0.08803
H	 2.4572850424	-4.0065921669	-1.4592313685	 0.101136
H	 2.1177172723	-1.7619205406	-3.2836916739	 0.070293
H	-0.9253044463	-2.9499358882	-0.9894509977	 0.284399
