13
gdb 5669	5.36215	2.24199	1.58097	5.1094	64.92	-0.1877	0.0338	0.2215	737.0968	0.099479	-357.681193	-357.675129	-357.674184	-357.711056	23.473	
N	-0.0531344912	 1.3648814333	 0.0101469235	-0.410388
C	 1.2686993342	 1.8278945786	-0.000122157	-0.075335
C	 2.1426189125	 0.7665431501	-0.0143195428	-0.287547
C	 1.3342934249	-0.4137169658	-0.0128828957	 0.279541
C	 0.0152869594	 0.0045999204	 0.0022522924	 0.397291
N	-0.7664785879	-1.1193992832	 0.0036676939	-0.409932
C	 0.1411640952	-2.177327415	-0.0109061011	-0.014218
N	 1.3935449675	-1.7961167308	-0.0210956945	-0.342202
H	-0.8702641427	 1.9471565724	 0.0219791768	 0.260786
H	 1.4580103631	 2.8891086689	 0.0037617138	 0.116406
H	 3.218453669	 0.8412388537	-0.0244130982	 0.099272
H	-1.7682552951	-1.1951725869	 0.0128911876	 0.262862
H	-0.2102495189	-3.1985753656	-0.0130106187	 0.123464
