19
gdb 71657	3.08182	1.8943	1.85946	1.399	76.25	-0.2448	0.0949	0.3397	869.344	0.161973	-385.875354	-385.868995	-385.868051	-385.905545	27.872	
C	 0.0360669841	 1.4824540246	-0.0507811188	-0.501649
C	-0.0394815942	-0.0230569973	-0.0007591222	 0.385378
C	-1.4193497483	-0.7263170334	-0.0350714376	-0.239654
C	-0.823002195	-2.1341943551	 0.0649336756	-0.094483
C	 0.0077282213	-2.1104484925	 1.3654350841	-0.087777
C	 1.3054462349	-1.998651809	 0.6045149453	-0.088219
C	 0.6724850396	-0.7545942645	 1.1876536681	-0.106935
C	 0.5533607584	-1.9669133189	-0.7392206214	 0.058019
O	 0.5750251757	-0.6165314796	-1.1693114116	-0.283776
H	 1.0773685514	 1.8176335251	-0.0612581499	 0.126555
H	-0.454400587	 1.863574626	-0.9510320371	 0.126374
H	-0.4595538391	 1.9183892019	 0.821861348	 0.118088
H	-2.0519928266	-0.4827669284	 0.8239156116	 0.092412
H	-1.9494032889	-0.5177727131	-0.968224913	 0.097166
H	-1.4451000897	-2.9988898598	-0.1543756962	 0.067838
H	-0.2124151224	-2.5760007604	 2.3172785316	 0.083405
H	 2.3033146219	-2.3543839657	 0.8259724428	 0.085895
H	 1.1281499605	-0.2232798001	 2.0120673515	 0.084904
H	 0.8084837233	-2.6493379398	-1.5465045107	 0.07646
