17
gdb 23567	3.10147	1.49838	1.33054	2.6176	75.64	-0.2328	0.0258	0.2586	1001.3072	0.137673	-417.898693	-417.891648	-417.890704	-417.929987	28.781	
O	-0.1132103029	 1.3581477431	-0.0957532983	-0.402057
N	 0.0456014388	-0.0471537297	-0.0347537456	-0.319475
C	-1.0637937946	-0.6224897228	 0.1288743875	 0.521885
C	-2.5483973593	-0.2903029494	 0.0837797146	-0.146039
C	-2.5933264679	-1.5240228354	-0.9065044644	-0.237466
C	-1.4632114791	-2.0813298346	 0.0510771933	-0.135561
C	-2.2823380484	-2.2450855552	 1.3497309251	-0.037599
N	-1.9893277555	-1.2193329171	 2.3779416011	-0.326122
C	-3.0498317909	-0.9744166193	 1.3722954602	-0.034315
H	 0.79797407	 1.6532852887	-0.1942332899	 0.303314
H	-2.9176625307	 0.696867068	-0.1785572643	 0.092473
H	-3.5292794166	-2.0890169634	-0.9383443041	 0.097795
H	-2.2357031517	-1.2900050885	-1.9106585594	 0.117941
H	-0.7671780526	-2.8625866006	-0.2445382928	 0.083409
H	-2.6960990623	-3.2059308387	 1.631111999	 0.096434
H	-2.4263348225	-1.4987402227	 3.2549540827	 0.229174
H	-4.0877198437	-0.9009294924	 1.6740534152	 0.096209
