20
gdb 100889	2.32892	1.08563	0.78285	4.5602	76.71	-0.286	0.0168	0.3029	1485.4109	0.167874	-440.284932	-440.274075	-440.273131	-440.321261	37.885	
C	-0.015713276	 1.6364230795	 0.0084288627	-0.388358
C	 0.0248144261	 0.1065622384	 0.029196419	-0.202981
C	 0.6986232793	-0.4811771039	-1.2119022628	 0.115336
O	 2.0457264786	-0.0685302804	-1.3550306817	-0.420762
C	 0.6197372902	-2.0276136887	-1.2166523943	-0.049575
O	-0.7357506472	-2.4007990596	-1.2287520145	-0.232803
C	-0.9671697831	-3.7877596735	-1.0428165023	-0.249489
C	 1.3432402093	-2.5897527691	-2.3800524088	 0.286819
N	 1.868757738	-3.0727223344	-3.2885160117	-0.327608
H	 0.9887545871	 2.0539502787	-0.1012096824	 0.127491
H	-0.6191356742	 2.0003408285	-0.8298606842	 0.123368
H	-0.453206223	 2.0289332098	 0.9307187615	 0.115699
H	 0.5699628855	-0.2447008673	 0.9192681536	 0.08325
H	-0.984968877	-0.3074482992	 0.1031424637	 0.126372
H	 0.187647222	-0.1268113576	-2.1139854936	 0.116788
H	 2.5033839431	-0.2298692965	-0.5217450104	 0.284455
H	 1.1197189897	-2.407851609	-0.3073597294	 0.098842
H	-0.524433878	-4.3826363876	-1.8518269468	 0.140358
H	-0.5596997447	-4.1342622296	-0.0817152482	 0.113045
H	-2.0496848255	-3.9265481585	-1.0444663094	 0.139752
