17
gdb 70238	4.06732	1.08106	0.95262	1.3943	84.78	-0.2198	-0.0204	0.1994	1234.0816	0.134881	-384.654852	-384.646623	-384.645679	-384.687238	32.491	
O	-0.0800269325	 1.4463090932	 0.0170444378	-0.465513
C	-0.0022914367	 0.0550875876	 0.0450402345	 0.384852
C	-0.3650639281	-0.7596180507	-1.1798811909	-0.340919
C	-1.2537555304	-0.8007895805	 0.0458789927	-0.099737
C	-1.047703944	-1.926772375	 1.0506746459	-0.336489
C	 0.3850601238	-1.7177993691	 1.5411990718	 0.182256
C	 0.9261262719	-0.6102785881	 1.0034342166	-0.265675
C	 1.0087722705	-2.6218761963	 2.4317944774	 0.214763
C	 1.496032851	-3.4174672108	 3.1954117755	-0.421626
H	 0.5700792671	 1.7711921723	-0.6147439046	 0.285173
H	-0.7594337509	-0.202513406	-2.0241740433	 0.113398
H	 0.2419956947	-1.6225293744	-1.4355166074	 0.114909
H	-2.2221760407	-0.3221840577	-0.029153216	 0.099993
H	-1.7543329848	-1.8696759952	 1.8872573131	 0.121335
H	-1.1719077689	-2.9191803	 0.6017011659	 0.121319
H	 1.9227575793	-0.2390431998	 1.2104715626	 0.101024
H	 1.9387788087	-4.1079156694	 3.8694538586	 0.190938
