19
gdb 92180	2.69045	1.89362	1.66313	2.1003	73.35	-0.2268	0.0687	0.2956	917.4418	0.161335	-422.985181	-422.978306	-422.977362	-423.016038	28.705	
C	-0.3183371525	 1.5179784392	 0.0392498745	-0.419694
C	 0.0670418347	 0.0397795967	-0.0163382357	 0.138966
O	 0.7392536478	-0.3095220749	-1.2418147273	-0.282355
C	 2.119515465	-0.5670380505	-1.0742517292	 0.068256
C	 2.831198762	 0.599794811	-0.3370780319	-0.273672
C	 2.4595085393	-0.1220149894	 0.9716388106	-0.096683
C	 2.3789898758	-1.4649380854	 0.2201175321	 0.113131
O	 1.1688442981	-1.8687880814	 0.8566093474	-0.29089
C	 0.927343737	-0.4559270611	 1.1393503632	 0.049122
H	 0.5396012064	 2.1759960735	 0.1958568671	 0.120846
H	-0.8037457634	 1.8051872565	-0.8973787911	 0.132007
H	-1.0280898952	 1.6867439644	 0.8566723334	 0.114893
H	-0.852886488	-0.5585851469	-0.0088384399	 0.094094
H	 2.4985373871	-0.9020020991	-2.0404516374	 0.080667
H	 3.9162040717	 0.5642273928	-0.4812914408	 0.104778
H	 2.4772287838	 1.6099766086	-0.5465511911	 0.107264
H	 3.0109880659	 0.031739797	 1.8989608754	 0.076419
H	 3.1504676059	-2.2352950163	 0.1712427929	 0.08028
H	 0.4702283587	-0.300085245	 2.1196833877	 0.08257
