20
gdb 58656	1.87581	1.46172	1.13492	4.1842	79.86	-0.2915	0.0076	0.2991	1227.0558	0.167929	-403.155588	-403.145294	-403.14435	-403.190758	37.119	
C	 0.2510860053	 1.0537417809	 0.7336992356	-0.406293
C	-0.3194169421	-0.2049181258	 1.4037909131	-0.057935
C	-0.5929868465	 0.0088060416	 2.8993242097	-0.408716
C	-1.5767030302	-0.6703141334	 0.6762638516	 0.239868
O	-1.3997223142	-1.2773879033	-0.6105900228	-0.28506
C	-1.9360588072	-2.0921269353	 0.4358552487	 0.030858
C	-1.1296005579	-3.2752101961	 0.9021799699	-0.433469
C	-2.6895787768	 0.2728444659	 0.7281986451	 0.27246
N	-3.5620775682	 1.0280237226	 0.7984083715	-0.345389
H	 1.1904818205	 1.3458463699	 1.2122864928	 0.11798
H	 0.447501522	 0.8755862898	-0.3272938321	 0.135391
H	-0.4447070499	 1.8952769214	 0.8161340547	 0.13885
H	 0.4141979125	-1.0082363483	 1.2898112913	 0.089809
H	-0.9632116146	-0.9041675768	 3.3764757411	 0.117962
H	 0.3256098837	 0.3092799196	 3.411521834	 0.122954
H	-1.3365682319	 0.7968752157	 3.0561164193	 0.143705
H	-3.0018726274	-2.2934741541	 0.3155643431	 0.111954
H	-0.0703456806	-3.0397828892	 1.0132222485	 0.137205
H	-1.5151170666	-3.6404185252	 1.8595685442	 0.135539
H	-1.2211742999	-4.0873222802	 0.1737194609	 0.142326
