23
gdb 116467	2.50918	1.34929	1.03218	1.4642	82.19	-0.2469	0.0847	0.3316	1271.1806	0.206367	-425.43906	-425.429609	-425.428665	-425.473011	35.785	
C	 0.0900409115	 1.3921459889	 0.0071409553	-0.240446
O	 0.0409549157	-0.023828996	-0.0174316008	-0.246936
C	 0.680368715	-0.5977266641	-1.1049698467	 0.236589
O	 2.0711556807	-0.3136772857	-1.0156327663	-0.266565
C	 2.7872804685	-0.7748326989	-2.1516927863	-0.067427
C	 2.6743811308	-2.2937895529	-2.3000212368	-0.198426
C	 1.1957384873	-2.7116576561	-2.307827983	-0.222965
C	 0.4229813318	-2.109945562	-1.1134045002	-0.009363
C	 0.7852149797	-2.7561834913	 0.2300123204	-0.389671
H	 1.117748187	 1.7573921703	 0.1018734987	 0.130118
H	-0.3555191751	 1.8202808669	-0.9038443091	 0.101917
H	-0.4937757173	 1.7134046181	 0.8723284197	 0.124514
H	 0.3027561276	-0.1498302952	-2.0496670108	 0.041069
H	 2.4056586167	-0.2797628245	-3.0624202248	 0.083552
H	 3.8241510859	-0.4572510033	-2.0092927357	 0.105961
H	 3.1703017237	-2.6126264483	-3.2240309807	 0.093165
H	 3.2035081391	-2.773852903	-1.4695925301	 0.108636
H	 0.7345129941	-2.3638131856	-3.2421888437	 0.09176
H	 1.1017936617	-3.8029354252	-2.3019823481	 0.095386
H	-0.6507423406	-2.2501308796	-1.2884993104	 0.074255
H	 1.8304450366	-2.5733133939	 0.4922513272	 0.123728
H	 0.1683493264	-2.3436850226	 1.0309041584	 0.130529
H	 0.6245447234	-3.838461256	 0.1901345037	 0.100619
