19
gdb 66385	2.68235	1.26927	1.26565	2.9119	71.12	-0.2448	-0.0245	0.2203	1115.9615	0.158736	-460.172174	-460.163387	-460.162443	-460.206004	32.432	
C	 0.0237246579	 1.5450688826	 0.0108483796	-0.437899
C	-0.0142148526	 0.0176503195	 0.0028801503	 0.110157
C	 0.7123561558	-0.548598982	-1.2432422935	-0.117352
O	 0.851905044	-1.9588259046	-1.1772222827	-0.236393
C	 1.5387897296	-2.3471074264	-0.0171129529	 0.012836
O	 0.8628504708	-1.9712733913	 1.153492387	-0.236373
C	 0.724068487	-0.5618605129	 1.2359234789	-0.11739
C	-1.4523459183	-0.4908861772	 0.0069062711	 0.146226
O	-2.4214407918	 0.2266711911	 0.014198417	-0.256312
H	 1.0557857936	 1.9099194704	 0.0074636822	 0.11173
H	-0.4918228167	 1.9518061319	-0.8631466791	 0.134345
H	-0.4826996463	 1.9425304715	 0.8944157308	 0.134286
H	 0.1611554544	-0.3287951924	-2.1619990607	 0.124966
H	 1.7045590624	-0.0714276626	-1.3173020097	 0.096586
H	 1.5924297114	-3.4368929406	-0.0231784733	 0.124582
H	 2.5558491088	-1.9085898267	-0.0195904044	 0.079634
H	 1.7169965209	-0.0855681674	 1.305806963	 0.096591
H	 0.1815811102	-0.3520382612	 2.1621681853	 0.124934
H	-1.5531101411	-1.5943869317	 0.0025876711	 0.104848
