16
gdb 30382	3.03846	1.4956	1.1795	4.6147	81.77	-0.2372	-0.0875	0.1498	1067.5529	0.125303	-396.933383	-396.925499	-396.924555	-396.966085	28.987	
C	-0.2060506521	 1.2822957174	 0.4986722382	-0.326697
N	-0.1596295355	-0.1446263131	 0.2290210688	-0.260442
C	-1.1250315651	-0.6988252272	-0.3672340867	 0.349768
N	-2.2546508499	-0.0350683682	-0.8913353211	-0.221378
C	-3.42083172	-0.3252511169	-0.4468693514	-0.009423
C	-3.7828282052	-1.391435028	 0.4765133626	-0.093495
C	-3.0922785556	-2.5473294086	 0.6007737528	-0.086299
C	-1.906602981	-2.876649515	-0.1808379754	-0.004226
N	-1.0429786193	-2.0760841118	-0.68159131	-0.20655
H	 0.8069681282	 1.6870146269	 0.4107951503	 0.124837
H	-0.8763795614	 1.8401817357	-0.1664206956	 0.124698
H	-0.5297892901	 1.4575378043	 1.5328136712	 0.12054
H	-4.2517907553	 0.2755259148	-0.8263392223	 0.123956
H	-4.7368965676	-1.2875646417	 0.9868616232	 0.119461
H	-3.5086901126	-3.3465258255	 1.2086669103	 0.120228
H	-1.7629231375	-3.9399738033	-0.3898197248	 0.125021
