17
gdb 79665	2.69846	1.5129	1.19649	1.904	80.46	-0.2055	0.0259	0.2314	1067.8553	0.134258	-384.573045	-384.564878	-384.563934	-384.605261	32.463	
O	-0.0534177724	 1.4900985727	-0.1497189777	-0.413287
C	-0.1161730906	 0.102876309	 0.0207639611	 0.022484
C	-0.4771600685	-0.6530382852	 1.2614623794	-0.174384
C	-1.6789783362	-0.1376386243	 2.0857917576	-0.062786
C	-2.3183355039	 1.1344196125	 1.5815978628	-0.307585
C	-2.5685324017	-0.1618587057	 0.8623040129	-0.103894
C	-1.39468448	-0.6868404402	-0.0230980203	 0.101349
C	-1.5927703195	-1.7474266373	-0.9473277836	 0.22526
C	-1.7871795605	-2.6478776666	-1.7236555459	-0.411876
H	 0.6924230626	 1.8124131653	 0.3692813671	 0.288966
H	 0.657338902	-0.4275256172	-0.5398494921	 0.105569
H	 0.1469101347	-1.4645933719	 1.6159911267	 0.102138
H	-1.8924599242	-0.5417953427	 3.0660988374	 0.094859
H	-3.1631617143	 1.4530589067	 2.1868049014	 0.109065
H	-1.7467387572	 1.9315921305	 1.1324653788	 0.141338
H	-3.5508834892	-0.602106782	 0.7604843852	 0.096814
H	-1.951582511	-3.4375724234	-2.4135999509	 0.18597
