18
gdb 47487	2.84857	1.52643	1.13814	4.6109	74.22	-0.2398	0.0497	0.2894	1092.2482	0.148631	-439.087045	-439.079194	-439.07825	-439.119831	30.329	
N	-0.1252803634	 1.2407359743	 0.3878192059	-0.544282
C	-0.0202640989	 0.0579444302	-0.0388601661	 0.451591
O	 1.1797757161	-0.5283462354	-0.3008553102	-0.269486
C	 1.2708615054	-1.722141391	-1.0902213548	-0.074374
C	 0.1089462847	-2.6590720347	-0.8014993314	-0.298532
C	-1.1484121164	-1.8499339098	-0.9620147852	 0.458232
C	-1.8466448265	-1.7149928101	-2.2907514189	-0.324293
C	-2.502986163	-2.4466306574	-1.1318971354	-0.338164
O	-1.1421713421	-0.6919296838	-0.1457723514	-0.274872
H	 0.8019082934	 1.6532992073	 0.46776662	 0.224805
H	 1.282605835	-1.4446333854	-2.1524711501	 0.116167
H	 2.2377351668	-2.1629731953	-0.837264111	 0.122463
H	 0.1226177946	-3.5051592589	-1.4941122576	 0.114158
H	 0.179482973	-3.0489484438	 0.220374569	 0.123205
H	-2.2372127066	-0.7360338282	-2.5418101766	 0.1381
H	-1.4799509186	-2.2939332831	-3.1320699595	 0.115819
H	-2.5848159177	-3.5272089017	-1.1744186324	 0.119473
H	-3.319333186	-1.9436886833	-0.6268273244	 0.13999
