23
gdb 53444	4.06403	0.76968	0.68144	0.0992	95.33	-0.2376	0.0673	0.305	1741.779	0.207079	-351.164643	-351.154938	-351.153994	-351.20078	35.978	
C	-0.012804906	 1.5050126649	-0.0056231335	-0.499963
C	-0.0099751057	 0.0485669489	-0.008306632	 0.137263
C	-0.0033575486	-1.1561385118	-0.0195190649	-0.00382
C	-0.0089222909	-2.6168881327	-0.0044710014	-0.15909
C	 0.847654864	-3.1798416072	 1.154924304	-0.17926
C	 0.8388313152	-4.7142613932	 1.1687093173	-0.202064
C	-0.5905809248	-5.2711215524	 1.2264468764	-0.176901
C	-1.4501679016	-4.7167450607	 0.0817096244	-0.202064
C	-1.4477772184	-3.1823319715	 0.0648661487	-0.179261
H	 0.5577096973	 1.9043493963	 0.8405392111	 0.144475
H	 0.4328263517	 1.9074692442	-0.9223640229	 0.144483
H	-1.0313723358	 1.9026804245	 0.0673621335	 0.144482
H	 0.4384957313	-2.9722925926	-0.9458256251	 0.092304
H	 1.8707392653	-2.7989885206	 1.071833179	 0.09805
H	 0.4461653332	-2.796314666	 2.1019117039	 0.099595
H	 1.3361411754	-5.087354492	 0.2622734422	 0.091671
H	 1.4264014628	-5.0821528435	 2.0174373584	 0.08983
H	-0.5736594252	-6.3663404028	 1.1933157631	 0.088587
H	-1.0470836022	-4.994763717	 2.1871174316	 0.092536
H	-1.0613148839	-5.0899580923	-0.8762292584	 0.091672
H	-2.4785997982	-5.0863887749	 0.1630323793	 0.08983
H	-1.9286346276	-2.7988872146	 0.9741613135	 0.099597
H	-2.0306146371	-2.803225483	-0.7808489683	 0.098048
