23
gdb 113549	3.01609	1.00264	0.89243	1.6656	86.64	-0.2506	0.0779	0.3285	1462.0701	0.204245	-388.276892	-388.267012	-388.266067	-388.311794	36.992	
C	 0.3339438352	 1.5224375911	 0.2781227613	-0.374164
C	-0.3177094568	 0.2032172263	-0.1546468145	-0.208878
C	 0.3435345459	-0.3829717982	-1.3778839725	-0.032107
O	 1.6449157904	-0.97449614	-1.1858204965	-0.303335
C	 0.5737285179	-1.8191697101	-1.5703060579	 0.42983
C	 0.0367984614	-3.0022066232	-0.7600311612	-0.31748
C	-0.3941987218	-3.6430567303	-2.1123240941	-0.236036
C	 0.5288898843	-2.6375151503	-2.8697582857	-0.037983
C	 0.0416080726	-1.9962535696	-4.1595200361	-0.418169
H	 1.3931525554	 1.3686459412	 0.5041712307	 0.134742
H	 0.2658370754	 2.2769636593	-0.5132452218	 0.114052
H	-0.1511631831	 1.9288772168	 1.1704601504	 0.111951
H	-0.2662395145	-0.5230442122	 0.6633040516	 0.104129
H	-1.3815870364	 0.3638759067	-0.3749638954	 0.096755
H	 0.2852435222	 0.2418319584	-2.2728007467	 0.083537
H	 0.8490823518	-3.5531613794	-0.2768397365	 0.113607
H	-0.7425564247	-2.804751139	-0.0202833283	 0.103699
H	-0.18455136	-4.7055595875	-2.2474755276	 0.101042
H	-1.4505438444	-3.4626593225	-2.3316133904	 0.101126
H	 1.5163319517	-3.089499668	-3.0243771181	 0.083727
H	-0.9469554518	-1.5425807655	-4.0276175386	 0.111426
H	 0.729768266	-1.2142853308	-4.498887797	 0.12286
H	-0.0359516965	-2.7377576833	-4.9620726452	 0.11567
