17
gdb 38669	3.06142	1.82884	1.32723	0.8041	72.61	-0.2388	0.0223	0.2611	945.9372	0.139326	-417.972792	-417.966047	-417.965102	-418.003876	26.964	
C	-0.0155162728	 1.535675322	-0.0459468703	-0.248747
C	 1.5171596742	 1.5586497239	 0.0587750389	-0.092216
N	 2.1611854237	 0.8068260757	-1.0237589681	-0.386769
C	 1.5701004573	 0.058420869	 0.0635574088	 0.312887
C	 2.3126132207	-0.9448548031	 0.8762279497	-0.179831
O	 1.5832028601	-1.2447158774	 2.0827778843	-0.227211
C	 0.2374460932	-1.0802224848	 2.0762432023	 0.135433
N	-0.5409258312	-0.5813118484	 1.2087780909	-0.271424
C	 0.0414374151	-0.033203917	-0.0012629384	-0.051877
H	-0.5224112659	 1.9271007813	 0.8377763016	 0.124411
H	-0.441658538	 1.9951068974	-0.9435644889	 0.10002
H	 2.1249502294	 2.2790654262	 0.5942538911	 0.100902
H	 1.6025424955	 0.7737547187	-1.8758833065	 0.229131
H	 2.4363862694	-1.882639952	 0.318171571	 0.11919
H	 3.3004776166	-0.5921960483	 1.1820229826	 0.132922
H	-0.1661971837	-1.4638101301	 3.0118826186	 0.126127
H	-0.3820535936	-0.5498004231	-0.8712373476	 0.077052
