17
gdb 87272	2.10136	1.58288	1.06046	1.5317	71.02	-0.2631	-0.0453	0.2178	1152.1378	0.135102	-455.175273	-455.166165	-455.165221	-455.209067	33.458	
C	-0.191719169	 1.6207357033	 0.2989451897	-0.410116
C	-0.1578461173	 0.1118190436	 0.2613856347	 0.002034
N	 0.9174863044	-0.5488035404	-0.4368301791	-0.356149
C	 0.8484348163	-0.7450045018	 1.0288336365	 0.072614
C	 1.9354540045	-0.068930642	 1.7848447651	 0.120259
O	 2.2277947587	-0.2837786035	 2.9418797579	-0.290304
C	 0.2795907878	-2.0853364706	 1.4674764547	 0.35637
N	 0.4928832711	-2.4277704878	 2.75434597	-0.547547
O	-0.3424160547	-2.7653616544	 0.6645748012	-0.388891
H	 0.8099607943	 2.0530088346	 0.2635052243	 0.131745
H	-0.7450683032	 1.9916175768	-0.5703321025	 0.135563
H	-0.7018918733	 1.979518093	 1.1982982311	 0.131402
H	-1.1325368835	-0.3717827559	 0.2133697335	 0.123067
H	 0.5688972372	-1.4190274119	-0.8439814659	 0.258773
H	 2.4898408682	 0.6795278562	 1.1865195021	 0.114617
H	 1.0931917186	-1.8541224303	 3.3321966845	 0.284075
H	 0.17039419	-3.3298970289	 3.0640922122	 0.262488
