16
gdb 55842	4.49944	0.89037	0.77774	1.4086	65.98	-0.2516	-0.0051	0.2465	1384.9974	0.124014	-475.087815	-475.079208	-475.078264	-475.122298	31.088	
N	 0.1185758786	 0.4622780958	-0.8906618095	-0.509399
C	 0.0233253822	 0.073412407	 0.4102327405	 0.370212
O	 0.6921206494	 0.5539028103	 1.3032685193	-0.353503
C	-1.0333195775	-1.007566765	 0.6826509136	-0.311359
C	-0.9306909831	-2.241731524	-0.1952514766	 0.121309
C	-2.0850866271	-3.2609342289	-0.1432793327	-0.438927
C	-2.3127952028	-2.8521777225	-1.5971223357	 0.454487
O	-3.0474180075	-3.1133714473	-2.4904008359	-0.303964
O	-1.2660573993	-1.9541115892	-1.6083417608	-0.260853
H	 0.8174822338	 1.1470776166	-1.1280729263	 0.261989
H	-0.3874748173	-0.008721138	-1.6234306177	 0.277651
H	-0.9126188752	-1.2994282426	 1.7287139946	 0.142089
H	-2.0323192399	-0.5686185595	 0.5678131082	 0.128759
H	 0.0672605048	-2.6852037453	-0.1565228435	 0.116871
H	-1.8066599093	-4.3073217532	-0.0106228253	 0.153468
H	-2.9117669298	-3.012748104	 0.5251455277	 0.151169
