18
gdb 66818	2.73436	2.18059	1.81385	0.9518	80.96	-0.209	-0.0322	0.1768	854.5443	0.148506	-364.698999	-364.692303	-364.691359	-364.729427	28.451	
C	 0.024821997	 1.6305556516	-0.2209100211	-0.519694
C	 0.1062250021	 0.1349889293	-0.0744620627	 0.325569
C	 0.6266735469	-0.8168184232	-1.1471787574	-0.113505
C	 1.0968152278	-1.979266149	-0.3677954953	-0.046982
C	 1.202640742	-1.6669320954	 1.0514774383	-0.116861
C	 0.4935643263	-0.5250674456	 1.274010186	-0.046582
C	-0.9655765507	-0.8129539755	 1.6668579315	-0.272446
C	-1.1042465532	-0.8166086332	 0.0926472615	-0.001107
N	-0.4193520853	-1.8447703661	-0.8158421394	-0.196884
H	 1.0265470885	 2.0736611759	-0.2496314784	 0.127248
H	-0.4947840455	 1.912957095	-1.143290082	 0.117686
H	-0.5095984127	 2.0819881267	 0.6213432814	 0.123714
H	 0.9200688419	-0.5909721667	-2.1662889134	 0.094119
H	 1.559081923	-2.8297183561	-0.8542270617	 0.104063
H	 1.2702691656	-2.4632481425	 1.7869867001	 0.099301
H	-1.1541125735	-1.7272462115	 2.2306384585	 0.114913
H	-1.5597009384	 0.0141550648	 2.0717735588	 0.10648
H	-2.0809319316	-0.5846080387	-0.3386456048	 0.100969
