10
gdb 157	8.50694	8.12007	4.38248	1.6299	38.7	-0.2479	0.0241	0.272	315.6279	0.081779	-247.215049	-247.210764	-247.20982	-247.242343	14.168	
C	-0.0124700737	 1.4233355053	-0.0659022493	-0.102541
C	 1.4970006666	 1.7592627927	 0.0625052858	-0.176775
N	 2.1373234325	 0.4803077335	 0.4259543641	-0.258782
C	 1.1993059856	-0.3673823254	 0.4850232722	 0.1296
O	-0.0783805865	 0.0062769814	 0.2332696776	-0.219055
H	-0.6438209952	 1.9517757918	 0.6533935209	 0.122029
H	-0.4137093707	 1.5769741375	-1.0712080189	 0.12203
H	 1.9256608534	 2.1347816661	-0.8720894924	 0.120654
H	 1.6975885142	 2.5063024524	 0.83705427	 0.120655
H	 1.3148879739	-1.4177357254	 0.7287326101	 0.142185
