16
gdb 71436	4.58994	1.10343	1.01967	3.1157	69.38	-0.2329	-0.0274	0.2055	1145.7632	0.123257	-437.799793	-437.792159	-437.791215	-437.832194	29.196	
O	 0.1327317598	 1.3268051313	 0.2920178302	-0.456429
C	 0.1122175046	-0.0222785006	 0.0333028429	 0.364928
C	 0.6883754239	-0.7987501233	-1.1389927842	-0.237588
N	-0.2602287879	-1.929029209	-0.7783764838	-0.185079
C	-1.0952855361	-0.8944936508	 0.010168211	-0.085398
C	-0.1279685402	-1.0750198564	 1.1553242275	-0.161671
C	 0.3184656202	-2.3998041737	 0.5570342519	-0.071106
C	-0.4662068902	-3.5768203113	 1.08633035	 0.172291
O	 0.0130237961	-4.4567031137	 1.7539184876	-0.2549
H	 0.9384064052	 1.5389059402	 0.7769407285	 0.293995
H	 0.3905736402	-0.3758140783	-2.1016677635	 0.122092
H	 1.7479953656	-1.0763491189	-1.1599139925	 0.104016
H	-2.1582773252	-0.7287050417	-0.0822476975	 0.115083
H	-0.2366757445	-0.7678038357	 2.1883183983	 0.106088
H	 1.3837677469	-2.6503175972	 0.5403320509	 0.090326
H	-1.5481196285	-3.5592123608	 0.8274487628	 0.083349
