18
gdb 78847	2.80199	1.78711	1.47329	1.9194	73.17	-0.2268	0.0735	0.3002	952.1015	0.148462	-401.891158	-401.8838	-401.882856	-401.922552	29.817	
C	 0.1230323091	 1.5377347242	 0.1406317547	-0.509343
C	-0.0733956903	 0.0685065796	-0.0609119209	 0.344314
C	 0.499261072	-0.7792768212	-1.2195028137	-0.185201
C	-0.2525780588	-2.1040548624	-1.1038283955	-0.12634
C	 0.8908258134	-1.7965461055	-0.1863588337	-0.02085
N	 0.3451758292	-0.9539556337	 0.9571159984	-0.203648
C	-1.0930743814	-0.8039870507	 0.5872746309	-0.146397
C	-1.5585287079	-1.8967767576	-0.3588214843	 0.133102
O	-2.6647151217	-1.5285033489	-1.161041414	-0.435438
H	 1.175833561	 1.8140988211	 0.0172494417	 0.127635
H	-0.4658054378	 2.1179775335	-0.5795472858	 0.117941
H	-0.1862858372	 1.8285099754	 1.148564638	 0.133508
H	 1.0178095516	-0.4295572929	-2.1009826213	 0.095091
H	-0.1468773851	-2.8521462634	-1.8790337475	 0.097832
H	 1.7853574878	-2.3870008251	-0.0431561459	 0.100681
H	-1.739231078	-0.4320125366	 1.3745256456	 0.09665
H	-1.8710590211	-2.7984453332	 0.1771809656	 0.099314
H	-2.4022840847	-0.7513165525	-1.6680498123	 0.281149
