17
gdb 92837	2.31228	1.72466	1.59591	2.0146	68.72	-0.2358	0.0003	0.2361	945.7621	0.136973	-455.104281	-455.096361	-455.095417	-455.136247	31.103	
O	 0.0015780348	 1.4269629514	 0.0456088846	-0.436424
C	 0.0069120832	 0.0139235953	-0.0363064732	 0.065501
C	 0.4632362076	-0.6379995761	 1.3164089724	-0.208354
N	-0.7652713625	-0.6556032674	 2.1837931378	-0.324513
C	-1.7048132123	-0.7066462021	 1.3287990663	 0.280895
N	-3.0538574435	-0.3947048277	 1.1922531317	-0.370454
C	-2.7772302812	 0.1506139437	-0.1929377328	-0.266639
C	-1.4060439599	-0.6102575451	-0.1446498623	 0.34026
O	-1.3165464549	-1.7860123008	-0.9125400375	-0.484086
H	-0.2531843516	 1.6694764186	 0.9433093753	 0.289714
H	 0.6299171377	-0.256264572	-0.8918078902	 0.100293
H	 0.8639667446	-1.6469601963	 1.1667498325	 0.120303
H	 1.2384576904	-0.0330552148	 1.7955809832	 0.11214
H	-3.5363835521	 0.1485886699	 1.8993438148	 0.244322
H	-3.4833835655	-0.198106548	-0.949435847	 0.117197
H	-2.6753245935	 1.2388163476	-0.2208218879	 0.128829
H	-2.0276162313	-2.380696556	-0.6485131174	 0.291019
