19
gdb 96686	4.13902	0.65511	0.57363	4.9756	80.23	-0.2574	0.0201	0.2775	1889.4062	0.156591	-419.231522	-419.220719	-419.219775	-419.269385	36.009	
C	-0.0002372999	 1.4937625371	-0.1242280227	-0.32825
N	 0.0177626596	 0.0470011867	-0.0899031912	-0.282231
C	-1.0534768452	-0.6089042817	 0.0466258479	 0.405176
C	-2.4755168816	-0.118836799	 0.1936695356	-0.488792
O	-1.0202451988	-1.9694121022	 0.0770796785	-0.256993
C	 0.2630067786	-2.5736565057	-0.0515524476	-0.049209
C	 0.0152705093	-4.0847933628	 0.0141753499	-0.346444
C	 1.2558980318	-4.8448203339	-0.1057642358	 0.249219
N	 2.2442975176	-5.4351032776	-0.2017000242	-0.299693
H	 0.6356987643	 1.8831519572	 0.6794147355	 0.130148
H	 0.4399647356	 1.839286707	-1.0669432936	 0.130149
H	-0.9926702653	 1.9538643128	-0.0245499401	 0.102965
H	-2.7735952998	 0.4736018717	-0.6760632698	 0.14823
H	-3.1539912019	-0.9660827499	 0.2910798768	 0.142837
H	-2.5770681854	 0.5178089756	 1.0772069417	 0.148229
H	 0.7280826433	-2.2842062754	-0.9985088612	 0.136216
H	 0.9244291508	-2.24019012	 0.7535088831	 0.136216
H	-0.4716875713	-4.3384281903	 0.9617467952	 0.161114
H	-0.6678249618	-4.3823981497	-0.7884219979	 0.161114
