18
gdb 109518	1.9488	1.48416	1.08321	3.0164	74.25	-0.2552	0.0289	0.2841	1191.2903	0.144534	-439.073322	-439.063354	-439.06241	-439.107989	35.754	
C	-0.4587777811	 1.1124603103	 0.1611286295	-0.244749
O	 0.4557418396	 0.0659378907	-0.1403828024	-0.234286
C	 0.9536002329	-0.5659089956	 0.9756658836	 0.097941
C	 0.1484743862	-1.7105392751	 1.6377253838	-0.329122
C	-1.1275286144	-2.0891022897	 1.1177950004	 0.311723
N	-2.1611058962	-2.3998844823	 0.6972607464	-0.356849
C	 1.4433030663	-1.9571769418	 0.8216890211	 0.326979
C	 1.3723059326	-2.6587031108	-0.5117246183	-0.458721
O	 2.5759420212	-2.2268298024	 1.5915327425	-0.455027
H	 0.0177101713	 1.8873673236	 0.7779176568	 0.113805
H	-0.7613178238	 1.5477018906	-0.792601993	 0.139632
H	-1.3442987668	 0.7300663053	 0.6827467033	 0.13609
H	 1.4937017214	 0.0655079252	 1.6824499356	 0.112548
H	 0.258650319	-1.7993737829	 2.7130761404	 0.134296
H	 0.5014472883	-2.337486905	-1.0836020225	 0.160623
H	 2.2734870136	-2.432047055	-1.0885708937	 0.13693
H	 1.3114872687	-3.7439778053	-0.3718872552	 0.119625
H	 2.6119881812	-3.1779067898	 1.7472514817	 0.288562
