17
gdb 100607	3.09835	0.88084	0.73258	0.7933	68.91	-0.2429	-0.0313	0.2116	1511.6649	0.134625	-492.295489	-492.28555	-492.284606	-492.331231	34.44	
N	-0.1995796157	 1.4432428249	-0.0614015984	-0.524782
C	-0.0050797756	 0.0055743638	 0.0122915231	-0.105507
C	 0.7845671256	-0.5793276239	-1.1928716888	-0.089559
O	 0.2043310616	-0.1692108869	-2.4178093954	-0.407344
C	 0.7242780342	-0.3513614246	 1.2881891368	 0.473301
O	 1.4004552364	 0.3970307476	 1.9400323434	-0.343091
O	 0.5485462219	-1.681043166	 1.5744004168	-0.207635
C	 1.1789242717	-2.1957258194	 2.6836976685	 0.115634
N	 1.0425348567	-3.4231726506	 2.9157342646	-0.417158
H	 0.61353481	 1.9080810786	 0.3325098045	 0.241496
H	-0.267846424	 1.7035561854	-1.0412045396	 0.239432
H	-0.9789638446	-0.5039133264	 0.0400612652	 0.105821
H	 1.8004204325	-0.1694651795	-1.1903318718	 0.121338
H	 0.8497404176	-1.6725015083	-1.1136895464	 0.116403
H	-0.6192474483	-0.6544269238	-2.5375199764	 0.291075
H	 1.73514552	-1.4431592452	 3.2422942568	 0.147572
H	 1.5510055901	-3.6732654159	 3.7628231271	 0.243004
