18
gdb 114587	2.69224	1.20178	0.96773	0.8705	80.33	-0.2235	0.0296	0.2531	1247.936	0.146512	-401.862108	-401.853169	-401.852225	-401.895814	33.697	
O	 0.0030786406	 1.3894314971	-0.2537702185	-0.425998
C	 0.0236019091	 0.0116846094	 0.101215968	-0.102232
C	-1.396872865	-0.5027671335	-0.0160478454	-0.04152
C	-2.0401244419	-0.6126333418	-1.443920785	-0.229373
C	-2.2394242968	-2.110859103	-1.205024264	-0.119312
N	-0.9002575989	-2.6813552035	-0.9781124228	-0.373275
C	-1.615163274	-2.0214046795	 0.1606506408	 0.203263
C	-1.9096104121	-2.7220454187	 1.3600674749	 0.172101
C	-2.1513855323	-3.2935000896	 2.3921421412	-0.411719
H	 0.9114220236	 1.7024907093	-0.2888917853	 0.286889
H	 0.6756758976	-0.569256533	-0.5642480186	 0.108083
H	 0.381825906	-0.1298703816	 1.134189958	 0.087704
H	-2.0504894391	 0.0577224344	 0.6566395275	 0.090296
H	-2.9741201571	-0.0546938073	-1.524322684	 0.108968
H	-1.3887059352	-0.3624976109	-2.2839222592	 0.115106
H	-3.0624141926	-2.7378953215	-1.5256820379	 0.106163
H	-1.0130205116	-3.6860210432	-0.8420076455	 0.236399
H	-2.3700148605	-3.8000234431	 3.2992813759	 0.188457
