20
gdb 78612	3.086	1.43245	1.17674	1.2594	79.48	-0.2077	0.0684	0.2761	1112.3351	0.169286	-403.045758	-403.036962	-403.036018	-403.078642	33.975	
C	-0.7071621704	 1.411294793	-0.4200820048	-0.333954
N	-0.4709068395	 0.0061802772	-0.1118940906	-0.105082
C	-1.2201789209	-0.6020783541	 1.0292568944	-0.074932
C	-0.1225911532	-1.6962974666	 1.2034300164	-0.105517
C	-0.0642859701	-1.475445695	 2.717136613	 0.102425
O	 1.1163898115	-1.758766356	 3.4312077494	-0.449296
C	-0.2981075499	-0.0409738818	 2.1919911182	 0.279015
C	-0.3960180272	 1.1781609735	 3.0718008771	-0.533367
C	 0.5799996415	-0.3341636834	 0.8898417565	-0.097646
H	 0.0997629234	 1.7718891089	-1.0673964475	 0.118698
H	-1.6425256572	 1.4957629516	-0.9839590529	 0.120095
H	-0.7743876117	 2.0827197268	 0.4482463725	 0.100583
H	-2.3029891261	-0.7409183187	 1.0327053978	 0.078727
H	-0.0371257575	-2.6026278834	 0.6057842186	 0.082457
H	-0.8803970249	-1.9090150703	 3.3037441657	 0.081774
H	 1.8682509237	-1.4653346123	 2.9053445315	 0.28206
H	 0.4557016825	 1.1981468002	 3.7619589905	 0.12788
H	-0.4027653071	 2.1193965818	 2.5187376574	 0.127312
H	-1.3063082831	 1.1376422703	 3.6813516439	 0.124179
H	 1.6405913764	-0.1362500216	 0.715408173	 0.074588
