18
gdb 41535	2.77073	1.69778	1.14545	2.6466	73.08	-0.247	0.0178	0.2648	1058.3893	0.149929	-439.069505	-439.061945	-439.061001	-439.101888	28.805	
C	 0.0470909557	 1.4725682199	-0.2053542611	-0.121367
O	 1.2572936023	 1.5156931039	 0.6159677317	-0.261359
C	 1.2247724702	 0.1540720165	 0.8088251115	 0.425673
N	 1.9149870221	-0.4939853544	 1.6234195499	-0.311518
C	 1.6836635058	-1.9252820477	 1.7625705725	-0.150101
C	 0.5368873375	-2.5630160592	 0.9496464749	-0.244805
C	-0.8178663818	-1.8527750385	 1.093788164	-0.060734
O	-1.039203819	-0.766106467	 0.1856992711	-0.271376
C	 0.1043806286	-0.068180643	-0.2072917131	-0.025245
H	-0.8114673435	 1.8796963274	 0.3342022975	 0.12979
H	 0.1960184398	 1.983800501	-1.1580328228	 0.121738
H	 2.6232927194	-2.4475247608	 1.5412996063	 0.113593
H	 1.4933452087	-2.1065251879	 2.8293634198	 0.114722
H	 0.7974171629	-2.6421624167	-0.1119298284	 0.113955
H	 0.4187790075	-3.5930421908	 1.3062836556	 0.105696
H	-1.6349313006	-2.5525653545	 0.8947796644	 0.113175
H	-0.9359774742	-1.4927993606	 2.1271815791	 0.105328
H	 0.4978295587	-0.4515957677	-1.159447163	 0.102836
