16
gdb 5638	3.38015	1.93066	1.35383	2.5439	65.93	-0.1999	0.0505	0.2504	914.726	0.132039	-379.96701	-379.959351	-379.958407	-379.999509	28.137	
C	-0.1396230667	 1.5576744251	 0.0036035782	-0.374867
C	 0.0284961358	 0.0365380459	 0.0104215341	-0.160016
N	 0.6835139064	-0.4686227034	-1.1869790303	-0.044549
C	 0.0873599676	-0.8605011075	-2.3845738083	-0.138028
C	 1.1139462685	-1.1974113076	-3.2158216725	-0.099228
N	 2.3356663086	-1.0232231506	-2.5849426382	-0.37568
C	 2.0200166766	-0.5879506279	-1.3944523271	 0.438158
O	 2.8751537381	-0.2645891812	-0.4041440715	-0.432358
H	 0.834858117	 2.0511298805	-0.0450435185	 0.139316
H	-0.7331580651	 1.8815484815	-0.8562079612	 0.128973
H	-0.6466152237	 1.8859214245	 0.9162475168	 0.12054
H	 0.6257577831	-0.2755041963	 0.8712785015	 0.137315
H	-0.9434596304	-0.4596133604	 0.0898704958	 0.120362
H	-0.9836528106	-0.8648348197	-2.4998896314	 0.120219
H	 1.0577389966	-1.5606955701	-4.2301657023	 0.106485
H	 3.7588369181	-0.4455379627	-0.7479473149	 0.313357
