23
gdb 103997	2.51397	1.31752	1.18749	1.077	85.46	-0.2363	0.0701	0.3064	1221.5059	0.204014	-388.272365	-388.262513	-388.261568	-388.306293	38.309	
C	-0.0189621246	 1.5646908744	 0.1036791747	-0.406471
C	-0.1081698137	 0.0420393352	-0.0550201201	-0.222467
C	 0.7213924738	-0.5069326201	-1.2184125025	 0.350076
O	 0.2774221452	 0.0370489003	-2.4571231071	-0.488612
C	 2.2912597911	-0.4718930165	-1.1115289633	-0.293421
C	 2.3192671337	-1.984663774	-1.3503846499	-0.093012
C	 1.5397688741	-2.672718284	-0.2653911347	-0.34233
C	 0.7895938703	-2.038166771	-1.4079616962	 0.343309
C	-0.1300376952	-2.8056677977	-2.314553277	-0.49852
H	 1.016576527	 1.8948106796	 0.2441969715	 0.119239
H	-0.4259617272	 2.08676396	-0.7695473507	 0.11053
H	-0.5930373706	 1.9023417301	 0.9714459934	 0.118699
H	 0.2167395006	-0.4361679938	 0.8751443794	 0.094608
H	-1.1533934715	-0.250457204	-0.2136455897	 0.101434
H	 0.4490547495	 0.9841090789	-2.4439282643	 0.27594
H	 2.7148081287	 0.1083213225	-1.934120795	 0.098123
H	 2.7249695715	-0.1294139811	-0.1648607107	 0.084674
H	 3.0410827431	-2.5118948753	-1.9630203098	 0.080438
H	 1.5558204716	-3.7582128056	-0.291175399	 0.108107
H	 1.5167440901	-2.2614404409	 0.7413816445	 0.09969
H	-1.1262953534	-2.9239297287	-1.8709883267	 0.113804
H	-0.2483164259	-2.2916438181	-3.271750499	 0.136936
H	 0.2646714716	-3.8090955801	-2.5063324078	 0.109225
