21
gdb 92110	2.72667	1.59766	1.35237	1.6679	81.66	-0.2329	0.0916	0.3245	1065.6363	0.183286	-387.074983	-387.066922	-387.065978	-387.107023	32.543	
C	-0.2982520851	 1.5555898664	-0.0508659595	-0.397564
C	 0.0297837833	 0.0647954382	-0.0259809189	 0.115512
O	 0.7042046753	-0.3471762257	-1.230233047	-0.284912
C	 2.0000443777	-0.805383447	-0.8718798739	 0.090693
C	 2.8807061171	 0.347836834	-0.3014870928	-0.303305
C	 2.4292562292	-0.073131349	 1.1034781625	 0.329657
C	 3.1840563714	 0.2119861042	 2.3701646506	-0.501725
C	 1.9123504856	-1.4042535152	 0.554787843	-0.144226
C	 0.9391687714	-0.406463312	 1.1036470336	-0.117173
H	 0.6062986258	 2.1688628235	-0.0420763878	 0.119554
H	-0.8745670334	 1.8016420634	-0.9473547835	 0.123334
H	-0.9008307077	 1.8216768925	 0.8248097391	 0.108644
H	-0.9152260584	-0.4967251937	 0.0240195989	 0.073829
H	 2.3989402329	-1.3975571209	-1.6944078596	 0.078949
H	 3.9480585679	 0.139078475	-0.4341904588	 0.093585
H	 2.6635589673	 1.3571683787	-0.665044759	 0.092691
H	 3.136496964	 1.2763649263	 2.6298575145	 0.121013
H	 2.7771712422	-0.352983397	 3.2156229872	 0.116509
H	 4.2421307415	-0.0556560445	 2.2665585514	 0.117128
H	 2.0486835366	-2.4259396301	 0.8841094233	 0.08447
H	 0.4985984555	-0.583576297	 2.0788941569	 0.083335
