20
gdb 84220	2.79195	1.655	1.3637	0.902	86.07	-0.2052	-0.0401	0.1651	1041.5558	0.170037	-365.898027	-365.889863	-365.888918	-365.930144	32.65	
C	-0.0575233261	 1.537298081	-0.4203486778	-0.396843
C	-0.0480416358	 0.0535843989	-0.0599660046	 0.041152
C	 0.6458504299	-0.7762357388	-1.1430943944	-0.120245
C	 1.5040990868	-1.6143025163	-0.5324107546	 0.018663
C	 2.9122485757	-1.0539192166	-0.3117730189	-0.310598
C	 2.2792897641	-0.5705038291	 1.0703920799	 0.312364
C	 3.1167109022	-0.108197381	 2.2286071544	-0.471668
C	 1.2254947635	-1.6042369427	 0.988891374	-0.134075
N	 0.7761162466	-0.2379227272	 1.1588868931	-0.165506
H	 0.9386245812	 1.8752963315	-0.7247466749	 0.117799
H	-0.7525242304	 1.7361918758	-1.2417519027	 0.11868
H	-0.3656242924	 2.1251173146	 0.448774395	 0.130194
H	-1.0676926552	-0.2581951949	 0.2056772947	 0.089008
H	 0.8514455778	-0.3299056887	-2.1129438467	 0.097388
H	 3.7070528778	-1.7698856128	-0.0688907815	 0.107006
H	 3.2752695808	-0.3201829809	-1.0369619486	 0.102415
H	 3.5056882763	 0.9014387812	 2.0550728883	 0.122581
H	 2.5257291217	-0.0912454308	 3.1468337552	 0.137092
H	 3.9739373438	-0.7757886748	 2.3719509972	 0.117079
H	 0.9497714518	-2.4189227084	 1.6498984529	 0.087513
