14
gdb 44439	3.25882	1.91489	1.68056	3.4664	61.36	-0.2495	0.0114	0.2608	816.6095	0.103491	-473.800466	-473.794582	-473.793638	-473.830655	24.029	
N	-0.0764390621	 1.2723636017	-0.2451838844	-0.550695
C	-0.0200819951	 0.0419576534	 0.0208493253	 0.492879
O	 1.1373538974	-0.6432052186	 0.285058576	-0.250399
C	 0.9616187478	-2.0145142459	 0.5569735323	 0.019519
C	-0.1348715936	-2.763772015	-0.1752421122	 0.004543
O	-1.0450395908	-1.9191815273	-0.8375544092	-0.238699
C	-1.2358786672	-0.8521764812	 0.0846538245	 0.008475
O	-1.2730809804	-1.451213495	 1.3750655098	-0.2387
C	-0.2867638018	-2.4520728975	 1.2985262023	 0.004543
H	 0.8555702264	 1.6922356149	-0.2379256217	 0.226893
H	 1.9098418231	-2.4978415497	 0.7569225106	 0.128326
H	-0.0162219316	-3.7329653032	-0.6394590847	 0.12879
H	-2.1619816927	-0.3218554699	-0.1229571838	 0.135737
H	-0.3012139395	-3.1481401367	 2.1256853853	 0.12879
