14
gdb 15322	3.28466	1.32742	1.02373	4.2716	60.78	-0.2603	-0.035	0.2253	1087.4913	0.104667	-419.685652	-419.677657	-419.676713	-419.71941	27.189	
O	 0.1266170939	 0.0655231696	-0.1575158041	-0.257983
C	 0.1844975094	 1.2502084804	-0.2671739043	 0.175417
O	 1.04953407	 2.0009575056	 0.459285187	-0.18697
C	 1.0227919786	 3.3927679031	 0.2356560143	 0.1115
C	 2.1246663932	 4.1655255527	 0.8439791976	-0.329429
C	 2.0655922296	 4.0226989582	-0.6800733574	-0.141911
C	 3.0928635878	 3.1759384439	-1.3391128172	 0.161345
O	 3.5363487788	 3.3986694195	-2.4378306362	-0.259532
H	-0.44569574	 1.8558838449	-0.9450295578	 0.090399
H	 0.0236039963	 3.8181960615	 0.2099767853	 0.128244
H	 1.9174609031	 5.1382922207	 1.2725134735	 0.143581
H	 2.8934169169	 3.5906401794	 1.3497381208	 0.151725
H	 1.7507503107	 4.8795691365	-1.2653257337	 0.119691
H	 3.4410376117	 2.3099731339	-0.7358480477	 0.093923
