19
gdb 88708	3.3444	0.98989	0.83329	2.2072	83.33	-0.2453	0.0434	0.2887	1410.1342	0.156815	-385.825119	-385.81575	-385.814805	-385.859855	34.78	
C	-0.2234173676	 1.490137218	-0.0851908719	-0.418806
C	-0.0985486209	 0.0012344178	 0.1150504871	 0.069889
O	 1.1870226226	-0.5936614369	-0.0987685587	-0.265171
C	 0.6303107166	-0.6453629374	 1.2208961759	 0.05086
C	 1.3538379958	 0.0996092638	 2.2907436502	-0.038212
C	 0.8539842804	 0.0580975381	 3.7084248639	-0.303748
C	 2.1473101499	-0.6576800133	 3.3579514637	-0.196391
C	 2.2015612698	-2.0900965709	 3.3689855946	 0.333918
C	 2.2543253751	-3.2919710038	 3.385981959	-0.463929
H	 0.5974374003	 2.037545439	 0.3822050348	 0.124909
H	-0.2222106283	 1.7278196434	-1.1541118702	 0.130344
H	-1.167663815	 1.8517804944	 0.3364176274	 0.122352
H	-0.9175620336	-0.5755420518	-0.3217977177	 0.086296
H	 0.2998383217	-1.640933037	 1.5211675422	 0.099565
H	 1.8183029055	 1.0227399519	 1.9637317338	 0.101248
H	 0.9189546869	 0.9577240732	 4.3094989165	 0.122288
H	-0.0039297888	-0.5696784326	 3.9222715009	 0.129735
H	 3.0624331332	-0.1689761823	 3.6790089186	 0.117411
H	 2.3060593164	-4.3522862136	 3.3963838699	 0.197442
