18
gdb 35334	5.49686	0.8437	0.83645	2.4841	76.64	-0.2587	0.0232	0.282	1378.7331	0.14818	-401.928606	-401.920332	-401.919388	-401.962535	30.307	
N	-1.0157497092	-0.4477412698	-1.3261346705	-0.324047
C	-0.5376185176	 0.416439795	-0.7244560581	 0.267049
C	 0.077235389	 1.4806506664	 0.0488824042	-0.136999
C	-0.0737342613	 1.4476029506	 1.6035988162	-0.304501
C	 1.4102444926	 1.867935378	 1.7238571425	 0.294218
C	 1.7753198792	 3.2977948049	 2.1833314913	-0.124335
O	 2.6168918525	 2.7931216559	 3.2367791663	-0.269974
C	 2.3276957648	 1.4278924852	 2.87531265	-0.141932
C	 1.6262032959	 1.4488631074	 0.2503890734	-0.304353
H	-0.2441708886	 2.4449524588	-0.3539219748	 0.127381
H	-0.8266666001	 2.1087332922	 2.0380830406	 0.121155
H	-0.2408897504	 0.4297319637	 1.9652942906	 0.128733
H	 2.3393550755	 3.8996503394	 1.4579555924	 0.103381
H	 0.9417443071	 3.8974193558	 2.5734528393	 0.103314
H	 1.8322005976	 0.8806276473	 3.6884259317	 0.105481
H	 3.2303112719	 0.8793681111	 2.5744463244	 0.105539
H	 2.0170644928	 0.4313761086	 0.1680231948	 0.128717
H	 2.2179308882	 2.1108815494	-0.3855064444	 0.121173
