14
gdb 36754	2.96877	0.80239	0.70235	3.3321	69.77	-0.2947	-0.0211	0.2736	1546.7606	0.09944	-432.870235	-432.861037	-432.860093	-432.906203	30.543	
N	 1.1426073515	-0.4994745512	 0.6451362655	-0.279978
C	 0.5513206718	 0.4554570742	 0.3772157453	 0.266888
C	-0.1997618462	 1.674519667	 0.041997405	-0.219494
O	 0.5471064525	 2.5596900901	-0.7785705949	-0.191668
C	 1.4509566827	 3.3420731069	-0.142163577	 0.148706
N	 2.2043924032	 4.0785315117	-0.8272210151	-0.227715
C	 3.1590843622	 4.9510476521	-0.1725755909	-0.241985
C	 3.1416971515	 4.9566970756	 1.3013365544	 0.233868
N	 3.0787535782	 4.924657825	 2.4549761741	-0.307641
H	-1.0894681233	 1.4047491605	-0.5315986728	 0.181241
H	-0.5265290869	 2.162689767	 0.968739801	 0.16795
H	 1.4354121448	 3.2723497921	 0.9526519768	 0.126734
H	 4.1679492597	 4.6805497791	-0.5066833899	 0.172786
H	 2.9913950083	 5.9768656099	-0.5217620717	 0.170306
