21
gdb 108337	2.55684	1.62064	1.29504	1.7462	80.88	-0.2399	0.0733	0.3132	1087.6496	0.182847	-387.036377	-387.028201	-387.027257	-387.068919	32.57	
C	 0.0152369356	 1.4705754417	 0.2527929726	-0.388417
C	-0.0597948296	-0.018975911	-0.1008917854	-0.279406
C	 0.755513962	-0.4167363963	-1.3097558085	 0.465344
O	 0.8334628655	-1.8674377538	-1.4699242119	-0.343751
C	 2.2841871899	-1.8337699609	-1.4728777235	-0.118942
C	 2.2916652216	-0.2956092537	-1.4447014535	-0.125943
C	 2.0929511013	 0.4674965532	-2.7746050713	-0.064913
C	 1.2623795735	-0.2976026834	-3.7668928946	-0.299942
C	 0.5635935476	 0.379120074	-2.6262432637	-0.091494
H	 1.0471893767	 1.7820484749	 0.4467110351	 0.11774
H	-0.3761994072	 2.1020189743	-0.5501987183	 0.121444
H	-0.568506285	 1.6805629112	 1.153698472	 0.117181
H	 0.2789346437	-0.6229230287	 0.7486957483	 0.103382
H	-1.1028233528	-0.3088912584	-0.2881568596	 0.107675
H	 2.6915780095	-2.3020411084	-0.567940651	 0.098561
H	 2.711944529	-2.3251022512	-2.3546172071	 0.100164
H	 2.9009400804	 0.210899621	-0.6970730998	 0.075275
H	 2.6932635209	 1.3162992437	-3.0785619228	 0.086237
H	 1.144317125	 0.1939490136	-4.7274674836	 0.108984
H	 1.2839508995	-1.3801963394	-3.8196282986	 0.130489
H	-0.190469347	 1.1408279776	-2.786746085	 0.080333
