19
gdb 72256	2.38829	1.6951	1.47502	2.4121	74.29	-0.2294	0.0707	0.3001	998.678	0.159903	-422.998371	-422.990383	-422.989438	-423.030208	32.186	
O	-0.1462244771	 1.371647831	-0.0244551542	-0.467815
C	-0.0065076373	-0.0021522675	-0.0481928169	 0.346873
C	 0.8544283405	-0.789803358	-1.0314702935	-0.302001
C	-0.1257037802	-2.0016740717	-0.834344452	-0.100724
C	 0.3913859283	-2.9753662801	 0.235030231	-0.211091
C	 0.5444298462	-2.0851534176	 1.5033126586	-0.236035
C	-0.3200153847	-0.8632831239	 1.1946900279	-0.201633
C	-1.0988315586	-1.0356256095	-0.088846204	 0.333877
O	-2.4535096448	-0.8848006697	-0.2835844704	-0.460945
H	 0.5575982939	 1.7408403795	 0.5204093614	 0.282971
H	 0.7820831976	-0.3661712494	-2.0364006366	 0.10927
H	 1.9088136046	-0.9603834156	-0.7829502209	 0.082546
H	-0.489830883	-2.4607694268	-1.7532350387	 0.073397
H	-0.3468368807	-3.767260918	 0.4095619921	 0.091657
H	 1.3277264192	-3.4624990362	-0.054424927	 0.09626
H	 0.2015649375	-2.600116523	 2.4063012307	 0.095951
H	 1.5913712042	-1.8124016448	 1.6771596229	 0.097751
H	-0.7935169784	-0.2937855487	 1.9880058345	 0.084516
H	-2.9182806071	-1.4913326099	 0.302991815	 0.285176
