16
gdb 19372	4.23743	1.63597	1.45981	1.7528	63.54	-0.2345	0.0572	0.2917	883.0841	0.129824	-383.649568	-383.642488	-383.641544	-383.680888	27.418	
O	 0.1513462936	 1.3710458207	 0.1198156009	-0.413882
C	 0.0522237735	-0.0347311891	-0.0728509949	-0.170135
C	-1.3643039139	-0.5171451402	-0.0612457908	 0.288663
C	-2.1151431146	-0.9572055686	 1.1737629211	-0.339214
C	-1.9112300138	-1.936868136	 0.0472983397	-0.165358
C	-2.8640052159	-1.6280476993	-1.151746238	 0.023042
O	-3.7034199967	-0.5134285821	-0.8195755908	-0.238717
C	-2.3573968558	-0.2646069738	-1.2475288452	-0.035708
H	-0.3247166842	 1.5820576013	 0.9301530226	 0.28292
H	 0.5191292703	-0.2241922075	-1.0466700544	 0.10924
H	 0.6346351822	-0.5912947611	 0.679362277	 0.087815
H	-1.4896003858	-1.137461895	 2.0433663386	 0.111165
H	-3.10452074	-0.5712910034	 1.3835260778	 0.139667
H	-1.3558698315	-2.8594858586	 0.1537813469	 0.097917
H	-3.2234236486	-2.3233928021	-1.9001003125	 0.110353
H	-2.2056455989	 0.403876835	-2.0861853081	 0.112232
