18
gdb 18133	3.2292	1.84968	1.47107	0.7979	77.2	-0.2504	0.049	0.2994	919.0006	0.153407	-310.605302	-310.597524	-310.59658	-310.63698	30.315	
C	-0.1054177494	 1.4990235399	-0.1934221672	-0.419103
C	 0.0614801877	 0.0079423276	 0.0114088266	 0.011424
C	 1.3275203287	-0.7783320421	-0.1954980223	-0.074512
C	 2.5606781936	-0.0103882956	 0.2957573344	-0.257216
C	 1.9427230871	 0.0211177836	 1.7447900499	-0.168491
C	 1.824385564	 1.279723765	 2.4614723777	 0.329814
C	 1.7465094801	 2.3161464935	 3.0678456983	-0.469179
C	 0.6825965699	-0.6835860467	 1.1961387894	-0.086109
H	 0.7487675994	 2.0737252828	 0.1675052948	 0.133412
H	-0.2420735415	 1.7243857871	-1.2572469535	 0.10977
H	-0.9880765743	 1.864796374	 0.3419074292	 0.118161
H	-0.8023654594	-0.5583673121	-0.3357226461	 0.085518
H	 1.3679142819	-1.6324402146	-0.8609088038	 0.084379
H	 3.4822236172	-0.5941873571	 0.2643518192	 0.107887
H	 2.7468239123	 0.9612833621	-0.1685723666	 0.10751
H	 2.4971694214	-0.6846644185	 2.3714535433	 0.107542
H	 1.6672971869	 3.2319178851	 3.5992757657	 0.192765
H	 0.1442415843	-1.4406339838	 1.7546040211	 0.086429
