13
gdb 56086	7.4469	0.54056	0.50639	4.3529	73.96	-0.2888	-0.0568	0.2319	1971.3725	0.088053	-452.768482	-452.759161	-452.758217	-452.805683	31.156	
N	-0.1291258363	 1.2956305441	-0.0735597074	-0.564456
C	 0.0528905272	-0.0465494389	 0.0212225533	 0.522511
O	 1.1065109927	-0.6178820488	 0.1692784974	-0.38662
O	-1.1499262938	-0.6840073908	-0.1036103369	-0.25674
C	-1.044778829	-2.1104568579	-0.0647120035	-0.234927
C	-2.384911703	-2.6693468352	-0.0161582453	 0.034789
C	-3.4825325192	-3.1690963009	 0.0245071219	 0.115285
C	-4.7272278646	-3.7289193233	 0.0708588048	 0.210996
N	-5.7858484277	-4.2049779707	 0.1104437297	-0.329511
H	 0.6543645223	 1.8827405541	 0.1516263611	 0.277453
H	-1.0565006752	 1.6814811224	-0.0389644539	 0.27451
H	-0.5112669999	-2.4747404274	-0.951026887	 0.165202
H	-0.4617540034	-2.4222960567	 0.8089347558	 0.17151
