17
gdb 119826	5.88876	0.75531	0.67786	2.6506	70.59	-0.245	-0.0102	0.2348	1577.7446	0.136047	-455.194821	-455.185879	-455.184935	-455.229583	31.789	
O	-0.1528497308	 1.4679242862	 0.0112734849	-0.423119
C	 0.0396340818	 0.061436956	 0.0029564305	-0.071851
C	-1.3493859736	-0.5649221387	 0.0116919507	-0.301647
C	-1.3228074061	-2.0594067264	 0.0043562086	 0.393506
N	-0.2677802512	-2.7854833264	-0.0062484449	-0.300487
C	-0.7203963614	-4.1767760482	-0.0101714193	-0.302492
C	-2.254673436	-4.1410349003	 0.0012564723	 0.402323
O	-3.0614109722	-5.0364191835	 0.0011730128	-0.35825
N	-2.5231208461	-2.7759540545	 0.0087959419	-0.378478
H	 0.7121836437	 1.8873067908	 0.0075242801	 0.289918
H	 0.5898234672	-0.272943147	-0.8870885185	 0.109003
H	 0.6047674467	-0.2814024514	 0.8803065732	 0.109095
H	-1.8999400928	-0.213825747	 0.8942444822	 0.133458
H	-1.9148107412	-0.205414421	-0.8579734168	 0.13337
H	-0.3566804262	-4.7096322967	-0.8958034833	 0.149734
H	-0.3440554237	-4.7186500912	 0.8646432367	 0.149627
H	-3.4528355381	-2.3883727607	 0.0162998989	 0.26629
