18
gdb 87895	2.68303	1.51856	1.12739	2.9647	79.53	-0.2435	-0.0508	0.1926	1112.8446	0.148512	-401.969616	-401.961513	-401.960569	-402.002246	30.927	
C	-0.0888197089	 1.5092107687	-0.0825385258	-0.401959
C	-0.0145848553	 0.0117620102	 0.0779953789	-0.033772
N	 1.2811713535	-0.6254485988	-0.1502408916	-0.375111
C	 0.7186465066	-0.6396134389	 1.2098384057	 0.222487
C	 1.3963187028	 0.0601029354	 2.3762867176	-0.36702
C	 1.0855935938	-0.8519189218	 3.5395557837	-0.06236
C	 0.4097217288	-1.9542906932	 3.1862587184	-0.17754
C	 0.1721737504	-1.9493651911	 1.727431998	 0.334283
O	-0.3250082703	-2.8143077472	 1.0356191167	-0.362193
H	 0.8445868878	 1.9848744188	 0.2288473027	 0.127773
H	-0.260857474	 1.7688257605	-1.1324517919	 0.127893
H	-0.9125394283	 1.9283373455	 0.5054022063	 0.119163
H	-0.8894240486	-0.5430096932	-0.2587227368	 0.104396
H	 1.131442318	-1.5540508038	-0.5480666174	 0.242612
H	 2.477669713	 0.1498904828	 2.2175930987	 0.138083
H	 1.0216299076	 1.0748992971	 2.55595727	 0.122987
H	 1.3963040339	-0.6092327817	 4.5502645751	 0.119164
H	 0.0871223893	-2.7596748494	 3.8328722015	 0.121115
