19
gdb 10917	3.12196	1.94079	1.50127	2.8444	71.01	-0.2318	0.0713	0.3031	918.4061	0.165158	-365.027475	-365.019204	-365.01826	-365.059626	31.679	
C	-0.2054396154	 1.5356563371	 0.0030429377	-0.410462
C	-0.0227549837	 0.0264549138	-0.0352702951	-0.070763
C	 1.1027973811	-0.578057825	-0.9812287734	 0.139545
O	 1.9622110042	 0.3109402026	-1.6384418747	-0.434091
C	 1.6822991269	-1.2919804403	 0.246185132	-0.15038
N	 2.0686699359	-0.1676425186	 1.145398365	-0.396008
C	 0.6692449002	-0.6757987792	 1.14786284	 0.348984
C	 0.0234243842	-1.1900199442	 2.3970359622	-0.511313
H	 0.717063141	 2.0340799128	 0.3109288315	 0.124703
H	-0.4828607158	 1.9179534489	-0.9841378187	 0.122277
H	-0.9944136763	 1.8196955457	 0.7081758406	 0.106387
H	-0.9736752583	-0.4729160872	-0.2524324186	 0.067509
H	 0.6921906633	-1.2514600314	-1.7366265148	 0.082795
H	 2.4630555003	 0.7451977214	-0.9337388352	 0.291241
H	 2.196073887	-2.2448239678	 0.3050738384	 0.088763
H	 2.5461571739	-0.5708817948	 1.950241358	 0.227018
H	-0.273352403	-0.3682066594	 3.0591431684	 0.130629
H	-0.8769738315	-1.7672852436	 2.1608815894	 0.126877
H	 0.7028292159	-1.8421137609	 2.9575404074	 0.11629
