16
gdb 42575	3.03758	2.12317	1.63905	2.818	70.61	-0.2292	-0.017	0.2122	832.4693	0.127336	-400.708507	-400.702632	-400.701688	-400.738578	24.755	
O	-0.0124724742	 0.0286297569	 0.1404415415	-0.338307
C	-0.010551788	 1.2286568288	 0.0317712478	 0.437361
C	-1.1832146255	 2.1471527973	-0.048963603	-0.185416
C	-1.0350771607	 3.5300876858	 0.6332777807	-0.114641
C	-0.7649252629	 3.3585448889	-0.8333679106	-0.032541
N	 0.7175233314	 3.4731774924	-0.5969156856	-0.148748
C	 0.4448618948	 3.8679896407	 0.8437979831	 0.013845
C	 1.4009009375	 2.7764967346	 1.3561425739	-0.25498
C	 1.2100791903	 2.1440391171	-0.0547036172	-0.136736
H	-2.1860038948	 1.7480876446	-0.1264885092	 0.113969
H	-1.8920782069	 3.9579012868	 1.1388557737	 0.105199
H	-1.2451938519	 3.735752049	-1.7270994894	 0.109683
H	 0.6293642923	 4.911775959	 1.1101632948	 0.087223
H	 2.4129483737	 3.1597559936	 1.5019991945	 0.121211
H	 1.1048756972	 2.1789509614	 2.2206489009	 0.121562
H	 2.0626433977	 1.6968265833	-0.5650664959	 0.101316
