21
gdb 93907	2.60322	1.34373	1.03561	2.2484	80.54	-0.245	0.0103	0.2553	1231.1658	0.183066	-424.228108	-424.219088	-424.218144	-424.261861	34.626	
C	 0.0000757916	 1.5878106694	 0.0922965885	-0.394997
C	 0.0007096866	 0.065964306	-0.0121143296	 0.129416
C	 0.2809007434	-0.4010574249	-1.4450958403	-0.251316
C	 0.3720606306	-1.8862964014	-1.696065898	-0.066563
C	 0.7978757907	-2.8694325411	-0.900134928	-0.082579
C	 1.3609125309	-2.7898745738	 0.5048856571	 0.08242
O	 2.7810707827	-2.6331101444	 0.4615728161	-0.432685
C	 0.7476125625	-1.7201389523	 1.4040707794	-0.108783
O	 0.9719213554	-0.4094308925	 0.9165511084	-0.270569
H	 0.9849806939	 1.9870855433	-0.1702131276	 0.123378
H	-0.7411594695	 2.0255012597	-0.5829129442	 0.11376
H	-0.2317448029	 1.8968610722	 1.1144797603	 0.122457
H	-0.9866930465	-0.318680879	 0.2905039268	 0.071165
H	-0.5059848303	 0.0134249111	-2.0878440502	 0.104814
H	 1.2143568964	 0.0717372685	-1.7886987933	 0.114364
H	 0.0923219326	-2.1728983188	-2.7089773367	 0.090619
H	 0.8351915095	-3.8677331542	-1.331068814	 0.09069
H	 1.1997265209	-3.7571243473	 0.9967209108	 0.083365
H	 2.9327629424	-1.7208031532	 0.185017026	 0.281669
H	-0.3272767968	-1.9064476703	 1.5477064049	 0.089845
H	 1.2446128759	-1.7726214568	 2.3786858537	 0.109531
