24
gdb 60175	3.45785	0.88623	0.85544	3.3209	86.73	-0.2377	0.0654	0.3032	1528.8427	0.216363	-405.541216	-405.530832	-405.529888	-405.576168	39.707	
C	-0.1745822166	 1.5539690415	-0.1136185378	-0.379488
C	-0.1437378492	 0.0532225468	-0.3775880401	 0.147968
O	-0.9768099635	-0.1973637758	-1.4975154908	-0.442869
C	 1.2896151457	-0.454962876	-0.6296058803	-0.233019
C	 1.3992997405	-1.9668435092	-0.814882496	-0.06797
N	 0.2395526378	-2.699619538	-1.3954507763	-0.380214
C	 1.5176310029	-2.6572458493	-2.1347993551	 0.341113
C	 1.4666069449	-1.8607978469	-3.4229161643	-0.454053
C	 2.3308929296	-3.9338949336	-2.2047618063	-0.463274
H	 0.4069201989	 1.8121550377	 0.7769105914	 0.102956
H	 0.2363803423	 2.0987502425	-0.9700528691	 0.116056
H	-1.2059786285	 1.8854023139	 0.0338780201	 0.120675
H	-0.5404005461	-0.467474898	 0.5123898853	 0.053304
H	-0.9290272164	-1.1590796015	-1.6408835534	 0.293006
H	 1.6829397816	 0.0708032364	-1.5068967383	 0.105719
H	 1.9250166278	-0.1687181319	 0.2165953186	 0.09216
H	 1.8903552788	-2.4808262246	 0.0092595591	 0.081984
H	 0.1140893203	-3.5933150582	-0.9283138314	 0.229389
H	 0.7842399507	-1.0138332607	-3.3316953663	 0.146716
H	 2.4615605367	-1.4866227826	-3.6897387959	 0.113427
H	 1.1152198812	-2.4929558424	-4.2459075039	 0.115957
H	 1.9165401568	-4.6199950467	-2.9528100839	 0.12289
H	 3.3670059689	-3.7221437504	-2.4908332981	 0.126533
H	 2.3487458448	-4.4520350231	-1.2400823972	 0.111036
