14
gdb 50201	3.65418	1.18637	1.07711	4.6151	61.84	-0.2568	-0.0473	0.2094	1090.4875	0.100414	-473.80832	-473.800821	-473.799877	-473.841258	27.1	
O	-0.6757260264	 0.6473477451	 0.2387357918	-0.239614
C	 0.3610092822	 0.6921221797	-0.3693612406	 0.166675
C	 1.4467117743	 1.7163961256	-0.0844191488	-0.095833
N	 2.8130086506	 1.3268963938	-0.5175941419	-0.331459
C	 2.9995126356	 2.6065201945	-1.2512717909	-0.205781
C	 1.5116966336	 2.9478372163	-1.0324639529	 0.085471
O	 1.2287714458	 2.6424429561	-2.4275783907	-0.258626
C	 2.5697339626	 2.4135700969	-2.7174942739	 0.491685
O	 3.0461670222	 2.1535071903	-3.7690177501	-0.30757
H	 0.6033948182	-0.0073118492	-1.1963366438	 0.104166
H	 1.3650518822	 2.0454991028	 0.9578344124	 0.107879
H	 3.4716329692	 1.171724835	 0.2344023403	 0.243409
H	 3.8628909092	 3.2271561632	-1.0172106336	 0.117963
H	 1.0763385306	 3.89614399	-0.7292482472	 0.121634
