23
gdb 120283	3.12467	0.97271	0.93184	0.1793	90.32	-0.2224	0.0231	0.2454	1435.3254	0.206928	-351.160315	-351.151361	-351.150416	-351.194457	34.608	
C	-0.104336804	 1.5356607869	-0.0192220413	-0.380829
C	-0.1398434169	 0.01765736	 0.1742941647	-0.155267
C	 0.9551464067	-0.4938016745	 1.1207180468	-0.199077
C	 0.9372126797	-1.9983948255	 1.278423829	-0.002184
C	 1.5845190673	-2.7515413007	 2.4148343593	-0.089223
C	 1.9221285887	-2.0138460733	 3.7140490774	-0.270991
C	 0.5720906422	-1.5715639106	 4.2405886227	-0.073576
C	-0.4294267102	-1.9964657039	 3.4654051152	-0.070974
C	 0.0635424928	-2.7516482864	 2.2793646778	-0.095356
H	 0.8552215614	 1.8597559304	-0.4378805551	 0.111437
H	-0.89392363	 1.872232935	-0.6986231066	 0.108542
H	-0.2403310321	 2.059156385	 0.9338595378	 0.113134
H	-1.119403685	-0.2823966931	 0.5678130125	 0.097494
H	-0.0399081649	-0.4795570135	-0.7998537608	 0.089991
H	 1.9387073617	-0.1882604752	 0.7360272204	 0.08849
H	 0.8420473161	-0.0067087869	 2.0948514114	 0.100602
H	 1.0209347988	-2.5210285838	 0.3263866656	 0.078174
H	 2.1618881771	-3.6349162931	 2.1668316274	 0.079407
H	 2.4332251378	-2.6761791022	 4.4253699827	 0.104609
H	 2.5976220689	-1.1624133438	 3.5532055046	 0.107564
H	 0.4646954753	-0.9590483752	 5.1291071428	 0.089614
H	-1.4820268716	-1.805422824	 3.6432302693	 0.089296
H	-0.48930813	-3.6163219115	 1.9270464066	 0.079121
