18
gdb 13763	3.10458	1.46879	1.18121	4.6169	72.72	-0.2751	0.0158	0.2909	1071.2352	0.153285	-343.980048	-343.971324	-343.97038	-344.013451	31.634	
C	-0.0127079378	 1.4196308059	-0.2579930357	-0.395392
C	 0.0592593425	-0.0436215703	 0.1997132843	 0.025464
C	 0.7212171435	-0.1836987094	 1.5770649777	-0.396906
C	-1.3290512843	-0.6501304613	 0.2127771939	 0.005407
N	-1.8971327044	-1.0585371802	-1.0706813344	-0.319385
C	-1.5907668816	-2.099915848	-0.0663571796	-0.20437
C	-0.5232990524	-3.0172471415	-0.3866522829	 0.334519
N	 0.3320736219	-3.7632783674	-0.6076455056	-0.340064
H	 0.9885164313	 1.8570507931	-0.3175954503	 0.118334
H	-0.4781372942	 1.4967275739	-1.2448902779	 0.129146
H	-0.5978180542	 2.0257199568	 0.4444896118	 0.108704
H	 0.6508053935	-0.6040612222	-0.5336136602	 0.104583
H	 0.8042713989	-1.2331385969	 1.8758042841	 0.128471
H	 1.7286146331	 0.2429354837	 1.566070249	 0.121417
H	 0.1467501792	 0.3445117022	 2.347623593	 0.110418
H	-2.0099992669	-0.2089001147	 0.9424429895	 0.093956
H	-2.9019728396	-0.9081920185	-1.1030127691	 0.244957
H	-2.4169550883	-2.567297295	 0.4627468924	 0.130741
