18
gdb 78201	2.99169	1.28594	1.06628	3.0528	77.23	-0.2418	0.0222	0.2641	1159.6744	0.148126	-398.083483	-398.074797	-398.073853	-398.116679	32.589	
C	-0.1012481899	 1.5205346728	 0.0457365429	-0.322614
N	 0.1031339991	 0.0869435697	-0.088896023	-0.077388
C	 0.6545432777	-0.5487153663	-1.2597338327	-0.037977
C	 1.3683398125	-0.5728165299	 0.0709407603	-0.049245
C	 2.552886854	 0.2557814685	-0.5083194698	-0.245166
C	 3.809470441	-0.4603103505	-0.5412920353	 0.275325
N	 4.8012702273	-1.053858002	-0.597547444	-0.329231
C	 1.7937211638	 0.2487466299	-1.9270572307	-0.009147
N	 2.3793762303	-0.4582723485	-3.0353844022	-0.503578
H	 0.6922178273	 2.1535439346	-0.3766741353	 0.110133
H	-1.0403712211	 1.784402582	-0.4486983889	 0.1348
H	-0.1973303658	 1.7605980763	 1.1085451818	 0.133484
H	 0.0829487575	-1.3177483952	-1.7691682481	 0.107338
H	 1.4764795434	-1.3612493116	 0.807419123	 0.115496
H	 2.7052101193	 1.2353929173	-0.0440168115	 0.116908
H	 1.525783579	 1.2555699208	-2.2616765346	 0.09435
H	 3.1956287062	 0.0293756347	-3.3910860794	 0.242405
H	 2.6925485383	-1.3846884527	-2.7581964625	 0.244107
