19
gdb 107022	2.9391	1.312	1.09233	2.2049	70.74	-0.2484	0.0668	0.3153	1167.136	0.157802	-460.125567	-460.11654	-460.115596	-460.159334	34.004	
C	-0.2892509524	 1.5148874622	-0.2001994279	-0.37928
C	 0.0205202049	 0.0265439686	 0.019766194	-0.31641
C	 0.8965755924	-0.5284582485	-1.0580793256	 0.41776
O	 0.2919908612	-0.7742978852	-2.3521273914	-0.31324
C	 0.9773827529	-1.8586863058	-1.7017453138	-0.111297
C	 2.4455862485	-1.6488354752	-2.1032959904	 0.067373
O	 2.6595223031	-1.4732744595	-3.484960979	-0.441543
C	 2.4025637739	-0.288803449	-1.3004633083	 0.044171
O	 2.8147650087	 0.8477494393	-1.9956961103	-0.437383
H	 0.6309556496	 2.1037353395	-0.2565074906	 0.138925
H	-0.8344628769	 1.658502201	-1.1373897348	 0.133423
H	-0.9009654461	 1.9089831013	 0.6162190618	 0.112713
H	 0.5266573414	-0.1134224162	 0.9831737826	 0.106777
H	-0.9087008674	-0.5530096153	 0.0577318284	 0.110267
H	 0.4178096575	-2.7713520883	-1.5297226373	 0.108801
H	 3.1651258404	-2.3799789231	-1.7329654577	 0.093861
H	 1.8235796896	-1.1189308529	-3.8240196617	 0.298218
H	 2.9480071503	-0.3701292486	-0.3509619717	 0.08032
H	 3.0021203584	 0.5463097558	-2.8968341764	 0.286543
