16
gdb 48404	2.11588	1.74536	1.20483	2.928	69.79	-0.2443	-0.0498	0.1945	1041.9007	0.122484	-437.846841	-437.838504	-437.83756	-437.88054	29.973	
O	 0.0083090145	-0.2130261733	 0.3388890094	-0.261108
C	 0.0612955109	 0.8340254776	-0.2556606243	 0.100463
C	 1.201072531	 1.8198646463	-0.0785504857	 0.160049
C	 2.6198182352	 1.2775143268	-0.5708958031	-0.273417
C	 2.6231396603	 2.4107953899	-1.5967842046	-0.019977
N	 1.4054392072	 2.2394093899	-2.4223973297	-0.347492
C	 1.3211924988	 2.9391950721	-1.1157548034	-0.129131
C	 1.2937785385	 2.2564860771	 1.3664803886	 0.080864
O	 1.4181462701	 3.4024886761	 1.7150699587	-0.249064
H	-0.7317322818	 1.1525198868	-0.9627485233	 0.103298
H	 3.3858681297	 1.3892707712	 0.1998024224	 0.127602
H	 2.625407318	 0.2576005249	-0.9596327264	 0.132892
H	 3.4848257947	 2.9415217575	-1.9797427043	 0.108286
H	 1.4245755615	 2.954336707	-3.1489598401	 0.238206
H	 0.9694149266	 3.9570400641	-1.0215398418	 0.117057
H	 1.2536964747	 1.416093986	 2.0904194776	 0.111473
