17
gdb 47102	2.54008	1.8507	1.29577	1.329	66.65	-0.2514	-0.0357	0.2157	976.723	0.137649	-458.994829	-458.987522	-458.986578	-459.027327	27.596	
O	-0.0877607662	 0.1383369474	 0.5431692972	-0.305895
C	-0.033062945	 1.3109711161	 0.2851128782	 0.374858
C	-1.1846371838	 2.310790414	 0.3607948427	-0.196135
O	-0.6879375562	 3.5335715094	-0.144906526	-0.254459
C	 0.731939825	 3.5554107991	-0.1238860178	 0.22099
O	 1.2631765084	 4.1569617373	 1.0387940381	-0.256647
C	 1.8547389601	 3.171921971	 1.8880952528	-0.096227
C	 2.3125793256	 2.0484723901	 0.9494496691	-0.22969
C	 1.2190153859	 2.0956660853	-0.1276926879	-0.21215
H	-2.0394471594	 1.9819498354	-0.2397052323	 0.140315
H	-1.5189270273	 2.3960340367	 1.4062579725	 0.133396
H	 1.0261668929	 4.1726997751	-0.9756381355	 0.097709
H	 2.672293613	 3.6488414459	 2.4343480112	 0.118339
H	 1.1236864132	 2.80240879	 2.6233673292	 0.103604
H	 3.2868793901	 2.2837548643	 0.512563279	 0.11552
H	 2.3717751447	 1.0713352986	 1.4343497739	 0.130201
H	 1.554728949	 1.7501659044	-1.1079609944	 0.116268
