18
gdb 81049	2.50682	1.5367	1.16698	10.1068	73.69	-0.1926	0.0256	0.2182	1091.3217	0.148042	-439.020617	-439.012113	-439.011169	-439.054575	31.461	
C	-0.3164019298	 1.4976949103	-0.1518709001	-0.443171
C	 0.0291262881	 0.0263601885	-0.0429370192	 0.021859
C	 1.3093091734	-0.6001396061	-0.6765104971	-0.066953
C	 2.1594420729	 0.068866589	 0.4276390968	-0.264353
C	 0.8945022556	-0.4843665425	 1.1576481658	 0.197858
N	 1.1177830206	-1.7774369039	 0.2822647786	-0.25882
H	 0.2874906004	-2.3621495918	 0.1996370042	 0.290979
H	 1.9236181107	-2.3243608745	 0.5805621632	 0.292885
C	 0.5414664139	-0.7055842628	 2.6474033558	 0.277723
O	 0.2379347389	 0.3448749803	 3.2217668821	-0.458726
O	 0.6206081066	-1.905439972	 2.9658596607	-0.496691
H	 0.5566710688	 2.153035845	-0.1523738508	 0.129109
H	-0.8851585069	 1.6933319523	-1.0656624483	 0.123647
H	-0.9311479788	 1.7718107431	 0.7098262859	 0.17679
H	-0.8686905698	-0.5832494568	-0.2040607452	 0.089658
H	 1.5537484287	-0.8104112906	-1.7185219305	 0.116629
H	 3.1129758567	-0.4051924223	 0.6732424314	 0.123555
H	 2.2531137298	 1.1486544247	 0.3904288668	 0.148021
