13
gdb 131920	4.08367	1.32634	1.00117	5.5182	69.93	-0.2821	-0.0901	0.1919	1078.6954	0.091101	-452.722303	-452.715576	-452.714632	-452.754456	24.735	
O	-0.0679854124	 0.0000376059	 0.0034152843	-0.367379
N	-0.0147629631	 1.2251048219	 0.0068618825	 0.406118
O	 0.9992392382	 1.89312581	 0.0023854419	-0.32807
C	-1.3311321513	 1.9439533287	 0.0176417005	 0.380158
N	-1.2606127848	 3.2583138214	 0.0203054358	-0.275175
C	-2.4183681063	 3.9204733337	 0.0298563268	-0.006171
C	-3.6589203399	 3.2834009862	 0.0369270443	-0.108315
C	-3.6950819476	 1.892402912	 0.0338569559	-0.074192
C	-2.4953903627	 1.1875622748	 0.0238516151	-0.161325
H	-2.3504933484	 5.0048015187	 0.0319454195	 0.130671
H	-4.5713609071	 3.868463412	 0.0446423546	 0.122233
H	-4.6401548995	 1.3606554507	 0.0391386931	 0.128127
H	-2.444918655	 0.1084337438	 0.0208741559	 0.153321
