25
gdb 109533	1.8795	1.25708	1.08208	1.776	89.43	-0.249	0.0639	0.3129	1357.0139	0.225802	-389.48423	-389.47268	-389.471736	-389.520106	42.963	
C	 1.3011513044	 1.2700689559	-0.5455388352	-0.458374
C	 0.7787331851	-0.1318739985	-0.2616883174	 0.271715
C	-0.1546226828	-0.5981463202	-1.3696974153	-0.447557
C	 1.6831524812	-1.1746937314	 0.3893410196	-0.129044
C	 3.1451220862	-0.9461398186	 0.6970160625	-0.089574
O	 3.9778813033	-1.2140534778	-0.4264661839	-0.420338
C	 0.5305303359	-0.5741026963	 1.1807319671	 0.262322
C	 0.8010683741	 0.3869987104	 2.3308208304	-0.451036
C	-0.6485392304	-1.4808689239	 1.5054682534	-0.44952
H	 2.0379373201	 1.6241732113	 0.1765450637	 0.117223
H	 1.7691499988	 1.3103361615	-1.5374208248	 0.106583
H	 0.478178036	 1.9947779535	-0.554468808	 0.117777
H	 0.3477811693	-0.529422418	-2.3421540803	 0.109595
H	-0.4773265038	-1.6333593897	-1.2463160091	 0.116079
H	-1.0532419618	 0.0288139719	-1.4239332488	 0.112395
H	 1.5083213156	-2.1920025738	 0.0422935319	 0.079908
H	 3.3248776263	 0.066619908	 1.0831112513	 0.0807
H	 3.4774227114	-1.6435219343	 1.4743365923	 0.10881
H	 3.6660564407	-0.6599604178	-1.1492315646	 0.280062
H	 1.6573011727	 1.0425214779	 2.1709930906	 0.113947
H	-0.072818578	 1.0255296143	 2.5081076165	 0.113393
H	 0.9862047935	-0.170969239	 3.2562553283	 0.114914
H	-0.4725490472	-2.0011113822	 2.4544356203	 0.11359
H	-1.5735219918	-0.9020572606	 1.6180478103	 0.112015
H	-0.8222912686	-2.2444630826	 0.745278079	 0.114414
