21
gdb 120972	4.51299	0.82223	0.76631	1.3548	78.69	-0.236	0.0821	0.3181	1533.2579	0.182825	-424.209152	-424.200183	-424.199239	-424.243538	33.655	
O	-0.0989361653	 1.4264860721	-0.0243867843	-0.423804
C	 0.001492472	 0.0095511347	-0.0682452245	-0.078304
C	-1.4113831487	-0.5558052074	 0.0058697831	-0.189186
C	-1.4470724877	-2.0750255704	 0.0381835739	 0.145296
C	-2.8585754508	-2.7047375486	 0.0890150092	-0.273455
C	-2.6971284609	-3.9892279061	-0.7223983236	-0.065677
C	-2.6602505116	-3.8571649367	-2.2339468802	-0.302094
C	-1.3837725982	-3.8505631673	-1.4393591443	 0.101496
O	-0.8396071077	-2.5864688795	-1.1627018628	-0.278108
H	 0.780802929	 1.7919078645	-0.1537797873	 0.284584
H	 0.4832804871	-0.3344874008	-0.99364133	 0.107881
H	 0.5985510846	-0.3729577927	 0.7767847191	 0.079205
H	-1.899689673	-0.1682077597	 0.9081165764	 0.104825
H	-1.9864652538	-0.1967260457	-0.8553318881	 0.106818
H	-0.8630739856	-2.4384908233	 0.9009791022	 0.064978
H	-3.1664955963	-2.9083087731	 1.1181993322	 0.104648
H	-3.6025246438	-2.0314167273	-0.3518542601	 0.103916
H	-3.0091248693	-4.9316744267	-0.2890131326	 0.090408
H	-2.8941812152	-4.7395810217	-2.8209769133	 0.108918
H	-2.9696371206	-2.9149365041	-2.6744843129	 0.115852
H	-0.6558789443	-4.6513876201	-1.5268637421	 0.091801
