18
gdb 111968	3.30066	1.22491	0.94337	3.6651	76.24	-0.2154	-0.0165	0.1989	1259.5623	0.146501	-439.107276	-439.097986	-439.097041	-439.141886	32.735	
C	-0.0846118697	 1.4057618008	 0.0334321205	-0.231251
O	 0.2447550251	 0.0420069052	-0.107850893	-0.232054
C	 0.693586883	-0.5569465986	 1.0865194521	-0.042841
C	-0.3635868593	-0.9126367662	 2.1085656088	-0.189323
C	-0.3091651131	-2.2299816858	 2.321970819	-0.011251
N	 0.672319661	-2.8626181291	 1.5407481642	-0.092286
C	 0.9249087043	-4.2844245481	 1.4819555193	-0.352957
C	 1.3078231167	-1.9383955664	 0.730464617	 0.400444
O	 2.1690565112	-2.1761500982	-0.0814834944	-0.368641
H	 0.7690518839	 1.9906156386	 0.4103849892	 0.107227
H	-0.3540527604	 1.772657687	-0.9595717872	 0.133436
H	-0.9380345455	 1.5622711307	 0.7096892615	 0.105872
H	 1.4914787231	 0.0584361404	 1.5392662996	 0.098066
H	-1.01964558	-0.2157424366	 2.6058363769	 0.111452
H	-0.8937480448	-2.8351001388	 3.0023389238	 0.129378
H	 1.250550762	-4.6713858239	 2.4538426611	 0.131234
H	 0.0334363686	-4.8367227432	 1.1630167723	 0.133035
H	 1.720055424	-4.4391349779	 0.7505487894	 0.170459
