22
gdb 101770	4.14511	0.66314	0.60642	0.4208	80.89	-0.2583	0.0352	0.2935	1877.6213	0.191507	-441.496392	-441.485118	-441.484174	-441.53392	39.276	
C	-0.0163392532	 1.5978170085	-0.1332118143	-0.38843
C	-0.0115450779	 0.066374092	-0.0659142673	 0.011239
C	-1.4286637663	-0.4963657895	 0.0566581991	-0.080132
O	-1.9964599871	-0.0048563385	 1.2617933343	-0.423046
C	 0.6808747687	-0.5599917155	-1.2724907681	-0.056734
O	 2.0505906016	-0.1360615534	-1.2613098791	-0.242846
C	 2.8307570899	-0.5720555251	-2.2704108904	 0.396701
C	 4.2306411347	-0.0349841989	-2.1094094548	-0.461112
N	 2.3691009067	-1.325409516	-3.183283917	-0.521799
H	 1.0035574545	 1.9868061006	-0.1761464635	 0.120137
H	-0.5479815794	 1.9440722582	-1.0284826902	 0.104161
H	-0.519326124	 2.0156606879	 0.7410634945	 0.13153
H	 0.535848542	-0.2458364588	 0.8331687872	 0.090673
H	-2.0259408636	-0.1884295703	-0.8180718772	 0.085341
H	-1.3930896456	-1.5978229537	 0.0586822191	 0.085354
H	-2.9087967649	-0.3039708246	 1.3079989706	 0.287106
H	 0.6467164902	-1.6548686838	-1.2415378705	 0.112488
H	 0.2165795746	-0.2484120288	-2.2158605881	 0.114353
H	 4.87888162	-0.3829998067	-2.915061912	 0.125328
H	 4.2164574721	 1.0592278545	-2.1076884805	 0.145875
H	 4.6482923298	-0.3535708202	-1.1494989419	 0.146001
H	 3.0962598772	-1.5533407782	-3.85730315	 0.217812
