19
gdb 116256	2.11728	1.5637	1.11281	1.0767	76.47	-0.2506	0.0336	0.2843	1164.4994	0.158016	-422.978012	-422.968634	-422.96769	-423.013	33.698	
C	 0.0027377621	 1.439455977	 0.0361877556	-0.243109
O	-0.0309985932	 0.0622229623	-0.2752072644	-0.235744
C	-1.2840976271	-0.5349056553	-0.0858338801	 0.145086
C	-1.2643767273	-1.984640523	-0.5964753125	-0.281738
C	-2.1940428187	-2.7386432814	 0.3783783495	-0.077336
O	-2.7071945257	-1.7642940582	 1.2970479513	-0.24417
C	-1.7565388061	-0.7146218126	 1.3933660934	-0.151998
C	-0.652455382	-1.0250770563	 2.3074677575	 0.368418
C	 0.2443924075	-1.2923847247	 3.0620250708	-0.475714
H	 0.9938529505	 1.806133472	-0.2402390442	 0.130455
H	-0.7556311415	 2.0005871036	-0.53167889	 0.104896
H	-0.1524851677	 1.6235324529	 1.1084571253	 0.116425
H	-2.0652348002	 0.0488899409	-0.5976797973	 0.074446
H	-1.5970372822	-2.0524960043	-1.6337595879	 0.112111
H	-0.23704693	-2.3523443004	-0.5442638476	 0.129493
H	-3.0570462457	-3.1984120241	-0.1098282809	 0.110971
H	-1.6494238061	-3.5193656988	 0.9245240712	 0.108032
H	-2.2993422251	 0.1613623599	 1.7620290797	 0.109848
H	 1.0362203982	-1.5262132994	 3.7302149407	 0.199628
