19
gdb 99959	2.02533	1.49742	1.11649	2.1758	72.53	-0.2441	-0.0848	0.1593	1183.2679	0.153648	-460.168648	-460.157783	-460.156839	-460.204975	37.599	
C	-0.2206738709	 1.2455376606	 0.1425207705	-0.243758
O	-0.4387925441	-0.0341600406	-0.4149759153	-0.289005
C	 0.540947686	-0.5348080693	-1.3266234992	 0.254951
C	 0.430830595	 0.1444335671	-2.694698809	-0.413686
C	 1.9792900991	-0.4710021284	-0.7751641211	-0.458642
C	 0.1374689677	-2.0123833313	-1.4431834363	 0.294488
O	 0.0645924358	-2.6208496937	-2.483112466	-0.294448
C	-0.1598932052	-2.8117450646	-0.1600356979	 0.105375
O	 0.3662426822	-2.6283996998	 0.9044330048	-0.220983
H	 0.6543116997	 1.2690854337	 0.8044079269	 0.118731
H	-0.104938154	 2.0234109549	-0.624573975	 0.109964
H	-1.1094359615	 1.4745918173	 0.7350382046	 0.134493
H	 0.7607187731	 1.1851306683	-2.6357754529	 0.11496
H	 1.0535286724	-0.3729146003	-3.4275979764	 0.135975
H	-0.6030281713	 0.1212031624	-3.0471817651	 0.12963
H	 2.0272501371	-0.8999730195	 0.2268192174	 0.159104
H	 2.6522053672	-1.0314087282	-1.4312672485	 0.131924
H	 2.3348750083	 0.5628832399	-0.7469743179	 0.123416
H	-0.8450043365	-3.6641464287	-0.3582804235	 0.107511
