16
gdb 45982	3.09346	1.33274	1.02997	2.0938	72.78	-0.2419	-0.0673	0.1747	1121.0915	0.125852	-437.942203	-437.934387	-437.933443	-437.974958	29.438	
O	 0.170413127	-0.1001605655	-0.6780737097	-0.352553
C	 0.0630501421	 1.0082518318	-0.195879192	 0.392437
C	-1.2967461343	 1.6041692581	 0.192929672	-0.381314
C	-1.6718287889	 2.8277956178	-0.6043274543	-0.056418
C	-0.9257009182	 3.9166318124	-0.8406237357	-0.131533
C	 0.4204685886	 4.2057181848	-0.3060297071	 0.375777
O	 0.97196773	 5.2640785461	-0.5305579322	-0.313671
C	 1.0973954866	 3.1605282951	 0.5929912206	-0.299299
N	 1.1348565865	 1.8195107183	 0.0383441102	-0.290812
H	-2.0300169728	 0.8126703937	 0.0405303689	 0.142784
H	-1.2916549187	 1.837408374	 1.2673220322	 0.140739
H	-2.6644488249	 2.7993982523	-1.0475499535	 0.123546
H	-1.3243596578	 4.718654916	-1.4550318414	 0.114131
H	 2.1198259571	 3.4992154576	 0.7621342736	 0.143019
H	 0.5905841274	 3.1624288653	 1.5691540573	 0.133152
H	 2.0185669304	 1.4602671722	-0.2891539289	 0.260016
