18
gdb 79945	2.06846	1.88513	1.49754	2.8278	77.8	-0.2298	-0.0651	0.1648	998.1093	0.146873	-401.947764	-401.939298	-401.938354	-401.980402	32.118	
C	-0.2153988792	 1.4876865948	-0.0250736599	-0.325483
N	 0.0633179781	 0.060122603	 0.0500074379	-0.12352
C	 1.3982819876	-0.5130605483	-0.1913360651	-0.129643
C	 2.5930717514	 0.387066453	-0.0940641627	-0.068465
C	 2.7308204398	 0.9054017576	 1.1347085872	-0.198711
C	 1.6601034143	 0.3738111874	 2.0238369371	 0.344115
O	 1.5046328961	 0.5973019167	 3.2017809142	-0.325888
C	 0.7828441344	-0.5534500376	 1.1721400265	 0.191312
C	 0.1564218837	-1.7421285843	 1.8525129606	-0.475285
H	 0.6078127239	 2.1475266616	 0.2798394239	 0.113364
H	-0.4889507873	 1.7309286798	-1.0565007001	 0.125314
H	-1.0781507689	 1.6985803439	 0.6133870501	 0.135369
H	 1.4208069973	-1.3666208749	-0.8626763384	 0.101495
H	 3.2247296025	 0.609523412	-0.9470823068	 0.12197
H	 3.4666821338	 1.6252430483	 1.4699325754	 0.122694
H	-0.4476784936	-1.4090858116	 2.7021033872	 0.140579
H	-0.4844102478	-2.283727156	 1.1535810007	 0.127267
H	 0.9219292441	-2.4229643854	 2.2385752521	 0.123518
