21
gdb 57513	3.2286	0.90784	0.8409	3.719	82.55	-0.2336	-0.0664	0.1672	1469.879	0.179418	-420.430294	-420.419519	-420.418574	-420.466026	39.314	
C	-0.1174068507	 1.5742679501	 0.1150341788	-0.400537
C	 0.0096782907	 0.0404000124	 0.0615488109	 0.278042
C	 0.6552119183	-0.4919558944	 1.3544434979	-0.400536
C	-1.3736589137	-0.594809159	-0.1348897605	-0.426693
N	 0.8189236767	-0.3576923822	-1.1068302413	-0.343022
C	 2.1149180156	-0.0249911005	-1.3595021722	 0.28898
N	 2.8534638903	 0.7027970416	-0.6066128043	-0.521469
C	 2.6337796232	-0.6113519826	-2.660110774	 0.111436
O	 3.7543227623	-0.4283887694	-3.0533490289	-0.235205
H	 0.86694839	 2.0366000833	 0.2031654295	 0.158832
H	-0.6030179113	 1.9524538784	-0.7903116438	 0.104335
H	-0.7233541826	 1.8690770679	 0.9776548015	 0.109086
H	 0.0509197761	-0.2027025406	 2.2201036757	 0.109092
H	 0.7198495021	-1.5845628245	 1.3312253963	 0.104332
H	 1.6600893161	-0.0846463474	 1.4759839755	 0.158822
H	-1.8466778248	-0.2338436878	-1.0550573057	 0.114989
H	-1.3030957333	-1.6872508313	-0.1830152503	 0.114993
H	-2.0281716338	-0.3376676626	 0.7015347135	 0.128496
H	 0.3615213409	-0.9387452065	-1.7901405819	 0.237378
H	 3.7711889114	 0.7802021227	-1.0491121577	 0.231614
H	 1.9112922966	-1.2304456375	-3.2416159388	 0.077035
