20
gdb 38342	3.74885	1.39614	1.18939	1.7217	78.38	-0.2311	0.0864	0.3174	1080.1339	0.173913	-403.064796	-403.057636	-403.056692	-403.096484	29.075	
C	-0.093697668	 1.5250749579	 0.0896600097	-0.176304
C	 1.4191019058	 1.2414837682	 0.1714955348	-0.119013
C	 0.9793948629	 0.0357911788	 1.0303851838	-0.180009
N	-0.043730694	-0.0039524255	-0.1228283108	-0.18423
C	 1.180639467	 0.2953160921	-1.0347238336	 0.370448
C	 0.8764024728	 0.8278953133	-2.4500747363	-0.326877
C	 1.4306080876	-0.268859706	-3.3663558246	-0.092287
O	 2.5308616342	-0.814561499	-2.655847012	-0.250432
C	 2.1224330307	-0.9034017259	-1.3023192495	-0.166372
H	-0.6071988528	 1.8064657455	 1.0128730849	 0.099923
H	-0.4826355566	 2.0881180008	-0.759170688	 0.103656
H	 2.247460945	 1.9420202158	 0.3319443162	 0.064153
H	 1.6233171272	-0.8429854125	 1.0908942352	 0.108257
H	 0.5210996839	 0.2463959801	 2.0001478459	 0.10043
H	-0.1899088946	 0.9976042286	-2.6105575453	 0.117819
H	 1.4047978304	 1.7714442508	-2.621252805	 0.111697
H	 0.6665978695	-1.041287636	-3.5535482938	 0.09538
H	 1.7962257739	 0.0962593854	-4.3291584315	 0.108593
H	 3.0255285502	-0.9018355351	-0.6865121453	 0.110293
H	 1.5716168348	-1.8409304172	-1.1177330547	 0.104876
