14
gdb 17032	4.48383	1.58956	1.3452	1.2547	63.54	-0.2584	0.0285	0.2868	891.4301	0.106028	-382.427228	-382.420443	-382.419498	-382.458042	26.616	
O	 0.0735233421	 1.5111210472	-0.0229286619	-0.441612
C	 0.085436423	 0.1284771861	-0.04960111	 0.178312
C	 0.0150131407	-0.6341778774	 1.3081772156	-0.011161
O	-1.3806888258	-0.1408820079	 1.4493115993	-0.338524
C	-1.2781718017	-0.6209648053	 0.045654436	-0.011165
C	-0.5486279681	-1.8896012312	 0.5787421747	-0.171118
C	 0.283143349	-2.7015678087	-0.2817393252	 0.295503
C	 0.9692413369	-3.3880935611	-0.9915670337	-0.438217
H	-0.581091312	 1.7492073573	 0.650076602	 0.289325
H	 0.8064970826	-0.2135592167	-0.7917539531	 0.111326
H	 0.6577783096	-0.5858582869	 2.1871366291	 0.107488
H	-2.1717115376	-0.5569486456	-0.5752643738	 0.107488
H	-1.1935647394	-2.4787614698	 1.2331784845	 0.120619
H	 1.5758772706	-3.9936836401	-1.6187760036	 0.201736
