19
gdb 22488	3.03857	0.80292	0.67093	3.8364	76.76	-0.247	-0.0018	0.2452	1658.143	0.157305	-456.334972	-456.324579	-456.323634	-456.371812	36.198	
C	 0.4548323609	-0.120721482	-1.4919884454	-0.375946
C	-0.089661258	-0.1301006806	-0.0510138419	-0.273394
C	-1.5633401485	-0.4407927659	 0.0001990086	 0.340006
C	-1.9716514958	-1.8498463678	 0.3437201968	-0.203145
N	-3.4023365884	-2.0406815563	 0.2820654846	-0.279462
C	-3.9667759838	-3.2578948046	 0.4593452609	 0.153125
O	-3.3480225816	-4.276973569	 0.6921165778	-0.331431
N	-2.5012465751	 0.3923870327	-0.2362647185	-0.18021
O	-2.0199939118	 1.6711050181	-0.548443963	-0.399023
H	 1.5269254883	 0.0956466869	-1.4912761604	 0.12105
H	 0.3075108249	-1.0894683549	-1.9795324922	 0.122501
H	-0.0515168839	 0.6433999492	-2.0856873839	 0.142523
H	 0.451540619	-0.8716536419	 0.5461223991	 0.108468
H	 0.0763725037	 0.8499062058	 0.4054235346	 0.133791
H	-1.4667542971	-2.5515854819	-0.3353171598	 0.141259
H	-1.5910528622	-2.0954129542	 1.3463002225	 0.138259
H	-3.9610296902	-1.2261234706	 0.0777420149	 0.258422
H	-5.070619518	-3.2232903553	 0.367810467	 0.074537
H	-2.8323598525	 2.1732022825	-0.6719547117	 0.30867
