22
gdb 103971	2.56057	1.3383	1.08399	2.5506	81.62	-0.222	0.0615	0.2835	1231.276	0.192712	-404.300069	-404.290413	-404.289469	-404.334094	37.065	
C	 0.2258913573	 1.3154940959	-0.743240462	-0.404593
C	 0.1669974049	-0.2075393129	-0.5715189351	-0.236978
C	 0.7858108013	-0.6956668722	 0.7388835163	 0.408821
O	 2.1787647294	-0.3923808579	 0.7690827602	-0.480266
C	 0.1215178323	-0.3901671353	 2.1149804676	-0.236318
N	 0.2060799796	-1.833777267	 2.5461459914	-0.15282
C	-0.6370571367	-2.6244249564	 1.6250150676	 0.019806
C	-2.0273271727	-2.247847161	 1.1629344295	-0.42921
C	 0.681196235	-2.1696689751	 1.1298272672	-0.097923
H	 1.2588883699	 1.6779568629	-0.778944204	 0.113547
H	-0.252435109	 1.6222346898	-1.6776702334	 0.121484
H	-0.2871977261	 1.8328997067	 0.0755792139	 0.118671
H	-0.8723353532	-0.540442954	-0.6403038668	 0.099269
H	 0.7075716554	-0.6930224967	-1.3929302114	 0.105874
H	 2.2746942157	 0.5634314402	 0.8330181007	 0.278817
H	 0.7645974658	 0.2162490422	 2.7557998899	 0.107043
H	-0.8893607602	 0.0293045782	 2.1198983063	 0.095045
H	-0.5978444232	-3.6668096092	 1.942509371	 0.098069
H	-2.1423096187	-1.1949273742	 0.9053044776	 0.123469
H	-2.3026870519	-2.8384159459	 0.2825912984	 0.125377
H	-2.7504537761	-2.4750086813	 1.9538514799	 0.125065
H	 1.5045912614	-2.8572029365	 0.9592127151	 0.097751
