18
gdb 74077	2.7178	1.51179	1.10761	4.2048	79.73	-0.2282	-0.0491	0.179	1133.0957	0.147106	-401.963706	-401.955121	-401.954177	-401.996618	32.356	
C	 0.0297273884	 1.4971809855	 0.0875220708	-0.497199
C	-0.0225456135	 0.010979903	-0.0215700342	 0.374925
C	-0.0078015889	-0.7407059232	-1.1368236187	-0.313384
C	-0.0640315431	-2.1838944591	-0.8040517152	 0.399453
O	-0.133312784	-3.1250126034	-1.5604963625	-0.340967
C	-0.0667248727	-2.2746320116	 0.7249134698	 0.19054
C	-0.7537969362	-3.4350734709	 1.3855291063	-0.490246
N	 1.2030230062	-1.7054066955	 1.2703128852	-0.358304
C	-0.0367966623	-0.8751278898	 1.1942458765	-0.213976
H	 0.9246269516	 1.8073158238	 0.6415071232	 0.147897
H	 0.0439334186	 1.9777454077	-0.8932852309	 0.135964
H	-0.8323279799	 1.8791625662	 0.6485578511	 0.135893
H	 0.0588546968	-0.3810007585	-2.1558282133	 0.112219
H	-0.2851524341	-4.3752487696	 1.0793936347	 0.148315
H	-0.7056950021	-3.3572126269	 2.4765189461	 0.110176
H	-1.8072686013	-3.4837733612	 1.0923604878	 0.134866
H	 1.3015265659	-2.0531799944	 2.2263638291	 0.228149
H	-0.5122611293	-0.5515035022	 2.1143571243	 0.095681
