20
gdb 14237	3.35629	1.70902	1.64813	1.5762	74.44	-0.2367	0.0809	0.3176	932.3834	0.177231	-348.981147	-348.973267	-348.972323	-349.013186	30.468	
C	 0.3572675988	 1.5862592199	 0.0217933561	-0.405007
C	 0.0926062144	 0.0891213229	 0.0334155448	 0.029126
C	 0.8759570426	-0.828137895	-0.9651907038	-0.263909
C	 1.3089054217	-1.7529429618	 0.2095397298	-0.103293
C	 2.6295632177	-1.3871750866	 0.9179682602	 0.166427
C	 3.8654300791	-0.9474517057	 0.1625931134	-0.411604
O	 1.9753170051	-0.3038717535	 1.6367034766	-0.316498
C	 0.6688795084	-0.7447053005	 1.2036308777	 0.112
H	 1.4168052626	 1.7874159706	 0.2014213758	 0.129303
H	 0.0777053204	 2.026261896	-0.9415695322	 0.108789
H	-0.2166058975	 2.0979440637	 0.8023737573	 0.112856
H	-0.9830063978	-0.1073240616	-0.0475153672	 0.068342
H	 0.2471951668	-1.3208098272	-1.7100688116	 0.100326
H	 1.6969537247	-0.3359219821	-1.4929546311	 0.099562
H	 1.047171931	-2.8080445108	 0.1411217717	 0.070221
H	 2.9064210358	-2.1777721507	 1.632865896	 0.070392
H	 3.6429593474	-0.1609601491	-0.5626528363	 0.123363
H	 4.6101001361	-0.5579680491	 0.8641744198	 0.128195
H	 4.309999109	-1.7974079291	-0.3665875148	 0.116209
H	 0.0206730635	-1.0001120505	 2.0478048477	 0.065201
