23
gdb 114994	3.13697	0.98563	0.79459	1.7641	87.43	-0.2412	0.0167	0.2579	1502.6379	0.206548	-388.313172	-388.30371	-388.302766	-388.347327	36.457	
C	-0.1277179688	 1.5266877706	-0.0830678835	-0.391774
C	 0.0139094947	 0.0030286686	-0.0018216005	-0.181886
C	 0.7423112215	-0.5075287399	 1.2512614293	 0.023548
C	 0.0213250921	-0.1276902724	 2.5585776575	-0.247938
C	 0.5522445335	-0.8733221216	 3.7558507035	-0.067548
C	 1.3664774257	-1.9245648097	 3.6711863164	-0.08909
C	 1.8140210806	-2.52791741	 2.3636025437	 0.083953
O	 1.8443112682	-3.9536552771	 2.4353885808	-0.437515
C	 0.9482825717	-2.0293884629	 1.2006225796	-0.226399
H	 0.850358881	 2.0180059383	-0.0266277793	 0.113921
H	-0.5946212721	 1.8259572168	-1.0265846442	 0.112772
H	-0.7456268475	 1.9247178984	 0.7278115924	 0.118324
H	-0.9810170341	-0.4614445239	-0.0502112415	 0.09172
H	 0.5566045986	-0.3532418581	-0.8866833588	 0.093204
H	 1.7376662405	-0.0376686492	 1.2758271637	 0.072824
H	 0.1018802015	 0.9507345026	 2.7418357711	 0.106316
H	-1.0585055734	-0.3233950439	 2.4569794721	 0.103226
H	 0.2474945241	-0.5063848009	 4.7339280995	 0.086792
H	 1.741664885	-2.4156058602	 4.5660800824	 0.089802
H	 2.8621981555	-2.2561763047	 2.1759102515	 0.09416
H	 0.9557411671	-4.2447029392	 2.6698133288	 0.272864
H	-0.0307196728	-2.528245795	 1.2589567528	 0.081471
H	 1.4014074672	-2.3336081266	 0.2510845226	 0.097252
