16
gdb 14954	4.59618	1.38378	1.14082	2.2988	61.6	-0.2571	-0.0385	0.2186	1004.0929	0.131262	-420.878411	-420.871133	-420.870189	-420.910692	26.342	
O	-0.1133987363	 0.0011954025	 0.0030000008	-0.238614
C	-0.0090676229	 1.2004363745	 0.0080230003	 0.1454
C	 1.2994592639	 1.9565018623	-0.0007920591	-0.096781
C	 1.3925979301	 2.8744847162	-1.2399216304	-0.103618
O	 2.5327794703	 3.7108009931	-1.1636514833	-0.229081
C	 2.527980386	 4.4774528217	 0.0106246622	 0.014721
O	 2.5611036306	 3.6864702549	 1.168211305	-0.229072
C	 1.422844063	 2.848573047	 1.2547424289	-0.103545
H	-0.9157052728	 1.8518715793	 0.0206623344	 0.075169
H	 2.1195062457	 1.2342729868	-0.0179034286	 0.113319
H	 1.4926485952	 2.2893307659	-2.1569297018	 0.131006
H	 0.4775559709	 3.4876613406	-1.3190334128	 0.093624
H	 3.4383817297	 5.0787503071	 0.005853414	 0.125631
H	 1.6331876472	 5.1304417994	 0.0283147812	 0.077072
H	 0.5102035254	 3.4598057893	 1.3688139719	 0.093639
H	 1.5448865539	 2.2442286496	 2.1564943773	 0.131128
