19
gdb 117860	3.76435	0.57748	0.51383	2.3691	95.21	-0.24	-0.0083	0.2316	2080.5655	0.155918	-385.834694	-385.823906	-385.822962	-385.871306	38.167	
C	 0.0806701494	 1.5970026663	 0.0424500891	-0.386461
C	-0.0041021855	 0.0554572584	-0.0130206083	-0.219769
C	-1.4570968665	-0.4754287041	 0.0357911586	-0.15935
C	-2.1876021935	-0.1571271794	 1.3362019728	-0.086667
O	-3.4350180698	-0.8318554087	 1.2900412896	-0.420308
C	 0.6759425632	-0.449724602	-1.201499019	 0.413851
C	 1.233698686	-0.8626196149	-2.1936482484	-0.249228
C	 1.859360261	-1.3239653049	-3.3107414024	 0.294117
C	 2.4154186687	-1.7340865862	-4.3012949289	-0.568219
H	 1.1189015827	 1.9288120736	-0.0357163091	 0.130579
H	-0.4815180438	 2.0424043921	-0.7838846474	 0.130227
H	-0.3277664788	 1.9758467156	 0.9832127378	 0.119622
H	 0.5273241874	-0.342570351	 0.8645809253	 0.111253
H	-2.0247717152	-0.0689997382	-0.8084459931	 0.116737
H	-1.4462502492	-1.5631192617	-0.0854614207	 0.122855
H	-1.5815392923	-0.4952821837	 2.1941548767	 0.084794
H	-2.3312720416	 0.9282719301	 1.4457662479	 0.09061
H	-3.9330685871	-0.5994802149	 2.0790597607	 0.286854
H	 2.902289495	-2.0935981762	-5.1733385611	 0.188503
