17
gdb 49079	2.88145	1.7449	1.25725	2.7903	72.4	-0.25	-0.0347	0.2153	982.5117	0.137075	-421.785763	-421.778825	-421.777881	-421.817192	27.446	
O	 0.0014228671	-0.0474653508	 0.1353938175	-0.25495
C	 0.0329876947	 1.1477157057	-0.0440369985	 0.049926
C	 1.2920439243	 1.9389152413	-0.0446830844	 0.219325
C	 2.6067663662	 1.2040279447	 0.193636515	-0.146044
O	 3.5468784155	 2.2899265228	 0.1172098699	-0.282059
C	 2.7154108471	 3.3947403615	-0.1316070442	 0.153169
C	 1.5867799567	 3.0388300503	-1.1481380406	-0.134867
C	 0.6582686302	 4.0391878831	-0.4271393242	-0.269059
C	 1.4083335345	 3.3246270226	 0.7171934306	-0.134909
H	-0.9040520012	 1.7183331825	-0.2207214018	 0.078624
H	 2.6572227449	 0.7238262547	 1.1764219226	 0.118583
H	 2.8247486473	 0.455489239	-0.57524192	 0.118599
H	 3.2906927277	 4.3159913633	-0.217727554	 0.094616
H	 1.6894515019	 2.848607392	-2.2169575628	 0.088235
H	 0.8896455318	 5.0987228368	-0.5673412084	 0.103018
H	-0.4163665293	 3.8718889817	-0.5043141517	 0.109569
H	 1.3057696405	 3.4631909486	 1.7939402649	 0.088224
