17
gdb 83916	2.8085	1.41571	1.22697	1.7693	75.11	-0.2346	0.0399	0.2746	1062.7758	0.136025	-421.776717	-421.768753	-421.767809	-421.808889	31.284	
O	 0.1136497	 1.3787373832	-0.083075647	-0.431611
C	 0.0095416018	-0.0018032988	 0.0183365959	 0.099125
C	-0.4275378795	-0.7187930469	 1.2628237163	-0.175386
C	-1.1780958564	 0.1165260435	 2.2798306846	-0.114958
O	-2.0922834092	 0.9144218366	 1.5166430764	-0.280381
C	-2.5240196034	 0.1403631304	 0.3946191648	-0.16919
C	-1.3325163076	-0.7365518647	 0.0135218196	 0.092226
C	-1.5476870463	-1.8924482008	-0.795156702	 0.15936
C	-1.7343604363	-2.8576546449	-1.4896689346	-0.375679
H	-0.5921953923	 1.7653337613	 0.4552489688	 0.30105
H	 0.7906111184	-0.4803886481	-0.5618962735	 0.12004
H	 0.0854445536	-1.6152709597	 1.5902168022	 0.108456
H	-1.7145350825	-0.5268306052	 2.9924184368	 0.111707
H	-0.5455467704	 0.8102798478	 2.84254062	 0.124656
H	-3.3876985121	-0.4890743823	 0.6501633062	 0.115761
H	-2.8176288634	 0.8446075028	-0.3890321285	 0.127959
H	-1.8939794244	-3.7087083743	-2.1039724161	 0.186862
