19
gdb 39396	2.35398	2.21592	1.4607	1.3369	74.32	-0.2206	0.071	0.2916	938.7668	0.16097	-422.95832	-422.951284	-422.950339	-422.989287	29.374	
C	-0.0216008082	 1.5290613946	-0.0122859634	-0.444072
C	 1.2624108889	 0.7024924476	-0.0571923635	 0.071011
O	 2.1589214119	 0.4878624844	 0.9843074411	-0.265975
C	 2.529664492	-0.9069615467	 1.0757349272	-0.07507
C	 1.7462523749	-1.9491495232	 0.2196930941	-0.244991
C	 0.1925087842	-1.898952637	 0.2134905949	 0.079259
C	-0.3301483507	-0.8679568139	 1.2291332751	-0.29704
C	-0.0560240061	 0.0362414478	 0.0401883033	 0.400275
O	-0.3051920234	-1.0412943653	-0.8795456783	-0.324164
H	-0.3296180515	 2.0227606636	 0.9046431971	 0.130045
H	-0.249314529	 2.0768592218	-0.9204335446	 0.131223
H	 1.7051995129	 0.6893761126	-1.0546822868	 0.089955
H	 3.5895050266	-0.9935537307	 0.8012254281	 0.105258
H	 2.451585537	-1.1728064455	 2.1367102858	 0.108321
H	 2.0722844827	-1.9068452575	-0.8245902242	 0.125726
H	 2.0691853287	-2.925020283	 0.6027357129	 0.105377
H	-0.2597211735	-2.8912590509	 0.1508401295	 0.07958
H	-1.4012864984	-0.9756415018	 1.4122456324	 0.107916
H	 0.211764131	-0.701150477	 2.1591515494	 0.117367
