16
gdb 28319	3.21648	1.46879	1.03315	2.48	73.83	-0.1837	0.0395	0.2232	1103.7631	0.124958	-437.870027	-437.861877	-437.860933	-437.902546	30.655	
O	-0.1104872391	 1.3475899127	 0.280994361	-0.463492
C	 0.0441556132	 0.0073349548	 0.0442468528	 0.210035
C	 0.0758061529	-0.699289147	-1.1455580268	-0.277935
N	 0.0591275014	-2.0272256341	-0.7772150656	-0.007115
C	 0.7741505622	-3.3083764001	-1.0068639051	-0.1659
C	 0.6759670799	-3.5669315735	 0.538674684	-0.352613
C	 0.1386915598	-2.1504915419	 0.5992920788	 0.188471
C	 0.1367038317	-0.8961206522	 1.1527440531	 0.132066
O	 0.194369234	-0.5339069539	 2.4653674591	-0.457192
H	-0.0313652346	 1.8313401787	-0.5459881998	 0.300703
H	-0.040408575	-0.3605937581	-2.1631580587	 0.108064
H	 0.2466190036	-3.9949612286	-1.6743786969	 0.116455
H	 1.8028562128	-3.1702808875	-1.352876665	 0.123117
H	-0.0145399126	-4.3621450139	 0.8329739189	 0.11886
H	 1.6382477945	-3.7321192166	 1.0285457977	 0.124121
H	 0.1419529753	 0.4283504712	 2.4951156426	 0.302355
