14
gdb 5215	7.86692	1.201	1.04244	2.5893	75.78	-0.1829	-0.0069	0.1759	1069.2094	0.108525	-378.758804	-378.751664	-378.75072	-378.790302	26.529	
N	-0.0443510951	 1.3503821692	-0.1716597125	-0.49851
C	-0.0926429165	-0.0124535846	-0.220614747	 0.090258
N	-1.0444794902	-0.6695135424	 0.3311905735	-0.349245
C	-1.1135811504	-2.0281180443	 0.2104758754	 0.440425
C	-2.0205394896	-2.9126115432	 0.7234820247	-0.276106
C	-1.6140898878	-4.2148725835	 0.2911183164	-0.169361
C	-0.4938904306	-4.0370613961	-0.4540930404	-0.025777
O	-0.1682894649	-2.7134062719	-0.5180806562	-0.191408
H	 0.8366793274	 1.8069695403	-0.3356972687	 0.260815
H	-0.6702832403	 1.8018386638	 0.4783382761	 0.263166
H	 0.7144157973	-0.4721492982	-0.7968573407	 0.121047
H	-2.8687858871	-2.6495374605	 1.3339502001	 0.104143
H	-2.0954028048	-5.15611146	 0.5064974897	 0.105328
H	 0.1633210427	-4.7054123687	-0.9853969205	 0.125226
