22
gdb 105060	2.52225	1.34612	1.15573	2.1369	81.82	-0.233	0.0733	0.3063	1204.7069	0.19216	-404.292136	-404.282245	-404.281301	-404.327183	37.283	
C	-0.0311553402	 1.2590312565	-0.7169408076	-0.250862
O	-0.0966412169	-0.0521551615	-0.2062188282	-0.290737
C	-1.3539766591	-0.5763234266	 0.1541680155	 0.378253
C	-2.1248292483	 0.0598980743	 1.2794632508	-0.345142
C	-2.6446057962	 0.1436073725	-0.1452042613	-0.338215
C	-1.290486233	-2.0759990217	-0.027002911	 0.299835
C	-1.0985688624	-2.5136291071	-1.4649228658	-0.449575
C	-0.7066924101	-2.8808148708	 1.0771657582	-0.268371
N	-2.1476412892	-2.9651490729	 0.7720644633	-0.367941
H	 1.0274491035	 1.4642911395	-0.8938115502	 0.129986
H	-0.5730278742	 1.3634049404	-1.6668280048	 0.113671
H	-0.4116318922	 2.0124654773	-0.0110648077	 0.107061
H	-2.6567980878	-0.5476348753	 2.0039841666	 0.110113
H	-1.7009154184	 0.9645012448	 1.7027958254	 0.119115
H	-2.6279746717	 1.1115126652	-0.6309389286	 0.118338
H	-3.4973128037	-0.4714325185	-0.4131261033	 0.125097
H	-0.1833391804	-2.079571113	-1.8757226851	 0.126416
H	-1.036868983	-3.6026631149	-1.5244505011	 0.120698
H	-1.9417961729	-2.1882754838	-2.0844052879	 0.112147
H	-0.1361512894	-3.7781023001	 0.8533619114	 0.113788
H	-0.3977104226	-2.3537401437	 1.9757136355	 0.112061
H	-2.6749113118	-2.4464879305	 1.4689615659	 0.224265
