15
gdb 67362	3.03427	1.93332	1.36581	4.1139	65.22	-0.2477	-0.0013	0.2464	894.4684	0.114256	-453.900706	-453.893966	-453.893021	-453.931487	27.416	
O	 0.0759573871	 1.395374002	 0.0014657299	-0.477986
C	 0.0218866144	 0.0313591745	 0.0299721174	 0.362874
C	 0.0339454634	-0.8242990868	 1.3475203954	-0.097164
N	-1.4244816818	-0.5050924432	 1.5610590624	-0.326955
C	-1.3206735508	-0.8085316486	 0.0905877725	-0.113074
C	-0.3055381762	-1.9744386532	 0.3518196367	-0.020518
N	 0.734557389	-2.0059276485	-0.6734845965	-0.350304
C	 0.9125422515	-0.6779787865	-0.9849220825	 0.355341
O	 1.5714959083	-0.1452397807	-1.8490140902	-0.388287
H	 0.66302344	 1.6168629288	-0.7390005011	 0.298588
H	 0.7726777764	-0.8131208196	 2.1502979607	 0.096361
H	-1.8806762268	-1.2887949575	 2.0411754516	 0.207892
H	-2.1775613368	-0.7697805399	-0.5844767847	 0.093201
H	-0.6471682188	-2.9369832472	 0.7249216269	 0.101048
H	 0.841569581	-2.7388217137	-1.3577357785	 0.258983
