19
gdb 83462	2.95049	1.05073	0.93707	2.2163	76.36	-0.2364	-0.0277	0.2088	1308.5477	0.157178	-422.989991	-422.980925	-422.979981	-423.024709	32.843	
C	 0.1502224012	 1.6409348419	 0.0553298124	-0.424151
C	 0.1070287338	 0.1301058477	 0.1065883233	-0.078722
C	 1.2919641687	-0.7417052823	-0.1861190827	 0.022623
O	 2.5094990037	-0.1259141977	 0.2382570783	-0.280768
C	 2.0636005536	-0.1644996415	 1.619389806	-0.135819
C	 0.7039070715	-0.7362803414	 1.2136840556	 0.238693
C	-0.0646809833	-1.7672814564	 1.9980774273	-0.395721
C	-0.8143652987	-1.1398321077	 3.1602920282	 0.165255
O	-0.7282666284	-1.4967232469	 4.3060197567	-0.235091
H	 1.1622259533	 2.0085843066	 0.2394906368	 0.140701
H	-0.1525764174	 1.9970714633	-0.9347423276	 0.122407
H	-0.5235003275	 2.0889784777	 0.7933220001	 0.116892
H	-0.8168638871	-0.3116157878	-0.2658054205	 0.088166
H	 1.354321008	-1.5033056702	-0.9560928904	 0.10588
H	 2.6689080328	-0.8743173179	 2.1951919007	 0.115456
H	 2.093679682	 0.8199626627	 2.100286862	 0.110116
H	-0.8114736173	-2.2374427507	 1.3428129032	 0.122888
H	 0.5857221874	-2.5560356306	 2.3903993197	 0.123594
H	-1.4687065762	-0.2851437088	 2.8700670908	 0.077602
