13
gdb 4234	3.44309	2.4113	1.95968	2.8282	42.91	-0.2541	0.0696	0.3237	684.917	0.097977	-472.145935	-472.13853	-472.137586	-472.177433	26.44	
C	 0.0027397661	 1.5608362205	 0.0476838346	-0.405778
C	-0.0427734102	 0.0264515673	-0.0013491311	-0.098367
N	-1.3786998219	-0.5653800901	 0.0001508814	-0.513529
C	 0.6894563824	-0.4952362385	-1.2371543246	 0.304636
F	 1.9229444451	 0.0313440057	-1.327122687	-0.085625
F	 0.8200041948	-1.8224695659	-1.2274748722	-0.065353
F	 0.0280435055	-0.1592130928	-2.3621749155	-0.095331
H	 1.029423292	 1.9351747668	 0.0727805961	 0.13424
H	-0.4969960444	 1.9868852587	-0.8282134108	 0.128076
H	-0.5156409385	 1.9145568537	 0.9434487656	 0.115491
H	 0.5039427713	-0.3837163532	 0.8554062919	 0.112098
H	-1.8537167209	-0.3316729915	 0.8655976727	 0.234876
H	-1.9290742412	-0.1641236307	-0.7541180611	 0.234566
