20
gdb 66561	2.33741	2.18651	1.59262	1.8487	81.4	-0.2141	0.0861	0.3002	949.7593	0.171302	-365.937651	-365.929984	-365.929039	-365.969106	31.327	
C	 0.0062450345	 1.4700478985	 0.0431629695	-0.525313
C	-0.0452671669	-0.0249066959	-0.036453142	 0.304975
C	-0.0928389885	-0.9641583688	 1.1864352036	-0.142
C	 1.0178597271	-1.06367951	 0.1795889842	-0.091555
N	 0.2016005888	-2.0747210384	-0.6104367929	-0.214324
C	-0.8085248759	-2.1647865924	 0.5544630395	-0.012284
C	-1.9257075767	-1.6412063264	-0.3605805815	-0.292044
C	-0.748969884	-0.9373071823	-1.0705067076	 0.29723
C	-0.7613575304	-0.5519081961	-2.5232189703	-0.500232
H	 0.6643170454	 1.7964715201	 0.855706352	 0.122495
H	 0.3883917936	 1.9090663541	-0.8854812845	 0.122592
H	-0.9856232256	 1.898024617	 0.2317828293	 0.120015
H	-0.0836002696	-0.5993207296	 2.2058759312	 0.08419
H	 2.0982764233	-1.0307545056	 0.2513782833	 0.090169
H	-0.8800459131	-3.104242455	 1.1031531944	 0.073079
H	-2.3454402782	-2.4377499761	-0.9821413279	 0.10651
H	-2.7231537042	-1.0325253773	 0.0738684483	 0.093919
H	-1.4490646573	 0.2831635977	-2.7011732313	 0.116043
H	 0.2372781246	-0.2432198476	-2.8514189801	 0.121991
H	-1.0767308668	-1.3951840258	-3.1448189671	 0.124544
