19
gdb 89170	1.97653	1.60851	1.05458	3.5544	77.87	-0.2301	-0.0199	0.2102	1196.3442	0.156819	-423.00297	-422.993864	-422.99292	-423.036726	33.809	
C	-0.0941402069	 1.5124838418	-0.1697112488	-0.420542
C	 0.1990353221	 0.031032009	-0.0703990508	 0.147953
O	 1.2622237678	-0.4539666501	-0.9516741032	-0.338078
C	 1.817866158	-1.229703391	 0.1233217113	 0.433258
C	 2.2735983981	-2.6182208072	-0.1847350431	-0.488612
C	 2.4042571606	-0.3036782446	 1.1666215766	-0.170792
C	 3.0824070725	 0.9719895085	 0.8239949344	 0.138107
O	 3.8837041925	 1.5129294264	 1.5507147	-0.277809
C	 0.889757561	-0.6080062673	 1.1276974487	-0.226768
H	-0.3597434137	 1.7715826631	-1.1996836815	 0.134072
H	-0.9467555346	 1.7612554171	 0.4710615231	 0.125508
H	 0.7535305306	 2.129143065	 0.1344719432	 0.130993
H	-0.7122394622	-0.5383492471	-0.3008788287	 0.092016
H	 3.1080431201	-2.5966532903	-0.8939884521	 0.140644
H	 2.6141212434	-3.1211027794	 0.7244484107	 0.130824
H	 1.4632634414	-3.2036893803	-0.6299094334	 0.133024
H	 2.8712109518	-0.8111566535	 2.0069845896	 0.110465
H	 2.8425074569	 1.3818169048	-0.1763209431	 0.09586
H	 0.4054073406	-1.0300054751	 1.998122607	 0.109877
