19
gdb 83554	2.97605	1.37858	1.1858	4.716	79.58	-0.2489	0.0192	0.268	1105.8661	0.161864	-382.051655	-382.043932	-382.042988	-382.083617	30.585	
C	-0.0762301001	 1.7001418857	 0.0302134591	-0.449015
C	 0.0257628262	 0.190296762	-0.0420976522	 0.061812
C	 0.7824021791	-0.5691608359	-1.1705120626	-0.041074
C	 2.1982358391	 0.0217600622	-1.0688977944	-0.254467
C	 2.2948740073	 0.0224583207	 0.4967642466	-0.172478
N	 0.9739391035	-0.5404318307	 0.9159475757	-0.134122
C	 0.8954986263	-1.6873900471	-0.0872855177	-0.121364
C	-0.2711429084	-2.5412440561	 0.093846757	 0.291293
N	-1.1791416431	-3.247640943	 0.2061260002	-0.332834
H	 0.8569767985	 2.2172501907	-0.2043094116	 0.122328
H	-0.8363728534	 2.0500878033	-0.6756858681	 0.129244
H	-0.3893949543	 2.0035571448	 1.0343799021	 0.139778
H	-0.9669529631	-0.2402984216	 0.1122207618	 0.111077
H	 0.3627861711	-0.7516998657	-2.1604642656	 0.083394
H	 2.9498623404	-0.613732807	-1.5443929231	 0.107702
H	 2.2717021994	 1.0178842773	-1.5111908224	 0.110876
H	 3.0953932761	-0.6150636278	 0.878431635	 0.114167
H	 2.42118988	 1.016585025	 0.9272987238	 0.117555
H	 1.7914514655	-2.3147489766	-0.1089800137	 0.116129
