14
gdb 27980	3.72272	1.23024	0.92669	7.4281	68.15	-0.2027	-0.0167	0.1859	1165.9292	0.101651	-470.070833	-470.062658	-470.061713	-470.103561	29.979	
N	 0.0856676224	 1.4081408033	 0.1531843476	-0.598376
C	-0.0236667578	 0.0262175061	 0.0313095795	 0.327465
C	-1.0832492245	-0.8024903676	-0.0060861637	-0.197009
N	-0.588659116	-2.1328285091	-0.0199378308	-0.148751
C	-1.3974707111	-3.2629353412	-0.0415995231	 0.171683
O	-1.0223246875	-4.4026591438	-0.0694609183	-0.272502
C	 0.8339990141	-2.1139028326	 0.00519693	 0.498686
O	 1.6062527591	-3.0359373604	 0.0291593365	-0.379139
N	 1.1317659096	-0.7536148547	 0.0043369512	-0.410694
H	 0.6646275753	 1.8266312596	-0.5676076257	 0.256696
H	-0.8182165761	 1.8625141546	 0.1637070744	 0.25858
H	-2.1378324143	-0.5948539072	-0.0482807526	 0.137756
H	-2.4662442103	-2.9677611404	-0.03252438	 0.082883
H	 2.0603737372	-0.4257441664	 0.210853725	 0.272723
