23
gdb 104720	2.38017	1.0961	0.89229	1.5972	81.46	-0.2539	0.0681	0.322	1410.2041	0.203891	-425.412145	-425.401682	-425.400738	-425.44758	39.159	
C	-1.9139427639	-0.2177474741	-0.485940928	-0.393117
C	-0.4679903294	 0.1069585926	-0.0940024276	-0.237662
C	 0.6049690042	-0.5730789175	-0.9527126813	 0.346979
C	 0.5208718658	-0.1534782725	-2.4193248995	-0.12844
O	 0.6777585699	 1.2572274201	-2.491145615	-0.425587
C	 2.0662591669	-0.4587797184	-0.4142244487	-0.313727
C	 2.2693483383	-1.9661243693	-0.7179601678	 0.173068
O	 2.9907498125	-2.7707461054	 0.1817679653	-0.436283
C	 0.728362045	-2.1258708091	-0.8274105125	-0.325527
H	-2.1639794965	 0.1746991053	-1.4764575803	 0.120511
H	-2.096071638	-1.2984209741	-0.4973872146	 0.113348
H	-2.6157759068	 0.2274549896	 0.2261777406	 0.111982
H	-0.3122139473	 1.1906070799	-0.1366732366	 0.116218
H	-0.3054767572	-0.1905877788	 0.9499870495	 0.078649
H	 1.3052889703	-0.6652880512	-2.9989662352	 0.08489
H	-0.4466963575	-0.468057994	-2.8406664194	 0.086821
H	 0.6326568619	 1.5206262462	-3.4146309164	 0.2881
H	 2.7257326964	 0.2633100693	-0.9001112547	 0.109105
H	 2.0778934145	-0.2721204352	 0.6657034996	 0.083431
H	 2.7546776704	-2.1190574333	-1.6856640199	 0.089689
H	 2.6148645103	-2.6430387191	 1.0592408897	 0.273896
H	 0.3024828831	-2.4814060227	 0.1178110372	 0.08859
H	 0.3347421072	-2.7463735181	-1.6381374543	 0.095066
