19
gdb 78470	3.4145	1.43589	1.4079	1.8672	73.05	-0.2517	0.0868	0.3385	1018.2838	0.161779	-423.009161	-423.002211	-423.001267	-423.040187	28.779	
C	 0.0452827438	 1.5875348373	-0.0083423303	-0.430651
C	 0.0289193671	 0.0742006173	 0.0285597261	-0.020794
C	 0.6168858116	-0.6840593283	-1.1457929049	-0.077087
C	 1.3231539503	-0.6727892408	 0.2003147145	-0.057657
C	 1.2548881375	-2.1710640873	 0.5541285466	 0.164292
O	-0.0854099245	-2.5517362366	 0.8888341912	-0.277607
C	-0.7448827695	-2.689429216	-0.3861743018	-0.106792
C	 0.3483476481	-2.1902904196	-1.3413011689	 0.024968
O	 1.492709919	-2.8024555527	-0.6922313579	-0.252053
H	 0.9405062818	 1.9649917477	-0.5137980098	 0.115743
H	-0.8281336571	 1.9779756449	-0.5415018916	 0.120308
H	 0.0336258815	 2.0042225794	 1.0043586077	 0.123239
H	-0.8307610593	-0.3543335652	 0.5317045572	 0.107702
H	 1.0007970165	-0.121561384	-1.9894549234	 0.088594
H	 2.2554744247	-0.1430284945	 0.3638203532	 0.086628
H	 1.9410603513	-2.5328989014	 1.318353648	 0.091803
H	-0.9875722437	-3.7421816444	-0.5676804856	 0.108077
H	-1.661337085	-2.0923523689	-0.4045612969	 0.105606
H	 0.2762196561	-2.5279117366	-2.3732290133	 0.08568
