22
gdb 62861	2.73638	1.79573	1.40459	1.4999	85.2	-0.2203	0.0944	0.3147	1024.2474	0.196238	-367.139846	-367.132049	-367.131105	-367.171505	32.873	
C	-0.0607380866	 1.5233839368	 0.0773622392	-0.459032
C	-0.0370005083	-0.0197655254	-0.0055312249	 0.36189
C	-1.5027704524	-0.4497083058	 0.2446134327	-0.497719
C	 0.7566732023	-0.6037142956	-1.2232522775	-0.092867
C	 2.0656414407	-0.1450908705	-0.4820433128	-0.219515
C	 1.2238794793	-0.6191379463	 0.7505889693	-0.045288
N	 1.3593032832	-2.0892965156	 0.5057182265	-0.113423
C	 0.1565699814	-2.8451728505	 0.1294700626	-0.255934
C	 0.9097432488	-2.1077312531	-0.9246897662	-0.037175
H	 0.9093767752	 2.0158164549	 0.0365592197	 0.116018
H	-0.6763864603	 1.9322605226	-0.7320480794	 0.115999
H	-0.5320016303	 1.8221438575	 1.0206337218	 0.116823
H	-2.1700046204	 0.4082090378	 0.1179645013	 0.10507
H	-1.8460424489	-1.2167197779	-0.4519721597	 0.127166
H	-1.6590492191	-0.817720577	 1.2643980543	 0.125627
H	 0.5296067054	-0.3179358858	-2.2517709155	 0.059023
H	 2.961416131	-0.7392868309	-0.6686493479	 0.104205
H	 2.2985461658	 0.913282567	-0.5452440045	 0.097365
H	 1.4585167109	-0.3432535579	 1.7797842944	 0.066246
H	 0.3313640281	-3.9188240616	 0.1702324154	 0.111276
H	-0.8200696532	-2.5608542267	 0.4787334453	 0.121101
H	 1.5200774174	-2.6789463262	-1.6212513042	 0.093142
