20
gdb 118731	3.00091	0.93335	0.83097	1.5159	76.84	-0.2603	0.0281	0.2883	1446.0493	0.169394	-440.289412	-440.279729	-440.278785	-440.324331	35.748	
C	-0.1239031651	 1.8190641499	-0.3498600457	-0.443287
C	-0.0163313479	 0.3130369523	-0.178620658	 0.399886
C	-1.3513350011	-0.4135395414	-0.0528720697	-0.250425
C	-2.2059905909	 0.0240401212	 1.1425091215	-0.071998
O	-3.3970823107	-0.7382473111	 1.2525136262	-0.41678
C	 1.028987035	-0.3884433081	-1.0853041714	-0.417398
C	 1.7722604208	-0.6327801491	 0.2083046592	 0.432999
N	 2.8492903714	-1.198823969	 0.5131394796	-0.543675
O	 0.8388032622	 0.0003616747	 0.9986716729	-0.289266
H	 0.8693184051	 2.2638558018	-0.4555788865	 0.128595
H	-0.7077774911	 2.0592440571	-1.2445467188	 0.126985
H	-0.611054417	 2.2828475787	 0.5119141967	 0.137317
H	-1.9240430625	-0.2768357018	-0.9780567735	 0.112904
H	-1.1478614008	-1.4885929297	 0.0392437607	 0.094579
H	-1.6040833072	-0.0251181654	 2.061351734	 0.110215
H	-2.535951128	 1.0602164315	 1.0218946924	 0.113936
H	-3.1506640548	-1.640211771	 1.4809341917	 0.283159
H	 0.6881059112	-1.2903739942	-1.5967453119	 0.133204
H	 1.549091864	 0.2581200671	-1.7944032037	 0.133673
H	 3.0155723774	-1.1558550935	 1.5202924943	 0.225375
