18
gdb 102940	2.57443	1.06623	0.80281	4.929	74.21	-0.2351	-0.0011	0.234	1395.5973	0.147402	-435.289362	-435.279444	-435.2785	-435.325024	34.458	
C	 0.3858006902	 1.1350320525	 0.1074889937	-0.327762
N	 0.0396858349	-0.2776733662	 0.0634070602	-0.291459
C	-1.3765887446	-0.5430815705	-0.1130664356	-0.098552
C	-1.6072700218	-2.016736311	-0.5417148241	-0.20843
N	-1.510126423	-2.2327568154	-1.978541187	-0.268218
C	-0.3383065058	-2.3479982874	-2.652271005	 0.154966
O	 0.7649172669	-2.1777638291	-2.1702306784	-0.316317
C	-2.0993282508	-0.2812053785	 1.1496571464	 0.300192
N	-2.6883719029	-0.0813554113	 2.1234300693	-0.326251
H	 1.470526315	 1.2335637543	 0.1955907571	 0.130759
H	 0.057362136	 1.7056168172	-0.7798167494	 0.095697
H	-0.0647146213	 1.6022396746	 0.9901657102	 0.138873
H	 0.5606573556	-0.7759393591	-0.6531895325	 0.261203
H	-1.8535503782	 0.1005446689	-0.8786359508	 0.097667
H	-0.8651263128	-2.6355655153	-0.0288318285	 0.162197
H	-2.6010496731	-2.3392651662	-0.2279145051	 0.138425
H	-2.3611511247	-2.3912187295	-2.4936755908	 0.260077
H	-0.4914622398	-2.618531588	-3.7137161897	 0.096934
