23
gdb 103945	3.08231	1.06519	0.95107	1.3815	86.19	-0.2478	0.0701	0.3178	1371.9072	0.204148	-388.272298	-388.262569	-388.261625	-388.306637	37.844	
C	 0.35852218	 1.2156141702	 0.4620360325	-0.409834
C	 0.2779599427	-0.2230982248	-0.0586453834	-0.214448
C	 0.5668664419	-0.3645013996	-1.5573233831	 0.430863
O	-0.3463752815	 0.3816523577	-2.3421003021	-0.489292
C	 2.0824491703	-0.2096562263	-1.93301256	-0.371412
C	 2.1559215217	-1.7366262184	-2.0504466737	 0.402813
C	 3.1413446382	-2.5695999576	-2.8085235551	-0.333533
C	 3.1019832803	-2.6270256684	-1.2961727412	-0.317113
C	 0.62625838	-1.8407776299	-2.033890098	-0.350718
H	 1.3402901601	 1.6626824555	 0.2703166211	 0.119291
H	-0.4015897282	 1.8547583411	-0.0016736215	 0.111237
H	 0.1861538326	 1.2508306533	 1.5416221979	 0.119985
H	 0.9855609164	-0.854398585	 0.4921223063	 0.101067
H	-0.7238319839	-0.6271760458	 0.1325993302	 0.100827
H	-0.2585472708	 1.3108806461	-2.1049524196	 0.274795
H	 2.1899578797	 0.2952964894	-2.8977840776	 0.098875
H	 2.7380886637	 0.2685202601	-1.1986570236	 0.089722
H	 2.7695318197	-3.4264282034	-3.3619399512	 0.110415
H	 3.9822071649	-2.0685626034	-3.2781920568	 0.109062
H	 3.916681744	-2.1644168871	-0.7472694352	 0.107629
H	 2.7025766258	-3.5226817407	-0.8301195744	 0.108992
H	 0.1753260353	-2.5873669022	-1.3732894208	 0.092605
H	 0.1938785669	-1.9339778111	-3.0340278309	 0.108171
