18
gdb 37711	3.57013	1.96747	1.5146	1.5913	80.43	-0.2247	0.0045	0.2293	889.6534	0.150427	-364.724387	-364.718274	-364.717329	-364.754355	26.616	
C	-0.0835592658	 1.5852384236	 0.0278849325	-0.339409
C	 1.4181419924	 1.2299353999	 0.0212339764	-0.016046
C	 1.2572520661	 0.05767371	 1.0175237738	-0.089809
C	 1.8726666771	-0.9306717586	 0.0255623531	 0.004052
C	 1.2505169374	-2.3313902486	-0.036781343	-0.287655
C	-0.2642762113	-2.2942058514	 0.0086029491	-0.073215
C	-0.9040671964	-1.1236553455	 0.0667623031	-0.191996
C	-0.0119311575	 0.0580160191	 0.097957707	 0.346865
N	 1.1715481802	 0.0384896523	-0.9321588335	-0.185468
H	-0.4660741401	 2.1044301898	 0.9108551284	 0.09856
H	-0.4818885736	 2.0105959362	-0.8976060551	 0.109361
H	 2.2808039225	 1.8828837419	-0.121060696	 0.078745
H	 1.2719396125	 0.0796307419	 2.1131941517	 0.059924
H	 2.9626100376	-0.9537494157	-0.0867404568	 0.062215
H	 1.5754551765	-2.8300481815	-0.9604120438	 0.122189
H	 1.6376673799	-2.9498840295	 0.7853973103	 0.110155
H	-0.7991636398	-3.2391157246	-0.0208074382	 0.094923
H	-1.9841529375	-1.0299086193	 0.0914923713	 0.096609
