19
gdb 101957	2.23137	1.25703	0.89316	1.0537	71.31	-0.2621	0.0626	0.3247	1309.6984	0.15762	-460.098342	-460.088988	-460.088044	-460.133189	33.531	
O	 0.2388891335	 1.5269476591	 0.4663332941	-0.425071
C	 0.1574469415	 0.2089311606	-0.0540539716	-0.086192
C	-1.2339170373	-0.4217227673	 0.118112046	-0.090335
C	-2.2521816286	 0.0250860514	-0.9215555738	 0.078498
C	-2.0916003551	 1.1573825781	-1.8483150626	-0.197873
O	-1.8976308842	-0.1829590818	-2.2942321206	-0.232754
C	-1.1583896171	-1.937700771	 0.0868698876	 0.087448
C	-1.015790041	-2.7336242166	 1.3109787981	-0.181818
O	-2.2758992471	-2.6363318152	 0.6426011836	-0.24392
H	-0.4525490734	 2.0559765859	 0.0579330394	 0.281948
H	 0.4537476336	 0.1669202594	-1.1128082693	 0.109845
H	 0.8913408453	-0.3724209075	 0.5120519019	 0.111571
H	-1.6092537302	-0.1276561106	 1.1063077433	 0.092863
H	-3.2730228525	-0.2802877794	-0.6897808958	 0.11478
H	-2.9765073573	 1.6595886855	-2.2372240261	 0.122192
H	-1.1905378414	 1.7699915267	-1.8389581548	 0.112282
H	-0.7947771445	-2.3615583186	-0.8499065614	 0.111147
H	-0.5399024353	-3.712143837	 1.2712148115	 0.118622
H	-0.9586616289	-2.2281269117	 2.2744646606	 0.116767
