21
gdb 99715	1.77094	1.43409	0.9642	3.9713	79.5	-0.2438	-0.0262	0.2176	1341.88	0.177856	-424.275057	-424.263818	-424.262874	-424.312522	38.79	
C	 0.5889296755	 1.3191753939	 0.0306101652	-0.395588
C	 0.2120293806	-0.158507328	-0.1085950647	-0.173823
C	-1.3134963755	-0.4040709555	-0.0848384645	-0.203385
C	-1.9936192528	 0.056480175	-1.3869879029	 0.40783
C	-3.5095256719	 0.0353126293	-1.399445737	-0.485357
O	-1.3501812815	 0.4200078815	-2.3419058744	-0.296852
C	-1.5858172486	-1.898383061	 0.1465667841	 0.380405
C	-1.5959194695	-2.3729221716	 1.5879762234	-0.480978
O	-1.7724176408	-2.6542840431	-0.7790141931	-0.30063
H	 1.6763231183	 1.4414794771	 0.0174758967	 0.11736
H	 0.1751710017	 1.9055790834	-0.7927994147	 0.142404
H	 0.2192464994	 1.7373166271	 0.9739863202	 0.106618
H	 0.5973811642	-0.5546471007	-1.0521942391	 0.135426
H	 0.6832089489	-0.7316392329	 0.6984489048	 0.093255
H	-1.7555239159	 0.1535734007	 0.7530215436	 0.086577
H	-3.9129661132	 0.6075561257	-0.556480476	 0.129259
H	-3.8750749726	 0.4527695604	-2.3381441253	 0.144189
H	-3.8630275819	-0.9956071835	-1.2973958982	 0.159965
H	-0.7513617966	-1.9673463232	 2.1529436942	 0.141507
H	-2.5084960179	-2.0091598956	 2.0763205396	 0.144646
H	-1.58435387	-3.4629779091	 1.6208424281	 0.147175
