18
gdb 45042	2.545	1.86987	1.28318	2.8235	76.89	-0.2431	0.0244	0.2674	1007.1683	0.149187	-401.941875	-401.93452	-401.933576	-401.973617	29.634	
N	-0.0821877361	 1.1743630277	-0.5380996282	-0.556739
C	-0.0184448309	 0.0052099805	-0.0656026979	 0.347269
O	 1.117193544	-0.5677203992	 0.4515483882	-0.246142
C	 0.8349247214	-1.8658510666	 0.9454256553	 0.0859
C	-0.0712834581	-1.9552161596	 2.1375181491	-0.328492
C	-0.6198006998	-2.1726637386	 0.7346955998	-0.170958
C	-1.1573776314	-0.9632995385	 0.0276504825	 0.277858
C	-2.5641435042	-0.4275554349	 0.1769507795	-0.29638
C	-2.1395356146	-1.0432750071	-1.1223978485	-0.312092
H	 0.8233165342	 1.6409074941	-0.489013057	 0.224017
H	 1.6504059839	-2.557514874	 0.7771533489	 0.11201
H	 0.0281755502	-2.8284043124	 2.7732686902	 0.119925
H	-0.3234216285	-1.0352971722	 2.6550549372	 0.130009
H	-0.9586800158	-3.158701872	 0.4410792806	 0.0998
H	-3.2392762558	-0.9845315646	 0.8174692879	 0.116122
H	-2.6600610707	 0.6515482056	 0.2151404851	 0.141952
H	-1.95263459	-0.3810072988	-1.9596440237	 0.141144
H	-2.5218441778	-2.0256891594	-1.3795348389	 0.114797
