16
gdb 4904	6.47065	1.23132	1.04798	1.9101	67.95	-0.2052	0.0405	0.2457	1100.6884	0.130989	-379.962759	-379.954425	-379.953481	-379.996438	29.208	
C	-0.0340264145	 1.4672543329	 0.0026054655	-0.499028
C	 0.0015602897	-0.0245683869	-0.0233696625	 0.336438
N	-0.0344894916	-0.7793834944	-1.1013962907	-0.351711
C	 0.0208685108	-2.0821903194	-0.6545143264	 0.275484
C	 0.0015636904	-3.2312725677	-1.6083729379	-0.187306
O	 0.0603717838	-4.435994473	-0.8585903507	-0.421135
C	 0.0912511675	-2.1180552747	 0.710228701	-0.1741
N	 0.0774830303	-0.7934379102	 1.1033174093	-0.279925
H	 0.8660389001	 1.8910220916	 0.4633542897	 0.129213
H	-0.0981160632	 1.8306836931	-1.0236508315	 0.156298
H	-0.8993977562	 1.8472205412	 0.5582183413	 0.129093
H	-0.9118474317	-3.182336638	-2.2233874715	 0.101077
H	 0.8531892003	-3.1463945355	-2.3030647837	 0.100914
H	 0.05160572	-5.170811309	-1.4774903579	 0.288961
H	 0.1468926149	-2.9325414025	 1.4105264875	 0.136729
H	 0.1164658594	-0.4588451276	 2.0511246384	 0.258999
