15
gdb 25269	3.18395	1.78428	1.15406	2.9872	74.46	-0.1938	-0.0225	0.1713	987.2482	0.11604	-416.871622	-416.864886	-416.863942	-416.902746	26.556	
O	 0.0014917055	-0.0266270416	-0.0137165848	-0.349403
C	-0.0185496513	 1.1756873187	-0.0135999711	 0.40961
C	-1.2435977948	 2.1077543671	 0.0174962271	-0.298604
N	-0.7079124632	 3.4672329749	-0.1351799974	-0.420124
C	 0.6830120587	 3.3706189295	-0.0454281506	 0.401572
C	 1.8003500284	 4.152944633	-0.0125742233	-0.320813
C	 2.9191104941	 3.2369397275	 0.0085289049	-0.119567
C	 2.4577970456	 1.9518867419	-0.017841391	-0.134014
N	 1.0682086906	 2.0391665485	-0.0435292179	-0.070147
H	-1.9282784668	 1.8408138316	-0.7934829283	 0.152809
H	-1.7719955141	 1.959898208	 0.9667367619	 0.14635
H	-1.1322141206	 4.1708846418	 0.4519811102	 0.251816
H	 1.8447964183	 5.2297050575	-0.0088584729	 0.101068
H	 3.9600176487	 3.5244118073	 0.0330978403	 0.107287
H	 2.9511083109	 0.9959068143	-0.0266459571	 0.14216
