20
gdb 31152	1.96008	1.76746	0.99024	2.0228	83.84	-0.1879	0.0503	0.2382	1239.7005	0.169683	-403.182544	-403.172388	-403.171444	-403.217701	36.192	
C	 0.1319776261	 1.4105673303	 0.1048327607	-0.246972
O	-0.0675548761	 0.0098926064	-0.0186634354	-0.277637
C	 0.5814053512	-0.5662097744	-1.0831493071	 0.157382
C	-0.0360319531	-0.9600476928	-2.2519482356	 0.226559
C	-1.4604485972	-0.8433736882	-2.6738354169	-0.509024
N	 0.9407986455	-1.5529777303	-3.0187996268	-0.313473
C	 2.1444835674	-1.5390706061	-2.354891815	-0.179018
C	 1.9646735259	-0.9280464235	-1.1354133033	 0.188612
C	 2.9891957499	-0.7087069689	-0.0649541761	-0.507971
H	 1.1898970428	 1.6602965235	 0.2589208315	 0.113928
H	-0.2254918688	 1.9451902788	-0.7857396813	 0.107221
H	-0.440798366	 1.7372850254	 0.9766222118	 0.121504
H	-1.5889629587	-0.204642141	-3.5572100395	 0.120877
H	-1.9065254847	-1.8184706615	-2.9076113587	 0.122333
H	-2.0347821632	-0.4044024108	-1.8547753011	 0.145609
H	 0.7862460079	-1.9623254938	-3.9229129388	 0.254814
H	 3.0290443971	-1.9705331276	-2.7963379655	 0.110597
H	 3.3218207512	 0.3358352351	-0.0095504561	 0.118509
H	 2.5887381336	-0.9674437436	 0.921180932	 0.130006
H	 3.8781234992	-1.3224436073	-0.2384345489	 0.116146
