25
gdb 114235	3.5943	0.82991	0.76584	0.1353	94.4	-0.25	0.0884	0.3384	1658.0743	0.228068	-352.344765	-352.334621	-352.333677	-352.380119	38.546	
C	-0.2473907615	 1.4856577267	 0.0282480945	-0.378193
C	 0.0405228682	-0.0179271691	-0.0321694642	-0.193356
C	 0.7926677713	-0.5352563793	 1.1870619395	 0.069928
C	 0.0476601738	-0.5728029997	 2.5593846874	-0.313923
C	 0.6225191189	-1.9795252495	 2.7804874685	 0.379487
C	 1.4641484863	-2.4012908448	 3.9539650998	-0.350701
C	 0.1302078983	-3.067594255	 3.6888503525	-0.060759
C	-1.0440426931	-2.8368129479	 4.6140938199	-0.403611
C	 1.0404204237	-2.0700168644	 1.3071878754	-0.334157
H	 0.681821561	 2.0638411846	 0.0837604229	 0.112394
H	-0.7975463226	 1.8236539025	-0.8555360047	 0.109853
H	-0.8465107185	 1.7392777104	 0.9096637685	 0.118045
H	-0.904418716	-0.5701960076	-0.1298120808	 0.089088
H	 0.6205120335	-0.2455144652	-0.9367941907	 0.092392
H	 1.7393086375	 0.0070557792	 1.292287316	 0.066692
H	 0.3083037513	 0.197151033	 3.29084325	 0.093783
H	-1.0419735835	-0.5755068379	 2.4329791363	 0.092553
H	 2.3728708001	-2.9644132653	 3.7629253107	 0.103981
H	 1.5303488912	-1.7239361357	 4.8014175339	 0.103247
H	 0.1876109732	-4.0740814522	 3.2780088169	 0.076273
H	-1.0555290731	-1.8076432987	 4.987805098	 0.114545
H	-1.9977990758	-3.012558398	 4.1030958388	 0.113048
H	-1.0046041153	-3.5037589454	 5.4826668046	 0.114376
H	 0.3322610061	-2.6485460511	 0.7018661297	 0.091593
H	 2.0517788851	-2.4288133496	 1.0944837164	 0.093423
