18
gdb 121082	3.35965	0.88374	0.78001	5.228	68.35	-0.2617	0.0498	0.3115	1455.8008	0.148513	-476.266042	-476.257109	-476.256165	-476.30065	31.99	
O	-0.1065395687	 1.4733055062	-0.0513432662	-0.414711
C	 0.0283369825	 0.0639682241	-0.0109530943	-0.081618
C	-1.3752457175	-0.5298969918	-0.0307174966	-0.180396
C	-1.4024760512	-2.0593715997	 0.0862475273	-0.013297
C	-2.8312003795	-2.64878347	 0.0115723272	-0.095443
O	-3.0012575423	-3.0621934681	-1.3480821549	-0.236915
C	-1.777031364	-3.1714182942	-1.9505507656	 0.475437
O	-1.618381246	-3.570048118	-3.0695676429	-0.39038
N	-0.8186023051	-2.7637897973	-1.0456937186	-0.364934
H	 0.7721636363	 1.8628982731	-0.0818558323	 0.290181
H	 0.6089912924	-0.3018772255	-0.8739080458	 0.083468
H	 0.556972643	-0.2638950468	 0.9003030719	 0.08819
H	-1.9353363934	-0.1031708142	 0.8101780163	 0.114755
H	-1.8856264651	-0.2189411281	-0.9497849579	 0.124846
H	-0.9150946594	-2.3639352287	 1.0199309078	 0.093135
H	-2.9410978181	-3.5212936235	 0.6647580106	 0.120267
H	-3.6052461796	-1.9172835442	 0.2529334821	 0.127442
H	 0.0944438957	-2.5469286133	-1.4094700681	 0.259972
