18
gdb 28226	4.51527	1.20053	0.96871	1.3715	80.81	-0.1727	0.0443	0.217	1208.1059	0.150501	-401.985192	-401.977321	-401.976376	-402.017554	30.267	
N	 0.1551282628	 1.3435324537	-0.010543609	-0.594512
C	-0.0528591981	-0.0310599306	-0.017351977	 0.374496
C	-1.1764239661	-0.81252285	-0.0071234889	-0.477537
C	-0.6825860416	-2.161262303	 0.067382816	 0.298021
C	 0.6618797926	-2.0819484188	 0.093051638	 0.293806
C	 1.4068227373	-3.3590526356	 0.2455478497	-0.35088
C	 0.2276105598	-4.3694222993	 0.0222163504	-0.192604
C	-1.125244101	-3.5897431711	 0.1929364366	-0.348928
O	 1.0865770809	-0.7799643437	 0.0512677447	-0.231846
H	 0.9988613492	 1.6078305753	-0.5045135875	 0.253602
H	-0.6388998451	 1.8540355813	-0.3722399365	 0.253543
H	-2.1943612883	-0.4603026272	-0.0606149323	 0.09449
H	 2.2127685862	-3.5078688909	-0.4825165455	 0.105913
H	 1.8583411059	-3.4686933649	 1.2419039479	 0.107177
H	 0.2869262091	-4.759268607	-0.9978121002	 0.109463
H	 0.2944612478	-5.2265258083	 0.6968339615	 0.099112
H	-1.5819175216	-3.7868264613	 1.1721111722	 0.105098
H	-1.8600156799	-3.8996491386	-0.5586290501	 0.101587
