17
gdb 36665	3.22898	0.82613	0.69474	3.9317	80.16	-0.2479	0.0187	0.2666	1559.2741	0.134388	-380.817867	-380.808625	-380.807681	-380.852843	33.134	
C	-0.372372446	-1.2066102058	 0.2211553801	-0.45953
C	-0.2094368954	-0.0168244602	 0.153553419	 0.33655
C	-0.0351266015	 1.4042889199	 0.0266586379	-0.180049
C	 0.6470801039	 2.1809172105	 1.1142226568	-0.250747
N	 1.2973883955	 2.0048690655	-0.1760952257	-0.088165
C	 2.4475977038	 1.1112522119	-0.2259396846	-0.138452
C	 3.7223489374	 1.9512290739	-0.0274251516	-0.336375
C	 4.9339348789	 1.1394619102	-0.0968694393	 0.255361
N	 5.8826869123	 0.4824801718	-0.1546010281	-0.30278
H	-0.516331685	-2.256734623	 0.290540045	 0.207688
H	-0.8144196438	 1.9049039724	-0.5431040994	 0.125624
H	 0.3092350014	 3.1863742192	 1.3482354163	 0.128941
H	 1.0176917475	 1.6041597561	 1.9598794296	 0.126921
H	 2.4074307426	 0.3091182684	 0.5248878206	 0.122012
H	 2.4716126993	 0.6343690169	-1.2103397942	 0.134877
H	 3.7655575093	 2.7353180867	-0.790142741	 0.164273
H	 3.6903741996	 2.4545634758	 0.9456110087	 0.153849
