18
gdb 49770	2.41656	1.6689	1.07935	3.8994	80.89	-0.2066	-0.0024	0.2042	1114.8015	0.148408	-401.967605	-401.959685	-401.958741	-402.00041	30.46	
O	-0.0553707243	-0.0336150973	-0.002423617	-0.339888
C	-0.0099801132	 1.1805865745	 0.0068426469	 0.131895
N	 1.140367952	 1.9125380776	-0.0002123626	-0.11371
C	 2.421110779	 1.3383631172	-0.0190016504	 0.005898
C	 3.3840482482	 2.2590324966	-0.0219407769	-0.159966
C	 2.7869161065	 3.6462365258	-0.0037857662	-0.351678
C	 1.2717894988	 3.3710300987	 0.0100701527	 0.380848
C	 0.2956932487	 4.2410668201	-0.7306405633	-0.314322
C	 0.3116946357	 4.2291309323	 0.7847805225	-0.314375
H	-0.9160215846	 1.813583156	 0.0219011434	 0.075569
H	 2.4779300117	 0.260702237	-0.0285304456	 0.154921
H	 4.4443075365	 2.0547323668	-0.0352592167	 0.109858
H	 3.0989354676	 4.2204964953	 0.8781175725	 0.118769
H	 3.080081369	 4.2355265136	-0.8822226234	 0.11877
H	 0.6913995383	 5.1099965179	-1.2468961372	 0.122408
H	-0.538011336	 3.7638769911	-1.2346454294	 0.126291
H	-0.511296439	 3.7440743826	 1.2987719654	 0.126298
H	 0.718450025	 5.0898687441	 1.3061497453	 0.122415
