14
gdb 26897	3.1492	1.47401	1.00938	4.6734	73.73	-0.2058	-0.0601	0.1456	1086.9681	0.101697	-470.053905	-470.045951	-470.045006	-470.08629	30.032	
N	 0.0800340546	 1.3517014933	-0.2229584703	-0.552417
C	-0.0198103364	 0.0049050688	-0.0969792479	 0.437854
C	-1.2123002921	-0.6764083759	 0.0372997359	 0.145036
N	-2.4174230498	 0.0847027945	 0.098893962	-0.600521
N	-1.2113584098	-2.0187310968	 0.1546619172	-0.232832
C	-0.0892421876	-2.6850408368	 0.1252758196	-0.17556
C	 1.2084470149	-2.0725163675	-0.0485918817	 0.378469
O	 2.2951718987	-2.5746022346	-0.1085076637	-0.332441
O	 1.1405017555	-0.6483053859	-0.1538028796	-0.24306
H	 0.9758047952	 1.7681725778	-0.0213275399	 0.272658
H	-0.7497640668	 1.8554710644	 0.0570675054	 0.278373
H	-3.0698066706	-0.3690664568	 0.7311355454	 0.247961
H	-2.8761729655	 0.1232693291	-0.8086513562	 0.245535
H	-0.1049583505	-3.7636206437	 0.2394694039	 0.130944
