18
gdb 119455	4.88452	0.8108	0.76618	4.9392	72.84	-0.2473	-0.0099	0.2374	1472.5925	0.146436	-439.060562	-439.051663	-439.050719	-439.094893	32.488	
O	-0.1640354838	 1.5109365896	-0.0433918586	-0.415152
C	-0.0019742646	 0.1099189029	-0.1756183018	-0.07036
C	-1.3442483234	-0.5371330282	 0.1630084711	-0.287831
C	-1.2942902777	-2.0342826351	 0.0801999953	 0.330881
C	-1.597095894	-2.8097208957	-1.131346286	-0.285303
N	-2.5870500476	-2.8701932423	-0.0051521911	-0.210884
C	-1.9940279935	-3.7798418158	 0.9623922248	 0.410579
O	-2.4678051698	-4.7503583864	 1.4615600822	-0.292235
C	-0.7071477674	-2.9596087003	 1.1538759904	-0.438851
H	 0.6739053049	 1.9345868183	-0.2507557356	 0.28918
H	 0.2951250126	-0.1685378379	-1.1995384845	 0.090703
H	 0.7781358583	-0.2703739389	 0.5042759292	 0.090783
H	-1.6387664888	-0.2255652564	 1.1718106075	 0.118228
H	-2.106162437	-0.1558262817	-0.5247083863	 0.125106
H	-2.000087817	-2.2858230647	-1.9922507058	 0.139302
H	-1.0337386568	-3.7081657032	-1.3728655195	 0.130683
H	 0.2447101376	-3.4543610928	 0.9447019327	 0.131562
H	-0.6698023319	-2.5138896316	 2.1518454661	 0.14361
