19
gdb 73730	2.61407	1.89455	1.39925	0.9125	74.22	-0.2313	0.0696	0.3009	966.8005	0.161318	-422.991176	-422.983966	-422.983022	-423.022222	30.028	
O	-0.033626314	 1.3134585729	-0.0035439232	-0.470551
C	 0.0017807306	-0.0901997213	 0.0242185676	 0.376952
C	 1.0948007674	-0.6575096428	-0.8690407589	-0.150445
O	 1.0860036771	-2.0686109528	-0.9822216775	-0.244362
C	-0.2050961392	-2.615760387	-1.2125675245	-0.087975
C	-1.1644662753	-2.2270331672	-0.0926597847	-0.05567
C	-0.5002126941	-2.2280380035	 1.3292109495	-0.247643
C	-0.5200746133	-0.6982717086	 1.3136791259	-0.127783
C	-1.358512645	-0.6985064869	 0.0243053875	-0.119246
H	 0.6971483147	 1.6386068933	 0.5341225484	 0.284867
H	 0.9779081101	-0.1831887841	-1.8585673052	 0.095647
H	 2.0890774912	-0.3929062744	-0.4883640454	 0.096119
H	-0.6015068458	-2.2884566483	-2.1889011987	 0.088644
H	-0.0556509212	-3.6995735914	-1.2509044961	 0.105754
H	-2.0932744861	-2.7972266496	-0.154178779	 0.075764
H	-1.1859133295	-2.621358118	 2.0839872182	 0.100231
H	 0.4672207649	-2.7265521699	 1.4234121185	 0.107193
H	-0.6381080338	-0.0551145786	 2.1786053443	 0.081756
H	-2.2419017787	-0.1268336318	-0.2308515067	 0.090746
