21
gdb 86059	2.12916	1.56605	1.04106	2.4034	81.46	-0.233	0.022	0.2549	1220.7327	0.181624	-424.250837	-424.241204	-424.24026	-424.284804	36.65	
C	 0.0656869165	 1.4699476442	 0.2354368627	-0.499118
C	-0.0885348605	-0.0111989224	 0.0818352816	 0.199673
C	 0.038656916	-0.7568912345	-1.0265746012	 0.179249
C	 0.3922833651	-0.3399727902	-2.4178433809	-0.503112
C	-0.3031265022	-2.2161702178	-0.7400648809	 0.05078
O	 0.511807331	-3.1622970508	-1.3991253645	-0.439504
C	-0.1762252066	-2.2916483129	 0.8048660592	 0.077169
O	 1.1638203399	-2.6644847409	 1.1441844726	-0.44494
C	-0.5057578281	-0.8656038431	 1.2696689922	-0.327129
H	 0.786346451	 1.71251378	 1.0271575103	 0.121831
H	 0.397974459	 1.9544897032	-0.6857441873	 0.125682
H	-0.8841183719	 1.9341683239	 0.5326192015	 0.12795
H	 0.7609350023	 0.6873102447	-2.4711307362	 0.116582
H	 1.1542225928	-1.0118422057	-2.8261493457	 0.140355
H	-0.4774498104	-0.4198705949	-3.0838837824	 0.127264
H	-1.3397747277	-2.4204567284	-1.0489887414	 0.081701
H	 1.2095253609	-3.3751657351	-0.7615678917	 0.280771
H	-0.8080784714	-3.0638856345	 1.2482084784	 0.087439
H	 1.7240735795	-1.9033275289	 0.9463665376	 0.284021
H	 0.020463573	-0.6162321865	 2.1994126911	 0.103496
H	-1.579308588	-0.7557966894	 1.480101905	 0.10984
