18
gdb 65235	2.57523	1.50725	1.17208	1.9389	72.2	-0.2416	-0.0267	0.2149	1096.1817	0.146263	-439.053468	-439.04483	-439.043885	-439.087004	32.064	
C	 0.1731703415	 1.5073219431	-0.5887790318	-0.479383
C	-0.0488404635	 0.0849987944	-0.1211932064	 0.293108
C	 1.0355258775	-0.9241077512	-0.2130198165	-0.272992
N	 0.6202041267	-0.3940453735	 1.1014931226	-0.351724
C	-1.4911477935	-0.3778292573	-0.2351506915	-0.044436
O	-1.6968560931	-1.7671836621	 0.0985945945	-0.288082
C	-2.4491962793	-1.4797492255	 1.2980481225	-0.184161
C	-2.3726130353	 0.0129716575	 0.9670682604	 0.363686
O	-2.7915503091	 1.0299597089	 1.4271247369	-0.284132
H	 1.2213693525	 1.7969760443	-0.4657156615	 0.116882
H	-0.0851931785	 1.621839	-1.6474093012	 0.127328
H	-0.4471424759	 2.2051989351	-0.0157849648	 0.148214
H	 0.7823184741	-1.9666758964	-0.3725370601	 0.137421
H	 1.9881466777	-0.603987274	-0.627697765	 0.110831
H	 1.2859666359	 0.3040967465	 1.4238403443	 0.230716
H	-1.9036248859	-0.1285756764	-1.2222934426	 0.101562
H	-3.4515439003	-1.9243769954	 1.2902431336	 0.128157
H	-1.9113302914	-1.7647406581	 2.2095258664	 0.147005
