14
gdb 7726	3.50669	1.95679	1.2974	3.8198	59.2	-0.2602	-0.0115	0.2487	875.8482	0.110387	-415.951959	-415.945209	-415.944265	-415.983106	25.189	
O	-0.0018676912	-0.0758043507	-0.0726784983	-0.342189
C	-0.0552535263	 1.1283262922	 0.0194369049	 0.410854
C	-1.3479545914	 1.9254332338	 0.0917267895	-0.311069
C	-1.166414205	 3.2439747376	 0.842156356	-0.181294
N	-0.009909335	 3.9452285143	 0.3014549968	-0.339035
C	 1.1852959439	 3.3111834502	 0.0848723735	 0.452548
O	 2.246093858	 3.8762501788	-0.0682343604	-0.383414
N	 1.0892639938	 1.9107037961	 0.0322930177	-0.374319
H	-1.6630517156	 2.1244006211	-0.9399067311	 0.146292
H	-2.1080000313	 1.2957131433	 0.5566442252	 0.142472
H	-2.04732976	 3.8781185681	 0.715080971	 0.126952
H	-1.0523543732	 3.0502240726	 1.9195033187	 0.121243
H	 0.0947266523	 4.9302040218	 0.4896870073	 0.260985
H	 1.9698127509	 1.4323124607	-0.1028600108	 0.269974
