27
gdb 117840	2.4219	0.94766	0.84897	0.9783	92.3	-0.2453	0.0739	0.3192	1605.1856	0.248695	-390.697102	-390.684871	-390.683927	-390.734624	44.291	
C	-0.0775445875	 1.6454166072	 0.1416181019	-0.382821
C	-0.0063915753	 0.1208211039	 0.0118083427	-0.177371
C	 0.8095923558	-0.5257892829	 1.1378972061	-0.203583
C	 0.8039902413	-2.0729839616	 1.1730745598	 0.361749
C	 1.4087995528	-2.6554500873	-0.1095280775	-0.416307
C	 1.5929378057	-2.5447593762	 2.4190695139	-0.205261
C	 1.6035484388	-4.0583985149	 2.6554430222	-0.395749
O	-0.5380647076	-2.5933480176	 1.1759331522	-0.276426
C	-1.3831261964	-2.2342490156	 2.2456668049	-0.244595
H	 0.9220093731	 2.0943771903	 0.1181202881	 0.111671
H	-0.6594024506	 2.0880343452	-0.6730163564	 0.110391
H	-0.5479696935	 1.9427821705	 1.085834819	 0.110723
H	-1.0174917027	-0.3011031106	 0.0094948932	 0.109203
H	 0.429784424	-0.1356898045	-0.9602997111	 0.097327
H	 1.8540744452	-0.1948170775	 1.0714667799	 0.091404
H	 0.4464576187	-0.1476792007	 2.1025992791	 0.088134
H	 2.4455074751	-2.3279579283	-0.2339382713	 0.106
H	 1.3879779103	-3.7468613668	-0.0812847127	 0.121223
H	 0.8351377795	-2.3392423565	-0.983140542	 0.122362
H	 2.6214067258	-2.1763900109	 2.3218538791	 0.09406
H	 1.1866555607	-2.0429996836	 3.305771797	 0.091859
H	 2.1623759824	-4.5895570936	 1.8796052382	 0.117435
H	 2.073907495	-4.2933516011	 3.6152869407	 0.107437
H	 0.5878474872	-4.4633022095	 2.6652115082	 0.127908
H	-1.0055743206	-2.5702855228	 3.2213657795	 0.105104
H	-1.5654070125	-1.151943154	 2.3018997044	 0.104514
H	-2.3394699047	-2.7315613707	 2.0611707508	 0.123607
