22
gdb 111457	2.09419	1.63469	1.02366	1.2736	87.92	-0.222	0.0212	0.2432	1246.9102	0.194809	-367.20618	-367.197115	-367.196171	-367.239849	34.933	
C	 0.9114304826	-0.3518131849	 1.2873933242	-0.384936
C	 0.0973307812	 0.0448527316	 0.0521380298	-0.176307
C	 0.7574926443	-0.3791844216	-1.2726863467	-0.076939
C	 0.8539725562	-1.8959268494	-1.4610059069	-0.054301
N	-0.4575317521	-2.5841794157	-1.4709636157	-0.336808
C	 0.2225734392	-2.243934794	-2.7586548309	-0.084379
C	-0.2588167193	-0.9601911948	-3.3400130749	-0.165356
C	-0.0010523024	 0.0689177134	-2.5245308148	 0.307264
C	-0.3897727635	 1.4976332041	-2.7394321599	-0.493213
H	 1.0221616099	-1.438664453	 1.3598296259	 0.117527
H	 1.9167852489	 0.0845914989	 1.2601149632	 0.107982
H	 0.4256555984	-0.0085453811	 2.2061532888	 0.110658
H	-0.8970414091	-0.4115175136	 0.0980703307	 0.119694
H	-0.0474526765	 1.1318484917	 0.0506157234	 0.089207
H	 1.7725893182	 0.0493043321	-1.2966904964	 0.069133
H	 1.7166145042	-2.4325713774	-1.0813660958	 0.082974
H	-0.2946882354	-3.5702024155	-1.2704783642	 0.223106
H	 0.5739288405	-3.0560430451	-3.3864812641	 0.083549
H	-0.7824458287	-0.8906982754	-4.2868893885	 0.087145
H	-0.839312099	 1.6432629875	-3.7254657962	 0.121657
H	-1.1138375803	 1.8368422555	-1.988433593	 0.132458
H	 0.4792551226	 2.1634786767	-2.6567899281	 0.119886
