16
gdb 46442	3.62033	1.23728	1.09961	3.8323	75.9	-0.2564	-0.0172	0.2392	1110.5241	0.123628	-400.72217	-400.714222	-400.713278	-400.754889	30.335	
O	-0.0110249755	-0.0146176307	-0.1042479411	-0.300249
C	-0.0242048993	 1.1804709268	-0.0519153836	 0.394461
C	-1.2657092186	 2.0698042585	 0.1152014621	-0.348178
C	-0.7799439825	 3.5150743424	-0.0584243251	-0.298371
C	 0.7544948187	 3.4125150707	-0.0407048293	 0.119536
C	 1.3915403844	 2.73874278	 1.1210607596	-0.278919
N	 1.1723969706	 1.9811608465	-0.1355125554	-0.154947
C	 1.4954164579	 4.3700468815	-0.8139885002	 0.208625
C	 2.0772260161	 5.2075439716	-1.4499560639	-0.360394
H	-2.025976812	 1.7732238838	-0.6103101642	 0.14821
H	-1.6869849219	 1.8701074253	 1.1056705755	 0.14384
H	-1.0875187371	 3.9213743283	-1.0243987729	 0.132356
H	-1.1457017866	 4.1955564733	 0.7145791029	 0.12309
H	 2.4346590074	 2.9299687873	 1.3477392758	 0.144664
H	 0.7686692743	 2.4968928575	 1.9796245298	 0.128893
H	 2.6051949439	 5.934327007	-2.0165455502	 0.197383
