20
gdb 81891	3.13583	1.25226	1.05934	3.2671	81.16	-0.2186	-0.0256	0.193	1200.0564	0.169175	-403.116681	-403.107512	-403.106568	-403.150188	34.426	
C	-0.3575001286	 1.6073532314	 0.3758994185	-0.411476
C	-0.1034647755	 0.1127929667	 0.2315641091	 0.047489
C	 0.1786516846	-0.4471737555	-1.169684041	-0.128486
C	 1.4867058386	 0.0292132158	-1.7106246908	-0.33858
C	 1.5079688611	-0.9969200123	-0.5983868813	 0.258013
C	 2.0304988708	-2.3630920654	-0.7785572379	 0.080766
O	 2.2827057384	-2.8664245712	-1.8492576015	-0.279004
N	 1.1996039969	-0.4612625493	 0.7195323905	-0.150973
C	 2.1919483376	 0.3746352897	 1.3741638483	-0.336729
H	 0.3939620893	 2.2138700089	-0.1364194979	 0.121663
H	-1.3348491583	 1.8518683524	-0.0526131413	 0.125424
H	-0.3747732055	 1.9039924306	 1.4296492407	 0.124542
H	-0.924724597	-0.4336645643	 0.7105931205	 0.089649
H	-0.5234885224	-1.0098488351	-1.771117577	 0.112983
H	 1.7570823063	-0.3759260156	-2.6797320969	 0.146239
H	 1.8469763687	 1.0335563821	-1.5111603776	 0.115447
H	 2.1512478422	-2.9194367992	 0.1775051421	 0.075395
H	 2.5197357975	 1.2514985567	 0.7919195615	 0.098706
H	 1.8019792406	 0.7291753426	 2.3331798586	 0.122814
H	 3.0770664946	-0.234983149	 1.5837040435	 0.126118
