17
gdb 33358	4.2448	0.75894	0.74872	1.9023	90.09	-0.2435	-0.0185	0.225	1562.9655	0.135527	-384.639657	-384.630862	-384.629918	-384.674411	31.918	
C	 0.1852804151	-3.7156508985	 0.1136462865	-0.562148
C	 0.1090198375	-2.5107745783	 0.0860774789	 0.305669
C	 0.021936673	-1.1532897993	 0.0548037204	-0.390075
C	-0.0548774688	 0.0548424473	 0.0322994561	 0.552
C	-0.1478621363	 1.5183101008	-0.004408289	-0.11524
C	-0.7295849892	 2.1065293673	 1.2979318388	-0.225697
C	 0.5289710793	 2.2094539218	 2.1709537694	-0.235068
C	 1.6168585212	 2.5578476069	 1.141638751	-0.059716
O	 1.1396893461	 2.1204883619	-0.1389248983	-0.252396
H	 0.2532610551	-4.774845276	 0.137102416	 0.192099
H	-0.7347368002	 1.8118304754	-0.8826099133	 0.11477
H	-1.1397259712	 3.098194444	 1.0830287987	 0.110638
H	-1.5172745818	 1.4872783699	 1.7295862203	 0.119639
H	 0.4437278156	 2.9592974859	 2.9603023317	 0.10895
H	 0.7388741104	 1.244347459	 2.6411444466	 0.12323
H	 1.7930565448	 3.6396178794	 1.0851470951	 0.103542
H	 2.5722774093	 2.0680811626	 1.359718811	 0.109804
