21
gdb 118501	2.00149	1.15925	0.82117	1.4344	75.31	-0.2414	0.0618	0.3032	1463.817	0.180001	-461.32318	-461.312755	-461.311811	-461.359359	36.828	
C	-2.0387792277	 1.3617804146	 0.9857379529	-0.386576
C	-1.3525207307	 0.007365865	 0.9682395784	-0.043573
O	-2.2172518495	-0.9180638769	 0.3133986673	-0.26093
C	-1.7330997485	-2.2414458061	 0.2334047835	 0.031316
C	-2.9561640592	-3.1702267531	 0.2966424769	-0.088167
O	-2.6020404893	-4.5430456202	 0.2511961629	-0.413381
C	-0.9308293503	-2.4973912714	-1.0319071465	 0.103673
C	-1.088776894	-1.6613445314	-2.22616661	-0.178623
O	 0.0632751919	-1.5326079367	-1.381236847	-0.245451
H	-1.4131105348	 2.0955402582	 1.5027953376	 0.116222
H	-2.2165537087	 1.7179961231	-0.0330862514	 0.125895
H	-3.0021498999	 1.3013365814	 1.5004370794	 0.122778
H	-0.3914631158	 0.0579037203	 0.4442780744	 0.121277
H	-1.158887375	-0.338406872	 1.9971050988	 0.08303
H	-1.0879112965	-2.4601719552	 1.1031913826	 0.062797
H	-3.5398740511	-2.9186549978	 1.1925893184	 0.099358
H	-3.5931701116	-2.9865263751	-0.5743081724	 0.122788
H	-2.1740761509	-4.7676910298	 1.0835608923	 0.286717
H	-0.6246562243	-3.5350865345	-1.159096924	 0.100856
H	-0.8961253307	-2.0846616834	-3.210499879	 0.113762
H	-1.7791960934	-0.8228699592	-2.191070115	 0.126233
