20
gdb 86032	2.94189	1.07197	0.9429	5.2675	79.51	-0.2591	0.0293	0.2883	1329.6217	0.169042	-403.163853	-403.154201	-403.153257	-403.198786	35.461	
C	 0.5500958327	 1.4984998053	 0.1975446774	-0.401013
C	 0.0291106999	 0.0905423211	-0.0034366291	 0.170397
C	 0.4710410804	-0.6935094387	-1.2587690343	-0.365938
C	 1.012436338	-1.7371369132	-0.2506767132	 0.427668
C	 0.2457592592	-3.0511354084	-0.1855745007	-0.442887
C	 2.5382257399	-1.9506928014	-0.3267265472	-0.383445
C	 3.0697919739	-2.7345464081	 0.7862756433	 0.275929
N	 3.486351612	-3.3628684126	 1.6619113645	-0.31239
O	 0.677891903	-0.8752755222	 0.86468306	-0.331705
H	 1.6283209576	 1.5493030788	 0.0164859456	 0.116586
H	 0.0484115027	 2.1921226504	-0.4862022798	 0.119134
H	 0.3599272641	 1.8312573049	 1.2225770933	 0.134757
H	-1.0574588641	 0.0674283734	 0.1556735528	 0.080596
H	-0.3219894646	-1.0439799588	-1.9207969706	 0.112845
H	 1.2399327762	-0.1913223612	-1.8512091126	 0.106159
H	 0.4506611769	-3.668119461	-1.067482244	 0.116786
H	 0.5295774392	-3.6162583918	 0.7065620792	 0.153842
H	-0.829304216	-2.857980124	-0.1421789146	 0.123664
H	 2.7889115192	-2.4583762827	-1.2659013489	 0.149134
H	 3.03682611	-0.9766946098	-0.3360814912	 0.149883
