19
gdb 81141	2.44642	1.67668	1.2319	1.9581	81.87	-0.2351	0.0327	0.2678	1074.0841	0.158947	-385.834366	-385.826213	-385.825268	-385.866622	32.575	
C	-0.1880874272	 1.5509203688	-0.0151988792	-0.437591
C	 0.0039483154	 0.04283294	-0.0164322213	-0.008091
C	 0.8160583042	-0.610216725	-1.1886753453	-0.119304
C	 2.1129521679	-0.2230755504	-0.4143375392	-0.288541
C	 1.1987741216	-0.5661825104	 0.7968524439	 0.353937
O	 0.9842739637	-1.9872307346	 0.6332649829	-0.328798
C	 0.7056816523	-2.0836635811	-0.7851590774	-0.085138
C	 1.4931969231	-0.2096060114	 2.1590037179	 0.129635
C	 1.729183598	 0.1445604838	 3.2831130802	-0.352591
H	 0.7126771116	 2.1025893543	-0.2958415519	 0.120195
H	-0.9790057178	 1.8316667392	-0.7188498198	 0.119347
H	-0.4900611934	 1.8945047118	 0.9796593679	 0.131171
H	-0.9427116505	-0.4549783266	 0.2181971238	 0.080711
H	 0.6527112372	-0.3508520587	-2.2339857599	 0.075993
H	 2.9976476285	-0.8511424911	-0.5383602876	 0.10694
H	 2.3748167483	 0.830708992	-0.4839612035	 0.11407
H	-0.2933865334	-2.5065930937	-0.9416946792	 0.101646
H	 1.4486124143	-2.7292468083	-1.2678994425	 0.101155
H	 1.9414412463	 0.4442620312	 4.2795907202	 0.185254
