21
gdb 36444	3.32905	1.00449	0.85068	0.6932	88.89	-0.2551	0.0568	0.3119	1408.5857	0.181286	-349.897961	-349.888724	-349.88778	-349.932393	35.313	
C	 0.0228409669	-1.2235166968	-0.1886869314	-0.439786
C	-0.0189200866	-0.0324978411	-0.0302954942	 0.302035
C	-0.0309366349	 1.4137256682	 0.1585078024	-0.39138
C	 1.3727392803	 2.0280417814	 0.1002603093	-0.033676
C	 2.111397551	 2.0448712573	-1.2696140342	-0.220221
C	 2.5417796822	 3.5164321787	-1.0010789225	-0.304325
C	 1.5144904008	 3.562456098	 0.1384373463	 0.361549
C	 0.3963309607	 4.5606092253	 0.2562134384	-0.319847
C	 1.4717496661	 4.4843056637	 1.3175009236	-0.326002
H	 0.0466123156	-2.2756741002	-0.3278278826	 0.192171
H	-0.6621324799	 1.8799251287	-0.6090932849	 0.127586
H	-0.4991364446	 1.6495492511	 1.1241994503	 0.12596
H	 1.9967937645	 1.5624512107	 0.8710941601	 0.080905
H	 2.9047454672	 1.3090850368	-1.4117111055	 0.102736
H	 1.4109552454	 1.9665162445	-2.1060739725	 0.103448
H	 3.5730433696	 3.5942817557	-0.6418998117	 0.1011
H	 2.4051142955	 4.2283160671	-1.8197776127	 0.098088
H	 0.4013207185	 5.4099379719	-0.4201129056	 0.109501
H	-0.5977343157	 4.2094323159	 0.5149971226	 0.111384
H	 1.2010941687	 4.0702477443	 2.2843924432	 0.108438
H	 2.2034388689	 5.2848501387	 1.3669695516	 0.110337
