17
gdb 90423	2.23861	1.72799	1.3544	3.141	67.92	-0.2361	-0.0398	0.1962	1009.8024	0.134695	-458.941083	-458.932839	-458.931894	-458.974172	30.933	
C	 0.4745930601	 1.4899129032	-0.2279802771	-0.410511
C	 0.254236871	 0.0147058496	 0.0200906043	 0.146965
O	 1.135746237	-0.8528956954	-0.7563425327	-0.325931
C	 1.4275756865	-1.6695202519	 0.3998454417	 0.059979
C	 2.8221268936	-1.2837689262	 0.9573530289	 0.03627
O	 3.8248769778	-0.9771850841	 0.0445161175	-0.42125
C	 2.1046876752	-0.159703067	 1.778559799	 0.358651
O	 2.4775015602	 0.7482803149	 2.4602658187	-0.296803
C	 0.7096507946	-0.6600571068	 1.3440670734	-0.24883
H	 1.4962801082	 1.7944173741	 0.0112586575	 0.13836
H	 0.2749604642	 1.7225396957	-1.2787222013	 0.132992
H	-0.2119810737	 2.0798176973	 0.3879600507	 0.132713
H	-0.7873195046	-0.2542994462	-0.2002277036	 0.093859
H	 1.16262168	-2.7187192942	 0.2649004495	 0.089909
H	 3.201030547	-2.0419518448	 1.6565641596	 0.115919
H	 3.3795629379	-0.532096626	-0.6906145641	 0.293058
H	-0.0372685951	-0.8842047223	 2.1028708979	 0.104651
