10
gdb 21819	3.8241	2.07244	1.34405	3.0687	50.97	-0.2861	-0.0755	0.2106	795.4999	0.061061	-446.785626	-446.779307	-446.778362	-446.816433	21.959	
O	-0.0437671944	-0.0623016769	-0.000504688	-0.24911
C	-0.012545077	 1.1320608424	 0.0075816522	 0.193613
N	 1.1748786988	 1.890720039	 0.0002017791	-0.140478
N	 2.4360787399	 1.3367221227	-0.0174544713	-0.078375
N	 3.2747438384	 2.2818761566	-0.0195361115	-0.030309
N	 2.6077603246	 3.4668586732	-0.0035653848	-0.315635
C	 1.2363056027	 3.2980592765	 0.0096655048	 0.554017
O	 0.3407241941	 4.1034770214	 0.0254066164	-0.384871
H	-0.8827915411	 1.8073345553	 0.0220833689	 0.146314
H	 3.115243314	 4.3363356499	-0.0023821458	 0.304832
