19
gdb 126739	3.12802	1.1133	0.873	1.9682	79.8	-0.2077	0.0319	0.2396	1364.404	0.159883	-419.227054	-419.217941	-419.216997	-419.261636	32.83	
C	 0.1189822317	 1.5034835594	 0.0671415563	-0.370467
C	-0.0779666779	-0.0007789411	-0.1263793129	-0.140523
N	 0.6763196998	-0.526395105	-1.2479993611	 0.040172
C	 1.7633391907	-1.3318132743	-1.2279454663	-0.006347
C	 2.1624047811	-1.5275580855	-2.5328773625	-0.372019
C	 1.2281967007	-0.776601575	-3.2808107729	 0.473832
O	 1.2308546149	-0.682552364	-4.6221710554	-0.267224
C	 0.2018608908	 0.1215218807	-5.1871074993	-0.229275
N	 0.3305405926	-0.1689534312	-2.5133532084	-0.374452
H	 1.1667949529	 1.7364766314	 0.2787560425	 0.123461
H	-0.1779452679	 2.0399953189	-0.8368047607	 0.146791
H	-0.4915191566	 1.859687218	 0.9025877869	 0.11632
H	 0.2426952136	-0.5544948726	 0.7609234751	 0.115629
H	-1.1367035349	-0.225298992	-0.293485969	 0.126283
H	 2.1653481303	-1.7042916458	-0.2981654678	 0.129629
H	 2.984350759	-2.1181363557	-2.8995120428	 0.107776
H	 0.3529372965	 0.088196212	-6.2671899514	 0.123406
H	-0.7889781993	-0.2698711692	-4.9324250163	 0.129011
H	 0.2672660419	 1.1545277711	-4.8287243741	 0.127997
