23
gdb 112828	2.78393	1.14927	0.92292	1.1536	84.96	-0.26	0.0795	0.3395	1356.9812	0.206873	-388.292911	-388.283743	-388.282799	-388.326604	35.729	
C	-0.0387903258	 1.5724883528	 0.0055176932	-0.398361
C	 0.0490037673	 0.0450272236	 0.0181535549	 0.02632
C	 0.7969011581	-0.5531919597	-1.1973920747	-0.236139
C	 1.3190580878	-1.9324090523	-0.730790503	 0.026183
C	 2.5383311935	-2.4248247683	-1.4979368882	-0.090639
O	 2.1726768549	-2.5630818393	-2.8654531083	-0.42447
C	 1.5470309632	-1.7617581464	 0.7683854347	-0.060326
C	 2.2783869731	-0.5222377842	 1.234595152	-0.294101
C	 0.7689771264	-0.5504082598	 1.226205617	-0.036194
H	 0.960216255	 2.0219091749	 0.0312356383	 0.111584
H	-0.5455625701	 1.9333019012	-0.8961466364	 0.109806
H	-0.5942770763	 1.9474142391	 0.871894611	 0.108034
H	-0.9735605055	-0.3584790842	 0.0244329248	 0.069268
H	 0.1651155807	-0.6281061554	-2.0845851945	 0.107091
H	 1.6403485654	 0.0916856971	-1.4741356514	 0.093372
H	 0.5238509985	-2.6773977457	-0.8698177807	 0.077225
H	 3.3639884764	-1.7047179471	-1.3773558832	 0.081622
H	 2.8787282903	-3.3863618389	-1.0799413156	 0.080024
H	 2.9476820364	-2.8495649967	-3.3569793503	 0.285031
H	 1.6103651196	-2.65292593	 1.3842534768	 0.076128
H	 2.767012624	-0.5752097445	 2.2013786285	 0.105866
H	 2.8075239705	 0.092202689	 0.5134779216	 0.10738
H	 0.2556295968	-0.5463990052	 2.1823550234	 0.075297
