18
gdb 63789	3.5336	1.2996	1.2218	3.2165	73.4	-0.2582	0.0063	0.2646	1090.8094	0.146313	-439.065641	-439.057285	-439.056341	-439.098315	32.02	
C	 0.4037964173	 1.3924132605	 0.0032946604	-0.432172
C	 0.0689620466	-0.0855901617	 0.0551279033	 0.374953
C	-1.3963813949	-0.3836931938	-0.2335390179	-0.426914
O	 0.9154737349	-0.8676048661	-0.8649029428	-0.337784
C	 1.3630780917	-1.7347693986	 0.1913738962	-0.016336
C	 0.6086749672	-0.9099535141	 1.2486611838	 0.004381
O	 1.8728182364	-0.4272683418	 1.7861690801	-0.269857
C	 2.6051487484	-1.2061360678	 0.891613675	 0.435519
N	 3.8389911557	-1.3695156148	 0.7719957798	-0.543363
H	 1.446490003	 1.567528679	 0.2725934373	 0.139262
H	 0.235647406	 1.770930065	-1.0096940845	 0.130237
H	-0.2341931476	 1.9572819878	 0.6906190372	 0.120242
H	-1.6507270276	-0.0566084331	-1.2458229113	 0.134906
H	-1.6017236898	-1.4562587283	-0.1630899739	 0.122454
H	-2.0447720607	 0.1416894349	 0.4756248949	 0.120639
H	 1.279819812	-2.7974767343	-0.0341431248	 0.109585
H	-0.0619185255	-1.2635671508	 2.0294399021	 0.101593
H	 4.362781337	-0.8041725421	 1.4429931052	 0.232655
