16
gdb 70221	3.68672	1.32977	1.13934	4.6026	65.08	-0.2448	0.0413	0.2861	1052.0984	0.125353	-475.04592	-475.038247	-475.037303	-475.077906	29.871	
O	-0.0277811454	 1.3784066223	 0.0535161607	-0.458712
C	 0.0040009805	-0.0143286985	-0.0344997657	 0.351196
C	-0.50794337	-0.7015851314	-1.2791416511	-0.372204
C	-1.2968428651	-0.7291451729	 0.0265068359	-0.022689
N	-1.3230857515	-1.9052563822	 0.8500082365	-0.362627
C	-0.2135032177	-2.6817339585	 1.0968649122	 0.448737
O	-0.2613486413	-3.8198134343	 1.4849813076	-0.380874
O	 0.9894079576	-2.0860007908	 0.8484533226	-0.242777
C	 1.0914601914	-0.6612271238	 0.8014799492	-0.14221
H	 0.6460024747	 1.7318459064	-0.5386778043	 0.28969
H	-0.8887526449	-0.060375358	-2.0663185585	 0.123232
H	-0.0259740685	-1.6164446594	-1.6064532202	 0.137947
H	-2.1996629904	-0.1337649168	 0.0891649557	 0.123089
H	-2.1738598212	-2.4475879119	 0.8630563319	 0.260581
H	 2.0896442089	-0.4569265259	 0.4017319121	 0.118889
H	 1.0349890329	-0.2458300244	 1.8159208754	 0.128731
