16
gdb 468	6.72379	3.02517	2.29024	1.7082	56.14	-0.2381	0.0839	0.322	594.9572	0.144241	-271.642927	-271.63658	-271.635636	-271.673114	22.656	
C	-0.1137173863	 1.5388959291	 0.0019097309	-0.411344
C	 0.0821886716	 0.0255682975	 0.0085171188	 0.025904
C	 0.9019732669	-0.5394146224	-1.1642131488	-0.231056
C	 1.3570981006	-1.898114457	-0.6186268585	-0.064478
O	 1.4210023092	-1.7674954294	 0.8038996825	-0.26285
C	 0.8924520177	-0.5064552117	 1.1985091346	-0.060467
H	 0.851332709	 2.0585510185	-0.0114110835	 0.116267
H	-0.6798616062	 1.8625968832	-0.8772837029	 0.117069
H	-0.6614105131	 1.8745966394	 0.8890484886	 0.116766
H	-0.8993968198	-0.466676453	 0.0145421266	 0.07845
H	 0.3315452768	-0.6248555505	-2.0928417113	 0.100291
H	 1.7653900839	 0.1083623078	-1.3587796785	 0.10149
H	 0.6391878569	-2.6909622961	-0.8749085052	 0.092857
H	 2.3402092459	-2.2028324012	-0.9964073966	 0.09878
H	 1.7117436	 0.1900807545	 1.4449685935	 0.082177
H	 0.289291647	-0.6472756187	 2.1025695398	 0.100145
