21
gdb 83788	2.56635	1.65533	1.39793	1.6996	81.16	-0.2495	0.079	0.3285	1043.5541	0.184944	-387.076451	-387.068647	-387.067702	-387.108322	31.677	
C	-0.3423349914	 1.5238350988	-0.0856656384	-0.424095
C	-0.0316496507	 0.0456906792	 0.0127453156	-0.024553
C	 1.3070059833	-0.573717639	-0.3414686556	-0.0612
C	 2.5491948235	 0.2580546714	-0.6483464618	-0.232784
C	 3.6132826187	 0.1611919685	 0.4631811617	-0.235293
C	 3.0394231651	 0.4832677874	 1.8267860551	 0.058518
O	 2.0374555169	 1.5085126077	 1.8621089616	-0.257379
C	 1.6315159744	 0.1546526828	 2.1164985228	 0.033137
C	 0.8190376574	-0.587123545	 1.0959960642	-0.059173
H	 0.4884146947	 2.1446332648	 0.2462581733	 0.153516
H	-0.5953817416	 1.7930572941	-1.117803399	 0.108007
H	-1.2071145684	 1.7718013738	 0.5398292903	 0.111989
H	-0.8767716342	-0.5783658204	-0.2707160022	 0.081276
H	 1.2611285082	-1.5238116709	-0.8655572112	 0.078276
H	 2.987665804	-0.0773866425	-1.5930132994	 0.095917
H	 2.2882193344	 1.3106163588	-0.7866069599	 0.116338
H	 4.0391227255	-0.8508665864	 0.5044512844	 0.101364
H	 4.4445208623	 0.8414510595	 0.2425593426	 0.103386
H	 3.7492042152	 0.5262451225	 2.6533085756	 0.085245
H	 1.3437479641	-0.0178817105	 3.1536822405	 0.088211
H	 0.4577098185	-1.5344828445	 1.4881794099	 0.079298
