22
gdb 8186	2.56707	2.14407	1.5743	0.2159	82.46	-0.2378	0.0877	0.3255	961.0775	0.199357	-313.053683	-313.04488	-313.043936	-313.085933	34.458	
C	-0.0310491673	 1.521889809	 0.035600141	-0.463224
C	 0.0546749607	 0.004379993	 0.0415501793	 0.296112
C	-1.1696977948	-0.6337608412	-0.6000095738	-0.458002
C	 1.3418325459	-0.7492679872	-0.2276489327	-0.137545
C	 2.5674449821	-0.0192136724	 0.3266132896	-0.239883
C	 1.9103402476	-0.0304597206	 1.7424291478	-0.288006
C	 0.6916092733	-0.7825256137	 1.172300723	 0.316787
C	 0.0194042202	-1.8807233808	 1.9515984272	-0.49788
H	 0.8440236904	 2.0046480129	 0.4740068113	 0.117039
H	-0.1349152891	 1.8972000376	-0.9895250982	 0.110258
H	-0.9098847713	 1.86067644	 0.5974270029	 0.110034
H	-1.3208887096	-0.2295772636	-1.6075906076	 0.112279
H	-1.0730170553	-1.7184821781	-0.6950649844	 0.1143
H	-2.0790299952	-0.4272122138	-0.0230090128	 0.111627
H	 1.3728264808	-1.5271973084	-0.9841326239	 0.07185
H	 3.473696452	-0.6282382592	 0.291588801	 0.098274
H	 2.7962577337	 0.9573812494	-0.1126748728	 0.09318
H	 2.4721141651	-0.6497530608	 2.4469703428	 0.096499
H	 1.7183512379	 0.9357245931	 2.220411831	 0.091029
H	-0.4946386106	-1.4719528491	 2.8314030288	 0.115637
H	-0.7239599703	-2.4253520359	 1.3645852745	 0.117235
H	 0.7536011337	-2.6091821002	 2.315881146	 0.112401
