20
gdb 18408	3.03408	2.05495	1.38079	2.0322	73.54	-0.2542	0.0797	0.3339	939.0652	0.179957	-349.005688	-348.998592	-348.997648	-349.036644	28.636	
C	-0.0168692586	 1.5104866345	 0.0132783268	-0.177694
C	 1.3664848433	 2.1863616506	 0.0084847827	-0.186058
C	 2.2316057188	 1.8885876888	 1.2481191403	-0.23486
C	 2.8886519786	 0.5240824262	 1.17123768	 0.068177
O	 2.8516558823	-0.3225200489	 2.3268010743	-0.264501
C	 2.0975019371	-0.7125143376	 1.1724231093	 0.068178
C	 0.5833117935	-0.6877574253	 1.2505887152	-0.23486
C	-0.0507186295	-0.0287811429	 0.0106077415	-0.186058
H	-0.5740583408	 1.8678063348	 0.8910310788	 0.094947
H	-0.574783939	 1.8665905329	-0.86163578	 0.092778
H	 1.9173615542	 1.8976350753	-0.897415339	 0.093249
H	 1.2125952071	 3.2694084062	-0.0654281621	 0.094945
H	 3.0086651348	 2.6541526554	 1.352654225	 0.097187
H	 1.6210273476	 1.939590469	 2.1558011826	 0.109744
H	 3.8457019312	 0.5031582009	 0.6461221561	 0.084851
H	 2.5171676609	-1.5733908584	 0.6481131319	 0.084851
H	 0.2140109556	-1.7139961787	 1.3568413738	 0.097187
H	 0.2818852503	-0.1535380668	 2.1578073299	 0.109744
H	-1.0986099001	-0.3430932967	-0.0619664246	 0.094945
H	 0.4415234625	-0.4091567495	-0.8952042226	 0.093249
