13
gdb 3715	7.28973	1.93387	1.67104	4.0989	55.89	-0.2692	-0.0348	0.2344	738.0723	0.101805	-340.623773	-340.617316	-340.616372	-340.654655	22.606	
C	-0.1819523752	 1.5691604347	-0.0329871011	-0.377701
C	 0.0978641221	 0.0574813604	 0.0274053218	-0.294976
C	 0.8200815903	-0.448815678	-1.174223092	 0.416461
C	 2.0362357221	-1.0331497318	-1.3618933672	-0.209737
N	 2.1666387951	-1.2771921505	-2.7076172935	-0.107351
N	 1.1482041073	-0.8936498487	-3.3319022791	-0.011007
O	 0.2314302054	-0.3403064366	-2.3657782276	-0.217502
H	 0.7502730358	 2.1381208027	-0.092439425	 0.131181
H	-0.7871978653	 1.8170737554	-0.9084407163	 0.144421
H	-0.7225175371	 1.8891695936	 0.8616784067	 0.124937
H	 0.6953204277	-0.185909609	 0.9110672612	 0.126114
H	-0.8489764336	-0.4872281831	 0.1233360112	 0.137246
H	 2.8052385654	-1.2915093192	-0.654493749	 0.137916
