14
gdb 45728	2.66103	1.44121	1.11824	4.7889	67.71	-0.2821	-0.0337	0.2484	1066.1079	0.101223	-436.728996	-436.721271	-436.720326	-436.76246	27.782	
O	-0.067478569	 0.177325895	 0.8597651615	-0.302315
C	-0.0557898779	 1.1280518375	 0.1351592916	 0.426852
C	-1.3164668417	 1.8009165348	-0.3823354197	-0.409666
C	-1.119919626	 3.2073157637	-0.8626786678	-0.063833
C	 0.0760174199	 3.6433163662	-1.2323666698	-0.078113
C	 1.2772744508	 2.7356319413	-1.1569511109	-0.054112
O	 1.1524025482	 1.6541251624	-0.2292603705	-0.231049
C	 1.6072349196	 2.2009153046	-2.4958064504	 0.272107
N	 1.8546253802	 1.8053463726	-3.5525312763	-0.30381
H	-1.7095636218	 1.1719080322	-1.1941728194	 0.170205
H	-2.0558207644	 1.737050314	 0.4206044872	 0.159326
H	-1.989395747	 3.8552548976	-0.9114433251	 0.124126
H	 0.250700768	 4.6426019787	-1.6137544939	 0.130796
H	 2.150978881	 3.2986016294	-0.8091982565	 0.159487
