23
gdb 63695	2.52931	1.48642	1.19683	1.6574	85.18	-0.2358	0.0815	0.3173	1174.607	0.204121	-388.274311	-388.264857	-388.263912	-388.30823	36.987	
C	-0.5178232502	 1.5357779582	 0.0132716759	-0.453639
C	-0.0120967604	 0.095754782	 0.0315660673	 0.344038
C	-1.1456643223	-0.8741646697	-0.310787371	-0.439558
C	 1.2755395841	-0.184579423	-0.824128049	-0.32825
C	 2.0061144436	-0.6993966369	 0.4391182468	 0.467978
C	 2.780343265	-1.9906248848	 0.3957470911	-0.476449
O	 2.7480951833	 0.3713257179	 1.0865006704	-0.33068
C	 1.6691318208	 0.6220312822	 2.0148831725	-0.106081
C	 0.7510216035	-0.3862576493	 1.3146090423	-0.16895
H	 0.2868411343	 2.2558062698	 0.1869918461	 0.121941
H	-0.9605580722	 1.7717373568	-0.9613833908	 0.113001
H	-1.2895733105	 1.6981393284	 0.7750519211	 0.10972
H	-1.5349759473	-0.6805758608	-1.3169623736	 0.111878
H	-0.806274783	-1.9155505377	-0.280412965	 0.110425
H	-1.9766035261	-0.7749136615	 0.3975612005	 0.110857
H	 1.1293827145	-0.9328221832	-1.6092300438	 0.091151
H	 1.7554885723	 0.6968651605	-1.2556620655	 0.102655
H	 3.6760370064	-1.8702789148	-0.2246443192	 0.127662
H	 3.1007825028	-2.2895151315	 1.3984719847	 0.120435
H	 2.1757785736	-2.7958355655	-0.034192879	 0.11432
H	 1.9479303508	 0.3293254788	 3.036295304	 0.095252
H	 1.3622119355	 1.6741431348	 2.0271357125	 0.097685
H	 0.2372496116	-1.1180926507	 1.9396984417	 0.064608
