17
gdb 45487	2.9524	1.71337	1.50812	2.9041	70.52	-0.2362	-0.0182	0.2181	920.4866	0.138477	-421.846604	-421.839965	-421.83902	-421.877798	26.725	
O	-0.0097216923	 0.0246464941	-0.4437449333	-0.325629
C	-0.0251781129	 1.18018261	-0.1017392303	 0.392076
C	-1.2745203606	 2.0388749387	 0.1318931848	-0.324545
C	-0.7714121272	 3.3215186393	 0.8152542045	 0.057043
O	-0.7476216561	 3.1597491455	 2.232780639	-0.259038
C	 0.4561791637	 2.4827962524	 2.5929032463	-0.11067
C	 1.4279530291	 2.7140951484	 1.441988397	-0.067708
C	 0.7067795156	 3.471164713	 0.379643095	-0.097784
C	 1.1781975635	 2.0632520983	 0.0767547632	-0.162527
H	-1.687951065	 2.2689853067	-0.8585609956	 0.130399
H	-2.0431560373	 1.516450118	 0.7046327132	 0.135492
H	-1.3876184891	 4.1948903794	 0.5972174878	 0.092049
H	 0.8308913533	 2.9239233857	 3.5227219593	 0.113281
H	 0.2654788025	 1.4156735371	 2.7768066045	 0.110565
H	 2.4657696971	 2.9229347201	 1.6728074462	 0.107269
H	 1.0821277346	 4.3587689051	-0.1118174751	 0.101221
H	 2.0517100412	 1.8445982382	-0.5257694965	 0.108506
