20
gdb 87573	2.53318	1.42946	1.22308	1.7843	78.89	-0.2391	0.0753	0.3144	1136.5385	0.169665	-403.085181	-403.076363	-403.075419	-403.118439	33.688	
C	 0.0434631705	 1.5967867392	-0.046109694	-0.392504
C	-0.0035575412	 0.0932124957	 0.0669397425	-0.066067
N	 1.2726076474	-0.6354151105	-0.1400724967	-0.400692
C	 0.6323444506	-0.6523521616	 1.1717481824	 0.34293
C	 1.3205752915	-0.14758455	 2.4278968728	-0.065908
O	 0.2932747587	-0.0394509874	 3.430221608	-0.24725
C	 0.8643976279	-1.3275664798	 3.1798186221	 0.022761
C	 0.1551457796	-1.9214940842	 1.9412727808	-0.118836
C	-1.3340021938	-2.2126220273	 2.0537894149	-0.40768
H	 0.9704927156	 1.985927882	 0.3826759548	 0.1241
H	-0.0006765323	 1.911506542	-1.0942276663	 0.118602
H	-0.8005092918	 2.0514549029	 0.4831532501	 0.123301
H	-0.8958480267	-0.3706202292	-0.3533176913	 0.082374
H	 1.1080151899	-1.5153307348	-0.6243605954	 0.227797
H	 2.2040003531	 0.4701076345	 2.5337495848	 0.110048
H	 1.3134459139	-1.846323894	 4.0190190955	 0.103274
H	 0.7085911268	-2.7959100426	 1.5765218228	 0.079554
H	-1.8529654524	-1.3547347178	 2.4889712071	 0.136809
H	-1.7748870849	-2.4192693373	 1.0724669968	 0.112207
H	-1.5182165723	-3.0868563997	 2.6876934182	 0.115179
