21
gdb 115856	2.53807	1.43582	1.18484	1.79	78.67	-0.2333	0.0768	0.3101	1157.8752	0.182235	-424.198268	-424.189198	-424.188254	-424.232201	33.7	
C	-0.3338257666	 1.2279497364	-0.0773252379	-0.238723
O	-0.0667883219	-0.1537401303	-0.0265250164	-0.235785
C	 0.8073756898	-0.5295799486	 1.0249090914	 0.088877
C	 0.129087267	-0.6109121952	 2.4172189986	-0.09724
O	-0.1170880131	-1.9886487508	 2.694485875	-0.257271
C	 0.7927019555	-2.7695576364	 1.9582613385	 0.067639
C	 0.3767486689	-3.1004595501	 0.5515753625	-0.027288
C	-1.0520996866	-2.9723907715	 0.0743642539	-0.395577
C	 1.3357136984	-1.941961856	 0.8227060349	-0.13055
H	 0.591164672	 1.8151916431	-0.1947007783	 0.103889
H	-0.9750806502	 1.4021134263	-0.9447150876	 0.129564
H	-0.8567050174	 1.5916773716	 0.8205880348	 0.10483
H	 1.6461489457	 0.1832423727	 1.0569233936	 0.067677
H	 0.7901377592	-0.1875093298	 3.1887377345	 0.092359
H	-0.8265761714	-0.0782625732	 2.4466720091	 0.10971
H	 1.3953245327	-3.442033322	 2.5621463796	 0.09002
H	 0.9027741636	-3.9569185422	 0.1335530502	 0.083369
H	-1.094247925	-2.6858063346	-0.9797969456	 0.119908
H	-1.5665801669	-3.9329768564	 0.190190744	 0.105665
H	-1.5994520953	-2.2250682891	 0.6485166627	 0.130366
H	 2.3576971117	-2.0483965738	 0.4800382425	 0.088559
