17
gdb 81271	2.6847	1.48284	1.25477	2.1354	67.83	-0.2376	-0.0278	0.2098	1046.5428	0.135715	-458.948269	-458.940409	-458.939465	-458.980489	30.397	
C	-0.1945655638	 1.5275532796	 0.0145553129	-0.421496
C	 0.0710783104	 0.0254031744	-0.0591107237	-0.108575
C	 1.0621544038	-0.5115041085	-1.1100692009	 0.000698
O	 1.2341940716	-1.9051468039	-0.659096092	-0.323333
C	 1.9615981463	-1.2982053291	 0.4678633175	-0.107077
C	 2.48101095	-0.2230480114	-0.5458991556	 0.179304
O	 3.5383730355	-0.6412823238	-1.3513158742	-0.444841
C	 0.8321534723	-0.5401271338	 1.1652627476	 0.443189
O	 0.6204269835	-0.369957669	 2.3339354214	-0.329191
H	 0.7329979062	 2.106893982	 0.0541692093	 0.125309
H	-0.7690572533	 1.8695415182	-0.8514101998	 0.124133
H	-0.7662820233	 1.7561124486	 0.9181940191	 0.146818
H	-0.8726285774	-0.5211022955	-0.1694948683	 0.11872
H	 0.8264342441	-0.4152469238	-2.1702505291	 0.09368
H	 2.6070199601	-1.9686543718	 1.0312385777	 0.105057
H	 2.7187255919	 0.7775996374	-0.1787534535	 0.10398
H	 3.3135207724	-1.5283363297	-1.6627435485	 0.293625
