20
gdb 57673	3.95289	0.80718	0.8003	2.6945	79.8	-0.2619	-0.0392	0.2227	1475.7115	0.167591	-403.181662	-403.17117	-403.170226	-403.218118	37.208	
C	-0.029445451	 1.6401280609	-0.0748095441	-0.418107
C	 0.0417287919	 0.1083226457	 0.0496739125	 0.223829
C	 0.8223810997	-0.2908232607	 1.3151221256	-0.426237
C	-1.3922891465	-0.4942272553	 0.0589687572	-0.294134
C	-2.2469590172	-0.036841311	 1.2226506015	 0.147217
O	-3.1966934139	 0.6959748154	 1.1162703783	-0.235874
C	 0.747912222	-0.4874942778	-1.2044008562	-0.353968
C	 2.1203847614	-0.0176228861	-1.3815724489	 0.271784
N	 3.2053911995	 0.3605273127	-1.5070581072	-0.316505
H	 0.9736177089	 2.0724530266	-0.1314305764	 0.142513
H	-0.5808330072	 1.9399683314	-0.9721739478	 0.123233
H	-0.5388264342	 2.0810733253	 0.7867771177	 0.132562
H	 0.3824232091	 0.153469268	 2.2121880559	 0.125401
H	 0.8385135803	-1.378161032	 1.4494815656	 0.115691
H	 1.8581542518	 0.055346775	 1.252679963	 0.147892
H	-1.9191065964	-0.2230481948	-0.8615067323	 0.120877
H	-1.317774924	-1.5896839204	 0.1093825204	 0.111452
H	-1.9449604657	-0.4323338453	 2.2181461974	 0.083154
H	 0.7673026418	-1.581572365	-1.136850623	 0.147785
H	 0.1788532097	-0.2346062026	-2.1063664292	 0.151435
