18
gdb 7088	5.07471	0.78973	0.69506	3.3697	79.71	-0.2518	-0.0429	0.2089	1646.9415	0.150268	-347.80821	-347.797994	-347.79705	-347.8467	33.593	
C	 0.0159536001	 1.5775171386	-0.0558957638	-0.392572
C	 0.0015991849	 0.0481559746	 0.0014357431	-0.163788
C	 0.6896482075	-0.5907793291	-1.204424973	-0.280886
C	 0.690662058	-2.1115478944	-1.1748413509	 0.201541
O	 0.1912141784	-2.7543267588	-0.2744174462	-0.295761
C	 1.3349320593	-2.752736137	-2.3058276471	-0.025305
C	 1.8735560509	-3.2742905953	-3.2518126379	 0.161293
C	 2.5188886102	-3.9175209256	-4.3834217045	-0.504412
H	 1.0398710411	 1.9675612545	-0.0805111378	 0.112847
H	-0.4991548199	 1.9494532459	-0.9489088468	 0.112848
H	-0.4820669498	 2.0088900952	 0.8177408084	 0.115934
H	 0.4907599633	-0.3007280568	 0.9171116963	 0.113314
H	-1.0287251808	-0.3186163055	 0.0595933235	 0.113281
H	 0.2177397625	-0.2767751136	-2.1464833397	 0.124667
H	 1.7344568335	-0.2593512745	-1.2901551134	 0.124716
H	 2.4713475909	-5.0083430939	-4.3033754876	 0.16184
H	 2.0392737994	-3.6249160523	-5.3238631088	 0.160139
H	 3.5734536606	-3.627701552	-4.4468292236	 0.160303
