18
gdb 77326	2.44272	1.45452	1.11732	3.3483	78.31	-0.2413	0.0262	0.2675	1138.6339	0.147543	-401.963997	-401.955054	-401.95411	-401.997833	32.857	
C	-0.0622610326	 1.3846125469	 0.1083322253	-0.350088
N	-0.0189011931	-0.0495058612	-0.0660697933	-0.048119
C	-1.2126865403	-0.8821118774	 0.0339204469	-0.187203
C	-0.6912839131	-2.2757488286	-0.4229809149	-0.235566
C	 0.7999936556	-2.244087815	-0.0687107538	-0.33213
C	 1.1600615049	-0.7586715133	-0.067813003	 0.412769
O	 2.2702074224	-0.2716936282	-0.0581167373	-0.389174
C	-1.7772488112	-0.8893199669	 1.3897389968	 0.359977
C	-2.2343426174	-0.8891326397	 2.5015496903	-0.479648
H	 0.9654385013	 1.7485202745	 0.0642231747	 0.165852
H	-0.6516202565	 1.8586260674	-0.6853335845	 0.121514
H	-0.5020743199	 1.6517638919	 1.0767750231	 0.133745
H	-1.9808929096	-0.5123456132	-0.657322297	 0.110585
H	-1.245438459	-3.085068082	 0.0526615925	 0.123306
H	-0.8244044853	-2.3580221665	-1.5050738371	 0.117256
H	 0.9936881523	-2.6369233877	 0.9355480414	 0.139146
H	 1.437930354	-2.7914262639	-0.7642217945	 0.13243
H	-2.6380951225	-0.8901668071	 3.4841425846	 0.205349
