17
gdb 79606	2.31675	1.97727	1.59004	4.8101	70.87	-0.2414	-0.0058	0.2356	922.6097	0.13738	-417.975742	-417.968301	-417.967357	-418.007678	28.692	
C	-0.0749738769	 1.5508396671	 0.0628929818	-0.437479
C	-0.0148220759	 0.0407750273	-0.0725459485	-0.010814
C	 0.6125124858	-0.7650351914	-1.1645163937	-0.064168
C	 1.6916926287	-0.3037371848	-2.1264288763	-0.033157
C	 2.2909479541	 1.0569387682	-2.1295651933	-0.269296
N	 2.8905186144	-0.0292529119	-1.3199620131	-0.127148
C	 2.4484269076	-0.0353115303	 0.0553059891	 0.375767
O	 3.0513535594	 0.4528393497	 0.9658836255	-0.319424
N	 1.2156819477	-0.7630268717	 0.1801318855	-0.14491
H	 0.904320322	 2.0016944949	 0.2336427142	 0.15819
H	-0.5270190752	 2.0099145864	-0.8218703387	 0.133936
H	-0.6934435402	 1.8110060806	 0.925746946	 0.136849
H	-0.8749769503	-0.4504775006	 0.3791831655	 0.111668
H	 0.1158716191	-1.6866514954	-1.4563021615	 0.106669
H	 1.8379302025	-0.9393368527	-2.9945008943	 0.11102
H	 2.9004534399	 1.3614595628	-2.9753938074	 0.136004
H	 1.7950242575	 1.871437442	-1.6192895607	 0.136294
