22
gdb 107176	3.41341	1.18291	1.075	1.5577	85.75	-0.2102	0.0667	0.2768	1257.1576	0.193608	-367.12132	-367.112249	-367.111305	-367.155021	35.184	
C	-0.0185845079	 1.5482823988	-0.1592469787	-0.377098
C	-0.0151622685	 0.0233531531	 0.016137314	-0.295989
C	 0.7006762426	-0.4646417632	 1.2486357506	 0.356877
C	 0.2824016192	-1.6633923382	 2.0494298468	-0.369622
C	 0.3754229586	-0.3075398123	 2.7181084653	-0.063384
N	 1.728633949	 0.2858290089	 3.0529492312	-0.162325
C	 2.8531724941	-0.6316016824	 2.7487565977	 0.021575
C	 3.0209422674	-2.0813160947	 3.1901761203	-0.438908
C	 2.1268940076	 0.0067383418	 1.617773479	-0.125931
H	 0.99337285	 1.946718744	-0.2807962297	 0.119976
H	-0.5923932615	 1.8342171497	-1.0461600803	 0.111256
H	-0.4662481301	 2.0416183843	 0.7092544636	 0.123683
H	-1.0500733318	-0.3382040018	 0.0540744942	 0.098062
H	 0.4337019349	-0.4456800863	-0.8713492477	 0.098634
H	-0.7527685688	-1.9471796243	 1.8723735263	 0.109319
H	 0.9238259994	-2.5060470802	 2.2539287962	 0.112774
H	-0.4756175468	 0.1451557424	 3.2117446142	 0.098668
H	 3.762354936	-0.061720935	 2.9440793512	 0.100019
H	 2.2405068648	-2.3894794318	 3.8890323582	 0.14181
H	 3.0290309636	-2.7808606259	 2.3493836725	 0.132564
H	 3.9780533113	-2.1857734641	 3.7089204334	 0.117063
H	 2.6094708768	 0.7878311971	 1.0356835317	 0.090977
