14
gdb 3691	7.27251	2.05317	1.63383	5.488	59.86	-0.2395	0.0246	0.2641	757.131	0.114286	-320.795216	-320.788281	-320.787337	-320.826056	24.486	
C	 0.0279541647	 1.4899452114	 0.0359278478	-0.504894
C	-0.005194929	 0.001881226	-0.0124018817	 0.363981
N	-0.1430681906	-0.7328989676	-1.0868850965	-0.259303
N	-0.1242142351	-2.0605233947	-0.6970235874	-0.259303
C	 0.0263125088	-2.0939742457	 0.602840891	 0.363981
C	 0.1018242014	-3.3183481139	 1.4472204417	-0.504894
N	 0.1063528335	-0.8124319229	 1.0861342546	-0.335059
H	 0.9702871077	 1.8627509363	 0.4528884147	 0.134411
H	-0.0750250635	 1.8700582935	-0.9813207397	 0.165791
H	-0.7891788618	 1.8957601968	 0.6429965847	 0.134776
H	 1.0576311905	-3.3878919519	 1.9787532455	 0.134796
H	-0.6986422903	-3.3470401564	 2.195054507	 0.134391
H	 0.0019830573	-4.1902883785	 0.7994261885	 0.165791
H	 0.2226357263	-0.5292644927	 2.0448067998	 0.265534
