16
gdb 42418	2.99203	1.07534	0.8832	5.2441	70.63	-0.2677	-0.0877	0.1801	1297.4618	0.123125	-437.88057	-437.871656	-437.870712	-437.916401	30.279	
O	-0.5066911603	 0.2677682344	-1.2049982024	-0.267104
C	-0.0036744107	 1.1462009949	-0.5504760025	 0.308726
C	 1.3775835504	 1.711378677	-0.8070213124	-0.328014
C	 2.4367083864	 0.8301775564	-0.1308241421	 0.162147
C	 3.8736032008	 1.3864428166	-0.0369099683	-0.306409
C	 3.6638538371	 1.2607336419	 1.4872726463	-0.059514
O	 2.2971665969	 0.8246597245	 1.3031159561	-0.287367
C	-0.728081375	 1.7216239558	 0.6013994365	 0.239348
N	-1.3106673226	 2.1952442479	 1.4808043224	-0.305888
H	 1.5446535867	 1.7027857432	-1.8888153772	 0.141242
H	 1.4541998475	 2.7340499805	-0.4266430037	 0.128687
H	 2.3656004514	-0.1864860053	-0.5391291221	 0.101796
H	 4.6526465522	 0.7585203098	-0.4700611585	 0.123049
H	 3.9896056393	 2.408508832	-0.4025397103	 0.118365
H	 4.2696350903	 0.4917981708	 1.9800746097	 0.114149
H	 3.7207436996	 2.1876399897	 2.0676647087	 0.116788
