17
gdb 49622	4.37121	0.96624	0.88897	2.5391	75.58	-0.2396	-0.0318	0.2077	1300.5156	0.135599	-417.931551	-417.923674	-417.92273	-417.96427	29.746	
O	-0.3621117105	 0.724616519	-0.852164379	-0.258518
C	 0.2449891487	 0.9852031541	 0.1554626774	 0.156145
C	 1.4785144302	 1.8186417472	 0.1893086469	-0.105394
C	 1.6093471227	 2.8309749353	 1.2804252002	-0.141097
N	 2.3565691551	 1.5311935638	 1.3532295463	-0.142979
C	 3.6397113903	 2.2909066777	 1.0906528286	-0.237205
C	 2.880920723	 3.6233893701	 1.0801500703	 0.357814
C	 3.0861381451	 4.914704322	 0.3911716482	-0.308366
N	 3.3091396206	 4.7808892414	 1.8479330559	-0.366316
H	-0.0789413106	 0.6203601023	 1.1551812921	 0.088033
H	 1.9201083855	 2.0297945168	-0.7819068469	 0.110114
H	 0.7945823019	 3.0723806039	 1.9584334282	 0.108057
H	 4.3067808769	 2.1988648107	 1.9495989701	 0.136609
H	 4.1560719802	 1.9781800726	 0.1783654837	 0.117773
H	 3.987562226	 5.0861202085	-0.1907662439	 0.12798
H	 2.2075716827	 5.4497009983	 0.0389005384	 0.120581
H	 2.5296194021	 5.1804313162	 2.3660110936	 0.236768
