16
gdb 14538	4.55165	1.574	1.43805	3.3052	69.79	-0.269	0.0278	0.2969	898.9634	0.132081	-342.762839	-342.755559	-342.754615	-342.79399	28.036	
N	-0.1268122076	 1.4344271853	 0.0315772244	-0.5605
C	-0.0745105442	-0.0044732718	 0.030651618	 0.155111
C	 1.0091047823	-0.6062845047	-0.7250992369	 0.228751
N	 1.8910139974	-1.0331676799	-1.3416850044	-0.345165
C	-0.4675416878	-0.7989011509	 1.2663983846	-0.079142
C	-1.5587278145	-0.0557763163	 2.0466545206	-0.235201
C	-2.4641701178	-0.0880149078	 0.7740979469	-0.235189
C	-1.3515211449	-0.830236	 0.0238493402	-0.079155
H	 0.727798362	 1.8237032048	 0.4179437575	 0.24361
H	-0.2203585867	 1.7900970728	-0.9149543318	 0.243612
H	 0.2019471866	-1.5556052436	 1.6563029282	 0.108361
H	-1.9621402459	-0.6630681651	 2.8591889983	 0.110116
H	-1.288206322	 0.9298928496	 2.4292408247	 0.113156
H	-3.3492978712	-0.7124853432	 0.9095421732	 0.110126
H	-2.7603058749	 0.8774973567	 0.360366939	 0.113147
H	-1.4819523808	-1.615283076	-0.7106791425	 0.108361
