16
gdb 16883	3.93564	1.99122	1.53383	3.9272	64.59	-0.2311	0.0592	0.2903	828.8769	0.134369	-379.957507	-379.950879	-379.949934	-379.988178	26.092	
O	 0.0097293676	-0.0432588188	 0.0752670354	-0.41109
C	-0.0068683464	 1.1740921955	 0.0301019539	 0.413099
N	-1.1449007329	 1.9121027044	 0.2920971226	-0.343193
C	-1.3337384626	 3.2994755722	-0.1057535848	-0.176956
C	-0.0610352076	 4.0953880306	 0.0996246043	-0.026965
C	 0.7846783087	 3.9103626645	 1.3412742335	-0.309615
C	 1.2231822731	 3.3305182375	 0.0099244742	 0.024028
N	 1.118681669	 1.9232231477	-0.2596164301	-0.338184
H	-1.9652593102	 1.3290553215	 0.3527283618	 0.250451
H	-1.6273652778	 3.3819612174	-1.1646857939	 0.108978
H	-2.1546780913	 3.7176166802	 0.4887952634	 0.114521
H	-0.084388359	 5.0845194404	-0.3458926387	 0.094937
H	 1.3152469946	 4.7727426712	 1.7296443683	 0.114671
H	 0.4314639677	 3.2115368801	 2.0912532378	 0.133093
H	 2.0663352415	 3.7875666971	-0.4966696314	 0.102836
H	 1.9614909655	 1.3727990384	-0.1870703462	 0.249389
