15
gdb 55246	3.20558	1.32137	1.07488	0.7192	62.36	-0.2559	0.0086	0.2645	1091.2991	0.113845	-491.135879	-491.127847	-491.126902	-491.169337	29.318	
N	 0.4835015479	-0.2629102524	 0.7732536802	-0.517629
C	-0.1358481796	 0.2167411377	-0.3282131814	 0.367229
O	 0.3190336921	 1.0517346022	-1.0857492964	-0.36414
C	-1.543777795	-0.3520862249	-0.5781251338	-0.014167
C	-1.7114455878	-0.8772801431	-2.0080594047	-0.116724
O	-1.510920558	-2.2881098426	-1.847136731	-0.248385
C	-1.6655746658	-2.623202369	-0.5393552225	 0.49474
N	-1.6626920097	-3.7707834351	-0.0308591646	-0.575527
O	-1.8248222551	-1.5025470123	 0.2230882751	-0.248265
H	 1.409217592	 0.0653810792	 0.9933559367	 0.271249
H	 0.0582040276	-0.9865078127	 1.3287023138	 0.288247
H	-2.2683462482	 0.426657234	-0.3290840101	 0.138512
H	-2.7154557217	-0.6975764949	-2.404835266	 0.126409
H	-0.9602053272	-0.4735937757	-2.6863132903	 0.161223
H	-1.5705823314	-4.4778619504	-0.7561149849	 0.237228
