17
gdb 17583	2.71751	2.49858	1.85725	1.4741	68.15	-0.2312	0.0717	0.3029	799.8123	0.141658	-363.7962	-363.788795	-363.787851	-363.827239	29.074	
C	-0.0021128176	 1.5295212435	 0.0251472217	-0.494576
C	-0.0012628835	 0.0341308397	 0.0876849648	 0.303615
C	 1.157815838	-0.8507050277	-0.3023151104	-0.395224
C	 0.5629184811	-0.9670580264	 1.0866465242	 0.323108
O	 1.2868259618	-0.7353691255	 2.2435266421	-0.461938
C	-0.7502940886	-1.699689018	 1.0057404523	-0.101545
C	-1.885161574	-0.7800789866	 1.2538115893	-0.247509
N	-1.2537773788	-0.7513848473	-0.0800179772	-0.150297
H	 0.9611418243	 1.9272987205	 0.3573967363	 0.129568
H	-0.1808503143	 1.8776061698	-0.9981781815	 0.129907
H	-0.7805893936	 1.9547109348	 0.667179683	 0.122442
H	 1.0210603604	-1.6351647832	-1.0423761211	 0.112829
H	 2.1190704502	-0.3451265465	-0.3331025929	 0.110985
H	 2.0103697185	-1.3701795814	 2.2854281748	 0.28676
H	-0.8822666532	-2.7733058327	 0.9065292396	 0.091772
H	-2.8854144783	-1.2025805509	 1.2394670616	 0.118238
H	-1.7507128123	 0.065320948	 1.9239899934	 0.121864
