20
gdb 114538	3.4547	1.35365	1.24127	0.9961	74.87	-0.2125	0.0888	0.3013	1093.1954	0.172704	-440.2383	-440.230431	-440.229487	-440.270659	30.792	
C	-0.6112574051	 1.0980333837	-0.1868656089	-0.242686
O	-0.2616159881	-0.2668708174	-0.3333868579	-0.236169
C	 0.9195476542	-0.4749456515	-1.0705276861	 0.204673
C	 1.2270625788	-1.9970130627	-1.0177765853	-0.217148
N	 0.8344383926	-2.7228500461	-2.2371141728	-0.12513
C	 1.5306823611	-2.0559659488	-3.4021238171	-0.180324
C	 0.4361109692	-0.9756107701	-3.3683232953	 0.10527
C	-0.4409191129	-2.0849621437	-2.7500994761	-0.208014
O	 0.7909676042	 0.0115634444	-2.3996660951	-0.281402
H	 0.1895549716	 1.6603695182	 0.3173650849	 0.105012
H	-0.8126968424	 1.569438304	-1.1550901721	 0.125607
H	-1.5115770443	 1.1316606344	 0.4304149913	 0.125198
H	 1.7277636015	 0.1253100336	-0.6262923954	 0.073132
H	 2.2977351081	-2.1568038381	-0.8576119956	 0.108765
H	 0.6902470262	-2.4101174345	-0.1594093085	 0.123589
H	 2.5591987135	-1.7334689379	-3.2180729715	 0.103061
H	 1.4894412573	-2.7069272403	-4.2803873276	 0.105748
H	 0.1323696795	-0.4350474067	-4.2681891641	 0.075292
H	-0.9008657444	-2.7320976811	-3.5019230388	 0.104743
H	-1.1668827905	-1.8028869895	-1.9873953581	 0.130782
