21
gdb 38756	2.30483	2.2133	1.77842	1.5236	79.71	-0.2377	0.0772	0.3149	911.5319	0.187509	-387.107497	-387.100986	-387.100041	-387.137895	28.477	
C	-0.0466027089	 1.5209590276	-0.1799975265	-0.247178
C	 1.4936882518	 1.5634821936	 0.0397970041	-0.014477
C	 1.9388635587	 1.9298872246	 1.4625142209	-0.222266
C	 1.3242144491	 1.0121044835	 2.548091948	-0.213138
C	 1.0443109278	-0.411192589	 2.0231017178	 0.096003
C	 2.0784211927	-0.8081261367	 0.9589060618	-0.2397
C	 1.5412302635	 0.0105693567	-0.213563865	-0.049064
C	-0.0041097591	-0.0181224845	-0.0168390263	 0.115391
O	-0.2078382364	-0.4619479296	 1.3205388961	-0.278139
H	-0.6811803816	 2.0612557237	 0.5278131778	 0.098151
H	-0.323614555	 1.8111110846	-1.1979675945	 0.094304
H	 2.0434729651	 2.1681291896	-0.6862783127	 0.061723
H	 3.0324586623	 1.8589331298	 1.5069540313	 0.096588
H	 1.6965702388	 2.9782210268	 1.6708106493	 0.09545
H	 2.0020165885	 0.9594589922	 3.4078232989	 0.092125
H	 0.3765060857	 1.4159381185	 2.9183215403	 0.108795
H	 0.9571724314	-1.1187855757	 2.8517191908	 0.07294
H	 3.1038783115	-0.5550074196	 1.2429902761	 0.098774
H	 2.0313589226	-1.8805081904	 0.7455615965	 0.100378
H	 1.9104196107	-0.2799916326	-1.1972800982	 0.064583
H	-0.6389742292	-0.6190708032	-0.6728804065	 0.068758
