16
gdb 49443	3.20009	1.69977	1.4705	4.0069	68.52	-0.228	0.0164	0.2444	907.8364	0.12612	-437.859259	-437.852614	-437.85167	-437.890409	26.183	
O	 0.1684618053	 0.0854586198	 0.4920688988	-0.329842
C	 0.1554607754	 1.2715986646	 0.2369282581	 0.144807
N	 1.2095951311	 1.9569928879	-0.2925654068	-0.044378
C	 1.5210643936	 3.3736867181	-0.1736763042	-0.081815
C	 2.5097436828	 3.5464486166	 0.9834620784	 0.099336
O	 2.558700958	 2.5343990649	 1.9547754421	-0.26694
C	 2.9707526498	 1.3236239271	 1.2941214391	-0.085093
C	 2.6479299799	 1.5853147323	-0.1751038601	-0.053008
C	 3.0042549516	 3.0896997161	-0.3495436279	-0.161193
H	-0.7417736495	 1.91361483	 0.3495863717	 0.076526
H	 0.8907537502	 4.1494727887	-0.5917773366	 0.11388
H	 2.7089848962	 4.5406169916	 1.3649021842	 0.117095
H	 4.0479707196	 1.1536437777	 1.4360115174	 0.101564
H	 2.4020392693	 0.4903878728	 1.7095853466	 0.152376
H	 3.0011183311	 0.8492379951	-0.8953004216	 0.1069
H	 3.7538568054	 3.5313570568	-0.9892173892	 0.109784
