13
gdb 25456	2.27363	1.72504	0.98085	2.7178	76.46	-0.2409	-0.0663	0.1745	1097.8579	0.089608	-415.630374	-415.622818	-415.621874	-415.662659	27.575	
O	-0.0818413191	-0.0052807454	-0.0001798279	-0.273255
C	-0.0401925904	 1.1941177968	 0.0083698349	 0.175015
N	 1.1598842282	 1.9190583677	 0.0005808564	-0.145943
C	 2.433503316	 1.3897491743	-0.0174268527	 0.035339
N	 3.3506082766	 2.3179692001	-0.0205766826	-0.255787
C	 2.6691938251	 3.5166684009	-0.0040840015	-0.181798
C	 1.3113844015	 3.3165149327	 0.0093925904	 0.177945
C	 0.2286550218	 4.2131046499	 0.0280575014	 0.269907
C	-0.6963102573	 4.9852543218	 0.0439970366	-0.445518
H	-0.9195885359	 1.8568676948	 0.0230190976	 0.13036
H	 2.587145877	 0.3223508048	-0.0271215235	 0.171311
H	 3.1866281077	 4.4632132466	-0.0026932991	 0.136327
H	-1.5061971312	 5.672476265	 0.0579253101	 0.206097
