18
gdb 60321	3.73028	0.76276	0.66689	2.0241	77.7	-0.2687	-0.0299	0.2388	1655.7664	0.144382	-439.051411	-439.041166	-439.040222	-439.087465	36.476	
C	 0.2548519446	 0.3448315295	-0.7966330463	-0.40134
C	-0.0078739574	-0.0948775448	 0.6406680878	 0.105554
O	 0.164682529	 0.9676708436	 1.5703907761	-0.427669
C	-1.4013175147	-0.6946530604	 0.8333621265	-0.075331
O	-1.4903859941	-1.8678158148	 0.0116209951	-0.235292
C	-2.6697087123	-2.5138074279	 0.0149496399	 0.263314
N	-3.6632293914	-2.1120555851	 0.7016983708	-0.535988
C	-2.6438519869	-3.6731322338	-0.835563404	 0.273051
C	-2.6709525909	-4.6511327729	-1.5339871677	-0.404847
H	 1.2616871377	 0.7605943772	-0.8880308467	 0.125464
H	 0.153878745	-0.4982531623	-1.4848085599	 0.137134
H	-0.4656016141	 1.1151570664	-1.1018080892	 0.104487
H	 0.731846792	-0.8496315906	 0.9309407168	 0.102515
H	-0.3734407414	 1.7098560653	 1.2729824135	 0.280271
H	-1.5644389039	-0.9607293578	 1.8816547374	 0.130405
H	-2.1852651417	 0.0161662773	 0.543107768	 0.110834
H	-4.4601580571	-2.730576122	 0.5704724371	 0.236801
H	-2.6926871621	-5.515126127	-2.1521744852	 0.210639
