16
gdb 46044	3.51085	1.23731	1.05579	4.0648	66.02	-0.2568	0.0533	0.3101	1131.1384	0.125141	-475.012819	-475.005082	-475.004138	-475.046205	28.01	
N	-0.1130131591	 1.213538977	 0.5979676946	-0.573415
C	-0.0332967544	 0.0832082451	 0.0574242291	 0.498101
O	 1.0823385388	-0.5163386754	-0.4449003592	-0.249532
C	 0.7094567375	-1.7175650493	-1.1224741897	-0.12683
C	-0.7125598443	-1.996353689	-0.5974752946	 0.067145
O	-1.1126108583	-0.7266488227	-0.0825608936	-0.237784
C	-1.6678914117	-2.4748405231	-1.6667409908	 0.041956
C	-2.947342499	-1.8092237963	-1.9343438247	-0.166361
O	-1.8174492247	-1.6235429021	-2.7964573965	-0.232772
H	 0.7934418323	 1.6743523673	 0.5800914266	 0.233519
H	 0.7059248242	-1.5410244003	-2.2026418729	 0.141178
H	 1.4267091974	-2.5015423784	-0.8731165477	 0.129146
H	-0.7029285656	-2.7212487572	 0.2273475987	 0.10113
H	-1.5668373779	-3.5360995317	-1.9016831444	 0.103139
H	-3.7678309997	-2.3832848573	-2.3609622902	 0.121334
H	-3.2210574255	-0.9410990867	-1.3422003948	 0.150047
