18
gdb 37954	2.97702	1.91485	1.47819	3.5955	74.56	-0.234	-0.0062	0.2278	918.4687	0.150496	-401.89139	-401.884741	-401.883797	-401.922037	27.784	
C	 0.0249536391	 1.5517421892	 0.0233526171	-0.1914
C	 1.4609240451	 2.1776582548	 0.1352034482	-0.170529
N	 2.3292562128	 1.2143081786	 0.8252994367	-0.248523
C	 2.5679544853	 0.247249435	 0.0644593973	 0.359425
O	 2.7044911982	-1.0840311338	 0.4430185477	-0.271936
C	 2.1126745602	-1.4575227164	-0.8343446338	 0.063438
C	 0.8183365614	-0.6704314257	-1.115179342	-0.054058
C	-0.057932858	-0.0067828994	-0.0417507944	-0.228285
C	 2.1883960033	-0.0756157641	-1.3708066978	-0.2499
H	-0.5594856193	 1.8578940391	 0.8968101946	 0.111788
H	-0.474687129	 1.9871498241	-0.8497014107	 0.097795
H	 1.8342090025	 2.4316552967	-0.8666051713	 0.099455
H	 1.4168671648	 3.1075251956	 0.706713055	 0.105948
H	 2.3766940022	-2.424660324	-1.2391687368	 0.121616
H	 0.3075610981	-1.014174794	-2.0123385804	 0.099151
H	 0.2070954548	-0.4128385195	 0.9371293834	 0.14262
H	-1.1034981101	-0.2809404326	-0.2138129342	 0.09662
H	 2.5646761285	 0.3432418865	-2.2927014586	 0.116774
