16
gdb 19123	2.80147	2.01286	1.40985	2.3975	71.14	-0.2405	0.0232	0.2637	909.3929	0.130432	-342.689208	-342.68146	-342.680516	-342.721288	29.191	
C	 0.034820752	-1.2015001755	 0.0711827197	-0.440831
C	 0.0000114576	 0.0017601872	 0.0654404226	 0.223011
C	-0.0532001572	 1.4417325651	 0.0330238159	 0.160027
C	 0.4846754757	 2.1712845266	 1.2275144742	-0.26836
N	 1.2259946162	 2.1947501789	-0.0350298449	-0.347772
C	-1.1730621758	 2.0589528781	-0.7630507849	-0.015418
C	-1.7241372216	 1.3948800627	-1.9676128605	-0.256244
N	-2.5243070386	 1.4858323352	-0.7311781157	-0.32993
H	 0.0731596778	-2.2629291233	 0.0866141012	 0.203327
H	 0.0251273145	 3.1155291585	 1.5070499719	 0.130423
H	 0.8609616201	 1.5765907898	 2.0544000971	 0.125996
H	 2.0053163465	 1.5424811629	 0.0015567307	 0.243146
H	-1.1457499623	 3.1453241557	-0.7326384476	 0.097825
H	-2.0872916977	 1.9973223257	-2.7950274383	 0.119653
H	-1.3119251709	 0.4291981243	-2.2455410019	 0.121726
H	-2.4973322463	 0.587021298	-0.2521940497	 0.233421
