13
gdb 129533	5.19016	1.02443	0.85876	5.3735	60.92	-0.2468	-0.0129	0.2338	1227.6223	0.089348	-489.90467	-489.896803	-489.895858	-489.938901	27.822	
N	-2.3736035244	 1.2171067348	 0.0522586124	-0.564759
C	-2.5262057584	-0.1308948844	 0.0914507501	 0.488915
O	-3.567902358	-0.7280065862	 0.1795337319	-0.369612
O	-1.2811624374	-0.7117451304	 0.0339275708	-0.288647
C	-1.1601457923	-2.071470977	 0.1133808258	 0.217126
C	 0.0269795665	-2.7065842561	 0.2987641704	-0.018756
O	-0.168277601	-4.0332935296	 0.2961419256	-0.161346
N	-1.5189315336	-4.2971666761	 0.1079650295	-0.126719
C	-2.1066889776	-3.1311765995	-0.0017328144	-0.055749
H	-3.2041082251	 1.7712966553	-0.0576503107	 0.279448
H	-1.4793389377	 1.6207945651	-0.163754723	 0.274513
H	 1.0371785005	-2.3578587835	 0.4355774033	 0.155238
H	-3.1706161714	-3.0683495824	-0.1496369916	 0.170346
