17
gdb 28704	5.39134	0.91909	0.78909	5.1947	82.35	-0.1823	0.0091	0.1914	1408.5703	0.136395	-418.072288	-418.063288	-418.062344	-418.106834	32.324	
C	-0.0068321779	 1.5242639489	 0.1629319187	-0.506294
C	-0.0038504343	 0.0485988663	-0.0540014643	 0.304854
C	-0.0484477464	-0.7071213032	-1.1998429781	-0.208958
C	-0.0206359141	-2.087699868	-0.8414547986	-0.219318
C	 0.040930849	-2.1320937363	 0.530900081	 0.40767
N	 0.0903955566	-3.201477242	 1.432244768	-0.41303
C	 0.0881001025	-4.5290058941	 1.101114019	 0.143505
O	 0.0434084769	-4.9749991821	-0.0231157165	-0.302789
N	 0.050820624	-0.8402611264	 1.0066670879	-0.385291
H	 0.8978530017	 1.8741576842	 0.6774037734	 0.123206
H	-0.054030746	 2.0362677164	-0.8007970666	 0.140609
H	-0.8681490388	 1.8590210996	 0.755905518	 0.12325
H	-0.0967694433	-0.3112144218	-2.2031651347	 0.091067
H	-0.0422264985	-2.9465365023	-1.4877276253	 0.129438
H	 0.1300843348	-2.9841864534	 2.4159459141	 0.246249
H	 0.1332959596	-5.1617902122	 2.0088700555	 0.076891
H	 0.0936742341	-0.5717596836	 1.9746714185	 0.248942
