20
gdb 5957	3.1486	1.29154	1.16756	3.4043	71.82	-0.2392	-0.0161	0.2231	1134.7641	0.172766	-386.146062	-386.135988	-386.135044	-386.181237	35.602	
C	-0.1315462023	 1.3461550479	 0.1077679039	-0.24547
O	 0.009491976	-0.0471982007	-0.0645150239	-0.27658
C	 0.6994636777	-0.5137827549	-1.2335013871	 0.336508
C	 0.0327960715	-0.0170970695	-2.5268089702	-0.423841
C	 2.1811516214	-0.1098605403	-1.1950282442	-0.419058
C	 0.5847157595	-2.0506186145	-1.1244666705	-0.285068
C	-0.8415559572	-2.5588717476	-1.1329360366	 0.150085
O	-1.2385559162	-3.4508261096	-1.8408077618	-0.250945
H	 0.8342273715	 1.8670585033	 0.1611630074	 0.108218
H	-0.7349126726	 1.8118287868	-0.6831483543	 0.11024
H	-0.6483761832	 1.4859442777	 1.0606125401	 0.13054
H	 0.1687596287	 1.0589685562	-2.6655406793	 0.117673
H	 0.4734482634	-0.5190622218	-3.3932167933	 0.126596
H	-1.0403899083	-0.2303116584	-2.5220675997	 0.129989
H	 2.6351073263	-0.4189083932	-0.2490009697	 0.122358
H	 2.72825419	-0.5865718102	-2.0138477637	 0.120732
H	 2.3074969021	 0.9712804092	-1.3030560578	 0.117056
H	 1.1356690202	-2.5429972072	-1.9297486181	 0.113804
H	 1.0294188595	-2.3468259593	-0.1647525234	 0.123799
H	-1.515298548	-2.0486964438	-0.4135783777	 0.093363
