12
gdb 5352	5.86576	1.60007	1.25714	5.6205	69.76	-0.2808	-0.0669	0.2139	878.977	0.087129	-340.456348	-340.450383	-340.449439	-340.486542	22.197	
N	 0.0359476743	-1.1472187329	-0.0040226268	-0.323314
C	-0.0090085219	 0.0084424124	 0.0032639718	 0.240603
C	-0.0167885016	 1.4493696187	 0.0107420449	 0.223301
N	-1.2168521375	 2.0462598769	 0.029900354	-0.30224
C	-1.2308347546	 3.3775328607	 0.0369890186	-0.000711
C	-0.0788156146	 4.1645746415	 0.0256357077	-0.109805
C	 1.1584844499	 3.5314174613	 0.0057963763	-0.078128
C	 1.1972867144	 2.1421013948	-0.0019153147	-0.152008
H	-2.2135831709	 3.8415483404	 0.0525523211	 0.125355
H	-0.1576350384	 5.245672297	 0.0322828303	 0.11936
H	 2.0783821389	 4.1056282563	-0.00354056	 0.125159
H	 2.1334444821	 1.5974369529	-0.0172495531	 0.132428
