22
gdb 12562	3.19786	1.6661	1.22116	1.2271	78.08	-0.2412	0.083	0.3243	1067.2697	0.202304	-350.217462	-350.209271	-350.208327	-350.249645	31.916	
C	 0.4628353854	 1.6696247563	-0.0260697122	-0.400135
C	 0.0030089743	 0.2057144354	-0.0055384004	 0.045024
C	 0.4627050002	-0.5314766073	-1.2806827807	-0.174174
C	-0.2092954198	-1.9005863905	-1.4812261098	-0.236619
C	 0.4493926869	-3.0600237506	-0.713906883	-0.060073
O	 1.0003422357	-2.7195594159	 0.5440873218	-0.241649
C	 0.1665974949	-1.9701682435	 1.4125357538	-0.093266
C	 0.4534065694	-0.4712275731	 1.3010553817	-0.174339
H	 1.557205861	 1.7361560725	-0.0455129897	 0.114131
H	 0.0824218194	 2.194228871	-0.9089009575	 0.107792
H	 0.1151658377	 2.2097974599	 0.8609575848	 0.108156
H	-1.0980726761	 0.2019639882	-0.0178364898	 0.065395
H	 0.2220497329	 0.1043267851	-2.1411386472	 0.087876
H	 1.5549535998	-0.6422459425	-1.2741325474	 0.099365
H	-1.2674665614	-1.8156751464	-1.2041329501	 0.096643
H	-0.2037670236	-2.1726437948	-2.5435817924	 0.095143
H	-0.2752502564	-3.8847778755	-0.6064125457	 0.083301
H	 1.2987834329	-3.4486408626	-1.2864378735	 0.10496
H	-0.8970752388	-2.1897709018	 1.2340489494	 0.085584
H	 0.3978470177	-2.3077741741	 2.4298597448	 0.10011
H	 1.537204277	-0.3419005405	 1.422670579	 0.101149
H	-0.019462699	 0.0418644907	 2.1493607942	 0.085624
