18
gdb 103025	2.32414	1.74777	1.17671	2.0668	78.43	-0.2304	0.0377	0.2681	1079.6621	0.145941	-401.821573	-401.812984	-401.81204	-401.854605	33.027	
C	 0.7617957373	-0.3384544197	 1.2881044141	-0.337058
N	 0.0309324989	-0.0367680759	 0.0557071173	-0.350124
C	-1.3206539556	-0.5664379219	 0.0221959353	 0.130293
C	-2.205403931	-0.0029777253	 1.0386985168	 0.33456
C	-2.8379140421	 0.5405911513	 1.9061888114	-0.469466
C	-1.9727677382	-0.7981540277	-1.387038547	-0.00386
C	-0.9449639546	-1.9098896939	-1.6923024778	-0.240771
C	-1.494913306	-2.1014556382	-0.2608254337	 0.025051
O	-2.8516075487	-1.8113266033	-0.7679317719	-0.299272
H	 1.7456516235	 0.1358418911	 1.2413274762	 0.121769
H	 0.2509999741	-0.0027562969	 2.2031260776	 0.118552
H	 0.9173947976	-1.4199104299	 1.3625786457	 0.125159
H	-0.0154264939	 0.9703651148	-0.065884469	 0.224005
H	-3.4272377648	 0.9978882989	 2.6621199705	 0.192874
H	-2.43613107	-0.0592683418	-2.0414010618	 0.098573
H	-1.2960327134	-2.6554034521	-2.405231545	 0.10872
H	 0.0984640686	-1.625959956	-1.8117764866	 0.121323
H	-1.3861273817	-2.9328849934	 0.4356733679	 0.099673
