16
gdb 123717	3.59314	1.57666	1.11061	3.3652	75.06	-0.2399	-0.0051	0.2348	1034.4515	0.127452	-400.766439	-400.759812	-400.758867	-400.797552	26.182	
C	-0.0188674844	 1.4755235546	-0.1271925305	-0.399522
C	 1.3562759573	 2.0610017288	 0.1026989818	-0.053772
C	 2.4569815481	 1.3513995849	 0.35266478	-0.039822
C	 2.5219211663	-0.1549823166	 0.4493808974	-0.411957
C	 1.1693219824	-0.7517623475	 0.2240480027	 0.125072
C	 0.0639400652	-0.00448567	-0.0289061108	 0.389471
O	-1.0132805345	-0.7861841064	-0.191393534	-0.229866
N	-0.6234226312	-2.1213685271	-0.0422773353	-0.145585
C	 0.664278696	-2.0809153763	 0.2014199177	-0.078216
H	-0.7356292926	 1.8750882844	 0.6047147941	 0.137375
H	-0.4084408967	 1.7795598197	-1.1094693381	 0.137372
H	 1.4208780002	 3.1444376634	 0.0544066019	 0.096026
H	 3.3972919212	 1.8753933032	 0.5029574719	 0.094143
H	 3.2520633735	-0.5383444042	-0.2786840046	 0.125478
H	 2.9248686269	-0.442594225	 1.4317649179	 0.125485
H	 1.1911580022	-3.0131137159	 0.3540598078	 0.128317
