25
gdb 96484	2.34645	1.33032	0.96726	0.2728	94.33	-0.2336	0.0251	0.2586	1345.986	0.231463	-352.374742	-352.365629	-352.364685	-352.407929	36.676	
C	-0.1095405436	 1.6382805299	 0.0098062393	-0.397028
C	-0.0850484394	 0.1018769897	 0.0176515668	 0.045051
C	 0.4851269052	-0.4138418934	-1.324365815	-0.177516
C	 0.3118330735	-1.91965033	-1.6369529587	-0.192062
C	 1.5448628954	-2.8122127781	-1.4122109987	-0.183524
C	 2.1794104767	-2.7234924102	-0.0043250882	-0.247165
C	 1.1664455153	-2.8676477244	 1.0959036386	-0.03618
C	 0.4908057593	-1.8490975472	 1.6298749289	-0.060572
C	 0.6723682582	-0.3919886711	 1.2783313943	-0.239705
H	 0.9067097282	 2.0464751117	-0.0530509873	 0.111353
H	-0.6737392521	 2.0236710661	-0.8457811192	 0.108103
H	-0.56846535	 2.0351560383	 0.9212825392	 0.107889
H	-1.1234673324	-0.2519474165	 0.0917122304	 0.070665
H	-0.0167056543	 0.1573082578	-2.1145729377	 0.089713
H	 1.5456879153	-0.1324793988	-1.3952675447	 0.086624
H	-0.529767995	-2.3119323791	-1.0559721087	 0.099192
H	 0.0250273808	-2.0298586539	-2.6893347906	 0.087461
H	 1.2559137022	-3.851614599	-1.6143294097	 0.091813
H	 2.3174974397	-2.5611191418	-2.1505678244	 0.09154
H	 2.9525688291	-3.4956181983	 0.0813360103	 0.092536
H	 2.6939169004	-1.7606573275	 0.0893710649	 0.100956
H	 0.9323683924	-3.8803894556	 1.4191541742	 0.078926
H	-0.2700754734	-2.0657252095	 2.3773932173	 0.080338
H	 1.7375483809	-0.158738965	 1.1478481548	 0.100754
H	 0.3361671976	 0.211914396	 2.129301324	 0.09084
