19
gdb 53022	3.96026	1.0085	0.89786	0.3298	91.59	-0.2346	0.0488	0.2834	1370.0946	0.15909	-348.660519	-348.652183	-348.651239	-348.69505	31.306	
C	-0.022186006	 1.4262749408	-0.0047767551	-0.516973
C	 0.0195794895	-0.0281014858	 0.0042776961	 0.365797
C	 0.0545457788	-1.2336826226	 0.0123742994	-0.37942
C	 0.1036571683	-2.6644042725	 0.0314522295	 0.296382
C	 0.8916698485	-3.6025904093	 0.9794713194	-0.312061
C	 0.1508419122	-4.5639653122	 0.0345117754	-0.087694
C	-1.1277790538	-3.6598220814	-0.0197360257	-0.072967
C	-1.1582415513	-3.6577389852	-1.5593824271	-0.264841
C	 0.3402045713	-3.6252658579	-1.2057622632	-0.072971
H	 0.6094043537	 1.8460905315	 0.7862522705	 0.148583
H	 0.3325745118	 1.8303337337	-0.9596940939	 0.14766
H	-1.0408442577	 1.7979312054	 0.1539452535	 0.147659
H	 1.9826798218	-3.5665275943	 0.8978447487	 0.094875
H	 0.5820774737	-3.5994967153	 2.0294281014	 0.094876
H	 0.1597656344	-5.6536281956	 0.013809907	 0.071646
H	-1.9540110789	-3.6660819533	 0.6931028977	 0.073574
H	-1.5273464858	-4.5677961394	-2.042749834	 0.09066
H	-1.5690879572	-2.766174075	-2.0419232855	 0.101637
H	 1.2103370367	-3.5915959816	-1.863465654	 0.073575
