19
gdb 96106	2.7716	1.32628	1.01222	2.0968	71.15	-0.2488	0.0622	0.311	1183.417	0.159792	-460.140836	-460.132653	-460.131709	-460.173405	31.89	
O	-0.0949881167	 1.4367149574	 0.0811907146	-0.427258
C	 0.0286316467	 0.0244398663	 0.0173967452	 0.095563
C	 0.744256868	-0.5313248868	 1.2584847615	-0.101465
O	 0.7905824491	-1.9468789675	 1.242715149	-0.241829
C	-0.507033392	-2.5210237242	 1.2727563114	-0.155334
C	-1.328015125	-2.0673004161	 0.0783286851	 0.426141
C	-1.4961726244	-2.9556411241	-1.0792202149	-0.238432
O	-2.5498245556	-2.7777473705	-0.1231258043	-0.28927
C	-1.383277925	-0.5596966723	-0.0631257378	-0.294328
H	 0.7851368871	 1.8205923372	 0.0129022137	 0.285793
H	 0.5972497467	-0.2829301842	-0.8745241131	 0.075631
H	 1.7839538726	-0.1888559158	 1.2956766666	 0.098053
H	 0.2269579323	-0.1595561302	 2.1590951522	 0.09595
H	-0.377903154	-3.6057585156	 1.2711708934	 0.114374
H	-1.0318338176	-2.2366831046	 2.2008835308	 0.096699
H	-1.687503193	-2.5297696703	-2.0632830226	 0.115141
H	-1.0287939138	-3.9394243126	-1.0818044781	 0.116318
H	-1.97257629	-0.1409593925	 0.7632869645	 0.116737
H	-1.8735054853	-0.2673678034	-0.9956051971	 0.111515
