21
gdb 75491	2.84687	1.365	1.06265	1.2838	85.	-0.233	0.0292	0.2622	1213.7369	0.182633	-387.091411	-387.082879	-387.081935	-387.124224	33.7	
C	-0.0132282024	 1.5210242968	 0.0562740038	-0.477047
C	-0.0084466496	 0.0207755128	-0.0248223657	 0.312363
C	-0.0542560752	-0.6502497924	-1.175879464	-0.159833
C	-0.00647305	-2.1510508376	-1.2485495999	-0.13311
O	 0.391045591	-2.7560224389	-0.0274490106	-0.289548
C	-0.2702634662	-2.2012949984	 1.0783651744	 0.441934
C	-1.6494926756	-2.7331437333	 1.3896675807	-0.322802
C	-0.4487218449	-3.1322570863	 2.2305596681	-0.331818
C	 0.0640061192	-0.737806711	 1.2831723791	-0.358783
H	 0.8783428504	 1.8906329555	 0.5797572517	 0.123428
H	-0.0379320949	 1.9801425098	-0.9357800592	 0.119694
H	-0.8790752551	 1.8854910615	 0.624302219	 0.121137
H	-0.128211232	-0.1230485753	-2.1244342778	 0.080008
H	-0.9872492889	-2.5462915425	-1.5701302216	 0.094538
H	 0.7265606419	-2.4772952824	-1.9958435906	 0.112582
H	-2.3875028411	-2.0638720351	 1.8189861755	 0.108726
H	-2.0513154064	-3.4845174943	 0.7189810709	 0.115871
H	-0.0667581922	-4.13897131	 2.1058654358	 0.12244
H	-0.3596531371	-2.7299660922	 3.2342105371	 0.109105
H	 1.0717056831	-0.6376841021	 1.7136628355	 0.111727
H	-0.6235092241	-0.2935255145	 2.0142373077	 0.099387
