17
gdb 36355	5.17202	0.84182	0.80125	2.8716	73.83	-0.2598	0.0154	0.2751	1401.4707	0.135342	-417.953326	-417.944851	-417.943907	-417.987339	30.422	
N	 0.0216445259	-1.0847752285	-0.6398061425	-0.295587
C	 0.0365240047	-0.031754461	-0.1663103779	 0.284043
C	 0.0332328921	 1.3115908669	 0.422318072	-0.296247
N	 1.3434956687	 1.9384342129	 0.2855528546	-0.119932
C	 1.5998530083	 2.6596932366	-0.9686948595	-0.312055
C	 1.3834496528	 3.3881241727	 0.3011270253	 0.28366
C	 0.2914489891	 4.3943807745	 0.6764627329	-0.145675
O	 1.2414601966	 5.1506330029	 1.4516226741	-0.27184
C	 2.3162973211	 4.2237577479	 1.1687148076	-0.137858
H	-0.7838706715	 1.8846638139	-0.0485658231	 0.137894
H	-0.2075609702	 1.2240717903	 1.4879745732	 0.162753
H	 2.5974913096	 2.5368237066	-1.3802729242	 0.134669
H	 0.8010209035	 2.69853774	-1.7089443377	 0.123209
H	-0.1305614689	 4.9806111041	-0.1490123382	 0.114602
H	-0.5295829936	 4.005131597	 1.2945396146	 0.10728
H	 2.6812135354	 3.7166116327	 2.0699243444	 0.11782
H	 3.1538732565	 4.7094285905	 0.6540291845	 0.113263
