17
gdb 84198	3.32739	1.07671	0.85234	3.4475	77.97	-0.2517	-0.0679	0.1837	1317.0516	0.134312	-421.8777	-421.868993	-421.868049	-421.911716	31.439	
C	-0.1461244036	 1.5895296149	 0.022392602	-0.394374
C	 0.0313702309	 0.0638529434	-0.0287661982	-0.151626
C	 0.8268454876	-0.4706698983	-1.1853485996	-0.154695
C	 1.8474898989	-1.2576451614	-0.8056510089	 0.214214
C	 1.9324224691	-1.4031150064	 0.6906935236	-0.433257
C	 0.8121854415	-0.4807506762	 1.1921950192	 0.391754
O	 0.5804418973	-0.1983322476	 2.3369824725	-0.304377
C	 2.774889706	-1.9048625739	-1.7381151839	 0.08095
O	 3.6901206273	-2.6206641925	-1.397728164	-0.266653
H	 0.8194805069	 2.0996552865	-0.0457422766	 0.126458
H	-0.7775204397	 1.9405429703	-0.7986724757	 0.121731
H	-0.6137424345	 1.8682483739	 0.9698519566	 0.148836
H	-0.9686975452	-0.3965868149	-0.0099099665	 0.123885
H	 0.5919923297	-0.2364982272	-2.2194583393	 0.117467
H	 1.7596233569	-2.4318138577	 1.0300945463	 0.153415
H	 2.9017917888	-1.1084354924	 1.1069135424	 0.154841
H	 2.5764608921	-1.6882594103	-2.8117326299	 0.071431
