19
gdb 14198	3.60242	2.2269	2.05738	1.6565	74.1	-0.2224	0.0905	0.3129	782.1837	0.168112	-327.881191	-327.874824	-327.873879	-327.91113	26.817	
C	-0.0550413499	 1.5083579133	 0.0776121359	-0.510284
C	 0.0193380655	 0.0009328692	 0.0317522804	 0.31597
C	 0.9057658177	-0.7902554947	-0.9553169497	-0.199028
N	 0.865809006	-1.9300452517	 0.0201168702	-0.15336
C	-0.6281467334	-2.1411385049	 0.3795373541	 0.003
C	-0.2691160247	-1.8011701646	 1.8421379311	-0.237964
C	 0.7361264919	-0.8938655587	 1.1375168169	-0.02999
C	-1.2802011599	-0.8260530306	-0.1019179791	-0.257443
H	 0.9411174239	 1.9547372258	 0.1715901737	 0.114554
H	-0.5138946159	 1.9101053071	-0.8334397675	 0.117825
H	-0.6558222996	 1.8518159193	 0.9274618068	 0.116132
H	 0.525176483	-0.9930371007	-1.9628739898	 0.091384
H	 1.9368046029	-0.4267226338	-1.0170200451	 0.099672
H	-1.0693216345	-3.0929526147	 0.0867264225	 0.070805
H	-1.044909222	-1.3710852871	 2.4798469225	 0.092233
H	 0.2424665934	-2.6213837319	 2.3502301096	 0.11198
H	 1.6520709592	-0.5115671914	 1.5923232724	 0.069483
H	-2.0921000933	-0.4992354027	 0.5545902605	 0.092237
H	-1.6540557805	-0.8509221571	-1.1296603254	 0.092794
