19
gdb 107272	3.13834	1.42326	1.26357	1.1387	74.13	-0.2415	0.0704	0.3118	1056.9203	0.160603	-422.963815	-422.956228	-422.955283	-422.995915	30.383	
O	-0.0092453418	 1.3419855241	 0.3004405072	-0.425667
C	-0.0594395362	-0.023923609	-0.1025096351	-0.183495
C	-1.4777133731	-0.4939014396	 0.0095522379	 0.391132
C	-2.0297012471	-1.0879152357	 1.2800473925	-0.354539
C	-1.8778713534	-1.9591977765	 0.0554717726	-0.110619
C	-2.9543757813	-1.9249563481	-1.0494655601	 0.065994
C	-3.8267876159	-0.6855087616	-0.755481831	-0.247261
C	-2.4659751457	-0.0410506054	-1.0907948815	 0.005132
O	-2.2846278555	-1.1161808686	-2.0866534644	-0.307015
H	 0.8620038522	 1.6852101592	 0.080424796	 0.286076
H	 0.2735972013	-0.1418294962	-1.1452433051	 0.100544
H	 0.5929601625	-0.6497087428	 0.5277416576	 0.079842
H	-1.2984363351	-1.2586389398	 2.0655612631	 0.113044
H	-3.0049822867	-0.8117785404	 1.6609443239	 0.115575
H	-1.1438601663	-2.756601247	 0.0414709697	 0.094029
H	-3.3530054196	-2.869891199	-1.4171267441	 0.079405
H	-4.5371648407	-0.518711986	-1.5642303965	 0.114394
H	-4.3027497538	-0.5405342518	 0.2144264708	 0.098162
H	-2.348574944	 0.9637730743	-1.4935324535	 0.085267
