21
gdb 66154	3.05703	1.05583	1.00046	1.3962	78.79	-0.2371	0.0889	0.3261	1319.0327	0.180079	-424.179425	-424.169803	-424.168859	-424.214923	35.48	
C	-0.2915147002	 1.5475229424	-0.126561579	-0.458456
C	-0.3522189415	 0.0521528574	 0.0870370086	 0.405034
C	-1.722737094	-0.5860798803	-0.0553772966	-0.137409
O	-2.7229218814	 0.0363453827	 0.7364115746	-0.251394
C	-2.8513156291	-0.481252369	 2.0298084655	 0.148513
C	-2.014020794	 0.0508525111	 3.1604334884	-0.273168
C	-3.4802068477	 0.4195186608	 3.043151397	-0.295757
C	 0.8339091622	-0.7810848042	-0.1605408164	-0.22996
O	 0.4459317858	-0.4483660339	 1.1733041646	-0.267769
H	 0.7154955306	 1.9213733976	 0.0718451227	 0.124217
H	-0.5654926032	 1.8023472553	-1.1562649236	 0.120294
H	-0.9961739571	 2.0540675064	 0.5379547078	 0.137941
H	-2.0556632374	-0.4811643411	-1.0955317443	 0.105286
H	-1.6503921175	-1.6573242056	 0.1770037822	 0.095059
H	-3.1124028607	-1.540031307	 2.0483147598	 0.082976
H	-1.7056945114	-0.6399473246	 3.9374185508	 0.112591
H	-1.282708295	 0.8128449311	 2.9226496499	 0.127169
H	-3.711680324	 1.4252537314	 2.7110873718	 0.121818
H	-4.192085525	-0.0024982908	 3.7435405908	 0.112136
H	 0.7203079189	-1.8304165777	-0.4327244032	 0.109261
H	 1.7507918817	-0.3114142219	-0.5151525314	 0.111617
