17
gdb 87023	2.12501	1.51914	1.0557	2.187	75.99	-0.2493	-0.0281	0.2212	1184.6132	0.130814	-421.793092	-421.783151	-421.782207	-421.828111	35.485	
C	 0.1991659995	 1.2494387196	-0.2486284444	-0.430357
C	 0.4089917911	-0.1854549145	 0.1502533676	 0.045997
O	 1.7345906645	-0.6165832836	 0.4216804756	-0.27699
C	 0.8149161137	-0.5891691718	 1.5322238683	 0.061105
C	 1.0441729752	 0.4089829525	 2.5436264058	 0.292491
C	 1.2465242947	 1.2251118465	 3.4014592543	-0.391048
C	 0.3505122941	-1.9514072229	 2.0396934804	 0.303571
C	 0.7629091519	-3.1563456014	 1.2219099214	-0.484694
O	-0.3015848723	-2.0279492575	 3.0515149795	-0.282112
H	 0.7711026331	 1.9215131165	 0.392909469	 0.148054
H	 0.5137343956	 1.3958332217	-1.2870232545	 0.13514
H	-0.8621081237	 1.5077733409	-0.176405805	 0.1341
H	-0.1848215565	-0.9144392274	-0.4050821389	 0.096306
H	 1.4234943285	 1.9427261726	 4.1643933901	 0.201977
H	 0.488269965	-3.0509514242	 0.16852558	 0.14432
H	 1.8531830992	-3.2563982403	 1.2463200635	 0.159981
H	 0.2958290363	-4.0463217368	 1.6443335172	 0.14216
