21
gdb 73125	2.35212	1.79407	1.56035	1.7916	80.52	-0.2431	0.0818	0.3248	1002.4183	0.184466	-387.077035	-387.069378	-387.068434	-387.108599	31.493	
C	 0.261857401	 1.5046049587	-0.0279971579	-0.491642
C	-0.0678305113	 0.0203708257	-0.0000338596	 0.291614
C	-1.4289304052	-0.4111714923	 0.5942068146	-0.126479
O	-0.7939611295	-1.4285153267	 1.4013598065	-0.301178
C	 0.5190313887	-0.8717622323	 1.1326599433	 0.087781
C	 1.5345196841	-1.8535863642	 0.5400516863	-0.250653
C	 1.3225228547	-1.8107891308	-0.969883781	-0.033789
C	-0.0513185697	-2.1485536204	-1.4816003631	-0.307309
C	 0.335794899	-0.698828642	-1.2887705923	-0.087309
H	 1.3168851287	 1.6681221114	-0.2743241192	 0.120075
H	-0.3366366063	 2.0274843829	-0.7828335151	 0.118975
H	 0.0640206334	 1.975482965	 0.9403318244	 0.114892
H	-1.9059937382	 0.3561143235	 1.219735596	 0.091079
H	-2.1702885094	-0.83131701	-0.0939205307	 0.102445
H	 0.8986244031	-0.3472839115	 2.0192812279	 0.067065
H	 2.5491508104	-1.5203044134	 0.7876647403	 0.097946
H	 1.403919666	-2.8519715039	 0.9719890563	 0.113683
H	 2.1755748424	-1.9997002788	-1.6125795042	 0.07921
H	-0.1340415121	-2.4992050335	-2.5050336125	 0.10492
H	-0.7538086363	-2.6025445699	-0.7914860949	 0.132585
H	 0.4572854664	-0.0899883274	-2.1787860249	 0.076088
