20
gdb 60307	3.62202	0.72924	0.63036	3.5629	84.34	-0.2486	-0.0379	0.2107	1771.2827	0.169644	-399.353395	-399.342702	-399.341758	-399.390577	37.528	
C	 0.1047381261	 1.5505987067	-0.0389024369	-0.391713
C	-0.0305465813	 0.0215165918	 0.0198703158	 0.001289
C	 0.7335215108	-0.5418144854	 1.2251086234	-0.389132
C	-1.4944369631	-0.4343685911	 0.0827305867	-0.111785
N	-2.2241939148	-0.0914535927	-1.1281543554	-0.331734
C	-3.4596067367	-0.6039760216	-1.3826065509	 0.304059
N	-4.0213156906	-1.4750459363	-0.6282785148	-0.526651
C	-4.0713807819	-0.0875218525	-2.6002184472	 0.221884
N	-4.5925787079	 0.3054663662	-3.5547876526	-0.323033
H	 1.1583994808	 1.8438576435	-0.0745035716	 0.124062
H	-0.3756477672	 1.990615596	-0.920178562	 0.107791
H	-0.3422841654	 2.0149619782	 0.8477037509	 0.123254
H	 0.407361257	-0.4021196723	-0.8942843365	 0.086543
H	 0.3192185696	-0.1608435224	 2.165791114	 0.120223
H	 0.6829554039	-1.6346484801	 1.2551117308	 0.120415
H	 1.7883217526	-0.2535961756	 1.1870300578	 0.117628
H	-1.5531894629	-1.5202297105	 0.203479473	 0.135856
H	-1.988314423	 0.0012830136	 0.9649623346	 0.11255
H	-1.9317121843	 0.7111110587	-1.6592810927	 0.25986
H	-4.9171977513	-1.7660367642	-1.0103959462	 0.238634
