19
gdb 91836	3.63244	1.17952	1.08475	1.8775	82.07	-0.2514	0.0268	0.2782	1187.7844	0.158538	-385.858861	-385.850404	-385.84946	-385.89152	33.19	
C	 0.7759196922	 1.4463484658	 0.1088890534	-0.394249
C	-0.0832907677	 0.1946303254	-0.1100739261	 0.009546
C	 0.4287967597	-0.6810226992	-1.2921242817	-0.2576
C	 1.2403042007	-1.7827185428	-0.648082056	-0.012667
O	 2.1871483265	-1.3216989446	 0.320317265	-0.291711
C	 0.9253616175	-1.8468776438	 0.795167446	 0.262071
C	-0.081596287	-0.7535254191	 1.1246390542	-0.314262
C	 0.9787787591	-3.0476103551	 1.5793351894	 0.189065
C	 0.9890590289	-4.037383739	 2.2615698689	-0.355327
H	 1.8121136437	 1.172450622	 0.3213453667	 0.14137
H	 0.7641880302	 2.0875543606	-0.7792619757	 0.107284
H	 0.3967086717	 2.037347478	 0.9496415335	 0.108326
H	-1.1084172663	 0.5180805989	-0.3145898351	 0.073014
H	-0.4014768252	-1.1361408321	-1.8453301619	 0.104876
H	 1.0177936325	-0.0999785783	-2.0095360152	 0.11121
H	 1.54407799	-2.6632914751	-1.2089877395	 0.101915
H	 0.1779796619	-0.2315180403	 2.0506948182	 0.11543
H	-1.0608557505	-1.220759961	 1.2758235338	 0.111039
H	 1.009659472	-4.9168091301	 2.8567755722	 0.190668
