17
gdb 17341	3.46015	2.14836	1.80183	1.3027	66.73	-0.2316	0.0721	0.3038	792.7597	0.143977	-363.823487	-363.816901	-363.815956	-363.853667	27.275	
O	-0.1048891036	 1.4230833003	 0.0986241233	-0.472233
C	-0.0375951019	 0.0292361546	 0.058610022	 0.406888
C	-0.3136726857	-0.7330437615	-1.2097220142	-0.352085
C	-1.2971040647	-0.7934932728	-0.0512676377	-0.084379
C	-1.2343819113	-1.9464397732	 0.9567549811	-0.233838
C	 0.1260733309	-1.8296377047	 1.6437438005	-0.022742
N	 1.2851764735	-2.0128027353	 0.7435839834	-0.339754
C	 0.8423745241	-0.6471518615	 1.1004742113	-0.123236
H	 0.6159889002	 1.7693675707	-0.438427817	 0.282051
H	-0.6357284585	-0.1413020827	-2.0607800341	 0.102289
H	 0.3007533572	-1.5960761761	-1.4353386712	 0.136472
H	-2.2468038309	-0.2919004962	-0.199381745	 0.091499
H	-2.0256614644	-1.8221570364	 1.7043241588	 0.10245
H	-1.3717301455	-2.9290328665	 0.4928127397	 0.109521
H	 0.2247681297	-2.1414666068	 2.6791338474	 0.085113
H	 2.1029287999	-2.2593430458	 1.2963349039	 0.228564
H	 1.4802349812	-0.011686906	 1.7054182076	 0.08342
