12
gdb 21295	7.26346	1.36487	1.1574	5.3829	52.55	-0.2497	0.0211	0.2708	950.4039	0.08407	-451.810975	-451.803944	-451.802999	-451.842504	24.689	
C	-0.0418624161	 1.3846014853	 0.0611041798	-0.249353
O	 0.0104827198	-0.0522735762	-0.0119605757	-0.260722
C	 0.6193381031	-0.5381581279	-1.0789575625	 0.556872
N	 1.1596939625	 0.1381319824	-2.0398330465	-0.24442
O	 1.6683716702	-0.8661814926	-2.9237958611	-0.238312
C	 1.4011153756	-2.1156911863	-2.4370633616	 0.520087
O	 1.7032345247	-3.1494398138	-2.9566001444	-0.385914
N	 0.7222535108	-1.8893973859	-1.2436123916	-0.457838
H	 0.969367097	 1.7984340978	 0.0806612723	 0.158452
H	-0.5805848538	 1.78677483	-0.8004329996	 0.158487
H	-0.569710459	 1.6085398993	 0.9867604713	 0.148553
H	 0.3798237452	-2.6088773022	-0.6308935705	 0.294109
