17
gdb 98917	7.40474	0.52824	0.49816	4.7263	81.38	-0.2619	-0.0608	0.2012	2128.3461	0.131359	-421.82614	-421.81548	-421.814536	-421.86513	34.699	
C	-0.1223365619	 1.5183610772	 0.208314391	-0.381435
C	-0.0430116709	 0.0186260674	-0.0651433282	-0.28015
C	 0.7810062052	-0.3289763	-1.2956212006	 0.386517
O	 1.2305522158	 0.5004734715	-2.0432525618	-0.27021
C	 1.0082660033	-1.8412564808	-1.515543798	-0.495415
C	 1.647385149	-2.1790265675	-2.7718641229	 0.112052
C	 2.1756323663	-2.469606492	-3.8170739611	 0.064236
C	 2.812580632	-2.767808911	-5.0741332893	 0.019307
O	 2.9930200364	-3.8842575715	-5.5037256128	-0.22976
H	 0.871763065	 1.9361836631	 0.3870425924	 0.133749
H	-0.5485270137	 2.0469289267	-0.6475003555	 0.139005
H	-0.743629925	 1.7166718708	 1.085666696	 0.11587
H	 0.3731298278	-0.5256988002	 0.7936992491	 0.122968
H	-1.0453395159	-0.4089421352	-0.2122050379	 0.129959
H	 1.6154787445	-2.2097597691	-0.6760583517	 0.167442
H	 0.0474403305	-2.3648856651	-1.4209480685	 0.160626
H	 3.1363824914	-1.8702161142	-5.6386159801	 0.105242
