20
gdb 76833	2.2292	1.74284	1.34238	3.6712	78.34	-0.2332	0.0021	0.2353	1057.195	0.171035	-403.147331	-403.138779	-403.137835	-403.180347	32.955	
C	-0.0131950274	 1.6407436334	 0.0882689356	-0.413527
C	 0.0364568265	 0.1189634246	 0.022292141	-0.028631
C	 1.1099681526	-0.5435638919	-0.924509104	 0.026162
C	 1.9272391297	 0.2890642413	-1.8941875947	-0.402839
N	 1.8273601617	-1.0861611659	 0.2877995881	-0.148213
C	 0.7229009376	-0.6390390197	 1.2055790432	 0.011579
C	 1.7602633046	 0.0594848467	 2.1133589277	-0.389514
C	 2.7599182408	-0.2670965902	 0.9769979581	 0.390734
O	 3.8720432816	 0.072862181	 0.6898750593	-0.332153
H	 0.9707668039	 2.0883783865	 0.2551641179	 0.12939
H	-0.4078555862	 2.0573950373	-0.8439852078	 0.123044
H	-0.6691969386	 1.9676527644	 0.9022483909	 0.121523
H	-0.9703745736	-0.261951845	-0.1715074234	 0.078346
H	 0.672728132	-1.3920566785	-1.4607784834	 0.0912
H	 2.3900942474	 1.155741918	-1.418092021	 0.135766
H	 2.7291033827	-0.3157748089	-2.3274436963	 0.139594
H	 1.287464188	 0.6404010076	-2.7104216108	 0.116967
H	 0.1264379686	-1.4301105962	 1.6645681761	 0.082863
H	 1.6403628583	 1.1272473014	 2.3049554831	 0.134162
H	 1.9518540199	-0.450416086	 3.0609785406	 0.133544
