18
gdb 82810	3.00598	1.70389	1.67316	1.7613	70.1	-0.2138	0.0708	0.2846	900.7179	0.150156	-439.001789	-438.995057	-438.994112	-439.032525	28.346	
O	 0.1442340088	 1.3727022798	 0.02722065	-0.423225
C	 0.019593644	-0.0131707766	-0.0224705781	 0.089242
C	-0.4145139124	-0.7624775741	 1.2108963747	-0.00559
O	-0.9463438723	 0.0520444248	 2.2385227818	-0.289856
C	-2.3595158348	 0.303885146	 2.128421212	 0.108332
C	-2.6753592033	 1.0306499292	 0.8041069932	-0.208623
N	-2.654988482	-0.3213884444	 0.1232935116	-0.141668
C	-3.0932184445	-0.8814336437	 1.4702340816	-0.191892
C	-1.2861609536	-0.8084424628	-0.0360797414	-0.082667
H	 0.1206050938	 1.6102035991	 0.9647703189	 0.294354
H	 0.8016056588	-0.4733212682	-0.622684027	 0.104668
H	 0.1428669428	-1.609167692	 1.6004854282	 0.09638
H	-2.6655446439	 0.705398148	 3.0968170493	 0.079228
H	-3.6988434866	 1.416011152	 0.7754630457	 0.106857
H	-1.9818221868	 1.7692199927	 0.4142933806	 0.140115
H	-2.7596080206	-1.898458125	 1.6865029009	 0.112739
H	-4.1791882329	-0.8091012676	 1.5689635993	 0.112432
H	-1.2430014443	-1.7096186773	-0.6427169013	 0.099172
