17
gdb 48110	3.08688	1.37668	1.04147	3.5362	75.96	-0.2302	-0.0594	0.1708	1131.3472	0.136105	-417.973791	-417.965734	-417.964789	-418.006895	29.943	
N	 0.1585076163	 1.4509957484	-0.5327338486	-0.513765
C	 0.1324271623	 0.2349195869	-0.1180952226	 0.242415
C	-1.236706516	-0.3880023865	-0.0693904612	 0.155232
O	-1.4703011293	-1.5172039465	 0.2834435663	-0.266536
N	 1.1731556999	-0.5210695709	 0.3462909606	-0.087961
C	 1.39042787	-1.9926556085	 0.2947267319	-0.180544
C	 2.883066399	-1.722444745	 0.0606643832	-0.086503
C	 3.0779539307	-0.837085501	-1.1454303002	-0.283789
C	 2.5840996035	-0.2333844533	 0.1428259726	-0.039683
H	 1.1135271799	 1.815843591	-0.5639524074	 0.217855
H	-2.0197595133	 0.3180580941	-0.4076277004	 0.113781
H	 1.1641179655	-2.4691666195	 1.2513943457	 0.130234
H	 0.8527840085	-2.5129816614	-0.5015900795	 0.128966
H	 3.6929307296	-2.2676720878	 0.5238145343	 0.108787
H	 4.1122962299	-0.6200756897	-1.3927863675	 0.124513
H	 2.409837036	-0.9083653097	-1.9994667215	 0.122558
H	 3.0833769674	 0.5594818693	 0.6872252342	 0.11444
