21
gdb 84685	2.12209	1.87936	1.4463	1.47	82.92	-0.2389	0.0193	0.2582	1044.6675	0.182798	-387.095253	-387.086758	-387.085813	-387.127877	33.402	
C	-0.6621045099	 1.3231508351	 0.0348502344	-0.39122
C	-0.0405024662	-0.0734708474	-0.1011205364	-0.078806
C	 0.8116706127	-0.2558496533	-1.3391807096	-0.065911
C	 2.0242712646	-0.7471704656	-1.0833665675	-0.100288
C	 2.2515925212	-0.9645556798	 0.3851447833	-0.161784
C	 2.9326604936	 0.2040540603	 1.1319914893	-0.082543
O	 1.6584205241	 0.7322047136	 1.5496529969	-0.323012
C	 0.9426159022	-0.4355534643	 1.0472248597	 0.42514
C	 0.3215853909	-1.2213503453	 2.185826197	-0.457662
H	 0.1166176204	 2.0860361466	 0.0931544021	 0.134697
H	-1.3077056068	 1.5411014242	-0.821944058	 0.105539
H	-1.273749973	 1.3953524777	 0.9401806019	 0.113534
H	-0.8616730279	-0.8065432244	-0.1128977693	 0.071364
H	 0.4400272328	-0.0069509105	-2.3285217797	 0.091645
H	 2.784484327	-0.9546135647	-1.8291926839	 0.09316
H	 2.5994494566	-1.9673520008	 0.6474225571	 0.075324
H	 3.5484921914	-0.0954934261	 1.9909240897	 0.092977
H	 3.4947499577	 0.9157294349	 0.5164374569	 0.099525
H	-0.477568993	-0.6402887514	 2.6591858717	 0.125167
H	-0.1094777604	-2.1594461005	 1.8200858859	 0.116026
H	 1.066552782	-1.4563036382	 2.9518123484	 0.117126
