15
gdb 43087	2.71854	2.07754	1.76343	2.8201	62.93	-0.2323	-0.0361	0.1962	817.3653	0.115103	-457.759772	-457.753833	-457.752889	-457.790015	24.407	
O	-0.057191101	 0.0195409135	-0.0403907198	-0.317459
C	-0.0565254559	 1.2174206636	-0.0105662328	 0.46668
C	-1.2559901486	 2.192975065	-0.004229045	-0.067726
O	-1.3812549289	 2.6266357425	 1.3778606685	-0.298818
C	-0.356038614	 3.6308118937	 1.1535642709	 0.056525
C	 1.0353592143	 3.0116844084	 1.353596802	-0.237439
C	 1.1396211893	 2.1929865412	 0.0405560683	-0.074417
O	 0.7255527692	 3.1527023602	-0.9506734025	-0.260767
C	-0.5298438334	 3.5032201974	-0.3958244747	 0.069631
H	-2.1855233108	 1.8397816132	-0.4485273439	 0.103198
H	-0.5583720667	 4.5562924781	 1.6927917977	 0.095473
H	 1.8209742648	 3.7735454803	 1.3706728792	 0.119098
H	 1.0826870854	 2.410723318	 2.2638516058	 0.132149
H	 2.1050313684	 1.7632316796	-0.2157846378	 0.106783
H	-1.027213382	 4.2717679852	-0.9800220359	 0.107088
