27
gdb 118222	2.13325	0.86252	0.70791	1.0087	93.71	-0.2423	0.0809	0.3232	1815.6264	0.248389	-390.708728	-390.696495	-390.69555	-390.747185	44.038	
C	-0.0544099053	 1.6116281038	-0.1059217348	-0.380713
C	-0.0121182755	 0.0827095288	-0.0433259636	-0.168279
C	-1.4049221513	-0.5522073255	 0.0047226168	-0.16668
C	-1.3910385875	-2.081980883	 0.040224921	 0.131515
C	-2.7998118227	-2.6618033667	 0.200249133	-0.397926
O	-0.7991538359	-2.526317928	-1.1786513393	-0.274687
C	-0.1775903534	-3.8087725623	-1.1504481328	 0.152689
C	-0.2248144392	-4.3509827445	-2.5754557454	-0.386569
C	 1.2548926748	-3.7140440679	-0.6166043883	-0.384811
H	 0.9532162597	 2.037970214	-0.1405591421	 0.108861
H	-0.5914981648	 1.9563445647	-0.9967630546	 0.113559
H	-0.5636524158	 2.0335813107	 0.7682297274	 0.109308
H	 0.522317313	-0.3134025621	-0.9127199484	 0.111257
H	 0.5597812287	-0.23119109	 0.8406775833	 0.085677
H	-1.9500865683	-0.1888680342	 0.8855947277	 0.086872
H	-1.9844933674	-0.2376935183	-0.8736056148	 0.098382
H	-0.7706942558	-2.4069305403	 0.8916535517	 0.061305
H	-2.7852168673	-3.7558433484	 0.1933687675	 0.112918
H	-3.2480374624	-2.3402927136	 1.1461709503	 0.109785
H	-3.4409319946	-2.3251061036	-0.6206245346	 0.120302
H	-0.7544835491	-4.4827998904	-0.4979668463	 0.064563
H	 0.3107564472	-3.6776337648	-3.2525432642	 0.121592
H	 0.2406943124	-5.3397151176	-2.6322273123	 0.108942
H	-1.25884577	-4.429073022	-2.9214664993	 0.11754
H	 1.8596340837	-3.0751649565	-1.2682572197	 0.120361
H	 1.2789794457	-3.2912136674	 0.3921706969	 0.114759
H	 1.7193215113	-4.704949825	-0.5748817248	 0.109477
