20
gdb 89420	2.62414	1.55337	1.29163	2.5218	80.39	-0.222	-0.0063	0.2158	1073.7373	0.17255	-403.141676	-403.133396	-403.132452	-403.173843	33.206	
C	-0.033793883	 1.5129881827	 0.0290207838	-0.453261
C	 0.0078988951	-0.0001221138	 0.0356921569	 0.318837
C	-1.2273082518	-0.679465225	-0.5361789106	-0.271511
C	-1.2219150267	-2.211459406	-0.4550103508	 0.036144
O	-0.3786358389	-2.6771054997	-1.5326189956	-0.424287
C	-0.7370780347	-2.7096474152	 0.8823397809	-0.142502
C	 0.1562456937	-2.0181854519	 1.5970679057	-0.023625
C	 0.7088707139	-0.720659498	 1.1492134996	-0.100377
N	 1.3291779895	-0.5832139716	-0.2008542305	-0.374066
H	 0.8871663744	 1.9213734414	 0.4521043608	 0.126452
H	-0.128209166	 1.8922986988	-0.9951227194	 0.118494
H	-0.8841958293	 1.8897762505	 0.60829288	 0.110563
H	-2.1096295191	-0.3087426341	-0.0001677483	 0.104241
H	-1.3529163663	-0.3998801468	-1.5888748017	 0.115446
H	-2.2444333591	-2.5732968409	-0.6347246597	 0.075079
H	-0.2008734693	-3.611652328	-1.380969603	 0.281599
H	-1.116948371	-3.6623164263	 1.2412523448	 0.090085
H	 0.5002364668	-2.396728956	 2.5562993301	 0.095907
H	 1.2205370028	-0.1365125552	 1.909509314	 0.080734
H	 1.222223479	-1.4606256348	-0.7082965769	 0.236049
