15
gdb 124120	3.62373	0.98079	0.77653	5.4416	81.84	-0.2064	0.0092	0.2155	1418.5036	0.113223	-412.966888	-412.957992	-412.957048	-413.00172	31.297	
C	-0.0416720728	 1.4636172818	-0.0020516192	-0.509283
C	 0.0005818954	 0.0103223983	-0.0367819742	 0.203406
C	 0.0114593413	-1.1964711275	-0.0723371918	-0.101048
C	 0.0637990564	-2.6053974321	-0.106197063	 0.183417
C	 1.2006753041	-3.399678532	-0.0176421063	 0.227956
N	 2.5412904279	-3.0687632489	 0.0466004456	-0.620762
N	 0.7244043079	-4.6600598996	-0.0955761175	-0.229077
N	-0.6381240814	-4.6696089449	-0.221497255	-0.137745
N	-1.0246233717	-3.4390545213	-0.2332583984	-0.27195
H	 0.6085402234	 1.9040841656	-0.7665355187	 0.147969
H	-1.0594586105	 1.8239229346	-0.1875891938	 0.158846
H	 0.2746215028	 1.8552755023	 0.9716152698	 0.146806
H	 2.6670119243	-2.0758855365	 0.2000166983	 0.266721
H	 3.082131961	-3.6033868	 0.7143569781	 0.25732
H	 1.230679742	-5.5304490899	-0.107887694	 0.277422
