19
gdb 67277	3.15049	1.917	1.78164	0.2619	77.77	-0.1948	0.0672	0.2619	878.5551	0.161728	-381.964639	-381.958088	-381.957144	-381.995041	27.913	
C	-0.0199621872	 1.5319684499	 0.0814447304	-0.525363
C	-0.0278564521	 0.0403310721	-0.0528296073	 0.392062
C	 0.7002738948	-0.8487298416	-1.1093113984	-0.065485
C	 1.6751188035	-1.2092003964	 0.0156595557	-0.18878
N	 0.6423340048	-0.8201498998	 1.0367799225	-0.202816
C	-0.5342315318	-1.8029134145	 0.9799834581	-0.012992
C	-0.3859556332	-2.8567143423	-0.1248045344	-0.182691
N	-0.5185748034	-1.779010108	-1.166549107	-0.165236
C	-1.213929881	-0.923654841	-0.103480333	-0.073765
H	 1.003816074	 1.9168842694	 0.1390990734	 0.126056
H	-0.5136643438	 2.0024242246	-0.7758807369	 0.124109
H	-0.5442972312	 1.8386301504	 0.9927076906	 0.1291
H	 1.0477957617	-0.5445426125	-2.1000440802	 0.071866
H	 2.0867324998	-2.2185244898	 0.0968176907	 0.104663
H	 2.5038963156	-0.4951507367	 0.0681794855	 0.108397
H	-0.9239570364	-2.0561005014	 1.9686922226	 0.073735
H	 0.5029626068	-3.4905434272	-0.1835964991	 0.10612
H	-1.2729145644	-3.4975149235	-0.1777429805	 0.109416
H	-2.2769934265	-0.705888262	-0.2164808828	 0.071603
