19
gdb 80801	1.92489	1.69762	1.20226	2.0259	83.28	-0.239	0.0158	0.2548	1144.4111	0.156675	-385.792933	-385.783926	-385.782982	-385.826155	34.699	
C	-0.1726267442	 1.5499757792	 0.8204494774	-0.432365
C	-0.1318801115	 0.072299254	 0.4851303641	-0.015573
C	 1.0542728845	-0.490218602	-0.34423252	-0.011039
O	 1.9533437495	-0.2395901308	 0.8079977728	-0.340632
C	 0.7332913062	-0.8766872816	 1.3849345453	 0.318654
C	 0.6513806855	-1.1014468744	 2.7956446014	 0.078777
C	 0.5442408779	-1.3031484017	 3.9763665072	-0.358759
C	 0.8117857324	-1.9187132699	 0.217546015	 0.005207
C	-0.3438007209	-2.8184469954	-0.1818246742	-0.449427
H	 0.8250162817	 1.9155424018	 1.0695289207	 0.141352
H	-0.5586002752	 2.1270745294	-0.0268717107	 0.113703
H	-0.8351850893	 1.7334823054	 1.6728594194	 0.121731
H	-1.1195702383	-0.3156546506	 0.2256245394	 0.073597
H	 1.4156064109	-0.1864934233	-1.3267890724	 0.093926
H	 0.4581571223	-1.4787570438	 5.0203994856	 0.187621
H	 1.7523797602	-2.4716851186	 0.2779616826	 0.092451
H	-1.2983667344	-2.2946692283	-0.2688715034	 0.123542
H	-0.1348849137	-3.2922145213	-1.1469939554	 0.125219
H	-0.4687263636	-3.6187186682	 0.5551698852	 0.132015
