17
gdb 10198	3.14921	1.14062	0.8751	2.8656	65.76	-0.2758	0.0136	0.2893	1278.8882	0.140159	-400.991887	-400.982376	-400.981432	-401.026751	32.274	
C	 0.1850564886	 1.4118199841	-0.0989994129	-0.2501
O	-0.1590017433	 0.0581858977	 0.1462625732	-0.232064
C	 0.5863189652	-0.5529492096	 1.174151473	-0.028066
C	-0.0404375749	-1.9188788223	 1.4743921356	-0.219785
C	-1.4745002723	-1.7965784301	 2.0015847298	-0.074557
O	-2.0188453233	-3.0572710847	 2.3494656357	-0.414511
C	 2.0107709375	-0.6986002898	 0.7905419746	 0.274285
N	 3.1193083646	-0.8051119401	 0.4820741731	-0.322278
H	 1.2251112479	 1.509645376	-0.4368146362	 0.13765
H	-0.4828879986	 1.766955807	-0.8856119542	 0.1403
H	 0.0439717716	 2.0290486614	 0.8003849613	 0.114626
H	 0.5621252114	 0.0709146856	 2.0845637391	 0.113215
H	-0.0254997356	-2.5125464509	 0.5529961854	 0.119256
H	 0.5736856426	-2.4423607687	 2.2134279026	 0.130584
H	-1.4799970164	-1.2051361331	 2.9246659124	 0.111825
H	-2.0981105547	-1.2678160482	 1.2695068162	 0.113833
H	-2.1703825401	-3.5504414542	 1.5369929515	 0.285787
