19
gdb 54847	2.62631	1.49469	1.4009	3.4539	74.87	-0.2369	-0.0089	0.228	1041.5682	0.15913	-423.033924	-423.025456	-423.024511	-423.067714	31.44	
C	-1.2704549516	 0.5751608601	 0.5177408692	-0.479926
C	 0.0616016319	 0.1184165976	-0.0449706439	 0.390533
O	 1.1159918156	 0.5209183981	 0.3899352841	-0.310013
C	 0.006892774	-0.8115936134	-1.241437314	-0.141617
C	 0.9361645436	-1.9813626592	-1.3870830949	-0.082909
C	 1.5465979657	-2.5011787477	-0.0949164673	-0.094417
O	 0.4603712546	-2.5940271245	 0.8298304137	-0.25344
C	-0.7167492003	-2.9106899274	 0.0989584365	-0.101338
C	-0.5569349353	-2.2173389785	-1.2403689394	-0.07805
H	-1.1149684545	 1.3828994322	 1.234267683	 0.140853
H	-1.9404320496	 0.9038444557	-0.2843892309	 0.129424
H	-1.7642247359	-0.2633587497	 1.0211647256	 0.149133
H	-0.1990693391	-0.2596579919	-2.1572813977	 0.112385
H	 1.4587626566	-2.1532137734	-2.3203597228	 0.093935
H	 2.0034639159	-3.4883630833	-0.2661134635	 0.091514
H	 2.2850324136	-1.8297805556	 0.3478927784	 0.137668
H	-0.8153182357	-3.9975145502	-0.0605509036	 0.095361
H	-1.5715989873	-2.5789481041	 0.6975721937	 0.109091
H	-1.1707386424	-2.5431933048	-2.0722027361	 0.091813
