17
gdb 19267	2.93268	2.03787	1.47081	3.6852	68.98	-0.2314	0.0176	0.249	903.697	0.142276	-363.856474	-363.848793	-363.847849	-363.888923	28.353	
C	-0.2682469811	 1.5304707943	 0.2569040929	-0.385474
C	-0.0774816527	 0.0444298925	-0.0663504437	-0.15964
N	-1.282567468	-0.7597304428	 0.0119589851	-0.091221
C	-2.2652691482	-0.8950894999	 1.0913453903	-0.00685
C	-3.4181191632	 0.0477973091	 0.9098144848	-0.288789
C	-3.3281529561	-1.2202505225	 0.0617531445	-0.220772
C	-2.2269297268	-1.0143692346	-0.9820839398	 0.413039
O	-2.1410900681	-1.0258369042	-2.1801505757	-0.367672
H	 0.6912628599	 2.0536766601	 0.1957007069	 0.120584
H	-0.957511968	 2.0020368517	-0.4501843475	 0.130294
H	-0.66217031	 1.6707186613	 1.2682548735	 0.123486
H	 0.2914467064	-0.0778835045	-1.0895535552	 0.139461
H	 0.6783258398	-0.3880887958	 0.6004781715	 0.109361
H	-2.027984393	-1.431338494	 2.000904808	 0.114054
H	-4.189226658	 0.0262403493	 1.6756266972	 0.124008
H	-3.2601877434	 1.0198649228	 0.4536539089	 0.127733
H	-4.0816062594	-1.9938010129	 0.0772541483	 0.118399
