15
gdb 127629	3.41847	1.72923	1.15691	1.6743	73.33	-0.2121	0.0115	0.2236	996.72	0.115415	-416.822899	-416.81575	-416.814806	-416.855134	26.56	
C	-0.001177854	 1.4115795483	 0.0255220455	-0.33841
N	-0.0276004287	-0.0324210335	 0.0392043155	-0.122672
N	 0.0167459185	-0.7496910848	-1.1296493577	-0.271942
C	 0.0568443491	-2.0370937326	-0.7879369796	-0.153792
C	 0.0488823507	-2.1940965912	 0.6202870819	 0.1664
C	 0.0021526145	-0.8919517123	 1.0719440442	 0.48661
O	-0.0203615693	-0.768024407	 2.4091100104	-0.227363
C	 0.0121915659	-2.0920577699	 2.8542151568	-0.012532
C	 0.0533946191	-2.9820636846	 1.8294963665	-0.354598
H	 1.0205853805	 1.7972094068	 0.1143643208	 0.142936
H	-0.4280675202	 1.7451312219	-0.920402651	 0.162062
H	-0.600412684	 1.7972367446	 0.854047859	 0.146673
H	 0.0831563627	-2.7827227374	-1.5684077739	 0.11632
H	 0.0014492314	-2.1995377381	 3.9257132518	 0.13915
H	 0.0835380039	-4.0547955301	 1.9393140397	 0.121158
