21
gdb 82335	2.19476	1.64461	1.30594	0.7497	86.75	-0.2556	0.0513	0.3069	1100.6599	0.183068	-349.926648	-349.918023	-349.917079	-349.95938	34.394	
C	 0.0021087473	 1.5915092571	-0.0794267253	-0.402553
C	 0.1016124474	 0.0671285293	-0.0213112527	 0.015941
C	 0.7382707109	-0.5935779195	-1.2381629153	-0.026161
C	 2.2442960328	-0.612508958	-1.3493842731	-0.298128
C	 1.5143562057	-1.8068244627	-0.7838247902	-0.030059
C	 1.3857322887	-1.914817049	 0.7278662461	-0.229959
C	 0.8908667168	-0.5123817835	 1.2091207173	-0.211607
C	 1.9826835578	 0.332735071	 1.6840076637	 0.380093
C	 2.8790838805	 1.0136589501	 2.1093075927	-0.520169
H	 0.9901037348	 2.0496615909	-0.1731856125	 0.129617
H	-0.6007280311	 1.9012273359	-0.9394513721	 0.107223
H	-0.4699488225	 1.995565266	 0.8223055183	 0.111645
H	-0.9166177644	-0.3370468496	 0.0608152205	 0.074843
H	 0.157229612	-0.611485158	-2.1545825223	 0.076894
H	 2.6563139222	-0.7202899828	-2.3471871981	 0.104908
H	 2.8390684337	 0.0078435657	-0.6888283302	 0.130115
H	 1.5056272525	-2.725663472	-1.3600608736	 0.078559
H	 0.6265296621	-2.6662234203	 0.9735627887	 0.098503
H	 2.3115975265	-2.2072713683	 1.2312217672	 0.110187
H	 0.1974949873	-0.6341315173	 2.0487016851	 0.105236
H	 3.670237459	 1.6162632947	 2.481492016	 0.194874
