15
gdb 46277	3.19128	1.48411	1.2436	5.2148	64.64	-0.2635	-0.0009	0.2625	994.2599	0.112554	-457.736022	-457.728872	-457.727928	-457.767981	26.879	
O	-0.11047041	 0.086919563	-0.3593006926	-0.315642
C	-0.0329153838	 1.2317364523	-0.0578873192	 0.425601
O	-1.0347809298	 2.0436971398	 0.4307558183	-0.248666
C	-0.1236441341	 3.1788390891	 0.5649941885	-0.146903
C	 1.0246183212	 2.3368402736	-0.0131318354	 0.111169
C	 2.4101988879	 2.2019920929	 0.7019071009	-0.338618
C	 3.0758568512	 2.6668092464	-0.6035922413	 0.039174
O	 2.6863643295	 1.7397637092	-1.6199230466	-0.221476
C	 1.7752583387	 2.7813536224	-1.2833085074	-0.04984
H	-0.4623440007	 4.023580843	-0.0403053493	 0.126509
H	-0.0217949137	 3.4743742216	 1.6118676668	 0.126872
H	 2.5095589375	 2.9127727944	 1.5260946445	 0.11836
H	 2.6885950696	 1.2000061288	 1.0338450452	 0.139005
H	 4.0036866029	 3.2062035546	-0.7482838055	 0.117528
H	 1.4197213234	 3.4260117288	-2.079048607	 0.116928
