16
gdb 42589	3.25339	1.97097	1.78034	1.2677	69.38	-0.2387	-0.0175	0.2211	812.6533	0.127918	-400.728041	-400.722338	-400.721394	-400.757966	24.301	
O	 0.0442233332	-0.0149017722	 0.0491271132	-0.329696
C	-0.001969751	 1.1801517313	 0.0055069271	 0.447524
C	-1.1983268249	 2.1476836737	 0.0419679884	-0.190318
C	-0.8372411232	 2.9933568763	 1.275410245	-0.041889
C	 0.6299025999	 3.2072977243	 1.0571484	-0.058034
C	 1.1253603419	 2.2375931434	-0.0396855913	-0.172814
C	 0.6933104644	 2.9827259556	-1.3296074389	-0.227665
C	-0.6803123143	 3.3842415148	-0.7869070909	-0.000127
N	-0.3678857764	 4.1629692008	 0.4847801331	-0.1457
H	-2.1988128395	 1.7513308436	-0.0949148771	 0.09325
H	-1.36925899	 3.0755203664	 2.2159136507	 0.103771
H	 1.2805055388	 3.597597412	 1.8279345807	 0.107039
H	 2.1444182984	 1.8703575655	 0.0402247854	 0.088357
H	 1.3131055415	 3.853753447	-1.5566257695	 0.12147
H	 0.6459944672	 2.3253669413	-2.2043717167	 0.115333
H	-1.377153446	 3.9007513861	-1.4429443093	 0.089497
