17
gdb 16403	3.54134	2.17684	1.71784	1.7166	67.14	-0.2227	-0.0121	0.2105	796.7938	0.144788	-363.853708	-363.847191	-363.846247	-363.884659	25.605	
O	 0.0610471957	-0.0256305896	-0.1773883295	-0.329036
C	 0.0298618665	 1.1646305589	 0.0191201247	 0.414962
C	-1.2748131993	 1.9208291405	 0.310468677	-0.333248
C	-1.0521817417	 3.3643607092	 0.8618976077	-0.182137
N	 0.3341694721	 3.8501098796	 0.7482985269	-0.103237
C	 0.8860679021	 3.4328864565	-0.5883174541	-0.191502
C	 1.2577253272	 2.0509256823	 0.0100911307	-0.125113
C	 1.2472267055	 2.8277867476	 1.3588902506	-0.183002
H	-1.8195576293	 1.9526858201	-0.6408465747	 0.137477
H	-1.8839163457	 1.3053868806	 0.9777488018	 0.132603
H	-1.69960241	 4.072514255	 0.3356262558	 0.110639
H	-1.3253291851	 3.4107926088	 1.9207062953	 0.114092
H	 0.1801552185	 3.4748677325	-1.4230586913	 0.109022
H	 1.7675570917	 4.0324460115	-0.8335605142	 0.11605
H	 2.145940797	 1.5082144349	-0.3163235741	 0.084793
H	 2.2188694628	 3.2745984668	 1.5896837173	 0.116237
H	 0.8602028519	 2.3252583149	 2.2508091802	 0.111399
