23
gdb 96598	2.13259	1.4201	0.97965	0.9924	81.18	-0.2393	0.0771	0.3164	1284.1505	0.207669	-425.419468	-425.410441	-425.409497	-425.452874	35.489	
O	-0.2205731053	 1.5337336822	-0.2682285822	-0.438987
C	-0.0060409394	 0.1361114716	-0.0649551545	 0.10955
C	-1.4197281524	-0.4539593873	 0.0571351915	-0.184084
C	-1.600898689	-1.956568636	-0.1937101225	-0.209257
C	-0.9033195097	-2.9359574103	 0.7616757361	-0.189746
C	 0.6382847623	-2.9025723548	 0.817370247	-0.200998
C	 1.382040076	-2.7252657261	-0.5231364082	-0.068966
O	 1.821018332	-1.4010255273	-0.7821058938	-0.245632
C	 0.8676254193	-0.4472328689	-1.2050318823	-0.105229
H	 0.6272244318	 1.9807428713	-0.1778892522	 0.27991
H	 0.5568227139	-0.0224082606	 0.8656562684	 0.07317
H	-1.8201136889	-0.1865641027	 1.0423164008	 0.099096
H	-2.03114892	 0.087662028	-0.6751236579	 0.110195
H	-2.6768675563	-2.1646649133	-0.1503636356	 0.096392
H	-1.3104374659	-2.1899328055	-1.2247495929	 0.096626
H	-1.2914240662	-2.7923397158	 1.7784605551	 0.095582
H	-1.2140807378	-3.9466107404	 0.4667971993	 0.095578
H	 0.9913802387	-2.109866337	 1.4848102818	 0.110883
H	 0.972934798	-3.8412999906	 1.2746111719	 0.093615
H	 2.3058746599	-3.3116807717	-0.5020434941	 0.105356
H	 0.7809004406	-3.1039371697	-1.3650679558	 0.088901
H	 0.2478394427	-0.838959642	-2.0261621801	 0.093032
H	 1.4565341056	 0.379299687	-1.6184129096	 0.095013
