20
gdb 56585	2.95087	1.06038	0.84077	3.8016	79.19	-0.2572	0.0221	0.2793	1373.222	0.171265	-399.305989	-399.296199	-399.295255	-399.340702	35.994	
C	-0.1563764831	 1.6795478654	-0.070491523	-0.410737
C	 0.0256350332	 0.1552208673	-0.0364883383	-0.014413
C	-1.3479800865	-0.5846573961	 0.0546052681	-0.121444
N	-1.3177630152	-2.0483307671	 0.051100396	-0.518576
C	-2.0833068849	-0.1408479714	 1.2503445613	 0.295802
N	-2.6243936104	 0.2169340354	 2.2064619984	-0.326402
C	 0.779672449	-0.3211637391	-1.2631140278	 0.013376
C	 2.2601775372	-0.2892327076	-1.3175443981	-0.255045
N	 1.5486511079	-1.5810014763	-1.2607848134	-0.328874
H	 0.8147973064	 2.1798119451	-0.113819087	 0.12485
H	-0.7274775448	 1.9844166928	-0.9550643725	 0.122362
H	-0.6885171683	 2.0388170477	 0.813951798	 0.14856
H	 0.6075153812	-0.1172270451	 0.8558486041	 0.077825
H	-1.9422007838	-0.2738220619	-0.816351341	 0.132691
H	-0.8100127415	-2.3770132088	-0.7644850117	 0.258593
H	-0.8306067278	-2.3947374228	 0.8723184619	 0.236005
H	 0.244872597	-0.159579629	-2.1996446036	 0.096696
H	 2.7691574589	-0.0852785715	-2.2547005385	 0.126857
H	 2.7930681285	 0.0449301588	-0.4306708782	 0.117199
H	 1.6001061969	-1.9424150557	-0.3110058645	 0.224676
