21
gdb 121688	6.37363	0.5589	0.5204	4.503	82.52	-0.2502	-0.0185	0.2317	2113.8155	0.181805	-420.45229	-420.441822	-420.440877	-420.489006	36.617	
C	-0.1234111727	 1.757381258	 0.0638038604	-0.380926
C	-0.1683800015	 0.2276017599	 0.022927696	-0.170665
C	-1.5979777126	-0.323522556	 0.0174275733	-0.147141
C	-1.6401775063	-1.8504309587	-0.0233980908	-0.297344
C	-3.0381428327	-2.4330516171	-0.0298515568	 0.382758
N	-4.0761099275	-1.7081036486	-0.003095932	-0.497702
N	-3.0236246311	-3.8529171518	-0.068707289	-0.338074
C	-4.1072756659	-4.693369178	-0.0841790882	 0.168252
O	-5.2695348276	-4.3551851773	-0.0670238078	-0.299798
H	 0.9064968231	 2.1276203247	 0.0670732529	 0.10993
H	-0.6315984495	 2.1901905903	-0.8047983127	 0.117176
H	-0.6201227928	 2.142668631	 0.9609537638	 0.117179
H	 0.366214965	-0.1306408994	-0.8675366396	 0.090733
H	 0.3776624228	-0.1778303033	 0.8857824337	 0.090737
H	-2.1406219495	 0.0251679003	 0.9026611341	 0.11603
H	-2.1519935058	 0.0721016998	-0.8406192907	 0.116
H	-1.10729979	-2.2194837015	-0.9127587755	 0.112527
H	-1.0958136706	-2.2665902708	 0.8377657396	 0.112556
H	-4.9208544975	-2.2800813098	-0.0130199981	 0.251662
H	-2.1176731128	-4.2976794162	-0.0869678892	 0.254489
H	-3.7938833344	-5.7552538155	-0.1152434134	 0.09162
