16
gdb 52055	2.93044	0.88949	0.73822	4.642	70.72	-0.2634	-0.0345	0.2289	1476.5776	0.121501	-437.878673	-437.869414	-437.86847	-437.914344	31.714	
O	-0.1314256306	-0.0086294156	 0.1262309711	-0.22547
C	-0.0536329991	 1.157997431	-0.1531455579	 0.156468
C	 1.2089104631	 1.9883587436	-0.0641918551	-0.280688
C	 1.532755148	 2.6686077067	-1.406709281	-0.297972
C	 2.6758506781	 3.6589200919	-1.2870706671	 0.256505
C	 2.6615276061	 4.9520790856	-2.0011478376	-0.208919
O	 2.3738802237	 4.8814042421	-0.6066933013	-0.247317
C	 3.9702919577	 3.0853898356	-0.9481908718	 0.268711
N	 4.9866227963	 2.5996607395	-0.6904156793	-0.325387
H	-0.9473007121	 1.7237900129	-0.5098265012	 0.074517
H	 1.0395798566	 2.7710788519	 0.6883348851	 0.142689
H	 2.0295104461	 1.3511718721	 0.2752475728	 0.147651
H	 1.7869612194	 1.916427226	-2.1619067897	 0.138313
H	 0.657328773	 3.2175895072	-1.7701216037	 0.122184
H	 3.6018972459	 5.4319747412	-2.2626257921	 0.145446
H	 1.8146928079	 5.1749690085	-2.6478264113	 0.133269
