19
gdb 112985	3.56912	1.01408	0.84075	5.0072	81.3	-0.2463	-0.02	0.2263	1400.6339	0.159059	-419.234957	-419.225552	-419.224608	-419.269818	33.309	
C	-0.1021195831	 1.5642568811	 0.0253737438	-0.385332
C	 0.0750238075	 0.0431952003	 0.0854009093	-0.196345
C	 0.7046493715	-0.5189583675	-1.1888708336	-0.137979
C	 0.7651213477	-2.0658315645	-1.3542743466	-0.211004
N	-0.087013546	-1.9272164187	-2.5466013984	-0.097232
C	-0.5762308117	-2.8999566651	-3.4001211335	 0.070175
N	-1.3131494919	-2.6351365955	-4.3985675459	-0.411911
C	-0.1976829072	-0.5286524402	-2.4429557712	 0.438661
O	-0.7903308259	 0.2883598583	-3.0839997493	-0.331842
H	 0.8658665376	 2.0691506019	-0.065958085	 0.115056
H	-0.7098411293	 1.8497823069	-0.8373341695	 0.154183
H	-0.5890527952	 1.9368307774	 0.9312703728	 0.113842
H	 0.7029254398	-0.2310119444	 0.9424137101	 0.1017
H	-0.8977459736	-0.4389422761	 0.2469235615	 0.105938
H	 1.6648588847	-0.0339302893	-1.3916756516	 0.106339
H	 1.7544939034	-2.482253297	-1.564971808	 0.120196
H	 0.2912983952	-2.6285447812	-0.5434534023	 0.119676
H	-0.240527782	-3.8998106096	-3.0936010832	 0.095576
H	-1.5571159716	-3.4944194567	-4.8882556994	 0.230303
