18
gdb 53122	4.4738	0.96092	0.92104	2.1213	83.59	-0.2439	0.0438	0.2877	1340.6537	0.148226	-364.729299	-364.721093	-364.720149	-364.763902	30.158	
C	-0.006744018	 1.5446455051	-0.0383615441	-0.50002
C	-0.0017198237	 0.0898673927	 0.0179188257	 0.091963
C	 0.0096489462	-1.1143188748	 0.0630699855	 0.035799
C	 0.0062936047	-2.5648017326	 0.1208867224	-0.16358
C	 0.1017442865	-3.3152661135	 1.4473698659	-0.057047
C	-1.2701887011	-3.4853528586	 2.0104430225	-0.033583
C	-2.27227708	-2.8496283954	 1.0637177544	-0.239151
C	-1.3197154733	-3.3651788286	-0.0283815794	-0.020098
N	-0.7650790304	-4.4407001754	 0.9596585158	-0.172808
H	 0.8792904607	 1.9265276648	-0.5574938411	 0.149263
H	-0.8884364275	 1.9184144848	-0.570790694	 0.148864
H	-0.0172453887	 1.9822812748	 0.966041828	 0.148843
H	 0.7457744488	-2.9858724108	-0.5689968665	 0.108694
H	 0.9967777376	-3.5021892025	 2.0296256711	 0.098191
H	-1.4269840013	-3.8123180464	 3.0321684138	 0.095763
H	-3.2113899409	-3.4082828801	 1.0608351235	 0.111803
H	-2.4672274689	-1.7749384528	 1.1187458006	 0.11025
H	-1.6749782407	-3.6640279007	-1.0121508844	 0.086852
