23
gdb 92356	2.1287	1.81316	1.47136	1.309	83.82	-0.2571	0.0742	0.3313	1058.1263	0.208336	-388.320635	-388.312269	-388.311325	-388.352853	34.437	
C	 0.0554065759	 1.4736474903	 0.0175056423	-0.490588
C	 0.0206159504	-0.0463228185	-0.008041098	 0.326317
C	 0.6368742154	-0.6845293056	-1.2817503909	-0.234656
C	 0.044956396	-2.127183995	-1.3050903483	-0.216783
C	-0.8016335797	-2.1751647797	-0.0143346051	-0.00189
C	 0.1570986014	-2.1711655485	 1.1974817732	-0.260195
C	 0.6946916165	-0.7037067205	 1.2219684516	 0.12019
O	 2.1065939579	-0.5815671546	 1.1264959997	-0.444792
C	-1.3628243843	-0.7377384422	 0.0385861783	-0.256362
H	 1.0884070915	 1.8364038875	 0.023324145	 0.126717
H	-0.4462292845	 1.8979310254	-0.8590075402	 0.106091
H	-0.4409471703	 1.868543542	 0.9116280989	 0.10401
H	 0.3325976308	-0.1154272355	-2.1657668779	 0.084352
H	 1.7268276312	-0.6739780102	-1.2393187517	 0.117113
H	-0.5853039606	-2.2826873235	-2.1865035611	 0.089335
H	 0.817387434	-2.902008484	-1.3186559633	 0.091498
H	-1.5359044349	-2.9832342515	 0.0049259044	 0.051888
H	-0.3702385071	-2.4153392959	 2.1253240193	 0.08744
H	 0.9807543432	-2.8832024679	 1.0818573468	 0.090685
H	 0.3446936679	-0.1888681614	 2.1299405323	 0.055796
H	 2.4947239819	-0.9762829984	 1.9127351179	 0.281797
H	-1.9221717473	-0.5200072012	 0.9554791969	 0.083936
H	-1.9909426453	-0.482561721	-0.82135143	 0.088102
