14
gdb 42172	2.18938	1.69374	1.031	1.2568	74.58	-0.2854	-0.0793	0.2061	1102.2028	0.098797	-399.527531	-399.518895	-399.517951	-399.561389	31.034	
O	-0.0155759978	 0.116936545	-0.6978047326	-0.304182
C	-0.0258352096	 1.2339330512	-0.2235782032	 0.206886
C	 1.1838499985	 1.9127209504	 0.1782864861	 0.259901
C	 2.1958261091	 2.4718804606	 0.5108984021	-0.401656
C	-1.324981342	 1.9762040322	-0.0291590706	 0.077171
C	-2.4173442	 1.6680267909	-1.069393126	-0.271574
C	-2.5441131228	 1.0908167742	 0.2872537048	-0.271577
C	-1.2892274823	 3.296632562	 0.5359896443	 0.197786
N	-1.277341291	 4.3604633334	 0.9896803735	-0.34146
H	 3.087344929	 2.9701691108	 0.807482453	 0.224927
H	-3.0513000901	 2.4993913123	-1.3514845654	 0.152061
H	-2.0923801655	 1.0140896704	-1.8697543489	 0.159828
H	-2.3059307722	 0.0417236286	 0.4156525916	 0.159828
H	-3.2686375732	 1.5098037781	 0.9743901612	 0.15206
