16
gdb 52571	6.6053	0.61471	0.57987	6.2284	80.13	-0.2548	-0.0628	0.1921	1874.863	0.120779	-437.865843	-437.855567	-437.854623	-437.904398	33.571	
C	-0.0609890619	 1.2917237453	 0.1653342128	-0.50471
C	 0.1104513915	-0.1490801865	 0.1129292	 0.151415
C	 0.2321832275	-1.3498083159	 0.0804015046	-0.017343
C	 0.4066792586	-2.7822117127	 0.0150557361	 0.199294
O	-0.3571359421	-3.5754455043	 0.516896147	-0.273891
C	 1.6762013416	-3.2253876529	-0.7223132413	-0.197789
O	 1.7147302613	-4.6050590045	-0.9857715481	-0.166724
C	 1.9033181091	-5.4261896863	 0.0755289895	 0.146251
N	 1.9253230917	-6.6725301268	-0.1039726261	-0.444027
H	 0.8270051678	 1.8149131976	-0.2033376692	 0.162184
H	-0.9146615807	 1.597990255	-0.4490250982	 0.170341
H	-0.2543001856	 1.623329481	 1.1909700023	 0.168601
H	 1.7288873324	-2.7171258925	-1.6892553661	 0.152082
H	 2.5446109737	-2.8889003011	-0.1338397192	 0.133506
H	 2.0433144257	-4.8940461973	 1.0242703328	 0.090215
H	 2.0896985294	-7.1477217181	 0.780830353	 0.230595
