20
gdb 15043	2.73279	1.49502	1.03876	0.6203	80.9	-0.257	0.0547	0.3116	1184.2997	0.17529	-311.827975	-311.818765	-311.817821	-311.861886	34.098	
C	-0.1170364661	 1.5248479172	-0.0473699185	-0.391161
C	-0.033821943	 0.0003740865	-0.1377874038	-0.170116
C	 0.864633817	-0.5101872376	-1.2902927552	-0.182126
C	 2.2488740744	-0.0586483294	-1.1327289643	 0.350155
C	 3.3878141907	 0.2961486908	-0.9797551019	-0.478982
C	 0.8037806802	-2.0295368668	-1.4112632825	 0.038911
C	-0.325488413	-2.6797104126	-2.1686931315	-0.278681
C	 1.0776292287	-2.704679042	-2.7268859616	-0.269549
H	 0.8727917736	 1.9628747907	 0.1098668108	 0.132028
H	-0.5302892087	 1.9543745756	-0.967107722	 0.11111
H	-0.7610840959	 1.8327523481	 0.7819111897	 0.111517
H	 0.3448353545	-0.409715721	 0.8061381526	 0.102754
H	-1.0332626613	-0.4239675697	-0.2869871021	 0.099349
H	 0.4760008522	-0.0860075444	-2.2285759778	 0.09452
H	 4.3942180855	 0.6119027088	-0.8583075746	 0.192186
H	 1.1534919848	-2.5485915293	-0.5229810672	 0.089388
H	-0.7460934118	-3.6004924473	-1.7800560039	 0.111743
H	-1.050566974	-2.0332951054	-2.6534726555	 0.109808
H	 1.2934854649	-2.0734963097	-3.5827712651	 0.114421
H	 1.6202737675	-3.6432490123	-2.7218738956	 0.112727
