17
gdb 66088	2.61001	1.23213	1.19021	3.4575	69.58	-0.2523	-0.0441	0.2082	1127.2793	0.132233	-458.952425	-458.943105	-458.942161	-458.987518	32.223	
C	-0.0343222958	 1.6952577049	-0.1336800879	-0.483523
C	-0.0256431234	 0.1711451078	-0.0202144315	 0.120441
C	 1.2044213917	-0.5562164215	-0.6443412036	-0.102687
O	 1.4951609321	-1.2206088257	 0.5934990114	-0.262198
C	 0.4671074229	-0.5124010279	 1.294218753	 0.00531
C	 0.9791977849	 0.4239709969	 2.364716433	 0.136625
O	 2.1364252928	 0.6910486169	 2.5504901988	-0.240857
C	-1.3316384464	-0.3993964229	-0.5340321194	 0.125498
O	-2.0506565446	-1.1514823741	 0.0694033405	-0.241956
H	 0.925059562	 2.1136144623	 0.1818232924	 0.153633
H	-0.207212655	 1.9972527088	-1.1726595818	 0.131044
H	-0.8235812978	 2.1437373614	 0.4782990627	 0.137764
H	 0.9945482009	-1.2622860056	-1.4571322773	 0.114941
H	 2.0099348144	 0.1225422557	-0.9509972223	 0.117773
H	-0.2872906617	-1.1834066485	 1.7273034332	 0.121505
H	 0.1653281962	 0.8711405793	 2.9834662597	 0.078527
H	-1.5878123032	-0.0606853378	-1.5648218609	 0.08816
