11
gdb 3803	8.01791	2.12701	1.69913	2.8305	48.91	-0.2435	-0.0413	0.2023	677.4764	0.078157	-376.531779	-376.52571	-376.524765	-376.56215	20.832	
C	-0.0603868203	 1.4104773145	 0.010034878	-0.245215
O	 0.0012194344	-0.0185949661	 0.0038691794	-0.266029
C	-1.1715646309	-0.6567730321	 0.0117357632	 0.348719
C	-1.4039935448	-1.9993526844	 0.0093343503	-0.070836
O	-2.7307416357	-2.1775330313	 0.0198920662	-0.151495
N	-3.3219615329	-0.9044670981	 0.0289682957	-0.00715
N	-2.3950911101	-0.0382014526	 0.0240538547	-0.206616
H	 0.976143964	 1.7477895481	 0.0025730386	 0.140214
H	-0.5849262798	 1.784277534	-0.8746461593	 0.143352
H	-0.5698196051	 1.7772395227	 0.906413947	 0.143332
H	-0.7736974988	-2.8704414447	 0.0012170762	 0.171724
