17
gdb 95738	2.94648	1.24602	0.91704	5.7728	76.75	-0.2752	-0.0456	0.2296	1249.0249	0.137017	-418.036994	-418.028715	-418.027771	-418.070054	30.631	
C	-0.0443761436	 1.551675537	 0.0072156029	-0.388278
C	 0.0409489535	 0.0251848947	-0.0119468604	 0.046847
C	 0.7423805404	-0.5166294379	-1.2649232436	-0.235772
C	 1.0270743126	-2.0002549535	-1.0828161911	-0.091515
O	 1.7775898058	-2.238479269	 0.1242142929	-0.255179
C	 1.4715264598	-1.4295325682	 1.1636498836	 0.288283
N	 0.7021524424	-0.4255726082	 1.2173353534	-0.308548
C	 2.179083868	-1.8465167378	 2.3588962003	 0.297287
N	 2.741550987	-2.1752918028	 3.3126952558	-0.319761
H	 0.957358242	 1.9927578759	-0.0058369399	 0.12504
H	-0.595848587	 1.9191530095	-0.8639127445	 0.113397
H	-0.5507986893	 1.8900327893	 0.9142161021	 0.13515
H	-0.9835053737	-0.3735899522	 0.0217357373	 0.100547
H	 0.1283420121	-0.3646897662	-2.1580441421	 0.114517
H	 1.6860720466	 0.0198654386	-1.4195485541	 0.120938
H	 0.0959320441	-2.5768786986	-1.0199460426	 0.124495
H	 1.6374000692	-2.4140926307	-1.8875879601	 0.132555
