14
gdb 32069	4.03954	1.1608	0.90678	2.8366	66.13	-0.2777	-0.0739	0.2038	1183.1731	0.102635	-470.067771	-470.060107	-470.059163	-470.100822	27.491	
O	 0.2924653968	 1.3211630915	-0.058047512	-0.411892
C	 0.1625938192	-0.06624242	-0.0786101698	-0.131166
C	-1.2845812431	-0.4986990436	-0.002627456	 0.403019
N	-2.2057471624	 0.4222297013	 0.0721473789	-0.342996
C	-3.4906569273	-0.0516510488	 0.1383444712	 0.079301
N	-3.8935181655	-1.2855235817	 0.1354034538	-0.297862
C	-2.9361722532	-2.286733253	 0.0566641528	 0.44843
O	-3.1449765753	-3.4724902553	 0.0433035537	-0.357042
N	-1.592544325	-1.8065390085	-0.0128159512	-0.368126
H	-0.6100374573	 1.6743553605	 0.0038736534	 0.302561
H	 0.5990145673	-0.4912552518	-0.997948236	 0.128477
H	 0.7016001087	-0.526771183	 0.7661926969	 0.128482
H	-4.2564797882	 0.7197495043	 0.2007411948	 0.14117
H	-0.8754072248	-2.5192299219	-0.0710586705	 0.277644
