17
gdb 2152	3.50196	2.76747	1.77536	1.4717	66.05	-0.2389	0.0226	0.2615	756.0014	0.148871	-309.737802	-309.730478	-309.729534	-309.769031	27.216	
C	-0.3154746225	 1.5102329549	 0.0898800839	-0.49478
C	-0.0865192653	 0.0328557197	 0.0342169439	 0.298764
C	 0.0538948398	-0.7428815636	-1.043735641	-0.162479
C	 0.3022522524	-2.193300723	-0.7107940893	-0.25697
C	 0.1045826717	-2.2407283261	 0.8264032651	-0.24157
C	 0.1173834262	-0.767701253	 1.3078432407	 0.053413
O	 1.3212467052	-0.3773367024	 1.9777231371	-0.433563
H	 0.4536868735	 1.9925070968	 0.7036805687	 0.135162
H	-0.3054326142	 1.9645190585	-0.9045647479	 0.118404
H	-1.2797000118	 1.7423503481	 0.5604194504	 0.125233
H	 0.0112779467	-0.3835128866	-2.0678274091	 0.086325
H	-0.3899799245	-2.8632637876	-1.2340928667	 0.10596
H	 1.3092837093	-2.5057965754	-1.020166748	 0.102859
H	-0.8620295769	-2.6956272884	 1.0625692936	 0.105085
H	 0.870067981	-2.8188684228	 1.35004779	 0.104192
H	-0.6633803881	-0.5788297849	 2.0529689122	 0.080828
H	 2.0326538774	-0.4198930442	 1.3284507264	 0.273137
