20
gdb 80887	2.51243	1.74569	1.45309	2.0925	77.78	-0.2243	0.0645	0.2889	1003.6495	0.172073	-403.086714	-403.078919	-403.077974	-403.118321	32.201	
C	-0.0787881268	 1.6377271493	 0.0054650749	-0.462647
C	-0.0252425468	 0.112205785	-0.0089550398	-0.028265
C	 1.0838325895	-0.573179802	-0.8644942437	-0.012482
C	 2.0787178415	-0.2613346832	 0.2906076025	-0.291665
C	 0.7821024447	-0.5853718391	 1.1325018523	 0.387899
O	 0.6231266926	-0.3060082769	 2.4844453613	-0.486802
C	 0.6738589607	-2.078208536	 0.7889800346	-0.053554
C	-0.3311124468	-2.5717085698	-0.1849836296	-0.260838
N	 0.9643533588	-2.0629225008	-0.6731165415	-0.113892
H	 0.8968071483	 2.121385555	 0.0978326315	 0.118811
H	-0.5382040448	 2.0096943402	-0.9163006973	 0.124897
H	-0.7033909968	 1.9851831072	 0.8373543381	 0.118547
H	-1.0466645465	-0.2412060255	-0.1558693425	 0.066173
H	 1.2750118127	-0.2948144429	-1.8996736738	 0.074355
H	 2.9254652194	-0.9429127977	 0.3926097492	 0.107438
H	 2.4108712342	 0.7753990115	 0.346283844	 0.092541
H	 0.7837518431	 0.6332060599	 2.6216057336	 0.283746
H	 1.2315236834	-2.7697696081	 1.4157083304	 0.097378
H	-0.4183081987	-3.6484486557	-0.3050748185	 0.117241
H	-1.2568394318	-2.0418292505	-0.3721373057	 0.121119
