14
gdb 18984	4.50429	2.34004	1.91069	0.9945	55.73	-0.246	0.0606	0.3067	689.5261	0.109028	-419.595377	-419.589981	-419.589037	-419.624672	21.938	
C	 0.0236147213	 1.4029759388	 0.078195616	 0.017937
O	 1.3451788068	 1.8911755747	 0.0574305571	-0.263141
C	 2.1112232285	 1.211849045	-0.9032937534	 0.119733
C	 1.3814910366	 0.4087990075	-2.0318443838	-0.054646
O	 2.5648492792	-0.4522562919	-2.1292705128	-0.303248
C	 2.3672518108	-0.3040680153	-0.6777469313	-0.007572
C	 0.8455155314	-0.5282372209	-0.8979515314	 0.119733
O	-0.0339026135	-0.0047743063	 0.0632551405	-0.26314
H	-0.4437725215	 1.7457865934	 1.0025094242	 0.129044
H	-0.5208636271	 1.7963333397	-0.7973968529	 0.093983
H	 2.9693140673	 1.8147039489	-1.2002463685	 0.105285
H	 0.9262797243	 0.7370425146	-2.9660178492	 0.10124
H	 3.0613495444	-0.8068801727	-0.0058064859	 0.099508
H	 0.5353622633	-1.5314653833	-1.1899664484	 0.105285
