15
gdb 33325	3.00137	0.88608	0.71879	1.2829	95.51	-0.2322	-0.0166	0.2156	1520.7024	0.109771	-346.25277	-346.243748	-346.242804	-346.28695	33.471	
C	-0.0968347085	-3.813073448	-0.0286466704	-0.572681
C	-0.0626078904	-2.6056086796	-0.0121786229	 0.303839
C	-0.0275848028	-1.2468874426	 0.0054784546	-0.263985
C	 0.0092465759	-0.0363461402	 0.0305361412	 0.449876
C	 0.0238044964	 1.3895860168	 0.0363172882	-0.243545
C	 0.4870630858	 2.1571667672	 1.2580715377	-0.290328
C	 1.3559213392	 2.1714068369	 0.0227634574	-0.190258
C	 2.609854018	 1.4822987104	 0.0005244274	 0.338004
C	 3.6690372264	 0.9143021533	-0.0278397558	-0.450059
H	-0.1243586499	-4.874166687	-0.0415575089	 0.189739
H	-0.7669211916	 1.8563979881	-0.5445047042	 0.127361
H	-0.0485319027	 3.0644298107	 1.5126413845	 0.12933
H	 0.83873643	 1.5724977175	 2.0987354861	 0.146802
H	 1.321473254	 3.0801308464	-0.5709639544	 0.124995
H	 4.6000464603	 0.4043985301	-0.0502782005	 0.20091
