21
gdb 78492	2.44622	1.53673	1.26528	1.9473	82.5	-0.2365	0.0784	0.3149	1118.2784	0.181908	-387.054123	-387.045206	-387.044262	-387.087019	34.843	
C	-0.0605295431	 1.4145764889	-0.0004651022	-0.504847
C	 0.0400979403	-0.0821528313	-0.0171070405	 0.288193
C	 0.9607851582	-0.9397520838	-0.8891265447	-0.299809
C	 0.0805742173	-2.1429515453	-0.4716467194	-0.162026
C	 0.3322412266	-2.2993210104	 1.0579873547	 0.178031
O	 1.6237068553	-2.5579499519	 1.5533108125	-0.450495
C	-0.3245162504	-0.9363791738	 1.2170005523	-0.234522
C	-1.066278164	-1.1126983234	-0.0994038198	 0.315136
C	-2.5188507145	-1.0407881968	-0.4394546149	-0.530632
H	 0.8393549996	 1.8707691949	 0.4295107242	 0.118689
H	-0.1847205503	 1.8174652163	-1.0123234533	 0.117224
H	-0.9143032204	 1.7509673919	 0.5975854598	 0.118102
H	 0.8347385098	-0.6955606479	-1.9483543515	 0.096883
H	 2.0357257271	-0.9875080461	-0.6643001553	 0.070829
H	-0.0165271735	-3.0183670518	-1.1109789493	 0.067318
H	-0.3064079504	-3.0879248331	 1.4667410322	 0.085753
H	 2.1807762532	-1.8024574414	 1.341577283	 0.280516
H	-0.6954867405	-0.4701812373	 2.1225392512	 0.078384
H	-2.9810589505	-0.1559935209	 0.0117749737	 0.122538
H	-2.678818402	-0.9814631056	-1.5224804445	 0.120906
H	-3.0639281379	-1.9185280914	-0.0730806781	 0.12383
