21
gdb 101753	5.72514	0.48987	0.46783	2.3575	84.68	-0.2437	0.0562	0.2999	2335.9123	0.179654	-424.201216	-424.189883	-424.188938	-424.240251	39.067	
C	 0.062996755	 1.4824068073	 0.0812629934	-0.497176
C	 0.0443384515	 0.0263113972	 0.0668683181	 0.110018
C	 0.0421210904	-1.177867727	 0.0545622216	 0.022582
C	 0.0037905968	-2.6355328341	 0.0391267701	-0.358123
C	-1.4243376282	-3.1989751803	-0.1072956727	-0.202915
C	-1.4658213477	-4.724519228	-0.0567924689	 0.097709
O	-0.9379434868	-5.2406419038	 1.1742233511	-0.439381
C	-2.8693583185	-5.2970661971	-0.269050052	-0.067102
O	-2.8638598409	-6.7029291393	-0.1578121332	-0.424005
H	 0.6696502824	 1.8817909034	-0.739170838	 0.146854
H	-0.9464154522	 1.8955368328	-0.0243700261	 0.145492
H	 0.4804782535	 1.8677953433	 1.0182097217	 0.146091
H	 0.6241018957	-3.0156814659	-0.7837245418	 0.126428
H	 0.4487490978	-3.0370785245	 0.9571443606	 0.13484
H	-2.0600761301	-2.7883610075	 0.6890627723	 0.099944
H	-1.8584542021	-2.8560625222	-1.0534958143	 0.114535
H	-0.8048382867	-5.144051932	-0.8252752197	 0.098063
H	-1.418162901	-4.8164474445	 1.8962642856	 0.28274
H	-3.558941475	-4.8354676005	 0.4629388603	 0.071013
H	-3.2391647113	-5.0439013032	-1.2688095355	 0.107904
H	-2.2680455629	-6.8966369943	 0.5779544174	 0.284489
