19
gdb 5878	3.93286	1.18276	1.17304	2.3719	70.06	-0.2554	0.0237	0.2791	1132.8366	0.162823	-402.203044	-402.193496	-402.192552	-402.237368	34.584	
C	-0.2794002275	 1.3750704635	-0.0779178654	-0.404216
C	 0.141672805	-0.094249	-0.0759602559	 0.344376
C	 0.639784626	-0.537902932	 1.3043370808	-0.433351
O	-1.0191845652	-0.839519066	-0.4511532994	-0.466228
C	 1.2290742362	-0.3149639332	-1.1465956411	-0.098894
O	 1.5380369692	-1.7006430684	-1.2719960337	-0.191505
C	 0.8616765184	-2.3991757112	-2.2075439576	 0.114535
N	 0.8656774998	-3.6612675883	-2.1736711897	-0.446197
H	 0.5762883446	 2.0298671809	 0.1128422574	 0.114973
H	-0.7190785008	 1.6445331141	-1.0426634895	 0.123635
H	-1.0296094805	 1.550955511	 0.6973450878	 0.127983
H	-0.1703606665	-0.4605065294	 2.0347273103	 0.123404
H	 0.9894374018	-1.5745306881	 1.2718073651	 0.136282
H	 1.4728253874	 0.085651975	 1.6444281387	 0.116038
H	-0.8530326746	-1.7675011487	-0.2504072316	 0.294507
H	 0.8831287425	 0.0844235367	-2.1086111528	 0.105376
H	 2.1608400723	 0.1875896267	-0.8710245017	 0.114787
H	 0.3669141073	-1.7633287488	-2.9531026423	 0.094983
H	 0.3523419645	-4.0291917136	-2.9720579792	 0.229514
