18
gdb 92737	2.38958	1.54763	1.16403	2.1018	73.51	-0.2673	-0.0188	0.2485	1119.6018	0.147211	-439.149516	-439.140735	-439.139791	-439.183023	32.213	
C	-0.0610289664	 1.5134372298	 0.0282135263	-0.402958
C	 0.0209756838	-0.0256637797	-0.020565485	-0.141467
C	 0.7982944344	-0.5321721094	-1.2462067183	-0.186705
N	 2.234258712	-0.3114137171	-1.1432764513	-0.275875
C	 2.7461141669	-0.330752261	 0.0090627995	 0.400282
C	 4.2049682834	-0.1462056795	 0.2785647737	-0.456414
O	 2.0649314446	-0.562787748	 1.2025809503	-0.248694
C	 0.6849366231	-0.537822214	 1.2404865623	 0.421212
O	 0.1331554863	-0.8692558244	 2.2471823818	-0.311812
H	 0.9329392558	 1.9694868874	 0.0131368639	 0.136194
H	-0.6116111645	 1.8798109053	-0.843288912	 0.127488
H	-0.5812255399	 1.8469175317	 0.9297335529	 0.140012
H	-0.9934663052	-0.432898	-0.0194297624	 0.11159
H	 0.6240009188	-1.6075042292	-1.3920102847	 0.123467
H	 0.4331243939	-0.0340758634	-2.1503500931	 0.117334
H	 4.3636327164	 0.7122530109	 0.9391273471	 0.14571
H	 4.6061632957	-1.0255139278	 0.7923981083	 0.150194
H	 4.733228741	 0.0062704383	-0.6615769492	 0.150443
