18
gdb 67895	2.42379	1.82629	1.33857	4.1962	75.4	-0.2204	-0.0137	0.2067	1001.977	0.147098	-401.899726	-401.892012	-401.891067	-401.931638	30.804	
C	-0.0241831139	 1.5415833194	-0.0146212479	-0.494695
C	 0.0030466147	 0.0309133869	 0.0154319752	 0.348961
C	-1.3473663994	-0.7507876608	-0.0237661931	-0.411408
C	-0.9023391569	-1.5248019411	 1.2360453008	 0.441309
O	-1.4293221117	-2.3365557016	 1.9371485019	-0.307159
C	 0.4420165708	-0.7621226037	 1.3080053935	-0.220762
C	 1.6097024783	-1.3678506474	 0.4962598262	-0.04399
N	 1.0177844035	-2.101517352	-0.6499671915	-0.342704
C	 1.1957768328	-0.6339162156	-0.7289233922	-0.104856
H	 0.964011776	 1.960540796	 0.2072977282	 0.118842
H	-0.3268477493	 1.9118176015	-1.0016161591	 0.122054
H	-0.7298237361	 1.9405351205	 0.72174568	 0.12062
H	-2.2200338103	-0.1186480594	 0.1743538198	 0.120034
H	-1.5411987463	-1.3753018224	-0.8973711206	 0.137906
H	 0.7079815715	-0.2635338628	 2.2410486527	 0.088453
H	 2.5911994992	-1.6291683329	 0.870900401	 0.101033
H	 1.7852157195	-2.5329228656	-1.1631357678	 0.234637
H	 1.7904937178	-0.187901679	-1.5182407672	 0.091725
