15
gdb 24174	3.9946	1.74661	1.21525	2.899	84.49	-0.1964	-0.0395	0.1569	951.5405	0.117104	-379.744655	-379.738642	-379.737698	-379.774792	24.966	
C	-0.0217888254	 1.3893734165	 0.0100476954	-0.13766
C	 1.2818934886	 1.8537149209	 0.0000277237	-0.124918
N	 2.1116193949	 0.7657405469	-0.0136641888	-0.058725
C	 3.4723372162	 0.6681403198	-0.0272012944	 0.020216
C	 4.043771085	-0.5672668046	-0.0391786872	-0.171584
C	 3.1961707859	-1.7124362572	-0.0370998856	-0.03187
N	 1.8869665	-1.6428441079	-0.0242087854	-0.31789
C	 1.3180379543	-0.4231827753	-0.012334499	 0.412696
C	-0.0089610597	-0.0200926428	 0.0024481443	-0.282859
H	-0.8984850213	 2.0197250597	 0.0217629307	 0.107648
H	 1.6820336153	 2.8549680991	 0.0014897383	 0.123171
H	 4.0255116573	 1.5999442686	-0.0275805092	 0.133009
H	 5.1206642593	-0.6707919218	-0.0500279434	 0.110154
H	 3.6360918369	-2.7068098085	-0.0465554022	 0.108626
H	-0.8544239874	-0.6883625235	 0.0069830431	 0.109987
