20
gdb 87057	2.44822	1.3537	1.0948	0.7998	86.36	-0.2253	0.0359	0.2613	1215.7687	0.168845	-365.932189	-365.922796	-365.921851	-365.966133	35.806	
C	-0.1920050383	 1.4295367077	-0.0591230227	-0.317105
N	 0.0385816367	-0.0035949499	 0.0613099677	-0.12308
C	 1.3819335181	-0.4909918177	-0.1910398902	-0.278594
C	 0.8184615972	-0.5218065917	 1.2058496657	 0.147051
C	 1.3815275414	 0.405237559	 2.1582762307	 0.271697
C	 1.8225233605	 1.163417996	 2.9825680618	-0.462589
C	 0.3012960055	-1.822361282	 1.764740862	-0.025716
C	 1.0096564223	-2.5386615047	 2.8863526898	-0.279109
C	-0.336826637	-1.9035759945	 3.127936229	-0.277651
H	 0.6569619644	 2.0478930311	 0.2667882747	 0.113509
H	-0.4075683737	 1.6553390722	-1.1081493398	 0.12297
H	-1.0665079127	 1.7046826364	 0.5379409874	 0.128035
H	 1.4599059716	-1.4200655317	-0.7511404134	 0.116004
H	 2.1681606157	 0.2360583097	-0.3885026991	 0.113369
H	 2.2261098728	 1.8345955627	 3.6999903879	 0.19676
H	-0.1397394898	-2.4401245021	 0.9894941309	 0.089247
H	 1.0777912006	-3.6196692418	 2.8365735901	 0.109846
H	 1.873629776	-2.052139394	 3.3253890952	 0.121714
H	-0.3597722102	-1.0000475084	 3.7268247039	 0.122833
H	-1.2035730712	-2.5445291962	 3.2434587682	 0.11081
