17
gdb 125498	2.40403	1.46098	0.91912	4.7839	80.31	-0.2529	-0.0417	0.2112	1249.0657	0.135622	-418.060953	-418.052192	-418.051248	-418.094482	31.536	
C	 0.0010187315	 1.5251816979	 0.0601493681	-0.506572
C	 0.0098086745	 0.0349382909	-0.0566091986	 0.424638
C	 0.0081506833	-0.7620998119	-1.1652582324	-0.397594
C	 0.0197155982	-2.1083027493	-0.680579871	 0.38052
C	 0.0228385198	-3.3704656305	-1.4809073287	-0.490327
N	 0.0279645406	-2.1450006301	 0.6360964547	-0.29279
N	 0.0219227607	-0.8321958315	 1.0267961085	-0.098354
C	 0.0279381007	-0.4800816698	 2.379088862	 0.181406
O	 0.03919143	-1.2536793025	 3.2942945513	-0.26546
H	 0.8859080729	 1.9053306235	 0.5820911133	 0.146922
H	-0.0078978446	 1.9620409829	-0.9405242563	 0.144713
H	-0.8821881611	 1.8940531206	 0.5929194571	 0.146917
H	-0.0002126128	-0.4317244931	-2.1923494393	 0.110484
H	 0.9002363491	-3.4199456118	-2.1349495245	 0.133978
H	 0.0336654074	-4.2341938297	-0.8138804871	 0.150924
H	-0.8631184936	-3.4323455084	-2.1222497546	 0.134018
H	 0.0223969931	 0.6172090028	 2.5003297375	 0.096577
