18
gdb 106510	3.33235	1.43965	1.24266	2.4249	71.14	-0.2506	0.0069	0.2576	1033.2645	0.149798	-439.07797	-439.07063	-439.069686	-439.109627	29.463	
O	 0.0298197364	 1.4026382148	-0.1288897827	-0.42327
C	 0.03985549	 0.0042905553	 0.0725143501	-0.142658
C	-1.3611917136	-0.5636883964	-0.0122515107	 0.303218
C	-2.1230660421	-0.6551886385	-1.3724054368	-0.267547
C	-2.9090156849	-1.8015938036	-0.6934434326	 0.104224
C	-1.6378029027	-2.0905442264	 0.1410085796	-0.289106
O	-3.921426075	-1.2373009988	 0.1736010073	-0.235572
C	-3.4300039729	-0.2399758923	 0.9409128165	 0.105454
N	-2.2279471118	 0.1650181369	 0.935273234	-0.308075
H	-0.6551537712	 1.737144883	 0.4660369961	 0.291227
H	 0.6748135921	-0.4320684378	-0.7063842187	 0.096974
H	 0.4743557946	-0.2621402082	 1.0509518286	 0.086412
H	-2.6777216982	 0.2223215603	-1.7075144419	 0.116106
H	-1.4862399629	-1.0372351799	-2.1731008768	 0.110368
H	-3.4046126588	-2.5799804131	-1.2708865821	 0.092649
H	-0.9272121671	-2.6965211673	-0.4256139368	 0.111005
H	-1.765612917	-2.4890491002	 1.1492969409	 0.112901
H	-4.193853575	 0.1921792223	 1.5821001459	 0.135689
