20
gdb 22704	2.27173	1.3846	1.03526	1.2616	83.63	-0.2332	0.0385	0.2716	1239.8386	0.170202	-403.05758	-403.048582	-403.047638	-403.091316	34.207	
C	-0.0519183207	 1.547592359	 0.0156843071	-0.387786
C	 0.008569023	 0.0166275347	-0.0601062611	-0.314083
C	 0.7171590888	-0.4819454173	-1.2906896845	 0.255342
C	 2.2023613283	-0.2150062638	-1.7520373705	-0.262494
C	 1.6073676253	-1.1167291424	-2.8862659858	-0.14271
C	 0.9711720248	-1.9706529613	-1.737156462	-0.27757
C	 0.3695094703	-0.2490875929	-2.753065065	 0.480078
N	-0.5241470044	 0.3692891206	-3.3902146053	-0.338449
O	-0.3416735474	 0.2262883699	-4.7938389334	-0.404729
H	 0.9526817433	 1.981882117	 0.0526609939	 0.115968
H	-0.563549616	 1.9581477805	-0.8595506174	 0.143718
H	-0.5893186751	 1.8732738943	 0.911100172	 0.111933
H	 0.5111592859	-0.3862823404	 0.8283101088	 0.099528
H	-1.008711129	-0.3943005205	-0.0535919023	 0.109683
H	 2.4662120501	 0.8098703871	-2.0190280311	 0.10971
H	 2.9707488605	-0.6902423737	-1.1349910441	 0.096867
H	 2.0978031477	-1.4673154228	-3.7896973926	 0.097902
H	 1.6842950553	-2.5249445582	-1.119760844	 0.096934
H	 0.092848066	-2.5691474583	-1.9872799762	 0.108386
H	-1.0810680465	 0.7381153788	-5.1377766164	 0.301771
