15
gdb 22466	3.23536	0.93249	0.75442	3.5859	75.49	-0.2541	-0.0462	0.2079	1435.1373	0.109371	-453.852134	-453.842562	-453.841617	-453.887632	33.331	
O	 0.2023542414	 0.8002308686	 0.3920922729	-0.377697
N	 0.0865762253	-0.5171199188	-0.0105571853	-0.138944
C	-1.1322411329	-0.8863075063	-0.1629470489	 0.14838
C	-1.3982370615	-2.3216501045	-0.5908815879	-0.178249
O	-0.2420200288	-3.0397587184	-0.9578252713	-0.164181
C	 0.5146919164	-3.5282970449	 0.0516842289	 0.143558
N	 1.5714134861	-4.1614220319	-0.2117754774	-0.442382
C	-2.2788368756	-0.0716041292	 0.0507661349	 0.322787
C	-3.2923176709	 0.5573858851	 0.2134479669	-0.439493
H	 1.1581642872	 0.9213315875	 0.4340762877	 0.316712
H	-1.9494141416	-2.8347643495	 0.2115751626	 0.128132
H	-2.0472251027	-2.3142505406	-1.4713766607	 0.149492
H	 0.0982349298	-3.3266522241	 1.0473582461	 0.089402
H	 2.0109434385	-4.4766815267	 0.6503260711	 0.229554
H	-4.1734766007	 1.1324140535	 0.3617145304	 0.21293
