23
gdb 97918	4.40823	0.53548	0.50184	1.2523	92.47	-0.2407	0.0364	0.2771	2260.7283	0.202687	-388.265135	-388.253376	-388.252432	-388.304691	40.778	
C	 0.1566240177	 1.613081719	 0.1269463309	-0.396313
C	-0.0224151421	 0.1069534056	-0.0869893148	-0.163681
C	 0.7663803362	-0.4703839526	-1.2756734581	 0.052359
C	 2.2842496686	-0.3386363765	-1.1022892344	-0.392968
C	 0.362073369	-1.9504833042	-1.4958671873	-0.365692
C	 0.9351884317	-2.5513463537	-2.6946119922	 0.01597
C	 1.4184489126	-3.0208022855	-3.6927996166	 0.153134
C	 1.9806674422	-3.6011892378	-4.9048957834	-0.217568
O	 3.3988861963	-3.6680308663	-4.7925691161	-0.410136
H	 1.1880669094	 1.8699668467	 0.3855539446	 0.120495
H	-0.1093744488	 2.1743477468	-0.7759664371	 0.113994
H	-0.4837272984	 1.9700274376	 0.9396732744	 0.112121
H	 0.2657254422	-0.4302538878	 0.8276713639	 0.092481
H	-1.0893270629	-0.1043749546	-0.2381288831	 0.089777
H	 0.473847327	 0.0820704476	-2.1793482509	 0.078818
H	 2.8121636067	-0.8013044017	-1.9406014663	 0.136958
H	 2.5952756449	 0.7081326858	-1.0464330868	 0.112513
H	 2.6151112161	-0.8357002237	-0.1817009408	 0.107978
H	 0.6571434003	-2.5371895099	-0.6142775119	 0.123997
H	-0.7323751387	-2.0198437506	-1.5510542671	 0.121687
H	 1.5478168897	-4.6033868567	-5.0597073072	 0.113685
H	 1.6811898972	-2.9900752831	-5.7723481594	 0.112629
H	 3.7317006931	-4.0534666144	-5.6095799707	 0.287762
