19
gdb 2727	13.92568	0.83027	0.80335	0.136	66.22	-0.2497	0.0864	0.3361	1453.3778	0.169159	-348.035847	-348.026493	-348.025549	-348.070595	30.882	
C	-0.8280309753	 1.3175112234	-0.0056155719	-0.384937
C	 0.0055669639	 0.0518559487	 0.0988658867	-0.02454
O	 0.6108335607	-0.1952596588	-1.1536076416	-0.246038
C	 1.4106628926	-1.3540419366	-1.166417077	-0.066978
C	 1.9943328774	-1.498740693	-2.5633469695	-0.067676
O	 2.7944968335	-2.6581529041	-2.5752601101	-0.232555
C	 3.3934034752	-2.8970089242	-3.8252698361	-0.224289
H	-0.1995638977	 2.1694465593	-0.2803984972	 0.12612
H	-1.6035320469	 1.204427778	-0.7685615535	 0.126115
H	-1.3110557056	 1.536131857	 0.9514352527	 0.114249
H	 0.7784435149	 0.1598885302	 0.8789533401	 0.085658
H	-0.6253939244	-0.8049860385	 0.3908280144	 0.085658
H	 2.2275999604	-1.2846927912	-0.429713639	 0.093881
H	 0.8200683557	-2.2507833554	-0.9175310001	 0.093883
H	 1.1784795371	-1.5693551301	-3.301247335	 0.093774
H	 2.5860874504	-0.6028497751	-2.8130117011	 0.093763
H	 2.6420948831	-3.0381965605	-4.6186475292	 0.103929
H	 4.05583951	-2.0697480136	-4.1263744614	 0.103939
H	 3.9874186749	-3.8098555453	-3.7355225111	 0.126043
