21
gdb 114207	2.73759	1.1935	0.98129	0.5111	79.19	-0.2312	0.0657	0.2969	1306.7829	0.180797	-424.196147	-424.186613	-424.185669	-424.230873	35.794	
C	 0.338374466	 1.3998421868	 0.1960163715	-0.385155
C	 0.1231408003	-0.1063245094	 0.0201372196	-0.188066
C	 0.4135007191	-0.563391008	-1.3986999807	 0.105516
O	 1.8119548296	-0.3857578553	-1.7706085344	-0.323933
C	 1.992544224	-1.7925066119	-1.9197431391	 0.420126
C	 2.9685735841	-2.3829098398	-2.8750815365	-0.340696
C	 3.1847477937	-2.5168035693	-1.3723960966	-0.343765
C	 0.5194469707	-2.0963137908	-1.662011258	-0.027612
O	 0.1892360902	-3.0035782908	-0.644142329	-0.42242
H	 1.3628903196	 1.6719568679	-0.0730176877	 0.136593
H	-0.3406762184	 1.9733823363	-0.4445034345	 0.115129
H	 0.1620336349	 1.7070896263	 1.23101085	 0.111966
H	 0.7712208585	-0.6513527981	 0.718239161	 0.082978
H	-0.9092881536	-0.3827026599	 0.2673762861	 0.108076
H	-0.2322034665	-0.0311226353	-2.1092886576	 0.075711
H	 2.6768049076	-3.2633352283	-3.4387222416	 0.119224
H	 3.6123004736	-1.6914885815	-3.4082412951	 0.126102
H	 3.9679917296	-1.9140997235	-0.9255133639	 0.124611
H	 3.030581413	-3.4894298822	-0.9148916617	 0.118352
H	-0.0351722766	-2.4229095543	-2.5446508025	 0.101212
H	 0.7700812208	-2.8354686891	 0.1059657108	 0.286051
