16
gdb 75993	2.13409	1.61819	1.0619	3.8899	72.7	-0.2445	0.0103	0.2548	1129.5753	0.122005	-437.862175	-437.852752	-437.851808	-437.896723	33.289	
C	-0.0831667953	 1.4027756497	-0.0159378121	-0.349828
N	 0.0075251678	-0.0340698634	 0.0374749064	-0.046875
C	-1.0324120645	-1.0686799435	-0.0193179942	-0.26139
C	-1.7948535777	-1.0999091785	-1.2562961292	 0.338652
C	-2.3834199904	-1.1440544275	-2.3044547405	-0.43701
C	 0.1548284544	-2.1302722705	 0.044517996	 0.007581
O	 0.2280539284	-3.1337416347	-0.9067212789	-0.406983
C	 1.0871511917	-0.8829095483	-0.0470880306	 0.345074
O	 2.2666434813	-0.6748667804	-0.1476455218	-0.365951
H	 0.9357574178	 1.7936962207	-0.0673999832	 0.164871
H	-0.6371082659	 1.7308710534	-0.9030996885	 0.139318
H	-0.5757578112	 1.8078708557	 0.8756675092	 0.132004
H	-1.6972511886	-1.0719245749	 0.8522390763	 0.108895
H	-2.9243652039	-1.1744057907	-3.2185342717	 0.210765
H	 0.2088950254	-2.6099714036	 1.0248131626	 0.127877
H	 0.1184211507	-2.7410158036	-1.7814148697	 0.292998
