12
gdb 130249	3.15427	1.54037	1.03842	6.3782	61.09	-0.2582	-0.0706	0.1876	1034.9099	0.077113	-505.932637	-505.925046	-505.924101	-505.965325	27.698	
N	 0.1382528921	 1.4043713229	 0.0224878511	-0.551995
C	-0.0334546334	 0.0468206291	-0.0026949166	 0.506737
N	-1.1978861278	-0.4655071492	-0.1535282004	-0.222735
O	-1.2396607261	-1.8708468024	-0.3610728018	-0.2431
C	-0.1643030598	-2.6728384886	-0.1648494101	 0.418753
O	-0.2717863672	-3.8562780405	-0.2799442669	-0.280641
C	 1.1403711471	-1.990974523	 0.1732255104	 0.249152
N	 2.1711467574	-2.6490439343	 0.4538956073	-0.451159
O	 1.1495635654	-0.6077301222	 0.1112084186	-0.22727
H	 0.8563352582	 1.736509388	 0.6498806993	 0.273681
H	-0.727712617	 1.9217890336	 0.0620350655	 0.283738
H	 2.9641281912	-2.0316106633	 0.6404230835	 0.24484
