21
gdb 103511	2.75154	1.31344	1.26748	1.7511	82.52	-0.2441	0.0014	0.2455	1149.524	0.182033	-387.083096	-387.074293	-387.073348	-387.116205	34.378	
C	-0.1140213933	 1.5507164267	-0.1258356053	-0.398949
C	 0.0462471123	 0.0307425604	-0.0168608627	-0.197625
C	 0.7602948581	-0.4823311422	 1.2581167551	 0.2176
C	 2.2225033085	-0.0037223892	 1.3276480301	-0.435798
C	 0.016562659	-0.1290020154	 2.5427557237	-0.106713
C	-0.3151258488	-1.1983512779	 3.2705464474	-0.106297
C	 0.0888714329	-2.4460803596	 2.5579625311	-0.010688
O	-0.5695865402	-2.6049963873	 1.2751000256	-0.265318
C	 0.7311941959	-2.0192195097	 1.3053091884	 0.006899
H	 0.8501324743	 2.0689616996	-0.1249283403	 0.115328
H	-0.6234810962	 1.8119235764	-1.0585392004	 0.115973
H	-0.7124964265	 1.95592179	 0.6963384409	 0.117026
H	-0.9370490685	-0.44761093	-0.0588463569	 0.119651
H	 0.6079704442	-0.333620895	-0.8872775101	 0.091215
H	 2.2849458908	 1.0819021882	 1.4442965491	 0.120251
H	 2.7404172703	-0.4574708014	 2.1785118646	 0.119005
H	 2.7631147551	-0.2760859502	 0.4133390706	 0.112854
H	-0.2151808519	 0.8976411687	 2.8042267587	 0.10051
H	-0.8339373501	-1.189443452	 4.2212985587	 0.101476
H	 0.3112878292	-3.3743700255	 3.0750394361	 0.096194
H	 1.5124802349	-2.5875987946	 0.8042367458	 0.087407
