17
gdb 64069	2.46756	1.52975	1.19293	3.1822	68.35	-0.2393	-0.0989	0.1404	1070.8043	0.133869	-459.001737	-458.992924	-458.99198	-459.035134	32.959	
C	 0.2404866657	 1.5436937157	 0.0608951793	-0.427073
C	-0.0898907432	 0.0403977243	-0.0344812128	 0.290958
O	-1.484971966	-0.1585376888	-0.056549058	-0.477638
C	 0.600315195	-0.6306245246	-1.2445326901	-0.271935
C	 2.0437282992	-0.9447148902	-0.7853674434	-0.346567
C	 1.9440007378	-1.1941157588	 0.7144535005	 0.333707
O	 2.7493802513	-1.699710132	 1.4468313993	-0.275207
C	 0.5422050128	-0.6845274974	 1.1510803418	 0.261973
O	 0.0019727585	-0.8905120158	 2.2062392729	-0.306037
H	 1.3176046718	 1.7415950862	 0.0512037884	 0.119014
H	-0.2141005459	 2.0550117298	-0.7921530688	 0.138487
H	-0.1756226575	 1.960976896	 0.9823819147	 0.133976
H	-1.7589851374	-0.2797493775	 0.863926114	 0.290926
H	 0.0599095142	-1.555712951	-1.4661901319	 0.128193
H	 0.5659156529	-0.002736603	-2.1376685645	 0.116687
H	 2.4976607764	-1.7992728994	-1.2923114815	 0.145477
H	 2.7146614843	-0.0908027533	-0.9435884001	 0.145057
