23
gdb 108321	2.87934	1.26032	1.04001	0.8998	85.72	-0.2358	0.0821	0.3179	1277.0567	0.205073	-388.261093	-388.25168	-388.250736	-388.295149	36.043	
C	-0.0310057665	 1.4144642479	 0.1021384745	-0.262499
O	-0.0006857433	 0.0022476639	 0.0969170364	-0.296792
C	-1.2639763754	-0.5841045802	-0.0081178944	 0.469763
C	-2.2374806037	-0.486212441	 1.1908613812	-0.291038
C	-2.5397670833	-2.0077767242	 1.0246952917	-0.237948
C	-1.389981973	-2.1403766666	-0.0218546849	-0.10672
C	-1.7943162851	-2.0944738403	-1.5198995567	 0.049463
C	-2.9618329299	-2.9200231932	-2.0392037715	-0.414904
C	-1.9422184795	-0.5422549454	-1.4182117917	-0.320378
H	 1.0028322847	 1.7592906936	 0.1794008194	 0.12492
H	-0.4707891191	 1.820299324	-0.8209668206	 0.106141
H	-0.6001474297	 1.8088447708	 0.956901115	 0.108096
H	-1.6932352968	-0.278728192	 2.1166504886	 0.103722
H	-3.0792134749	 0.2077474314	 1.1086600516	 0.088841
H	-2.3968463812	-2.6000544162	 1.9303606609	 0.104465
H	-3.5361555235	-2.2284690465	 0.6350916795	 0.100279
H	-0.562911294	-2.7913585881	 0.2640254312	 0.065246
H	-0.9038247058	-2.3238493622	-2.1152877581	 0.077284
H	-3.8873910338	-2.7109005998	-1.4925143305	 0.113135
H	-3.1524772118	-2.7018228229	-3.0960663111	 0.113564
H	-2.7593527169	-3.9936626469	-1.9532030855	 0.113333
H	-2.9782902672	-0.1888037116	-1.40343832	 0.089728
H	-1.3906452204	 0.0258440856	-2.1707731651	 0.102298
