14
gdb 49354	1.8507	1.48541	1.11496	3.9972	73.44	-0.2661	-0.0476	0.2185	1130.504	0.098534	-399.518327	-399.509611	-399.508667	-399.552283	30.93	
O	 0.0370930792	-0.0429661695	 0.3720155229	-0.252504
C	 0.0143659132	 1.0948569083	-0.0210757407	 0.164863
C	 1.2372776232	 1.9505256751	-0.0635779357	-0.147248
C	 1.4470258708	 2.9357226906	-1.2134015863	-0.226519
C	 0.4914292131	 3.0642211242	-2.2739749679	 0.334674
C	-0.2911797273	 3.1851143182	-3.1773957273	-0.423642
C	 1.1404728279	 3.4549875122	 0.184659187	-0.204718
C	-0.124945823	 4.0758626973	 0.467114862	 0.306586
N	-1.1305981985	 4.5935205404	 0.7066114932	-0.323903
H	-0.9169438632	 1.5759658994	-0.3799859734	 0.117721
H	 2.1245559411	 1.4628429338	 0.323608274	 0.134359
H	 2.4836752999	 3.0551861095	-1.5141045591	 0.146925
H	-0.9906844048	 3.2933508429	-3.9697828974	 0.216542
H	 1.9731169884	 3.8919271876	 0.7253835987	 0.156864
