16
gdb 85219	2.52992	1.27547	0.92698	2.8728	67.55	-0.2671	-0.0156	0.2515	1238.2663	0.122803	-475.039736	-475.030797	-475.029853	-475.07455	30.886	
C	-0.2506321469	 1.536260135	 0.0056871925	-0.396646
C	 0.0749110979	 0.0625827942	-0.0415185319	 0.097271
O	 1.3913897113	-0.1996640146	-0.6676733615	-0.248418
C	 1.9143692491	-0.7008402044	 0.4881775158	 0.438257
O	 3.028369165	-1.0490634022	 0.7143035226	-0.321802
C	 0.5786461928	-0.609643801	 1.2539447583	-0.087932
O	 0.5370257588	 0.2102251416	 2.3955605585	-0.192887
C	 1.2426074505	-0.2242204575	 3.4753668311	 0.124087
N	 1.1829872795	 0.4352126218	 4.545559313	-0.430804
H	 0.5156535212	 2.091638137	 0.5498728616	 0.14851
H	-0.3277829659	 1.9325999995	-1.0102171137	 0.137617
H	-1.2076592561	 1.6877483174	 0.5134905865	 0.141672
H	-0.6851188014	-0.5137174258	-0.5738353158	 0.109398
H	 0.1366659553	-1.5936973696	 1.448632038	 0.123628
H	 1.8214209182	-1.1343852708	 3.2840388695	 0.119899
H	 1.7653514906	-0.0013637807	 5.2572190157	 0.238151
