18
gdb 78775	2.64297	1.78296	1.34583	2.6456	70.8	-0.245	0.0565	0.3015	981.9259	0.14674	-439.015785	-439.007552	-439.006608	-439.047884	32.446	
C	-0.1043966244	 1.5909817262	 0.0517263792	-0.480903
C	 0.0760694153	 0.0818626843	 0.0212918363	 0.431951
O	-1.1872895761	-0.5714164141	 0.0855498187	-0.475727
C	 0.8486454071	-0.6042276151	-1.0919350489	-0.071133
C	 2.2939448265	-0.6836259365	-0.7309946391	-0.117494
C	 2.5026784374	-0.1215483834	 0.6682885879	 0.121468
O	 2.7499103213	 1.2431497881	 0.9190211696	-0.431385
C	 1.0932989378	-0.6532441424	 0.944139375	-0.118765
N	 1.324567499	-1.7083494818	-0.1932598095	-0.153815
H	 0.8441554335	 2.1138075491	-0.0634317068	 0.146935
H	-0.7925582193	 1.8880024451	-0.7460429395	 0.11896
H	-0.5431007068	 1.9044119016	 1.0077475927	 0.104214
H	-1.656804627	-0.2165420856	 0.8480639557	 0.276313
H	 0.4916419933	-0.8132266206	-2.0943693868	 0.099994
H	 3.0484556552	-0.963857949	-1.4581256107	 0.093736
H	 3.2321725086	-0.7550947591	 1.1903288498	 0.090034
H	 3.6980171726	 1.3966006202	 0.8671686535	 0.287497
H	 0.7876386259	-0.984702327	 1.9352573329	 0.078119
