16
gdb 37956	3.06349	2.03773	1.54392	3.9397	68.17	-0.237	-0.0104	0.2266	860.7675	0.125972	-437.802904	-437.796492	-437.795548	-437.833388	26.301	
C	 0.0293028167	 1.4107582106	-0.0126703729	-0.064487
C	 1.4613898941	 2.0586058774	 0.0873952037	-0.205172
N	 2.3180994888	 1.1347203147	 0.8334012012	-0.252023
C	 2.4842375422	 0.1124449435	 0.1263888239	 0.399579
O	 2.5471031535	-1.2030870646	 0.5454853548	-0.259579
C	 1.9104350346	-1.5813466349	-0.7044604534	 0.045215
C	 0.6918611804	-0.6865148698	-1.0364761349	 0.091513
O	-0.027742485	-0.0270009002	-0.0439182949	-0.241452
C	 2.0915413134	-0.2286911682	-1.3110700277	-0.320871
H	-0.5394237335	 1.6585822986	 0.8851929821	 0.131802
H	-0.4948744639	 1.8319737763	-0.8809861326	 0.100425
H	 1.8463325969	 2.282827946	-0.9168318263	 0.106405
H	 1.3701999379	 3.008453281	 0.6204500572	 0.114185
H	 2.0755584389	-2.5873838177	-1.064633107	 0.127016
H	 0.0986758713	-1.035544133	-1.8827466845	 0.104154
H	 2.5177715337	 0.1291917903	-2.2377861289	 0.12329
