14
gdb 3208	3.87652	3.19642	2.05101	3.6287	58.22	-0.235	0.0136	0.2486	648.7055	0.113804	-324.566515	-324.56009	-324.559146	-324.59675	23.436	
C	-0.1016640295	 1.3322256151	-0.1958655753	-0.34524
N	-0.0344244697	-0.031885051	 0.2842531217	-0.09348
C	-1.0613765796	-1.0710853279	 0.1856014772	-0.001016
C	-0.9723022833	-1.7959545232	-1.1228708212	-0.289502
C	 0.0232732069	-2.1115668713	-0.0036689865	-0.219188
C	 1.0058070917	-0.9442094871	 0.0675917264	 0.413378
O	 2.1896870254	-0.7837612729	-0.0461801516	-0.359726
H	 0.9206914516	 1.7137759141	-0.2538050861	 0.157971
H	-0.5611683308	 1.4007972702	-1.1918529771	 0.118841
H	-0.6708081298	 1.9621873772	 0.4949010481	 0.12904
H	-1.9050864608	-1.0934115639	 0.8627514169	 0.115038
H	-1.7121292514	-2.5707170411	-1.3052609173	 0.125922
H	-0.6387082204	-1.2715624027	-2.0136520111	 0.128641
H	 0.1226313397	-3.0920531155	 0.4381579659	 0.11932
