17
gdb 49796	2.65614	1.54656	1.00365	1.7517	79.22	-0.2262	-0.0203	0.2058	1147.5049	0.138327	-418.063153	-418.055336	-418.054392	-418.095656	29.653	
N	-0.0219277495	 1.3310741188	-0.0899999371	-0.467195
C	-0.0055681994	 0.0617360579	-0.0578978545	 0.088837
N	-1.1871931317	-0.679710784	 0.0547373189	-0.146601
C	-2.4327513749	-0.0119598394	 0.118300961	 0.042831
C	-3.562826921	-0.6331574192	 0.4470933725	-0.137572
C	-3.5715694481	-2.1016856693	 0.7681245952	-0.276543
C	-2.4340726378	-2.8057891575	 0.0161592008	-0.323653
C	-1.1001391084	-2.0825860429	 0.0870044502	 0.419704
O	-0.0341608537	-2.6573231045	 0.1132919185	-0.352131
H	 0.9256459317	 1.6897240179	-0.1872716155	 0.234572
H	 0.8651673437	-0.5907174746	-0.1118508087	 0.14506
H	-2.3520776713	 1.0448006269	-0.0941172492	 0.154632
H	-4.4816594785	-0.0615136034	 0.5005170225	 0.104998
H	-3.4614558092	-2.251943558	 1.8522350341	 0.12409
H	-4.5284380518	-2.5585312849	 0.4966912549	 0.116681
H	-2.2652018875	-3.8269133583	 0.3619052115	 0.134245
H	-2.6907070526	-2.8608661954	-1.0510031153	 0.138044
