21
gdb 65205	3.01834	1.35085	1.20777	1.7996	81.14	-0.2448	0.0873	0.3322	1136.0578	0.182412	-387.042913	-387.034476	-387.033532	-387.075827	33.221	
C	 0.0231276621	 1.5740342973	-0.5136029392	-0.463012
C	-0.0076651633	 0.1261220065	-0.0754139058	 0.409229
C	 1.1643034212	-0.7301419642	-0.311596561	-0.234878
O	 0.9059604461	-0.19541014	 0.9902013405	-0.270412
C	-1.3878250135	-0.4924109357	 0.0249059001	-0.059446
C	-1.5801801098	-1.8674628709	 0.7523045961	-0.268346
C	-2.6180913673	-1.2110467609	 1.6733479845	-0.047067
C	-1.9943742564	-0.073395879	 2.4293634844	-0.280911
C	-2.4040156504	 0.1415223258	 0.9951292882	-0.065978
H	 1.0485935216	 1.9508139218	-0.5307974231	 0.124439
H	-0.4084000351	 1.6863929582	-1.5143602834	 0.117399
H	-0.5594656033	 2.1939197861	 0.1754965725	 0.133238
H	 1.0408908115	-1.8083892094	-0.405747303	 0.110004
H	 2.038852062	-0.3211464747	-0.8165255019	 0.108394
H	-1.8107800249	-0.5386874753	-0.984832999	 0.076047
H	-1.997130819	-2.6303064808	 0.0914925499	 0.097683
H	-0.6983097104	-2.2721280642	 1.2565192416	 0.110213
H	-3.5493322804	-1.6665625625	 1.9863581033	 0.082712
H	-2.6399977688	 0.4050503404	 3.1592198912	 0.105539
H	-0.9455672753	-0.106732475	 2.7059281256	 0.135669
H	-3.1422225568	 0.8855643964	 0.7201446383	 0.079484
