19
gdb 18698	3.01976	2.17856	1.39473	1.4516	77.37	-0.2263	0.0227	0.2489	932.5219	0.167693	-327.921419	-327.914019	-327.913075	-327.952807	28.996	
C	-0.0907879984	 1.5101339259	 0.083449519	-0.487406
C	-0.0040895096	 0.0123476777	-0.0011153713	 0.362333
C	-0.0290479395	-0.6688965502	-1.1500330817	-0.15105
C	 0.091263035	-2.1725456827	-1.2288950618	-0.254745
C	 0.9438246107	-2.750987836	-0.0821389101	-0.210004
C	 0.5785360424	-2.1370095396	 1.2642705382	-0.030412
N	 1.474345004	-1.0681935097	 1.7606504035	-0.33876
C	 0.1061224616	-0.7320686233	 1.2866834173	-0.130594
H	 0.8032682414	 1.9229458521	 0.5673871799	 0.133159
H	-0.1860372821	 1.9656749522	-0.9060781344	 0.117598
H	-0.9500649592	 1.8282294655	 0.6885744728	 0.115798
H	-0.1361143776	-0.1279814247	-2.0881732144	 0.077034
H	-0.9122318455	-2.624086686	-1.2163868871	 0.106284
H	 0.5287242296	-2.459794716	-2.1915724003	 0.100653
H	 0.8356488804	-3.840209769	-0.0451394096	 0.090101
H	 1.9987551272	-2.5354582551	-0.2776531678	 0.116666
H	 0.1605432477	-2.8120549909	 2.0070790065	 0.079623
H	 1.4824217408	-1.0769449317	 2.7787501828	 0.224265
H	-0.6160539891	-0.4469333486	 2.0510685486	 0.079459
