18
gdb 124621	3.67869	1.0711	1.01369	3.2508	76.2	-0.2195	0.0014	0.2209	1250.5342	0.147169	-435.257645	-435.248699	-435.247755	-435.291487	32.891	
C	-0.584642521	 0.6662797176	 1.0923322452	-0.389728
C	 0.0095147283	 0.5310485874	-0.3180738033	 0.064727
C	 1.2252113364	-0.4080703027	-0.3441964219	-0.389733
N	-0.9992177555	 0.1687005272	-1.3180569301	-0.403186
C	-1.6170867336	-0.9247002826	-1.2791115478	 0.545054
N	-2.5874664502	-1.346630026	-2.1863544759	-0.361549
C	-3.0137513395	-2.579365542	-1.8011890092	 0.082553
N	-2.4286063321	-3.0156081243	-0.740041199	-0.126458
O	-1.5229340542	-1.9695736704	-0.3798926077	-0.25724
H	 0.1638956837	 1.0693958492	 1.7825166284	 0.107312
H	-1.4414638209	 1.3466718785	 1.0836484529	 0.112745
H	-0.9177281724	-0.3018700611	 1.4772441181	 0.131775
H	 0.359697734	 1.5254445359	-0.6205472817	 0.07741
H	 0.9565593614	-1.414479388	-0.0104422957	 0.131803
H	 1.6333516403	-0.4785834955	-1.3569154353	 0.112736
H	 2.0126645654	-0.0280661484	 0.3151045526	 0.107296
H	-2.8858476376	-0.7982570815	-2.9727861849	 0.286882
H	-3.7675025426	-3.1462407533	-2.3269247547	 0.167602
