21
gdb 92458	2.21243	1.74393	1.43622	1.8481	76.34	-0.2516	0.071	0.3226	1029.2628	0.185358	-424.242134	-424.234082	-424.233138	-424.274182	32.784	
O	 0.0072053428	 1.4257672353	-0.0978838152	-0.4428
C	 0.0344884152	 0.0087560381	 0.0106947768	 0.142118
C	 0.6660340269	-0.5298114063	 1.3383640175	-0.245858
C	-0.4828473786	-1.3421812985	 1.9762650926	-0.050503
C	-1.5622744019	-0.3678564008	 2.4935392766	-0.219548
C	-2.1861570347	 0.2014104771	 1.1757600596	-0.219171
C	-1.4082746147	-0.5389504623	 0.0670279896	-0.0424
C	-1.1854017279	-1.9138319016	 0.7188068491	 0.138933
O	-0.3873689751	-2.7442103868	-0.1068776868	-0.452694
H	 0.9145658246	 1.7318002351	-0.1846883256	 0.280712
H	 0.553206459	-0.4218296843	-0.8533140504	 0.077598
H	 1.5334570737	-1.161432815	 1.1318422686	 0.092111
H	 0.9874279406	 0.2992533969	 1.9764642332	 0.088947
H	-0.157652296	-2.079059359	 2.7160289052	 0.045212
H	-2.312071212	-0.8941759311	 3.0926432845	 0.090983
H	-1.1332478881	 0.4133722027	 3.1271110686	 0.098491
H	-3.2545523034	-0.0238640232	 1.1128360724	 0.08961
H	-2.0664762844	 1.2807977774	 1.0853691616	 0.124688
H	-1.9057209982	-0.5502859631	-0.9036679015	 0.06407
H	-2.1365135927	-2.4089837667	 0.9647887469	 0.058181
H	-0.1750359254	-3.5417033537	 0.3875416965	 0.281318
