16
gdb 85347	3.1156	1.25765	0.9392	3.3997	86.05	-0.2427	-0.06	0.1827	1211.0394	0.123585	-400.752008	-400.743638	-400.742694	-400.784958	31.5	
C	-0.0235354437	 1.5419304969	-0.0006915573	-0.396454
C	 0.0440304519	 0.0189623868	 0.0338913907	 0.001123
O	 0.7675842109	-0.4729244859	-1.1033027095	-0.25745
C	 1.8328106888	-1.2417741743	-0.6974641352	 0.425764
N	 2.6583840408	-1.8146935371	-1.4686931359	-0.555496
C	 1.8340985422	-1.2749914571	 0.765668595	-0.310294
C	 0.7988832853	-0.5529962838	 1.2236505013	 0.169354
C	 0.4001276663	-0.3127033421	 2.5536099306	 0.234821
C	 0.0217457604	-0.0828902488	 3.6744098195	-0.391585
H	 0.982717011	 1.9690829601	 0.0247065442	 0.131999
H	-0.5248847028	 1.8739937788	-0.913148815	 0.135011
H	-0.5843772187	 1.9106592601	 0.862772691	 0.134412
H	-0.9713486294	-0.3985478711	-0.0066411508	 0.112196
H	 2.4252244133	-1.6279748905	-2.4450965393	 0.223937
H	 2.5737893226	-1.8122589345	 1.339006423	 0.138834
H	-0.2987466187	 0.1101360725	 4.6685963578	 0.203828
