18
gdb 85838	2.05543	1.51853	1.3585	2.9864	71.83	-0.2799	0.0026	0.2826	1087.5279	0.145196	-439.086749	-439.077203	-439.076259	-439.120832	34.925	
C	-0.4514062248	 1.3763386738	-0.0679658932	-0.415411
C	-0.0256237137	-0.0769259864	 0.0123162849	 0.099094
O	 1.1448449778	-0.3736422163	-0.8069884479	-0.318239
C	 1.989419666	-0.6032675651	 0.3379364671	 0.213341
C	 2.7627405904	-1.9091478311	 0.2510716727	-0.451195
C	 2.8866033086	 0.544893774	 0.5674044962	 0.270104
N	 3.5341298298	 1.475266469	 0.7977534387	-0.348032
C	 0.7387184822	-0.5304636434	 1.2878393806	 0.037075
O	 0.7667256573	 0.2631775668	 2.4276217505	-0.415567
H	 0.3674217979	 2.0564453869	 0.18480465	 0.129586
H	-0.7785712503	 1.611765852	-1.0845653159	 0.136933
H	-1.2853077902	 1.5630278526	 0.6160494182	 0.13251
H	-0.8538731045	-0.7350055605	-0.2733731618	 0.09039
H	 3.4531090584	-1.8897286275	-0.5964761705	 0.148964
H	 3.3379618764	-2.0756573013	 1.1666102972	 0.144606
H	 2.0606368136	-2.7348249799	 0.1114834437	 0.133034
H	 0.4479589912	-1.5309878623	 1.61514809	 0.111843
H	 1.173164254	 1.1134576286	 2.2188301296	 0.300965
