13
gdb 10583	2.73386	1.91074	1.34644	3.7737	65.85	-0.2683	-0.0026	0.2657	899.61	0.09314	-361.417376	-361.409353	-361.408409	-361.449553	29.189	
O	 0.0739149002	 1.3685843366	-0.0368335046	-0.410649
C	 0.0455137332	-0.0057736927	 0.0402845756	 0.130271
C	-0.3842177632	-0.7394524445	 1.2610014897	-0.340768
C	-1.3213102675	-0.7519194373	 0.0282986603	-0.045471
C	-2.4820998788	 0.0902918728	 0.0707797796	 0.219407
C	-3.3965044389	 0.8716218978	 0.1059857164	-0.406332
C	-1.4189854926	-1.969252156	-0.733605075	 0.235504
N	-1.4656198494	-2.9520745107	-1.3416539484	-0.337135
H	-0.8199251097	 1.7104942962	 0.1064753112	 0.295314
H	 0.8173477899	-0.4571783692	-0.5740607514	 0.144303
H	 0.0987642215	-1.678851754	 1.503763825	 0.152624
H	-0.7451922845	-0.1633626595	 2.1049338525	 0.147266
H	-4.2339571801	 1.5248200206	 0.1407886192	 0.215667
