16
gdb 130128	4.25711	1.0906	0.92627	0.8829	72.7	-0.2125	0.0106	0.2231	1233.6644	0.128112	-430.250966	-430.243152	-430.242208	-430.283701	29.333	
N	-0.0262778634	 1.3320153357	-0.1767703716	-0.58512
C	 0.0117095602	-0.0425213605	-0.0648407874	 0.395347
N	-1.0776314622	-0.7827836837	 0.0940395952	-0.297407
N	-0.5466285949	-2.0454388464	 0.081005231	-0.27155
C	 0.7864606398	-2.0011087684	-0.0757497182	 0.418016
N	 1.1818017438	-0.7387605808	-0.1678185532	-0.387907
C	 1.6691319454	-3.177076508	-0.12068198	-0.129804
C	 2.8094988617	-3.1785023401	-1.0843482261	-0.226867
N	 3.0572776058	-3.0209475244	 0.3498017228	-0.310562
H	 0.8312358619	 1.777763444	 0.1136944113	 0.257633
H	-0.8479101395	 1.7500014116	 0.2345972335	 0.257937
H	-1.1517829134	-2.8422814411	 0.1835344722	 0.27592
H	 1.2020638962	-4.1213340322	 0.147737161	 0.092888
H	 3.1415106345	-4.1209167488	-1.5108208363	 0.123104
H	 2.9034113427	-2.3086229846	-1.7272791478	 0.137128
H	 3.2000167812	-2.0320290423	 0.5520596836	 0.251246
