15
gdb 52233	4.72056	0.70899	0.68899	2.1853	64.77	-0.2793	-0.0603	0.2191	1568.0562	0.109168	-494.894193	-494.885135	-494.884191	-494.929968	30.34	
O	 0.643819931	 0.237839391	-0.8969946975	-0.26101
C	 0.6186421906	 1.4214763319	-0.7638701187	 0.179939
O	 0.5553875866	 2.0102035337	 0.4550582368	-0.180826
C	 0.5934128367	 3.4396988049	 0.4919848932	-0.13358
C	 2.0226072521	 3.9119781552	 0.5953546101	 0.05802
O	 2.7526113294	 4.0375636581	-0.616163637	-0.235272
C	 2.4952257418	 5.2368565182	 0.1232310231	-0.049273
C	 1.5766933092	 6.2277835903	-0.5228456399	 0.135841
O	 1.5472008853	 7.3896175004	-0.2124877666	-0.232058
H	 0.6329150897	 2.1526491888	-1.5937417517	 0.091641
H	 0.1027919833	 3.8599076339	-0.3918684858	 0.123905
H	 0.0271760723	 3.7329521604	 1.379827549	 0.14514
H	 2.5829067285	 3.4580223816	 1.4136979274	 0.130666
H	 3.3517437688	 5.6802062751	 0.6288910814	 0.13145
H	 0.9343230947	 5.8078885564	-1.3269715636	 0.095417
