18
gdb 71775	3.18161	1.84804	1.60022	2.7595	72.79	-0.2314	0.0745	0.3059	887.6329	0.150626	-401.930963	-401.924445	-401.923501	-401.961324	27.862	
O	-0.0626582646	 1.3671701609	-0.0626314388	-0.475319
C	 0.0232441508	-0.0231063534	-0.0508242127	 0.385646
C	 0.9866884026	-0.7176795603	-1.0035610329	-0.318683
C	 0.3810358032	-2.1005699845	-1.1556139827	-0.037109
C	 0.0105377113	-2.8349516404	 0.0807095753	-0.036501
C	 0.2783807543	-2.1490209084	 1.4108184631	-0.255244
C	-0.335917323	-0.7727599118	 1.2170247229	-0.145873
C	-1.2425298459	-0.8374476832	-0.0031621878	-0.071833
N	-1.0395176227	-2.1139642367	-0.6920991382	-0.125075
H	 0.6494684816	 1.7176465223	 0.4834441694	 0.282309
H	 0.9904714185	-0.1839112103	-1.9596745553	 0.116605
H	 2.0185771034	-0.7494479711	-0.6318590188	 0.099131
H	 0.5816325069	-2.6565072221	-2.0666457449	 0.090554
H	-0.0500058692	-3.9192619752	 0.0579887457	 0.088236
H	-0.2242386007	-2.6824514199	 2.2250387879	 0.110346
H	 1.3481454443	-2.1175579924	 1.6507539423	 0.104343
H	-0.6256260033	-0.1741769978	 2.0738547966	 0.088165
H	-2.2313836473	-0.4004942156	-0.0428586511	 0.100302
