19
gdb 106388	3.33973	1.46322	1.27761	2.4844	73.84	-0.25	0.0845	0.3345	1043.5094	0.159841	-422.965999	-422.958502	-422.957558	-422.997942	30.146	
C	-0.0041746127	 1.3500333226	 0.1461703683	-0.260233
O	 0.0247301266	-0.048718865	-0.0492662461	-0.308531
C	 0.7094932695	-0.4915640145	-1.1689779584	 0.422422
C	 0.3883322649	-0.0670565312	-2.6595816642	-0.293929
C	 1.7810549183	-0.7456319588	-2.8939927999	-0.087917
C	 2.1959673353	-0.1720613502	-1.50857429	-0.289574
C	 1.4167752959	-2.2103240867	-2.5584864291	 0.04167
O	 1.9190066774	-2.7031189162	-1.3054958742	-0.256086
C	 0.6527239075	-2.0274497769	-1.3290475127	-0.013518
H	 1.0026788261	 1.7668756256	 0.2854102369	 0.114263
H	-0.4871981623	 1.8721076229	-0.6915328851	 0.110663
H	-0.5857720751	 1.5286618481	 1.0532044446	 0.130277
H	-0.4870996342	-0.5159821061	-3.1382568534	 0.095482
H	 0.4041826804	 1.0129250907	-2.8264749421	 0.098241
H	 2.368155927	-0.5492902819	-3.7887312634	 0.072101
H	 2.3850699838	 0.9007156467	-1.5713115721	 0.09445
H	 2.9740256813	-0.6844231454	-0.9466887596	 0.122917
H	 1.2134285487	-2.9521838191	-3.323077226	 0.102326
H	-0.2169605785	-2.5903717446	-1.0092442035	 0.104976
