16
gdb 51199	3.92114	1.19069	1.06091	3.7613	71.17	-0.2432	0.0135	0.2567	1133.5379	0.123376	-437.777518	-437.770033	-437.769089	-437.810587	28.078	
N	-0.0998030418	 1.2534051715	 0.0872475256	-0.434549
C	-0.0619459037	 0.0094923488	-0.1049168239	 0.110119
O	-1.1077989752	-0.7607513812	 0.2835247912	-0.232167
C	-0.9580085074	-2.1325542567	 0.1816493727	 0.3942
C	-0.2668730083	-3.1080358968	 1.156794639	-0.337226
C	-0.8760980719	-4.0283063026	 0.0755676315	-0.101218
C	-2.1263251333	-3.1124803577	-0.1215752962	 0.036052
O	-1.9895144365	-3.0356163642	-1.5701960471	-0.318793
C	-0.6212494186	-3.0125716077	-1.0811092734	 0.018591
H	 0.7448649947	 1.6882110582	-0.2784680193	 0.233542
H	 0.743209116	-0.5619650573	-0.5830189712	 0.090046
H	 0.8243045808	-3.0663216846	 1.2060776784	 0.107215
H	-0.6991447811	-3.1788352904	 2.1576124511	 0.116422
H	-0.8530026346	-5.1106384026	-0.0100980962	 0.103593
H	-3.1201359977	-3.1679332601	 0.3193238293	 0.111253
H	 0.1981505685	-2.9564964766	-1.7968125116	 0.102919
