21
gdb 58703	1.94003	1.49519	1.2124	1.2629	84.28	-0.2545	0.0427	0.2971	1187.0763	0.18039	-387.049763	-387.039912	-387.038968	-387.083977	37.676	
C	-0.3473810899	 1.3970717592	 0.065086405	-0.415591
C	 0.0293176318	-0.0846011853	 0.1066291083	 0.089748
O	 0.6429378706	-0.4943296925	-1.1071870357	-0.439674
C	 0.9224550958	-0.4661526156	 1.3164216707	 0.132923
C	 0.1502656154	-0.4541137491	 2.6837651193	-0.264982
C	-0.0387294271	-1.9897423956	 2.5734769082	-0.220027
C	 1.0419663641	-2.0244077886	 1.4616521044	-0.257051
C	 2.1803392457	 0.2600610679	 1.2571486454	 0.23903
C	 3.2285969514	 0.84797982	 1.1774901212	-0.443775
H	 0.5505808373	 2.0203849174	 0.0032075358	 0.124106
H	-0.9663944758	 1.5913452308	-0.8145303155	 0.123325
H	-0.9073361715	 1.6998275352	 0.9551485202	 0.115497
H	-0.8845876478	-0.687111888	 0.1741567165	 0.084387
H	 1.4936661051	-0.0405020473	-1.1593014481	 0.281674
H	 0.8059097033	-0.1687316407	 3.5086542502	 0.113331
H	-0.7490217701	 0.1649950463	 2.7235085973	 0.103678
H	 0.1657398169	-2.5720366787	 3.473888159	 0.102764
H	-1.03058338	-2.2670358073	 2.2078695256	 0.107388
H	 0.8303283731	-2.5858776634	 0.5501554589	 0.121351
H	 2.0227484221	-2.3181769591	 1.8403658204	 0.108523
H	 4.1550052096	 1.3652215142	 1.1316411531	 0.193375
