17
gdb 65330	3.7305	1.07576	0.95858	2.2221	75.93	-0.2581	0.0155	0.2735	1246.0089	0.132532	-421.748125	-421.73909	-421.738146	-421.781895	33.314	
C	-0.1309823554	 1.8238472184	 0.4658716396	-0.475589
C	-0.1441497326	 0.3561230583	 0.1099934962	 0.35105
O	 0.8005288529	-0.067017319	-0.8690904677	-0.275951
C	 0.9760363811	-0.5483720683	 0.4801040659	-0.223479
C	 2.1322873878	-0.0968092945	 1.2038050575	 0.326397
C	 3.0983651648	 0.2541488866	 1.8276339548	-0.399901
C	-1.5162605942	-0.2519385302	-0.0386490217	 0.004036
C	-1.9962741536	-0.7271892059	-1.3443847029	-0.172283
O	-1.5798519449	-1.6429183699	-0.3269777152	-0.227071
H	 0.893529761	 2.1803218692	 0.5800623357	 0.147702
H	-0.6213589166	 2.4079514855	-0.3200224556	 0.130811
H	-0.6684728837	 1.998922259	 1.403725804	 0.127425
H	 0.7299027592	-1.6022663829	 0.5921763712	 0.134567
H	 3.9557081871	 0.5617881944	 2.3739722073	 0.201716
H	-2.2465352239	 0.0942256822	 0.694047206	 0.097404
H	-3.0628978953	-0.7243979528	-1.5616190387	 0.116964
H	-1.3273694138	-0.6597063702	-2.1984744267	 0.1362
