21
gdb 36849	4.3806	0.89275	0.84571	1.8782	82.13	-0.2279	0.0761	0.304	1435.1622	0.182533	-387.028538	-387.020006	-387.019062	-387.062556	32.728	
C	-0.0562403249	 1.4667526089	-0.3280355835	-0.35344
C	-0.12934263	-0.0375158871	-0.131018436	 0.048172
C	-0.3334006086	-0.6244185323	 1.2422632071	-0.250042
C	-1.4371324464	-0.7011393949	 0.2146955777	-0.281461
C	 1.3272705651	 2.0252621459	-0.13377341	 0.306104
C	 1.9135196535	 2.4454135411	 1.203253239	-0.336707
C	 1.853705996	 3.4282154991	 0.0743639965	 0.037384
O	 2.9577041804	 3.2404065954	-0.8149191454	-0.287939
C	 2.4802932566	 1.9054573296	-1.1331273491	-0.126553
H	-0.4120744855	 1.7196544499	-1.336894857	 0.100113
H	-0.7469238333	 1.9546792217	 0.3717790727	 0.094174
H	 0.5240712964	-0.6033207634	-0.7913068536	 0.082677
H	 0.1940539151	-1.5353068939	 1.5028233583	 0.110705
H	-0.462934126	 0.0627303459	 2.0720255004	 0.109243
H	-2.3053067049	-0.0649711619	 0.3557942825	 0.109208
H	-1.663529408	-1.6641133701	-0.2295150466	 0.110841
H	 1.1774798196	 2.5890546956	 1.9890821617	 0.109252
H	 2.8801086447	 2.0777313763	 1.5382973166	 0.111523
H	 1.3796804205	 4.4033233476	 0.0993101684	 0.101636
H	 3.2408492809	 1.1356345007	-0.9543186003	 0.102533
H	 2.144549139	 1.8580679159	-2.1767501194	 0.102577
