19
gdb 120688	2.61326	0.77935	0.63308	2.9775	82.5	-0.247	0.0263	0.2733	1796.5604	0.155584	-422.964743	-422.954097	-422.953152	-423.003349	35.603	
C	-0.3143665785	 1.3207174076	 0.0651937363	-0.223431
O	-0.2366828693	-0.0788379247	-0.0601843651	-0.23459
C	 0.7942199393	-0.4916599901	-0.9293972346	-0.090201
C	 0.7854169056	-1.9946812195	-0.982986713	 0.061925
O	-0.0269200727	-2.6171114371	-1.9734247707	-0.240374
C	 1.4017607468	-2.7412801134	-2.1002310058	-0.171499
C	 2.0424378259	-2.0946076293	-3.2145924229	 0.083226
C	 2.6069395265	-1.5888283828	-4.1510215912	 0.10798
C	 3.2790483552	-0.9752046789	-5.286222915	-0.501237
H	 0.6214627447	 1.7480519231	 0.4604815986	 0.10189
H	-0.5313361767	 1.8065169783	-0.8991907866	 0.106729
H	-1.1260276642	 1.5415232442	 0.762401086	 0.129167
H	 0.6544603648	-0.0864339627	-1.94221739	 0.106682
H	 1.7753825479	-0.1421226459	-0.5605154267	 0.089941
H	 0.756127605	-2.4788689134	-0.0057466843	 0.101434
H	 1.7721950627	-3.7422789938	-1.8780767964	 0.111639
H	 4.352887271	-1.191425044	-5.2715352879	 0.153209
H	 2.8775880925	-1.3503522407	-6.2339313884	 0.155509
H	 3.1585348135	 0.1134773632	-5.2799085924	 0.152002
