16
gdb 34733	3.524	1.52839	1.34854	0.5548	80.75	-0.2169	-0.0525	0.1645	966.5309	0.12371	-363.445406	-363.438339	-363.437395	-363.476647	28.663	
C	 0.5054935677	-1.1217196678	-0.0089162548	-0.436475
C	 0.2738394632	 0.0584530499	-0.0286018696	 0.324351
C	-0.0267463706	 1.4737040237	-0.0465201068	-0.230673
C	-0.2546340747	 2.3018744154	 1.3089348924	-0.055198
C	 0.4017852584	 3.491181344	 0.7374171681	-0.096004
N	 0.8870469444	 3.0156091487	 2.0164371938	-0.115852
C	 2.3084793938	 2.636871952	 1.7612244789	-0.178107
C	 2.2869270653	 2.1364827215	 0.3225629001	-0.111583
C	 1.1112691061	 2.5082997409	-0.2217325913	 0.002241
H	 0.7087238332	-2.1639354994	 0.010792726	 0.200121
H	-0.9192311795	 1.6641776257	-0.6556393179	 0.115948
H	-1.1670822165	 2.2333201634	 1.8911254118	 0.115908
H	 0.0472630255	 4.498734681	 0.5574990187	 0.097525
H	 2.91829643	 3.5181042718	 1.9970347953	 0.121615
H	 2.6361713752	 1.819196904	 2.4130654893	 0.126919
H	 2.7814117283	 1.2070707151	 0.0597960761	 0.119265
