18
gdb 102835	1.8785	1.57774	1.13929	3.3075	69.6	-0.2539	0.0274	0.2813	1149.4985	0.146343	-476.179069	-476.169754	-476.168809	-476.213762	33.274	
O	 0.019610892	 1.1450625379	 0.4988752612	-0.41326
C	 0.0542934705	-0.1495451921	-0.0733304973	-0.096821
C	-1.3059873657	-0.858323121	-0.1971995312	 0.0567
O	-1.8817659977	-1.3185144563	 1.0214884238	-0.223552
C	-1.9879201886	-0.4909169714	 2.0974189516	 0.100776
N	-2.7349346161	-0.8530299228	 3.0490170081	-0.444866
C	-2.2824791258	-0.0254013905	-1.0117348953	 0.062672
C	-3.7007242562	 0.1080716398	-0.6732531287	-0.188654
O	-2.772502231	 1.1678558431	-0.3830581938	-0.252964
H	-0.7000033553	 1.6413364481	 0.0914026758	 0.30767
H	 0.4964051022	-0.1249648172	-1.0832846046	 0.100613
H	 0.7142365032	-0.7527253752	 0.5578989096	 0.128871
H	-1.120390463	-1.7813182081	-0.7610764533	 0.110149
H	-1.3773140544	 0.4100008028	 2.0329337946	 0.135
H	-2.688149507	-0.1625780552	 3.7963254574	 0.227673
H	-1.9822451145	 0.1112676409	-2.0526507041	 0.103847
H	-4.4155293431	 0.3358961216	-1.4611529476	 0.126124
H	-4.0907457597	-0.4129491545	 0.1963212039	 0.16002
