17
gdb 39021	3.04593	1.81001	1.3327	4.8311	72.23	-0.2329	0.0285	0.2615	952.9172	0.139588	-417.974567	-417.967892	-417.966948	-418.005495	26.881	
C	 0.0827895514	 1.5865928761	 0.0491714821	-0.118087
O	 1.5349443401	 1.4108368498	-0.1159798893	-0.269513
C	 1.4139712479	 0.0842019602	 0.2103517715	 0.450741
N	 2.2823272293	-0.7111421119	 0.6367720263	-0.30616
C	 1.6987713964	-1.9558222076	 1.15469019	-0.171421
C	 0.2946107117	-1.8097320838	 1.7575490095	-0.029577
N	 0.0325312982	-0.5953121836	 2.5500616467	-0.32474
C	-0.6513266958	-0.7679842902	 1.2578205386	-0.077404
C	-0.0887669037	 0.048868589	 0.1242592802	-0.152269
H	-0.1241434154	 2.120144071	 0.9796826871	 0.133012
H	-0.3551822647	 2.099930193	-0.8087278915	 0.119132
H	 1.6629317331	-2.7257880659	 0.3700826025	 0.106929
H	 2.3758374281	-2.3373380659	 1.9274655219	 0.117868
H	-0.1357302876	-2.7442582981	 2.1118342883	 0.088977
H	-0.6053981424	-0.8019389974	 3.313191344	 0.23578
H	-1.7166878085	-0.9836685098	 1.2572223345	 0.086074
H	-0.4348293181	-0.3550169948	-0.8328804926	 0.110657
