17
gdb 64598	2.69866	1.49639	1.43457	2.6371	72.54	-0.2497	-0.0348	0.2149	999.8903	0.135593	-417.996918	-417.988873	-417.987929	-418.029557	30.216	
C	 0.027886209	 1.6704935453	-0.2266844604	-0.429883
C	 0.0695266569	 0.1407551435	-0.0761866733	 0.163908
C	-1.3643545233	-0.368510842	-0.2628877703	 0.153018
O	-2.0781258764	-0.7366612152	 0.6320385481	-0.252865
N	 0.8978710067	-0.4658435751	-1.1453093843	-0.244471
C	 1.728785393	-1.2449485041	-0.5750351659	 0.029149
N	 1.6881956414	-1.4005648607	 0.8397914509	-0.121016
C	 2.0973396233	-0.1352117262	 1.5159696224	-0.263951
C	 0.6688258874	-0.3904328072	 1.226878706	-0.059719
H	 1.0395459611	 2.0815915274	-0.1849518274	 0.128658
H	-0.4087684322	 1.9497801049	-1.1899666953	 0.136337
H	-0.5687801233	 2.1182631714	 0.5733571104	 0.134934
H	-1.7031365919	-0.3496276529	-1.3205731502	 0.1018
H	 2.4642475377	-1.8244252003	-1.1261890678	 0.132887
H	 2.472112093	-0.2706535748	 2.5253631936	 0.133766
H	 2.6366435446	 0.5917249088	 0.9153167798	 0.129531
H	-0.013884027	-0.6739619927	 2.0190432538	 0.127918
