16
gdb 55483	4.96294	0.62843	0.56164	3.9457	76.48	-0.2509	-0.0262	0.2247	1890.0654	0.120335	-437.910019	-437.899249	-437.898304	-437.94933	35.285	
C	-0.1512826239	 1.382012992	 0.4107537129	-0.478624
C	-0.2569973704	-0.130178965	 0.4622398959	 0.39048
O	 0.2479272515	-0.7918909295	 1.3323624348	-0.268517
C	-1.0647537292	-0.7629415057	-0.690365482	-0.492623
C	-1.1565191858	-2.2087436339	-0.626525345	 0.020959
C	-1.2186672623	-3.4086439307	-0.5520193889	 0.130732
C	-1.303599313	-4.860826307	-0.4768342381	 0.25633
N	-0.6498013724	-5.3792729698	 0.60228573	-0.519471
O	-1.8978040096	-5.5360620868	-1.2950876766	-0.336524
H	 0.4331554497	 1.7386587452	 1.2590272064	 0.149805
H	 0.3231187932	 1.7009048092	-0.5241779087	 0.144223
H	-1.1482539697	 1.8363429788	 0.4326131202	 0.144223
H	-2.0667653255	-0.311304648	-0.6919637453	 0.159602
H	-0.6098198362	-0.4456039314	-1.6392265375	 0.159608
H	-0.1689574301	-4.7880649195	 1.2578729466	 0.274535
H	-0.6559660561	-6.377209558	 0.7341005951	 0.265263
