19
gdb 100842	4.11108	0.7291	0.64714	3.9339	69.16	-0.2484	-0.0175	0.2309	1667.5207	0.155357	-497.294349	-497.28363	-497.282686	-497.331001	37.441	
O	-0.1123775001	 1.4253980555	-0.2591637083	-0.435473
C	 0.0369159771	 0.0350664665	 0.0226231569	-0.104991
C	-1.378146352	-0.5367168196	 0.037494247	 0.120651
O	-2.0355618868	-0.2321551174	-1.1785294415	-0.448219
C	-1.3829860637	-2.0607059173	 0.2024534813	 0.102228
O	-0.6828937888	-2.4530877876	 1.3775796914	-0.431716
C	-2.804779043	-2.6316646109	 0.1728638784	-0.307817
C	-2.7978533259	-4.1405912795	 0.2606737794	 0.164578
O	-3.436191188	-4.7864547056	 1.0503288874	-0.242014
H	 0.7505074206	 1.7927541686	-0.4686381448	 0.296675
H	 0.6213528502	-0.4664873223	-0.7631725473	 0.09546
H	 0.5277091138	-0.1375942278	 0.9876503005	 0.108663
H	-1.9182324271	-0.0865647656	 0.8909754284	 0.064478
H	-1.7884513872	 0.678639271	-1.3851044244	 0.295388
H	-0.8087008147	-2.4902076908	-0.6284593409	 0.099811
H	-1.2369102726	-2.2491008416	 2.1398261438	 0.288103
H	-3.4105705461	-2.2308133632	 0.9941324281	 0.109172
H	-3.274791172	-2.3319801212	-0.7720949928	 0.151447
H	-2.1399232837	-4.638209361	-0.4897537225	 0.073576
