22
gdb 119718	3.33456	1.00005	0.88982	0.6114	84.15	-0.2321	0.0897	0.3218	1429.6557	0.192871	-404.289418	-404.27969	-404.278746	-404.324347	35.65	
C	 0.6051137282	 1.4661125881	-0.1216260361	-0.21893
O	 0.9140639044	 0.0954240599	-0.1818548276	-0.235951
C	-0.0101178548	-0.640915123	-0.9587691441	-0.168461
C	 0.3577695648	-2.0917200502	-0.9033143287	 0.327731
C	 0.7015116368	-2.8739804245	 0.3814775354	-0.297078
C	 1.7576165914	-3.6890674842	-0.4282310062	-0.239899
C	 1.3801200759	-2.8873639821	-1.6877911219	-0.087173
N	-0.032877583	-2.9469693436	-2.0027806143	-0.129906
C	-0.8361937034	-4.1479029505	-1.8340128582	-0.321041
H	 0.6174136164	 1.9334070029	-1.119323907	 0.103688
H	-0.3868946258	 1.6434491502	 0.3245556725	 0.102068
H	 1.3633279001	 1.9466615098	 0.5016815149	 0.125215
H	-1.0339490621	-0.4897553523	-0.5695726236	 0.081602
H	-0.0084548017	-0.3059901181	-2.0078581741	 0.097974
H	 1.1629142751	-2.2252730998	 1.1266843569	 0.12302
H	-0.1169072632	-3.4289064345	 0.8508435554	 0.091247
H	 2.7782406787	-3.4813287035	-0.10082858	 0.108443
H	 1.6242661309	-4.7737878625	-0.4825703653	 0.097375
H	 2.0641229643	-2.5649758199	-2.4664922687	 0.088818
H	-0.6036061345	-4.7473227579	-0.9431313512	 0.107563
H	-1.8915075485	-3.8617848587	-1.7833974527	 0.120946
H	-0.7016166103	-4.7836533059	-2.7146929053	 0.122749
