19
gdb 54414	2.44892	1.51915	1.19137	2.2226	77.49	-0.2376	-0.0198	0.2178	1121.7436	0.156542	-423.014644	-423.005363	-423.004419	-423.048833	34.099	
C	-0.3153030177	 1.3706134911	-0.0378402055	-0.4804
C	 0.0873658951	-0.0868466028	-0.0051212784	 0.294659
O	 0.3799252459	-0.6779557108	 1.0164381085	-0.329921
C	 0.0886156571	-0.7987091442	-1.3018473755	 0.315931
C	 0.9089672871	-2.026414048	-1.6080041484	-0.37126
C	-0.5881806971	-2.1291860349	-1.6718200798	 0.215127
C	-1.4040039419	-3.0578501094	-0.824145506	-0.494394
C	-1.0747208228	-1.3526793534	-2.8969668889	-0.135148
O	-0.3328578831	-0.1625858065	-2.5112205118	-0.329321
H	 0.358548114	 1.932054659	-0.6944728901	 0.149849
H	-1.3168569245	 1.4760259432	-0.4673997853	 0.145918
H	-0.2880135984	 1.7811703058	 0.9718340082	 0.136726
H	 1.5098252395	-2.0126072561	-2.5133775976	 0.118322
H	 1.3621917795	-2.4871589802	-0.7371371338	 0.143897
H	-0.9848306277	-3.1149001113	 0.184620385	 0.15244
H	-2.4404741929	-2.714173442	-0.7397251747	 0.120832
H	-1.417111532	-4.0704971731	-1.2438769203	 0.126092
H	-0.7774903598	-1.7231335876	-3.8849485944	 0.109881
H	-2.1528029102	-1.1542602789	-2.8834581113	 0.110771
