19
gdb 112986	3.51532	1.02527	0.84528	4.4173	79.88	-0.2543	-0.0259	0.2285	1381.8799	0.159215	-419.236238	-419.226974	-419.226029	-419.270821	33.11	
C	-0.0669876362	 1.7642604504	 0.3653087105	-0.386699
C	-0.2338919018	 0.2513112342	 0.1925562719	-0.192274
C	 0.6985816267	-0.5490206765	 1.1016095822	-0.08587
C	 0.7259006295	-2.1020815557	 0.9095995657	-0.215419
N	 2.1555643946	-1.9788811678	 0.5715785761	-0.098518
C	 3.1239128752	-2.8729081764	 0.2151758887	 0.137657
O	 4.2665024917	-2.5651857001	-0.0459510425	-0.305279
C	 2.1795232971	-0.5693743061	 0.7179626781	 0.401478
N	 3.0614550206	 0.3158006163	 0.5714736138	-0.541973
H	 0.9666223053	 2.0631324506	 0.1724349174	 0.159235
H	-0.7217477511	 2.3092264854	-0.321084896	 0.112481
H	-0.3202884055	 2.0731297678	 1.3854881894	 0.113901
H	-1.2693009685	-0.0425049992	 0.4071470973	 0.100268
H	-0.0409132836	-0.028285009	-0.8510407607	 0.103861
H	 0.5532894761	-0.2608700621	 2.1472943977	 0.106651
H	 0.5342421038	-2.6964661471	 1.8066843356	 0.126026
H	 0.1125302239	-2.4690147902	 0.0812797995	 0.124987
H	 2.7491410279	-3.9151669024	 0.1921184525	 0.089025
H	 3.9481761144	-0.1025561621	 0.2847300028	 0.250462
