22
gdb 101591	4.31893	0.65808	0.65334	3.1221	80.44	-0.2462	0.0331	0.2793	1818.4186	0.192133	-441.52027	-441.508896	-441.507952	-441.558274	39.512	
C	-0.0975967016	 1.4764649242	-0.3031049649	-0.333828
N	-0.2299688377	 0.0335466051	-0.3502371589	-0.313068
C	-1.2784007898	-0.6299125167	 0.2175350247	 0.423172
O	-2.1905978351	-0.0603135898	 0.7928329019	-0.379898
C	-1.2139518335	-2.1532491404	 0.107181439	-0.33429
C	-2.5995130648	-2.7762327767	-0.1175171919	 0.023712
C	-3.1569117736	-2.4556544363	-1.5088416338	-0.392779
C	-2.5542429099	-4.2886346013	 0.1350977896	-0.069397
O	-3.8216853817	-4.9142376116	 0.0107720598	-0.418826
H	 0.8142148311	 1.7783941203	 0.224561764	 0.124792
H	-0.0784949882	 1.9085349381	-1.3098782285	 0.125199
H	-0.9647728729	 1.8622959149	 0.2338819279	 0.172224
H	 0.4802308788	-0.5028562536	-0.8192141992	 0.24437
H	-0.5201185623	-2.4613014101	-0.6854858841	 0.090197
H	-0.7925598875	-2.5182863518	 1.0538944525	 0.122891
H	-3.2631386381	-2.3260788908	 0.6332577353	 0.094889
H	-4.1169826624	-2.9555379544	-1.6569895274	 0.126165
H	-3.3015377085	-1.3793272301	-1.6369746841	 0.124977
H	-2.4757589439	-2.806775062	-2.2944381411	 0.102575
H	-1.9137797973	-4.778235236	-0.6091135296	 0.103461
H	-2.1105991988	-4.486165554	 1.1250094784	 0.081656
H	-4.4034509722	-4.526264737	 0.6728394006	 0.281804
