17
gdb 6341	3.34406	1.29687	1.06287	2.5207	65.84	-0.2449	-0.0324	0.2125	1135.9921	0.140835	-401.061805	-401.052792	-401.051848	-401.096741	31.761	
C	-0.7245434201	 1.2940775963	 0.5392684273	-0.388887
C	-0.1123645292	 0.1505306389	-0.2933411082	-0.267048
C	-1.1606273421	-0.885180009	-0.6529965844	 0.382788
O	-1.6483625178	-0.9340818974	-1.7647802657	-0.322189
C	-1.5699687556	-1.8578688183	 0.4499587564	-0.402686
C	-3.0742574514	-2.1536744468	 0.5876768668	 0.383174
N	-3.7105661792	-2.411323129	-0.5856535141	-0.509158
O	-3.6019008477	-2.2010654241	 1.6805220588	-0.355654
H	 0.0453013441	 2.0259407123	 0.7973312103	 0.131275
H	-1.5071453152	 1.8081365258	-0.0259363797	 0.138771
H	-1.164604668	 0.9270769244	 1.4714043645	 0.13881
H	 0.3063346446	 0.5405908322	-1.2244012812	 0.12577
H	 0.6906619825	-0.3299324325	 0.2784698506	 0.117074
H	-1.0670993977	-2.8068573047	 0.2169984582	 0.159692
H	-1.2145209396	-1.5347147535	 1.4284897999	 0.136707
H	-3.2667705846	-2.1156809096	-1.4456198393	 0.274878
H	-4.7136099732	-2.5023728149	-0.5496653503	 0.256684
