15
gdb 130221	3.22742	1.40886	1.01641	2.3524	71.84	-0.1937	-0.0007	0.1929	1103.3709	0.11634	-446.313484	-446.305578	-446.304634	-446.345941	29.735	
N	 0.567185734	 0.7550659056	-1.0342613115	-0.605136
C	 0.1772709539	-0.3097771884	-0.249949361	 0.290141
N	-1.0932436175	-0.6991509269	-0.1209771705	-0.279682
N	-1.0329258484	-1.6817217105	 0.7816637714	-0.091055
N	 0.1688705468	-1.9827614209	 1.2451738785	-0.283541
C	 0.965329197	-1.1287694043	 0.6039427705	 0.341392
N	 2.3331794414	-1.126918758	 0.8985298535	-0.383269
C	 3.370519287	-0.826606787	 0.0644007325	 0.087328
N	 3.2309771518	-0.399201919	-1.1330405385	-0.471
H	 1.4994486354	 0.6029135521	-1.4211596193	 0.267482
H	-0.1264320707	 0.9930768083	-1.7302084754	 0.245245
H	-1.8597955563	-2.1474663018	 1.1118925556	 0.288944
H	 2.5657570027	-1.591115184	 1.7620942254	 0.263937
H	 4.3352079423	-0.9875721027	 0.5576544229	 0.101023
H	 4.1374714604	-0.2176757126	-1.5534065339	 0.228191
