17
gdb 103264	2.93716	1.25752	1.09568	4.1761	68.53	-0.2663	-0.0022	0.2641	1148.9787	0.133772	-458.95538	-458.946711	-458.945767	-458.988824	32.36	
C	 0.0889478493	 1.4336022244	-0.2339016937	-0.404645
C	 0.0131424281	-0.0403999912	 0.1858068772	-0.249886
C	-1.3910051256	-0.6010787893	 0.093708709	 0.371339
O	-2.3482443065	 0.0332736236	 0.8970611276	-0.46264
C	-1.9756623506	-1.2152179769	-1.1396148146	 0.005415
O	-0.9486984639	-1.8988795383	-1.9016990758	-0.260367
C	-0.7549755742	-2.7999656785	-0.8510104931	 0.463348
O	-0.0538771137	-3.7566612836	-0.8486561762	-0.322847
C	-1.7253371381	-2.1050413008	 0.0613351496	-0.328665
H	 1.1187165914	 1.7960293977	-0.1769795941	 0.130593
H	-0.2568735809	 1.5717747894	-1.2638090456	 0.12823
H	-0.511015811	 2.0758976545	 0.4209263638	 0.112251
H	 0.6808308087	-0.6320883062	-0.4449451469	 0.135434
H	 0.3567795968	-0.1541451925	 1.2200350238	 0.117535
H	-2.4155005979	 0.9511462678	 0.6112475151	 0.294953
H	-2.892695919	-0.9484442741	-1.6458085111	 0.132351
H	-2.3901085529	-2.5453066962	 0.7891380649	 0.1376
