24
gdb 80401	2.83405	1.30146	1.18054	1.4848	88.09	-0.2148	0.0727	0.2875	1216.9048	0.21778	-368.40524	-368.395932	-368.394987	-368.438693	37.018	
C	-0.2051636116	 1.5520101829	 0.0620429268	-0.426067
C	 0.0046442344	 0.0587136564	-0.0356104128	 0.022144
C	 0.6171773393	-0.6344790719	-1.2024560222	-0.046946
C	 1.4246850812	 0.1565762477	-2.2243702273	-0.285172
C	 2.8334613135	 0.3018093171	-1.5752138103	 0.330838
C	 3.6983918599	-0.91536285	-1.9500089527	-0.422804
C	 3.545863941	 1.5968652984	-1.9766269826	-0.444513
C	 2.5055511879	 0.248737222	-0.0561598426	-0.20696
N	 1.3144476345	-0.6110350077	 0.1095730297	-0.11806
H	 0.4562053855	 2.1350830626	-0.5820244697	 0.122484
H	-1.2353929148	 1.7933218931	-0.220642294	 0.121537
H	-0.0574773646	 1.8975847335	 1.0917948816	 0.125591
H	-0.7700573873	-0.4980198887	 0.491851249	 0.084731
H	 0.2220695609	-1.6005657836	-1.5078703269	 0.082756
H	 1.4752129551	-0.369002843	-3.1822067116	 0.097468
H	 0.9862930813	 1.1395012277	-2.4277603538	 0.096109
H	 3.8757236375	-0.9540648081	-3.0304926018	 0.106629
H	 4.6728868057	-0.871604963	-1.4514323201	 0.109795
H	 3.2128496209	-1.8501131793	-1.651730847	 0.127502
H	 2.9420670582	 2.4782973166	-1.7331575827	 0.10877
H	 4.5064333289	 1.6968313806	-1.4587701469	 0.113146
H	 3.7502684083	 1.6190854742	-3.0529378696	 0.112225
H	 3.3314369601	-0.1918691432	 0.5118715032	 0.099111
H	 2.3416581141	 1.2545135558	 0.3489974241	 0.089683
