19
gdb 6852	3.36183	1.81132	1.60748	1.9763	72.	-0.2439	0.0302	0.2741	903.1208	0.166318	-365.088225	-365.080374	-365.07943	-365.119887	30.447	
C	-0.0019522156	 1.522078883	 0.0131684339	-0.402481
C	-0.0152664816	-0.0138886756	-0.0113481384	 0.279968
C	-1.4706083975	-0.5101569823	 0.0563317917	-0.399582
C	 0.7019377694	-0.5268285184	-1.2788473062	-0.246615
C	 1.0899802938	-1.9896095033	-1.1151359189	-0.084334
O	 1.8586028792	-2.1900449085	 0.0794253658	-0.223739
C	 1.5044198281	-1.4206010653	 1.137233694	 0.118176
N	 0.6804813944	-0.4648044397	 1.2059311347	-0.287429
H	 1.0254974004	 1.8981761268	 0.017182815	 0.113421
H	-0.5173030196	 1.93125189	-0.8625301236	 0.103634
H	-0.498242246	 1.8885166529	 0.9158621091	 0.122046
H	-2.0604909591	-0.0869312576	-0.7639492983	 0.10828
H	-1.5311742055	-1.6010049609	-0.0025380562	 0.109974
H	-1.9234396355	-0.2060046813	 1.0038008166	 0.12853
H	 0.0720322393	-0.4086894227	-2.167367078	 0.10079
H	 1.6111810348	 0.063157067	-1.4427064668	 0.107131
H	 0.2032096763	-2.6337974428	-1.0639648258	 0.11357
H	 1.7176946337	-2.3427156636	-1.9367740965	 0.117419
H	 2.0637696908	-1.7351468279	 2.0173417179	 0.121241
