15
gdb 42871	2.83274	1.43202	1.43174	1.5103	64.58	-0.2539	-0.0492	0.2046	968.8781	0.112357	-457.780846	-457.77364	-457.772696	-457.813049	27.392	
O	 0.006478966	 0.0044271813	 0.3157125335	-0.289756
C	-0.0115326397	 1.1841992711	 0.1572511582	 0.415151
C	-1.0692031152	 2.2835968781	-0.0518978071	-0.046863
C	-1.3317901869	 3.020022131	 1.2635213839	-0.322903
C	-0.0122100104	 3.3324964665	 1.9931944754	 0.384341
O	-0.0011620041	 3.7764514578	 3.1126107249	-0.298802
C	 1.2925187477	 3.0547560243	 1.223845505	-0.322904
C	 1.0098708608	 2.3111154246	-0.0833310569	-0.046862
O	-0.0501488925	 3.0218820987	-0.7880925947	-0.296915
H	-1.9620827809	 2.074008324	-0.6445374317	 0.114264
H	-1.835554932	 3.9712451696	 1.055536954	 0.151254
H	-1.9780591267	 2.4519370708	 1.9407039752	 0.147238
H	 1.7644241136	 4.0188915121	 1.001113479	 0.151254
H	 1.9737636183	 2.5042376392	 1.8809571303	 0.147238
H	 1.8896627918	 2.1249904208	-0.7027717589	 0.114264
