14
gdb 42539	4.42753	1.21586	1.11733	2.8249	71.36	-0.263	-0.0272	0.2357	1048.7176	0.10171	-399.529336	-399.522453	-399.521509	-399.560766	26.518	
O	 0.048182263	 0.0734884014	-0.0040325905	-0.319572
C	 0.0125698651	 1.2668226161	-0.0420655307	 0.460391
C	-1.0870388111	 2.2936208629	 0.0219750134	-0.243131
C	-0.1142253333	 3.2262521983	 0.7477628143	-0.11134
C	 1.0673893238	 2.3865114067	 0.1075162218	-0.208996
C	 0.8941226777	 3.2060797074	-1.201457239	-0.291312
C	-0.5050711743	 3.5563564838	-0.6681645098	 0.222127
C	-1.3781544989	 4.5864831887	-1.1295408146	 0.179602
N	-2.0703325529	 5.4299683284	-1.514258531	-0.33755
H	-2.1520018289	 2.1825091155	 0.1688388948	 0.137381
H	-0.2413737194	 3.7501725549	 1.6818304524	 0.139122
H	 2.0421949653	 2.1891542965	 0.5418149448	 0.112301
H	 1.5291999572	 4.0939274462	-1.2194168311	 0.133247
H	 0.9677468367	 2.6656541331	-2.1497743949	 0.127727
