21
gdb 104328	2.21926	1.49365	1.19878	2.4387	80.33	-0.2278	0.0341	0.2619	1157.9059	0.181743	-424.242243	-424.232646	-424.231702	-424.276199	36.565	
C	-0.1033477633	 1.4980649629	-0.051735906	-0.507129
C	-0.0306821099	 0.0034504752	-0.071500302	 0.302124
C	 0.0502331313	-0.7907709849	-1.1396052945	-0.174132
C	 0.1390891172	-2.2543887453	-0.7874939153	-0.260687
C	 0.4029907956	-2.2233955309	 0.7355930549	-0.271175
C	-0.0229008185	-0.8187228106	 1.2215057427	 0.322708
O	 0.9279041493	-0.3411341435	 2.1703699956	-0.486184
C	-1.3979775436	-0.8580126661	 1.9060751694	-0.137098
O	-1.6546897774	 0.4420209623	 2.4373899451	-0.431771
H	 0.7206627641	 1.9086561937	 0.5439181631	 0.127665
H	-0.036484061	 1.9135688025	-1.0609418052	 0.11287
H	-1.0307821823	 1.846039747	 0.4146537522	 0.136856
H	 0.0416412851	-0.4386351201	-2.1668175826	 0.081639
H	-0.7943095207	-2.7819761997	-1.0296492042	 0.100094
H	 0.9312584687	-2.7747019874	-1.3383122871	 0.102437
H	-0.1016221862	-3.0279014086	 1.2791125595	 0.088366
H	 1.4731203566	-2.312703499	 0.9399498496	 0.122313
H	 0.4764981039	 0.3507126098	 2.6711457244	 0.284219
H	-2.1742158852	-1.156180017	 1.1869383741	 0.096774
H	-1.3619477966	-1.6022302878	 2.714568305	 0.095301
H	-2.390421057	 0.3844979675	 3.0529552012	 0.294809
