16
gdb 35881	2.2453	1.59487	1.11572	3.8883	73.75	-0.2747	0.0167	0.2914	1096.2755	0.124162	-400.726307	-400.71776	-400.716816	-400.760204	30.778	
C	-0.4745480528	-1.1216404799	-0.6866588374	-0.42699
C	-0.2697905686	-0.0045333621	-0.2954055574	 0.305043
C	-0.0181188558	 1.34381617	 0.1762189038	-0.186404
C	-0.2231380682	 1.573189655	 1.6931626457	-0.257529
C	 0.6516757201	 2.810750453	 1.978602699	-0.089542
O	 1.4940950683	 3.0075924418	 0.8260465819	-0.247721
C	 1.437570835	 1.8636326097	 0.0063170714	-0.042439
C	 2.4481534051	 0.8585141075	 0.4091302487	 0.281256
N	 3.2501916596	 0.0990996778	 0.7477307234	-0.324308
H	-0.6465520197	-2.1116447971	-1.0309480372	 0.206123
H	-0.6456700303	 2.0506671819	-0.379393077	 0.125609
H	-1.273578229	 1.7283603806	 1.9438118862	 0.126479
H	 0.1329255879	 0.7002830286	 2.2448312063	 0.142499
H	 0.0656271136	 3.7261386298	 2.1030170082	 0.120816
H	 1.2734440562	 2.6724025066	 2.8696318551	 0.125028
H	 1.6483935584	 2.1705160067	-1.0217128105	 0.14208
