20
gdb 55105	4.51371	0.88628	0.84946	3.4011	80.86	-0.2415	0.0297	0.2712	1422.2673	0.170804	-403.161267	-403.151941	-403.150997	-403.196712	34.468	
N	-0.650934762	 1.3167778796	 0.9492485143	-0.532799
C	-0.0867569797	 0.4268971878	 0.0815308196	 0.403937
O	 1.0881061069	 0.4846735649	-0.2346668831	-0.3729
C	-1.0166575233	-0.6395005466	-0.4645597176	-0.084042
C	-1.0160436807	-0.8094526532	-2.0182904129	-0.302367
C	-0.9131382606	-2.3242335979	-1.8105062247	 0.38639
C	-1.9084473381	-3.3382058912	-2.2956351559	-0.321816
C	-0.4704704745	-3.3809914021	-2.7708811699	-0.329771
C	-0.5032516413	-2.111298228	-0.3493314998	-0.302389
H	-0.0704755046	 2.042350807	 1.3373835746	 0.258622
H	-1.618476485	 1.2737802579	 1.2139671448	 0.257043
H	-2.032558384	-0.5380811593	-0.0732849665	 0.058164
H	-1.8874508119	-0.426458181	-2.5560954103	 0.095296
H	-0.1034487921	-0.383440959	-2.4442949153	 0.126336
H	-2.239917698	-4.106114344	-1.6030591272	 0.108152
H	-2.6692881392	-3.0160820221	-3.0003175073	 0.108153
H	-0.2619608901	-3.0878198324	-3.7951648125	 0.111185
H	 0.1670538056	-4.177047286	-2.3987986834	 0.111181
H	 0.5817932006	-2.1232225677	-0.2139732661	 0.126327
H	-0.9762812082	-2.7399667164	 0.409802389	 0.095297
