20
gdb 53328	3.00328	0.96694	0.86675	1.59	89.27	-0.2205	0.058	0.2785	1461.6213	0.169657	-365.950714	-365.941005	-365.940061	-365.986821	35.092	
C	-0.0180622282	 1.5027211561	-0.1055887795	-0.49796
C	 0.0008689148	 0.0481669995	-0.0494435536	 0.051685
C	 0.0098966857	-1.1552426463	 0.0058684513	 0.107826
C	 0.0209222268	-2.6034844241	 0.0672108239	-0.227578
C	 0.3128727835	-3.3272161012	 1.4441530684	-0.231303
C	-1.0171863046	-4.0642679131	 1.2858401637	-0.108291
N	-2.0581530687	-3.0026214187	 1.2454319009	-0.362806
C	-1.330223215	-3.3647546909	 0.0087407811	 0.346581
C	-2.0375413358	-3.7899794531	-1.2390517825	-0.508654
H	 0.7434953549	 1.9364029719	 0.5525225351	 0.144849
H	 0.1770665936	 1.8685335073	-1.1201079596	 0.142211
H	-0.9895960081	 1.9003491897	 0.2087674611	 0.147284
H	 0.6925689483	-3.0092386808	-0.6975921507	 0.093503
H	 1.1936169206	-3.9700673416	 1.3919629352	 0.101252
H	 0.3751652016	-2.6720567284	 2.3147018358	 0.114699
H	-1.2651856736	-5.0689394359	 1.6072930895	 0.09033
H	-2.9627322688	-3.4727646995	 1.1982920845	 0.22115
H	-2.4930825282	-2.9297556642	-1.7434342853	 0.135879
H	-1.3458552477	-4.2628831165	-1.9446906624	 0.123265
H	-2.8334111211	-4.5091635703	-1.0153118768	 0.116078
