15
gdb 48503	3.67152	1.5951	1.38307	3.6189	69.11	-0.2395	-0.0327	0.2068	918.721	0.113897	-416.706117	-416.699725	-416.69878	-416.737106	25.222	
O	-0.1624430819	 0.1454645629	-0.3846926248	-0.262465
C	 0.1066259883	 1.1791229625	 0.1775936575	 0.033633
C	 1.4117636844	 1.8459565284	 0.0843982695	 0.314544
C	 2.1105445464	 2.5607958652	 1.2100062204	-0.066807
C	 3.5544773808	 2.5193023209	 0.6651131364	-0.059765
N	 3.7181101436	 1.1591248178	 0.0625313788	-0.319975
C	 2.6068617025	 1.5901632723	-0.8460222157	-0.13631
C	 2.8827456557	 3.1100513561	-0.6135510091	 0.007537
N	 1.5408159542	 3.3637688135	 0.1011748986	-0.218252
H	-0.6327005514	 1.7213367697	 0.8080332649	 0.083172
H	 1.7361842012	 2.6142588736	 2.2245904538	 0.115402
H	 4.370489817	 2.9485139436	 1.2421495676	 0.092226
H	 4.5850448514	 1.1556795913	-0.4771752229	 0.219776
H	 2.4572278111	 1.0743697716	-1.7905850047	 0.102714
H	 3.2815901467	 3.8393807307	-1.3156849502	 0.09457
