19
gdb 27250	3.03907	1.5321	1.04672	1.5418	84.21	-0.1755	0.046	0.2215	1150.9261	0.1625	-382.105547	-382.097388	-382.096444	-382.138089	31.461	
C	-0.0520973972	 1.5169158386	 0.0625901326	-0.509873
C	 0.0028008538	 0.0302934571	-0.0417661523	 0.18371
C	 0.004184529	-0.8185775067	-1.121184483	 0.193925
N	-0.0101209447	-0.7005007361	-2.5383280989	-0.420018
C	 0.3261709605	-2.0718888292	-3.0159845378	-0.162809
C	 0.0464433567	-3.0844813296	-1.8530273448	-0.368235
C	 0.0812530789	-2.1604162761	-0.6691683722	 0.268173
C	 0.1172760167	-2.129926803	 0.7005362607	-0.257118
N	 0.054932593	-0.80040285	 1.07021639	-0.30757
H	 0.7182140948	 1.9100462052	 0.7379820714	 0.119311
H	 0.1210431982	 1.9549755545	-0.9238291853	 0.141568
H	-1.0208510352	 1.887641091	 0.4242875413	 0.121093
H	-0.9246146846	-0.4211467372	-2.8793515208	 0.222367
H	-0.2240664931	-2.3031928762	-3.9317343521	 0.095823
H	 1.3951616944	-2.0944548197	-3.2577291627	 0.111341
H	-0.9340338855	-3.5675908572	-1.9657003951	 0.100812
H	 0.7963208667	-3.8810979264	-1.8367647849	 0.10524
H	 0.1803152283	-2.9060262535	 1.4464584707	 0.112018
H	 0.1175128394	-0.4694540153	 2.0169799131	 0.250241
