21
gdb 80573	2.36548	1.38344	1.16206	1.213	77.65	-0.2359	0.0699	0.3058	1180.0328	0.182308	-424.219682	-424.210631	-424.209686	-424.252983	35.622	
C	 0.0480247497	 1.5768289373	-0.0612809354	-0.406102
C	 0.0524691773	 0.049943472	-0.0510804288	 0.063343
C	 0.8005881659	-0.5954862103	-1.2483131209	-0.23943
C	 1.2459383998	-1.9704667126	-0.7581174637	-0.168463
C	 2.5123569784	-2.0327216532	 0.0653861327	 0.05934
O	 3.3798423887	-0.9386954375	 0.0182790167	-0.412135
C	 1.1895115845	-1.9658543746	 0.7690150379	 0.331108
O	 0.8517894606	-3.091684571	 1.5246872112	-0.470873
C	 0.697185873	-0.5833535184	 1.2075372704	-0.295951
H	 1.0715577562	 1.9665463434	-0.0174190901	 0.11888
H	-0.4186564313	 1.9681349114	-0.971827585	 0.110548
H	-0.5020069427	 1.9832877264	 0.7944546534	 0.108756
H	-0.9875340091	-0.3033418611	-0.0922535783	 0.063061
H	 0.157985741	-0.6734843799	-2.1299147084	 0.092472
H	 1.6663543246	 0.014235888	-1.5283218655	 0.116799
H	 0.9867070744	-2.8590387703	-1.3232505719	 0.086387
H	 2.9970815209	-3.0083751411	 0.1012343089	 0.089872
H	 3.8116660435	-0.8633448936	 0.8758291099	 0.290671
H	-0.0960547417	-3.2402618794	 1.4328278566	 0.278339
H	 1.5281462852	 0.0379402986	 1.563966291	 0.090019
H	-0.0089268389	-0.6837980841	 2.0370662793	 0.093357
