18
gdb 75085	2.98143	1.40111	1.1009	3.2188	78.5	-0.2257	-0.0177	0.2079	1131.169	0.148444	-401.960172	-401.952158	-401.951214	-401.992684	30.959	
C	 0.1153224433	 1.5437647194	 0.0895469942	-0.494519
C	-0.0022286663	 0.0488107234	-0.0213819739	 0.387641
C	-0.0272469482	-0.6052402775	-1.1847557869	-0.182874
C	-0.1410644666	-2.1066640154	-1.2990694724	-0.375304
C	-0.808960744	-2.7545260575	-0.0931530031	 0.428314
O	-1.6105264126	-3.6564393247	-0.1936081029	-0.325568
C	-0.4574642995	-2.1650914943	 1.2339325177	-0.146504
N	 0.9568942003	-1.7706141196	 1.429621471	-0.332444
C	-0.0590266288	-0.7174482274	 1.2598150915	-0.148648
H	 1.0217229794	 1.8309341892	 0.6378253054	 0.130233
H	 0.1496302902	 2.0162157856	-0.8951188166	 0.126416
H	-0.732716509	 1.9699176233	 0.6410185424	 0.125902
H	 0.0587856122	-0.0518716691	-2.1162872878	 0.09204
H	-0.6972514668	-2.40782487	-2.1906172178	 0.128026
H	 0.8648878268	-2.5442919891	-1.3886620261	 0.150684
H	-1.0132602325	-2.5741279314	 2.0719948382	 0.101119
H	 1.1877420793	-1.8791233907	 2.4145760063	 0.242259
H	-0.3466113471	-0.1549955841	 2.1451167408	 0.093227
