17
gdb 113285	2.24437	1.31867	1.1086	2.871	78.	-0.2396	-0.0279	0.2117	1180.9581	0.131793	-421.775019	-421.765402	-421.764458	-421.809465	34.575	
C	-0.3770438708	 0.9513684125	-0.1296320374	-0.24023
O	 0.5823472439	-0.0672126131	 0.1035555523	-0.205806
C	 1.0274569465	-0.6793456887	-1.0350638601	 0.108326
C	 1.5792978374	-2.0366033142	-0.9233307344	-0.353426
C	 0.2326006631	-1.9050622081	-1.6520568645	-0.024107
C	-0.9778134923	-2.3589075298	-0.9045149933	 0.08398
O	-1.0045668791	-2.5803761098	 0.2811285021	-0.262918
C	 0.1794319663	-1.9916536131	-3.0796360958	 0.240386
C	 0.1195466044	-2.0597336706	-4.2798203121	-0.414295
H	 0.01570817	 1.7218921168	-0.8080585104	 0.11554
H	-1.2993195011	 0.538253437	-0.5593813849	 0.120167
H	-0.600826799	 1.4015577894	 0.8386210038	 0.14156
H	 1.4129053497	-0.0132728017	-1.8081391847	 0.111444
H	 2.437641006	-2.3115803355	-1.5235141696	 0.137159
H	 1.4911549555	-2.5029643842	 0.0522630175	 0.161476
H	-1.8815589491	-2.465573379	-1.5407424397	 0.085038
H	 0.0705685486	-2.1278775878	-5.3383220988	 0.195705
