16
gdb 16359	2.56018	2.36791	1.45452	4.3697	65.2	-0.268	0.0109	0.2789	884.2974	0.130095	-383.761316	-383.753801	-383.752857	-383.793064	27.881	
C	-0.2828735069	 1.4877956801	 0.0291848974	-0.404055
C	 0.0951396817	 0.0247333078	-0.0086864092	 0.077316
O	 1.3601514049	-0.1987170827	-0.7400765452	-0.277775
C	 1.9588875689	-0.7721885181	 0.3597224429	 0.435863
O	 3.0620687945	-1.2099632092	 0.4509056814	-0.344945
C	 0.7451116822	-0.6056511016	 1.2217708816	 0.112416
C	 0.7141186849	-0.2187243644	 2.6754858258	-0.31505
C	 0.2274358671	-1.5737649086	 2.2488575318	-0.318175
H	 0.5151413846	 2.0842408113	 0.479823572	 0.13298
H	-0.4702726766	 1.8608223772	-0.9817753989	 0.138108
H	-1.1970663492	 1.6267732574	 0.6163341918	 0.123482
H	-0.6878057606	-0.5872851448	-0.4670428685	 0.100518
H	 1.6690953972	-0.1478571771	 3.1843601974	 0.142809
H	-0.0215039757	 0.5197106977	 2.9760818558	 0.126975
H	-0.8408722414	-1.7621545837	 2.2592306442	 0.126886
H	 0.8476498543	-2.4373331615	 2.4627702598	 0.142648
