17
gdb 126735	3.36358	1.06252	0.85464	5.4431	79.46	-0.2437	-0.0436	0.2001	1345.4701	0.136544	-418.044191	-418.035688	-418.034743	-418.078475	30.342	
C	 0.0672686138	 1.4918596495	-0.259587682	-0.375582
C	 0.000881257	 0.011534729	 0.1138551639	-0.144308
N	-1.3564956309	-0.5174400845	 0.0378868368	 0.06747
C	-1.8703884312	-1.3570493089	-0.9033649897	-0.018011
C	-3.1959396828	-1.5412079219	-0.5848442258	-0.309127
C	-3.3921627591	-0.7604672317	 0.5796353915	 0.253834
C	-4.6473609537	-0.6155342244	 1.3308760552	 0.093164
O	-4.806203352	 0.0516274995	 2.3246382038	-0.264554
N	-2.2587857538	-0.1417863043	 0.9442949264	-0.304458
H	 1.0944386077	 1.8549474874	-0.1619402135	 0.125141
H	-0.2598163312	 1.6518617655	-1.291141498	 0.12734
H	-0.5752175912	 2.0750358268	 0.4036826815	 0.158723
H	 0.6188569492	-0.594764334	-0.5536957134	 0.122581
H	 0.3546132335	-0.1433276594	 1.1366184509	 0.142999
H	-1.2579852816	-1.746486996	-1.7010659097	 0.140121
H	-3.918391297	-2.1500560387	-1.1043778848	 0.119144
H	-5.4861636166	-1.1998869839	 0.8873254871	 0.065522
