19
gdb 72565	2.38109	1.88956	1.44302	2.217	73.98	-0.2394	-0.0162	0.2233	978.7347	0.160306	-423.063592	-423.055846	-423.054902	-423.095502	30.746	
C	 0.0106919362	 1.5058127551	 0.0301849057	-0.488061
C	-0.0262665555	-0.0071222649	-0.0053916357	 0.159296
C	 0.6117187942	-0.6681501667	-1.2589996062	-0.104981
O	 0.1348526799	-2.0218429271	-1.256201403	-0.277761
C	-0.7145886812	-2.144086968	-0.1044589505	 0.090591
C	 0.1809176221	-2.1673774714	 1.1459179092	-0.336393
C	 0.6688360167	-0.7066758161	 1.1764390402	 0.404355
O	 1.4340558199	-0.2065821041	 1.9580200623	-0.332972
C	-1.3807011731	-0.7620166137	-0.0116750813	-0.276316
H	 1.0433940913	 1.8631441133	 0.0850662318	 0.136383
H	-0.4590791353	 1.9353068298	-0.860400447	 0.114006
H	-0.5109365639	 1.8888257466	 0.9120826833	 0.127343
H	 0.2769274223	-0.1575457082	-2.1722630796	 0.103916
H	 1.7079758954	-0.6550596666	-1.2375524769	 0.114236
H	-1.3605829971	-3.0103707344	-0.2437910196	 0.084122
H	-0.3768995648	-2.3948243524	 2.0615599114	 0.127504
H	 1.0153284675	-2.8685358394	 1.0690090679	 0.136505
H	-1.9647333226	-0.6135966955	 0.9010878091	 0.106944
H	-1.9965121818	-0.5294154061	-0.8841855112	 0.111284
