16
gdb 80220	2.24094	1.55881	1.22721	6.0545	71.63	-0.2529	-0.0331	0.2198	1068.8784	0.123032	-437.887799	-437.879386	-437.878441	-437.921026	30.67	
C	 0.066223833	 1.5690330421	 0.0614915667	-0.425541
C	 0.1007036605	 0.0582788608	 0.090258128	-0.06326
C	 1.2959233633	-0.7863225277	-0.1676745194	-0.0587
N	 2.5388933192	-0.2272844254	 0.3565592112	-0.336613
C	 2.0285019859	-0.0853469799	 1.660795428	 0.360519
O	 2.4887403877	 0.4089209829	 2.6456678703	-0.323753
C	 0.7084971184	-0.7533806718	 1.2636698603	 0.059077
C	-0.0427047179	-1.8150553874	 1.9523653845	 0.064673
O	 0.1843463643	-2.2090844177	 3.067907706	-0.24536
H	 1.0097822824	 2.007298881	 0.3945665238	 0.138127
H	-0.1341121993	 1.9220732685	-0.9555180041	 0.130464
H	-0.7259883615	 1.9479566787	 0.7133808806	 0.142282
H	-0.8217370908	-0.4117604604	-0.2534719727	 0.110372
H	 1.3192177063	-1.6426334975	-0.8299539955	 0.129026
H	 3.0911958006	 0.4814789886	-0.1119546896	 0.250158
H	-0.8690647022	-2.2478663449	 1.3396582118	 0.06853
