20
gdb 81423	2.36513	1.96272	1.47525	1.5619	77.46	-0.2279	0.0695	0.2974	975.0898	0.173068	-403.098341	-403.090823	-403.089879	-403.129625	31.613	
C	 0.0073305414	 1.4824739128	 0.0305460113	-0.503771
C	 0.0714424348	-0.0205978711	 0.001437657	 0.337186
N	-0.7985149784	-0.8342718284	 0.8864601974	-0.378167
C	 0.6800833777	-0.9121437997	 1.0283787748	-0.116389
C	 1.3652746152	-1.9758203153	 0.1472340644	-0.097708
C	 0.3001689556	-2.2533779661	-0.9488071514	-0.23178
C	 0.5114209595	-0.7543826853	-1.2888775868	-0.136773
C	 2.0235575833	-1.0411146903	-0.935705335	 0.172492
O	 2.9100644268	-0.0183550242	-0.57735323	-0.445552
H	 0.8902155795	 1.9225017475	-0.4461916685	 0.132431
H	-0.8713644884	 1.848574842	-0.5133422392	 0.129661
H	-0.0537920842	 1.861884933	 1.0569241808	 0.112194
H	-1.1511630146	-0.2251943427	 1.6239040132	 0.221814
H	 1.1399462041	-0.5560163144	 1.9446288506	 0.087629
H	 1.9182426551	-2.7744701543	 0.64111902	 0.062644
H	 0.6827623626	-2.9105733162	-1.7316514461	 0.093527
H	-0.6891582236	-2.5613723162	-0.6239196846	 0.131716
H	 0.2106372905	-0.3218333718	-2.2434974149	 0.05884
H	 2.5219332189	-1.6092718469	-1.7241883197	 0.086356
H	 2.5455007443	 0.4373388874	 0.1884392569	 0.283649
