16
gdb 25033	4.01623	1.12118	0.94172	4.5723	73.15	-0.2047	0.026	0.2307	1221.6414	0.125466	-437.931125	-437.923378	-437.922434	-437.963817	29.237	
O	 0.0910155787	 0.0293301961	-0.2040753076	-0.401053
C	-0.0162685916	 1.2192721803	-0.0882708496	 0.476329
N	-1.1135761902	 1.9918161786	 0.2014960613	-0.363154
C	-0.7599774027	 3.3456545219	 0.2354425192	-0.238432
C	 0.5533222169	 3.4046714273	-0.0328744011	 0.389274
O	 1.029635302	 2.1198083689	-0.2339166877	-0.25197
C	 1.5044029794	 4.5094964287	-0.1429412854	-0.106064
C	 2.9416887818	 4.341124262	 0.3137427828	-0.267502
C	 2.6363220718	 4.4578926996	-1.1523176226	-0.267493
H	-2.0212646371	 1.5935081032	 0.3603405614	 0.276515
H	-1.4684319115	 4.1275894983	 0.4447573395	 0.147657
H	 1.0466305994	 5.4777922099	 0.029530757	 0.094726
H	 3.4057157251	 5.1804838846	 0.8189319794	 0.118229
H	 3.225966125	 3.3659358058	 0.6908937334	 0.137367
H	 2.7166017393	 3.560702695	-1.7545271546	 0.137344
H	 2.8880280735	 5.3784340299	-1.6664281356	 0.118225
