19
gdb 74953	3.09933	1.49727	1.3285	2.1469	75.56	-0.2346	0.0115	0.2461	1041.8921	0.161411	-423.044326	-423.036882	-423.035938	-423.076054	29.628	
C	-0.0382799905	 1.5340130762	 0.050840877	-0.476309
C	-0.0022428414	 0.0346402724	-0.0168158086	 0.294066
C	-0.0099055953	-0.6568722306	-1.1590325868	-0.152243
C	 0.016742902	-2.1726798869	-1.1258885484	 0.135745
O	 1.3508178213	-2.6531449282	-0.9817675866	-0.260545
C	 1.6275237063	-2.5327189875	 0.4157266802	-0.100472
C	 0.2419979817	-2.2193878889	 1.0523789614	 0.037515
C	 0.0280218824	-0.7199772728	 1.2994358032	-0.301877
O	-0.6544026478	-2.6453538971	 0.0237127425	-0.244068
H	 0.8471748715	 1.9306973926	 0.5638458274	 0.1244
H	-0.0849739826	 1.9817725161	-0.9452743315	 0.124367
H	-0.909145147	 1.8799758329	 0.6228226032	 0.12633
H	-0.0027941769	-0.1638075138	-2.1264103355	 0.087436
H	-0.4223398935	-2.6352260444	-2.0120209586	 0.090196
H	 2.0413654881	-3.4824693929	 0.7682478776	 0.110878
H	 2.3554623863	-1.7346270902	 0.6051305567	 0.100081
H	 0.041475689	-2.8127316931	 1.9465317068	 0.08589
H	 0.8276024782	-0.3283120111	 1.9428569683	 0.105249
H	-0.9115109519	-0.5563974327	 1.8457464018	 0.113359
