15
gdb 98387	3.05417	1.1202	0.86169	4.5429	66.02	-0.2656	-0.0488	0.2168	1288.0161	0.110375	-491.11622	-491.106887	-491.105943	-491.151157	31.598	
C	 0.0297147578	 1.3129982273	-0.2569794321	-0.231394
O	-0.130035032	-0.1107624368	-0.3300326709	-0.231351
C	-1.3006405693	-0.5933767965	 0.1055581766	 0.471625
N	-2.2564337506	 0.1520941978	 0.470081826	-0.549293
N	-1.2858769332	-2.0171317736	 0.0617713415	-0.199887
C	-2.4734215617	-2.6714756303	-0.3503513679	 0.153168
O	-2.665340863	-3.8506511126	-0.3217556175	-0.245535
C	-0.0864125859	-2.7133448796	 0.3779740474	 0.16627
O	 0.0568648022	-3.8977876111	 0.3065692915	-0.250555
H	 1.0494794062	 1.5060916722	-0.5891551726	 0.142005
H	-0.6917677502	 1.8089759921	-0.909805869	 0.152264
H	-0.1215199446	 1.6631739241	 0.7667695244	 0.149142
H	-3.0396780596	-0.3718529545	 0.847762891	 0.24098
H	-3.2086198574	-1.9342917273	-0.7206760004	 0.111067
H	 0.6946545014	-2.0105001814	 0.7049236118	 0.121495
