16
gdb 44834	2.54138	1.83739	1.42978	4.1668	69.58	-0.2518	-0.0351	0.2167	936.0979	0.12671	-437.928961	-437.922249	-437.921305	-437.960128	26.973	
N	-0.062324947	 1.2794197932	-0.0500571354	-0.550663
C	-0.0317679686	 0.0217991427	-0.0180768776	 0.42622
O	 1.1017890006	-0.7606095733	 0.0145831577	-0.258843
C	 0.6515316395	-2.1424633483	 0.0637902772	 0.084714
C	-0.6147743899	-2.1008442808	-0.808619316	-0.255504
C	-1.2191957082	-0.9260703069	 0.0035508418	-0.20547
C	-1.1990763889	-1.5420865574	 1.4227659279	 0.429049
O	-2.0211928199	-1.4121672937	 2.2839974398	-0.311694
C	 0.0914681611	-2.3892421999	 1.4720379768	-0.339569
H	 0.8840649812	 1.6646701723	-0.0561005643	 0.228038
H	 1.47586142	-2.7773277063	-0.2540091362	 0.100485
H	-0.4064844823	-1.8428669071	-1.8487829466	 0.130529
H	-1.2060895788	-3.0184830951	-0.7629455332	 0.121113
H	-2.162907533	-0.4755155705	-0.2857542657	 0.116347
H	-0.1545552868	-3.4415065938	 1.6471038541	 0.137364
H	 0.759811911	-2.054331015	 2.2685700997	 0.147887
