17
gdb 36191	3.99762	1.11633	1.10095	3.1208	75.46	-0.2376	0.029	0.2666	1141.2311	0.137379	-380.80445	-380.797048	-380.796104	-380.836926	28.449	
N	-0.1889758008	-1.0591120985	-0.4909651702	-0.30474
C	-0.0859729199	 0.0454615678	-0.1683788668	 0.266624
C	 0.0687542609	 1.4444697455	 0.2417789257	-0.475193
C	 1.493907518	 1.9248997901	 0.1317203716	 0.336028
C	 2.6876615333	 1.6239944784	 1.0226115438	-0.225533
N	 3.3922485089	 2.8296390524	 0.4307988027	-0.166352
C	 3.6044605168	 2.3723923003	-1.0031802901	-0.177102
C	 2.100786408	 2.4140471344	-1.2040669636	-0.120854
C	 2.0000915887	 3.3300825713	-0.0178642743	-0.097341
H	-0.5914726571	 2.0618299826	-0.3792178183	 0.15547
H	-0.2915921788	 1.544201925	 1.273199904	 0.156815
H	 2.4769452338	 1.8101450941	 2.079838053	 0.110223
H	 3.2269188075	 0.6770416981	 0.9128429853	 0.112688
H	 4.1260509012	 3.1563630373	-1.5575805715	 0.116005
H	 4.1431144616	 1.4241500515	-1.1043726961	 0.108441
H	 1.512398685	 2.4203106033	-2.1137602212	 0.099294
H	 1.5858840428	 4.3123720663	 0.1610433359	 0.105528
