20
gdb 118598	1.63739	1.20529	0.75546	3.2377	83.34	-0.2535	0.0197	0.2733	1545.1524	0.168418	-403.145798	-403.135149	-403.134204	-403.182609	37.504	
C	-0.139034247	 1.3530520549	-0.113805609	-0.388334
C	 0.0283413486	-0.1655266714	-0.0115239785	-0.170441
C	 0.7719484078	-0.5869625249	 1.2589272061	-0.165733
C	 0.9188148662	-2.1182799606	 1.4127529961	-0.178816
N	 1.6803376067	-2.7218841904	 0.3169454076	-0.271621
C	 1.1037450915	-3.5202244185	-0.6223046374	 0.160438
O	-0.0845849705	-3.743189432	-0.7155564803	-0.324098
C	 1.528878299	-2.4632345364	 2.697755904	 0.303495
C	 2.0565965818	-2.7129352102	 3.7482530362	-0.422076
H	 0.8321227588	 1.8607647659	-0.1214799199	 0.112792
H	-0.6669003691	 1.6313699605	-1.0309199235	 0.116579
H	-0.7108458149	 1.7486987841	 0.7328776754	 0.115566
H	-0.9545204458	-0.6515276389	-0.0353104631	 0.113413
H	 0.5695129081	-0.5358516785	-0.8894339514	 0.105348
H	 1.7707086754	-0.1321483764	 1.2847857094	 0.097372
H	 0.2426419253	-0.2167106468	 2.1448974905	 0.112387
H	-0.0757519376	-2.5737331655	 1.344905326	 0.149761
H	 2.6862271367	-2.6630197536	 0.3515570479	 0.252869
H	 1.8558180439	-3.9447327737	-1.3159647012	 0.080829
H	 2.5044855551	-2.9495884374	 4.6817695151	 0.200272
