21
gdb 122566	4.9928	0.65093	0.62755	1.0036	78.76	-0.2505	0.0796	0.33	1797.3126	0.181541	-424.17955	-424.170135	-424.169191	-424.214825	34.369	
O	-0.0353216481	 1.4236658263	-0.1583916899	-0.422649
C	 0.0413722899	 0.019442897	 0.040194512	-0.073465
C	-1.3695678143	-0.5467426373	-0.0463299794	-0.166382
C	-1.4145048186	-2.0653162401	 0.1512872062	-0.207403
C	-2.8222650424	-2.6417907199	 0.0538372672	-0.008708
C	-3.5522258273	-2.6479619676	-1.3466318772	-0.26888
C	-3.6499090967	-4.1740087042	-1.2343502399	 0.035174
O	-2.3118864231	-4.6743419855	-1.1141587104	-0.246035
C	-2.9588262667	-4.1764231005	 0.0638094795	 0.004241
H	 0.8557027848	 1.7822433011	-0.1146285923	 0.284508
H	 0.679262871	-0.4572293939	-0.7222426656	 0.085297
H	 0.4787207174	-0.2202488436	 1.0237532578	 0.08212
H	-1.9907100845	-0.0465771685	 0.7073978572	 0.100918
H	-1.7895607501	-0.2778775362	-1.0231404745	 0.108009
H	-0.7852341366	-2.562727754	-0.5963006521	 0.112198
H	-0.9923402572	-2.319761091	 1.1338054863	 0.090773
H	-3.4762853884	-2.195214447	 0.8109643228	 0.075012
H	-4.5193790503	-2.1409785163	-1.3212879128	 0.106152
H	-2.974440412	-2.2897794192	-2.2027221044	 0.109307
H	-4.3936337782	-4.8489528701	-1.6417759246	 0.102649
H	-3.0295533186	-4.8525353094	 0.9089256039	 0.097162
