16
gdb 131516	3.11577	1.5714	1.15287	4.3071	70.26	-0.2456	-0.0077	0.2379	1028.1461	0.127396	-434.061502	-434.054193	-434.053249	-434.093478	27.824	
O	-0.452821363	 1.454515346	-0.3285910601	-0.419546
C	 0.045265882	 0.1553545438	-0.0103548486	-0.040568
C	-1.1790458835	-0.7945796005	 0.1811727563	-0.211437
C	-1.3996142575	-1.5964929961	-1.1456793873	-0.343003
C	-0.0598386062	-1.444857488	-1.7988953386	 0.30447
C	 0.7222956398	-0.5187203404	-1.1673456858	 0.33696
N	 1.8589701454	-0.4958820522	-1.8947898324	-0.341661
N	 1.7778993684	-1.3815090638	-2.9258494128	-0.121491
N	 0.6042788486	-1.9545656067	-2.8664149599	-0.290184
H	 0.2934352649	 2.0322546672	-0.5176533267	 0.281834
H	 0.6600236605	 0.2017571954	 0.8990723874	 0.078098
H	-0.955217518	-1.492293626	 0.9927804578	 0.114595
H	-2.0492541871	-0.2050308801	 0.4764184715	 0.12382
H	-1.6770435043	-2.6355131103	-0.9483643973	 0.122505
H	-2.1969995527	-1.1595366056	-1.7565918966	 0.129749
H	 2.7140575329	 0.0231228673	-1.7780306569	 0.275861
