13
gdb 933	5.89436	2.6957	1.87112	0.5825	61.88	-0.2438	-0.0469	0.1969	657.0932	0.103975	-303.553222	-303.547289	-303.546344	-303.583364	21.298	
C	-0.0572600723	 1.5045333306	 0.0173341681	-0.470813
C	-0.0090954252	 0.0018414089	-0.0074533854	 0.319553
C	 0.2881314095	-0.7125759898	-1.1736524175	-0.052132
N	 0.3354544696	-2.0438410992	-1.2152545756	-0.231335
C	 0.0807672453	-2.6755542027	-0.0687365325	-0.013129
C	-0.2162783118	-1.976692586	 1.0985887827	-0.017705
N	-0.2629150945	-0.645875484	 1.1373271473	-0.288497
H	 0.164060592	 1.9298873769	-0.9645127881	 0.124845
H	-1.0467948185	 1.8495504081	 0.3333494323	 0.145025
H	 0.6647219443	 1.897686868	 0.7400030478	 0.145025
H	 0.494158402	-0.1861463791	-2.102925871	 0.10987
H	 0.1139690716	-3.7618076646	-0.0799048102	 0.114919
H	-0.4220104722	-2.5045927269	 2.026843122	 0.114373
