14
gdb 130339	3.26908	1.64877	1.10606	10.68	75.34	-0.1651	-0.0189	0.1463	1006.2167	0.103291	-432.757427	-432.750275	-432.749331	-432.789368	26.682	
N	 0.0272784702	 0.9782031497	 0.0064910707	-0.471428
H	 0.0431511243	-0.0558001329	 0.0668412914	 0.308657
H	 1.0041993032	 1.2795586033	-0.0456627432	 0.335438
H	-0.4118568811	 1.2192125733	-0.8850468106	 0.321683
C	-0.6335935455	 1.6713135952	 1.1187551439	-0.16016
C	-2.0474400463	 1.801627889	 1.2797448676	-0.130325
C	-2.3696754356	 2.1335483354	 2.5879603087	-0.28978
C	-1.1308255657	 2.1404558513	 3.3072420224	 0.326933
N	-0.6205852995	 2.320591494	 4.5024795734	-0.241549
O	 0.728075642	 2.0738778311	 4.3590123808	-0.172735
N	 1.0832043032	 1.7434263092	 3.0497638466	-0.303353
C	-0.0526550159	 1.7999220363	 2.3992516088	 0.309682
H	-2.7689869736	 1.7069300269	 0.4740093673	 0.075766
H	-3.3485410497	 2.3800873084	 2.9665012523	 0.091172
