17
gdb 106342	4.77783	0.96283	0.92548	3.5012	74.83	-0.2717	0.0024	0.2741	1263.9156	0.136818	-417.945332	-417.937184	-417.93624	-417.978222	30.839	
O	-0.0742426007	 1.3843395026	-0.029370038	-0.411946
C	-0.0273646181	-0.0255951831	 0.0508285817	-0.186053
C	-1.4069142459	-0.6108102251	-0.0464703591	 0.291854
C	-2.472843862	-0.3697283374	-1.1520997997	-0.253751
C	-3.1565759356	-1.1401138336	 0.0087968558	 0.23112
C	-1.9122083171	-2.0771910823	 0.0710939908	-0.31658
N	-2.4799345143	-0.1574543456	 0.9553553767	-0.381291
C	-4.5459719697	-1.5070372453	 0.1439824664	 0.167851
N	-5.6535049243	-1.8211611778	 0.2478689594	-0.343616
H	-0.7925964851	 1.6730434091	 0.5474156282	 0.297228
H	 0.5927660008	-0.3772871582	-0.7810986751	 0.120969
H	 0.4497832819	-0.3692902641	 0.9847371198	 0.092908
H	-2.7994621593	 0.6608349894	-1.2794054979	 0.130755
H	-2.3482585796	-0.9085248674	-2.0912428561	 0.115231
H	-1.7449594178	-2.7518738057	-0.7727776406	 0.116339
H	-1.7453231018	-2.5726024299	 1.0312589836	 0.113091
H	-2.3203795614	-0.6284171558	 1.8530497842	 0.21589
