18
gdb 1515	7.79138	1.16349	1.05919	3.3426	66.05	-0.2413	0.0381	0.2794	1147.6309	0.158899	-327.020807	-327.01174	-327.010796	-327.055427	30.574	
C	 0.0631067643	 1.5680625872	 0.0207185804	-0.385471
C	 0.2477199598	 0.0499254628	 0.0563128436	-0.148891
C	 0.4440308187	-0.5593588813	-1.336210801	-0.297393
C	 0.4598771608	-2.0860709769	-1.2991069621	 0.414758
O	-0.2657690552	-2.7261057355	-0.5572266459	-0.37727
N	 1.3311442899	-2.6740230863	-2.1717004721	-0.31254
C	 1.446701705	-4.1118481502	-2.3127100343	-0.332632
H	 0.9319446107	 2.0695919609	-0.4210007519	 0.109263
H	-0.814946591	 1.8472421583	-0.5727637385	 0.113857
H	-0.0751360041	 1.9721906607	 1.0282710672	 0.114906
H	 1.1092377345	-0.2053651793	 0.6856114381	 0.098986
H	-0.6182672124	-0.4343657803	 0.5165857511	 0.12883
H	-0.3922336454	-0.2630044566	-1.9844857683	 0.125248
H	 1.3546175567	-0.168367796	-1.8073471617	 0.087901
H	 1.9008879578	-2.0830381533	-2.7531344191	 0.242484
H	 0.7575866119	-4.5614670252	-1.5969224115	 0.171776
H	 1.1773685316	-4.4401520429	-3.3232602264	 0.123063
H	 2.4643540464	-4.4543341261	-2.0938652776	 0.123124
