19
gdb 10175	3.31751	1.06855	0.85207	3.0028	72.08	-0.2743	0.0325	0.3068	1355.7251	0.164052	-365.081449	-365.071638	-365.070693	-365.116574	33.897	
C	-0.0736238167	 1.5433817114	 0.079206689	-0.399544
C	 0.0144877381	 0.0187179058	-0.0032798261	-0.179929
C	 0.7203677145	-0.5008594797	-1.2778973603	-0.140531
C	 0.8803381153	-2.0350419461	-1.2625393678	-0.180556
C	 1.6545290924	-2.5880449412	-2.4535302226	-0.090275
O	 1.7835502127	-3.986254836	-2.2551079644	-0.419485
C	 0.001613211	-0.0614340852	-2.4808962187	 0.288534
N	-0.5750412609	 0.2792274303	-3.4235333916	-0.34176
H	 0.9221903757	 1.9999854839	 0.0683350533	 0.118075
H	-0.6405444299	 1.9551633101	-0.7611176363	 0.144958
H	-0.5708875258	 1.8513393918	 1.0033626068	 0.121981
H	 0.5707303647	-0.372649341	 0.8559967331	 0.107814
H	-0.9882978309	-0.4208165301	 0.0452103713	 0.118273
H	 1.7195715818	-0.0452677013	-1.325092521	 0.122549
H	 1.4060499209	-2.3149173469	-0.3433732134	 0.115785
H	-0.1057327119	-2.510285343	-1.2267133651	 0.124
H	 1.1185429217	-2.3604173439	-3.3866236341	 0.113945
H	 2.6418586531	-2.0995687401	-2.5142776633	 0.086007
H	 2.1832350043	-4.3667314087	-3.0424520389	 0.29016
