19
gdb 50577	3.33389	1.24476	1.01323	3.8805	75.97	-0.2492	-0.0202	0.2289	1189.5911	0.15947	-423.020391	-423.012314	-423.01137	-423.053388	30.816	
O	-0.0815260206	-0.0429616661	 0.0775371387	-0.230544
C	 0.0060154157	 1.1508439818	-0.0035460072	 0.145689
C	 1.2935764456	 1.9518415591	 0.0269951001	 0.04196
C	 1.3077843046	 2.9056386184	 1.2352345912	-0.236904
C	 2.5500642155	 3.807153245	 1.1618832459	-0.236618
C	 3.7979870801	 3.0408512589	 0.7553784244	-0.041238
C	 4.2762869294	 1.8096830479	 1.4963735023	-0.305827
C	 3.6502773638	 1.6750639719	 0.1330284927	 0.10278
O	 2.386699019	 1.0683936518	 0.058629828	-0.247623
H	-0.8954752145	 1.8018172809	-0.102970163	 0.07025
H	 1.2992739033	 2.5649863897	-0.8963869735	 0.080526
H	 0.399231609	 3.5171187886	 1.2537614757	 0.105133
H	 1.3105459179	 2.2962233103	 2.1461998468	 0.12114
H	 2.3665073825	 4.5852753984	 0.4098445696	 0.103881
H	 2.7028090378	 4.3243835339	 2.1161405869	 0.106861
H	 4.5831955944	 3.6627728395	 0.3353128338	 0.090766
H	 5.3445140398	 1.6568387119	 1.6038098231	 0.112564
H	 3.6801787856	 1.4439141055	 2.3254795241	 0.121748
H	 4.2797152412	 1.4065524426	-0.7114980098	 0.095456
