23
gdb 104431	2.90516	1.19956	1.07726	0.9705	88.09	-0.2391	0.0234	0.2625	1273.7865	0.205729	-388.301725	-388.292235	-388.291291	-388.335796	36.588	
C	-0.1250447926	 1.3573158565	-0.1184166702	-0.245737
O	 0.0814430802	-0.0304042913	 0.0102456946	-0.287761
C	 0.7061648283	-0.5178191677	 1.2159153684	 0.365876
C	-0.041541557	-0.0126569869	 2.4615463653	-0.436215
C	 0.594533724	-2.0470031499	 1.0784593657	-0.234387
C	 1.5830514443	-2.7983405547	 1.9750110573	-0.219908
C	 3.0308930059	-2.4192703087	 1.6350387596	-0.241919
C	 3.1844792383	-0.9353513416	 1.433579739	-0.063945
C	 2.1625614128	-0.098905448	 1.2587082723	-0.086902
H	 0.8051368214	 1.9400130551	-0.0578208706	 0.103908
H	-0.5548622472	 1.5115272953	-1.1120082923	 0.125097
H	-0.8293928379	 1.754961771	 0.6255259967	 0.103975
H	-1.1174581041	-0.1840895477	 2.3498226859	 0.118691
H	 0.3056243458	-0.5434076907	 3.3519407968	 0.12095
H	 0.1248971287	 1.054266675	 2.6367191253	 0.112773
H	-0.4362114005	-2.3533258808	 1.2860112531	 0.090963
H	 0.7924052585	-2.287153828	 0.0279020828	 0.106854
H	 1.3861619254	-2.5637039503	 3.0285244049	 0.09968
H	 1.4373942393	-3.8784830045	 1.8679448462	 0.093365
H	 3.7141100982	-2.7621369571	 2.4221233125	 0.100129
H	 3.3536891831	-2.9407445231	 0.7210851445	 0.110176
H	 4.1998027977	-0.5435637779	 1.4267130535	 0.083789
H	 2.3599241373	 0.9633462862	 1.1382153787	 0.080546
