19
gdb 2153	3.35545	2.79855	1.64619	0.2568	73.44	-0.2239	0.0359	0.2598	813.6284	0.172154	-273.8121	-273.804551	-273.803607	-273.843351	28.522	
C	-0.0565990571	 1.5744976962	-0.0205874547	-0.400885
C	 0.0336773734	 0.0449168434	 0.0348958057	-0.048529
C	 0.7552274845	-0.5743260032	-1.1906114481	-0.212354
C	 1.5216476447	-1.806216437	-0.651518135	-0.25276
C	 1.6222288268	-1.5124271411	 0.8249387181	-0.170986
C	 0.8227863715	-0.5158720921	 1.2112820402	 0.346377
C	 0.6237694086	-0.0171216161	 2.6091163391	-0.497298
H	 0.9426167879	 2.0243870547	-0.0464120632	 0.11288
H	-0.5922095574	 1.8990065223	-0.919108821	 0.111876
H	-0.5879942943	 1.9831127155	 0.8450802285	 0.111051
H	-0.9956651304	-0.344822644	 0.0979195531	 0.070855
H	 0.0692220481	-0.816936233	-2.0069277791	 0.091189
H	 1.4733538485	 0.1565074197	-1.580432382	 0.097302
H	 0.9672632114	-2.7403189692	-0.8251191259	 0.100084
H	 2.4968980122	-1.9387822353	-1.1343474098	 0.097215
H	 2.2464794819	-2.0939019928	 1.4965378682	 0.078181
H	 1.234348911	-0.5750913036	 3.3243051632	 0.119844
H	 0.8804110862	 1.0452504763	 2.7020453949	 0.12518
H	-0.4265604474	-0.1089824307	 2.9170964076	 0.120775
