21
gdb 120989	3.77547	0.91144	0.85692	1.7107	79.	-0.2402	0.0772	0.3174	1441.0585	0.18237	-424.173203	-424.164229	-424.163285	-424.208096	32.718	
C	-0.1899622814	 1.3586394057	-0.1326853981	-0.226041
O	-0.0448412864	-0.0393410036	-0.0735275722	-0.233301
C	 0.6727068192	-0.5668571348	-1.1695900254	-0.077641
C	 0.6973974902	-2.0758828234	-1.0265648547	 0.004035
C	-0.6291903494	-2.8587916853	-1.2970830528	-0.248832
C	 0.0988787174	-3.6966052771	-2.3698029678	 0.124786
O	-0.0154382781	-3.1303331447	-3.6942082172	-0.292478
C	 1.2690386429	-2.4770409564	-3.5759320015	-0.081978
C	 1.4265335222	-2.9253062504	-2.1129119613	-0.119004
H	 0.7847263446	 1.8728206742	-0.1269109774	 0.101819
H	-0.7370903455	 1.6762964567	-1.0347236235	 0.104045
H	-0.7558092879	 1.6675011712	 0.7497456809	 0.126717
H	 0.188079027	-0.2699535124	-2.1149333918	 0.090105
H	 1.7010584354	-0.1624259536	-1.189991959	 0.081148
H	 1.0937775817	-2.3087292363	-0.03431498	 0.085355
H	-0.9885540329	-3.430349979	-0.4378995075	 0.101801
H	-1.4544955272	-2.2670937659	-1.7001664316	 0.111327
H	-0.0169180571	-4.7838518866	-2.3710798125	 0.073529
H	 2.0064776026	-2.9267964616	-4.2541673189	 0.098561
H	 1.2142767331	-1.4020079607	-3.7849040934	 0.101043
H	 2.3720518096	-3.3873382962	-1.8314219044	 0.075004
