18
gdb 99533	2.23797	1.21477	0.83072	2.9857	78.11	-0.2757	0.0212	0.2969	1356.2051	0.145127	-401.924789	-401.914606	-401.913662	-401.960207	36.44	
C	 0.0840481305	 1.5827317895	 0.0257390848	-0.410395
C	-0.0042991882	 0.0431569116	 0.0332691438	-0.15058
C	 0.701471245	-0.4853537342	 1.2058913626	 0.2819
N	 1.2611271605	-0.8709612508	 2.140431785	-0.320837
C	-1.4697125929	-0.4909375568	 0.0024988589	-0.180297
C	-2.249426312	 0.0227940526	-1.2364570563	-0.07027
O	-3.5569506187	-0.4917174627	-1.287648093	-0.416443
C	-1.5007575318	-1.9516753901	 0.0067655837	 0.296768
C	-1.5516464694	-3.151647883	-0.0552748528	-0.43645
H	 1.1223991362	 1.9015287021	 0.1407651618	 0.144832
H	-0.2925717282	 1.9891200332	-0.9150653581	 0.136673
H	-0.4954696021	 2.0096371628	 0.8493519631	 0.14186
H	 0.5102621662	-0.3483124644	-0.8532238039	 0.137388
H	-1.9878851393	-0.1242878664	 0.8976829759	 0.131857
H	-2.3537803788	 1.1090403424	-1.1832643912	 0.119066
H	-1.6722471348	-0.2205385511	-2.1439556303	 0.095533
H	-3.4884604531	-1.4545384176	-1.268103684	 0.288685
H	-1.577324759	-4.2138203971	-0.0690068501	 0.210708
