23
gdb 107023	2.83199	1.25275	1.04276	0.8744	85.63	-0.2392	0.0793	0.3185	1278.7228	0.203992	-388.256499	-388.246514	-388.24557	-388.290963	37.613	
C	-0.0656083524	 0.7080752502	 1.0204878592	-0.256348
O	-0.1897952383	-0.4384135983	 0.1972633398	-0.285184
C	-1.4959935813	-0.7958519601	-0.0724298391	 0.450591
C	-2.3518951759	-1.4989961035	 0.9452623491	-0.351129
C	-2.0018892821	-2.1962123811	-0.3550768605	-0.161906
C	-2.8656978061	-1.6757919458	-1.514351243	 0.012758
C	-4.3635852665	-1.9600106994	-1.4953021258	-0.404017
C	-2.3317356116	-0.2113878421	-1.2262652191	-0.072092
C	-3.3144381183	 0.9214312356	-0.9508165246	-0.415524
H	 1.000929848	 0.8520841204	 1.2091358596	 0.124523
H	-0.4624742854	 1.608940427	 0.531773867	 0.11079
H	-0.586888529	 0.573166572	 1.9785897409	 0.109299
H	-1.7958889148	-1.8668518482	 1.8019619825	 0.113614
H	-3.3682206668	-1.1886430402	 1.1728729452	 0.101937
H	-1.4469332205	-3.1267554152	-0.354195004	 0.089374
H	-2.4542541841	-2.0203307098	-2.4681747695	 0.074369
H	-4.8306599696	-1.6748425041	-0.547702292	 0.113063
H	-4.8807177122	-1.4196971622	-2.2958841963	 0.112102
H	-4.5516254296	-3.0291066162	-1.6433842927	 0.11427
H	-1.6542938875	 0.0819256149	-2.034492275	 0.077589
H	-3.9708025825	 0.7004679027	-0.1037704166	 0.114317
H	-2.7850414832	 1.8531449385	-0.7233242878	 0.113763
H	-3.9515656101	 1.1118957448	-1.8217392574	 0.11384
