11
gdb 11632	3.57925	1.93255	1.5322	4.5714	57.79	-0.2866	-0.0462	0.2404	791.0353	0.071175	-397.3414	-397.334973	-397.334029	-397.37217	23.364	
O	-0.0696351418	-0.0580340225	-0.0842973284	-0.273896
C	-0.0516786385	 1.113612224	 0.0369742216	 0.451148
C	-0.9302190664	 2.3913442339	 0.0475753452	-0.077069
C	-0.0185272148	 2.969207151	 1.1561191456	-0.255628
C	 0.9304535012	 2.3574675927	 0.0932752533	 0.181805
O	 0.037503303	 2.9058312457	-0.9596964313	-0.308233
C	 2.3509602207	 2.4781389513	-0.0491299956	 0.185571
N	 3.5025529558	 2.5350623786	-0.1314986798	-0.328936
H	-1.9873874048	 2.5469620447	-0.1446597999	 0.139909
H	 0.0060213624	 4.0593107636	 1.1583677684	 0.147315
H	-0.0401063669	 2.5248870372	 2.1530858109	 0.138015
