25
gdb 88677	2.9629	0.93219	0.85509	0.0524	94.59	-0.2367	0.0884	0.325	1545.4209	0.227288	-352.341684	-352.331149	-352.330205	-352.377438	40.018	
C	-0.1134811585	 1.5773049748	-0.0957404473	-0.402714
C	-0.0059873205	 0.0712944637	 0.0035382955	 0.001563
C	 1.3071385363	-0.6363195048	-0.2319467888	-0.307307
C	 0.690778236	-0.6349105504	 1.1507320307	-0.007365
C	 1.333939195	 0.1058441248	 2.2815836247	-0.032464
C	 0.7286782741	 0.0994118294	 3.671204916	-0.343698
C	 2.0564819883	-0.5830420445	 3.4266685764	 0.340351
C	 2.1203338714	-2.0974719682	 3.4937108029	-0.451144
C	 3.3031853102	 0.0989276551	 3.9605997412	-0.446859
H	 0.8023932767	 2.0766822745	 0.2331296235	 0.115112
H	-0.2959055825	 1.8845173447	-1.1316558945	 0.113257
H	-0.937731326	 1.9619770681	 0.5154796067	 0.116518
H	-0.8841914999	-0.4486147844	-0.3723508419	 0.078559
H	 1.320621655	-1.5585562814	-0.8030956756	 0.104454
H	 2.1841567446	-0.0125841359	-0.3808196279	 0.104704
H	 0.2205172817	-1.5683876839	 1.4456960989	 0.074326
H	 1.7862414499	 1.0486170064	 1.9851703141	 0.070589
H	 0.711687148	 1.025080004	 4.237945556	 0.101465
H	-0.1408238466	-0.5315470004	 3.8312572906	 0.102066
H	 1.1939640949	-2.570426058	 3.1587323211	 0.112909
H	 2.9367101825	-2.4878878127	 2.8743090782	 0.113916
H	 2.3016448925	-2.4273943843	 4.5236456076	 0.110444
H	 3.4756580686	-0.1610634697	 5.0122811027	 0.11056
H	 4.1933232504	-0.2035314334	 3.3956811846	 0.111822
H	 3.2227450878	 1.1888502466	 3.8974015048	 0.108933
