15
gdb 128584	2.77686	1.54107	0.99737	4.0583	72.67	-0.2243	-0.0441	0.1802	1120.9251	0.11456	-453.975162	-453.967553	-453.966609	-454.00742	28.323	
C	-0.0634940644	 1.3960545975	 0.0973845201	-0.251223
O	 0.0102301689	-0.0175403181	-0.0126824827	-0.227234
C	 0.6216078588	-0.528588368	-1.0854702907	 0.291258
C	 1.1983054315	 0.1584035912	-2.1141006047	-0.276276
C	 1.807650809	-0.5661885914	-3.1798423297	 0.015639
N	 1.8564290509	-1.8646538736	-3.2464565361	-0.202537
N	 1.2785385384	-2.5131247339	-2.2164455364	-0.272
C	 0.6372920919	-2.0030848498	-1.0926614566	 0.369239
O	 0.1623334197	-2.729290903	-0.2404123448	-0.378079
H	 0.9374013604	 1.8428037096	 0.1385675147	 0.133404
H	-0.6190973951	 1.8302527285	-0.7427621721	 0.133395
H	-0.5924608852	 1.5982016963	 1.0287123247	 0.151451
H	 1.2063941117	 1.2407911543	-2.1440321005	 0.113456
H	 2.2709376869	-0.0378841618	-4.0057344982	 0.1251
H	 1.3180089366	-3.5223644278	-2.2703560671	 0.274407
