21
gdb 80910	2.45209	1.44108	1.3284	1.8838	78.89	-0.2471	0.0817	0.3288	1123.5721	0.179714	-424.177079	-424.167621	-424.166677	-424.210376	36.846	
C	-0.1426862861	 1.5343700609	 0.7727394998	-0.430806
C	-0.1284136041	 0.0454284587	 0.4727125964	-0.019453
C	 1.0332259953	-0.5286696288	-0.3721474309	-0.044495
O	 1.9546568337	-0.2758474922	 0.7709727047	-0.377841
C	 0.7221108361	-0.8888043579	 1.3808897351	 0.32211
C	 0.7079208168	-1.0930671776	 2.8620508565	-0.522356
C	 0.800013712	-1.9567697951	 0.2237503865	 0.448827
C	-0.3687004956	-2.8386594441	-0.1663139386	-0.474248
O	 1.934062115	-2.7738729883	 0.2666661167	-0.493989
H	 0.8601295487	 1.89025893	 1.0155112912	 0.137351
H	-0.5141911363	 2.0996462117	-0.0887222256	 0.114903
H	-0.8055094265	 1.7543542881	 1.6168374111	 0.113808
H	-1.1258306804	-0.3229046145	 0.2222364769	 0.069555
H	 1.3886549118	-0.2333771682	-1.3609391073	 0.087591
H	 0.8689680746	-0.1490021518	 3.3913140065	 0.135182
H	-0.2568304123	-1.5052564724	 3.1749748333	 0.129432
H	 1.4928302348	-1.7977385546	 3.1539381808	 0.136705
H	-1.3156702385	-2.3029005045	-0.2350755273	 0.119938
H	-0.1621765745	-3.3042019427	-1.1346127856	 0.132863
H	-0.4765683099	-3.6436795103	 0.5670208464	 0.131342
H	 2.6553647553	-2.1699474364	 0.5006565134	 0.28358
