21
gdb 78708	3.03579	1.57856	1.23053	0.3556	87.1	-0.2148	0.0206	0.2355	1098.6286	0.183296	-349.935563	-349.927638	-349.926694	-349.967259	32.675	
C	-0.1607912492	 1.4390633438	 0.0270923714	-0.402778
C	 0.0223767431	-0.0741508494	-0.0143173189	 0.011567
C	 0.8344346019	-0.5398383557	-1.2206488468	-0.097725
C	 2.0915441042	-0.636635214	-0.3838064853	-0.104173
C	 1.2116394647	-0.582504267	 0.9078822016	-0.11559
C	 0.925971655	-2.0291941423	 1.2410893818	-0.1023
C	 1.0436689835	-2.7576332914	 0.1269329249	-0.155281
C	 1.5475362736	-1.9021805741	-0.9938816965	 0.315336
C	 2.2097564705	-2.526932385	-2.1989182846	-0.498257
H	 0.7913821041	 1.9569624128	-0.1320428287	 0.114492
H	-0.8573216978	 1.7760927446	-0.7488696716	 0.111262
H	-0.5618426837	 1.7564303063	 0.9961434291	 0.109958
H	-0.9367015954	-0.5767062236	 0.1613834197	 0.060443
H	 0.714981807	-0.1720165997	-2.2347025577	 0.076102
H	 3.0896407213	-0.243919656	-0.5421785721	 0.078567
H	 1.4901503956	 0.0772644923	 1.7295887206	 0.062555
H	 0.5198390573	-2.3599260082	 2.189409855	 0.093248
H	 0.7900397618	-3.8043048006	 0.0056761328	 0.090286
H	 1.5052019868	-3.1455173137	-2.7666505154	 0.117997
H	 2.5986079053	-1.7619278456	-2.8789158356	 0.115034
H	 3.0486722704	-3.1658163236	-1.9006654335	 0.119256
