21
gdb 68220	3.46284	1.30394	1.22594	1.3355	82.22	-0.2514	0.0777	0.3291	1114.7385	0.184008	-387.06917	-387.061437	-387.060493	-387.100786	32.592	
O	-0.0909386479	 1.3753403379	 0.0069741281	-0.482309
C	 0.0341281333	-0.0103504624	 0.0239965877	 0.412788
C	 0.9196292389	-0.8183107786	-0.9777955643	-0.291637
C	 0.7116951187	-1.9352565202	 0.0861680668	-0.096161
C	 0.7563680083	-0.8068149201	 1.1573611909	-0.291632
C	-0.7917086985	-2.187892528	-0.0274421065	 0.439749
C	-1.3711169048	-3.3180446537	-0.8259815871	-0.342623
C	-1.4867125492	-3.3099304931	 0.6857355753	-0.342625
C	-1.3191833472	-0.7383902316	-0.0755501977	-0.333999
H	 0.7893802351	 1.7593424242	 0.0720710169	 0.277208
H	 0.5397465082	-0.9863532651	-1.9890945681	 0.094749
H	 1.9508247519	-0.4539351276	-1.0090834903	 0.083101
H	 1.3654459485	-2.8051653433	 0.1408371998	 0.059082
H	 1.7711121093	-0.4412698667	 1.3411617007	 0.083102
H	 0.2270101113	-0.9643359074	 2.1008872548	 0.094748
H	-2.2692511077	-3.1315450191	-1.4063087333	 0.109065
H	-0.6901097007	-4.0318551393	-1.2796182458	 0.107239
H	-0.8831865513	-4.0183063358	 1.2452366504	 0.107239
H	-2.4624853801	-3.117963761	 1.1207330202	 0.109064
H	-1.9743572104	-0.4842745143	 0.7633148694	 0.101927
H	-1.8390194855	-0.4937813348	-1.0069245277	 0.101925
