17
gdb 108994	3.19139	1.18623	1.10233	3.0851	75.12	-0.2332	0.0062	0.2394	1153.569	0.135705	-421.807024	-421.798964	-421.79802	-421.840061	30.309	
O	-0.0871674842	 1.371627386	-0.1478546291	-0.412208
C	-0.0527007315	-0.0371226051	-0.0145769826	-0.2141
C	-1.4451768713	-0.5481402813	 0.1058489226	 0.333433
C	-2.6179939395	 0.1154421244	 0.1062283272	-0.177783
C	-3.6732085147	-0.9791063621	 0.0721250957	-0.182339
C	-3.059527649	-2.0222837017	 1.0564243677	-0.220084
C	-1.8459966291	-2.0161239277	 0.0759299252	-0.246077
C	-2.9665558797	-1.8581968869	-1.0405941645	 0.423733
O	-3.1746442741	-2.2408187888	-2.1424866294	-0.304052
H	 0.8184770281	 1.6934577327	-0.1647546177	 0.292379
H	 0.432505072	-0.5174765106	-0.8832709891	 0.105212
H	 0.5331539481	-0.3424349441	 0.8704201958	 0.099917
H	-2.7862574491	 1.1761663542	 0.0012545711	 0.123441
H	-4.7284801225	-0.718437364	 0.0536683054	 0.084149
H	-2.8512376804	-1.6489627592	 2.0623755259	 0.106103
H	-3.5962179894	-2.9760769243	 1.0803052115	 0.108619
H	-1.0823305936	-2.7912789414	 0.0578235941	 0.079657
