25
gdb 116158	2.26126	1.24871	0.86069	1.0886	89.81	-0.2407	0.0877	0.3284	1459.4288	0.229532	-389.524946	-389.515157	-389.514212	-389.559257	37.824	
C	-0.0743811327	 1.5666481437	-0.0373743108	-0.385382
C	 0.0111184192	 0.0382628693	-0.0273717924	-0.186382
C	 0.7198748583	-0.5375060515	-1.2508586058	 0.1553
C	 0.8772575898	-2.061461595	-1.1967830963	-0.198904
C	 1.4860174872	-2.59029507	-2.5026783408	-0.228605
C	 0.6999047779	-2.0623763381	-3.7099392624	-0.187554
C	 0.5536307009	-0.537588367	-3.6335572678	 0.154889
C	-0.3182297458	 0.0391822509	-4.739257586	-0.40241
O	-0.036068657	-0.1545083952	-2.3956200903	-0.276045
H	 0.9241602062	 2.0184237592	-0.0289182127	 0.107234
H	-0.5917212582	 1.9147285146	-0.9345669865	 0.132843
H	-0.6147432615	 1.937693461	 0.8388512769	 0.106376
H	 0.5412241746	-0.3056326385	 0.8693614396	 0.090585
H	-0.9970251905	-0.3922860236	 0.0168760773	 0.100381
H	 1.7275546506	-0.0850999384	-1.3265546935	 0.052645
H	 1.4996887545	-2.3379559696	-0.3378759829	 0.089437
H	-0.1130843892	-2.5082966008	-1.0387307423	 0.09649
H	 2.5305326988	-2.2571527539	-2.5767148703	 0.093139
H	 1.5076593646	-3.6854056409	-2.5035283265	 0.092831
H	 1.1937342593	-2.3402816115	-4.6483396895	 0.089373
H	-0.3041555301	-2.5063010846	-3.7260125922	 0.096154
H	 1.5628568597	-0.0894068944	-3.6965145088	 0.056436
H	-1.3260401174	-0.3851330536	-4.6900222786	 0.120792
H	-0.3992128162	 1.124611013	-4.6354831493	 0.11973
H	 0.105963437	-0.186888955	-5.7223648581	 0.110649
