19
gdb 87466	3.47153	1.25063	1.11356	3.184	81.01	-0.2391	0.0133	0.2524	1153.7692	0.158735	-385.839489	-385.831384	-385.83044	-385.871999	31.719	
C	-0.0571991724	 1.5244047942	-0.0239202073	-0.404606
C	 0.0130560559	 0.0133998552	 0.0358379815	-0.11281
C	 1.3479441579	-0.6994274457	-0.1970079069	-0.396582
C	 0.711722754	-0.6957323434	 1.1484485915	 0.448037
C	 1.189978897	-0.1971807756	 2.5395630782	-0.265534
C	-0.202043199	-0.6970142687	 3.064793025	-0.228877
C	 0.2343414894	-1.8402449408	 2.0822811491	-0.266703
C	 1.6276015423	-1.6672335183	 2.7232008253	 0.457161
O	 2.5429039954	-2.3112268417	 3.1289053923	-0.324085
H	 0.8436104898	 1.9774779804	 0.4024434414	 0.116744
H	-0.1468239093	 1.8727732446	-1.0587059645	 0.121375
H	-0.9182080866	 1.909881083	 0.5331314079	 0.118957
H	-0.8561398835	-0.4948628066	-0.3767045576	 0.089791
H	 1.3475481546	-1.6185789244	-0.7745129009	 0.118222
H	 2.2226215868	-0.074955178	-0.3553301281	 0.117643
H	 1.7133477626	 0.7235179581	 2.7861563842	 0.094723
H	-0.2771298256	-0.9478300405	 4.124589052	 0.110532
H	-1.0512049344	-0.1076624505	 2.7160568778	 0.112185
H	-0.3082485049	-2.7441300015	 1.814533039	 0.093829
