14
gdb 66715	2.9432	1.70582	1.29607	4.5595	71.14	-0.2328	0.0037	0.2365	945.9086	0.101458	-395.611708	-395.604652	-395.603708	-395.643094	27.57	
N	-0.1718076447	 1.4022966582	 0.0504685481	-0.615319
C	 0.017109407	 0.0238406562	-0.0340092087	 0.246142
C	 0.9074147281	-1.0035527543	-0.8309754805	-0.128374
C	-0.1788346845	-2.0136547131	-0.792014013	-0.126695
N	 0.8370524014	-1.9811526209	 0.3123449345	-0.16602
C	-0.0498936194	-0.9962214151	 1.060810467	-0.091722
C	-1.1184505258	-1.0472288201	-0.028121623	 0.253256
C	-2.5147636832	-0.8523079713	 0.0166900545	 0.130857
N	-3.663710203	-0.7003364466	 0.0343865009	-0.359802
H	 0.6327574866	 1.8929140079	 0.4238574879	 0.249645
H	-0.455546741	 1.8273342765	-0.8247343898	 0.251388
H	 1.7829712856	-0.9131037133	-1.4633603426	 0.109466
H	-0.3796966123	-2.8950674221	-1.3876135972	 0.117986
H	-0.1484333148	-0.921324462	 2.1359027921	 0.129194
