20
gdb 58290	2.47103	1.04746	0.93909	2.1817	71.74	-0.2665	0.0515	0.318	1364.3878	0.168465	-477.476753	-477.466073	-477.465129	-477.513001	38.589	
C	 0.0559505467	 1.5359545359	-0.0848826468	-0.409475
C	-0.0001858427	 0.0226698782	 0.1310931385	 0.131589
O	 0.5824104245	-0.3498341036	 1.3744161367	-0.438236
C	-1.4233420098	-0.5401187	 0.0051346906	 0.124498
C	-1.4786923352	-2.0608516745	 0.058329453	-0.410936
O	-2.1555229365	 0.0131301006	 1.1307043115	-0.294257
C	-3.4865533063	 0.2129192366	 0.9500919016	 0.500906
N	-4.0308009444	 0.7576534902	 2.0798780811	-0.562819
O	-4.0917560344	-0.0231207855	-0.068705681	-0.396714
H	 1.0816322424	 1.8911102429	 0.0422910496	 0.123649
H	-0.2844256989	 1.8044792391	-1.0905340825	 0.116442
H	-0.5827649339	 2.0536544626	 0.6378194022	 0.119328
H	 0.6119749101	-0.4728319918	-0.6318486431	 0.08908
H	-0.0085978642	-0.01752816	 2.0601333501	 0.282036
H	-1.8947742233	-0.1758781323	-0.9112823667	 0.110737
H	-0.9992534299	-2.4262389799	 0.9695832252	 0.130443
H	-2.5150911211	-2.4039096538	 0.0221956869	 0.133538
H	-0.9495515095	-2.4831169828	-0.8020120872	 0.118508
H	-3.5169525005	 0.7012812547	 2.9425529312	 0.261516
H	-5.0350767032	 0.7537105233	 2.1304735991	 0.270166
