15
gdb 24058	4.12892	0.95723	0.92448	1.5519	72.99	-0.2067	0.023	0.2298	1283.2071	0.113086	-416.795388	-416.787236	-416.786292	-416.829295	29.737	
C	 0.3101477659	-0.4127282678	 1.0842176205	-0.45656
C	 0.1359139088	 0.4136384256	 0.2293919564	 0.30734
C	-0.034574247	 1.4032942485	-0.8357818954	-0.311468
N	 1.1713412044	 2.1802074421	-1.1218898117	-0.382745
C	 1.4126649433	 3.298305704	-0.3679607697	 0.507332
N	 0.5678722011	 3.9973042644	 0.3274160815	-0.34824
C	 1.3393129503	 5.0551269891	 0.8077879455	-0.104599
C	 2.6098678615	 4.9285160222	 0.3773027478	-0.056364
O	 2.6751380375	 3.7791514992	-0.3942798828	-0.200391
H	 0.4517659659	-1.13353345	 1.8512661427	 0.20409
H	-0.3489825427	 0.9037370592	-1.758532754	 0.140873
H	-0.8165664717	 2.1187128563	-0.5675521574	 0.182564
H	 1.9996774854	 1.6349761185	-1.314507187	 0.256104
H	 0.9121109167	 5.8238761009	 1.4320581945	 0.121416
H	 3.5270200005	 5.4777749379	 0.4906248593	 0.140647
