21
gdb 64328	2.35027	1.4572	1.14597	4.4529	78.83	-0.253	0.0193	0.2723	1176.6677	0.182139	-424.289843	-424.280728	-424.279783	-424.323609	35.036	
C	 0.0797898083	 1.4467640896	 0.1443122053	-0.409214
C	-0.1169591987	-0.055713293	-0.0595457903	 0.360467
C	-1.6100526626	-0.3920405626	-0.1630618105	-0.407057
C	 0.6780469596	-0.5524972743	-1.2757115132	-0.222367
C	 0.8311919504	-2.0724809311	-1.2742760883	-0.238365
C	 1.53250773	-2.4969419148	 0.0163068942	-0.32119
C	 0.9831657148	-1.8565093127	 1.282927664	 0.393609
O	 1.1412523749	-2.3391158011	 2.372411925	-0.326161
O	 0.3606693339	-0.6582892714	 1.18260661	-0.26518
H	 1.1387681838	 1.6780263851	 0.2884987844	 0.122764
H	-0.2820246416	 2.0006191174	-0.7274342317	 0.115756
H	-0.4689303155	 1.7880367934	 1.0260010886	 0.130141
H	-2.061362735	 0.1258994366	-1.0150765302	 0.117162
H	-1.7759844531	-1.4655157846	-0.2871694509	 0.121285
H	-2.1246404279	-0.0769026587	 0.7480404021	 0.134564
H	 0.1763714548	-0.203692264	-2.1842253819	 0.105033
H	 1.672910507	-0.0897017533	-1.2640635985	 0.101644
H	-0.1483949339	-2.5571955826	-1.3506273581	 0.111864
H	 1.4076739899	-2.4025564987	-2.144032785	 0.105359
H	 1.5178359396	-3.5774147365	 0.1736067332	 0.134101
H	 2.5907023415	-2.2050664629	-0.0265447881	 0.135785
