21
gdb 111506	2.41266	1.58589	1.11337	2.0452	78.57	-0.2306	0.0743	0.3049	1163.2436	0.181934	-424.201978	-424.192993	-424.192049	-424.235784	33.974	
C	 0.237540613	 1.4712729746	 0.1148682126	-0.24113
O	 0.0131404281	 0.0808673211	 0.0495766016	-0.237029
C	 0.5676129055	-0.5619354762	-1.0887099471	 0.062283
C	 1.0636549185	-1.9611357932	-0.7339503651	-0.091179
C	 0.1515400231	-2.8079487649	 0.1355908777	-0.297597
C	 0.0896756338	-2.9202090082	-1.3582597516	 0.094832
O	-0.9378182339	-2.1921415035	-1.9783434232	-0.275222
C	-0.4693376896	-0.8555026661	-2.2153121061	 0.133235
C	-1.670147663	 0.0684832175	-2.29750823	-0.407784
H	 1.3128052099	 1.7078973802	 0.1001737673	 0.105934
H	-0.2471939274	 2.0196550194	-0.7051306845	 0.106675
H	-0.1841519014	 1.8194106836	 1.0613368704	 0.127968
H	 1.3896181875	 0.0487976747	-1.4854827386	 0.065394
H	 2.1300632447	-2.148034313	-0.7160599318	 0.087947
H	 0.6188564327	-3.6121664713	 0.6941877238	 0.10718
H	-0.6725842451	-2.311964288	 0.6333368048	 0.134991
H	 0.3889698336	-3.8243981153	-1.8800958986	 0.089945
H	 0.0791788196	-0.8450598423	-3.1725333669	 0.063392
H	-2.1591954201	 0.1424070232	-1.3239525509	 0.134322
H	-1.3705429428	 1.0693749567	-2.6230507452	 0.109976
H	-2.3870134968	-0.3237038391	-3.0236226983	 0.125868
