13
gdb 128003	2.71132	1.63989	1.02842	2.2089	65.56	-0.2751	-0.0758	0.1992	1070.9316	0.087428	-489.863431	-489.855322	-489.854378	-489.897959	27.713	
C	 0.1423751105	 1.4303624497	 0.0838496811	-0.329416
N	 0.1975811231	-0.0228514425	 0.08982912	-0.246684
C	 0.4386774412	-0.6317179224	-0.9834320623	 0.280653
O	 0.6584422343	 0.0468408458	-2.1650857484	-0.282524
N	 0.8933527758	-0.6325096453	-3.3692110855	-0.112319
C	 0.9182691141	-1.9000188083	-3.306384976	 0.159897
O	 0.748325099	-2.7017082455	-2.2285679365	-0.198465
C	 0.4964470933	-2.1319522361	-0.9890139822	 0.388921
O	 0.3477292132	-2.8392778101	-0.048252219	-0.261175
H	 1.1196310447	 1.8587419224	-0.1715377868	 0.144006
H	-0.575640956	 1.8052464222	-0.6556898076	 0.142357
H	-0.1471161313	 1.7778135576	 1.0764999715	 0.136658
H	 1.0984938981	-2.4523117376	-4.2202122384	 0.178093
