18
gdb 14641	7.68449	0.61235	0.5752	0.7376	83.64	-0.2433	0.0445	0.2878	1893.996	0.150588	-310.618681	-310.608591	-310.607647	-310.655529	34.205	
C	 0.0353042424	 1.5101962341	 0.0096915319	-0.497487
C	 0.03018358	 0.0540129431	 0.0021196899	 0.123819
C	 0.0362136454	-1.1500629477	-0.0042667799	 0.008987
C	 0.009914645	-2.6083408269	-0.0119295086	-0.355938
C	-1.4192569601	-3.1843270677	-0.0013562794	-0.163451
C	-1.4171792364	-4.7255801261	-0.0096935855	-0.354014
C	-2.7591796061	-5.2939657432	 0.0001599006	 0.284383
C	-3.8766273623	-5.7367191073	 0.0083640904	-0.429734
H	 1.0575461414	 1.9047651251	 0.0018924518	 0.146595
H	-0.4814572687	 1.9162677941	-0.8670350607	 0.146244
H	-0.4643965866	 1.9070127002	 0.9004340198	 0.146243
H	 0.5452235514	-2.9829868187	-0.8955037896	 0.1246
H	 0.5620267238	-2.9924813504	 0.8571087233	 0.124595
H	-1.9530312284	-2.8243538486	 0.8834975119	 0.121334
H	-1.9698453902	-2.8148800885	-0.8718870926	 0.121331
H	-0.8743580057	-5.0862729281	-0.8937912161	 0.129655
H	-0.8575174242	-5.0957335014	 0.8598716824	 0.129646
H	-4.8595215609	-6.137901262	 0.0148474705	 0.193193
