20
gdb 96516	2.34546	1.63865	1.06061	3.6025	77.45	-0.2563	0.0209	0.2772	1165.3858	0.172098	-440.29535	-440.286837	-440.285892	-440.328383	32.822	
C	-0.1853247893	 1.4889735393	 0.0191806757	-0.390773
C	 0.0130573069	-0.0191702292	 0.0414388905	 0.030898
O	 0.6936661247	-0.38446696	-1.1578820455	-0.252441
C	 0.3684060492	-1.6565044855	-1.6794465893	-0.073885
C	 0.9226112738	-2.8116761144	-0.8478215529	-0.210266
C	 0.4298233246	-2.8085137059	 0.5969006727	-0.084259
O	 1.0543036007	-1.8141804074	 1.4148657517	-0.25209
C	 0.8019315001	-0.4818129127	 1.2648364962	 0.401912
N	 1.2379674107	 0.3522069063	 2.1117588561	-0.504113
H	 0.78167853	 1.9931483305	-0.0197411129	 0.143612
H	-0.7691523378	 1.7598075223	-0.8643327167	 0.108714
H	-0.7048620594	 1.82380529	 0.9182991461	 0.130606
H	-0.9742170139	-0.5110483222	 0.0580897566	 0.078809
H	-0.7270709969	-1.7585300714	-1.7709259581	 0.087464
H	 0.7877759747	-1.6819724818	-2.6900048409	 0.1125
H	 0.6229922423	-3.7584487113	-1.3153549484	 0.102879
H	 2.0176996702	-2.7783760162	-0.8434694377	 0.123202
H	-0.6632936822	-2.7091541664	 0.6417665662	 0.107326
H	 0.6922041244	-3.7498835398	 1.0858500325	 0.121548
H	 1.7394612572	-0.137386944	 2.856275248	 0.218359
