17
gdb 52281	4.02016	0.76103	0.67331	3.571	69.46	-0.257	-0.0287	0.2283	1587.5427	0.134616	-458.99651	-458.98756	-458.986616	-459.031896	30.761	
O	-0.0784059717	-0.0392774126	 0.1125097931	-0.233183
C	 0.0079849922	 1.1584671926	 0.0378037954	 0.156785
C	 1.3046690109	 1.9306964018	-0.0510846049	-0.278102
C	 1.3514022084	 2.8194307483	-1.3084860018	-0.232684
C	 2.5742237853	 3.7361061455	-1.3152659323	-0.186481
C	 2.6489865853	 4.8815578529	-2.344536366	-0.108988
O	 2.6524179669	 5.868462207	-1.2610253298	-0.235169
C	 2.5553892764	 4.8907255248	-0.3053021269	 0.464654
O	 2.4628115035	 5.027091245	 0.8728635324	-0.322524
H	-0.905862897	 1.7990175997	 0.0257646177	 0.074731
H	 1.3784621452	 2.5740503838	 0.8362454299	 0.155482
H	 2.1368000874	 1.2209505884	-0.0313095676	 0.123638
H	 1.3647145703	 2.1919837984	-2.2073213634	 0.123378
H	 0.4404504632	 3.4296975166	-1.3640224812	 0.116184
H	 3.4973813433	 3.1532964763	-1.2451437141	 0.121373
H	 3.5628026969	 4.9529906159	-2.9367680472	 0.131666
H	 1.7678622836	 5.0116908456	-2.9772057232	 0.12924
