20
gdb 93216	2.70966	1.3408	0.94326	3.5175	84.19	-0.2246	-0.044	0.1806	1273.6829	0.171008	-403.183578	-403.174505	-403.173561	-403.217254	34.186	
C	 0.0164797033	 1.5873254186	-0.0529791298	-0.402285
C	 0.0131621072	 0.0551771343	-0.0089433603	 0.006008
N	 0.6390923932	-0.4718923558	-1.2173114045	-0.313345
C	 0.7950250462	-1.9196377936	-1.2002200721	-0.283259
C	 1.6679244475	-2.3476936124	-0.025781736	 0.349122
O	 2.3586688395	-3.3456639354	-0.0761612826	-0.323007
C	 1.5518904621	-1.5278272933	 1.2068212935	 0.18729
C	 2.3188648447	-2.0006258068	 2.4093273137	-0.477566
C	 0.7406150709	-0.4593810124	 1.2036946806	-0.114313
H	 1.0416243216	 1.9624797006	-0.1130594774	 0.133918
H	-0.5330342311	 1.9467196198	-0.9294447462	 0.113174
H	-0.4642013118	 2.0037890383	 0.8373378953	 0.117067
H	-1.0450409396	-0.2750810542	 0.0876619718	 0.070061
H	 0.1102625995	-0.1840568893	-2.0335439304	 0.22118
H	-0.1626884315	-2.4728180366	-1.1064846919	 0.097431
H	 1.274992868	-2.2575252908	-2.1218638262	 0.126187
H	 3.3944932405	-2.0004361627	 2.2039445166	 0.141978
H	 2.1276102086	-1.3648035376	 3.2774094201	 0.112695
H	 2.0568333613	-3.0339315019	 2.6582153157	 0.139522
H	 0.5800162601	 0.0986478213	 2.12460231	 0.098144
