21
gdb 107986	2.76395	1.51651	1.28883	1.4944	81.76	-0.2315	0.0917	0.3232	1094.797	0.183973	-387.055419	-387.047543	-387.046598	-387.087877	31.316	
C	-0.0376362543	 1.5578355667	 0.0593632549	-0.380263
C	 0.0530075924	 0.0286818188	-0.0141380983	-0.321695
C	 0.756631538	-0.4667933907	-1.2522879933	 0.328748
C	 2.1987519929	-0.1738532131	-1.7431142489	-0.3005
C	 1.6204288204	-1.1150389565	-2.8219962376	-0.096006
C	 0.9389997804	-1.966712014	-1.7010037242	-0.10698
C	-0.4054035403	-2.4209638227	-2.2532223816	-0.113092
O	-0.8201090082	-1.2366970307	-2.9587609838	-0.285513
C	 0.2677272729	-0.3578809595	-2.7335394035	 0.115486
H	 0.9575286856	 2.0145855892	 0.0643157939	 0.11813
H	-0.5853381544	 1.9620354864	-0.7983163797	 0.12069
H	-0.556634463	 1.878162313	 0.967699503	 0.113028
H	 0.5720925333	-0.3544858624	 0.8745095837	 0.096532
H	-0.9575958097	-0.399268322	 0.010676743	 0.106192
H	 2.4214907931	 0.8523635927	-2.0512344695	 0.090657
H	 3.0089298837	-0.5792122561	-1.1307423929	 0.092388
H	 2.1062677313	-1.4923132546	-3.7222349849	 0.0712
H	 1.5300966187	-2.6523815555	-1.0924072625	 0.068294
H	-0.3293642288	-3.2663020474	-2.9488089072	 0.100389
H	-1.13769724	-2.6720896763	-1.4755130676	 0.100491
H	 0.102934336	 0.5999358748	-3.2265131229	 0.081823
