20
gdb 67805	2.29315	2.00782	1.54961	1.3726	83.5	-0.2197	0.0082	0.2278	983.6638	0.171131	-365.981742	-365.973663	-365.972718	-366.013617	32.504	
C	-0.0233071414	 1.5041533229	 0.0224945312	-0.488868
C	-0.052725484	 0.0069099802	-0.1311982718	 0.276418
C	 0.9024290669	-0.6878267872	-1.0357824895	-0.141848
C	 0.4850596049	-1.9388065814	-1.2698067822	-0.100436
C	-0.7186103321	-2.2095549738	-0.4100067121	-0.172737
C	-0.2027196107	-2.1566480165	 1.0727898653	-0.144493
N	-0.4767758012	-0.7017726761	 1.1834511658	-0.234222
C	-1.3008555043	-0.7961841012	-0.0713521002	 0.307866
C	-2.7217172783	-0.3429077989	-0.1953631536	-0.52023
H	 0.9475539375	 1.8327757216	 0.4086146966	 0.123477
H	-0.1883455749	 1.9990663538	-0.9410130348	 0.116366
H	-0.7875111478	 1.8403959505	 0.7263011481	 0.13008
H	 1.8141111429	-0.2272690153	-1.3966413246	 0.094631
H	 1.0172677093	-2.705562928	-1.8197804198	 0.098393
H	-1.3789481395	-3.0269352769	-0.6966863287	 0.070059
H	-0.8807773321	-2.6693649242	 1.7600395275	 0.109242
H	 0.829736553	-2.4712378284	 1.2583942266	 0.096268
H	-2.8518223942	 0.6526331162	 0.2379396891	 0.131444
H	-3.0273916047	-0.3033416968	-1.2471572577	 0.124869
H	-3.4006703591	-1.0265088104	 0.326570795	 0.12372
