19
gdb 51797	4.18296	0.96395	0.85992	3.8145	76.16	-0.2429	-0.0169	0.226	1348.0651	0.159294	-423.028044	-423.019692	-423.018748	-423.062164	30.901	
O	-0.1462217073	-0.0082686073	-0.158528562	-0.243748
C	-0.0053190309	 1.185429464	-0.0702597547	 0.15452
C	 1.3343017288	 1.8908556469	-0.1163116471	-0.29052
C	 1.4086055604	 2.9261797183	-1.2439002778	 0.103365
O	 0.3715995272	 3.8884990067	-1.0387909237	-0.272793
C	 0.7402187622	 5.0995359067	-1.6971853238	-0.094996
C	 2.2558133386	 5.1540222409	-1.6252171221	-0.055674
C	 2.8585420174	 4.8237892361	-0.2843886183	-0.289941
C	 2.691738216	 3.7405983385	-1.3206219994	-0.059331
H	-0.8772737815	 1.8625725315	 0.0499891158	 0.095916
H	 1.4836513208	 2.4111019819	 0.8385388602	 0.120588
H	 2.1202010609	 1.1403401222	-0.2383772397	 0.118217
H	 1.2620865553	 2.4132589332	-2.2101018005	 0.080011
H	 0.4090166203	 5.0952298121	-2.747727006	 0.097124
H	 0.2302326237	 5.9169179536	-1.1769817751	 0.111846
H	 2.792716431	 5.7806518291	-2.3269960623	 0.09389
H	 3.8668758172	 5.1707495661	-0.0898995543	 0.11545
H	 2.2057692696	 4.8189479692	 0.583248999	 0.122022
H	 3.56194021	 3.2935676706	-1.7859136682	 0.094055
