22
gdb 109214	3.15083	1.09189	0.98346	1.5359	88.77	-0.2204	0.0234	0.2439	1352.364	0.194482	-367.211042	-367.201888	-367.200943	-367.244832	35.286	
C	 0.0693751568	 1.5208479434	 0.2547837377	-0.374166
C	-0.0281189481	 0.0226184965	-0.0836152116	-0.29651
C	-1.4338222533	-0.5001307645	-0.0807616051	 0.392394
C	-2.1155911349	-1.014715171	-1.1104450587	-0.196792
C	-3.5166112648	-1.4485133981	-0.7370027433	-0.30161
C	-3.5890122975	-1.1604855401	 0.7665111883	 0.342215
C	-4.9080498911	-0.7885453666	 1.3917504366	-0.490443
N	-2.6158296445	-1.9724292786	 1.5340719673	-0.37059
C	-2.2817827541	-0.563382959	 1.1539294253	-0.213186
H	 1.1115068805	 1.8548135335	 0.2448092242	 0.112809
H	-0.4882374853	 2.1220011532	-0.4702239088	 0.11925
H	-0.336938572	 1.736497374	 1.2485147285	 0.115737
H	 0.4214447538	-0.1577729964	-1.0664825527	 0.100717
H	 0.5704840799	-0.5445293165	 0.6427082981	 0.108746
H	-1.7132506396	-1.1506284815	-2.1091664096	 0.084486
H	-4.2803196786	-0.8825014772	-1.2887785322	 0.09754
H	-3.6920924005	-2.51021472	-0.9489636633	 0.114797
H	-5.60740764	-1.6330745091	 1.3717942692	 0.123881
H	-4.7801870634	-0.4853024354	 2.4365816469	 0.110957
H	-5.3796627656	 0.0431218316	 0.8568001953	 0.122644
H	-2.9158269123	-1.9754793177	 2.5094121142	 0.21725
H	-2.1901987954	 0.1734308992	 1.9461884736	 0.079874
