21
gdb 58845	2.44767	1.44572	1.08077	2.9823	83.19	-0.2362	-0.0054	0.2308	1204.9269	0.181276	-387.094231	-387.084953	-387.084008	-387.128374	35.202	
C	-0.0807822535	 1.59370803	 0.3301856469	-0.392395
C	-0.0003211431	 0.0864815518	 0.0322911858	-0.081449
C	 0.925708808	-0.6360545387	 1.0187680807	-0.405826
C	-1.3934323356	-0.5020745976	-0.0297529246	 0.260282
C	-2.2182428826	-0.9361667938	 1.1798259701	-0.323815
C	-1.9789741877	-1.9414124756	 0.1089804488	-0.127483
C	-2.9768817365	-1.7027907306	-1.0331213551	-0.353782
C	-2.3334967107	-0.2987410252	-1.1835566972	 0.358284
O	-2.3953518842	 0.5397254029	-2.0409344931	-0.32703
H	 0.9145770616	 2.0489121936	 0.2987762281	 0.107852
H	-0.7138003441	 2.0976977277	-0.4046031286	 0.143045
H	-0.5019633049	 1.7719632085	 1.3261648787	 0.110584
H	 0.429100524	-0.0267384989	-0.9728756382	 0.086019
H	 1.940544056	-0.2325574528	 0.9468684207	 0.118908
H	 0.5961327351	-0.5019221515	 2.0549677026	 0.116428
H	 0.9789073267	-1.7104096389	 0.8143498847	 0.113485
H	-1.6375804581	-1.0495618492	 2.0891717639	 0.124881
H	-3.2162085739	-0.5365259167	 1.3421244658	 0.117775
H	-1.4184423859	-2.852713167	 0.2700413919	 0.105427
H	-2.7928257702	-2.2943757453	-1.9346395954	 0.130349
H	-4.0396915804	-1.7577483627	-0.7784425865	 0.11846
