14
gdb 43267	3.88874	1.21512	1.10264	2.8053	73.09	-0.2632	-0.0777	0.1855	1071.9235	0.102027	-399.578754	-399.571619	-399.570675	-399.610437	27.245	
O	 0.0358630799	-0.0179493149	-0.0422364205	-0.316477
C	-0.007591451	 1.1861544488	 0.0001910408	 0.401307
C	-1.2198782042	 2.0508902398	 0.0837590691	-0.208019
C	-0.8795073612	 3.3429729436	 0.0107450779	-0.124168
C	 0.6106916353	 3.5275919983	-0.0653330922	 0.157828
C	 1.3691885922	 3.0230478462	 1.1630664307	-0.300879
C	 1.1901419758	 2.1238964989	-0.0356110896	-0.202161
C	 1.1649940986	 4.5854084388	-0.8592100929	 0.206323
N	 1.6033263442	 5.4470447278	-1.4941801578	-0.334458
H	-2.2156065188	 1.6452837298	 0.2011164731	 0.135153
H	-1.5511161931	 4.1921097221	 0.0389686418	 0.144154
H	 2.363329449	 3.4233071623	 1.3287689024	 0.154516
H	 0.7801821993	 2.8421218747	 2.0550184586	 0.145367
H	 2.058535484	 1.8476647838	-0.6185605214	 0.141514
