21
gdb 85056	2.19308	1.67315	1.07497	3.9958	79.4	-0.2306	0.0595	0.2902	1182.6265	0.183423	-420.470543	-420.461103	-420.460159	-420.504317	35.507	
C	 0.2622171615	 1.5511372058	-0.2234387201	-0.399057
C	-0.0166875487	 0.0710747187	 0.0621219477	 0.009915
N	 0.4628491012	-0.8043580661	-1.004622604	-0.358034
C	 1.7289918368	-1.2975823321	-0.7118229234	 0.444781
O	 2.4769309086	-1.8677442159	-1.477952371	-0.427673
N	 1.9682678172	-1.0227481385	 0.6280845824	-0.108325
C	 2.9633085932	-1.7846783642	 1.3481184468	-0.345239
C	 0.7550772404	-0.5308445264	 1.2727025678	 0.050236
C	 1.0196050595	 0.416736793	 2.4374373489	-0.414774
H	 1.3345306618	 1.7374462542	-0.3342807284	 0.134484
H	-0.2321030615	 1.8496611644	-1.1539235171	 0.114898
H	-0.1237439496	 2.1923761485	 0.5745553563	 0.12053
H	-1.092716517	-0.0686645261	 0.2120842628	 0.086059
H	 0.2955949358	-0.5638896313	-1.9701256026	 0.245441
H	 3.6444324558	-2.2112698463	 0.6097210821	 0.163531
H	 3.5314969344	-1.1481787246	 2.0336397391	 0.121138
H	 2.5117529867	-2.6037909719	 1.9286985993	 0.110355
H	 0.1693617622	-1.3869829271	 1.6520201792	 0.076901
H	 1.644626873	 1.2612756947	 2.1361646029	 0.128719
H	 0.0758554972	 0.8037512643	 2.8347749306	 0.121758
H	 1.5268824414	-0.1077146532	 3.2523784808	 0.124356
