18
gdb 117149	4.36927	0.79534	0.68153	4.5921	72.14	-0.2581	-0.0302	0.2279	1608.4641	0.144692	-476.253959	-476.243684	-476.24274	-476.290329	34.537	
C	 0.0204501667	 1.4000229274	-0.0027360581	-0.229918
O	 0.0078402708	-0.0097546231	 0.0228940019	-0.207775
C	 0.633620372	-0.5726897354	-1.0852766575	-0.189997
C	 0.5670888421	-2.0941769754	-0.9646240941	 0.410995
O	 0.0425063313	-2.6521477546	-0.0332601214	-0.312934
N	 1.1661897727	-2.7968845922	-2.026482032	-0.153615
C	 1.8070404884	-2.141269024	-3.1645706713	-0.358286
C	 1.1508341861	-4.1942326434	-1.9973650403	 0.172695
O	 1.6373769865	-4.884990711	-2.8596528326	-0.317145
H	 1.0466939746	 1.7997571643	-0.0065425008	 0.10814
H	-0.507797718	 1.7977046448	-0.8835197167	 0.10814
H	-0.4895577537	 1.7404811179	 0.9004964087	 0.139999
H	 0.1517892223	-0.2618515783	-2.0299667443	 0.113264
H	 1.6909128328	-0.2603605857	-1.161570812	 0.113276
H	 2.6492337192	-1.5209529247	-2.845486064	 0.140131
H	 2.1754452058	-2.9338522067	-3.8153060576	 0.179099
H	 1.0967495536	-1.5236142234	-3.7212726812	 0.140144
H	 0.6461216969	-4.5750701665	-1.1013700367	 0.143786
