21
gdb 41962	2.13466	2.0212	1.73223	1.4263	81.33	-0.2369	0.0078	0.2447	957.3568	0.18709	-387.102456	-387.095265	-387.09432	-387.133747	30.045	
C	-0.0231675964	 1.5464437563	 0.0229718243	-0.205667
C	 1.4042037824	 2.1470984108	-0.0167842961	-0.201149
C	 2.4928550006	 1.0614411486	-0.1359613491	 0.08275
O	 2.7120521578	 0.4680076109	 1.1604435072	-0.280157
C	 1.9948578495	-0.7155342608	 1.464242542	-0.05416
C	 0.4690072423	-0.5956602317	 1.3476430004	-0.21869
C	-0.0184821663	-0.0044210834	-0.0060303514	-0.044004
C	 0.8734324662	-0.4503746429	-1.1460464693	-0.072512
C	 2.1014085604	 0.0668913827	-1.2073868749	-0.090659
H	-0.5621615511	 1.8849860185	 0.9141329995	 0.094965
H	-0.5964043177	 1.9003091076	-0.8396949156	 0.096104
H	 1.5033138556	 2.830591082	-0.8667336883	 0.0946
H	 1.6170626646	 2.7256920918	 0.8869655938	 0.103478
H	 3.4484868922	 1.5362624969	-0.3781118152	 0.072433
H	 2.3385508579	-1.5444423345	 0.8302943324	 0.090256
H	 2.2719184136	-0.9588526507	 2.4950537004	 0.09939
H	 0.0535121664	-1.6015820498	 1.4885410768	 0.093324
H	 0.0773427937	 0.0246027782	 2.1626539953	 0.097505
H	-1.0457317944	-0.3432742814	-0.1722091113	 0.063812
H	 0.5137883076	-1.1745166078	-1.871263537	 0.089179
H	 2.8123514952	-0.2014236913	-1.9818135141	 0.089201
