23
gdb 41734	3.41332	1.3709	1.18914	0.1281	88.52	-0.2464	0.0902	0.3365	1153.7527	0.210514	-351.183759	-351.176298	-351.175354	-351.215157	31.45	
C	 0.3404333414	 1.4498514034	-0.4325456676	-0.220793
C	 1.4703185746	 1.9574870305	 0.4969965012	-0.229604
C	 2.0716475136	 0.7017166304	 1.1170250287	-0.078571
C	 2.4311705579	-0.4282640515	 0.1832596735	-0.078571
C	 3.2563824264	-1.5742422845	 0.756629731	-0.229603
C	 2.5402330357	-1.9718829266	 2.0709327013	-0.220794
C	 1.0538162522	-1.612518524	 1.846837383	-0.304316
C	 1.0867703879	-0.4344113995	 0.8928783398	 0.389965
C	-0.1412806212	 0.1252994625	 0.2017357506	-0.304317
H	-0.4646637738	 2.1802911735	-0.5484419246	 0.093232
H	 0.7363718626	 1.2580434959	-1.4349900254	 0.10355
H	 2.2022655633	 2.5705061925	-0.0411193619	 0.093113
H	 1.0539714476	 2.5842206707	 1.2951423726	 0.095572
H	 2.6195249363	 0.808322846	 2.0489883201	 0.069606
H	 2.5155966035	-0.224797359	-0.8804898597	 0.069606
H	 3.2438040957	-2.4113203956	 0.0478841731	 0.095572
H	 4.3075960852	-1.3128075869	 0.9230874329	 0.093113
H	 2.6868375681	-3.0252451136	 2.3240938135	 0.093232
H	 2.9399792943	-1.3898497603	 2.9075295084	 0.103551
H	 0.5217420112	-2.4484949552	 1.3729996907	 0.093101
H	 0.5319317936	-1.394648531	 2.7862527338	 0.090127
H	-0.9228027424	 0.3170777931	 0.9493481548	 0.093101
H	-0.5708929938	-0.559185171	-0.5393764296	 0.090127
