18
gdb 38594	3.2066	2.20648	1.87916	0.7121	73.22	-0.2036	0.0909	0.2945	805.063	0.152459	-401.906388	-401.900917	-401.899973	-401.935826	24.648	
C	-0.0526963019	 1.5731962847	-0.0417368584	-0.241102
C	 1.4900904489	 1.404181579	 0.0186099339	-0.08839
C	 1.2448209088	 0.1589943104	 0.9129679213	 0.118622
O	 2.2823528705	-0.7719262211	 0.7170435832	-0.270946
C	 2.4947913634	-0.7888281025	-0.6951052606	 0.070436
C	 1.3318925206	-1.5367117998	-1.3561220233	-0.183867
N	 0.5200605813	-0.270683729	-1.3567199211	-0.132146
C	-0.0347848459	 0.0272165637	-0.0084101767	-0.052071
C	 1.814701152	 0.5353168244	-1.2010505804	-0.027492
H	-0.4521719217	 2.0214128024	 0.8704409872	 0.102949
H	-0.495050273	 2.0307259018	-0.9276092428	 0.111672
H	 2.1807897407	 2.1994049168	 0.2938605735	 0.07229
H	 1.0677873691	 0.3126409255	 1.9764157007	 0.087307
H	 3.5358712663	-1.047676704	-0.9013592498	 0.074306
H	 1.5212972792	-1.8491250351	-2.387814314	 0.103779
H	 0.9107122418	-2.369591826	-0.7856349198	 0.106775
H	-0.9053922833	-0.5776339401	 0.2447812031	 0.069787
H	 2.1746878232	 0.9988986288	-2.1183589162	 0.078091
