20
gdb 26201	3.90153	1.04755	0.85104	1.1972	85.3	-0.1739	0.0435	0.2174	1403.4879	0.17011	-403.173506	-403.163877	-403.162933	-403.208023	35.098	
C	 0.0599759429	 1.3783100101	-0.1167064162	-0.327056
N	 0.0335757843	-0.0598262238	-0.2978303229	-0.160334
C	 1.1779508236	-0.7753949919	 0.252622609	-0.341494
C	-1.2102332942	-0.6439449751	-0.1564746789	 0.467966
C	-2.4663910499	-0.1371661201	 0.0289201639	-0.418315
C	-3.363992806	-1.2660694825	-0.0013064661	 0.272263
C	-4.8521225768	-1.2345395704	 0.153782367	-0.499966
C	-2.5825637707	-2.357039014	-0.1862160366	-0.130731
O	-1.2582979769	-1.9938376577	-0.2868548524	-0.202948
H	 1.0436970313	 1.7559549311	-0.4078745814	 0.123475
H	-0.6912979496	 1.8446549126	-0.7598800714	 0.135576
H	-0.1357325063	 1.6868093785	 0.9245375138	 0.108598
H	 1.2428242041	-0.6932964741	 1.3506269165	 0.108368
H	 1.1127252731	-1.8304222669	-0.0120938586	 0.151516
H	 2.0950908177	-0.3636187396	-0.1782665286	 0.121051
H	-2.7327603043	 0.8953812893	 0.1831986698	 0.095676
H	-5.3245449005	-0.6310877051	-0.630070716	 0.126379
H	-5.2770299979	-2.240906654	 0.1012878072	 0.121381
H	-5.1466567611	-0.7971650582	 1.1149583232	 0.125624
H	-2.7799562929	-3.4132419081	-0.2573751212	 0.122971
