17
gdb 15642	3.2961	1.84365	1.2958	3.1043	70.87	-0.2079	0.0006	0.2085	963.1579	0.142524	-363.914627	-363.906756	-363.905812	-363.947505	28.765	
C	 0.0298866673	 1.571392019	 0.1560138993	-0.37626
C	-0.0335934785	 0.0592999417	-0.0763646934	-0.163799
N	-1.3806641586	-0.4764875473	-0.008384202	-0.074873
C	-2.1307622718	-0.6871979131	 1.1604045408	-0.010782
C	-3.3447592641	-1.1787670521	 0.8940928622	-0.156876
C	-3.4728736623	-1.3298380602	-0.5983506963	-0.39086
C	-2.1176212987	-0.8360287284	-1.1278808987	 0.40612
O	-1.7337627626	-0.7627158982	-2.2750023163	-0.385862
H	 1.0653310672	 1.9202012014	 0.0927033497	 0.121227
H	-0.5583815155	 2.1012354559	-0.5983589471	 0.137473
H	-0.3573759592	 1.8415066084	 1.1437912837	 0.118105
H	 0.3341225739	-0.1861497229	-1.076012837	 0.146003
H	 0.5952649399	-0.4669312459	 0.6518946271	 0.109204
H	-1.6824975288	-0.4529855679	 2.1162782392	 0.124047
H	-4.1027791977	-1.4303370135	 1.6192546888	 0.107342
H	-3.638561086	-2.3623261428	-0.9272960433	 0.145088
H	-4.2775290144	-0.7297168042	-1.0390122266	 0.144703
