21
gdb 95036	2.50162	1.72618	1.22257	1.6715	81.89	-0.2413	0.0211	0.2624	1086.0806	0.185313	-387.113043	-387.105159	-387.104215	-387.145759	31.242	
C	-0.0787319003	 1.5783182111	-0.1485961652	-0.418204
C	 0.1023146168	 0.0660282061	-0.037574272	 0.026137
C	 0.8692275918	-0.5782880455	-1.2001828181	-0.096483
O	 1.1764748474	-1.888102338	-0.753788897	-0.263837
C	 1.5200871265	-1.7953225402	 0.6367370419	 0.071343
C	 2.9994449438	-1.6033261126	 0.8575368244	-0.082172
C	 3.2779808683	-0.4427580191	 1.4453409991	-0.06351
C	 2.0446137024	 0.3659144286	 1.7578681428	-0.274389
C	 0.8685518119	-0.4859986793	 1.1982462186	-0.072386
H	 0.8739243256	 2.0985812425	-0.2892950691	 0.120109
H	-0.7124090162	 1.8257208477	-1.0070332706	 0.115628
H	-0.5581634942	 1.9919426379	 0.7445170359	 0.116664
H	-0.8919993708	-0.3971091302	-0.0206810017	 0.079789
H	 0.2845286842	-0.6660987404	-2.1205707512	 0.103498
H	 1.7840693527	-0.0038627751	-1.4259266932	 0.08408
H	 1.145214374	-2.7150526209	 1.0993992733	 0.076851
H	 3.7220323513	-2.3452545409	 0.5372156266	 0.096573
H	 4.2743392278	-0.0900805447	 1.692937749	 0.09366
H	 1.9364903585	 0.5235452637	 2.8385696291	 0.107073
H	 2.1025117462	 1.3692395534	 1.3209065319	 0.105024
H	 0.1619938423	-0.7086883142	 2.0000376456	 0.07455
