17
gdb 54925	5.18135	0.83939	0.81642	6.3356	74.06	-0.261	0.0066	0.2676	1391.4976	0.136583	-418.050247	-418.041177	-418.040233	-418.085565	32.265	
N	-0.0509238052	 1.2562686527	 0.525802387	-0.537738
C	-0.0180457866	 0.1487773541	-0.2654049215	 0.433356
O	 0.9648424304	-0.1597332439	-0.9178221681	-0.372599
C	-1.2903012853	-0.682796984	-0.2894819172	-0.130829
C	-1.7486143036	-1.0005852058	-1.7480191437	-0.233702
C	-1.0420917636	-2.3876879596	-1.6418082125	-0.121363
C	-0.9961414834	-2.20321003	-0.0931751684	-0.233742
C	-1.7349648111	-3.5486206399	-2.1709245082	 0.260815
N	-2.3072663161	-4.4672703362	-2.5786984113	-0.32781
H	 0.771887078	 1.8353883586	 0.5731920645	 0.265249
H	-0.8553036335	 1.509919793	 1.0707346102	 0.263105
H	-2.0609719893	-0.2665216795	 0.362657871	 0.072978
H	-2.8331751351	-1.0989915287	-1.8174181063	 0.12373
H	-1.3859348565	-0.339821329	-2.5355740578	 0.131811
H	-0.0345784061	-2.3287339779	-2.0563327862	 0.151123
H	-0.0546564633	-2.4655479815	 0.3895160216	 0.132109
H	-1.8228485498	-2.7132765123	 0.4038859666	 0.123509
