20
gdb 76122	2.94182	1.34414	1.11012	1.7991	85.01	-0.2302	0.033	0.2631	1172.946	0.168952	-365.942202	-365.932856	-365.931912	-365.975747	35.677	
C	-0.1262477675	 1.6612039526	 0.1009780919	-0.418376
C	 0.0510758856	 0.1501377132	 0.0849853206	-0.061714
C	 1.1611612428	-0.5226421387	-0.8026541691	-0.176087
C	 2.0898935663	 0.3248966136	-1.5250401347	 0.374641
C	 2.8525754012	 1.0417086099	-2.1184424111	-0.478458
N	 1.7238690134	-1.27788579	 0.3901913449	-0.174847
C	 2.1519990353	-0.2390593277	 1.3522148791	-0.292929
C	 0.7114430205	-0.5554440718	 1.2749569528	 0.352427
C	-0.0444898623	-1.253829297	 2.3668740328	-0.494415
H	 0.8156146761	 2.1809403713	 0.2938580638	 0.126149
H	-0.5073498716	 2.0181384031	-0.8613087023	 0.122346
H	-0.843258063	 1.9551739602	 0.8753793019	 0.114957
H	-0.9080478678	-0.3267439312	-0.1400115834	 0.082452
H	 0.7325948832	-1.2582041905	-1.4881645594	 0.10998
H	 3.5306777303	 1.6609344622	-2.651984689	 0.199648
H	 2.7043074856	-0.6570036812	 2.1885170697	 0.117968
H	 2.5539281885	 0.6952957289	 0.9704102478	 0.123051
H	-0.4917032453	-0.5285596947	 3.0570928193	 0.122295
H	-0.8519028585	-1.8707460533	 1.9572938153	 0.120712
H	 0.6190955071	-1.903711959	 2.9446315492	 0.130197
