23
gdb 118219	4.25866	0.61674	0.56028	3.9321	79.46	-0.2467	0.0549	0.3016	1997.2143	0.203199	-462.561654	-462.550375	-462.549431	-462.5986	40.872	
C	 0.0622576458	 1.5783014466	-0.0115902376	-0.400019
C	 0.0438640306	 0.0514042334	-0.0042970293	 0.108906
O	 0.7087165503	-0.4636093539	-1.1713879836	-0.433004
C	 0.7488261987	-0.5453065427	 1.2148206269	-0.20024
C	 0.6860012819	-2.0797932271	 1.2864629261	 0.126456
O	 1.4605531393	-2.6874132686	 0.2642474077	-0.450896
C	 1.2027634799	-2.61166126	 2.6235446463	-0.197948
C	 1.1115305661	-4.1350161383	 2.7350315753	-0.069549
O	 1.5478460942	-4.6146094031	 4.0009805495	-0.423447
H	 1.0921163555	 1.9480983083	-0.003205372	 0.129464
H	-0.4342998991	 1.9708605996	-0.9064367278	 0.106065
H	-0.4611576832	 1.9800072612	 0.8618062624	 0.120745
H	-1.0020331362	-0.2967684188	-0.0041774462	 0.073712
H	 0.2111810102	-0.197116438	-1.9506596336	 0.288717
H	 1.8008117865	-0.2328380466	 1.2107277551	 0.108025
H	 0.2824453801	-0.1230004542	 2.1125872432	 0.097329
H	-0.3756619692	-2.3792128549	 1.1852172502	 0.051492
H	 1.2935098021	-2.1837650542	-0.5445778964	 0.289972
H	 2.2505722081	-2.3009344703	 2.7393508601	 0.087125
H	 0.634799272	-2.162579733	 3.4465512621	 0.094087
H	 0.0662161046	-4.452596772	 2.6452704531	 0.102359
H	 1.6662268274	-4.6009365739	 1.9108768992	 0.112408
H	 2.4926256243	-4.4431943996	 4.0645205291	 0.278241
