16
gdb 90644	3.98492	1.11496	1.02645	4.5179	70.42	-0.2608	0.0019	0.2627	1175.2369	0.12273	-437.848382	-437.840037	-437.839093	-437.881108	31.359	
C	-0.0596421124	 1.3885799648	-0.1231750916	-0.406132
C	 0.0025925142	-0.0995614838	 0.1353442407	 0.104357
O	 0.9694249059	-0.7543495823	-0.7708304799	-0.315433
C	 1.8015594593	-1.0759877741	 0.3343318872	 0.014815
C	 0.8216842145	-0.5384471978	 1.3483117686	-0.196483
C	 1.0493094645	-2.0498338904	 1.2194350209	 0.26539
O	 0.0872014166	-2.8945871792	 0.6802102429	-0.463612
C	 1.8135039145	-2.6382307582	 2.2935660911	 0.257837
N	 2.4407800307	-3.0831467921	 3.1571881221	-0.332926
H	 0.9281345853	 1.846614084	-0.0219838518	 0.131976
H	-0.4312674457	 1.5778910512	-1.1342255716	 0.138109
H	-0.7423788281	 1.8640924671	 0.5890271118	 0.129616
H	-0.9812060817	-0.5706560173	 0.0434087479	 0.105946
H	 2.8776344319	-1.0376525086	 0.2136290243	 0.13287
H	 0.9637465433	 0.0063013897	 2.2715768377	 0.128867
H	 0.145652357	-2.7884772431	-0.2801050302	 0.304803
