17
gdb 77053	3.19969	1.03966	0.85157	1.4143	76.11	-0.2511	0.0141	0.2651	1338.4099	0.13507	-417.963157	-417.953926	-417.952982	-417.997764	33.557	
N	 0.1642312793	 1.4961870907	 0.1750979686	-0.513908
C	 0.0873551384	 0.0600064581	 0.0345702423	-0.133033
C	-1.3023347875	-0.6340169679	 0.1578204736	 0.122294
C	-2.5267162584	 0.2752538853	 0.1473712697	-0.363002
C	-3.7816945972	-0.4648424665	 0.1289599577	 0.287065
C	-4.8064114044	-1.0918545942	 0.1222900989	-0.420583
O	-1.0772482675	-1.2904238491	-1.1339609756	-0.260439
C	 0.1011721471	-0.6035694174	-1.3396328469	 0.403602
N	 0.8534546927	-0.538219226	-2.3405134646	-0.545699
H	 1.1225745085	 1.7827251601	 0.3374669493	 0.247484
H	-0.130891946	 1.9589961205	-0.678649942	 0.243157
H	 0.8137891036	-0.4035369276	 0.7067174059	 0.117275
H	-1.3859060004	-1.3877004477	 0.9445427043	 0.103999
H	-2.4705261443	 0.9175209569	 1.0350089292	 0.152324
H	-2.4735265364	 0.9450356929	-0.7194873912	 0.130584
H	-5.7163925353	-1.6387173695	 0.1108920452	 0.198094
H	 0.5050008679	-1.1113502385	-3.1112104144	 0.230785
