21
gdb 108997	3.88667	1.00539	0.96592	1.5132	84.73	-0.2101	0.0281	0.2383	1333.2462	0.182764	-387.052862	-387.044103	-387.043159	-387.086296	33.855	
C	-0.1981634384	 1.5013206442	 0.0380399548	-0.436023
C	 0.0239304008	-0.0061149239	 0.024809446	 0.068483
C	 1.1941983693	-0.6007708773	-0.8548995685	-0.077301
C	 2.15301617	-0.2183423308	 0.3233247801	-0.218723
C	 0.9063531388	-0.6544614521	 1.1648463557	-0.142624
C	 0.8120324501	-2.1328350986	 0.7551161188	 0.356896
C	 0.5539903502	-3.2661416637	 1.6807522503	-0.221568
O	 0.5150600095	-4.476256234	 0.9448934363	-0.413223
C	 1.0016467945	-2.0958519655	-0.5683987773	-0.194722
H	 0.7192618277	 2.0767844857	 0.1862929323	 0.116676
H	-0.6438610674	 1.8275146126	-0.9086045447	 0.116146
H	-0.8950463948	 1.7775771103	 0.837731708	 0.114082
H	-0.933707328	-0.5142337178	-0.1263578642	 0.064557
H	 1.3705413581	-0.2801854906	-1.88218491	 0.05355
H	 3.0600757662	-0.8164894724	 0.4359095727	 0.091084
H	 2.3897612252	 0.8463614194	 0.3898654541	 0.090827
H	 0.7850743705	-0.3915365962	 2.2176000589	 0.049277
H	 1.3399551294	-3.2938075041	 2.4577854057	 0.093376
H	-0.3958968482	-3.0921899654	 2.2192487095	 0.093004
H	 0.3620883359	-5.1959900179	 1.5634641942	 0.288439
H	 1.0074773306	-2.9061423919	-1.2813858928	 0.107786
