19
gdb 110804	2.26738	1.45174	1.07278	3.912	79.37	-0.2494	0.0095	0.2589	1188.2026	0.159778	-382.036857	-382.028181	-382.027237	-382.070501	32.325	
C	 0.0604935571	 0.8433924605	-1.5079184528	-0.387946
C	-0.0330894856	 0.2226426005	-0.1073152336	-0.218986
C	-1.3587450879	-0.4854557798	 0.0789518997	 0.030098
C	-1.6436057914	-1.9087605864	-0.1869540248	-0.040351
C	-0.48854141	-2.825161174	 0.2135254847	-0.28442
C	-0.6416082346	-2.2323965584	 1.6435007942	-0.094789
C	 0.5031773003	-1.6200074655	 2.3097119169	 0.295668
N	 1.413519247	-1.156976074	 2.8519285559	-0.333537
N	-1.7802473473	-1.326501729	 1.22811401	-0.175876
H	 1.0079486716	 1.3744360599	-1.6345991587	 0.123146
H	-0.0030057654	 0.0767150766	-2.2873268648	 0.119611
H	-0.749869969	 1.5598760629	-1.6800570105	 0.120375
H	 0.8137000039	-0.4501011101	 0.0475038398	 0.118035
H	 0.059950638	 1.0050516294	 0.6545670006	 0.124695
H	-2.2019169745	 0.1610048653	-0.1645037719	 0.104013
H	-2.5178038551	-2.2405443559	-0.7372147221	 0.104805
H	-0.7345195755	-3.8867175457	 0.1845748794	 0.127509
H	 0.4637259307	-2.6679285333	-0.2976512774	 0.128133
H	-1.0612609623	-2.971671953	 2.3305844153	 0.139816
