17
gdb 64560	3.04265	1.597	1.31083	2.1538	73.66	-0.2343	-0.0425	0.1917	984.5647	0.136192	-421.797643	-421.790372	-421.789428	-421.8291	29.552	
O	 0.0462255622	 1.3774887781	-0.0254888881	-0.492655
C	 0.0220644556	-0.0084941029	-0.0104173952	 0.385764
C	 1.0101000617	-0.5212275573	-1.0378749108	 0.079835
O	 1.6562028876	 0.2571840305	-1.7056690506	-0.282692
C	 0.0246719723	-0.6484950105	 1.4600913361	-0.130067
C	-1.465417252	-0.1781373202	 1.5257104351	-0.219725
C	-1.4523387033	-0.639699117	 0.0315125428	-0.130223
C	-1.1172727323	-2.1189881392	 0.1902060153	-0.100401
C	-0.1541230492	-2.1247561075	 1.1216259813	-0.100412
H	 0.6997726959	 1.6153635498	-0.7062658631	 0.292062
H	 1.1185452722	-1.6096367782	-1.1553387137	 0.111924
H	 0.773718257	-0.3446851247	 2.1899615779	 0.0753
H	-2.121710443	-0.7317896673	 2.2007917677	 0.093954
H	-1.5741870104	 0.9002449007	 1.6447646814	 0.127999
H	-2.2047209303	-0.3268703548	-0.6910785827	 0.075296
H	-1.5420400157	-2.9377657554	-0.3731070656	 0.107022
H	 0.4180079017	-2.949470044	 1.5224315223	 0.107019
