12
gdb 939	6.2471	2.77153	1.94282	0.7915	56.17	-0.2666	-0.0481	0.2184	626.0342	0.092318	-319.615129	-319.609177	-319.608233	-319.646346	20.349	
C	-0.0250093326	 1.4882525103	 0.0103211691	-0.460462
C	-0.0122697677	-0.011252738	 0.0021675822	 0.364219
N	-0.0059604623	-0.6320154317	-1.1859302055	-0.268166
C	 0.0246508646	-1.9609490679	-1.1241660242	 0.082651
N	 0.0484070011	-2.6980186419	-0.0128972468	-0.240409
C	 0.0374640911	-1.973188202	 1.1065481249	 0.082671
N	 0.0077003189	-0.6449681977	 1.1832198963	-0.268144
H	 1.0066597221	 1.860570467	 0.0016953131	 0.152123
H	-0.5232680569	 1.8695788732	-0.8822081942	 0.146424
H	-0.5053363661	 1.8600030857	 0.9165615369	 0.146352
H	 0.0317556989	-2.497250497	-2.0712083586	 0.131368
H	 0.0554835488	-2.51980544	 2.0475285168	 0.131373
