15
gdb 2244	4.93672	2.67559	2.14919	2.4278	56.55	-0.2523	0.0931	0.3454	649.9548	0.125231	-345.641862	-345.635507	-345.634563	-345.671779	23.819	
C	-0.002681173	 1.5018302978	-0.0084908305	-0.490013
C	-0.038563284	 0.0026666953	 0.0784445698	 0.392993
C	-1.2714730936	-0.7810625294	-0.3393946404	-0.128736
O	-1.0946483328	-2.1004576009	 0.1603553467	-0.254943
C	-0.1936983734	-2.0785959203	 1.2628829629	-0.100374
C	 0.6373314459	-0.8299145433	 1.0799628393	-0.041131
O	 1.1681048144	-0.7089834585	-0.2453729084	-0.287765
H	 0.9412043524	 1.8845667035	 0.3864002795	 0.135422
H	-0.0929866694	 1.8317372678	-1.0491910562	 0.132984
H	-0.8280302794	 1.9459491393	 0.5575274582	 0.125815
H	-2.1709793734	-0.3031962414	 0.0834123726	 0.090124
H	-1.3918873024	-0.8477410837	-1.4261793104	 0.115929
H	-0.7262938629	-2.0306877928	 2.227556481	 0.092465
H	 0.3915034289	-3.0036173049	 1.2337635449	 0.119591
H	 1.2450543927	-0.4316162284	 1.8884402011	 0.09764
