21
gdb 40273	2.85309	1.40925	1.07913	0.9154	86.03	-0.2278	0.0212	0.249	1184.2968	0.184598	-387.079282	-387.071191	-387.070247	-387.111947	32.268	
C	-0.3746287236	 1.5193791601	 0.0740934675	-0.312354
C	 1.1052494731	 1.2719792089	 0.0611819482	-0.288962
C	 0.1402717046	 0.0937263389	 0.0001563328	 0.330729
C	-0.0449820573	-0.7152138824	 1.2704439299	-0.164629
O	 0.8665314117	-1.7818459126	 1.443499669	-0.23954
C	 0.5339844728	-2.9516800053	 0.7229574691	-0.073764
C	 0.9606726655	-2.9257362749	-0.7457206822	-0.262138
C	 0.3466984993	-1.8617183601	-1.6206180441	-0.075578
C	 0.0234703527	-0.6036761229	-1.3094021018	-0.126358
H	-0.8357232803	 1.8440519747	 1.0013414029	 0.111901
H	-0.8363087077	 1.932704327	-0.8163871326	 0.113987
H	 1.6591677996	 1.5139148319	-0.8386932919	 0.116142
H	 1.6641500498	 1.4102970037	 0.9807345976	 0.119976
H	 0.0952500526	-0.0572572283	 2.1353844932	 0.093261
H	-1.0775581093	-1.1008563332	 1.3059916137	 0.087377
H	 1.0509644988	-3.7747587954	 1.228592281	 0.100329
H	-0.5496496068	-3.1412802691	 0.7929240493	 0.086652
H	 2.0557642959	-2.826559723	-0.7833575135	 0.120476
H	 0.737100717	-3.9131017029	-1.1699239943	 0.098561
H	 0.2107388953	-2.1536254322	-2.6602405616	 0.084164
H	-0.3414014338	 0.0247202872	-2.1211745022	 0.079767
