17
gdb 5622	3.15527	1.85078	1.18636	1.8544	71.12	-0.188	0.0364	0.2244	1007.8373	0.142623	-363.884164	-363.876046	-363.875102	-363.916573	29.854	
C	 0.0490381871	 1.4180313181	 0.0589626017	-0.325502
N	-0.1104044517	-0.0217358458	-0.0357659534	-0.383223
C	 0.5778920368	-0.6722435673	-1.0583139413	 0.17802
C	 1.2079074355	-0.1347048395	-2.1438173424	-0.096985
O	 1.6937959315	-1.1333725359	-2.9474401655	-0.157261
C	 1.3759368841	-2.3048916168	-2.3486067726	-0.086913
C	 0.6917663669	-2.1064391111	-1.1913298961	 0.162216
C	 0.1493572845	-3.1301330981	-0.2455772241	-0.517088
H	 1.1006270273	 1.7400845277	 0.1386061317	 0.10938
H	-0.3780565316	 1.8911561689	-0.8324047695	 0.132932
H	-0.4986928568	 1.7879122748	 0.9288650605	 0.12157
H	-0.0114294337	-0.4882695862	 0.8553218467	 0.232507
H	 1.3760179754	 0.8704982581	-2.4875718994	 0.121822
H	 1.6966257	-3.1992679244	-2.8588164223	 0.127951
H	 0.6129998516	-3.0597053394	 0.747331496	 0.119537
H	-0.931228747	-3.0106591242	-0.1034125239	 0.133535
H	 0.3291323001	-4.1429439588	-0.6160056561	 0.127503
