21
gdb 38099	2.56723	1.91946	1.4404	0.3917	86.85	-0.2229	0.0213	0.2442	992.8711	0.186752	-349.939378	-349.932442	-349.931498	-349.970156	29.941	
C	-0.0488102875	 1.4766642255	-0.1754115947	-0.309145
C	 1.2903475059	 0.7764559586	 0.0504055662	-0.053537
C	 2.0823855911	 0.9604072241	 1.2928996826	-0.064109
C	 1.9000450888	 0.3735045965	 2.4805757893	-0.079937
C	 0.8054771865	-0.5935886031	 2.8466408919	-0.04415
C	 0.5204374399	-1.7145023898	 1.7941465243	-0.22378
C	-0.556507005	-0.7827644249	 1.1582320818	-0.025427
C	-0.6174517771	-0.0359593329	 2.5182614886	-0.233994
C	 0.0071423666	-0.0200025207	-0.0282694786	-0.020551
H	-0.4449977344	 2.057995012	 0.6490144679	 0.11803
H	-0.2453408393	 1.9000662486	-1.1548100343	 0.107242
H	 1.9108017272	 0.7340752599	-0.8422094793	 0.085311
H	 2.9140744358	 1.6567185253	 1.1952402604	 0.081616
H	 2.5813423761	 0.6442555698	 3.2839799683	 0.079978
H	 0.949805771	-0.9420689681	 3.8717720078	 0.058095
H	 1.3512483594	-2.0234890205	 1.1558781178	 0.097705
H	 0.0789550697	-2.5964544833	 2.2673783318	 0.091377
H	-1.4939324308	-1.2596635233	 0.8561799206	 0.061073
H	-1.3798997884	-0.4820443372	 3.1636388268	 0.095061
H	-0.7418371887	 1.0485636596	 2.5256147705	 0.096733
H	-0.1016058868	-0.5777048762	-0.9559538595	 0.082409
