19
gdb 68875	2.5156	1.83857	1.63929	2.2948	73.84	-0.2286	0.0617	0.2902	931.1255	0.160258	-422.974387	-422.966866	-422.965922	-423.005591	31.617	
O	-0.266605948	 1.2644807818	-0.1078424769	-0.477444
C	 0.0020118704	-0.1022179458	 0.0215783693	 0.308218
C	-0.3846406556	-0.8258535422	 1.3018283963	-0.441791
C	-1.1972883546	-1.0118338621	 0.0311356746	 0.415147
O	-2.4852159478	-0.4939180227	-0.0509367475	-0.488518
C	-0.7809896297	-2.0299512387	-1.0441508946	-0.081473
C	-0.2467376989	-1.0443561199	-2.1463620356	-0.223737
C	 0.8606747706	-0.7839899909	-1.0610668155	-0.088914
C	 0.7182110272	-2.2974129215	-0.7377683731	-0.241521
H	 0.3299714212	 1.7564113078	 0.4647925981	 0.29122
H	 0.2312038344	-1.6006538445	 1.7428201433	 0.112677
H	-0.884574391	-0.1907682205	 2.0270597527	 0.110789
H	-2.392984132	 0.4632066192	-0.1568524653	 0.289595
H	-1.4812270915	-2.8349666388	-1.2640770392	 0.069601
H	 0.1314322016	-1.5535181713	-3.0367614112	 0.090097
H	-0.8878438627	-0.2055673463	-2.4255511688	 0.10264
H	 1.8247433726	-0.332476983	-1.2988995912	 0.057839
H	 1.0150417446	-2.676228765	 0.2407041781	 0.094238
H	 1.1774538992	-2.9108434155	-1.5157360334	 0.101338
