18
gdb 35289	3.47577	0.91689	0.82317	3.6987	77.63	-0.2421	0.0134	0.2555	1412.5568	0.148163	-398.075971	-398.067297	-398.066353	-398.110409	31.514	
N	-0.2085357178	-1.1239429209	 0.1742713745	-0.335019
C	-0.0698706868	 0.0235129705	 0.2036350369	 0.329844
C	 0.0845401098	 1.4593416792	 0.2020199313	-0.203134
N	 0.8827732806	 2.0436074496	 1.3000366085	-0.310291
C	 1.4028771471	 2.1161816045	-0.0662788333	 0.003388
C	 2.6553495234	 1.3276907114	-0.3634283354	-0.167002
N	 3.8270375815	 2.1419874453	-0.0656808153	-0.076727
C	 4.333152185	 2.0569554253	 1.3043095591	-0.216564
C	 5.0666635159	 1.4114375582	 0.1817438753	-0.223551
H	-0.8043650855	 1.9880954353	-0.1312108232	 0.134144
H	 0.4674038843	 2.9260010711	 1.5868194423	 0.247763
H	 1.3461118172	 3.075300131	-0.5772836245	 0.110575
H	 2.6314828743	 0.3829320508	 0.2043978268	 0.110221
H	 2.6771922507	 1.073598226	-1.4302572396	 0.115682
H	 4.6919773099	 2.9895507115	 1.7298418407	 0.115899
H	 3.8048844827	 1.4093746209	 1.9999948883	 0.129828
H	 5.0370211353	 0.3245062257	 0.1270784721	 0.115926
H	 5.9671821824	 1.8630720545	-0.2239904043	 0.119019
