21
gdb 120822	3.48185	0.69732	0.62623	3.8328	81.55	-0.2407	-0.0155	0.2252	1818.8953	0.17941	-424.214348	-424.204012	-424.203068	-424.25131	36.124	
C	-0.014880776	 1.5005440191	-0.2561336269	-0.385884
C	-0.2116628957	 0.0092341381	-0.4635544255	-0.033698
O	 1.0564929242	-0.5774642477	-0.724378213	-0.24705
C	 1.0030387918	-1.950504214	-0.9296386731	 0.116596
C	 0.6485144625	-2.4756144691	-2.2998355264	-0.325338
C	 2.0797194827	-2.547476234	-1.7874319159	-0.06255
C	 3.1593348655	-1.6655549312	-2.386173282	-0.292633
C	 3.6438038052	-2.1849861591	-3.7221109961	 0.164954
O	 4.7987423186	-2.3477323063	-4.021970245	-0.242149
H	 0.6598023148	 1.6862497796	 0.5841937644	 0.129822
H	 0.4170601977	 1.9600283081	-1.1498568635	 0.126007
H	-0.9733686442	 1.9844372817	-0.0463833415	 0.117781
H	-0.658450355	-0.4521500688	 0.4318260084	 0.09068
H	-0.8955793233	-0.1849862835	-1.3040169516	 0.092876
H	 0.6704687133	-2.5215430464	-0.0614056498	 0.089163
H	 0.074064011	-3.3908415445	-2.3890896646	 0.116539
H	 0.4344399526	-1.7287681392	-3.0575584203	 0.119183
H	 2.4229081131	-3.5322619898	-1.4826785274	 0.099551
H	 2.745874894	-0.6608404031	-2.5415596585	 0.132449
H	 4.0199677372	-1.5685047243	-1.7176540411	 0.122517
H	 2.826675	-2.4187260955	-4.4440818708	 0.071183
