15
gdb 24937	4.931	1.2782	1.0215	3.9837	72.88	-0.1857	0.0144	0.2001	1083.5746	0.115677	-416.875764	-416.868619	-416.867675	-416.907366	27.78	
O	-0.0126033292	 0.0039467483	 0.0033191887	-0.369661
C	-0.0266897443	 1.2117389845	 0.010265311	 0.41272
C	-1.2926779723	 2.1308930091	 0.0328092399	-0.499179
C	-0.6659005782	 3.482558608	 0.0315333153	 0.275079
C	 0.7005461339	 3.3941274844	 0.01216963	 0.352433
N	 1.0818208421	 2.0406242175	-0.0005086267	-0.447597
C	 1.253699234	 4.6951358404	 0.0116860817	-0.315269
C	 0.1645425257	 5.5532854009	 0.0314597369	-0.068647
N	-0.9947762799	 4.8121364134	 0.0434026342	-0.369372
H	-1.9101839449	 1.8940823241	-0.8414137761	 0.143453
H	-1.8857453537	 1.8844524513	 0.9211807876	 0.14345
H	 2.0180544201	 1.6735739835	-0.0155921329	 0.258508
H	 2.2904781002	 4.9912032797	-0.0010117739	 0.098393
H	 0.1295081186	 6.6303857894	 0.0378543986	 0.121793
H	-1.9225387618	 5.1972299956	 0.0582964358	 0.263894
