19
gdb 56659	2.96047	1.17209	1.00167	5.4973	76.36	-0.2607	0.0221	0.2828	1240.7052	0.157395	-419.188423	-419.178737	-419.177793	-419.222828	35.506	
C	 0.1244021078	 1.9615843255	 0.6383265822	-0.324989
N	-0.2815192451	 0.5649780294	 0.5611343852	-0.145256
C	 0.395187069	-0.3289904387	-0.3809260101	-0.27835
C	 0.5660851021	-0.5048802638	 1.0885518721	 0.286704
C	 1.8963096611	-0.2425981328	 1.7570044404	-0.48682
C	-0.3006260927	-1.5779199005	 1.7911075385	-0.042576
O	-1.6210813676	-1.5665258372	 1.320563578	-0.430922
C	 0.2870293966	-2.9145114077	 1.5817418155	 0.287234
N	 0.787337007	-3.9447753369	 1.4315344581	-0.326957
H	 1.1876628379	 2.1292721604	 0.4186490061	 0.113213
H	-0.4654249436	 2.534513004	-0.0830958628	 0.13827
H	-0.0901200724	 2.3496209493	 1.6385165541	 0.133494
H	-0.2506458664	-0.9937239607	-0.9471407552	 0.139807
H	 1.2464707233	 0.0711387326	-0.9289578	 0.118633
H	 2.5055204275	 0.4679015702	 1.1953379363	 0.129913
H	 1.7596725347	 0.1477264689	 2.771876537	 0.129428
H	 2.4627312585	-1.176141064	 1.8319709708	 0.155878
H	-0.2653384207	-1.3790176028	 2.8768159009	 0.108752
H	-1.7454463069	-0.6445591052	 1.0207189529	 0.294545
