19
gdb 69347	2.74253	1.34249	1.09678	2.9968	80.41	-0.2634	0.0296	0.293	1168.3958	0.159352	-382.056753	-382.047852	-382.046908	-382.089876	34.24	
C	-0.0087145382	 1.5583000208	 0.0495995956	-0.500198
C	 0.038923256	 0.0587288326	 0.0076878384	 0.376528
C	-0.8706224065	-0.8312960256	 0.8051220588	-0.340841
C	 0.6157665319	-0.9356889289	 1.0216460161	-0.112724
C	 1.2453803982	-1.7709551298	-0.1112946418	 0.138348
N	 0.7500791544	-3.1387504641	-0.235039421	-0.541126
C	 0.6413163637	-0.7524575738	-1.1497803302	-0.326312
C	 2.715173166	-1.7018371582	-0.0736335098	 0.227223
N	 3.8718438162	-1.6945502006	-0.04365212	-0.347259
H	 0.9642187154	 1.9964098502	-0.1997267069	 0.12495
H	-0.7431979981	 1.9503506797	-0.6642711835	 0.124153
H	-0.2934673217	 1.9156573229	 1.0444250251	 0.121705
H	-1.4048310364	-0.3396472215	 1.6122551991	 0.113506
H	-1.4043266027	-1.6540615128	 0.3396466593	 0.127769
H	 1.0901547907	-0.7558246706	 1.9785863459	 0.09977
H	 1.1523109948	-3.5813718199	-1.0574456113	 0.240541
H	 1.0481021243	-3.6901861647	 0.56572851	 0.240001
H	-0.0652879081	-1.2001190317	-1.8545746684	 0.108147
H	 1.4170341301	-0.215666364	-1.6986326553	 0.125819
