17
gdb 53179	3.13024	1.05896	0.94334	1.5598	77.13	-0.2376	0.0438	0.2814	1307.7073	0.133933	-421.756995	-421.747894	-421.74695	-421.792529	32.364	
C	 0.0493880966	 1.5219284583	-0.0323942297	-0.499812
C	 0.0565577714	 0.0664957464	-0.016126573	 0.090957
C	 0.0737396747	-1.1381892963	-0.0064889721	 0.08947
C	 0.0502216619	-2.5839752407	 0.0155379273	-0.308303
C	 0.2605653408	-3.2868108428	 1.3702335965	 0.031019
O	-0.8254967054	-2.9074944111	 2.2197306376	-0.24988
C	-1.0302549254	-3.9864208887	 1.2921380205	-0.024992
C	-1.3834659329	-3.3129624819	-0.043336173	 0.126007
O	-2.5273386595	-2.5249118934	-0.0722803651	-0.422573
H	 1.0266462159	 1.9213990042	-0.3255579561	 0.148203
H	-0.6916693391	 1.9069123682	-0.741678214	 0.150826
H	-0.1929449892	 1.9301326314	 0.9550083688	 0.149619
H	 0.7051694961	-3.0088747981	-0.7525065074	 0.102222
H	 1.190660071	-3.5729201966	 1.8461967624	 0.113506
H	-1.3543451489	-4.9361150235	 1.70153524	 0.110343
H	-1.4377170338	-4.0073197555	-0.8845217533	 0.0999
H	-2.4642684942	-1.9242044201	 0.6819627307	 0.29349
