17
gdb 93464	3.01917	1.3912	0.98231	3.8835	70.96	-0.253	-0.0095	0.2434	1160.8357	0.138025	-455.237047	-455.228692	-455.227748	-455.270345	30.446	
C	-0.0513524426	 1.4780912102	 0.0689550569	-0.341896
N	 0.0095736851	 0.0428126306	-0.1523530217	-0.12881
C	-1.2281113882	-0.7170262744	-0.0294042068	-0.173839
C	-1.1398056487	-2.0282819978	-0.8056005958	-0.331897
C	 0.1241282209	-2.7986267391	-0.4716366788	 0.411993
O	 0.2364488609	-4.0002610268	-0.5451292937	-0.344917
N	 1.1795255885	-1.9842104009	-0.1001350538	-0.395271
C	 1.2247275289	-0.5796427124	-0.0300544046	 0.486563
O	 2.2872122073	-0.0110613113	 0.1228407758	-0.400838
H	 0.9498400662	 1.8871039382	-0.0562802555	 0.172725
H	-0.7320371048	 1.9375450644	-0.6550164166	 0.125237
H	-0.4061647866	 1.7166747928	 1.0810430183	 0.124495
H	-1.4610465962	-0.9147574944	 1.0291076712	 0.118478
H	-2.041445418	-0.1023112299	-0.4254686379	 0.122939
H	-1.9976678187	-2.6726832702	-0.606554951	 0.14203
H	-1.1196934674	-1.8240494249	-1.8832626251	 0.144278
H	 2.0761878634	-2.4318422441	 0.034084559	 0.26873
