16
gdb 74158	2.99719	1.42654	1.04369	4.6958	74.98	-0.2266	-0.0255	0.2011	1103.8299	0.125035	-437.910909	-437.90319	-437.902246	-437.943048	30.199	
N	 0.1319140147	 1.3418673012	 0.0045028238	-0.596752
C	-0.0165897346	-0.0080689983	-0.0371221757	 0.336632
C	-1.1344386758	-0.7773273367	-0.0710053301	-0.338089
C	-0.7813999922	-2.1944786456	-0.0582308097	 0.386718
O	-1.5255038954	-3.1501375201	-0.109299533	-0.354892
C	 0.7575928343	-2.2892391234	 0.0706380673	-0.444607
C	 1.2164253723	-0.856046976	-0.0981085212	 0.377335
C	 2.4104219499	-0.4324009224	-0.8471102538	-0.240971
O	 2.3712099121	-0.3383654734	 0.5818922069	-0.288885
H	 1.0078660337	 1.6635537206	 0.3925559003	 0.270934
H	-0.6710534903	 1.9021403293	 0.2421526416	 0.266717
H	-2.1583639318	-0.4275914569	-0.074137989	 0.100868
H	 1.0146667206	-2.6666878242	 1.0656279606	 0.14502
H	 1.1709485975	-2.9803036037	-0.6673266751	 0.129241
H	 3.0764488358	-1.1964715423	-1.2444861058	 0.128894
H	 2.4133110991	 0.5163177318	-1.3809881372	 0.121836
