21
gdb 68225	3.0351	1.61286	1.37196	1.7861	80.67	-0.2597	0.0853	0.345	1025.9241	0.184676	-387.079289	-387.07192	-387.070975	-387.110417	31.204	
C	-0.0776816689	 1.551400901	 0.0381787107	-0.47701
C	 0.0316688176	 0.0362018024	 0.0241426677	 0.324735
C	 1.1188852523	-0.6279302865	-0.8831229569	-0.257308
C	 1.2136299195	-1.739737523	 0.2050600078	-0.064651
C	 0.7333186156	-0.6734285495	 1.2238309722	-0.252452
C	 0.0975850073	-2.7404498212	-0.0665984857	 0.052391
O	-0.9418459489	-2.8540103628	 0.9119899082	-0.256535
C	-1.2275254755	-2.1533797992	-0.3088918184	 0.040503
C	-1.3331558344	-0.6361560644	-0.2441626108	-0.269613
H	 0.8946412341	 2.0146356958	 0.2371246873	 0.108984
H	-0.4414600925	 1.9349010749	-0.9226665577	 0.1111
H	-0.774455266	 1.8904310966	 0.8140863415	 0.114438
H	 0.8367619641	-0.9251233628	-1.8986907451	 0.087161
H	 2.0260748108	-0.0185575473	-0.9225531908	 0.09445
H	 2.1746833016	-2.2283683194	 0.3767513413	 0.060798
H	 1.573753123	-0.0791138928	 1.5937075313	 0.087673
H	 0.1178235314	-1.014371591	 2.0566632615	 0.1136
H	 0.3746889773	-3.6799257993	-0.5431969016	 0.0873
H	-1.9450875098	-2.6675563212	-0.9469101758	 0.089878
H	-2.0606040559	-0.3438644317	 0.5243508202	 0.107611
H	-1.7273085026	-0.2793556786	-1.204820097	 0.096946
