19
gdb 14974	4.45022	1.43249	1.15271	2.3149	72.4	-0.2443	0.029	0.2733	1068.8697	0.16705	-365.088566	-365.080659	-365.079715	-365.120956	29.435	
C	-0.061890128	 1.5614543998	 0.019471287	-0.388324
C	-0.0140018573	 0.0316120779	-0.0177127037	-0.18943
C	 0.7525676219	-0.5271330903	-1.2104191759	 0.154085
C	 0.8514877472	-2.0498945039	-1.2367211439	-0.240975
C	 1.5176215179	-2.4914183334	-2.5440053	-0.163144
N	 0.9700789258	-1.8230062483	-3.7218486365	-0.266999
C	 0.3255566895	-0.750328458	-3.546076635	 0.131214
O	 0.0830100625	-0.0617702782	-2.4041928193	-0.242058
H	 0.9457918462	 1.9869987227	 0.0833770028	 0.113311
H	-0.5363245623	 1.9572420739	-0.881857843	 0.136227
H	-0.6279163188	 1.9134202157	 0.8868173427	 0.113806
H	 0.4612255486	-0.3532917643	 0.8931105833	 0.098942
H	-1.0313426829	-0.3777972138	-0.0400330005	 0.106105
H	 1.7662101445	-0.0983558132	-1.2273971323	 0.083198
H	 1.4132367466	-2.4022657767	-0.3652288399	 0.102182
H	-0.1583859205	-2.4726812687	-1.1702556078	 0.110571
H	 2.5991355517	-2.301976659	-2.5079675878	 0.110312
H	 1.4054650431	-3.5718007241	-2.6870509863	 0.110958
H	-0.1409036755	-0.238670098	-4.386713554	 0.120022
