15
gdb 48044	7.9739	0.44727	0.42613	2.4591	79.26	-0.2701	-0.0718	0.1983	2339.1671	0.110544	-416.773783	-416.763908	-416.762963	-416.810782	32.039	
O	-0.0698776286	-0.0693094438	 0.0115234693	-0.223217
C	-0.0116408179	 1.1380749532	 0.025570423	 0.019894
C	 1.2176255021	 1.8916530424	 0.0182534853	 0.106075
C	 2.231791509	 2.5464104545	 0.0213389562	 0.032769
C	 3.465268292	 3.316817796	-0.000720642	-0.289523
N	 3.2087478731	 4.7555178433	 0.082834012	-0.297309
C	 4.4363301937	 5.5348904025	-0.0372138966	-0.259548
C	 4.1486529105	 6.9702317815	-0.0021801009	 0.260095
N	 3.9228847743	 8.1026045497	 0.0011793274	-0.288516
H	-0.9256593063	 1.7649584565	 0.0458708915	 0.10656
H	 4.0833260119	 3.0260941211	 0.8604199905	 0.156507
H	 4.0429289475	 3.0256502159	-0.8993685533	 0.131994
H	 2.550595947	 5.0297886006	-0.6391623041	 0.243472
H	 5.0921146993	 5.2924203357	 0.8087865074	 0.162873
H	 5.0178620924	 5.3252208508	-0.9540094259	 0.137876
