15
gdb 54241	2.40299	1.44917	1.34546	2.9538	62.45	-0.2473	0.0043	0.2516	1019.8219	0.111919	-491.129252	-491.120266	-491.119322	-491.163269	32.421	
N	-0.0221053203	 1.340449716	-0.1239044265	-0.538057
C	 0.0665662339	 0.0063538006	 0.0863001045	 0.365993
O	 1.0939017402	-0.5925095992	 0.3442876953	-0.374127
C	-1.2785584133	-0.7288007205	 0.0054058356	 0.170853
O	-2.3138406461	 0.0755956228	-0.5143980106	-0.491203
C	-1.1360681037	-2.1697463298	-0.5818394183	-0.189036
N	-1.4326556196	-2.6736362724	 0.7676394251	-0.320957
C	-1.6680043019	-1.4604386923	 1.3340888482	 0.379058
O	-2.101929573	-1.0813052445	 2.3893400442	-0.366085
H	 0.8216696613	 1.8884169185	-0.1228906667	 0.265512
H	-0.8913137552	 1.7345014461	-0.4412180023	 0.270311
H	-2.9551361865	 0.2141244186	 0.1935774054	 0.304291
H	-1.9064540089	-2.4002022519	-1.3222461331	 0.120731
H	-0.1369037105	-2.4190689688	-0.9405807483	 0.141968
H	-1.5252722063	-3.6083453133	 1.1364134775	 0.260747
