19
gdb 71304	2.64343	1.8636	1.42511	1.5789	73.77	-0.2316	0.0744	0.306	960.0322	0.161156	-422.992555	-422.985319	-422.984375	-423.023681	30.193	
O	-0.0529071173	 1.348135335	 0.0517456104	-0.492282
C	 0.0236509978	-0.0578008295	-0.0118954659	 0.409877
C	 0.2169339841	-0.6517859123	-1.451762029	-0.307993
C	-1.0818664863	-1.4466006079	-1.2828705391	-0.116435
C	-1.2087044886	-2.1520596476	 0.0458438687	 0.125461
O	-0.2249942108	-2.8145273296	 0.7897850208	-0.264947
C	 1.0360858829	-2.1732038237	 0.9106088688	-0.073796
C	 0.9400244492	-0.6493499096	 1.0608447599	-0.286506
C	-1.3846101747	-0.6753610395	 0.0294998022	-0.148707
H	 0.8425254514	 1.6994804254	-0.0101491388	 0.272324
H	 0.0758887691	 0.1602154064	-2.169160276	 0.108566
H	 1.1357134763	-1.1937292177	-1.6972284069	 0.087964
H	-1.7585365639	-1.688118787	-2.0953506801	 0.085341
H	-2.1277850557	-2.7235631791	 0.1321815637	 0.106195
H	 1.5121906525	-2.6176488889	 1.789824378	 0.106502
H	 1.6626112249	-2.4195336781	 0.0415434393	 0.097689
H	 1.9522655388	-0.2301170909	 0.9784333572	 0.085934
H	 0.546531166	-0.3776649157	 2.0467937607	 0.112953
H	-2.2668437057	-0.1422779796	 0.3619798061	 0.091858
