15
gdb 128370	2.22037	1.58034	0.9299	2.8341	77.34	-0.2223	-0.0192	0.2031	1197.8783	0.111974	-416.768859	-416.760283	-416.759339	-416.802253	31.233	
C	 0.0205053103	 1.3648642261	-0.049767515	-0.324832
N	-0.0356458631	-0.0739812402	 0.1406642504	-0.39529
C	-1.2245045091	-0.7329593426	 0.0569444203	 0.386328
N	-2.3865966214	-0.1131511277	 0.0472521053	-0.238258
O	-3.3519366515	-1.142645581	 0.0132645564	-0.175934
C	-2.7354684505	-2.3201632146	-0.0122909459	-0.008936
C	-1.3808932268	-2.1696746593	 0.0097750124	-0.03664
C	-0.3503543846	-3.1290344524	-0.0105685218	 0.207389
C	 0.5714174872	-3.9049407731	-0.0338324451	-0.432065
H	 1.0426711347	 1.7045223805	 0.1286816242	 0.125458
H	-0.2914524088	 1.6738312099	-1.0568493493	 0.128866
H	-0.6417865164	 1.8533310313	 0.6695495658	 0.156961
H	 0.7643007593	-0.6118872376	-0.1530511769	 0.252562
H	-3.3656623969	-3.1956502542	-0.0449077809	 0.160401
H	 1.3700709675	-4.604603815	-0.04716916	 0.193989
