16
gdb 108888	4.05486	0.9833	0.91026	5.0372	72.12	-0.2353	0.0235	0.2588	1298.8726	0.125555	-434.09506	-434.086236	-434.085292	-434.129739	30.436	
C	 0.022899583	 1.4863064457	-0.0092711246	-0.328704
N	-0.0279816766	 0.0356557152	-0.0634551593	-0.372102
C	 0.5456979338	-0.6989830971	-1.0428991252	 0.525331
N	 0.7213928358	-1.9710002461	-1.0191709521	-0.370366
C	 1.3670961737	-2.3090097818	-2.287418035	-0.137655
C	 1.3627549124	-0.9740166838	-3.1024920025	-0.122755
O	 0.925891951	 0.0039300797	-2.1444999829	-0.247034
C	 2.7320070636	-2.8260466633	-2.0773759745	 0.281468
N	 3.8086329713	-3.2206385896	-1.9345397108	-0.325056
H	 0.9879006074	 1.868085913	 0.3496315622	 0.132524
H	-0.1601844021	 1.89418419	-1.0038575327	 0.158669
H	-0.763604019	 1.8412748302	 0.6605213203	 0.135719
H	-0.1488258923	-0.4698703538	 0.7994541093	 0.266759
H	 0.8052357462	-3.0884316972	-2.8151254561	 0.129477
H	 2.3440842778	-0.6826014788	-3.4789735624	 0.145319
H	 0.6446360342	-1.0039332524	-3.9266036438	 0.128407
