18
gdb 103722	2.97534	1.21493	1.01368	4.1914	74.15	-0.2635	0.0135	0.277	1211.5049	0.143837	-439.064433	-439.054383	-439.053439	-439.099084	36.266	
C	 0.1906519759	 1.2170289645	 0.2943227007	-0.24795
O	-0.2455300284	-0.0101072339	-0.2629731455	-0.269628
C	 0.5483791522	-0.4982755858	-1.2936059351	 0.393488
C	 0.389713547	 0.2093296502	-2.6220520007	-0.460395
C	 1.875199334	-1.1153401958	-0.9141906798	-0.410255
C	 0.6872656221	-2.0166313708	-1.2551434008	 0.19407
O	 0.0234790913	-2.6728928427	-0.2248076305	-0.430666
C	 0.7211815847	-2.7471540252	-2.5061521371	 0.247166
N	 0.7595420993	-3.3553169392	-3.4896494931	-0.355052
H	 1.2273876941	 1.1536002302	 0.6533321127	 0.109641
H	 0.1178658684	 2.0478466796	-0.420290094	 0.115066
H	-0.467715125	 1.4237108313	 1.1403842271	 0.137596
H	 0.7727643961	 1.2327963754	-2.561593529	 0.124566
H	 0.9339055385	-0.3037707472	-3.4177633345	 0.14379
H	-0.6681019397	 0.2505087544	-2.8972216079	 0.141875
H	 2.7068133474	-1.0623714535	-1.6076977665	 0.135196
H	 2.1328077742	-1.1124375233	 0.1390240807	 0.134422
H	 0.5490583678	-3.4405889883	 0.0292154433	 0.29707
