19
gdb 118022	3.68404	0.81158	0.69182	5.0024	73.66	-0.2694	0.0261	0.2955	1605.0536	0.157757	-456.33161	-456.321039	-456.320095	-456.367818	36.856	
C	-0.2025054491	 1.3523895476	-0.0432023862	-0.231112
O	-0.0899826345	-0.0529684792	-0.0783671053	-0.253229
C	 0.7779593468	-0.523418303	-1.0924104122	-0.082066
C	 0.6818416346	-2.0474116184	-1.0429763105	 0.128598
O	-0.6621489334	-2.4581550465	-1.1558250667	-0.437605
C	 1.4510246262	-2.705231415	-2.2017301672	-0.144787
N	 2.8569742836	-2.293869409	-2.1825622933	-0.507313
C	 1.27966947	-4.1739890213	-2.1673614312	 0.276421
N	 1.2374528532	-5.3290110024	-2.150004886	-0.325556
H	 0.7687575177	 1.8295383266	 0.154887637	 0.113213
H	-0.5973978812	 1.7510831371	-0.9899992613	 0.112284
H	-0.8929449328	 1.6041701983	 0.7649766586	 0.133342
H	 0.448348604	-0.1597488015	-2.080140892	 0.091401
H	 1.8089480365	-0.1855345586	-0.927799702	 0.113232
H	 1.1178388952	-2.3908289169	-0.0891717745	 0.082894
H	-1.1657296903	-1.8684031695	-0.5805420391	 0.297413
H	 1.0009617056	-2.3451817806	-3.1338776621	 0.137753
H	 3.326890079	-2.716722637	-1.3862597069	 0.245332
H	 3.3298142287	-2.6454368609	-3.009323079	 0.249785
