23
gdb 100992	2.54687	1.05424	1.02457	2.3774	81.03	-0.2532	0.0579	0.3111	1346.5549	0.204628	-425.411643	-425.401513	-425.400568	-425.446491	38.532	
C	-0.1550955255	 1.7632044282	 0.0974244645	-0.486388
C	 0.0461103754	 0.2501970998	 0.0139125756	 0.327089
C	 1.2336409889	-0.2320199852	-0.8861629183	-0.262301
C	 1.7134696037	-1.1592489618	 0.2623840011	-0.210013
C	 0.7703955551	-0.403872377	 1.2361843094	-0.256885
C	-1.247815505	-0.517201285	-0.3111439415	 0.053062
O	-2.2018956765	-0.4634422938	 0.7603775566	-0.451981
C	-1.9593282263	-0.1142815583	-1.6071153681	-0.077861
O	-3.0935147364	-0.9302939395	-1.819137481	-0.424683
H	 0.7755505704	 2.2513825238	 0.4032234843	 0.118097
H	-0.4539415144	 2.1960511521	-0.8628781156	 0.123949
H	-0.9133648274	 2.0409687564	 0.8412271895	 0.101999
H	 0.9768622832	-0.7068444605	-1.8371920206	 0.099602
H	 1.9376245397	 0.5793394473	-1.0919134995	 0.097364
H	 1.4196175089	-2.2011467026	 0.1126402735	 0.107341
H	 2.7803174244	-1.1401630117	 0.4948021531	 0.09808
H	 1.3019677759	 0.338061565	 1.8392528077	 0.09134
H	 0.139715477	-1.0003320033	 1.89838897	 0.111822
H	-1.0092675875	-1.5845378017	-0.3918186829	 0.092057
H	-2.4050923345	 0.4642123389	 0.92773966	 0.281578
H	-2.2426779157	 0.9515113988	-1.5592224431	 0.074597
H	-1.2999913388	-0.2386255555	-2.4722816762	 0.108519
H	-3.5062953348	-1.0177265142	-0.9499276788	 0.283616
