19
gdb 37054	3.11145	1.74432	1.48472	1.1332	78.71	-0.221	0.017	0.238	953.4562	0.162007	-385.88426	-385.87739	-385.876446	-385.915057	28.863	
C	 0.1822225962	 1.3613843217	-0.147040519	-0.392234
C	 1.4210916097	 0.5303793673	 0.0549212647	 0.421081
C	 2.0162371059	 0.3572599908	 1.4425727643	-0.357588
C	 0.9015604105	-0.3722689498	 2.1801490952	-0.069337
C	-0.1347836597	-0.6710804978	 1.3868345048	-0.182443
C	 0.0830950233	-0.1608461156	 0.0015075001	 0.239525
C	 0.1073125069	-0.9882264104	-1.271686497	-0.324141
C	 1.3278001502	-0.3970918815	-2.0341906451	-0.098433
O	 2.1977488916	 0.1952473415	-1.0617397185	-0.307168
H	-0.1806396692	 1.9632517965	 0.679254587	 0.113379
H	 0.0170759958	 1.7939780082	-1.1285303971	 0.112556
H	 2.9331315415	-0.2432040534	 1.3898776204	 0.120685
H	 2.2830549152	 1.305598431	 1.9233586091	 0.111309
H	 0.9590280191	-0.5932047656	 3.2409917816	 0.093728
H	-1.0326109193	-1.1905322595	 1.7042164954	 0.093779
H	 0.2791458456	-2.0390054703	-1.016721591	 0.110522
H	-0.8009896308	-0.9335890037	-1.8796289023	 0.103171
H	 1.9018663405	-1.1479042365	-2.5844954607	 0.110927
H	 0.9975482871	 0.3650522671	-2.7533560121	 0.100683
