20
gdb 116723	3.63464	0.80061	0.7111	3.7382	81.82	-0.2414	0.0103	0.2517	1641.5799	0.169585	-440.264516	-440.254739	-440.253795	-440.300462	34.778	
C	-0.1686610494	 1.2745371461	-0.0286587277	-0.251077
O	-0.3060392061	-0.1399638693	-0.1168430429	-0.193774
C	 0.4029510852	-0.7345570408	-1.0921628014	 0.129516
N	 0.3221638833	-1.9770336739	-1.2807902898	-0.233663
C	 1.1023436145	-2.5570204475	-2.3493604032	-0.013178
C	 1.9499374447	-3.7660567898	-1.8518606513	-0.231408
C	 0.7783342869	-4.7161088499	-2.2163924303	-0.252301
C	 0.2080874622	-3.5883233628	-3.1222886854	 0.165309
O	-1.1674732962	-3.3524604558	-3.1698126972	-0.437363
H	 0.8768833809	 1.5671057983	 0.1252714652	 0.129681
H	-0.5561762859	 1.7704690408	-0.9264522146	 0.132032
H	-0.7574699899	 1.5861767528	 0.8345003053	 0.149505
H	 1.0402134418	-0.0553623038	-1.679217054	 0.079928
H	 1.6244815474	-1.7998519821	-2.9534420044	 0.049076
H	 2.8285207532	-3.9184192637	-2.4844951663	 0.100017
H	 2.263169954	-3.7282710295	-0.8074885736	 0.105197
H	 1.0141662829	-5.6741551035	-2.6849182301	 0.093671
H	 0.1212621263	-4.888676069	-1.3603136884	 0.110778
H	 0.5526743605	-3.698991975	-4.1550612274	 0.082726
H	-1.4054045162	-3.0176511215	-2.2945314726	 0.285327
