15
gdb 49672	2.39037	1.85732	1.63734	4.4068	67.68	-0.2562	-0.0561	0.2002	895.7844	0.113194	-453.9323	-453.924903	-453.923959	-453.964374	27.361	
N	-0.2006335727	 1.2109163778	 0.4617398422	-0.539271
C	-0.0614191757	 0.0546069126	-0.0098568379	 0.466859
O	 1.0794024066	-0.4763093602	-0.5405779303	-0.234957
C	 0.9097432407	-1.8736416322	-0.7939633348	-0.108945
C	-0.5792373252	-2.1181024764	-0.5825582905	-0.071025
C	-1.1720013768	-2.0133006076	 0.8022835311	-0.108252
C	-0.3172574656	-2.091317316	 2.02103192	 0.142568
O	 0.7782774143	-1.5981324459	 2.1381986408	-0.253092
N	-1.1546987672	-0.8635681452	-0.1426614588	-0.137605
H	 0.6903692826	 1.7056964753	 0.4491715135	 0.234361
H	 1.1937456799	-2.0817057678	-1.8293873114	 0.128165
H	 1.5556180447	-2.4399387978	-0.1171238742	 0.140436
H	-1.1274428395	-2.6862413521	-1.3279805053	 0.123171
H	-2.1738857835	-2.4113074151	 0.9397130779	 0.117562
H	-0.7770536727	-2.6769171695	 2.8458099177	 0.100024
