19
gdb 37516	3.6743	1.92515	1.72012	1.0473	84.78	-0.1988	-0.0351	0.1637	859.0276	0.162269	-348.652805	-348.646904	-348.64596	-348.682467	26.695	
C	-0.0799103801	 1.4643933649	 0.0595109339	-0.238215
C	 1.4493052655	 1.558828711	-0.0267179908	-0.042072
C	 1.5982549223	 0.2608573184	 0.8122796118	-0.089587
C	 0.1707182742	-0.0676737895	 0.0535250123	-0.047636
C	 0.6774498462	-0.3096648041	-1.4216073769	 0.007426
C	 1.3929216785	-1.669429297	-1.7443579254	-0.272831
C	 2.4176866034	-1.6714265814	-0.6083217493	-0.123662
C	 2.5200135568	-0.3922221516	-0.204308792	 0.074598
C	 1.8952252318	 0.6170350174	-1.2070949221	-0.075515
H	-0.4563718897	 1.8195921448	 1.0235158454	 0.09587
H	-0.6891523974	 1.8828668896	-0.7484138139	 0.091248
H	 2.0203636206	 2.4679103675	 0.156239039	 0.06393
H	 1.6099869938	 0.2015959796	 1.8998249955	 0.071519
H	-0.5478045705	-0.7695467782	 0.4794748587	 0.060831
H	-0.0820627612	-0.0186516953	-2.156915423	 0.05581
H	 0.7509107997	-2.5541622335	-1.6633860042	 0.103493
H	 1.7794209832	-1.6515627898	-2.7735399158	 0.107229
H	 2.5240498486	-2.5282903304	 0.050414842	 0.094165
H	 2.4456324744	 0.9879290077	-2.0711161552	 0.0634
