16
gdb 112249	2.01737	1.52678	0.95494	1.6214	67.02	-0.2667	-0.0441	0.2225	1192.744	0.122671	-475.018011	-475.009184	-475.00824	-475.052374	31.237	
O	-0.0250028114	 1.3084655774	-0.1590641994	-0.417142
C	 0.0523123149	-0.0980231417	-0.0249332348	-0.077938
C	-1.324069598	-0.6614616186	 0.2751878582	 0.094539
O	-2.2213314439	-0.4287328461	-0.8808695733	-0.278009
C	-2.4610694824	-1.774567022	-1.032525815	 0.434018
N	-3.1298425678	-2.4141689487	-1.8752222305	-0.537838
C	-1.6161996319	-2.1762703275	 0.1665539212	-0.270442
C	-0.5192712815	-3.1858653329	-0.0875881348	 0.141604
O	 0.6457733386	-3.009325908	 0.1562129664	-0.23448
H	-0.6127686718	 1.4905293683	-0.9010844314	 0.2941
H	 0.4700256606	-0.5747400483	-0.9214090536	 0.105302
H	 0.7291753795	-0.3103757736	 0.80621875	 0.135776
H	-1.7474852574	-0.1744045877	 1.1570285304	 0.111372
H	-3.5664883236	-1.7988597048	-2.5631818864	 0.236403
H	-2.2414779376	-2.5665067759	 0.9780913989	 0.143544
H	-0.8907652363	-4.13808771	-0.5210943461	 0.11919
