19
gdb 63923	2.96963	1.58163	1.54693	0.7639	73.1	-0.2294	0.0788	0.3083	962.5087	0.159376	-422.991958	-422.984333	-422.983389	-423.023483	31.349	
C	-0.1281813278	 1.5755316392	 0.0002377092	-0.442781
C	 0.012484733	 0.0519844505	-0.0272819403	 0.401136
O	-1.2753474616	-0.5674080878	 0.0187215178	-0.486394
C	 0.8529615559	-0.4611674131	-1.2444720361	-0.279206
C	 2.1653201345	-0.9120726675	-0.6179245629	 0.088819
O	 2.7815072866	 0.2591234065	 0.02406199	-0.311653
C	 2.2627587676	-0.1922262764	 1.2764611956	 0.088712
C	 1.8130321344	-1.5199465713	 0.7612326978	-0.171903
C	 0.7796258232	-0.4944480639	 1.1791019616	-0.097291
H	 0.8568366058	 2.0471776196	-0.0318447147	 0.139706
H	-0.7013459341	 1.9282372564	-0.8669069812	 0.098166
H	-0.6515845079	 1.894849487	 0.9065621328	 0.116465
H	-1.8173470829	-0.1643802369	-0.6681222548	 0.271429
H	 0.3340061632	-1.3144762752	-1.6938238077	 0.104041
H	 1.0112507176	 0.3039169036	-2.0104303663	 0.101438
H	 2.8745965531	-1.4255972262	-1.2682636379	 0.082108
H	 2.7746833287	 0.1191956701	 2.1793436222	 0.104362
H	 1.9297540817	-2.5340930859	 1.1150859965	 0.098627
H	 0.2368267489	-0.6268998388	 2.1079071682	 0.094218
