25
gdb 96197	1.92734	1.48805	0.91371	0.2266	95.24	-0.2225	0.0299	0.2524	1395.8617	0.230142	-352.386055	-352.376433	-352.375489	-352.419973	37.739	
C	-0.0047507672	 1.5949436579	-0.0302871722	-0.397572
C	-0.0217869737	 0.0593413317	-0.0297124903	 0.048176
C	 0.7141664382	-0.4683928446	-1.2746016628	-0.169492
C	 0.6669342745	-1.9820042824	-1.5232017844	-0.193529
C	 1.3541841251	-2.8399670383	-0.4437297059	-0.248678
C	 0.5877765653	-2.9445444615	 0.8530458079	-0.148114
C	 0.227385883	-1.9185443116	 1.6281187877	 0.333245
C	-0.5544482247	-2.1280896928	 2.8987828553	-0.478033
C	 0.5710974578	-0.478108746	 1.2946015536	-0.29829
H	 1.0204190345	 1.9762659998	 0.0525156595	 0.111168
H	-0.4330597008	 1.9968745576	-0.9545996643	 0.10804
H	-0.5775874344	 2.0011260791	 0.8099458204	 0.107469
H	-1.0692060943	-0.2694583129	-0.0849660926	 0.069151
H	 0.3030507434	 0.0384107272	-2.157270428	 0.086229
H	 1.7668642554	-0.1528623374	-1.2122414623	 0.085795
H	-0.3754097358	-2.3086070714	-1.6286571568	 0.09264
H	 1.1525668706	-2.1796700389	-2.487218025	 0.086585
H	 1.5118622549	-3.847361352	-0.8427925288	 0.092345
H	 2.3598595421	-2.4312748918	-0.2600331998	 0.099084
H	 0.3009893174	-3.9472922813	 1.1642441319	 0.071205
H	-0.7718494863	-3.1850035808	 3.075439566	 0.115601
H	-0.0064743054	-1.7422902807	 3.76889155	 0.119621
H	-1.5080186448	-1.5836146399	 2.8716580023	 0.118761
H	 1.6638549778	-0.3528429926	 1.2585883271	 0.10114
H	 0.2266646474	 0.1632533334	 2.1137563716	 0.087453
