16
gdb 60523	2.45926	1.28653	1.0081	1.2928	66.19	-0.2498	-0.1157	0.1342	1184.5752	0.122391	-475.00065	-474.991706	-474.990762	-475.035094	31.627	
O	-0.3723682823	 1.3208403298	-0.2340346489	-0.433779
C	-0.1332246066	-0.0462842928	-0.0260266973	-0.007711
C	 0.6960471012	-0.6463374421	-1.1668587402	-0.02297
C	 0.5862482451	-0.0658150883	-2.5232466618	-0.238234
N	 1.8122493753	 0.1275033033	-1.7211282663	-0.316883
C	 0.5855427463	-0.230816603	 1.3031897255	 0.281308
O	 0.9513188781	 0.7196673796	 1.9601417365	-0.300193
C	 0.824153069	-1.6397694812	 1.8488267958	 0.096758
O	 0.3978291539	-2.6326824536	 1.3216681158	-0.210747
H	 0.0120487954	 1.7825983142	 0.5276405244	 0.300639
H	-1.0827015106	-0.6022138632	 0.0323364643	 0.120418
H	 0.8838918255	-1.7099941829	-1.0565386891	 0.119672
H	 0.7013399548	-0.7083027318	-3.391014572	 0.121383
H	-0.0746287412	 0.7849855847	-2.6508430284	 0.134172
H	 1.7726869143	 1.0663021271	-1.3259323286	 0.232064
H	 1.4057863219	-1.6442161397	 2.7931633703	 0.124103
