17
gdb 94263	1.93084	1.59403	1.32212	3.2538	69.28	-0.2478	-0.0609	0.1869	1075.9549	0.131847	-458.954219	-458.944649	-458.943704	-458.990114	32.706	
C	-0.1555934713	 1.485545599	 0.2213976432	-0.419809
C	 0.1185501109	 0.0007726059	 0.0411886411	-0.078409
C	 1.1957393635	-0.4199044123	-0.9861912541	-0.085493
O	 1.9990376414	-1.070036301	 0.0323757746	-0.323933
C	 1.0528940699	-0.7266074766	 1.0600130207	 0.224627
C	 1.6955718606	 0.1530866876	 2.131048671	 0.091222
O	 1.1079803705	 0.6028992454	 3.0769316747	-0.229348
C	 0.4608893847	-1.9842335271	 1.6874041882	 0.107283
O	-0.6679033109	-2.0665652015	 2.0875738232	-0.230394
H	 0.7694106492	 2.0691322307	 0.2769529455	 0.121439
H	-0.7406503587	 1.8643949803	-0.6227141945	 0.123891
H	-0.7222990188	 1.6675215511	 1.1385787428	 0.153563
H	-0.8220988438	-0.543528411	-0.0636308054	 0.111925
H	 0.8781551165	-1.1265460144	-1.7602107876	 0.116959
H	 1.7397793898	 0.4098772505	-1.4521322635	 0.112661
H	 2.7736140529	 0.3462332517	 1.9322737292	 0.10075
H	 1.1769651835	-2.8340163884	 1.7176136608	 0.103067
