16
gdb 35819	3.10069	1.47955	1.1661	4.2691	68.16	-0.2724	0.0246	0.297	1032.3482	0.126222	-437.879383	-437.872092	-437.871148	-437.911521	27.322	
N	-0.1070813307	-1.1505456283	-0.1357364231	-0.318155
C	-0.0488175885	 0.0005773795	-0.0558597176	 0.281687
C	-0.0059585387	 1.4512836072	 0.0492027594	-0.18848
C	-0.4994609967	 2.0047790769	 1.4115765488	-0.109487
O	 0.0466851044	 3.314226322	 1.4801924154	-0.254587
C	 1.3337057788	 3.2888800677	 0.9013782375	 0.055438
C	 2.4376985506	 2.5586531282	 1.6978147353	-0.105646
O	 2.3640247283	 1.4115031006	 0.8155161115	-0.281386
C	 1.4085968394	 2.058362275	-0.038406701	 0.082149
H	-0.612073338	 1.8844779211	-0.7549324672	 0.134629
H	-1.5854105661	 2.0847452791	 1.4791009844	 0.135334
H	-0.1359209033	 1.3667125866	 2.2274485047	 0.128776
H	 1.5614199253	 4.2862758558	 0.5263362807	 0.105025
H	 3.425404631	 3.0319975875	 1.6617814125	 0.114636
H	 2.1834831894	 2.3108043102	 2.7339011533	 0.120855
H	 1.7709292947	 2.169330531	-1.0636602246	 0.099211
