22
gdb 88426	2.86047	1.12448	1.01631	2.5729	83.62	-0.2214	0.0688	0.2901	1318.0644	0.193194	-404.313964	-404.304291	-404.303346	-404.348132	37.313	
C	-0.4419451853	 1.4845973361	 0.0743688296	-0.410884
C	 0.0572255052	 0.0604758448	 0.0192771907	 0.017442
N	 1.4982019941	-0.1687856445	-0.2136958335	-0.365117
C	 0.896073688	-0.5896342634	 1.0672241604	-0.123722
C	 1.4536784726	 0.1212010092	 2.272342547	 0.441229
O	 2.0796928471	 1.3351865099	 1.9589322928	-0.474129
C	 0.7366230214	 0.1026108486	 3.590499866	-0.345031
C	 2.0448182736	-0.6548902691	 3.4362011043	-0.052804
C	 2.0909308476	-2.1636438363	 3.5300124835	-0.415672
H	-0.5395436936	 1.8958285719	-0.9363208168	 0.113483
H	-1.4301103066	 1.5175214328	 0.5460244745	 0.115408
H	 0.2359377729	 2.1150452066	 0.6502944772	 0.149398
H	-0.611201501	-0.6231008564	-0.5047042509	 0.082126
H	 1.6619281764	-0.9579048589	-0.8307024598	 0.234909
H	 0.7290863876	-1.6539868939	 1.2100511145	 0.082399
H	 2.442982569	 1.2009938873	 1.0688736291	 0.287017
H	 0.7364350993	 1.0265602365	 4.1580151849	 0.120448
H	-0.1779568166	-0.4785905632	 3.6668426753	 0.104367
H	 2.9063819659	-0.1475505119	 3.8616694676	 0.093089
H	 1.1753756772	-2.6273776469	 3.1484808227	 0.111762
H	 2.9357318061	-2.5804047207	 2.9696266765	 0.115753
H	 2.1960860989	-2.4820121283	 4.5734217243	 0.118531
