19
gdb 91831	3.46152	1.18582	1.07472	5.0937	80.24	-0.2308	0.0298	0.2607	1185.3994	0.160789	-382.076937	-382.06853	-382.067586	-382.109945	32.329	
C	 0.6361100862	 1.455760274	 0.0425419115	-0.409916
C	-0.0461794289	 0.0913173292	-0.1088914746	 0.049301
C	 0.4844921759	-0.7405797284	-1.3105057164	-0.246271
C	 1.2876713929	-1.8836545537	-0.7103019513	-0.069265
C	 2.4157730128	-1.5852893424	 0.239849276	-0.328127
C	 1.0128714233	-1.8755940817	 0.7786414166	 0.198104
N	 0.1190322619	-0.785517038	 1.0742894252	-0.367323
C	 0.7946043502	-3.0940258841	 1.5173105354	 0.240604
N	 0.6444095635	-4.0693524963	 2.1209985814	-0.350994
H	 1.724864907	 1.3689484177	 0.1170775817	 0.120445
H	 0.4081609786	 2.0924314162	-0.8188779837	 0.123438
H	 0.2745445418	 1.9736069577	 0.9379041146	 0.1206
H	-1.1183281321	 0.2796209974	-0.2459548027	 0.089733
H	-0.3466798008	-1.1531067363	-1.8892068552	 0.118639
H	 1.079437571	-0.1235898436	-1.9918099908	 0.11096
H	 1.3181451643	-2.8271108774	-1.2417311384	 0.115989
H	 3.1685435577	-2.355461406	 0.3680525358	 0.135544
H	 2.7792087734	-0.5694814158	 0.3442895212	 0.122929
H	 0.3974199312	-0.2675748183	 1.8996741036	 0.225609
