19
gdb 106009	3.24111	1.68932	1.46004	0.8936	77.74	-0.217	0.0877	0.3047	964.2617	0.160029	-385.803444	-385.796257	-385.795313	-385.834898	29.342	
C	 0.1020322154	 1.3465336306	 0.0210983902	-0.264747
O	 0.0228894434	-0.0664415275	-0.014070922	-0.297409
C	-1.2460406711	-0.5774300065	 0.001051685	 0.467292
C	-1.5171965841	-2.1025881298	-0.0325139794	-0.188238
C	-2.7995330867	-1.7702011738	-0.761517913	-0.061826
C	-2.7652041798	-1.809955869	 0.7694612331	-0.061827
C	-2.3965983476	-0.3384118187	 1.0815356372	-0.139586
C	-3.1821602389	 0.5348162285	 0.0732183513	-0.249581
C	-2.4434640667	-0.2840587552	-1.0130991421	-0.139574
H	 1.1627370056	 1.6049218222	 0.0041722707	 0.129514
H	-0.3909110792	 1.8008300799	-0.8495023149	 0.117005
H	-0.351065789	 1.7541662288	 0.9353522109	 0.117008
H	-0.8680016002	-2.9661683286	-0.0695010209	 0.090174
H	-3.4265147775	-2.4221678733	-1.3549863269	 0.084586
H	-3.3657171724	-2.4925617226	 1.3558090437	 0.084587
H	-2.221698275	-0.05289446	 2.1181989695	 0.064274
H	-4.2748255484	 0.4818422847	 0.0962922971	 0.091939
H	-2.8639150174	 1.5815782801	 0.0932446448	 0.092132
H	-2.3147413403	 0.0550079702	-2.0403503045	 0.064276
