16
gdb 67358	3.00281	1.96444	1.38493	2.0035	69.77	-0.2595	0.0129	0.2724	908.2297	0.126087	-437.854428	-437.847744	-437.846799	-437.885163	27.521	
O	 0.0504254323	 1.3998144898	-0.0140650304	-0.49172
C	 0.0053320213	 0.0292240615	-0.0046303434	 0.349683
C	 0.1010641424	-0.8333681866	 1.3174781272	-0.130073
C	-1.3944837522	-0.5395688999	 1.5942712535	-0.276525
C	-1.3428173822	-0.7946270048	 0.0672276885	-0.130106
C	-0.3291009224	-1.9387118627	 0.3205218725	 0.100525
O	 0.6182222139	-2.0089510791	-0.7757114344	-0.25477
C	 0.8554936231	-0.6887248167	-1.0088230341	 0.375997
N	 1.604304155	-0.1323709767	-1.8565551531	-0.592081
H	 0.6688067001	 1.6394650265	-0.7216595544	 0.302369
H	 0.9362286716	-0.8655086329	 2.017131721	 0.089961
H	-1.93731506	-1.2718149744	 2.1984810129	 0.097419
H	-1.6306596138	 0.4800626702	 1.8986243284	 0.129394
H	-2.1550111258	-0.7825479748	-0.6595754882	 0.089958
H	-0.6285314934	-2.9335818268	 0.6355105291	 0.106863
H	 2.0982800201	-0.8002676526	-2.4479042852	 0.233104
