23
gdb 103647	3.16109	0.99554	0.98998	1.2958	87.61	-0.234	0.029	0.263	1377.207	0.204905	-388.306209	-388.296234	-388.29529	-388.340809	37.957	
C	 0.047172341	 1.6117233	 0.0003533771	-0.39583
C	 0.0435119252	 0.0786879854	 0.0303166372	-0.010241
C	 0.77154525	-0.5739362593	-1.1765716095	-0.287549
C	 1.5096727795	-1.8306766799	-0.6296880307	 0.26665
C	 0.7148448467	-3.1264228191	-0.8921103516	-0.424661
C	 2.9106008696	-1.9492100298	-1.2425152084	-0.111879
O	 3.5654349239	-3.0734188488	-0.670047814	-0.426373
C	 1.5683632457	-1.5329873101	 0.8588022958	-0.096062
C	 0.7757419236	-0.5241233307	 1.2100579177	-0.084548
H	 1.0722294892	 1.9989366225	-0.0054033717	 0.113056
H	-0.4616739816	 1.9901523877	-0.8928059681	 0.111262
H	-0.4635017111	 2.0278415428	 0.8755330167	 0.110171
H	-1.0071742529	-0.2489545259	 0.0558248858	 0.076735
H	 0.0910985483	-0.8183465903	-1.9975453405	 0.092187
H	 1.5058731046	 0.140045588	-1.5714334835	 0.089294
H	 0.6394259607	-3.323181559	-1.9682021754	 0.103055
H	 1.2058684361	-3.9846538976	-0.4274960391	 0.130788
H	-0.2989505849	-3.0474057804	-0.4879499499	 0.109263
H	 2.8236574048	-2.0567343436	-2.3370010577	 0.080328
H	 3.4711847724	-1.0229042903	-1.0415533476	 0.082092
H	 4.4469182376	-3.1350189115	-1.0482018631	 0.287518
H	 2.1734791456	-2.1329864904	 1.5287723569	 0.099694
H	 0.628441696	-0.1656785898	 2.2244167236	 0.085049
