19
gdb 95320	2.66052	1.75051	1.52104	2.4669	68.87	-0.245	0.0724	0.3174	951.4726	0.16259	-460.178659	-460.171474	-460.17053	-460.209962	29.32	
O	 0.0433731699	 1.4157757122	-0.1572396694	-0.445377
C	 0.0942992516	 0.0053202755	-0.0076343918	 0.119844
C	 0.8411207485	-0.4385578703	 1.265890167	-0.238711
C	-0.0320085629	-0.2673165004	 2.5280979954	-0.229073
C	-1.4694246354	-0.7217704401	 2.2499849452	 0.063417
C	-1.5618552563	-2.140762506	 1.6640273009	-0.09456
O	-1.3691868059	-1.9387956526	 0.2600118565	-0.272127
C	-1.3447946363	-0.538408957	 0.0395528075	 0.161017
O	-1.9936972378	 0.0524037862	 1.1541552572	-0.272319
H	-0.643462509	 1.7262335998	 0.4460908678	 0.284776
H	 0.6077979067	-0.3798160704	-0.8941259659	 0.088478
H	 1.1243080929	-1.4901890391	 1.1507067701	 0.111153
H	 1.7662133495	 0.1379821312	 1.3521857578	 0.108447
H	 0.3896446692	-0.8270713619	 3.3704154939	 0.101593
H	-0.0647832447	 0.7855043269	 2.8305897524	 0.108539
H	-2.1262931533	-0.5687792524	 3.10856942	 0.089647
H	-0.7919114125	-2.8159587062	 2.0516422456	 0.110117
H	-2.5483787679	-2.5860923127	 1.8377893973	 0.109918
H	-1.9100357463	-0.2903884827	-0.8632885374	 0.095221
