15
gdb 51421	4.27236	1.05195	0.99548	1.9391	66.61	-0.2551	-0.0167	0.2384	1176.2844	0.112123	-457.725354	-457.718069	-457.717125	-457.758085	27.092	
O	-0.1581100661	-0.0341130253	-0.0424211484	-0.267894
C	-0.0929647334	 1.1563570135	-0.0522596645	 0.167391
O	 1.0626544533	 1.8230894192	 0.1639342788	-0.191284
C	 1.0420554337	 3.231320357	 0.1326007597	 0.149416
C	 1.7587739193	 4.0439780096	 1.2568789008	-0.038635
C	 3.1768574186	 3.4517618346	 1.2312545742	-0.064333
C	 3.4360537521	 3.4263972743	-0.076766915	-0.064324
C	 2.1392133282	 4.0067037324	-0.6631050274	-0.038612
O	 1.8561779155	 5.1109675009	 0.2573985289	-0.278276
H	-0.9512440781	 1.8310501111	-0.2351263303	 0.084682
H	 0.0377960716	 3.6123686915	-0.0737968128	 0.109791
H	 1.2872068003	 4.3340888713	 2.1938192583	 0.093214
H	 3.7646727201	 3.136409042	 2.0793965857	 0.122826
H	 4.3004424952	 3.0839602884	-0.6243883491	 0.122828
H	 2.0625406096	 4.2580839794	-1.7191940787	 0.093211
