16
gdb 42480	4.31234	0.75259	0.66588	2.2787	74.85	-0.2605	-0.0281	0.2324	1616.3508	0.122369	-437.849325	-437.84006	-437.839116	-437.885077	32.42	
O	-0.0234799307	 0.0812832093	 0.7593997701	-0.359267
C	 0.0275643304	 1.1202164467	 0.1259502476	 0.289363
N	 1.1557929825	 1.5976033863	-0.4762362185	-0.319442
C	 2.4362271674	 0.9192305166	-0.3925064128	-0.196157
C	 3.482860596	 1.8039102078	 0.2399104988	 0.088539
C	 4.8671285823	 1.8264751004	-0.243298294	-0.176029
O	 3.9591219182	 2.8765251878	-0.5824723257	-0.240871
C	-1.1344584151	 1.9799568894	-0.0636122323	 0.216518
C	-2.1105821263	 2.6678936197	-0.2017901869	-0.399832
H	 1.1102363802	 2.4801362715	-0.9612905362	 0.266738
H	 2.2747443912	 0.0181821207	 0.2044678981	 0.156363
H	 2.7712839087	 0.6186801788	-1.3927706081	 0.113811
H	 3.2867496504	 2.0912856717	 1.2734001612	 0.106952
H	 5.6703161796	 2.1025370248	 0.4374773943	 0.123278
H	 5.1595397583	 1.1772416297	-1.0675903974	 0.118842
H	-2.9809424132	 3.266986519	-0.3164528681	 0.211192
