19
gdb 38876	2.72792	2.1297	1.9099	2.1207	71.45	-0.2511	0.0841	0.3353	841.3244	0.164899	-423.039306	-423.033514	-423.03257	-423.069056	25.922	
C	-0.0486103558	 1.53440793	-0.0176997735	-0.214086
C	 1.4847600576	 1.7804878401	-0.0252009044	-0.085476
C	 1.9224909981	 1.7990578677	-1.5043409266	-0.200249
C	 1.2598056603	 0.5731920479	-2.1996992868	-0.223204
C	 1.058669786	-0.4731392383	-1.096290906	 0.065896
O	 2.3053715318	-0.4856817539	-0.3677345579	-0.259018
C	 1.9865542442	 0.4354586747	 0.6578398199	 0.187544
O	 0.8223899406	-0.138815394	 1.225538189	-0.249225
C	 0.035193796	 0.0039228004	 0.0307854063	 0.039812
H	-0.5444475153	 1.8956032448	 0.8850618508	 0.106628
H	-0.5500986166	 1.9569598104	-0.8906763244	 0.097141
H	 1.8059942578	 2.667060664	 0.5229077256	 0.070063
H	 1.6172934048	 2.7364945825	-1.9791189372	 0.094602
H	 3.0102927307	 1.7319551207	-1.5839609081	 0.109787
H	 0.3115873511	 0.8322374152	-2.6822836357	 0.098438
H	 1.9123150527	 0.1666344912	-2.9770123249	 0.106712
H	 0.8510751806	-1.4791304065	-1.4643711325	 0.081391
H	 2.7990490143	 0.4985075177	 1.3797464396	 0.091354
H	-0.8880948689	-0.5681636046	 0.1071485767	 0.081891
