17
gdb 29995	3.22476	1.62863	1.14777	3.8226	80.33	-0.1919	0.0007	0.1926	1047.6617	0.139242	-380.91275	-380.905548	-380.904604	-380.944238	28.525	
C	-0.098747416	 1.5942863598	-0.0071418513	-0.38932
C	-0.0032724697	 0.0586762894	 0.0258768615	-0.194096
C	 0.8290602827	-0.5224849187	-1.1249208233	-0.088946
C	 1.8546562209	-1.2759817295	-0.6799507265	-0.199043
C	 1.8123385623	-1.2789938786	 0.7821090707	 0.26649
C	 0.7492374526	-0.5145270123	 1.1872284849	 0.307682
N	 0.7687657721	-0.5574408969	 2.5557184756	-0.387597
C	 1.8467024849	-1.3481025769	 2.8981020997	-0.020353
N	 2.5003761549	-1.8024779371	 1.8478705717	-0.346318
H	 0.8979161386	 2.0423583666	 0.0316445205	 0.132165
H	-0.5915952552	 1.9307960594	-0.9244200643	 0.120223
H	-0.6792169339	 1.9718017169	 0.8413560369	 0.108121
H	-1.0211712511	-0.3555145333	-0.0289946028	 0.101973
H	 0.5841575974	-0.3151477446	-2.1587400686	 0.09468
H	 2.5834612482	-1.7921238022	-1.2907789126	 0.104367
H	 0.139940509	-0.1094299094	 3.2005863862	 0.264514
H	 2.0927108324	-1.5480403227	 3.930413952	 0.12546
