19
gdb 14837	2.82854	1.59959	1.13219	4.0662	75.58	-0.3005	0.0289	0.3295	1090.6957	0.16592	-327.941469	-327.933009	-327.932064	-327.974661	30.903	
C	 0.131544382	 1.4909890008	 0.2061274788	-0.390308
C	 0.217999874	-0.0353038795	 0.1124347347	-0.183007
C	 0.5998625664	-0.5155764408	-1.2869511462	 0.011243
C	 2.1055250591	-0.3441979784	-1.6541225186	-0.229948
C	 2.3417848656	-1.8483301501	-1.3601162456	-0.225646
C	 0.7987827621	-2.0702980857	-1.4355272995	-0.154506
C	 0.1791486103	-2.9535162017	-0.4627052141	 0.273952
N	-0.3077901357	-3.6453338489	 0.3263101665	-0.339311
H	 1.084516771	 1.9662259735	-0.0501958093	 0.117957
H	-0.6289778168	 1.885141692	-0.476931605	 0.11728
H	-0.1339739991	 1.807125533	 1.2190976771	 0.120286
H	 0.9443211474	-0.4111736381	 0.8446409814	 0.104143
H	-0.745786351	-0.4772797529	 0.3916288886	 0.118421
H	-0.1039976199	-0.1028803709	-2.0159582018	 0.078744
H	 2.2543980978	-0.0969511156	-2.7082194666	 0.108003
H	 2.6731464597	 0.3667624536	-1.0497063662	 0.108789
H	 2.9440708108	-2.4200216743	-2.0679261552	 0.11498
H	 2.7234803582	-2.0244828829	-0.3527557882	 0.127061
H	 0.504555368	-2.3960586632	-2.4373176011	 0.121869
