14
gdb 125266	7.21628	0.82835	0.75396	4.781	67.28	-0.2703	-0.029	0.2413	1423.8654	0.099457	-473.843072	-473.834819	-473.833875	-473.876925	28.445	
C	-0.005475763	 1.4773637304	 0.1044631986	-0.489808
C	-0.0648731651	-0.0019589519	-0.0263729739	 0.465418
C	-1.074459897	-0.8823980755	-0.2626376513	-0.466123
C	-0.4101617179	-2.1354722108	-0.2578047875	 0.503966
O	-1.0214948984	-3.3279087742	-0.4743115606	-0.227369
C	-0.488994726	-4.454150909	 0.1159098536	 0.165102
O	-0.9213126831	-5.5320002958	-0.1324521799	-0.24613
N	 0.8799351066	-2.0355890538	-0.0503594632	-0.231704
O	 1.0989885349	-0.6690063674	 0.1094935907	-0.212133
H	 0.6539276172	 1.9087977561	-0.6553984188	 0.158853
H	-1.0019573834	 1.9060570275	-0.013585706	 0.148151
H	 0.3868324268	 1.7658227827	 1.084812697	 0.157813
H	-2.1218623587	-0.687590226	-0.4139651067	 0.137261
H	 0.3269879169	-4.2132148225	 0.8120688581	 0.136702
