18
gdb 65364	3.23796	0.95415	0.92445	1.6244	78.6	-0.2453	0.024	0.2694	1337.0799	0.148543	-398.092068	-398.083162	-398.082218	-398.126102	33.106	
N	-0.083801651	 1.4619332675	-0.2788516827	-0.555716
C	-0.017291072	 0.0499102963	-0.0000421145	 0.138683
C	-0.1834820475	-0.3639868179	 1.4527841338	-0.318708
C	-1.2987968382	-0.6366113928	 0.4837561056	-0.050671
C	-2.5862176444	 0.1186792996	 0.5418292273	 0.010506
C	-3.7233097661	-0.2929621617	-0.3206764983	-0.248859
N	-3.7748070187	-0.5215099663	 1.1342498598	-0.321329
C	 0.8729487859	-0.7441278717	-0.8227937949	 0.233826
N	 1.5877656538	-1.3452922611	-1.5069487358	-0.345907
H	 0.8253789261	 1.8939502233	-0.1443122535	 0.246744
H	-0.3566040751	 1.6256133094	-1.2433609527	 0.246976
H	 0.4092553778	-1.1937992578	 1.8179810257	 0.137695
H	-0.3130426748	 0.4606142234	 2.1446719353	 0.139996
H	-1.3997805649	-1.6692709654	 0.1590950832	 0.106334
H	-2.4824247439	 1.1680435665	 0.7977853572	 0.11238
H	-4.4227809359	 0.4500821574	-0.692854429	 0.123559
H	-3.5782971896	-1.1459022409	-0.9795734583	 0.114229
H	-3.5772996215	-1.4993512177	 1.3365244619	 0.230262
