15
gdb 26801	3.76498	1.08713	0.84658	0.9275	83.31	-0.177	0.0045	0.1815	1282.9299	0.112	-416.804316	-416.79516	-416.794216	-416.837966	33.707	
N	 0.187675123	 1.4058006151	-0.0931948248	-0.622902
C	 0.0146528103	 0.0104412401	-0.046121672	 0.198004
C	-1.1203219016	-0.7828471031	-0.0564662659	 0.298637
O	-2.3825575653	-0.2528214853	-0.0538677154	-0.462372
C	-0.716197144	-2.1359630014	-0.0556153627	-0.415104
C	 0.6756100499	-2.150360943	-0.0354342471	 0.200525
N	 1.0933968585	-0.8358718508	-0.0330969327	-0.350694
C	 1.5824065205	-3.2234722814	-0.0145487906	 0.259779
C	 2.372049127	-4.135738951	 0.000037933	-0.455675
H	 0.2780753207	 1.8144737187	 0.833923524	 0.24584
H	-0.6209737136	 1.8361595901	-0.5287591205	 0.254332
H	-3.0109875595	-0.9574611199	-0.2338490369	 0.2982
H	-1.34818861	-3.0107987358	-0.0480575898	 0.099028
H	 2.0501823553	-0.531800795	-0.0895506143	 0.26676
H	 3.0590546489	-4.9445393775	 0.0145137856	 0.185641
