15
gdb 71537	2.61107	1.56008	1.45589	3.8134	71.49	-0.2453	-0.0085	0.2368	962.5218	0.112764	-416.72025	-416.712861	-416.711916	-416.75196	28.848	
N	 0.216279266	 1.3919805919	-0.1183886525	-0.618056
C	 0.1165242353	-0.006809838	-0.141965377	 0.278128
C	 0.618265954	-0.980429523	-1.2223987425	-0.309576
C	 0.0693810516	-1.9353501339	-0.140268946	-0.126296
C	 0.4935108258	-0.9818555668	 1.0191226446	 0.024383
O	-0.8209396527	-0.9685624511	 1.6550733212	-0.348333
C	-1.1187673649	-0.9990850913	 0.2325341366	 0.337742
C	-2.470120652	-0.9923531885	-0.2395996539	 0.149402
N	-3.5429344111	-0.9484640213	-0.6718559099	-0.344946
H	-0.1899808055	 1.7786826362	 0.7282844608	 0.252991
H	-0.2271899416	 1.825354325	-0.9212365528	 0.248597
H	 0.0874946366	-0.9708822362	-2.1777609837	 0.118874
H	 1.6994143255	-0.9991279235	-1.3802685632	 0.116501
H	 0.0433915848	-3.0217468179	-0.1102407316	 0.108736
H	 1.3782689983	-1.0030821415	 1.6522563397	 0.111853
