17
gdb 105018	2.63784	1.30911	1.03083	4.2787	67.78	-0.2573	0.0192	0.2765	1162.2317	0.135365	-455.114265	-455.104941	-455.103997	-455.14894	33.738	
N	 0.0382296162	 0.5699926964	 0.8104106396	-0.507513
C	 0.5267481961	-0.6863148527	 0.2356620767	-0.19739
C	-0.3248670118	-1.7914883192	 0.7037341496	 0.31496
N	-0.9893329596	-2.6709518659	 1.049144332	-0.328895
C	 0.6468369587	-0.6756140645	-1.3042665487	 0.341254
C	 1.8410917011	 0.0850466384	-1.8521463236	-0.145393
O	 1.8163368561	 1.4616349034	-1.497302564	-0.407519
C	-0.0162612783	-1.6708875997	-2.1596398811	-0.220943
O	-0.5830429361	-0.3661506198	-1.9756337408	-0.277947
H	 0.6689596594	 1.3078933699	 0.5081841983	 0.24648
H	-0.8701780697	 0.7751308798	 0.4010944668	 0.245969
H	 1.5289840286	-0.867891426	 0.6447276075	 0.135366
H	 2.7709686876	-0.3192926848	-1.4382991985	 0.123749
H	 1.8731672603	-0.0409974977	-2.9425857113	 0.106902
H	 1.0482756728	 1.8478960647	-1.9342736812	 0.297658
H	 0.3819412447	-1.8674912879	-3.1541661027	 0.118955
H	-0.5739246562	-2.4853342546	-1.7053331986	 0.154307
