19
gdb 60984	2.05622	1.33306	0.92536	3.0534	82.26	-0.243	-0.0193	0.2237	1303.6255	0.155816	-385.854791	-385.844822	-385.843878	-385.890719	35.831	
C	 0.0736802203	 1.3824270983	-0.2500648881	-0.407231
C	 0.0709654534	-0.1134190612	 0.1281080857	-0.090105
C	 0.7289032857	-0.2593693005	 1.4918604638	 0.171196
O	 1.8806221107	-0.5535220465	 1.672821058	-0.248557
C	-1.3396735953	-0.6699832647	 0.1505474288	-0.00346
C	-2.0065226678	-1.1316553428	-1.1119692302	-0.308007
C	-1.6168757187	-2.1572167953	-0.056495345	-0.203582
C	-0.549520314	-3.081302338	-0.3058275087	 0.323898
C	 0.3439317196	-3.8621365538	-0.5042487818	-0.455133
H	 1.0959520646	 1.7656321642	-0.3097332945	 0.134845
H	-0.4116084199	 1.527861478	-1.2194427795	 0.127983
H	-0.4714427722	 1.9799111689	 0.4897236697	 0.119745
H	 0.6864990832	-0.6706579158	-0.5841269853	 0.109432
H	 0.0536082936	-0.0285490539	 2.3519896016	 0.065637
H	-1.990510056	-0.1952948533	 0.8819743975	 0.09441
H	-3.0628615462	-0.9324994902	-1.252693539	 0.121976
H	-1.4187262544	-1.1281385168	-2.0231834806	 0.130648
H	-2.4354208519	-2.5628844668	 0.5310495768	 0.116025
H	 1.1364192954	-4.54795706	-0.6742192392	 0.200279
