23
gdb 119085	2.30071	1.08577	0.86729	1.1614	82.05	-0.2475	0.0737	0.3213	1473.7927	0.203777	-425.396868	-425.386409	-425.385465	-425.43308	37.497	
C	 0.0133940284	 1.5241392193	 0.0050844875	-0.381063
C	 0.09958989	-0.0037037753	-0.0474821251	-0.17505
C	 0.6572851114	-0.605988967	 1.2466324146	-0.213543
C	 0.7407802561	-2.1311076	 1.2444751264	 0.356737
C	 1.8980124565	-2.6973255021	 0.3689736969	-0.136821
O	 2.6899990511	-2.9618418795	 1.5432902408	-0.272886
C	 1.5817199177	-2.6915228105	 2.4239444794	-0.135923
O	-0.577305527	-2.5942270222	 1.0661931755	-0.293939
C	-0.7940764386	-3.9806033448	 0.9115331012	-0.255441
H	 0.9987867537	 1.9745355977	 0.1699877765	 0.112415
H	-0.386986077	 1.9324993634	-0.9280361458	 0.111208
H	-0.6400669849	 1.855002875	 0.8200381952	 0.114727
H	-0.8907875417	-0.4291696144	-0.2360089287	 0.115141
H	 0.7307948166	-0.3035409617	-0.89449988	 0.091425
H	 1.661379613	-0.210647752	 1.4445962111	 0.103333
H	 0.0256486359	-0.3062861083	 2.0931284985	 0.100188
H	 1.663882686	-3.6165150821	-0.1818154716	 0.097233
H	 2.3881404466	-1.9920534627	-0.3115552448	 0.103958
H	 1.8411701663	-1.9797335557	 3.216233485	 0.102659
H	 1.1861383222	-3.6064077947	 2.8832085264	 0.097269
H	-0.3811478036	-4.367394098	-0.0296253496	 0.113732
H	-0.3812341049	-4.5716489038	 1.7398725669	 0.113598
H	-1.8777041236	-4.1205664306	 0.8952689835	 0.131042
