20
gdb 80950	2.37484	1.37031	1.2366	2.0074	86.58	-0.227	0.0278	0.2549	1161.9314	0.169296	-365.906269	-365.897171	-365.896227	-365.93953	35.219	
C	-0.0546577834	 1.5867305183	-0.0826381857	-0.449301
C	 0.094121382	 0.0813706528	 0.0260944958	 0.04542
N	 1.2789476283	-0.5971912599	-0.7122599463	-0.169094
C	 2.1297324129	-0.1514105385	 0.4901535807	-0.220096
C	 0.8403664731	-0.6358567344	 1.1917272937	 0.287378
C	 0.4956930109	-0.6942655203	 2.6580304073	-0.523962
C	 0.954608178	-1.8260098434	 0.1842743387	-0.201557
C	-0.1954709132	-2.6368739439	-0.1563263037	 0.336385
C	-1.1280742575	-3.3546911852	-0.406188888	-0.434155
H	-0.2262459134	 1.8637463458	-1.1281338012	 0.134844
H	-0.929664869	 1.909219229	 0.4920317745	 0.121568
H	 0.8055231493	 2.1552569537	 0.2775699728	 0.118945
H	-0.8493258842	-0.3909845157	-0.2619532167	 0.086806
H	 3.0377268471	-0.7472012002	 0.6238135422	 0.09738
H	 2.3675565044	 0.9112303788	 0.4948793885	 0.102751
H	 0.4505829786	 0.3109272158	 3.091093517	 0.122658
H	-0.4784775488	-1.1718697233	 2.807261461	 0.130548
H	 1.2425615266	-1.2677639674	 3.217652634	 0.12191
H	 1.8371197543	-2.4615713565	 0.3103364048	 0.096072
H	-1.9531102461	-3.9817040955	-0.6385666794	 0.1955
