16
gdb 2290	7.93749	1.44441	1.32251	2.0924	64.71	-0.247	0.0312	0.2782	944.0004	0.136715	-325.775071	-325.767648	-325.766704	-325.807533	25.875	
C	 1.0168349825	 0.7113177326	-0.3917352157	-0.359007
C	-0.4185262242	 0.3911073599	 0.0275548599	-0.148553
N	-0.8068220893	-0.9288046565	-0.4643904572	-0.325328
C	-1.8701284683	-1.06075963	-1.1053587137	 0.462381
C	-2.5870496733	-2.2175448217	-1.7708495757	-0.372375
C	-3.6242906539	-1.1402796531	-2.1471951913	-0.075578
O	-2.8362201528	-0.1238008833	-1.4597525704	-0.262459
H	 1.3378542584	 1.6685986604	 0.0312725681	 0.107166
H	 1.700177514	-0.0701193524	-0.0472493567	 0.123738
H	 1.0989603085	 0.7743884439	-1.4813358603	 0.115889
H	-0.4755450892	 0.3649034998	 1.1234795436	 0.106594
H	-1.0993136087	 1.1823473013	-0.3125653593	 0.10889
H	-2.0462577519	-2.6763040045	-2.60019014	 0.137545
H	-2.9318943411	-2.9953833932	-1.0875333449	 0.137883
H	-3.7181863562	-0.9098930407	-3.2114336149	 0.121532
H	-4.6139147244	-1.2401242625	-1.6944490614	 0.121683
