18
gdb 28586	4.75218	1.01581	0.87929	0.7545	81.72	-0.1673	0.0578	0.2251	1320.4149	0.14946	-398.123912	-398.115413	-398.114469	-398.15737	32.144	
N	-0.3121382379	 1.009627266	 1.2196116995	-0.612593
C	-0.1255956121	-0.0081550217	 0.2580519502	 0.265393
C	-0.9042451892	-0.5035226165	-0.7599435618	-0.205401
C	-0.2012898176	-1.601615745	-1.3491913091	-0.218312
C	 0.9927043206	-1.7300464592	-0.6772566337	 0.326635
N	 1.0293685619	-0.7600952003	 0.2981729779	-0.320748
N	 2.1114518828	-2.5608021129	-0.85639539	-0.171964
C	 2.1973469611	-3.8024880432	-0.0644626811	-0.231665
C	 1.9043294811	-3.8378310145	-1.5219637897	-0.218443
H	-1.2987810535	 1.2020253252	 1.3434664899	 0.243739
H	 0.1337225137	 1.8820537448	 0.9474705519	 0.240707
H	-1.8666678817	-0.1179017253	-1.0610145689	 0.078333
H	-0.5217682061	-2.19490451	-2.1909676243	 0.084271
H	 1.7615301771	-0.6478308956	 0.9781923083	 0.256097
H	 3.188372803	-4.046571125	 0.3056792939	 0.117696
H	 1.3744740095	-4.0217540441	 0.6113326296	 0.122412
H	 0.8895706232	-4.1003626578	-1.8102577412	 0.124754
H	 2.673694774	-4.1214300347	-2.2338223215	 0.11909
