17
gdb 34815	5.11851	1.08164	1.00692	1.2677	79.81	-0.2522	0.0418	0.294	1179.525	0.135173	-384.573715	-384.566132	-384.565187	-384.605522	30.249	
C	-0.053867712	-1.2512536194	-0.0762382184	-0.4319
C	-0.0162770838	-0.0504130505	-0.0175297585	 0.319099
C	-0.0023600888	 1.3962801065	 0.02276287	-0.198469
C	 0.0504202408	 2.1271485807	 1.4171949721	-0.146003
C	 1.5437267491	 1.6756005034	 1.5246854489	-0.25019
C	 1.3792726354	 2.1525975221	 0.0445355096	-0.146004
C	 0.5843935926	 3.3299869585	 0.6266396244	 0.542212
C	 0.0494582895	 4.5883834995	 0.1321087811	-0.326581
O	 1.0937034555	 4.5266868748	 1.1418829913	-0.308229
H	-0.084531052	-2.3115074244	-0.1256570329	 0.192099
H	-0.7337998856	 1.8119103043	-0.6776284983	 0.096594
H	-0.7179110544	 2.1065450564	 2.1888827859	 0.08912
H	 2.1873299744	 2.286206375	 2.1590695764	 0.116883
H	 1.7116204105	 0.607974628	 1.6674283244	 0.117228
H	 2.1257564515	 2.161003775	-0.7485287077	 0.089121
H	 0.3690554387	 4.9829171496	-0.8310564933	 0.12251
H	-0.9099222614	 4.9584199406	 0.4900877351	 0.12251
