21
gdb 8315	6.23711	0.93558	0.90513	1.4643	77.43	-0.2068	0.0888	0.2956	1386.6187	0.187175	-366.22888	-366.219637	-366.218693	-366.263249	33.048	
C	-0.0535104585	 1.4844939818	-0.0248798678	-0.383968
C	-0.1460917808	-0.0265572993	-0.1538476365	-0.038437
O	 0.9069248765	-0.4692434983	-0.9893391717	-0.254169
C	 0.940785062	-1.8605094286	-1.1664353217	 0.141063
C	-0.0276405963	-2.4319602254	-2.2428223997	-0.198711
N	 1.0852943066	-2.4237994457	-3.2095661193	-0.054653
C	 1.2196981992	-3.5313169974	-4.1241010356	-0.318798
C	 2.0754659912	-2.27002476	-2.1270511987	-0.191188
H	 0.9100130766	 1.7738270072	 0.4041385303	 0.126338
H	-0.1470064464	 1.9586065417	-1.0059153174	 0.128951
H	-0.8509183724	 1.8621889838	 0.6221048187	 0.113099
H	-0.0674788037	-0.5072041949	 0.836535478	 0.083934
H	-1.1224919432	-0.3165814579	-0.5746037989	 0.088499
H	 0.9174512477	-2.3721466983	-0.1948888942	 0.064606
H	-0.3829581871	-3.4434296439	-1.9830686872	 0.07792
H	-0.8867463966	-1.8128789604	-2.5249334136	 0.102337
H	 0.3690009859	-3.5502936899	-4.8139793371	 0.11929
H	 2.1305354959	-3.413788602	-4.7212468641	 0.120006
H	 1.2692023448	-4.5159702614	-3.6171113785	 0.083496
H	 2.845188709	-1.5122397923	-2.3057062391	 0.110758
H	 2.5548610796	-3.2158250387	-1.825540016	 0.079626
