18
gdb 129884	4.26916	1.04189	0.89885	2.5569	81.02	-0.1897	0.0283	0.218	1309.3084	0.149563	-398.121869	-398.113531	-398.112587	-398.155737	31.429	
N	 0.1193189287	 1.4269854909	-0.3026190202	-0.608395
C	 0.0280806861	 0.0379516421	-0.1071285125	 0.159264
C	-1.0255334835	-0.8023843314	-0.4221291143	-0.119352
N	-0.6165828686	-2.0719135637	-0.1269050508	 0.043727
N	 0.6323628635	-2.1035534254	 0.3585596464	-0.269372
C	 1.0320665481	-0.8308108448	 0.3726932973	-0.054737
C	-1.3308840401	-3.3056536259	-0.2688760535	 0.101254
C	-2.8147176696	-3.3811199048	-0.0318397101	-0.287078
C	-2.25781493	-3.5414405395	-1.4303137586	-0.286213
H	 0.7598721392	 1.8619411718	 0.3489082582	 0.243678
H	-0.7767558643	 1.8921946111	-0.2350088702	 0.240612
H	-2.0025920119	-0.5917794389	-0.825581206	 0.119028
H	 2.0224181687	-0.5797955372	 0.7241828639	 0.100403
H	-0.7062658824	-4.1197857913	 0.073075682	 0.121283
H	-3.2038810431	-4.2527441991	 0.4823180054	 0.123758
H	-3.331297223	-2.4567979892	 0.2019075306	 0.122802
H	-2.4021243661	-2.7230214073	-2.1269481883	 0.125287
H	-2.2607469718	-4.5242690573	-1.8880611592	 0.12405
