17
gdb 105127	2.50202	1.21414	0.95064	1.6683	83.01	-0.2571	0.0017	0.2588	1272.2512	0.131486	-384.601736	-384.592025	-384.591081	-384.636275	35.673	
C	 0.2809123985	 1.4488696922	 0.3153869534	-0.384008
C	-0.3043461986	 0.1312909298	-0.2039710245	-0.268429
C	 0.5211974499	-0.4582682063	-1.3336778421	 0.184388
O	 1.7850650049	-1.0270598403	-0.9490930343	-0.26538
C	 0.7786202034	-1.928083665	-1.4267335837	-0.227726
C	 0.2189353042	-2.8727761974	-0.4992133651	 0.334591
C	-0.2509480721	-3.6922468308	 0.2444170975	-0.403932
C	 0.5385628656	 0.2970830377	-2.5669318784	 0.303201
C	 0.5257032589	 0.9378066308	-3.5839385694	-0.419138
H	 1.2974531806	 1.2965355675	 0.6895863363	 0.134368
H	 0.3192554375	 2.2039792649	-0.4753605368	 0.129516
H	-0.3286017371	 1.8434012101	 1.1331213432	 0.11599
H	-0.355726951	-0.6067894697	 0.6008121433	 0.122597
H	-1.3258597783	 0.2854834679	-0.5704262026	 0.111824
H	 0.9796730649	-2.324757101	-2.4212245878	 0.12499
H	-0.6633056117	-4.4134940426	 0.9064404427	 0.205191
H	 0.5235088705	 1.5013840422	-4.4844053218	 0.201957
