19
gdb 79962	1.92271	1.83163	1.64041	2.4115	75.13	-0.2361	-0.0042	0.2319	994.8095	0.159257	-423.016407	-423.007998	-423.007054	-423.048653	33.41	
C	-0.0331236937	 1.5077579112	-0.0124566266	-0.49727
C	 0.0531518718	 0.0026711855	 0.0084116183	 0.261168
C	-0.8362528027	-0.808097762	 0.9152123456	 0.060477
O	-1.5282271418	-1.9437233592	 0.4551881732	-0.433631
C	 0.66470623	-0.8060980802	 1.1532551972	-0.186155
C	 1.3964535662	-1.939405979	 0.5072794286	-0.108644
C	 1.2515539549	-1.925286322	-0.8204373185	-0.133047
C	 0.4509428161	-0.7190832588	-1.2962232798	 0.041682
O	-0.6520757615	-1.0375903656	-2.1302580341	-0.445999
H	 0.9385864353	 1.9601659154	-0.2425108446	 0.118512
H	-0.7456444165	 1.8373993252	-0.7772539352	 0.133486
H	-0.3661794224	 1.9074450971	 0.9508513322	 0.113157
H	-1.4401459202	-0.2529699928	 1.6277457685	 0.106038
H	-0.8915768878	-2.6687141565	 0.398222086	 0.287739
H	 1.0508081937	-0.3455524423	 2.056264946	 0.08971
H	 1.934069126	-2.688670787	 1.0786985551	 0.105612
H	 1.6292414501	-2.6654468495	-1.5165496008	 0.107029
H	 1.0884340302	-0.0655659345	-1.9069725571	 0.089615
H	-1.2985890975	-1.472203975	-1.5556453839	 0.290518
