18
gdb 37773	2.77593	2.02122	1.46051	1.495	83.6	-0.2179	-0.0334	0.1845	927.9661	0.15138	-364.776797	-364.770264	-364.769319	-364.807313	27.499	
C	 0.0483826761	 1.5992222393	 0.1017338941	-0.282955
C	 1.5499826981	 1.4481320147	-0.0909743045	-0.039857
C	 2.1642172512	 0.6262886127	 0.9902301289	-0.048605
C	 1.7879485033	 0.6344656753	 2.4149376303	-0.07359
C	 0.7491221143	 0.0437254967	 3.0319706128	-0.100366
C	-0.3357010562	-0.7106325478	 2.4300385305	-0.075193
C	-0.6801777751	-0.7332400558	 1.1320199862	-0.086246
C	-0.0200675111	 0.0358345337	 0.0410498826	-0.005433
N	 1.492261547	-0.0661435899	-0.1274667852	-0.167509
H	-0.2639441826	 2.0573971279	 1.0426303749	 0.118407
H	-0.4684078637	 2.0863954813	-0.7264410232	 0.111422
H	 2.1614191991	 2.0036054557	-0.7951662036	 0.094861
H	 3.2414624348	 0.5235556817	 0.8568514331	 0.103918
H	 2.5089786245	 1.1579602506	 3.0404908542	 0.092147
H	 0.709032152	 0.1307744815	 4.1154737974	 0.089184
H	-0.9382913933	-1.2930784566	 3.123357689	 0.089553
H	-1.5262492736	-1.3492217497	 0.8381691569	 0.092288
H	-0.4317041546	-0.2764555613	-0.9209388444	 0.087971
