20
gdb 32211	2.53032	1.4392	0.99641	2.7205	88.5	-0.2447	-0.0151	0.2296	1238.4179	0.172439	-366.087048	-366.078275	-366.077331	-366.12066	32.833	
C	 0.0218062918	 1.5918085606	 0.0918917894	-0.371203
C	-0.0061587818	 0.0534939658	 0.029129814	-0.296623
C	-1.4066473758	-0.5139853339	-0.0167707486	 0.194687
C	-2.0456148284	-0.8700029484	 1.1737641375	-0.050601
N	-3.2855226694	-1.3528686787	 1.2712410638	-0.28079
C	-3.9541003931	-1.5077034563	 0.126893446	-0.001718
C	-3.4184027945	-1.1983691858	-1.1180162273	-0.181825
C	-2.12249308	-0.6904059553	-1.2137519814	 0.226496
C	-1.5279863337	-0.3656535082	-2.5614466594	-0.506024
H	 1.0515598831	 1.9612939922	 0.1244629922	 0.115631
H	-0.4692205579	 2.0388882142	-0.7780074686	 0.121122
H	-0.4980859035	 1.9531410185	 0.9845244891	 0.125977
H	 0.5681233519	-0.2844119574	-0.8404113773	 0.102597
H	 0.5087927018	-0.344973864	 0.9105059445	 0.108021
H	-1.5063920667	-0.7568771124	 2.1138583487	 0.096728
H	-4.9649420805	-1.9011930124	 0.2069010432	 0.1039
H	-4.0095717455	-1.355391605	-2.0150191502	 0.090558
H	-1.225145026	 0.6842723032	-2.6315065562	 0.138154
H	-0.633695456	-0.9675756749	-2.7597773981	 0.138654
H	-2.2458360659	-0.5614347817	-3.3616377313	 0.126259
