13
gdb 12584	3.68438	1.98237	1.2992	5.5948	62.41	-0.2388	-0.0914	0.1473	875.6199	0.095178	-398.65805	-398.650535	-398.649591	-398.690069	26.509	
C	-0.0231420953	 1.5351088973	 0.0060576303	-0.495934
C	-0.0071371775	 0.0423459893	-0.0277547914	 0.141571
C	-0.0414565312	-0.7842432435	-1.0965875568	-0.090554
N	-0.0114544048	-2.1402414487	-0.7605411549	-0.349133
C	 0.0468373536	-2.2968959081	 0.6153845908	 0.349208
O	 0.0839350046	-3.3268990871	 1.2322136345	-0.315229
C	 0.0517111489	-0.8184827548	 1.1606089864	 0.222482
O	 0.0955522691	-0.5279083736	 2.3309867585	-0.293306
H	 0.8769958111	 1.9278247315	 0.4914820648	 0.144372
H	-0.0803784148	 1.9568392748	-1.0012992056	 0.122174
H	-0.8774988991	 1.9060954893	 0.5825667964	 0.144628
H	-0.0880523676	-0.5091021768	-2.14279198	 0.146751
H	-0.0296720871	-2.9044801196	-1.4142971331	 0.272971
