17
gdb 34545	4.19608	1.2814	1.17053	1.1005	87.09	-0.2144	-0.0194	0.1949	1077.611	0.13714	-347.497137	-347.49016	-347.489216	-347.528283	28.919	
C	 0.0762347778	-1.1540021765	 0.1125554558	-0.424022
C	-0.0186324332	 0.0459592173	 0.0443773405	 0.19602
C	-0.0756713262	 1.4541871441	-0.051284025	 0.216054
C	-1.1704154689	 2.2391403771	-0.0969126754	-0.202223
C	-0.7482113703	 3.6835000526	-0.0223300826	-0.095783
C	-0.1625672767	 3.9191244717	 1.4318274268	-0.228096
C	 1.2093338402	 3.538021528	 0.8933960265	-0.065812
C	 0.7327743448	 3.6998304351	-0.5334296262	-0.072842
C	 1.1439811246	 2.3316840677	-0.0736620497	-0.15842
H	 0.1426427349	-2.2113643851	 0.1786070934	 0.187689
H	-2.1948387631	 1.8979873989	-0.0196096762	 0.103781
H	-1.4577983817	 4.4238450801	-0.3866741612	 0.073243
H	-0.1872969439	 4.9825117196	 1.6830177809	 0.106049
H	-0.600586246	 3.3343834296	 2.2473615933	 0.096925
H	 2.161624076	 3.810948651	 1.3319498353	 0.088919
H	 1.148102877	 4.2428936814	-1.3733470773	 0.088369
H	 2.1020651947	 1.9237951174	-0.371567499	 0.090149
