19
gdb 39515	2.91074	1.94457	1.52533	0.2708	85.53	-0.206	0.0143	0.2203	930.2554	0.162977	-348.740979	-348.734489	-348.733545	-348.771339	27.975	
C	-0.0592772266	 1.5520149344	 0.0671746069	-0.272068
C	 1.3972007517	 1.9586183739	-0.0149740894	-0.124523
C	 2.1812054158	 0.9354993565	-0.3761216622	 0.197464
C	 3.5269732626	 0.6516992362	 0.2275330923	-0.343324
C	 3.175157067	-0.1293953985	 1.5009493051	-0.051923
C	 1.9883141643	-0.727403523	 1.6730711479	-0.073802
C	 0.9995693496	-0.9186941986	 0.5649082527	-0.05642
C	 0.0135958554	 0.0455993122	-0.1651228299	-0.059614
C	 1.3632551809	-0.2737992624	-0.7416372296	-0.144738
H	-0.4656921122	 1.8173144276	 1.0522829015	 0.109408
H	-0.7142995151	 2.0305330147	-0.6758493623	 0.101425
H	 1.7638948713	 2.8784845261	 0.4302186265	 0.082931
H	 4.1973729247	 0.0701990942	-0.4191857417	 0.1086
H	 4.0583054682	 1.5704915888	 0.4996424595	 0.107908
H	 3.9063929182	-0.124523883	 2.3052617171	 0.088131
H	 1.7695203371	-1.2118477304	 2.6216870925	 0.082594
H	 0.6185516199	-1.9379763713	 0.5177587174	 0.087213
H	-0.8706819024	-0.459164581	-0.5399594638	 0.080607
H	 1.5555305696	-0.8399968165	-1.6478490406	 0.080133
