19
gdb 95569	2.48632	1.65537	1.06149	2.8863	79.18	-0.2106	0.0203	0.2309	1137.6789	0.162048	-419.256686	-419.248111	-419.247167	-419.290141	31.998	
C	-0.0500172611	 1.3847297338	-0.3877409839	-0.339031
N	 0.0588831115	-0.0263508323	-0.0494069978	-0.107963
C	-1.1687288282	-0.7305793463	 0.3126305261	-0.18808
C	-1.5177575871	-1.8846584142	-0.630386028	-0.254188
C	-0.5354090136	-3.0140252343	-0.5371527912	-0.087801
C	 0.6941038482	-2.964535425	-0.0169627729	 0.005092
N	 1.4064055599	-1.8810771972	 0.509317604	-0.372824
C	 1.3044495693	-0.5065684858	 0.2576986923	 0.455834
O	 2.3055582256	 0.1889329923	 0.3287902623	-0.414997
H	 0.9287456528	 1.7441274681	-0.7005419441	 0.165455
H	-0.7696099411	 1.5159417323	-1.2029302044	 0.118103
H	-0.3816810654	 1.9860543273	 0.4696544812	 0.120596
H	-1.094797674	-1.1089992251	 1.3397541352	 0.125235
H	-1.9735303787	 0.0084568043	 0.3029035081	 0.112384
H	-2.5203395687	-2.2546333093	-0.3751599807	 0.102162
H	-1.5921917954	-1.4995028916	-1.6572753473	 0.111882
H	-0.861421953	-3.9838973876	-0.8983914078	 0.086912
H	 1.2761625413	-3.8794814057	 0.0347620226	 0.106088
H	 2.3580828976	-2.0863538835	 0.7722848563	 0.255142
