17
gdb 84606	2.54792	1.70691	1.21612	2.7557	81.01	-0.2097	0.019	0.2287	1043.2018	0.135556	-380.827435	-380.819004	-380.81806	-380.860537	31.726	
C	-0.0792200122	 1.3904348571	 0.0369249629	-0.34501
N	-0.1334782051	-0.0505557245	 0.016426083	-0.083053
C	-0.0059542946	-0.8649097109	-1.0761579752	 0.044654
N	 0.0296767186	-2.1343017699	-0.8641119935	-0.276443
C	 0.0319848444	-2.302724039	 0.5601348241	-0.044614
C	 1.1704947834	-1.7152852547	 1.3520252985	-0.329142
C	-0.0906244847	-0.8804433006	 1.1970416971	 0.132757
C	-0.9022277461	-0.5098065328	 2.3120038707	 0.240838
C	-1.5765707028	-0.1958827582	 3.2582813961	-0.425332
H	 0.9028835645	 1.7680175839	 0.3548574479	 0.125915
H	-0.2888665108	 1.769946763	-0.9663804502	 0.135619
H	-0.8354994199	 1.7867019257	 0.7215306616	 0.147204
H	 0.035449607	-0.4161657996	-2.0637919598	 0.126671
H	-0.4981758841	-3.1587738288	 0.960502413	 0.111446
H	 1.3368559811	-2.1329710221	 2.3377168838	 0.128804
H	 2.0593050296	-1.3904964345	 0.8205699457	 0.117179
H	-2.1795957681	 0.0718059857	 4.0902964642	 0.192506
