17
gdb 107598	2.69268	1.61792	1.15998	2.0251	68.71	-0.2326	-0.0284	0.2042	1061.3418	0.134432	-458.945474	-458.93709	-458.936146	-458.97854	30.961	
C	-0.0458135944	 1.3892763669	 0.4419620664	-0.263792
O	 0.0051715878	 0.0837236474	-0.1322779718	-0.28531
C	-1.2142571862	-0.5518568222	-0.1790318632	 0.296971
C	-1.8081803335	-1.2054281921	 1.0810080122	-0.382844
C	-1.3560675187	-2.0479576974	-0.0708711987	 0.035091
O	-2.3439701326	-2.5300336583	-0.9482316139	-0.261898
C	-3.0222282236	-1.4323934544	-1.5471544785	-0.194517
C	-2.2268813332	-0.1629510018	-1.2151466136	 0.316661
O	-2.3525905522	 0.9111345264	-1.7474043285	-0.323522
H	 0.9797627345	 1.7631723879	 0.4455773342	 0.13028
H	-0.6803016684	 2.0549247001	-0.1502686495	 0.148386
H	-0.4197133357	 1.3512145625	 1.4744400339	 0.108081
H	-1.1475159725	-1.172045972	 1.9407037835	 0.13734
H	-2.8663311777	-1.1106350824	 1.2995592366	 0.12951
H	-0.5004495674	-2.7060403853	 0.0178268925	 0.129396
H	-3.0630017601	-1.5732998904	-2.6319980831	 0.147981
H	-4.0537556861	-1.347748955	-1.1766242685	 0.132185
