21
gdb 50998	2.8587	1.08006	0.92111	2.5425	83.05	-0.2527	-0.0271	0.2256	1344.1407	0.181224	-387.066864	-387.057515	-387.056571	-387.102103	34.742	
O	-0.4258496921	 0.1170481397	-0.5129883617	-0.238826
C	-0.085128762	 1.1493615915	 0.0068790491	 0.135927
C	 1.274888867	 1.7890091566	-0.1746154353	-0.360055
C	 1.2976285049	 2.8896448721	-1.2412374968	 0.354397
C	 0.6684399149	 2.5768649868	-2.5794511502	-0.303355
C	 0.0077695828	 3.5718590404	-1.6565398631	-0.31258
C	 2.532797121	 3.7545862125	-1.269747816	-0.039675
C	 3.1744062337	 4.3363255558	-0.0337946595	-0.281748
C	 3.8971814467	 3.2797350111	-0.8351968787	-0.277788
H	-0.7844748505	 1.7083283564	 0.6691818504	 0.082044
H	 1.572584081	 2.2075953136	 0.7953867052	 0.108708
H	 1.9817122996	 0.9986663211	-0.4463667581	 0.128327
H	 1.1626395046	 2.9491594013	-3.4703613154	 0.111697
H	 0.1953585375	 1.6084670635	-2.7022046591	 0.133952
H	-0.9271456578	 3.2907287556	-1.1846988406	 0.114427
H	 0.0644408695	 4.6249261031	-1.9105654816	 0.11183
H	 2.5378568789	 4.4190867515	-2.1307183098	 0.080866
H	 3.5313330466	 5.3593224268	-0.0797310794	 0.11268
H	 2.7864089147	 4.0538405581	 0.9391878299	 0.112198
H	 3.9854919524	 2.292371425	-0.3956839975	 0.114784
H	 4.7552902969	 3.5724425074	-1.4300122518	 0.11219
