15
gdb 125660	3.46568	1.73839	1.16611	2.4239	72.82	-0.2059	0.0065	0.2124	989.3504	0.115811	-413.026554	-413.01938	-413.018435	-413.058012	27.24	
C	-0.0231840392	 1.4961583339	-0.0116432084	-0.493526
C	 0.0069292622	 0.0114986831	-0.0006830574	 0.354177
N	 0.0078244796	-0.7498675338	-1.0665645786	-0.255794
N	 0.0395870188	-2.0421011098	-0.6118615382	-0.360979
C	 0.059180653	-2.0846986137	 0.7475896526	 0.498
N	 0.0893130161	-2.9477233152	 1.7347851934	-0.405643
C	 0.0873603542	-2.1228586046	 2.8478710742	-0.07645
C	 0.0564647358	-0.7843852235	 2.533611045	-0.177933
N	 0.0381356189	-0.7643751082	 1.1416441339	-0.061438
H	 0.857875661	 1.9140866273	 0.4881268084	 0.14458
H	-0.041075634	 1.8463256819	-1.0444113513	 0.160682
H	-0.909767606	 1.8785201014	 0.5065455239	 0.144651
H	 0.0475015391	-2.8049841845	-1.2631928945	 0.286514
H	 0.1088617967	-2.5485829813	 3.8405620263	 0.112261
H	 0.0467407139	 0.1091309471	 3.1316035308	 0.130898
