15
gdb 130066	4.51297	0.91597	0.80089	2.0265	69.13	-0.22	-0.0399	0.1802	1360.1734	0.113423	-450.155617	-450.147247	-450.146303	-450.190173	29.476	
N	 0.0727057588	 1.3487619047	 0.1169091434	-0.579514
C	 0.0440728321	-0.0254118453	 0.0377457753	 0.412583
N	-1.0813833209	-0.7189747233	-0.0971090445	-0.338623
N	-0.6224261353	-2.0094510438	-0.0608273732	 0.046765
C	-1.5564864785	-3.1003838528	-0.1392654277	-0.247862
C	-2.5139036717	-3.1351417355	 1.0548249207	 0.15651
O	-3.4804453826	-3.8455030445	 1.0851623727	-0.225218
C	 0.7135538213	-2.0086353214	 0.0887077244	 0.008306
N	 1.1801648288	-0.7757429631	 0.1504744245	-0.325536
H	 0.9595596185	 1.7463621274	-0.1537501987	 0.261594
H	-0.7200451432	 1.8060821732	-0.3078827468	 0.260103
H	-2.1476747749	-3.037340818	-1.0582825099	 0.162986
H	-0.9963763008	-4.0410648493	-0.1632600987	 0.153738
H	-2.2340763538	-2.4607646719	 1.8917433745	 0.110133
H	 1.2981732123	-2.9155625566	 0.1408592539	 0.144034
