17
gdb 80432	3.48828	1.26262	1.12489	2.0238	68.39	-0.241	-0.0369	0.2041	1095.3832	0.13319	-458.919619	-458.911022	-458.910077	-458.952932	32.234	
C	-0.0301623325	 1.7074223578	 0.0140925358	-0.471523
C	 0.099383385	 0.1992516942	 0.0397608725	 0.281269
O	 1.2047545394	-0.3506923481	-0.7668030559	-0.345345
C	 1.6124186335	-1.1974957515	 0.3197289018	 0.01071
C	 2.1354721795	-0.3379675404	 1.4082222202	 0.121334
O	 2.8147542186	 0.846558806	 1.1517440364	-0.430206
C	 0.6270582419	-0.529231489	 1.2839727571	-0.223196
C	-1.1716116854	-0.5042001251	-0.4362675674	 0.149929
O	-2.2738483163	-0.0292063587	-0.3724561934	-0.248394
H	 0.815484017	 2.184652965	 0.5080332117	 0.140469
H	-0.100387617	 2.0598493837	-1.0199688181	 0.13229
H	-0.9554635254	 1.9900863312	 0.5224663554	 0.148172
H	 1.8654883437	-2.2256887276	 0.0881498509	 0.111468
H	 2.5482184293	-0.8680525258	 2.262533899	 0.119734
H	 2.771355863	 0.9788926951	 0.1949350278	 0.297916
H	 0.0135073671	-0.9353059666	 2.0775187468	 0.114253
H	-0.9835877313	-1.5220728402	-0.8421919906	 0.09112
