18
gdb 117901	2.37413	0.95911	0.72915	2.0016	75.33	-0.292	-0.1005	0.1915	1544.9024	0.144654	-439.108967	-439.098712	-439.097768	-439.14519	35.487	
C	-0.0079863472	 1.5951397322	-0.0479953548	-0.387566
C	 0.0025562521	 0.0666393009	 0.0271747512	-0.168357
C	-1.4066208982	-0.5335757886	-0.0269441329	-0.202995
C	-1.3796461953	-2.0710148608	 0.1056469584	 0.024629
O	-0.8020291818	-2.4739277968	 1.3149421857	-0.429916
C	-2.7783596443	-2.6508381511	-0.0061808216	 0.273118
O	-3.288311482	-3.2871288127	 0.886055056	-0.292958
C	-3.4958271009	-2.4066417785	-1.2664367115	 0.258026
N	-4.0400950215	-2.2148992943	-2.2684284165	-0.30175
H	 1.0088422618	 1.9971508428	-0.0101458325	 0.119416
H	-0.4715534671	 1.9466765524	-0.9763502784	 0.117902
H	-0.5685034285	 2.0291203253	 0.787212991	 0.119169
H	 0.5976006234	-0.3415219116	-0.8003599788	 0.099441
H	 0.4877916588	-0.2628008894	 0.9513010891	 0.127043
H	-2.0183572706	-0.1293044817	 0.7894211605	 0.111907
H	-1.8964007239	-0.2595300576	-0.9695383265	 0.120526
H	-0.8018668154	-2.4783877478	-0.7437694992	 0.111768
H	-1.4746327494	-2.9840667928	 1.790904221	 0.300596
