17
gdb 72296	2.80242	2.37404	1.63952	4.0628	75.28	-0.2053	-0.0496	0.1557	843.9138	0.136086	-380.729174	-380.722546	-380.721602	-380.759551	27.889	
C	-0.0691700163	 1.4888926895	-0.0820557626	-0.48768
C	 0.0836509575	-0.0141296287	 0.0296718399	 0.287607
C	 1.2383054779	-0.6921722327	-0.8088108089	-0.216427
N	 1.0278238444	-2.1337586205	-0.469612521	-0.220943
C	 0.3921500917	-2.0152692155	 0.6259240693	 0.203392
C	 0.3261165729	-0.6888586262	 1.4209104623	-0.18814
C	-1.1733238317	-1.0152400858	 1.5939197033	-0.049047
C	-1.3065656374	-0.7864053488	 0.1285552621	-0.071853
N	-1.0543838794	-2.2121231405	 0.7280791169	-0.168856
H	 0.889086541	 1.9889976648	 0.0960893678	 0.124681
H	-0.4084987019	 1.7705450821	-1.0861481414	 0.12648
H	-0.7949297429	 1.8794818732	 0.6378249903	 0.126016
H	 1.1409361306	-0.600383994	-1.8960337462	 0.1211
H	 2.2070068359	-0.2524173535	-0.521908883	 0.106634
H	 1.0560336669	-0.3328160677	 2.1418794642	 0.0891
H	-1.8743468988	-0.9350253359	 2.4124604903	 0.109515
H	-2.1819858305	-0.6884192398	-0.5017951135	 0.108421
