23
gdb 73020	2.7461	1.18095	1.01148	0.2542	90.72	-0.2379	0.0922	0.3301	1323.2024	0.206217	-351.117312	-351.108352	-351.107408	-351.151147	35.094	
C	-0.0029572586	 1.5388285595	 0.0366691362	-0.496658
C	-0.0265416023	 0.0370809996	 0.0001014211	 0.335729
C	-0.8591774489	-0.7815893878	-1.0029741554	-0.286462
C	-1.196118997	-1.8100013616	 0.1241194287	-0.22742
C	-0.3533468651	-0.9868961274	 1.1046843805	-0.124722
C	 1.0613640358	-0.8173049029	 0.6035404556	-0.05443
C	 1.8630418918	-1.8632755067	-0.1079890871	 0.011421
C	 3.3035836815	-1.5885352528	-0.4699078676	-0.271815
C	 2.9760652596	-2.5794127286	 0.6194859486	-0.269967
H	 0.5540719159	 1.9498066174	-0.8148731005	 0.117656
H	-1.0162691349	 1.9566632636	-0.0012194034	 0.11169
H	 0.475951764	 1.9076373398	 0.9501204316	 0.113882
H	-1.746869604	-0.2392512006	-1.3391115636	 0.096816
H	-0.3333364464	-1.1549318375	-1.8881469405	 0.092511
H	-2.2590334259	-1.807186181	 0.3753269902	 0.098764
H	-0.8862981224	-2.8480508384	-0.0357812244	 0.095044
H	-0.6061501695	-0.810292006	 2.1448370854	 0.074196
H	 1.6660343183	-0.2452738226	 1.3079839913	 0.07105
H	 1.3120550206	-2.4664183235	-0.8215286368	 0.082366
H	 3.682107876	-1.9644870914	-1.4142268981	 0.107406
H	 3.7235188563	-0.6320057577	-0.1751780418	 0.107727
H	 3.1746114116	-2.2883419514	 1.6460815432	 0.107981
H	 3.1295031035	-3.6347847121	 0.422197677	 0.107235
