24
gdb 120625	3.24413	0.76672	0.6922	1.384	87.68	-0.2399	0.0774	0.3172	1775.5081	0.215134	-405.519902	-405.508766	-405.507822	-405.556828	39.875	
C	 0.4075590589	 1.4906844384	 0.2531747118	-0.383865
C	-0.2298426457	 0.1624082583	-0.174047644	-0.22555
C	 0.4891354952	-0.5037056089	-1.3411128728	 0.330199
C	 0.416280045	 0.2504250841	-2.6573129481	-0.467717
N	 1.76977938	-1.1487645743	-0.9859594345	-0.366878
C	 0.6362364424	-1.9853790298	-1.4204445988	-0.080181
C	 0.0751541284	-2.9725845034	-0.4296146561	-0.067055
O	 0.6798990157	-4.2257196722	-0.6809938355	-0.234582
C	 0.2406373896	-5.2291229616	 0.2003628947	-0.223787
H	 1.4633393223	 1.3409956273	 0.4990292202	 0.131512
H	 0.3459245238	 2.2501162898	-0.532755262	 0.112508
H	-0.0936295697	 1.8947874084	 1.1379656465	 0.11017
H	-0.2287561858	-0.5156563959	 0.6834578842	 0.102221
H	-1.2810725858	 0.3215445854	-0.4484596579	 0.091262
H	 0.9008407596	 1.2298160683	-2.5825395116	 0.12384
H	 0.9116218463	-0.3077245219	-3.4582763274	 0.112638
H	-0.6234588829	 0.4189530864	-2.9600342108	 0.120603
H	 2.4455156107	-1.0472137923	-1.7393372007	 0.224528
H	 0.6809066312	-2.4019488856	-2.4261564387	 0.083973
H	 0.2837232075	-2.6448648854	 0.599227318	 0.096607
H	-1.021179761	-3.0513408302	-0.5433154344	 0.080709
H	 0.4839065842	-4.9906513775	 1.2481950957	 0.104123
H	-0.8480678656	-5.3884248624	 0.1315703663	 0.099527
H	 0.7498594257	-6.1555366151	-0.0769557842	 0.125194
