25
gdb 96585	2.13931	1.42358	1.00583	1.0788	88.86	-0.2381	0.0855	0.3236	1317.8225	0.231348	-389.500741	-389.491598	-389.490653	-389.533979	36.511	
C	 0.0223362069	 1.6001890286	-0.035889015	-0.403631
C	 0.0234999835	 0.0647681274	 0.0201273567	 0.068327
C	 0.7223807683	-0.4819425497	-1.2469956421	-0.179907
C	 1.0636519571	-1.9784131588	-1.2848906232	-0.231454
C	-0.1190664673	-2.9390451752	-1.1379272553	-0.061034
O	-0.8879460177	-2.7668704635	 0.0394614026	-0.241029
C	-0.1896370629	-2.9148664071	 1.2682834471	-0.071356
C	-0.1121014465	-1.5923682721	 2.033551482	-0.193825
C	 0.6454836317	-0.4396518564	 1.3506827043	-0.203915
H	 1.0419336813	 1.9978510779	 0.0417207042	 0.108027
H	-0.4037941119	 1.965858786	-0.976820626	 0.105968
H	-0.5638441886	 2.0273529306	 0.7847279383	 0.106272
H	-1.0181389438	-0.2701057811	-0.0021519316	 0.087871
H	 0.0976353634	-0.2346896692	-2.1160108993	 0.090591
H	 1.6606560236	 0.0735390974	-1.3871284582	 0.087149
H	 1.5475287811	-2.2071244971	-2.2435418435	 0.092653
H	 1.8158253436	-2.2063688663	-0.5207465004	 0.098667
H	-0.8274032597	-2.7907714479	-1.9612747726	 0.102538
H	 0.2491350167	-3.9768546962	-1.2049634964	 0.083553
H	-0.7387862976	-3.6484895675	 1.8744284998	 0.095673
H	 0.8149616679	-3.3282580719	 1.1031397134	 0.089397
H	-1.1394413415	-1.2640062377	 2.2381556115	 0.104118
H	 0.346015074	-1.7993593755	 3.0099876516	 0.087703
H	 1.6969518086	-0.7186294914	 1.1981579135	 0.088052
H	 0.6694717196	 0.3933285966	 2.0632780686	 0.089589
