17
gdb 77323	2.42318	1.32995	1.18753	3.1728	72.26	-0.2574	-0.0365	0.2209	1120.3552	0.136469	-418.040422	-418.03183	-418.030886	-418.074099	31.368	
C	 0.0040105444	 1.5412289741	 0.0070763273	-0.416342
C	-0.0185575006	 0.005326994	-0.0145157951	-0.090476
C	 0.7636269007	-0.5909055082	-1.2098918988	-0.161999
N	 2.1277992526	-0.7309450505	-0.6784607281	-0.300414
C	 2.0212734655	-1.2216170248	 0.6952334716	-0.285129
C	 0.740910674	-0.5554788678	 1.2008397747	 0.420512
O	 0.3878356349	-0.4665723287	 2.3448548553	-0.306154
C	 0.1832222109	-1.8773126164	-1.6550152928	 0.262565
N	-0.2257040689	-2.9027000957	-1.9995572139	-0.319098
H	 1.0271595142	 1.9162941125	-0.0885646865	 0.140078
H	-0.5931365765	 1.9486084614	-0.8137259079	 0.127834
H	-0.410632176	 1.9022755126	 0.9514337758	 0.147138
H	-1.0506092012	-0.3509501467	 0.0179533677	 0.128151
H	 0.7687349014	 0.0870367034	-2.0691889816	 0.130934
H	 2.7124699095	-1.3102310363	-1.2683314421	 0.243125
H	 1.8951423238	-2.3141786584	 0.7861829282	 0.136319
H	 2.8820601113	-0.9285199144	 1.3019120364	 0.142956
