19
gdb 31706	4.43386	0.88595	0.75148	1.7556	77.89	-0.2308	0.0122	0.243	1532.7463	0.16018	-419.244735	-419.235384	-419.23444	-419.279999	33.305	
C	 0.1465436514	 0.5559089098	 0.9334947493	-0.387559
C	-0.1820601957	 0.7628320417	-0.5472003583	-0.285379
C	 0.7316842109	 0.0344805383	-1.4796224725	 0.255166
C	 1.7919278235	-0.7677069962	-1.2223157215	-0.126005
O	 2.3075748775	-1.2006131518	-2.4191478725	-0.180399
C	 1.5155943492	-0.6250457223	-3.3560881352	 0.370936
C	 1.8187964303	-0.9028169203	-4.8021310092	-0.277906
N	 0.924438018	-0.2553773449	-5.7515903654	-0.486748
N	 0.5716010195	 0.112915316	-2.8664136453	-0.366887
H	 0.0820328608	-0.5015570831	 1.2103013873	 0.120942
H	 1.1581759012	 0.9033480313	 1.1678350944	 0.120922
H	-0.5517789027	 1.1100132499	 1.566430735	 0.117813
H	-1.2133101991	 0.4474005087	-0.7512230756	 0.119627
H	-0.1523718383	 1.8320920502	-0.7930473474	 0.119622
H	 2.2870702022	-1.118053649	-0.3339547318	 0.141642
H	 2.8512323017	-0.5956909951	-5.0118815461	 0.134372
H	 1.7952814004	-1.987612924	-4.9659263644	 0.134338
H	-0.0307218451	-0.5334187864	-5.5417659505	 0.237677
H	 0.9402039443	 0.7471198773	-5.5830046203	 0.237825
