25
gdb 113845	3.47448	0.82046	0.729	0.0914	94.24	-0.2566	0.087	0.3435	1696.2266	0.22946	-352.339285	-352.329449	-352.328504	-352.374684	37.221	
C	 0.4381199346	 1.6367168225	 0.1850910407	-0.372865
C	-0.1150064054	 0.23017768	-0.0743407866	-0.196055
C	 0.5164200765	-0.4245610531	-1.2872794358	 0.015454
C	 1.813754592	-1.1902685679	-1.1765936052	-0.309789
C	 0.5330246857	-1.9217615418	-1.5160948562	-0.034521
C	-0.0823595597	-2.9119892667	-0.5651885426	 0.056138
C	-1.5776504794	-3.3126328326	-0.7455225254	-0.228902
C	-1.1926933627	-4.7714774259	-0.3824600401	-0.209847
C	 0.2827006838	-4.4201738595	-0.7126293869	-0.232537
H	 1.5192585242	 1.6077620148	 0.3565627548	 0.117311
H	 0.2577363421	 2.2957702759	-0.6714724336	 0.112176
H	-0.0315643511	 2.0942834741	 1.0615997938	 0.107631
H	 0.0476712258	-0.389766494	 0.814641026	 0.094827
H	-1.2031458194	 0.2859889152	-0.2116782943	 0.095895
H	 0.4071610723	 0.1671618525	-2.194493171	 0.075375
H	 2.5710375712	-1.0687840608	-1.9435986837	 0.104835
H	 2.2167193677	-1.3399393288	-0.1785962501	 0.104438
H	 0.4323327454	-2.2194987359	-2.5587983074	 0.070965
H	 0.0884249076	-2.6029547141	 0.4714042643	 0.062489
H	-2.3215006798	-2.8036605662	-0.127048558	 0.092187
H	-1.8821872877	-3.226491156	-1.794052026	 0.095213
H	-1.3315901398	-4.9731697056	 0.6839041944	 0.098772
H	-1.6628412923	-5.5784723003	-0.9493864238	 0.093228
H	 0.5303615819	-4.6628214626	-1.7514856956	 0.095437
H	 1.0680328065	-4.8222484434	-0.0674738715	 0.092143
