17
gdb 34454	3.62721	1.47423	1.23972	1.3131	78.4	-0.2386	0.0406	0.2792	1015.9494	0.136798	-384.625758	-384.618604	-384.61766	-384.657058	29.09	
C	 0.0568701134	-1.107249812	 0.0029064344	-0.366083
C	 0.0246594161	 0.0953673188	-0.0124843519	 0.127782
C	-0.036288563	 1.5239019616	 0.0008418809	 0.183026
C	-1.2386365513	 2.2160009149	 0.6615311123	-0.160281
O	-1.3987606884	 3.4529899813	-0.0338240726	-0.260057
C	-0.1810951292	 3.6983332605	-0.7140021377	 0.065423
C	 1.036234945	 3.77852212	 0.2682175931	-0.266237
C	 1.2917763628	 2.3000258907	-0.0269226586	-0.115692
C	 0.3537465338	 2.3325711942	-1.2162839828	-0.120492
H	 0.0887862057	-2.1683512304	 0.0090978268	 0.184689
H	-2.1508311247	 1.6226043246	 0.5458374033	 0.117804
H	-1.0705450467	 2.3914306117	 1.7323204638	 0.105146
H	-0.3308628715	 4.5180941613	-1.4144441749	 0.090804
H	 1.83728455	 4.4035232803	-0.1358994793	 0.108741
H	 0.8147895779	 4.0883686002	 1.2941994085	 0.10358
H	 2.2255560595	 1.7624044745	 0.0806865324	 0.098875
H	 0.4366369906	 1.9396650377	-2.2196978177	 0.102971
