17
gdb 72005	2.74519	1.60194	1.19207	3.0325	74.57	-0.2391	-0.0233	0.2158	1043.5364	0.134442	-421.776579	-421.768686	-421.767741	-421.808946	30.129	
C	-0.0065648742	 1.4365456511	-0.0656565177	-0.509467
C	 0.0024122129	-0.0516600883	 0.0093300282	 0.438377
O	 0.127068182	-0.8045748015	-1.1893295509	-0.31706
C	-0.2169921132	-1.9844980841	-0.4006898776	 0.063698
C	 1.0616612611	-2.2348284511	 0.4320133947	-0.290421
C	 0.7057728002	-0.9282819807	 1.134726407	 0.169894
C	 1.2629698478	-0.3638673556	 2.3597479553	 0.037743
O	 2.2504868243	-0.7862092417	 2.9183921577	-0.270729
C	-0.7872182324	-1.0629505256	 0.737114636	-0.253722
H	 0.9463934251	 1.810290923	-0.4525839745	 0.146241
H	-0.8062237878	 1.7733189232	-0.73251799	 0.14109
H	-0.173374882	 1.8749854972	 0.9216034414	 0.135591
H	-0.7376292952	-2.7522826767	-0.9672836798	 0.098753
H	 0.9568146103	-3.0829906277	 1.1124708984	 0.119071
H	 1.9973457141	-2.3008371336	-0.1282380514	 0.11674
H	 0.7060797205	 0.5119436229	 2.768133282	 0.059313
H	-1.6811005134	-1.0451345206	 1.3455943711	 0.114888
