19
gdb 133662	3.17468	0.85605	0.79534	2.8046	65.38	-0.2339	0.0686	0.3025	1478.5844	0.154325	-550.716151	-550.70615	-550.705205	-550.751981	36.018	
C	 0.1712162019	 1.3833486999	-0.6435815658	-0.365116
C	 0.0144672778	-0.0027936163	-0.0108102046	 0.075066
C	-1.4611890791	-0.3795504588	 0.1269251595	-0.40334
N	 0.6807513037	-1.0270618265	-0.8253801271	-0.290315
C	 2.1308067231	-1.0480817055	-0.7970548664	-0.306374
C	 2.7344170029	-0.7879209635	-2.1729404557	 0.295373
F	 2.3899910641	 0.4112369616	-2.6631075377	-0.076572
F	 4.0780746042	-0.8236696812	-2.1026997174	-0.084685
F	 2.3511438732	-1.7127149339	-3.0619683711	-0.079055
H	 1.2212911602	 1.6600898194	-0.7648896276	 0.116636
H	-0.2914335023	 1.4011983442	-1.6351312187	 0.124762
H	-0.3063935051	 2.1423305112	-0.0157928472	 0.106736
H	 0.4542447728	 0.0347791059	 1.0042668511	 0.05746
H	-1.9348662721	-0.4341526346	-0.8586519931	 0.12899
H	-1.5802675918	-1.3523005418	 0.6181322205	 0.107306
H	-1.9949872663	 0.3632943952	 0.7258947009	 0.119952
H	 0.311359991	-1.9405187617	-0.6022269496	 0.223722
H	 2.5430470763	-0.2931682593	-0.1162492082	 0.125952
H	 2.5237206158	-2.0186918744	-0.4734270817	 0.1235
