17
gdb 113606	3.31485	0.72419	0.62627	0.8277	93.77	-0.2311	-0.0134	0.2177	1733.7671	0.133619	-384.616653	-384.607018	-384.606073	-384.651851	34.859	
O	-0.1741393123	 1.4121641493	-0.5187792382	-0.420446
C	-0.0432707654	 0.1357963596	 0.0923761419	-0.106363
C	-1.3965056061	-0.5228454483	 0.0628847795	 0.018265
C	-1.8551498121	-1.2538699462	-1.1597841558	-0.27627
C	-1.5200305611	-2.0448192571	 0.1015130184	-0.252766
C	-0.3687021066	-2.8892823979	 0.1493894997	 0.44849
C	 0.5915523721	-3.6269823379	 0.2119578328	-0.291611
C	 1.673350252	-4.4479486346	 0.2739524749	 0.301422
C	 2.6349823916	-5.1773199322	 0.3310336301	-0.572248
H	 0.6711799404	 1.8649167583	-0.4441011041	 0.287986
H	 0.6859377361	-0.4944416554	-0.4379478161	 0.099512
H	 0.3012799695	 0.2259848222	 1.1345647867	 0.094211
H	-2.1584187596	 0.0077004702	 0.6261781028	 0.102696
H	-2.8987961723	-1.1996325982	-1.4467711305	 0.123896
H	-1.1578183267	-1.3360159185	-1.9855891462	 0.133639
H	-2.3718359514	-2.4223854975	 0.6605651025	 0.120977
H	 3.4789268919	-5.8192365858	 0.3796591216	 0.188609
