23
gdb 89511	2.17434	1.67326	1.23467	1.5929	83.88	-0.2512	0.0616	0.3128	1138.3968	0.207108	-388.302477	-388.29374	-388.292795	-388.33537	35.252	
C	 0.0436565495	 1.6093910966	-0.0713690198	-0.480477
C	 0.0179223054	 0.0913562923	 0.0381213514	 0.374368
C	-1.3461789329	-0.4979403433	 0.528988636	-0.332424
C	-0.6815309786	-0.9333981189	 1.8617365566	 0.158437
O	-0.9017099388	-2.2406246168	 2.339550644	-0.43279
C	 0.722007526	-0.5488753236	 1.295813751	-0.088259
C	 1.5884182158	-1.7049438673	 0.7693901245	-0.232865
C	 1.0614141827	-2.0092086828	-0.6499905112	-0.223632
C	 0.6120254974	-0.6355560014	-1.1814334454	-0.251938
H	 1.0650667163	 1.9783223312	-0.2202330467	 0.110613
H	-0.5621243781	 1.956649003	-0.9170340819	 0.112618
H	-0.3533050974	 2.084027393	 0.8328914619	 0.111526
H	-2.1733872808	 0.2122687623	 0.6135492664	 0.096927
H	-1.6942927825	-1.3496624826	-0.0661398327	 0.088089
H	-0.9638363011	-0.279996584	 2.6916712688	 0.087712
H	-0.7649490939	-2.855058568	 1.6111011565	 0.279601
H	 1.2905686692	 0.1265134499	 1.9402268737	 0.057773
H	 2.6315625192	-1.3759291126	 0.7097695961	 0.098731
H	 1.5684418763	-2.5754795782	 1.4332964638	 0.099989
H	 1.8104240729	-2.4888145305	-1.2864609169	 0.097532
H	 0.2061036359	-2.6961276133	-0.6079237485	 0.084767
H	-0.0965305232	-0.7068745949	-2.0141292947	 0.091818
H	 1.4854023604	-0.07892178	-1.5458099528	 0.091885
