17
gdb 68433	2.69551	1.62568	1.26447	5.3752	71.97	-0.2466	0.0206	0.2672	1008.5684	0.137644	-417.988926	-417.981306	-417.980362	-418.020832	30.12	
O	-0.1251337322	 1.3857407251	-0.0353892289	-0.471584
C	-0.0511423811	 0.0074847124	 0.0247992829	 0.406682
C	 0.3594110052	-0.8180934889	 1.2928703394	-0.305785
C	-0.3885601959	-1.9271574232	 0.5035116863	-0.005166
C	-1.3584479075	-0.8222612616	 0.015981994	-0.251512
N	 0.4333732172	-2.1486467887	-0.7146203867	-0.290492
C	 0.7809725506	-0.7431026197	-1.067737272	-0.231187
C	 0.4021423911	-0.3951570263	-2.4416360469	 0.320507
N	 0.1191526188	-0.1000546582	-3.5223036898	-0.329135
H	 0.7641437274	 1.7574223254	-0.0330064617	 0.287938
H	 1.4229746047	-0.9667170973	 1.50637961	 0.086379
H	-0.1716160559	-0.4705695067	 2.1806502819	 0.114721
H	-0.7340058341	-2.8525299721	 0.9582615832	 0.086758
H	-2.0489420891	-0.4887318196	 0.7908653149	 0.116142
H	-1.8684553483	-0.9760817954	-0.9361137591	 0.129603
H	 1.276528752	-2.6678770821	-0.4909338137	 0.226827
H	 1.8511889372	-0.5287802932	-0.9527582338	 0.109305
