23
gdb 90866	3.17116	1.41708	1.20585	0.2664	87.71	-0.246	0.0816	0.3276	1144.0157	0.209071	-351.147213	-351.139477	-351.138532	-351.178954	32.446	
C	-1.0086613092	 1.1401729051	 0.2441126575	-0.404189
C	 0.0113590075	 0.0235821861	 0.0117695496	 0.061221
C	 0.6552168218	 0.0987648726	-1.3861522483	-0.234777
C	 1.614360095	-1.0703045941	-1.6098154212	-0.028138
C	 3.0975776168	-1.0174127501	-1.3247083966	-0.063194
C	 3.3927503482	-0.0407436621	-0.1884166066	-0.24638
C	 2.3482620272	-0.792522115	 0.7141748193	-0.014351
C	 1.0859501081	-0.0089057401	 1.1192353627	-0.220383
C	 2.1650518324	-1.821040311	-0.4236537957	-0.087682
H	-0.5343440062	 2.1264163112	 0.1735752454	 0.109856
H	-1.8150341235	 1.1058609369	-0.496844386	 0.106161
H	-1.4640080799	 1.0636086246	 1.2377142126	 0.107865
H	-0.5217535378	-0.9370511879	 0.0495721068	 0.07028
H	-0.1325908073	 0.0774463635	-2.1471050947	 0.08929
H	 1.1667551371	 1.062858856	-1.508786439	 0.0936
H	 1.3766097676	-1.7107526866	-2.454586489	 0.079343
H	 3.8196706023	-1.3780131764	-2.0479142899	 0.076372
H	 4.4074611077	-0.1489652766	 0.2022004241	 0.097349
H	 3.2104865058	 1.0225683266	-0.3824204966	 0.087202
H	 2.8357057319	-1.2146758781	 1.5954130426	 0.067791
H	 1.3790724036	 1.0176162881	 1.3802367315	 0.089511
H	 0.6453707974	-0.4365690914	 2.0278811472	 0.089374
H	 2.0703467136	-2.8938313115	-0.3063912257	 0.073883
