20
gdb 121889	2.74879	0.95619	0.81752	4.07	72.42	-0.2534	0.0219	0.2753	1465.9285	0.169497	-477.450448	-477.440229	-477.439285	-477.486667	36.964	
C	-0.0825289415	 0.8468207226	-1.1815153508	-0.38587
C	-0.2971536457	-0.2434569634	-0.1358973534	-0.056742
O	 0.0545388556	-1.547933319	-0.5840810686	-0.253818
C	 1.4474621832	-1.833267516	-0.6558054948	-0.112955
C	 1.9113410121	-2.0629922772	-2.1057626009	 0.028995
O	 3.3040961044	-2.2009901261	-2.1186702462	-0.436569
C	 1.2886980976	-3.3216535192	-2.7406983927	 0.373536
N	-0.0612445759	-3.3903438815	-2.7322319973	-0.516738
O	 2.0212248914	-4.1644965716	-3.2378233519	-0.385666
H	 0.9750673771	 0.9577450067	-1.4403222022	 0.131893
H	-0.6395831967	 0.6209836331	-2.0958263654	 0.125315
H	-0.4331741975	 1.8092035002	-0.7941047862	 0.120997
H	 0.2587975078	-0.0090392227	 0.7834350287	 0.103569
H	-1.3571165793	-0.3077244814	 0.1305023717	 0.111681
H	 2.0423712737	-1.0145068111	-0.2353860927	 0.116388
H	 1.650744846	-2.7331107381	-0.0622812636	 0.115396
H	 1.5943388564	-1.1960090227	-2.7087326839	 0.091471
H	 3.4565150242	-3.0346695534	-2.6002307269	 0.295181
H	-0.5722626838	-2.7659249699	-2.1230802381	 0.273085
H	-0.4924150595	-4.2427611392	-3.0527635447	 0.260851
