16
gdb 35616	2.33511	1.7761	1.20098	2.7479	74.44	-0.2346	-0.0016	0.2329	1029.316	0.12597	-396.935348	-396.927655	-396.926711	-396.967818	29.216	
N	-0.1093537956	-1.2014857045	 0.2678655245	-0.32582
C	-0.0552078799	-0.0538341285	 0.1406963042	 0.279891
C	-0.0054602736	 1.4087994188	-0.0219991444	-0.217464
N	-0.5954528388	 2.1131579831	 1.1258123681	-0.307564
C	 0.4702971431	 2.6643035975	 1.8360838281	 0.049208
N	 1.611251498	 2.6641971763	 1.2688451151	-0.27182
C	 1.4399208464	 1.9873805963	 0.0039645989	 0.364809
C	 2.6116857612	 1.3008649954	-0.6347301976	-0.31413
C	 2.0764456772	 2.5818311718	-1.2269510818	-0.309438
H	-0.5285356264	 1.6618276214	-0.9498495367	 0.137405
H	-1.3365007017	 1.6526504892	 1.6349194852	 0.258684
H	 0.2756631551	 3.1115429236	 2.8053687157	 0.137109
H	 3.5458517666	 1.3429463499	-0.0875869338	 0.136077
H	 2.4292104223	 0.3701351462	-1.1612499142	 0.132425
H	 1.5256360516	 2.526470856	-2.1606185259	 0.117257
H	 2.6483233143	 3.4907675776	-1.0827693754	 0.133371
