17
gdb 18007	5.06908	1.49125	1.33943	2.2334	71.23	-0.2441	0.03	0.2741	968.7034	0.142686	-363.842838	-363.835327	-363.834383	-363.875093	27.388	
C	 0.1694784997	 1.4156840462	-0.1257631108	-0.338802
N	 0.3815012196	-0.0249333709	-0.1438799464	-0.333675
C	 0.5657098666	-0.6294611662	 0.9342517602	 0.467846
O	 0.6192270637	-0.1473402144	 2.2435939305	-0.28407
C	 0.9060886515	-1.4804695601	 2.7617186507	 0.115277
C	-0.3722503033	-2.2288120228	 3.1920797577	-0.235747
C	-0.5071718777	-2.8104297983	 1.7487854315	-0.231826
C	 0.8006806908	-2.0668489232	 1.326109264	-0.19169
H	 0.897659257	 1.8924879401	-0.7908898713	 0.125851
H	-0.8242893549	 1.6372733477	-0.5313063837	 0.126019
H	 0.2502065484	 1.8687476883	 0.8692405185	 0.125612
H	 1.7933396511	-1.4778035653	 3.394505448	 0.09181
H	-0.1902810428	-2.9929254922	 3.9517808437	 0.110002
H	-1.1732213482	-1.5715343313	 3.535563391	 0.119713
H	-0.3995441808	-3.8959997461	 1.7141971786	 0.11311
H	-1.398980787	-2.5311228446	 1.1853173695	 0.121309
H	 1.5763503763	-2.6194429269	 0.8004223983	 0.099261
