14
gdb 26646	3.30352	1.2845	0.92943	4.4047	71.58	-0.2078	-0.0073	0.2005	1153.8504	0.103035	-432.914673	-432.906512	-432.905568	-432.947242	30.465	
N	-0.2352980522	 1.3664160971	-0.1078920681	-0.632447
C	-0.0447147277	-0.0406774306	-0.0674794596	-0.057087
C	-1.097429569	-0.9134910708	-0.1621971051	 0.429151
O	-2.4125561189	-0.6716059912	-0.3000400734	-0.432312
N	-0.6294141622	-2.1957688235	-0.0958701126	-0.315697
C	 0.7377401909	-2.1796673797	 0.0437427009	-0.185607
C	 1.138808702	-0.859000559	 0.0654115031	 0.121661
C	 2.463339148	-0.3826116009	 0.1935001608	 0.189734
N	 3.5348080344	 0.0480259759	 0.2968886639	-0.358729
H	 0.2647703496	 1.7935479144	-0.8822297038	 0.250957
H	 0.0991804717	 1.8176441883	 0.7386496555	 0.25095
H	-2.4904146851	 0.2945078593	-0.3217954439	 0.311476
H	-1.2090032122	-3.0161945656	-0.1417643471	 0.279186
H	 1.3100072408	-3.0882841838	 0.1152826693	 0.148764
