15
gdb 105867	2.25996	1.51338	1.13797	2.3344	61.23	-0.2694	-0.0108	0.2586	1077.965	0.111146	-494.876367	-494.868004	-494.86706	-494.909958	30.524	
O	 0.6282395674	 0.4837180586	 0.9296167905	-0.405828
C	-0.0230052332	 0.2618829697	-0.3095050841	-0.191684
C	-1.3707119161	-0.407738271	-0.169296172	-0.00062
C	-2.0846113193	-0.6919008242	 1.18716926	 0.084179
O	-3.3388542174	-0.2423699789	 1.5434304271	-0.419538
C	-1.8470494252	-1.8013517502	 0.2433640455	-0.01986
O	-2.9033066136	-1.7671674084	-0.7610445857	-0.289881
C	-2.4086663538	-0.5467477638	-1.2430118905	 0.427453
O	-2.767857735	 0.0377310961	-2.2107193706	-0.319647
H	 0.1944627842	 1.2252845818	 1.3642191372	 0.293939
H	-0.1635449309	 1.1957649173	-0.8720461496	 0.125559
H	 0.655698922	-0.3663998813	-0.896133498	 0.131305
H	-1.3764174016	-0.6119593429	 2.0069466758	 0.140561
H	-3.9767069715	-0.6384274762	 0.9346095836	 0.306185
H	-1.320566866	-2.7378910266	 0.3708319009	 0.137878
