18
gdb 49383	3.48759	1.49898	1.3441	2.654	76.67	-0.2357	-0.0319	0.2038	991.521	0.149229	-401.88525	-401.878199	-401.877255	-401.917081	27.96	
O	-0.2160421604	-0.0153822164	 0.2430135839	-0.254761
C	-0.0570264891	 1.1319782949	-0.0893574035	 0.129806
C	 1.1667481905	 1.9689682265	 0.111374108	-0.085927
C	 1.5484200684	 3.005110523	 1.1312862985	-0.054015
C	 1.160615382	 2.9393006921	 2.6113091398	-0.055822
C	 2.5407921132	 2.4256204733	 3.1736606923	-0.206576
C	 2.1335800712	 1.1725482121	 2.3334893829	 0.017395
C	 0.6850585035	 1.4804912801	 2.8040388275	-0.245507
N	 2.3392208413	 1.7486342384	 0.9597792751	-0.128067
H	-0.8216143445	 1.6628432529	-0.7037103102	 0.079664
H	 1.4847131624	 2.2762744798	-0.8921323637	 0.117879
H	 1.9947748061	 3.9266408682	 0.7643329311	 0.099859
H	 0.6331242795	 3.7948094214	 3.0311728079	 0.070844
H	 3.4481958537	 2.9482513153	 2.8629336784	 0.105649
H	 2.5302713473	 2.258603548	 4.2522416073	 0.101405
H	 2.5992203102	 0.1956085792	 2.4436783322	 0.084279
H	 0.5717263418	 1.2413266254	 3.862965501	 0.102759
H	-0.1714478871	 1.100726246	 2.2591669315	 0.121137
