19
gdb 119298	2.13065	1.44305	1.1071	1.8952	77.56	-0.2435	0.0246	0.2681	1194.5584	0.156407	-422.953479	-422.943699	-422.942755	-422.988816	34.919	
C	 0.3893586409	 0.6177804705	 0.4514180587	-0.237608
O	-0.2091980075	 0.3605977546	-0.8076505985	-0.226984
C	 0.4856630325	-0.5521242005	-1.6109765351	-0.113242
C	 0.4184555409	-2.018614554	-1.152313261	 0.171054
C	 1.2282343923	-2.9985030273	-2.0521538605	-0.326897
C	 2.0343980292	-3.2947432978	-0.7753293292	-0.066405
O	 1.3196745735	-2.2844643079	-0.0322957721	-0.302514
C	-0.9461041857	-2.4367335425	-0.8554207851	 0.360782
C	-2.0674859517	-2.8035585984	-0.6266859541	-0.480072
H	 0.3778345738	-0.2617130018	 1.104727764	 0.136572
H	 1.4327276785	 0.9487627765	 0.3360980385	 0.101605
H	-0.1897992196	 1.4213343388	 0.9126190383	 0.12152
H	 0.0328208209	-0.491800665	-2.6077921404	 0.113222
H	 1.5525605592	-0.284619107	-1.6929797979	 0.086815
H	 0.6588119969	-3.8242439524	-2.4760072257	 0.126402
H	 1.789066276	-2.4934044887	-2.8417721284	 0.115823
H	 1.8786432188	-4.2941583185	-0.352042517	 0.111568
H	 3.1091767189	-3.0869141215	-0.8158589033	 0.10814
H	-3.0609263578	-3.1145515572	-0.4158620114	 0.20022
