18
gdb 104350	3.27588	1.26409	1.12268	4.1378	68.05	-0.2438	0.0306	0.2744	1116.0564	0.148094	-476.222753	-476.214124	-476.21318	-476.255816	32.505	
O	-0.0901368143	 1.4461746153	 0.0923810307	-0.436453
C	-0.00281687	 0.0272269076	-0.0142559158	-0.135173
C	-1.4379122719	-0.5005173413	 0.0074987165	 0.308996
O	-2.0939133648	-0.0295807901	 1.1762037502	-0.472988
C	-2.2023589145	-0.0453621879	-1.2441957104	-0.092961
O	-3.5225713803	-0.5930158436	-1.2740508845	-0.220639
C	-3.6351942432	-1.8704768925	-0.8405354829	 0.137888
N	-2.7786951549	-2.6053495887	-0.2731296365	-0.277887
C	-1.4783503886	-2.0314171197	 0.052849456	-0.170877
H	 0.7725777231	 1.7958245224	 0.3307195777	 0.299043
H	 0.5090304783	-0.270877834	-0.9415035188	 0.094996
H	 0.5431312521	-0.4025017693	 0.8371967844	 0.105107
H	-1.8785106745	 0.9100534563	 1.2386789723	 0.28599
H	-2.3178647306	 1.0395754898	-1.2618554454	 0.125939
H	-1.6676755774	-0.3562356143	-2.1523194652	 0.102304
H	-4.6376946663	-2.2414946961	-1.0451979181	 0.121742
H	-0.7239500918	-2.4513415384	-0.6261951745	 0.10294
H	-1.2103966606	-2.3530162855	 1.0648740743	 0.122033
