17
gdb 52909	2.16659	1.19887	0.87938	5.2531	82.34	-0.2482	0.0008	0.249	1366.6337	0.135156	-380.831063	-380.821517	-380.820573	-380.867432	33.141	
C	 0.0224756698	 1.4910722684	-0.040301277	-0.500261
C	 0.0567504316	 0.0368400633	-0.0115211215	 0.051335
C	 0.0987115008	-1.1667176885	 0.0048770098	 0.075553
C	 0.0972225074	-2.6275901647	 0.0254465658	 0.00289
C	 0.2050074493	-3.2401584731	 1.4714253198	-0.264014
C	-1.327099659	-3.4251483974	 1.3948079995	-0.157645
N	-1.2496673738	-3.2605962615	-0.0776434103	-0.32274
C	 1.059076846	-3.1528257285	-0.9591768218	 0.260996
N	 1.8255472951	-3.5799289803	-1.7107659629	-0.342797
H	 0.6809038353	 1.8823143707	-0.8230048561	 0.162069
H	-0.9895543109	 1.8590203192	-0.2405726714	 0.154793
H	 0.3491546559	 1.9146313309	 0.9153990263	 0.155484
H	 0.7544060286	-4.1813991419	 1.4655977019	 0.139611
H	 0.604050688	-2.5717490341	 2.2316095215	 0.128183
H	-1.7292731967	-4.3916733876	 1.709425198	 0.117565
H	-1.8701574876	-2.6247825864	 1.9122314873	 0.108332
H	-1.9499787099	-2.6608450985	-0.5008340791	 0.230647
