21
gdb 116473	2.58722	1.29836	1.01223	2.7475	74.09	-0.2483	0.0698	0.3181	1235.1509	0.183976	-461.367832	-461.358987	-461.358043	-461.401104	34.388	
O	-0.0110673398	 1.3990439679	-0.0976392678	-0.42702
C	 0.0439575302	-0.0062506264	 0.048321534	-0.073571
C	-1.3530362353	-0.616361134	 0.0353899257	 0.06183
O	-1.944128508	-0.2239861024	-1.2110264379	-0.287502
C	-3.3328026352	-0.542520954	-1.2731902263	-0.071349
C	-3.5618918927	-2.0511858863	-1.1648368476	-0.21412
C	-2.8584801505	-2.6165965448	 0.0797106881	-0.222871
C	-1.3929432921	-2.1473830674	 0.1331581787	 0.129603
O	-0.6185722543	-2.7358217693	-0.905718634	-0.445348
H	-0.5844800228	 1.5585319232	-0.8567068535	 0.287375
H	 0.6537498294	-0.4767832818	-0.7359607129	 0.096323
H	 0.5221028555	-0.2147548863	 1.0110223064	 0.108291
H	-1.9358311114	-0.1780765212	 0.8621779672	 0.07364
H	-3.8641650207	-0.0161609305	-0.4633553385	 0.095175
H	-3.6939828939	-0.1477300281	-2.2271041846	 0.109953
H	-4.6365249027	-2.2610468763	-1.1359683544	 0.101752
H	-3.1678129964	-2.5391547891	-2.0641148202	 0.107556
H	-3.3727530053	-2.2754320938	 0.9879069034	 0.094818
H	-2.8877038994	-3.7101970795	 0.0785501554	 0.107868
H	-0.9324083261	-2.4698225255	 1.0739618574	 0.082893
H	-0.8088195087	-2.2318735243	-1.7064000183	 0.284703
