16
gdb 32888	5.43724	0.77704	0.71748	1.4954	67.83	-0.2157	0.005	0.2207	1519.3986	0.124119	-475.050379	-475.041614	-475.04067	-475.085114	31.201	
O	-0.1203772976	 1.4091726517	-0.0643664197	-0.416483
C	 0.0151875373	-0.0008590389	-0.0639914055	-0.073663
C	-1.3874617055	-0.5831572272	 0.1419701112	-0.285239
C	-1.3983737722	-2.0705201098	 0.1388387047	 0.379356
N	-1.6123756928	-2.8780635891	 1.1373727374	-0.383408
C	-1.4894371599	-4.1408667547	 0.594764715	 0.318608
O	-1.6519391964	-5.2470207192	 1.3433758674	-0.429337
C	-1.199161651	-4.0502972651	-0.7263102812	-0.155446
O	-1.1394249322	-2.7043716917	-1.0236720482	-0.174912
H	 0.7508765947	 1.7963741678	-0.1891100792	 0.289984
H	 0.4290957767	-0.3702719069	-1.0140889662	 0.103304
H	 0.6769543376	-0.3460483558	 0.7452625845	 0.100351
H	-1.7864573277	-0.2413286736	 1.0990529122	 0.141307
H	-2.037888035	-0.2005948516	-0.6522737121	 0.13391
H	-1.8568033347	-4.9465364228	 2.2370632043	 0.3068
H	-1.0249035511	-4.7449934931	-1.5261252145	 0.144869
