22
gdb 111238	3.24778	1.2264	1.12118	0.2938	81.41	-0.2091	0.0804	0.2895	1214.5139	0.196332	-404.311242	-404.302939	-404.301995	-404.344034	32.736	
C	-0.1049176241	 1.5473095318	 0.0799031023	-0.376781
C	-0.0368243155	 0.0351284347	-0.1542916654	-0.215877
C	-1.4042099181	-0.6262369757	-0.0377250117	 0.064408
C	-1.4798308946	-2.1683959391	 0.0486623676	 0.10022
C	-1.3645751997	-1.9635497054	 1.5732922426	-0.224925
N	-1.9659498152	-0.5886309666	 1.377930376	-0.126812
C	-3.4268264077	-0.7637404622	 1.2565828859	-0.187385
C	-3.8058065615	-2.1047660496	 0.5634533583	-0.08346
O	-2.7896539749	-2.5846275258	-0.3204437167	-0.276667
H	 0.8888206243	 2.0025698237	 0.0328860589	 0.108451
H	-0.7324119386	 2.0358258855	-0.6741013486	 0.109432
H	-0.5361544466	 1.7562042265	 1.0628132797	 0.136507
H	 0.3615756803	-0.1779318724	-1.1548923487	 0.097016
H	 0.6655389786	-0.4142862706	 0.5573524674	 0.096928
H	-2.0897262326	-0.1970971207	-0.7777655833	 0.067747
H	-0.7775461822	-2.8028003961	-0.4999792109	 0.072273
H	-1.9139925833	-2.634825737	 2.2371224867	 0.107199
H	-0.3351493098	-1.881549078	 1.9265475759	 0.111776
H	-3.8797402475	-0.7365982853	 2.2547636624	 0.102256
H	-3.8150819521	 0.0949811484	 0.6995304504	 0.109981
H	-4.006751786	-2.8697925257	 1.3263762202	 0.098616
H	-4.7175791833	-1.9991516403	-0.032145179	 0.109097
