17
gdb 20293	5.30034	1.53272	1.43398	2.0923	68.26	-0.2313	0.0766	0.3079	905.7693	0.14257	-363.745157	-363.73841	-363.737465	-363.776519	26.155	
C	 0.0256794803	 1.4012425915	-0.2867174741	-0.219443
C	 1.3603818909	 0.8438577939	 0.055272386	-0.222287
N	 0.1847845161	-0.0193982971	 0.0181418645	-0.096441
C	-0.2874886512	-0.5530175978	 1.27295868	 0.069304
C	-1.3025863509	 0.1546021018	 2.2416798066	 0.008715
C	-2.4458337902	-0.0857095342	 1.2229781116	-0.22843
C	-1.6044042031	-1.3756468375	 1.3449266888	 0.028748
O	-1.5736389417	-1.1800172692	 2.8137246205	-0.305769
H	-0.4464156556	 2.0398009658	 0.4568615468	 0.118398
H	-0.231796155	 1.6369971068	-1.315741741	 0.120562
H	 2.1024059061	 0.6629401647	-0.7175577392	 0.118937
H	 1.7710590903	 1.1071640897	 1.0289873039	 0.113502
H	 0.5255466141	-1.0469587168	 1.8097546664	 0.091658
H	-1.1602260473	 0.9753917021	 2.9462150246	 0.09112
H	-3.4411247415	-0.1456466145	 1.6654728381	 0.107767
H	-2.4324205099	 0.452928796	 0.2742285334	 0.109572
H	-1.8110940615	-2.3794970053	 0.973670843	 0.094087
