17
gdb 12399	2.95187	2.13338	1.32032	3.6696	64.07	-0.2433	0.0061	0.2494	917.1771	0.144486	-401.037707	-401.030171	-401.029227	-401.069651	28.227	
N	-0.0818897855	 1.4972578043	 0.0479724017	-0.512523
C	-0.0560084427	 0.0449605425	-0.0581463121	-0.093149
C	-1.4594840557	-0.5565737849	 0.0261933663	-0.209733
C	-1.3681866527	-2.0692957565	-0.1666936821	-0.22931
C	-0.7477649598	-2.372125086	-1.5220655845	-0.059485
O	 0.5035792237	-1.6995240009	-1.757173831	-0.228538
C	 0.7488073194	-0.4576012857	-1.2757635774	 0.391254
O	 1.6466328485	 0.187354032	-1.7492672182	-0.328211
H	 0.8561147481	 1.8416108726	-0.1438910019	 0.244255
H	-0.6577288265	 1.8731328999	-0.7025103642	 0.224251
H	 0.5151904057	-0.3357129774	 0.8034717757	 0.117451
H	-1.9092296834	-0.2904434654	 0.9865207889	 0.119425
H	-2.0965041997	-0.1201594284	-0.7564699623	 0.09958
H	-0.7598567296	-2.5141626482	 0.6302309834	 0.114323
H	-2.3554784247	-2.5411132109	-0.1207097498	 0.11087
H	-0.5253599429	-3.4354651197	-1.6398498723	 0.124582
H	-1.435914232	-2.0815844673	-2.3271126502	 0.114959
