17
gdb 84689	2.20192	1.83029	1.45196	1.3098	68.1	-0.252	-0.0093	0.2426	966.9386	0.135832	-458.937932	-458.929963	-458.929018	-458.970404	30.864	
O	 0.3814674473	 1.1654288073	-0.6062940399	-0.432016
C	 0.0999498256	-0.120813398	-0.0689052572	 0.001772
C	 0.598911451	-0.3217583786	 1.3444093486	-0.128415
C	-0.3368593456	-0.7888802128	 2.1725003249	-0.081882
C	-1.6490447783	-0.9925396106	 1.4678507215	 0.052817
O	-2.6050400131	 0.0704939109	 1.7325421024	-0.296069
C	-2.4029288842	 0.6300613434	 0.4171040266	-0.124061
C	-1.4061665323	-0.493119386	 0.0286332605	 0.317089
O	-1.8394722368	-1.3784997883	-0.9720813836	-0.485012
H	 0.1805391926	 1.8196302066	 0.0720455598	 0.283275
H	 0.5774374506	-0.8200565878	-0.7671498588	 0.100548
H	 1.6238017353	-0.0860921784	 1.6127353839	 0.109644
H	-0.2035219376	-0.9874111662	 3.2300615382	 0.110777
H	-2.1002626132	-1.9820136056	 1.5898991544	 0.094595
H	-3.3202453223	 0.6110416929	-0.1815653451	 0.108176
H	-2.0132020974	 1.6549332849	 0.4533426379	 0.082371
H	-1.6475413115	-0.9784375037	-1.8279311042	 0.286391
