14
gdb 24455	3.57512	1.73715	1.20785	2.581	62.55	-0.2004	0.008	0.2084	944.0488	0.103935	-473.833334	-473.827007	-473.826062	-473.864118	24.669	
C	-0.0030447292	 1.3691065102	 0.0241312663	-0.111565
C	 1.438526515	 1.907898861	 0.0407302611	-0.109476
O	 2.1610713869	 1.5041158702	 1.2080279961	-0.260814
C	 1.9089291018	 0.1867315759	 1.4299064322	 0.228627
C	 0.9064528252	-0.5050857549	 0.8435283888	 0.308778
O	 0.9471209591	-1.7860193607	 1.2785703128	-0.182306
C	 2.0160885385	-1.78777483	 2.1356387157	 0.038154
N	 2.6183833936	-0.6466853637	 2.260419998	-0.321928
O	-0.0374739037	-0.0737006212	-0.008208409	-0.2653
H	-0.5413531974	 1.7147564184	 0.9147736371	 0.13227
H	-0.5240782172	 1.7079409221	-0.8729907195	 0.133466
H	 1.9670007116	 1.5560358138	-0.8554358733	 0.125554
H	 1.4227064327	 2.9999947384	 0.0422062045	 0.130314
H	 2.2490797831	-2.7282658296	 2.6053486391	 0.154227
