20
gdb 79288	2.30995	1.9583	1.53152	1.2331	76.25	-0.2371	0.0636	0.3007	968.8863	0.173622	-403.1381	-403.130433	-403.129488	-403.16986	30.898	
C	-0.3447032229	 1.5453339547	 0.0557792852	-0.429667
C	-0.0110369252	 0.0528705604	 0.0418788223	 0.037082
C	 0.8175854568	-0.4657246911	-1.1332883486	-0.050725
C	 2.2522908022	-0.560118166	-0.7192040358	-0.10907
C	 2.3506665073	-0.079306925	 0.7225745039	 0.167108
O	 2.7005797864	 1.2833871554	 0.8826568179	-0.451956
C	 0.9193418362	-0.5224507092	 1.1425763336	-0.121743
C	 0.9943413491	-1.9829604563	 0.6636446324	-0.167539
N	 1.4080558058	-1.7758712512	-0.758373085	-0.130715
H	 0.5388079832	 2.183600539	 0.0866120562	 0.108909
H	-0.9296014162	 1.8146272874	-0.8306129903	 0.114431
H	-0.9489816665	 1.7920836528	 0.9347194123	 0.121042
H	-0.9632117742	-0.49358444	 0.0675414389	 0.077575
H	 0.507529092	-0.3498057204	-2.1655886717	 0.089553
H	 3.0895386932	-0.5096187128	-1.4063061579	 0.091341
H	 3.0958474438	-0.6486015955	 1.2908827654	 0.086204
H	 2.5206838453	 1.7415437049	 0.057104723	 0.286897
H	 0.6411717687	-0.3385778979	 2.1789619425	 0.071415
H	 1.7483460176	-2.5841769679	 1.1801363657	 0.105031
H	 0.0380139273	-2.5120989214	 0.7004000297	 0.104827
