21
gdb 111854	2.31429	1.38984	1.09585	1.4402	78.26	-0.2288	0.0727	0.3015	1220.1739	0.182072	-424.210513	-424.201338	-424.200394	-424.244633	34.728	
C	-0.2201391535	 1.4719494222	 0.1366050549	-0.375075
C	 0.1837188318	 0.0150678128	-0.1209796872	-0.203943
C	 0.8347673356	-0.6160346119	 1.0897268774	-0.054749
C	 0.031392559	-1.2983673073	 2.1877818166	-0.014439
O	-1.290582342	-1.6436523022	 1.864642159	-0.258055
C	-1.2754935852	-2.9349984504	 1.2402816175	-0.063452
C	 0.0902631095	-3.0674835066	 0.5344161021	-0.321338
C	 0.977747575	-2.0985029528	 1.3272069695	 0.330326
O	 2.234838371	-2.5250686152	 1.7581966914	-0.46748
H	 0.6475945744	 2.0837132997	 0.4069086508	 0.111833
H	-0.6792631271	 1.9174867291	-0.7513426141	 0.108343
H	-0.9413516774	 1.5331814248	 0.9575831441	 0.127609
H	-0.7071640592	-0.5544724205	-0.4023222842	 0.104033
H	 0.8734226092	-0.0350893989	-0.9730640858	 0.09721
H	 1.6924174138	-0.0708091234	 1.4802721742	 0.091579
H	 0.2144706146	-1.0805437591	 3.2361983466	 0.092941
H	-1.3919052631	-3.7188872428	 2.0044945412	 0.091242
H	-2.1335476842	-2.9853457407	 0.5645740696	 0.109551
H	 0.4941248052	-4.0813712698	 0.6060929905	 0.101989
H	 0.0319886935	-2.8125609154	-0.5279343214	 0.114492
H	 2.109550809	-3.2472782413	 2.3847490073	 0.277382
