23
gdb 96321	2.12498	1.46255	0.93373	1.3963	88.87	-0.2291	0.0184	0.2475	1342.0637	0.206053	-388.30605	-388.296725	-388.295781	-388.339767	36.216	
C	 0.1132618135	 1.5825730679	-0.0602507905	-0.404535
C	-0.0006987716	 0.0621279784	-0.0159878736	 0.084031
O	 0.6144743536	-0.4231492845	-1.2102903436	-0.250573
C	 0.1886085315	-1.7020653519	-1.628804181	-0.063517
C	 0.7140103153	-2.8647420594	-0.7824628883	-0.191653
C	 0.1770448822	-2.9025475822	 0.6587908211	-0.303617
C	 0.697668168	-1.8000330561	 1.5648341365	 0.305867
C	 1.3274000487	-2.2549012723	 2.8552138887	-0.476105
C	 0.612673397	-0.5051051701	 1.2496529516	-0.135696
H	 1.1666605198	 1.8802152668	-0.0644901141	 0.125911
H	-0.3593819191	 1.9742254459	-0.9639522232	 0.116818
H	-0.3690165794	 2.0300650502	 0.814172945	 0.112351
H	-1.0708047595	-0.2133240282	-0.0500182093	 0.066967
H	-0.9153216918	-1.7411853974	-1.6583988543	 0.077889
H	 0.5463999044	-1.8098237091	-2.6586432888	 0.09994
H	 0.4308818339	-3.7954191172	-1.2914414269	 0.090315
H	 1.8092586706	-2.8262700367	-0.7673274981	 0.105149
H	-0.9224347389	-2.8625160566	 0.6288345596	 0.107089
H	 0.4250670182	-3.8732815882	 1.1013084501	 0.09655
H	 2.1918534407	-2.9048170575	 2.6649809852	 0.123094
H	 1.6618280937	-1.412650207	 3.4663651674	 0.118509
H	 0.6202442409	-2.8498177414	 3.4484218951	 0.122051
H	 1.0121947784	 0.2267525865	 1.9494885917	 0.073164
