13
gdb 630	7.46591	2.71457	2.35807	3.4477	50.64	-0.2454	0.033	0.2784	567.2524	0.10842	-286.517424	-286.510949	-286.510005	-286.547621	22.773	
N	-0.016915294	 1.2724578667	 0.3445926331	-0.5375
C	 0.0127630635	-0.0168731998	-0.1073450164	 0.422564
O	 1.048054558	-0.5623380997	-0.448540704	-0.380833
C	-1.3128198033	-0.7113939273	-0.1344511102	-0.105838
C	-1.5301921031	-1.7213731602	-1.2462427347	-0.248314
C	-1.3078165861	-2.2016197653	 0.1502326274	-0.246917
H	 0.8384857324	 1.8024077311	 0.3137977681	 0.259305
H	-0.877717031	 1.7570401215	 0.5262779819	 0.255893
H	-2.1750096241	-0.1435402031	 0.1997857135	 0.075111
H	-2.5246867447	-1.7863128187	-1.6724288642	 0.1126
H	-0.7098083051	-1.8312628017	-1.9455035066	 0.140123
H	-0.3393198832	-2.6299290367	 0.3794208573	 0.140949
H	-2.1458147392	-2.6045908368	 0.7071454248	 0.112855
