16
gdb 91574	2.73973	1.20213	1.09988	2.9749	68.14	-0.2662	0.0222	0.2885	1148.4227	0.123503	-437.858286	-437.850029	-437.849085	-437.891785	30.508	
O	-0.3511771412	 1.7445102592	 0.7590499455	-0.430644
C	-0.1357041125	 0.4946890258	 0.1739478246	 0.083268
C	 0.4556756214	-0.6741000482	 1.0592917182	-0.291237
C	-0.8395869228	-1.4451798014	 0.8089563746	-0.032516
O	-1.917174291	-0.600845946	 1.275154744	-0.307071
C	-1.3924767792	-0.3782606468	-0.0401463997	 0.382723
C	-2.3829151091	-0.377932945	-1.1739954762	-0.472283
C	-1.7388163665	-0.6039680968	-2.4677755875	 0.263107
N	-1.2119438479	-0.784960651	-3.4796016781	-0.301792
H	-0.9349632199	 1.5931079574	 1.5137623571	 0.289442
H	 0.4403317859	 0.6537529194	-0.7401670795	 0.119087
H	 1.3388776587	-1.1351851742	 0.6119211295	 0.122249
H	 0.6547585514	-0.4220917748	 2.1033923486	 0.116134
H	-1.0276296748	-2.511965276	 0.7967867622	 0.119623
H	-3.135961966	-1.1533658114	-0.9991580629	 0.16915
H	-2.9101032065	 0.5838010899	-1.2037375501	 0.170761
