18
gdb 128714	3.1368	1.25437	0.91132	2.0483	76.36	-0.2384	0.0102	0.2487	1285.4268	0.145889	-439.092693	-439.083045	-439.082101	-439.127762	33.48	
C	-0.0766195118	 1.376157357	 0.0546645215	-0.241933
O	 0.0157394594	-0.0496064626	 0.009318991	-0.262828
C	 0.6048334133	-0.6259376584	 1.0625202614	 0.447383
N	 1.0771404845	 0.045350804	 2.0847004087	-0.265508
O	 1.5954639971	-0.938196057	 2.9365103101	-0.240745
C	 1.4082152674	-2.1553818518	 2.3820306404	 0.378296
C	 1.906368705	-3.3163270122	 3.167114297	-0.491625
C	 0.780042617	-2.04062664	 1.180618702	-0.064231
C	 0.3558217003	-3.078957154	 0.1942726523	-0.510275
H	 0.9191003598	 1.8267150371	 0.1113596069	 0.141689
H	-0.5765710898	 1.6728246804	-0.8678124318	 0.130787
H	-0.6571075428	 1.6987403801	 0.9245100022	 0.141722
H	 2.9847387343	-3.2377546467	 3.3405886766	 0.149566
H	 1.4183851081	-3.3651317548	 4.1462228582	 0.149561
H	 1.7091155595	-4.2495488376	 2.6361120098	 0.137967
H	-0.7261706354	-3.0504733769	 0.0250278447	 0.138072
H	 0.8341403156	-2.9241156096	-0.7790674247	 0.138076
H	 0.6143430586	-4.083920777	 0.5380525537	 0.124027
