21
gdb 60181	3.0268	0.8602	0.73231	4.7051	84.24	-0.2743	0.0165	0.2908	1597.7777	0.181739	-383.26692	-383.256886	-383.255942	-383.302801	36.418	
C	 0.3343507114	 1.4349209715	-0.243030314	-0.38749
C	-0.0650692684	-0.0197366703	 0.0436307005	 0.047454
C	 0.6676575748	-0.5481113283	 1.2834713623	-0.39347
C	-1.5879056702	-0.1910898811	 0.2131070122	-0.200838
C	-2.3772512922	 0.1231853912	-1.0360414551	-0.015629
N	-2.3748845612	-0.8928392517	-2.0912780146	-0.310917
C	-3.6442220375	-0.5955275344	-1.3954347217	-0.205248
C	-4.1899064159	-1.6422722377	-0.5646074079	 0.33425
N	-4.6492880527	-2.4586947384	 0.1130669687	-0.337686
H	 1.4195164692	 1.5250987363	-0.3557365594	 0.116149
H	-0.1205488245	 1.8182895013	-1.1620274	 0.105823
H	 0.0318539031	 2.0941661285	 0.5798463431	 0.112975
H	 0.2332667954	-0.6344012017	-0.81625209	 0.089505
H	 0.3921442227	 0.0248653443	 2.177133978	 0.112768
H	 0.4245055185	-1.5984301957	 1.4733004432	 0.119006
H	 1.7530223481	-0.4703507002	 1.1622849707	 0.111292
H	-1.8020517487	-1.223478326	 0.5082842894	 0.12347
H	-1.9445175307	 0.4524183994	 1.0291339449	 0.101367
H	-2.3633902227	 1.1643918776	-1.3541869505	 0.101956
H	-2.3937660547	-0.4728221116	-3.0167691554	 0.244969
H	-4.4033605235	-0.0255900631	-1.9245463344	 0.130294
