23
gdb 90718	3.94148	1.1079	1.01177	0.1342	90.04	-0.2534	0.088	0.3414	1300.6778	0.206315	-351.120904	-351.112302	-351.111358	-351.154429	34.336	
C	-0.5662785873	 1.1055980868	-0.317543853	-0.408734
C	 0.2649489133	-0.1541885038	-0.1125444344	 0.051089
C	 1.7082639247	-0.1184012675	-0.7104317896	-0.245516
C	 2.3028137216	-0.4188067557	 0.6867689317	-0.112155
C	 0.8610099327	-0.3505184304	 1.3156120045	-0.016514
C	 0.9827656415	-1.8244736244	 1.7824980698	-0.329548
C	 2.3514722233	-1.90391885	 1.0816501027	 0.399307
C	 2.899435684	-3.0391042447	 0.2653449172	-0.321804
C	 3.5546235524	-2.6543295194	 1.5719037092	-0.332014
H	-0.0239345461	 1.9950608355	 0.0242707255	 0.110988
H	-0.8092293034	 1.2524927477	-1.3761153182	 0.111387
H	-1.5086709173	 1.0566127054	 0.2398635101	 0.111064
H	-0.3109709839	-1.0271049333	-0.4399938871	 0.063751
H	 1.9354854903	-0.8450228231	-1.4958762878	 0.092192
H	 1.9750087293	 0.8781688909	-1.076605855	 0.090836
H	 3.1395069672	 0.1965514023	 1.0245053687	 0.058203
H	 0.5692784562	 0.3907115234	 2.0618824074	 0.056843
H	 1.0521800289	-1.9322662589	 2.8697892234	 0.095639
H	 0.2026267476	-2.502131769	 1.4179883397	 0.090917
H	 2.3317690176	-3.9639106266	 0.2295233747	 0.108319
H	 3.4221571203	-2.8033227685	-0.6568155987	 0.109711
H	 4.5190075871	-2.156875425	 1.5317713873	 0.108515
H	 3.4308227099	-3.3171801616	 2.4231924718	 0.107522
