15
gdb 32556	2.72401	1.58475	1.00833	3.8787	72.59	-0.2244	-0.0273	0.1971	1112.7026	0.113931	-453.953456	-453.945768	-453.944824	-453.985921	28.469	
C	-0.113727972	 1.3670938179	-0.0095973637	-0.251285
O	-0.0561485189	-0.0473295627	 0.0542776338	-0.226879
C	 0.6477262241	-0.5942408751	 1.059440327	 0.269745
C	 1.3051756532	 0.0924760327	 2.0143771014	-0.094071
O	 2.0058717877	-0.5452868384	 3.0137440645	-0.182127
C	 1.9982414749	-1.8910051117	 2.9846931309	 0.123076
N	 1.4180070089	-2.6420192138	 2.1399662986	-0.319073
C	 0.6777609975	-2.068439349	 1.0828665989	 0.284378
N	 0.0698285736	-2.7569364676	 0.1991406648	-0.50927
H	 0.8873762926	 1.8017181048	-0.131026327	 0.126842
H	-0.722167633	 1.6073044588	-0.8816165941	 0.149097
H	-0.5816871364	 1.788034347	 0.8902228244	 0.126842
H	 1.3634209962	 1.1645318075	 2.112550502	 0.135463
H	 2.5762690519	-2.2948810584	 3.8107366675	 0.144832
H	 0.2211983997	-3.7474423622	 0.4035819811	 0.222432
