21
gdb 101645	2.93794	0.83525	0.74713	5.8924	80.21	-0.2585	0.026	0.2844	1595.0274	0.180639	-420.406423	-420.395435	-420.394491	-420.443472	38.609	
C	 0.1090602655	 1.4238868321	 0.0107696365	-0.237931
O	-0.1525623862	 0.0587693113	-0.2285376827	-0.247864
C	 0.6864552281	-0.5598300924	-1.1964939711	 0.123323
C	 2.1253234897	-0.735999544	-0.7046552413	-0.406939
C	 0.0424213349	-1.907744883	-1.5269219462	-0.20627
C	-1.4457459883	-1.7855662491	-1.9410835004	-0.133616
N	-1.7395950515	-0.9450570948	-3.1034581166	-0.50738
C	-1.9906685142	-3.134071728	-2.1734809137	 0.298635
N	-2.3808897685	-4.2069386348	-2.3512605987	-0.324384
H	 1.0684626186	 1.5874676492	 0.5202496598	 0.114954
H	 0.1112463352	 2.0071628235	-0.9237134642	 0.102587
H	-0.691981907	 1.7947753132	 0.6547424209	 0.133824
H	 0.6991700781	 0.0667387805	-2.1058376717	 0.055991
H	 2.6096081328	 0.2264036423	-0.5189415976	 0.120496
H	 2.141312224	-1.3162221149	 0.2231246686	 0.130122
H	 2.7212013529	-1.2650718895	-1.4548349067	 0.122426
H	 0.607962019	-2.3879160513	-2.3336379768	 0.109772
H	 0.1110368503	-2.5624116725	-0.6504137915	 0.124028
H	-1.988560783	-1.3559689208	-1.0932197728	 0.150598
H	-1.5327008704	 0.0218397029	-2.8784969748	 0.242555
H	-1.15665893	-1.2088441399	-3.8925564791	 0.235075
