19
gdb 41843	2.87371	2.00974	1.75356	1.8352	72.76	-0.243	0.083	0.326	868.0521	0.163998	-423.048402	-423.042249	-423.041305	-423.078709	26.391	
C	-0.0623508831	 1.5388651313	-0.1372799173	-0.091788
O	 1.2509299244	 2.0332575516	 0.1351456285	-0.274112
C	 2.0903966238	 0.9359966111	 0.4777597528	 0.11888
C	 1.9919015381	 0.5495419276	 1.9900886216	-0.244564
C	 1.117641493	-0.7128727761	 1.9278062924	 0.096082
C	 1.7386474308	-1.4745970883	 0.7478700449	-0.237737
C	 1.4911972849	-0.3142821727	-0.2236221704	-0.085697
C	 0.0059220222	 0.0242430566	 0.0421812435	 0.089189
O	-0.1805331093	-0.3491185891	 1.4238788469	-0.294658
H	-0.78955899	 1.9824138105	 0.5520936398	 0.110216
H	-0.3427554562	 1.8052389858	-1.1655884756	 0.094735
H	 3.1048301752	 1.1973877544	 0.1703505928	 0.078859
H	 2.9748259544	 0.3234238279	 2.4169040714	 0.094408
H	 1.5373689398	 1.3570239699	 2.5673259214	 0.114294
H	 0.9747430485	-1.2502353754	 2.8651924934	 0.075737
H	 2.7966184482	-1.7121616135	 0.8874950653	 0.100471
H	 1.1888842903	-2.3836318324	 0.4917701036	 0.106097
H	 1.7586055012	-0.4409706242	-1.2719348197	 0.073518
H	-0.7238895562	-0.5122571849	-0.5718470452	 0.076071
