11
gdb 734	9.44739	3.63796	2.67033	3.1055	46.94	-0.2565	0.011	0.2675	474.9449	0.087311	-281.505078	-281.499734	-281.49879	-281.534576	18.063	
C	-0.025849334	 1.4877125725	 0.0310671738	-0.499706
C	-0.0045921868	-0.0018086279	-0.041243382	 0.367564
N	-0.0833216676	-0.7402281129	-1.1362920233	-0.302203
C	-0.0200903265	-2.0145884592	-0.6573896938	 0.027193
N	 0.092693528	-2.1212912358	 0.6543956107	-0.212314
N	 0.1007633097	-0.8179078245	 1.0323137291	-0.230055
H	 0.8909959432	 1.8827214812	 0.4814489506	 0.141604
H	-0.1147752419	 1.8851607916	-0.9802646469	 0.165255
H	-0.8723821681	 1.8505910368	 0.6237074224	 0.141757
H	-0.0578392324	-2.8855417012	-1.2944839946	 0.124646
H	 0.1788392163	-0.5832928105	 2.0082288039	 0.276259
