19
gdb 122412	4.43543	0.70325	0.68887	2.6345	73.47	-0.2474	-0.0262	0.2212	1657.2727	0.156777	-460.154599	-460.145141	-460.144196	-460.19041	34.025	
O	 0.2143088067	 1.1729410506	-0.3080128497	-0.419226
C	-0.0711332569	-0.0892813742	 0.2601908915	-0.061411
C	-1.5542651528	-0.4136060385	 0.1755641256	-0.081618
O	-1.8923624291	-0.4217445854	-1.204129285	-0.268162
C	-3.2625195207	-0.5771644753	-1.460030511	 0.141475
C	-4.1836200985	 0.6656748195	-1.2152406732	-0.374209
C	-4.6866049554	 0.4891395279	-2.6579319257	 0.398007
O	-5.6178194309	 0.9231793773	-3.269361477	-0.283488
C	-3.5919338262	-0.542369757	-2.9735492604	-0.372333
H	-0.1778623953	 1.158985411	-1.1886647712	 0.287385
H	 0.5004636495	-0.8929014751	-0.2306111688	 0.096107
H	 0.2373036507	-0.0494511592	 1.309810705	 0.111831
H	-1.7709800101	-1.3918609338	 0.6340764151	 0.092439
H	-2.1353756342	 0.3550987045	 0.7067620234	 0.103158
H	-3.648223778	-1.4775734132	-0.9627016718	 0.081934
H	-4.9373086905	 0.6239974376	-0.4258555556	 0.13077
H	-3.5957140223	 1.5839845176	-1.1058076121	 0.141291
H	-2.7684713332	-0.0959758474	-3.541475264	 0.142028
H	-3.9049246328	-1.466570467	-3.4633408153	 0.134023
