16
gdb 25570	6.63382	0.70458	0.66714	2.4095	72.27	-0.2181	-0.0365	0.1817	1596.5407	0.125143	-434.091851	-434.083344	-434.082399	-434.126983	29.714	
O	-0.4835889723	 0.3562403981	 0.4243950177	-0.228925
C	-0.1008381586	 1.2271210406	-0.3103770343	 0.148245
C	 1.2132130597	 1.9741299081	-0.1433485391	-0.242373
N	 1.7496985871	 2.3751119702	-1.4461759426	-0.422362
C	 2.6760108088	 3.432691036	-1.4523450128	 0.290073
C	 4.0451540145	 3.5150718245	-1.3963208415	-0.14571
N	 4.4587217896	 4.8256187639	-1.4779820929	-0.247483
C	 3.3578512438	 5.5337466785	-1.5708451477	 0.014958
N	 2.2466032299	 4.7426269075	-1.5638962691	-0.266264
H	-0.6971814846	 1.572134406	-1.1856374865	 0.083509
H	 0.9868810492	 2.8862664313	 0.4250028463	 0.141663
H	 1.8969961749	 1.3742096063	 0.4731373746	 0.129556
H	 2.1236788589	 1.5755961918	-1.9419509849	 0.244972
H	 4.7519853527	 2.7034254795	-1.307882655	 0.10427
H	 3.2993155577	 6.6098810073	-1.6381884278	 0.130468
H	 1.2892563386	 5.0266490905	-1.6909830345	 0.265404
