23
gdb 109232	2.66241	1.19583	1.07164	0.204	91.65	-0.2155	0.0286	0.2441	1306.5383	0.206307	-351.166829	-351.157568	-351.156624	-351.200908	35.643	
C	 0.0367540033	 1.5218184334	 0.2441549255	-0.372671
C	-0.0521941576	 0.0413886648	-0.1673506522	-0.294715
C	-1.4501433235	-0.506578752	-0.1298404015	 0.354702
C	-2.1613203382	-0.9608869113	-1.1695181456	-0.195446
C	-3.5447281525	-1.4293691885	-0.7742451625	-0.270501
C	-3.5666560474	-1.2507696218	 0.7462029056	-0.066322
C	-2.6036786728	-2.0444850759	 1.5961164908	 0.001865
C	-1.9077928273	-3.3063913705	 1.1388803771	-0.415992
C	-2.2294029686	-0.636522007	 1.1421219283	-0.163486
H	 1.0713999525	 1.8757868797	 0.2000135915	 0.111369
H	-0.5663846386	 2.1481197149	-0.4205899572	 0.119786
H	-0.3234541283	 1.6771031905	 1.2660395965	 0.11894
H	 0.3559929846	-0.0786733974	-1.1771715719	 0.09886
H	 0.5889502645	-0.5485672087	 0.5023544604	 0.103361
H	-1.7920620978	-1.025564773	-2.1881868159	 0.080723
H	-4.3281467233	-0.8282199653	-1.2551688734	 0.102831
H	-3.7310945371	-2.4690017952	-1.0776122323	 0.104304
H	-4.4889278606	-0.9173625792	 1.2084276947	 0.078041
H	-2.8989380744	-2.0782791196	 2.6431399637	 0.079614
H	-1.5332030902	-3.221210149	 0.1160677122	 0.124057
H	-1.0557490804	-3.5383426985	 1.7876830253	 0.111192
H	-2.5923013519	-4.1618010651	 1.175655985	 0.112292
H	-2.1490880245	 0.1357540046	 1.9004011358	 0.077198
