17
gdb 111029	2.08303	1.68513	1.10773	3.7657	74.83	-0.2602	0.0045	0.2647	1114.9743	0.136322	-417.936414	-417.928183	-417.927239	-417.969618	30.358	
C	-0.4744935035	 1.1500729241	-0.1495457649	-0.257876
O	 0.535130936	 0.1816098542	 0.0963938515	-0.24811
C	 0.9277988674	-0.5162476236	-1.0297220388	 0.132405
C	 1.8958164601	-1.705926673	-0.8305139671	-0.095054
C	 0.7361366116	-2.5206227339	-0.1991514124	-0.231419
C	 0.1805179029	-1.8401971894	-1.4820906494	 0.184366
N	 1.4583829201	-2.274795326	-2.1728632157	-0.333754
C	-1.1193685887	-1.9761592668	-2.0883497184	 0.154135
N	-2.1721589628	-2.0467436871	-2.5623314904	-0.352057
H	-0.1486501663	 1.8803062394	-0.9039474741	 0.117786
H	-1.4077595838	 0.6835169327	-0.4901900727	 0.13712
H	-0.6550215125	 1.6676987249	 0.794074957	 0.139306
H	 1.1658536986	 0.151532132	-1.8725552394	 0.077029
H	 2.9429385567	-1.6793209121	-0.5352794954	 0.102296
H	 0.8331896117	-3.6033067894	-0.2662990676	 0.125412
H	 0.3402472684	-2.1624870699	 0.7481979638	 0.130389
H	 1.6836553339	-1.6094910862	-2.9221183861	 0.218024
