16
gdb 25979	4.56192	1.02904	0.87239	3.2348	71.15	-0.2104	0.0138	0.2242	1276.444	0.126545	-434.148358	-434.140145	-434.139201	-434.182021	30.129	
N	 0.2295421611	 1.1842477542	-0.1772896156	-0.51461
C	-0.1175915429	 0.0065769425	 0.4017813587	 0.424514
O	 0.3493605624	-0.3522431966	 1.4723404149	-0.377297
C	-1.1743384644	-0.8023632593	-0.350866443	-0.43561
C	-0.9610275827	-2.2833238373	-0.2862231102	 0.355591
N	-1.2848812336	-3.138367299	-1.2343461345	-0.316984
C	-0.9552804562	-4.3764355382	-0.7302071422	-0.094999
C	-0.4278235617	-4.2598896724	 0.5291486241	-0.115542
N	-0.4463348396	-2.9129685792	 0.8048412775	-0.251768
H	 0.9082689512	 1.7649026925	 0.2882791433	 0.266801
H	-0.1034913203	 1.4571785654	-1.0846333452	 0.26827
H	-2.1381276444	-0.5374060217	 0.1090815245	 0.152904
H	-1.243152993	-0.5150082905	-1.4026326431	 0.13409
H	-1.115119431	-5.2768110557	-1.3036000252	 0.101095
H	-0.0486480692	-4.9818169258	 1.2329172325	 0.122858
H	-0.0670090058	-2.4091881489	 1.5945715635	 0.280687
