15
gdb 33624	3.57869	1.66852	1.4804	4.7612	72.7	-0.2467	-0.0049	0.2418	890.7424	0.114702	-379.584444	-379.578237	-379.577293	-379.614964	25.291	
N	 0.050488308	-1.1645330324	 0.0029251995	-0.33979
C	 0.0069466726	-0.0087508508	 0.0241156806	 0.142264
C	-0.0868080638	 1.4204207649	 0.0446611881	 0.304929
C	-0.6921705334	 2.3388119207	 1.135764556	-0.178309
C	-0.9485013062	 3.3396961664	 0.0224284604	-0.088242
C	 0.3999122955	 3.2859145388	 0.7452069289	-0.018788
N	 1.1933041709	 2.2930249851	-0.0493512832	-0.180246
C	 0.8367572141	 2.5984645274	-1.4872901188	-0.189404
C	-0.6336597465	 2.3410207411	-1.1161905169	-0.125213
H	-1.1835042975	 2.1306652396	 2.0747935772	 0.119049
H	-1.6033939477	 4.1986875538	 0.0147406749	 0.106587
H	 0.8580182609	 4.1020125701	 1.2858482024	 0.109285
H	 1.1293263927	 3.592993501	-1.8331849291	 0.113636
H	 1.2622696717	 1.826408393	-2.1338685043	 0.128509
H	-1.4179694814	 2.0460435212	-1.8105251457	 0.095732
