17
gdb 64965	3.46576	1.11478	0.96318	3.694	70.53	-0.2441	-0.0343	0.2098	1236.6338	0.133645	-458.931075	-458.922272	-458.921328	-458.965309	32.346	
O	-0.1248864301	 1.399197467	 0.1052747339	-0.454917
C	-0.0371376394	 0.002094955	 0.0304458112	 0.26722
C	-0.7966231717	-0.8360803224	 1.0414613252	-0.305122
C	-1.3168126922	-0.7147743432	-0.3572948549	-0.268672
C	 1.2330563362	-0.5727506492	-0.5254420739	 0.298373
O	 1.4475295233	-1.7659564862	-0.525632746	-0.33223
C	 2.2364363009	 0.4080287684	-1.08251734	-0.040803
C	 3.6622089121	 0.2248364601	-0.7260740707	-0.163608
O	 3.178302818	-0.1384761173	-2.0029850608	-0.205568
H	 0.2973452374	 1.6852277775	 0.9226222596	 0.289589
H	-0.3313548192	-1.7702281285	 1.3327783668	 0.144097
H	-1.3089184784	-0.2845502062	 1.8217734469	 0.119774
H	-2.1676411185	-0.0669397838	-0.5318050765	 0.133014
H	-1.2157416122	-1.5676987636	-1.0173484177	 0.143442
H	 1.8737240686	 1.4035930837	-1.3187923318	 0.121411
H	 4.3129149384	 1.0976675276	-0.6890575607	 0.121297
H	 3.9281847367	-0.6081315891	-0.0775320905	 0.132703
