17
gdb 50659	2.67444	1.32865	0.95739	5.7361	71.34	-0.2425	0.0176	0.2601	1192.1052	0.138287	-455.209961	-455.201818	-455.200874	-455.243436	29.792	
O	-0.0724174566	-0.0256930157	-0.1194758775	-0.332263
C	-0.0115109932	 1.1838468895	-0.0893285064	 0.15035
N	 1.1420440076	 1.9114673702	-0.04321058	-0.055468
C	 1.159521995	 3.3562654923	 0.0316573753	-0.184269
C	 1.8323006552	 3.792616412	 1.3325245073	-0.149098
N	 3.1127851484	 3.1157358814	 1.4659062821	-0.315461
C	 3.4445226633	 1.8937893445	 0.9492191028	 0.391422
O	 4.5080785685	 1.3550740032	 1.1808213452	-0.365384
C	 2.4327809462	 1.2427919779	 0.0068131221	-0.282999
H	-0.9067233918	 1.837378933	-0.0960555616	 0.075047
H	 1.706717741	 3.7723035509	-0.825665045	 0.122428
H	 0.1332425991	 3.7307787425	-0.0080661705	 0.127392
H	 1.998747724	 4.8752672377	 1.321354185	 0.120595
H	 1.1701401512	 3.5647866013	 2.1803788444	 0.120223
H	 3.7910699186	 3.481199902	 2.1189058577	 0.253327
H	 2.2716032568	 0.2112875121	 0.3239273474	 0.179712
H	 2.9005644566	 1.2044486553	-0.9868628982	 0.144446
