21
gdb 96345	2.14729	1.68682	1.3296	2.2979	73.71	-0.2443	0.0631	0.3073	1076.0953	0.182645	-461.371932	-461.362902	-461.361958	-461.404741	35.808	
C	-0.0144284028	 1.5762475001	 0.0091749399	-0.430841
C	 0.0385712141	 0.0547460489	-0.0041435501	 0.366744
O	-1.305834566	-0.4242741617	-0.0060297086	-0.487322
C	 0.7556948679	-0.4871304434	-1.2479441129	-0.128419
O	 0.6827365472	-1.9102504212	-1.262895973	-0.269615
C	 1.4129090621	-2.4795291466	-0.1797058083	-0.066522
C	 0.8332833924	-2.0423963803	 1.1680773854	-0.257538
C	 0.7509421837	-0.5092099647	 1.2524507427	 0.088504
O	 2.0513365806	 0.0781852473	 1.2978038722	-0.441046
H	 0.9876541456	 2.0004223683	 0.0927565654	 0.132781
H	-0.4930655604	 1.9452451966	-0.9027014219	 0.113962
H	-0.6086654809	 1.9169636884	 0.862732712	 0.120437
H	-1.2817099423	-1.2872345612	-0.4393488213	 0.283617
H	 0.2470727756	-0.1434681661	-2.1532636578	 0.107926
H	 1.8013329708	-0.1516028194	-1.2680356787	 0.110543
H	 1.3536537455	-3.5639732569	-0.3062905571	 0.106834
H	 2.4691709505	-2.1795867239	-0.2498749009	 0.100101
H	-0.1703272527	-2.4616980591	 1.2961282012	 0.111315
H	 1.4495849986	-2.4325600519	 1.9883693333	 0.08543
H	 0.1620781519	-0.2145559356	 2.1330635105	 0.068241
H	 2.4933753585	-0.2325598574	 2.093771308	 0.284866
