15
gdb 51938	3.37799	0.60612	0.55008	3.9505	76.47	-0.271	-0.0021	0.2689	1930.2545	0.108883	-420.573223	-420.563304	-420.562359	-420.611277	33.046	
O	 0.3279488326	 1.0284755933	-1.7190132721	-0.266728
C	 0.4410350359	 1.9604341873	-0.9832915609	 0.182281
O	 0.8306993247	 1.8248499043	 0.3021474224	-0.167379
C	 0.9680201739	 3.0408085751	 1.0620119144	-0.249585
C	 2.2447511292	 3.7030275372	 0.8355736794	 0.109118
C	 3.2968559965	 4.2487880087	 0.6322709644	 0.071798
C	 4.581683697	 4.9068011139	 0.3903043734	-0.490625
C	 4.4857099618	 6.0794303306	-0.4805096694	 0.312685
C	 4.417903807	 7.0426035402	-1.1933193702	-0.436944
H	 0.2329415875	 3.0111373096	-1.2636881136	 0.085495
H	 0.1365254022	 3.7200051217	 0.8322663881	 0.144632
H	 0.8632971408	 2.7340275526	 2.1058439812	 0.159029
H	 5.0266875943	 5.1987948412	 1.3513735664	 0.168061
H	 5.2790265293	 4.1800965254	-0.0487007619	 0.172428
H	 4.3562979572	 7.8935117388	-1.8257653217	 0.205734
