19
gdb 87576	2.53476	1.44468	1.19952	2.7618	75.12	-0.2421	0.0614	0.3034	1120.1521	0.157899	-422.975616	-422.966981	-422.966037	-423.008651	33.163	
C	-0.0212760053	 1.5603388992	-0.0359372057	-0.415435
C	-0.0824859827	 0.0639686523	 0.1209250807	-0.033851
O	 1.1495836242	-0.661729282	-0.0905164788	-0.310933
C	 0.5909010668	-0.6516750043	 1.2077177183	 0.40349
C	 1.313031685	-0.147464177	 2.4422631883	-0.145512
C	 0.305481152	-0.0421264452	 3.554850404	-0.303079
C	 0.8585297761	-1.3992027533	 3.2109569706	-0.093469
C	 0.2097868462	-1.9623883723	 1.9377357238	 0.040748
O	-1.1186331517	-2.4212070127	 1.9552380862	-0.429044
H	 0.842673362	 1.9735099041	 0.4908319513	 0.12637
H	 0.0557090074	 1.8352058201	-1.0930445924	 0.131127
H	-0.9290885099	 2.0243779127	 0.3651923761	 0.119106
H	-0.9472018745	-0.4267433165	-0.3291426171	 0.096973
H	 2.2759047295	 0.3451454422	 2.4575339789	 0.104158
H	 0.6677988079	 0.3792880924	 4.4867612591	 0.121925
H	-0.7252132678	 0.2269016683	 3.3300359979	 0.100551
H	 1.4128348502	-1.982105725	 3.9355899288	 0.094998
H	 0.8068455853	-2.7779490803	 1.5193434357	 0.111058
H	-1.6520680407	-1.7743313727	 2.429221234	 0.28082
