20
gdb 111620	2.61783	1.58078	1.30603	2.144	77.16	-0.2286	0.0684	0.2971	1050.9204	0.173153	-403.089119	-403.081323	-403.080379	-403.121213	31.394	
O	 0.3569530055	 0.9449123744	 1.0400114723	-0.423007
C	 0.1122649937	 0.0492484093	-0.0340916994	-0.100664
C	-1.2890239794	-0.5225686399	-0.0269988606	-0.01889
C	-1.6304413958	-1.952644237	-0.2832425825	-0.051397
C	-0.6013753164	-3.0783081585	-0.1003177534	-0.271799
C	-0.4177520946	-3.2227878824	 1.418262028	-0.030823
C	 0.3232253481	-2.1514285964	 2.1818472985	-0.322861
C	-1.1880813152	-2.0867676886	 2.0479637587	-0.010063
N	-1.927930573	-1.3485351798	 1.029056201	-0.124708
H	 0.0366936752	 0.5232234508	 1.8441398079	 0.295158
H	 0.2203496608	 0.6435184528	-0.9483168458	 0.111501
H	 0.8766574383	-0.7365474569	-0.0859022447	 0.090217
H	-2.0133970473	 0.2047679524	-0.393074164	 0.099752
H	-2.4860909053	-2.1742681317	-0.9185465518	 0.089909
H	-1.0072581996	-4.0061193125	-0.5129915919	 0.112016
H	 0.3409414201	-2.8885495968	-0.6248759935	 0.114286
H	-0.4391530214	-4.2231236152	 1.8361624182	 0.090874
H	 0.6813953033	-2.4310946145	 3.1683472327	 0.114539
H	 0.9778185607	-1.4593840197	 1.6751296159	 0.134782
H	-1.7700269177	-2.2280925598	 2.9520923042	 0.10118
