19
gdb 112193	2.48957	1.29108	0.94769	5.1317	77.33	-0.238	0.0224	0.2604	1277.6617	0.159091	-419.201203	-419.192083	-419.191139	-419.235374	33.506	
C	 0.1198649969	 1.5580384603	 0.1219899099	-0.387824
C	-0.1412255589	 0.0601606715	-0.0667893232	-0.182872
C	 0.6259219432	-0.5376662466	-1.239819442	-0.015875
N	 2.0885910403	-0.6237617908	-1.0717645079	-0.369524
C	 2.1915745008	-1.9870243536	-1.2775867454	 0.421267
O	 3.1236991828	-2.7399571401	-1.3349966727	-0.360865
C	 0.6678110439	-2.0786071492	-1.3848953602	 0.151673
C	-0.2637700962	-3.1024144823	-0.8651365155	-0.297595
N	-0.0492500324	-2.9394331476	-2.3141814071	-0.354353
H	 1.1769750046	 1.7507773483	 0.334055279	 0.118095
H	-0.1514490578	 2.1262077948	-0.774732243	 0.118164
H	-0.4610900227	 1.9572047533	 0.9583097763	 0.122674
H	 0.1266124353	-0.4872606703	 0.8440385741	 0.107314
H	-1.2132902107	-0.1066306393	-0.236096477	 0.098289
H	 0.3424042113	-0.038759595	-2.1779162485	 0.084377
H	 2.7983208353	 0.0925531455	-1.0700929866	 0.251597
H	 0.1356347281	-4.0218544926	-0.4474018551	 0.141022
H	-1.1989367413	-2.7616983933	-0.4276260289	 0.11789
H	-0.8253908626	-2.4300860929	-2.7318295861	 0.236547
