18
gdb 16552	2.96062	2.67153	2.18992	1.4422	70.49	-0.2396	0.0066	0.2462	739.0662	0.158052	-347.811699	-347.805762	-347.804818	-347.841255	25.261	
C	 0.0005649148	 1.5302763379	 0.0130277627	-0.21719
C	 1.5234747497	 1.7926483446	 0.0000408498	-0.052989
C	 2.0409134577	 1.4208773938	 1.4134331878	-0.223042
C	 1.7055517853	-0.0520390236	 1.7355942621	-0.055095
O	 0.4000786513	-0.4597821519	 1.3298924922	-0.279351
C	 0.0252984867	-0.006560998	 0.0173015281	 0.088521
C	 1.1204476953	-0.283438593	-1.0099348484	-0.09425
C	 1.9759762562	 0.7404890686	-1.0092986777	-0.071474
H	-0.5133276736	 1.9348471918	 0.8890780236	 0.094184
H	-0.4738711389	 1.9100276487	-0.8965372218	 0.094461
H	 1.803894939	 2.8152659777	-0.2654397882	 0.061917
H	 3.1259014688	 1.5554152518	 1.4972772029	 0.093839
H	 1.5735052706	 2.0908061507	 2.144150286	 0.101594
H	 2.4589491858	-0.6972754958	 1.2635595412	 0.093
H	 1.7476742071	-0.2330531559	 2.8135864943	 0.102579
H	-0.9342291755	-0.4860662448	-0.1850420995	 0.072013
H	 1.2204131882	-1.2145826884	-1.5540064805	 0.095992
H	 2.9030037416	 0.8045661658	-1.5680814945	 0.095292
