18
gdb 91270	3.04468	1.46349	1.20593	4.2775	72.56	-0.2518	0.0563	0.3081	1073.3893	0.148936	-439.102634	-439.094895	-439.09395	-439.135402	29.666	
C	 0.1369456974	 1.5964778061	-0.0240215165	-0.407038
C	 0.0583236935	 0.0795839757	 0.0443306257	 0.001063
C	 0.9016382777	-0.7641515069	-0.9677240858	-0.283338
C	 1.4143401179	-1.6362397807	 0.2089309992	 0.083908
O	 2.8124995481	-1.5708302181	 0.464052446	-0.257475
C	 3.0661937681	-0.5203090063	 1.3019052662	 0.483009
N	 4.1927722512	-0.0976551787	 1.6633224194	-0.570503
O	 1.9108288204	 0.0483044924	 1.7325347775	-0.237597
C	 0.7802977334	-0.6485872904	 1.2137130452	 0.062538
H	 1.1720829826	 1.939900986	 0.0527115658	 0.139245
H	-0.2762735811	 1.959003585	-0.9709113156	 0.118698
H	-0.4291336131	 2.0606118917	 0.7901251546	 0.124005
H	-0.9875333837	-0.2452435535	 0.0286842824	 0.082442
H	 0.3456627261	-1.2870889385	-1.7480566419	 0.111766
H	 1.7163339861	-0.2020524499	-1.4315183379	 0.122075
H	 1.100317929	-2.6797022932	 0.2257239049	 0.101608
H	 4.9274977267	-0.6466217947	 1.2238264038	 0.231532
H	 0.1762305598	-1.0089705762	 2.0492937768	 0.094061
