19
gdb 14230	4.83383	1.70728	1.5115	1.7362	75.28	-0.2187	0.085	0.3037	915.9367	0.165872	-327.859253	-327.851918	-327.850974	-327.890191	29.211	
C	-0.082373632	 1.4871121493	 0.0161646161	-0.3992
C	 0.0339870631	-0.0256616027	-0.0241339712	 0.054453
C	 0.8502511769	-0.5926620222	-1.1770946716	-0.125134
C	 2.0643392545	-0.5739872814	-0.2930470674	-0.077667
N	 1.1162902864	-0.5235862852	 0.9280079586	-0.179048
C	 0.9775251995	-2.0249224131	 0.776683153	-0.223765
C	 1.4761169688	-1.9081752657	-0.6562578229	 0.316066
C	 2.0090775746	-2.9748163476	-1.565344426	-0.508733
H	 0.8893344843	 1.9597185394	-0.1586323364	 0.117574
H	-0.7784322857	 1.8435722952	-0.750999405	 0.108644
H	-0.4499563075	 1.812488311	 0.9939585505	 0.122115
H	-0.9432260137	-0.4843199144	 0.1768974066	 0.063706
H	 0.7890758063	-0.386307085	-2.2396521572	 0.082585
H	 3.0510978172	-0.1368795677	-0.3541223617	 0.092574
H	 1.7013300761	-2.5259279515	 1.427113944	 0.100622
H	-0.0281336833	-2.4135118828	 0.9802558353	 0.091511
H	 1.2106270365	-3.6424712905	-1.9096013029	 0.122174
H	 2.4813596265	-2.5413837875	-2.4534522095	 0.120563
H	 2.7610698014	-3.5887588176	-1.0566171024	 0.120963
