18
gdb 122769	5.93766	0.53082	0.49322	4.0509	75.61	-0.2657	-0.0864	0.1793	2126.9499	0.144432	-439.094815	-439.084386	-439.083442	-439.131969	34.635	
C	-0.0037238606	 1.4109584909	-0.007394135	-0.230408
O	 0.0061563911	 0.0029016161	-0.0037164399	-0.229378
C	 0.6468543823	-0.5460470119	-1.1302975567	-0.058328
C	 0.596468186	-2.0641892472	-1.0113388187	-0.206029
C	 1.2712362536	-2.7511854817	-2.1964341508	-0.312678
C	 1.2375385429	-4.2587656077	-2.1107810021	 0.286962
O	 0.741290711	-4.8994815028	-1.2203195241	-0.258393
C	 1.8864282214	-4.9516304983	-3.2496994372	 0.229052
N	 2.3959519198	-5.4779880863	-4.1443035105	-0.293703
H	 1.0163773596	 1.8268076342	-0.0062785591	 0.105446
H	-0.5367743712	 1.8137188342	-0.8832917027	 0.105437
H	-0.5186579027	 1.7360196973	 0.8995354797	 0.131756
H	 0.1489487425	-0.2141835699	-2.059257372	 0.085865
H	 1.6936991892	-0.19727058	-1.1890166226	 0.085836
H	 1.0801602526	-2.3687919265	-0.0783052212	 0.130889
H	-0.4468963432	-2.3856109505	-0.9381352866	 0.130962
H	 0.8078075746	-2.4686332168	-3.153218098	 0.148362
H	 2.325469421	-2.4539420729	-2.2976993224	 0.148348
