18
gdb 26955	2.99279	1.36088	0.98841	1.5173	78.77	-0.1807	0.039	0.2197	1189.0686	0.148889	-401.960465	-401.95219	-401.951246	-401.993694	31.698	
N	-0.1286935902	 1.2295180979	 0.4515403695	-0.597611
C	-0.1312987634	-0.1208250215	 0.1322547173	 0.286927
C	-1.1268480885	-0.9858965471	-0.2325739109	 0.177211
C	-0.4460488568	-2.2215052649	-0.5376566854	-0.266784
C	 0.8726824297	-2.014804145	-0.321538941	-0.03438
O	 1.0816397141	-0.7174998847	 0.0899874958	-0.175048
C	-2.5760604231	-0.6878818741	-0.3184086424	-0.147151
C	-3.5763088811	-1.5341355619	 0.4333117264	-0.256239
C	-3.3162421151	-0.1189347053	 0.8793245074	-0.266124
H	 0.547543957	 1.4649191211	 1.1678224121	 0.252129
H	-1.0522975033	 1.5552957996	 0.704117824	 0.257943
H	-0.9069921678	-3.1416342895	-0.8632512373	 0.103834
H	 1.7569383161	-2.623713218	-0.3940285136	 0.127647
H	-2.9270609576	-0.3212416628	-1.281747363	 0.093594
H	-4.5233628705	-1.7547840061	-0.0463212388	 0.109826
H	-3.1872020167	-2.3340748509	 1.053065192	 0.116408
H	-2.7581382785	 0.0173296541	 1.7995719511	 0.108415
H	-4.0852845043	 0.6254334992	 0.7037174368	 0.109404
