29
gdb 99964	2.1213	1.15553	1.11605	0.0503	98.05	-0.2893	0.0713	0.3606	1411.8473	0.27251	-354.769362	-354.757493	-354.756549	-354.804625	46.969	
C	-0.0516921211	 1.5957594491	 0.1533218843	-0.40344
C	-0.1432825244	 0.0889346097	-0.1272520405	-0.197751
C	 0.723262146	-0.4584290076	-1.3008761879	 0.283831
C	 0.1238245416	 0.0501887372	-2.6308841516	-0.43079
C	 2.1572101288	 0.104420078	-1.1877047707	-0.429362
C	 0.7428933326	-2.0500062306	-1.2669265953	 0.269393
C	-0.6759062129	-2.6346850286	-1.0845075571	-0.418379
C	 1.3115929397	-2.6344838273	-2.5795749005	-0.420687
C	 1.6186126732	-2.5799730065	-0.1091192601	-0.419357
H	 0.9480097827	 1.8943453366	 0.481421173	 0.1175
H	-0.3092738062	 2.2007214942	-0.7217730353	 0.115619
H	-0.7508269465	 1.8684265403	 0.9505787671	 0.109503
H	 0.1222767499	-0.4379293295	 0.7962946154	 0.091526
H	-1.1923571225	-0.1570349763	-0.3240585306	 0.09477
H	-0.0006103824	 1.1367666668	-2.6049696038	 0.109259
H	 0.7729881094	-0.1743256111	-3.4814585373	 0.1118
H	-0.8596096222	-0.3845220736	-2.8345177065	 0.10897
H	 2.580025748	-0.0376716686	-0.1889372794	 0.110671
H	 2.8346576916	-0.3640105429	-1.9074364462	 0.108738
H	 2.1647885491	 1.1780230517	-1.3963982059	 0.110303
H	-1.3810223633	-2.2552391867	-1.8303136881	 0.109374
H	-0.642726662	-3.7239921696	-1.1954363652	 0.104428
H	-1.0869600824	-2.4231186814	-0.0940615599	 0.111204
H	 2.2932008883	-2.2219338513	-2.831644417	 0.1092
H	 1.4330460089	-3.7183363841	-2.4781804637	 0.105363
H	 0.6453360499	-2.4608973569	-3.4288414384	 0.111443
H	 1.3257106418	-2.1679296516	 0.861082772	 0.110178
H	 1.5205654537	-3.6688340548	-0.0402536398	 0.105458
H	 2.6783868308	-2.3587435046	-0.2618302212	 0.111234
