19
gdb 64517	3.45871	1.40536	1.25371	3.0692	79.03	-0.2383	-0.0144	0.2239	1051.4395	0.159046	-385.850566	-385.842702	-385.841758	-385.882799	30.99	
C	-0.0098608969	 1.5870199851	 0.0003273751	-0.473854
C	 0.0643784674	 0.0685156968	-0.0242126197	 0.213854
C	-1.3027933228	-0.5563672353	 0.1381431493	 0.138709
O	-2.3348808854	 0.0569792421	 0.2507342452	-0.271503
C	 0.8078696226	-0.6620642754	-1.1556444358	-0.098321
C	 2.2915411752	-0.7708897714	-0.7625820162	-0.084789
C	 2.4591451246	-0.1321628136	 0.6119707815	-0.247621
C	 1.0555661507	-0.7132086457	 0.9293187634	-0.104936
C	 1.2836461902	-1.7601797761	-0.2347289074	-0.081253
H	 0.9554957071	 2.0431284972	-0.2263607702	 0.114498
H	-0.7369544955	 1.9388113182	-0.7371191762	 0.130945
H	-0.3484321662	 1.9464998822	 0.9772013463	 0.124605
H	-1.2959560722	-1.6700437121	 0.1511559597	 0.071781
H	 0.498138408	-0.7496142841	-2.1896772079	 0.093227
H	 3.0421349679	-0.9390512369	-1.5239930082	 0.092632
H	 3.2252780851	-0.6558290934	 1.1907296191	 0.105485
H	 2.6109650312	 0.9477732915	 0.7005172427	 0.098269
H	 0.758552007	-0.9322541697	 1.9532313873	 0.080639
H	 1.221197932	-2.8361802793	-0.293658388	 0.097635
