17
gdb 83607	2.39762	1.73193	1.16932	1.7181	69.24	-0.2498	-0.0314	0.2184	1047.2461	0.134926	-458.944408	-458.93613	-458.935186	-458.977066	31.747	
O	 0.744246367	 0.7420570243	 0.5781545588	-0.442171
C	 0.1594859743	-0.3622450512	-0.0407896619	 0.071415
C	-1.4032984781	-0.4363876092	-0.1575341258	-0.142975
C	-1.9671067114	-1.8517503	 0.0556918885	-0.224069
C	-1.6243219899	-2.2404972781	-1.4107264422	-0.289678
C	-1.2623345454	-0.7810438631	-1.7671421123	 0.332958
O	-1.9536290143	-0.2559110667	-2.8325657446	-0.461717
C	 0.1331736175	-0.25276584	-1.5679006957	 0.23729
O	 0.6912217259	 0.5873205601	-2.239810062	-0.349476
H	 1.0594890357	 1.3188522274	-0.1324676497	 0.29652
H	 0.5755760082	-1.2901012101	 0.3684179451	 0.099044
H	-1.9151283064	 0.4516603172	 0.2074251673	 0.101806
H	-1.4812488586	-2.4328628595	 0.8446407161	 0.107699
H	-3.0438082194	-1.850904923	 0.23772663	 0.11769
H	-0.8130229634	-2.9603893577	-1.5427410388	 0.115628
H	-2.481233763	-2.5715197465	-1.9993448501	 0.133041
H	-1.4423512787	 0.499530676	-3.1579580729	 0.296995
