16
gdb 74160	2.81614	1.54957	1.08712	6.7173	74.54	-0.2309	-0.014	0.2169	1079.8173	0.124835	-437.928056	-437.920263	-437.919319	-437.960083	30.614	
N	 0.0667058382	 1.3684120681	-0.1177800462	-0.601189
C	-0.0201787325	 0.0085407761	-0.0351066784	 0.310597
C	-1.1040311808	-0.7990066498	-0.0297331156	-0.412755
C	-0.6572479131	-2.1868371394	 0.0017951668	 0.418184
O	-1.2677950871	-3.2189111458	 0.0204926843	-0.361353
O	 0.7419431622	-2.1800356386	 0.0176412921	-0.28092
C	 1.1890724076	-0.8526231609	-0.0165883024	 0.40619
C	 2.4463885919	-0.5489167001	-0.7890400491	-0.318839
C	 2.4609547147	-0.5200515339	 0.7209021457	-0.333182
H	 0.9054505571	 1.8094044553	 0.2249853971	 0.261062
H	-0.7733209281	 1.8945965002	 0.0642833092	 0.26813
H	-2.146924187	-0.522887331	-0.042816447	 0.111604
H	 2.9139061021	-1.3934626289	-1.2811297621	 0.146718
H	 2.4909939071	 0.3869430333	-1.3357264404	 0.125251
H	 2.5340957391	 0.4337586895	 1.2346343952	 0.112768
H	 2.9324121386	-1.3476499642	 1.2375938609	 0.147734
