21
gdb 121369	3.2617	0.94758	0.80895	2.3239	75.64	-0.2411	0.0671	0.3082	1473.078	0.18177	-461.34634	-461.336451	-461.335506	-461.381996	34.923	
C	-0.0314062718	 1.3301276361	 0.1469527932	-0.224278
O	-0.0417567567	-0.0685695376	-0.002370503	-0.240357
C	 0.7128487442	-0.5058568926	-1.1162085838	-0.080952
C	 0.5896290832	-2.018524467	-1.190295275	-0.029015
C	-0.8295667205	-2.5410337217	-1.4478940683	-0.063305
O	-0.6678414997	-3.8720293831	-1.9393634017	-0.265856
C	 0.654313421	-4.0422887896	-2.4349447268	-0.08309
C	 1.3614039552	-2.6816144946	-2.3400935799	 0.064107
O	 1.1688504075	-1.8859964286	-3.5053605167	-0.435648
H	 0.9885788918	 1.7172314522	 0.3024752732	 0.101882
H	-0.4580866599	 1.8390240125	-0.7319855743	 0.104453
H	-0.6372055545	 1.5716848425	 1.0238497493	 0.125745
H	 0.3408875008	-0.0470146403	-2.0435429195	 0.108938
H	 1.7699874311	-0.208930787	-1.0054049398	 0.083477
H	 0.9558298279	-2.4447210975	-0.2488636334	 0.088326
H	-1.4446468789	-2.5764969222	-0.5457881751	 0.1146
H	-1.3390906917	-1.9157621211	-2.1957328753	 0.097147
H	 1.1782883262	-4.8010144316	-1.8350403148	 0.094223
H	 0.6222825909	-4.3979435665	-3.4746340797	 0.086625
H	 2.4326183223	-2.7932967547	-2.1208332139	 0.067162
H	 1.5187171616	-2.3677702777	-4.2609008445	 0.285818
