18
gdb 46918	3.22245	1.41409	1.0647	3.1186	72.53	-0.2227	-0.0183	0.2044	1111.9793	0.148485	-439.064778	-439.056963	-439.056019	-439.097736	30.305	
O	 0.0160115797	 0.2350905492	-0.8011226705	-0.29236
C	-0.0231734409	 1.2667315948	-0.1710158511	 0.364251
C	-1.3825951344	 1.9000255249	 0.1495037117	-0.267604
N	-1.3983402032	 2.7916404643	 1.2978398964	-0.287912
C	-0.790688582	 4.0637136174	 1.0559688888	-0.04514
C	 0.01170467	 4.6737483207	 2.187112875	-0.337057
C	 0.7230990724	 4.0425040611	 1.0330080691	 0.125776
O	 1.3540092371	 2.8283479889	 1.280743326	-0.227091
C	 1.3158158417	 1.9389135533	 0.1864509561	-0.172935
H	-1.7117908197	 2.3859859434	-0.7913336803	 0.107447
H	-2.068627288	 1.0659861819	 0.3207191427	 0.131262
H	-2.3370883295	 2.8907595908	 1.6632391796	 0.230043
H	-1.2796969108	 4.7469686797	 0.3551644497	 0.075353
H	 0.0410521257	 5.7525480615	 2.2863539995	 0.115777
H	 0.0235927903	 4.1113731438	 3.112990519	 0.136046
H	 1.2363472203	 4.6812753898	 0.3130464266	 0.08828
H	 2.019168496	 1.1314958979	 0.4039028768	 0.140743
H	 1.6657611052	 2.4339611664	-0.7367989452	 0.115121
