16
gdb 5517	3.31033	1.79641	1.20606	3.8537	67.93	-0.2085	0.0317	0.2402	975.5198	0.131521	-379.960456	-379.952393	-379.951448	-379.993376	28.757	
C	-0.1312249018	 1.5226646955	 0.1192079561	-0.493519
C	-0.0056841903	 0.0384990789	-0.0086562298	 0.19055
C	 0.0733708142	-0.7268326123	-1.1484304702	 0.257722
C	 0.1003078134	-0.4151341502	-2.6041375398	-0.209087
O	-0.5826702683	-1.4654320114	-3.2899498694	-0.426879
N	 0.2055153729	-2.0277075292	-0.7071354956	-0.282271
C	 0.1768364957	-1.9972202693	 0.652006777	 0.002534
N	 0.0641295463	-0.7715149178	 1.10817558	-0.313722
H	 0.8098712214	 1.981618632	 0.4448353815	 0.129483
H	-0.4148291988	 1.9860154551	-0.8305916298	 0.11157
H	-0.8887116832	 1.7775776653	 0.8664935139	 0.136728
H	-0.3739273043	 0.5619842671	-2.7764651523	 0.108964
H	 1.1377006344	-0.3399276953	-2.9718586782	 0.102063
H	-0.4365985222	-1.3485143601	-4.2336044752	 0.291652
H	 0.1841939569	-2.8322187065	-1.3117752799	 0.269419
H	 0.2339494236	-2.893807732	 1.2513710217	 0.124794
