18
gdb 75825	2.50969	1.68071	1.20188	4.3962	71.43	-0.2351	-0.0204	0.2146	1055.5127	0.147028	-439.090985	-439.082331	-439.081387	-439.124622	32.613	
C	-0.3278564676	 1.4447066455	 0.0938557843	-0.501407
C	 0.1160984406	 0.0097823238	 0.0257667181	 0.302115
N	-0.619297155	-1.0453139362	 0.7642858378	-0.383953
C	 0.7802444859	-0.7237975312	 1.1380043931	-0.090523
C	 1.7490439639	-1.755563578	 0.5988059167	-0.32142
C	 1.3396500496	-1.8668449542	-0.8743596782	 0.337908
O	 1.48867385	-2.8197860557	-1.5891391689	-0.297803
C	 0.6180215005	-0.5589707531	-1.2942605036	 0.007477
O	-0.3607172305	-0.7436331282	-2.2831536791	-0.422827
H	 0.4774600604	 2.1213276562	-0.2123793948	 0.127151
H	-1.1757947198	 1.613281501	-0.5783134727	 0.141954
H	-0.6316527152	 1.7199103821	 1.1095767253	 0.112996
H	-1.2590453527	-0.6119035158	 1.4259586783	 0.232812
H	 0.9670928787	-0.2352866141	 2.0889907336	 0.092705
H	 2.7868103767	-1.4031249268	 0.6641742657	 0.125962
H	 1.6889382979	-2.7307207037	 1.0882280664	 0.136871
H	 1.368060119	 0.1196625665	-1.7256764804	 0.107345
H	-0.9322654324	-1.4596666983	-1.9806338314	 0.292638
