19
gdb 83693	2.41059	1.50014	1.18035	2.4162	75.	-0.2394	-0.0251	0.2142	1104.4597	0.159086	-422.998345	-422.989857	-422.988913	-423.032786	31.835	
O	 0.434110146	 1.0066377083	 0.6527492596	-0.419331
C	 0.0386604256	-0.239228348	 0.1330435206	 0.107128
C	-1.4799743724	-0.4102557041	-0.0188504946	-0.037185
C	-2.2421725765	 0.8463683897	-0.5345649447	-0.237718
C	-2.2502403875	 0.2509062005	-1.9743287617	-0.231793
C	-1.2858607438	-0.8676992482	-1.5109781171	-0.035542
C	 0.2385504984	-0.5197682005	-1.4182246541	-0.15843
C	 0.7943867578	 0.6513726383	-2.1807732182	 0.153584
O	 1.9130740392	 0.6801586051	-2.6351272443	-0.265782
H	 1.3942036575	 1.0197838144	 0.7270374774	 0.293993
H	 0.4776426135	-1.0648478748	 0.7082898488	 0.080955
H	-1.9899029827	-1.0077542283	 0.7370984393	 0.068027
H	-3.2293685957	 0.9929692111	-0.0927913032	 0.104508
H	-1.6757096192	 1.7717866245	-0.4147257124	 0.125393
H	-3.2269587737	-0.1673398124	-2.2321919263	 0.104442
H	-1.9384576441	 0.8956796954	-2.799775334	 0.101023
H	-1.4852793305	-1.8818589071	-1.8571422308	 0.072415
H	 0.897166507	-1.3706150493	-1.6023259591	 0.090388
H	 0.129437791	 1.5345137453	-2.2747408652	 0.083925
