18
gdb 38470	3.62767	1.63963	1.51661	1.9532	75.07	-0.2373	0.0635	0.3008	917.5077	0.149903	-401.81456	-401.808229	-401.807285	-401.844784	27.374	
C	-0.0449091281	 1.4024195382	-0.1883810459	-0.251459
C	 1.2809285125	 0.7282748144	-0.1189890391	-0.08999
C	 2.03952837	 0.4410629835	 1.1543732693	 0.020949
C	 2.4508558425	 1.1091289328	 2.522424643	-0.017294
C	 1.0574363325	 1.7095583755	 2.6937315936	-0.267363
C	 0.9294233046	 0.2399770253	 2.1728815026	 0.380671
C	-0.1988717546	-0.4692785779	 1.4476636978	-0.29896
N	-0.0295485171	-0.0498741386	 0.0165394031	-0.110912
O	 1.9554899802	-0.1372474526	 3.1915497513	-0.360069
H	-0.4006659965	 2.0456445013	 0.6071226329	 0.118597
H	-0.3972023932	 1.7021869324	-1.1729144828	 0.118818
H	 1.7962584619	 0.5521609607	-1.0583592092	 0.100838
H	 2.6297796667	-0.4682783648	 1.0105965936	 0.096027
H	 3.4241558283	 1.4711582042	 2.8535454595	 0.098367
H	 0.7449816905	 1.8502904009	 3.7289335784	 0.109078
H	 0.7776883546	 2.5418429298	 2.0494858528	 0.103825
H	-0.0758463097	-1.5550902477	 1.4986755892	 0.131432
H	-1.202874635	-0.2092731275	 1.7933762101	 0.117444
