15
gdb 56071	6.29932	0.55504	0.53357	4.5137	68.5	-0.2497	-0.0259	0.2238	1954.0548	0.109132	-491.128729	-491.118639	-491.117695	-491.166484	32.792	
N	-0.0692907266	 1.2842727909	 0.1046592005	-0.563613
C	 0.1402230789	-0.0470799359	 0.0135580515	 0.524048
O	 1.2003628469	-0.6042593795	-0.111222807	-0.378549
O	-1.0865853151	-0.6882171936	 0.0868315174	-0.236225
C	-1.0743959548	-2.0511578492	 0.0171460174	 0.128722
N	-2.1692969674	-2.6637274608	 0.0765101455	-0.224066
C	-2.1244063337	-4.1084428927	 0.0102934882	-0.238842
C	-2.899585513	-4.7212905932	 1.17131679	 0.156478
O	-2.710057753	-5.8329256551	 1.5874049096	-0.234184
H	 0.7251809329	 1.8968636507	 0.0694694478	 0.281069
H	-0.9962361289	 1.6561295879	 0.209777581	 0.280187
H	-0.073456618	-2.4751694336	-0.08856056	 0.144104
H	-2.6449828315	-4.434824377	-0.903551063	 0.143018
H	-1.1151818202	-4.5455375565	-0.0147156618	 0.12242
H	-3.6789819664	-4.0509481025	 1.5947858629	 0.095432
