14
gdb 56952	3.88882	1.0384	0.90224	4.8378	67.24	-0.3057	-0.0129	0.2927	1218.4919	0.100907	-432.848571	-432.840113	-432.839169	-432.882295	30.069	
O	-0.2845648763	 1.2940961082	-0.0815969183	-0.393262
C	-0.0473321734	-0.0836059186	-0.0965506604	-0.023031
C	 0.8460526863	-0.4790422681	-1.2151705353	 0.255438
N	 1.5560741851	-0.7934115738	-2.0704767657	-0.306865
C	 0.5756374917	-0.5820182877	 1.2112976793	-0.035667
N	 1.3590131115	 0.4229009355	 1.9165653327	-0.329192
C	 0.1310067378	-0.0931232392	 2.5525338862	-0.193271
C	-0.9629032431	 0.8262032464	 2.7650839761	 0.335985
N	-1.8558822754	 1.5186652699	 3.0057579942	-0.320419
H	 0.4749274609	 1.7031538288	 0.3616530574	 0.30932
H	-1.0130750686	-0.5784189223	-0.251992616	 0.156491
H	 0.938694964	-1.6064246709	 1.1786936959	 0.131969
H	 2.1923914797	 0.04284078	 2.3545629837	 0.264212
H	 0.2476636698	-0.8025181582	 3.3682438601	 0.148292
