14
gdb 33308	8.08744	0.67792	0.63043	1.2908	92.31	-0.2439	-0.0591	0.1848	1681.3627	0.100455	-399.505677	-399.497336	-399.496392	-399.539618	29.394	
C	 0.1117139034	-3.7333690357	-0.0749216048	-0.571057
C	 0.0635782008	-2.5273276325	-0.0376675743	 0.257859
C	 0.0092128815	-1.171263964	 0.0035350408	 0.112463
C	-0.0437401161	 0.0374788915	 0.0395336433	 0.286982
C	-0.0980706936	 1.4558899214	 0.0830295091	 0.104062
N	-1.153971933	 2.1553525609	-0.0633251392	-0.313417
C	-0.733436222	 3.5580409884	 0.0569797939	-0.205311
C	 0.7966848862	 3.4971328924	 0.3041599432	-0.122172
O	 1.0941522531	 2.0818770169	 0.3004650497	-0.252973
H	 0.1540130009	-4.7941123722	-0.1072092299	 0.200574
H	-0.9925691295	 4.0996223275	-0.8589050344	 0.126393
H	-1.275997313	 4.0354720738	 0.8797754497	 0.126393
H	 1.3871241849	 3.970770482	-0.4846905359	 0.125102
H	 1.1008708866	 3.9060180896	 1.2713823887	 0.125102
