18
gdb 38880	2.78383	2.1729	1.92671	2.7811	68.23	-0.219	0.0746	0.2937	816.7283	0.153199	-439.072431	-439.066726	-439.065782	-439.102115	25.407	
C	-0.0594572206	 1.5419024614	 0.0046079925	-0.216321
C	 1.4786929033	 1.7694456915	-0.0417554874	-0.085613
N	 1.9480133354	 1.7587081537	-1.4323191711	-0.278233
C	 1.2962923407	 0.64339925	-2.1562708602	-0.182189
C	 1.0617816799	-0.4443589775	-1.1003854496	 0.051447
O	 2.294094141	-0.5011628758	-0.363428108	-0.237447
C	 1.9867178415	 0.4239490037	 0.6564756322	 0.202263
O	 0.8163099743	-0.1351601299	 1.2265615392	-0.249859
C	 0.0276647305	 0.0114306024	 0.033519397	 0.0364
H	-0.5386422515	 1.8931759925	 0.9206830363	 0.107462
H	-0.5657080554	 1.982909782	-0.8569238553	 0.093106
H	 1.8347817237	 2.6663732073	 0.4654713108	 0.075933
H	 1.7342773938	 2.64404933	-1.8766935194	 0.218905
H	 0.350922522	 0.9162332089	-2.6506820835	 0.08563
H	 1.9744214015	 0.2657510541	-2.9291441588	 0.112146
H	 0.8416045352	-1.423725991	-1.5264367921	 0.08655
H	 2.7996167604	 0.4927665056	 1.3762051279	 0.096041
H	-0.8901416458	-0.5701417091	 0.1015071194	 0.083779
