20
gdb 100193	2.19442	1.3876	1.07274	3.6293	75.76	-0.2387	-0.0159	0.2228	1205.9842	0.167582	-440.248424	-440.238208	-440.237264	-440.283815	36.748	
C	-0.0484518146	 1.566708866	 0.2083913518	-0.453809
C	 0.0775754779	 0.0454776661	 0.103141314	 0.159463
C	 0.8059803984	-0.5481782838	 1.3197550456	-0.095021
O	 0.0556663275	-0.2260202244	 2.478985242	-0.417633
C	-1.3127662982	-0.6101832521	 0.0380068358	 0.183804
O	-2.3499096201	-0.0184764793	-0.08891395	-0.253948
N	 0.7598745485	-0.5142487099	-1.0792343468	-0.109689
C	 0.7819980086	 0.2078161555	-2.3438993759	-0.224542
C	 2.0270472246	 0.0406426696	-1.5424241127	-0.232059
H	 0.9195912627	 2.0613589029	 0.0837542784	 0.108045
H	-0.7534740127	 1.9568636283	-0.5275784203	 0.135581
H	-0.4301615904	 1.8206211253	 1.1989585339	 0.150959
H	 0.8911334173	-1.6351738725	 1.1765428164	 0.102606
H	 1.8253222006	-0.1349233563	 1.3646836917	 0.091426
H	 0.4659639854	-0.6515185756	 3.2369731847	 0.294339
H	-1.26998582	-1.721151764	 0.0734845231	 0.080354
H	 0.6068020024	-0.3991867068	-3.227667106	 0.120951
H	 0.3567917143	 1.206808428	-2.3874231915	 0.12306
H	 2.4223851749	 0.9305593984	-1.057880302	 0.116509
H	 2.7786995028	-0.6905728755	-1.8271561122	 0.119606
