15
gdb 32321	2.74493	1.52514	0.98632	4.0463	73.6	-0.2388	-0.0723	0.1665	1119.7831	0.11324	-453.961293	-453.953503	-453.952558	-453.993926	28.98	
O	 0.1159692793	 1.3726061507	 0.0118077029	-0.42653
C	 0.0406793768	-0.024083382	-0.042382184	-0.109907
C	-1.3777396173	-0.5227615642	 0.0447900174	 0.25139
N	-2.3253384534	 0.3434885475	 0.1534604019	-0.336648
C	-3.6323729922	-0.1160648251	 0.2339099332	-0.091287
C	-3.9119600466	-1.4261273969	 0.2002977704	 0.038323
O	-2.9394974046	-2.3658215388	 0.0869089909	-0.221351
C	-1.6132686866	-1.9752864255	 0.0022039671	 0.351898
N	-0.6707725763	-2.8144861805	-0.1046664239	-0.518822
H	-0.7978977643	 1.6855939243	 0.09282834	 0.292457
H	 0.4843874921	-0.4119914467	-0.9727425664	 0.128702
H	 0.6187365185	-0.4869609948	 0.7726530702	 0.128909
H	-4.4151967271	 0.6249528736	 0.3246438503	 0.130562
H	-4.8994245489	-1.8645525173	 0.2571425832	 0.149231
H	-1.0216391194	-3.7727088044	-0.1179265631	 0.233073
