20
gdb 82402	2.29897	1.77835	1.14302	3.2192	78.52	-0.218	-0.0087	0.2092	1105.3977	0.172067	-403.15148	-403.143031	-403.142087	-403.1849	32.744	
C	 0.0602333878	 1.5899809399	 0.056589381	-0.391278
C	 0.0859250623	 0.0584013765	 0.0187262908	-0.114782
C	 0.7124417323	-0.5326016859	-1.2448075493	-0.029154
C	 2.1061386142	-0.2030959116	-1.73440241	-0.289395
C	 1.8086137725	-1.5636622663	-1.1481790251	-0.015234
N	 2.3004615928	-1.8056376429	 0.1829010325	-0.306912
C	 1.2543886784	-1.9284448105	 1.1936236731	-0.266138
C	 0.6205121686	-0.5448519517	 1.3258376122	 0.414541
O	 0.5167499357	 0.0233582934	 2.3861307637	-0.315109
H	 1.0754519911	 1.9962809892	 0.0276378984	 0.123127
H	-0.4872182787	 1.9873316364	-0.8030965788	 0.108635
H	-0.4159243308	 1.938436991	 0.9749334142	 0.136537
H	-0.9598711692	-0.29265411	 0.0240782279	 0.10664
H	-0.0052511252	-0.7014149824	-2.0417968475	 0.09019
H	 2.2506737669	-0.0998448638	-2.8044145347	 0.107401
H	 2.7316249705	 0.4342905212	-1.1198725518	 0.122068
H	 1.7494098051	-2.4196510141	-1.8209587476	 0.077721
H	 2.9650876187	-2.5656659071	 0.219256272	 0.229749
H	 0.4710950104	-2.6716790363	 0.949236939	 0.089824
H	 1.6941818566	-2.1942444653	 2.15701284	 0.121571
