18
gdb 46490	4.03283	1.19159	1.02013	3.6123	81.75	-0.2159	-0.0494	0.1664	1171.6414	0.149361	-401.958967	-401.951273	-401.950329	-401.991185	30.441	
O	 0.0117817291	-0.0630557256	 0.1146449525	-0.332151
C	-0.0047232651	 1.1422307886	-0.0407767879	 0.35677
C	-1.3126506473	 1.939376481	-0.09685831	-0.295369
N	-1.2404699728	 3.1538851954	-0.9147728189	-0.361327
C	-0.1113690081	 3.987225688	-0.5654838901	 0.308978
C	-0.0851000957	 5.354789428	-1.2125249049	-0.321188
C	-0.4195790104	 5.2481844546	 0.2442968964	-0.279616
C	 1.1605159101	 3.2886092714	-0.2947047434	-0.077365
C	 1.2220281124	 1.9585679607	-0.1162824592	-0.198884
H	-2.1095482381	 1.2886875299	-0.4645251193	 0.127086
H	-1.5745894668	 2.2218804578	 0.9328402457	 0.12999
H	-1.1456317685	 2.8807619306	-1.8898141603	 0.223997
H	 0.8773658186	 5.763042743	-1.5002333453	 0.120759
H	-0.8969749062	 5.5644640093	-1.8996285831	 0.129035
H	-1.4559480228	 5.368139767	 0.5351786339	 0.134715
H	 0.3111495802	 5.5794722657	 0.9730929759	 0.120576
H	 2.0627362103	 3.8954264941	-0.2386918513	 0.106443
H	 2.1616330011	 1.4401101605	 0.0445693994	 0.107549
