20
gdb 55816	3.63809	1.01955	0.92875	3.093	79.1	-0.2336	-0.0115	0.2221	1316.2246	0.170284	-403.117611	-403.108699	-403.107755	-403.152107	33.069	
C	 2.1227049688	 0.4443498665	-0.7889601157	-0.481754
C	 0.7398461478	 0.0968830051	-0.2705623835	 0.380655
O	 0.299485052	 0.5640448025	 0.7536745568	-0.296865
C	-0.081934513	-0.8904635383	-1.1049611904	-0.325257
C	 0.560652529	-2.2668107626	-1.1452684067	 0.003616
C	 0.2766367436	-3.3360518894	-2.1224515513	-0.04796
C	 0.0165826527	-2.80257444	-3.5289151666	-0.251247
C	 1.3909477627	-2.1009477144	-3.4130915109	-0.155765
N	 1.6604157455	-2.6848998091	-2.0477062801	-0.152365
H	 2.7085111581	-0.4649683377	-0.9603708469	 0.166004
H	 2.0408638415	 0.9561327972	-1.7555199968	 0.134036
H	 2.631265936	 1.0957841465	-0.0774162268	 0.139582
H	-1.0667772904	-0.966604178	-0.634986191	 0.126412
H	-0.221230646	-0.4829965088	-2.1115759314	 0.112846
H	 0.7683852425	-2.6482338024	-0.1460867301	 0.108011
H	 0.116896349	-4.3637766798	-1.8100850811	 0.09867
H	 0.0069348395	-3.5862994741	-4.2877202122	 0.115894
H	-0.8752318722	-2.1817776624	-3.6585659919	 0.106854
H	 2.1346902764	-2.4884383012	-4.1114423729	 0.117755
H	 1.4155897665	-1.0077236596	-3.4552321706	 0.100879
