20
gdb 60084	2.37284	1.18389	1.00187	5.2489	80.87	-0.2288	0.0246	0.2534	1302.0777	0.170147	-399.294577	-399.284841	-399.283896	-399.329284	35.484	
C	-0.1407251123	 1.5291839355	 0.1820120027	-0.336377
N	-0.0225197266	 0.0861247618	 0.037862607	-0.037561
C	 0.7437963015	-0.5086801925	 1.1212944079	-0.319404
C	-1.2918113845	-0.5832860821	-0.1613561212	-0.216326
C	-1.9591036262	-0.2261912957	-1.4837331967	 0.114263
C	-3.4346750938	-0.424908842	-1.6171420608	-0.266262
N	-2.8818660612	 0.9285270921	-1.5769362229	-0.320067
C	-1.1307827196	-0.4246666932	-2.657827125	 0.305473
N	-0.4837229817	-0.62031738	-3.5950359346	-0.340541
H	 0.8564058099	 1.9647777865	 0.2895288995	 0.12915
H	-0.5998311678	 1.9675475762	-0.7071689832	 0.147165
H	-0.7371713406	 1.8266029617	 1.0678920469	 0.085258
H	 0.2632720671	-0.39495704	 2.1121726634	 0.092863
H	 0.8873417885	-1.5770210617	 0.933690074	 0.125006
H	 1.7299712496	-0.0381453741	 1.1715416477	 0.126975
H	-1.108188749	-1.6636204103	-0.1474275912	 0.123646
H	-2.0248841826	-0.372692015	 0.6472552561	 0.072504
H	-3.8465353784	-0.7257161866	-2.5747107278	 0.14642
H	-3.9550343765	-0.8129039796	-0.7450156547	 0.126198
H	-2.9982155958	 1.3293623692	-0.6485028171	 0.241615
