18
gdb 90311	2.6535	1.6376	1.26823	3.1164	78.33	-0.2061	-0.0044	0.2017	1033.9651	0.148971	-401.964265	-401.95643	-401.955486	-401.996465	30.601	
C	-0.0108004434	 1.5369964014	-0.1593474074	-0.39925
C	 0.0249105821	 0.0176607923	-0.0835235148	 0.008289
C	 1.244118606	-0.6438351289	-0.8394835518	-0.305304
C	 1.8792920306	-0.7331454837	 0.5292329512	 0.127331
C	 2.8391225211	-0.074733262	 1.1940334635	-0.113632
N	 2.3416362216	 0.3513407624	 2.4401824725	-0.309015
C	 0.9575928337	 0.1967983919	 2.5450436101	 0.394143
O	 0.2855129785	 0.5218448951	 3.4960781388	-0.372906
C	 0.580871704	-0.5803994422	 1.2793504375	-0.191719
H	 0.9672144951	 1.9677305175	 0.0818116528	 0.1226
H	-0.2812213079	 1.8669336623	-1.1677618916	 0.116188
H	-0.7426465787	 1.9478922261	 0.542596713	 0.135507
H	-0.9466801977	-0.4044914186	-0.353065603	 0.08345
H	 0.9771523476	-1.6099048817	-1.2784217935	 0.109022
H	 1.7488025416	-0.0337757732	-1.5931521029	 0.105503
H	 3.8091211925	 0.2696071755	 0.8606000676	 0.122105
H	 2.887225742	 0.7534422057	 3.1850126982	 0.258422
H	 0.0372765613	-1.4852787999	 1.5624645998	 0.109265
