23
gdb 116209	2.3361	1.39924	1.02255	1.4602	85.76	-0.2401	0.0892	0.3292	1282.1827	0.206258	-388.290501	-388.281282	-388.280338	-388.324931	35.258	
C	 0.0259387238	 1.5620638249	-0.3822833837	-0.382769
C	 0.0487733107	 0.0320710465	-0.3377590689	-0.170945
C	-1.266035383	-0.5650234668	 0.1699750045	 0.066464
O	-2.3351140959	-0.1004971432	-0.670133988	-0.277322
C	-3.121040236	-1.197957799	-1.1203629428	-0.066447
C	-2.1718474265	-2.3973224617	-1.1229585554	-0.302537
C	-1.3472567693	-2.0976883992	 0.1194550053	 0.347096
C	-0.2559918078	-3.0004949049	 0.6164345462	-0.335876
C	-1.5562832786	-2.9012985791	 1.3796341018	-0.315796
H	 0.9713713681	 1.9601859363	-0.7632193304	 0.10534
H	-0.7827296425	 1.9138353358	-1.0274714007	 0.135161
H	-0.1356773378	 1.9834024856	 0.6166351803	 0.108904
H	 0.2541801001	-0.3707602184	-1.3372922772	 0.092639
H	 0.8621447785	-0.3096502171	 0.3141824707	 0.088621
H	-1.4469406118	-0.205506363	 1.1953721238	 0.066499
H	-3.9680317306	-1.3761602288	-0.4386257926	 0.08878
H	-3.5226974462	-0.9435574341	-2.1058896737	 0.102755
H	-2.6882925888	-3.3596525164	-1.0761070409	 0.098337
H	-1.5474649829	-2.3855643789	-2.0241982755	 0.104909
H	-0.0541452866	-3.9099538627	 0.0595514532	 0.111899
H	 0.6274349369	-2.5516068827	 1.058408783	 0.11405
H	-1.5466298424	-2.3742448487	 2.3286528488	 0.111742
H	-2.2385915314	-3.7448355541	 1.3454837022	 0.108496
