18
gdb 8412	3.56242	1.6801	1.48266	2.3686	68.69	-0.2209	0.0698	0.2907	932.1664	0.15166	-384.89884	-384.890473	-384.889529	-384.931393	31.317	
C	-0.152383948	 1.512181678	 0.0771695864	-0.446479
C	 0.0028347561	 0.0084033257	 0.0510777762	 0.314666
O	-1.1561733217	-0.694533632	-0.2977328556	-0.452706
C	 1.3418246624	-0.6099108906	-0.3501078285	-0.436323
C	 0.8586245189	-0.6812002436	 1.0706270096	 0.443933
C	 1.4690734748	-0.1449352068	 2.3618800911	-0.36158
C	 0.9937773474	-1.4918680736	 2.9479277008	-0.069304
O	 0.4799862313	-1.9191354958	 1.6650763387	-0.296608
H	 0.7567037207	 2.0045722818	 0.4352806544	 0.116564
H	-0.3608035001	 1.8978396179	-0.9287591191	 0.109709
H	-0.9838905185	 1.8005053621	 0.7285760272	 0.12652
H	-1.3035683815	-0.5700985746	-1.2420098089	 0.280582
H	 1.2873536338	-1.5408540006	-0.9054365616	 0.123504
H	 2.1789480355	 0.0365263996	-0.5978657943	 0.106824
H	 2.5516348913	-0.0040935632	 2.340126651	 0.113109
H	 0.9948127999	 0.7464977649	 2.7767406506	 0.114355
H	 1.7816650049	-2.1607124088	 3.3114755007	 0.105764
H	 0.199318433	-1.4262779202	 3.7000339614	 0.107472
