19
gdb 39997	3.18616	1.49046	1.25063	1.7475	79.47	-0.2424	0.0203	0.2627	1047.8867	0.160679	-385.869711	-385.862424	-385.86148	-385.901541	29.401	
C	-0.5696079469	 1.3069664362	 0.2613644685	-0.264239
O	 0.7985544682	 1.0438465793	-0.0786686718	-0.271813
C	-0.0810212056	-0.0586659347	 0.0597775055	 0.466658
C	 0.1238554094	-1.1763610937	 1.0866110446	-0.334565
C	-0.440516426	-2.1774348855	 0.0268127079	-0.064264
C	-1.9126403389	-2.4751347362	 0.1209032166	-0.074417
C	-2.6291866715	-1.8393383388	-0.8068424331	-0.058512
C	-1.7801668704	-0.9950765427	-1.7324228963	-0.275265
C	-0.3890452825	-1.054266873	-1.0719098994	-0.117368
H	-0.7389760174	 1.6734785414	 1.2736468559	 0.112208
H	-1.1538205955	 1.803077323	-0.512803669	 0.113316
H	 1.1848223563	-1.3352469214	 1.3003359936	 0.112827
H	-0.4217778073	-1.0935277234	 2.0303330813	 0.102812
H	 0.167413861	-3.0740106958	-0.1241590758	 0.076055
H	-2.32190932	-3.1407135965	 0.8741121588	 0.090926
H	-3.70590358	-1.914002917	-0.9186343935	 0.091667
H	-1.7716457668	-1.4080207328	-2.7501957752	 0.106908
H	-2.1554522144	 0.0317195364	-1.8250604711	 0.104605
H	 0.4378085082	-1.1214090847	-1.7815683474	 0.082461
