20
gdb 123207	10.30944	0.41862	0.40742	5.4081	78.99	-0.2621	0.0094	0.2715	2574.7489	0.168154	-440.269	-440.258098	-440.257154	-440.306946	35.931	
C	-0.0450549562	 1.3168871603	-0.0560471465	-0.2301
O	 0.0056785756	-0.0886334856	-0.0057875171	-0.228228
C	 0.6798901202	-0.5736979631	 1.131427899	-0.051301
C	 0.6704271535	-2.0962717876	 1.0757242096	-0.215747
C	 1.3782342432	-2.7215994313	 2.2673600139	-0.054946
O	 1.3173508709	-4.1325764596	 2.1261045013	-0.236592
C	 1.9480870495	-4.8036941466	 3.18495081	-0.185175
C	 1.846275395	-6.2507873938	 2.9718759131	 0.265144
N	 1.7835661036	-7.3951114405	 2.8337492489	-0.29125
H	 0.9622472086	 1.7619960553	-0.0897163408	 0.104052
H	-0.5828130765	 1.5921013896	-0.9663257912	 0.13067
H	-0.5762828388	 1.7387147225	 0.8121539322	 0.104051
H	 1.7166880898	-0.1927381805	 1.1563276821	 0.085028
H	 0.1869888621	-0.2160502521	 2.0532990535	 0.085018
H	-0.3647592972	-2.4504169031	 1.0424594592	 0.125374
H	 1.1551543072	-2.4273319582	 0.15183273	 0.125376
H	 2.4305625796	-2.3937858376	 2.3160899553	 0.095372
H	 0.8988997331	-2.4175144953	 3.2134026404	 0.095376
H	 3.0152589887	-4.5354811709	 3.2601498771	 0.138937
H	 1.4855077982	-4.5597647519	 4.1560138001	 0.138942
