19
gdb 68364	2.7092	1.66669	1.247	4.4019	75.21	-0.2572	0.0139	0.2711	1047.3417	0.160144	-423.070084	-423.062417	-423.061473	-423.101899	30.906	
C	-0.1037156571	 1.5064342314	-0.0472799861	-0.466359
C	 0.1023136713	 0.0122347438	-0.0540025566	 0.421275
C	 1.2741354315	-0.6463658394	-0.8274467896	-0.267812
C	 1.1572695428	-1.8013633347	 0.208113914	-0.039162
C	 0.5916611155	-0.7495983755	 1.205077527	-0.26781
C	 0.0135446318	-2.7183798045	-0.2224912243	-0.347087
C	-1.2393413815	-1.9258367316	-0.6029946816	 0.405473
O	-2.2625162072	-2.4316136695	-0.9721017078	-0.332946
O	-1.1489643304	-0.5738137577	-0.5039246879	-0.267302
H	 0.8071692911	 2.0125835246	 0.2841944747	 0.116738
H	-0.3579069971	 1.8634554846	-1.0498475311	 0.133533
H	-0.9209823926	 1.7782707169	 0.6275532692	 0.133532
H	 1.1124109269	-0.8707224684	-1.8853119246	 0.107722
H	 2.1971830868	-0.074444792	-0.7060640102	 0.107074
H	 2.0565698493	-2.3555621217	 0.4819324992	 0.074068
H	 1.3836868293	-0.1974965395	 1.716666721	 0.107074
H	-0.1674624084	-1.0643166876	 1.926363372	 0.107724
H	 0.2837312453	-3.3306183303	-1.0898886162	 0.137129
H	-0.2744869972	-3.414992169	 0.5724839189	 0.137137
