18
gdb 8705	2.58822	1.71525	1.36481	2.7024	64.6	-0.2393	-0.0259	0.2134	990.5469	0.149332	-422.065881	-422.05587	-422.054926	-422.100795	34.473	
C	-0.1294377606	 1.2476669963	 0.2254233849	-0.252608
O	-0.0201401645	-0.15043728	 0.0149632708	-0.290078
C	 0.6936974139	-0.5658442447	-1.154701305	 0.278982
C	 2.0733416565	 0.0637976534	-1.3078039423	-0.44504
C	 0.7706177658	-2.0878737807	-1.0037267257	-0.126058
O	 1.2910555692	-2.6072648788	-2.2158063979	-0.417708
C	-0.2241753192	-0.2455086891	-2.347477203	 0.154228
O	-0.0005612695	 0.5783923505	-3.1937533235	-0.250329
H	 0.8376935873	 1.705055746	 0.4685986372	 0.117847
H	-0.5529975939	 1.7705206968	-0.6423435275	 0.125067
H	-0.802136624	 1.3752070749	 1.076653681	 0.130755
H	 2.621103743	-0.0023543503	-0.3629757385	 0.115775
H	 2.6285009614	-0.4805881803	-2.0746656423	 0.148058
H	 2.0071907802	 1.1073642308	-1.6201726677	 0.133754
H	 1.4045077128	-2.3283066238	-0.1383132714	 0.100767
H	-0.2416055243	-2.464851944	-0.796110217	 0.10121
H	 1.293359193	-3.5668287396	-2.1622257248	 0.296616
H	-1.1845114372	-0.8093744574	-2.3194748975	 0.078761
