27
gdb 102584	2.36579	0.98405	0.75215	0.1095	96.37	-0.2788	0.0868	0.3656	1661.2268	0.25184	-353.556585	-353.545743	-353.544798	-353.592885	40.441	
C	 0.8349656476	 0.8195613747	-0.8888397629	-0.384129
C	 0.2542253709	-0.4387092209	-0.2311910915	-0.183285
C	 0.8410881296	-0.7762711616	 1.163998866	 0.023704
C	-0.0070238403	-0.2321451594	 2.3312956537	-0.172303
C	-0.1852232813	 1.2887129762	 2.380359876	-0.39209
C	 1.0297493332	-2.2866163097	 1.3231363327	 0.061242
C	 2.0527616009	-3.0281951513	 0.4118888974	-0.236477
C	 2.451992335	-3.900357809	 1.6319824587	-0.221075
C	 1.8049216157	-2.8363311547	 2.5570463034	-0.232617
H	 1.9143642105	 0.7127686825	-1.0444061524	 0.11229
H	 0.3766716488	 1.0005712724	-1.8668953485	 0.107934
H	 0.6805603014	 1.7139676818	-0.2790094606	 0.118085
H	-0.8371445647	-0.3466679556	-0.1523958514	 0.090074
H	 0.4312958308	-1.2842567234	-0.9064458857	 0.096652
H	 1.8405229716	-0.3175026719	 1.2316875231	 0.055679
H	-0.9965318222	-0.7094958348	 2.2940014872	 0.089532
H	 0.4492334521	-0.5613651498	 3.273144106	 0.095874
H	-0.7457037298	 1.6641230278	 1.5187767213	 0.118947
H	-0.7349105644	 1.5846848252	 3.2799071271	 0.10834
H	 0.7819067111	 1.8036538197	 2.3993965101	 0.111875
H	 0.0522464254	-2.7827618465	 1.2534810709	 0.062856
H	 1.6766117201	-3.5391020892	-0.4780268544	 0.092479
H	 2.8671704033	-2.3608968535	 0.1093951311	 0.095322
H	 1.8993660149	-4.8441960033	 1.652232399	 0.099663
H	 3.5129431432	-4.1194991442	 1.7738382971	 0.09365
H	 2.5443070935	-2.1095841704	 2.9120789236	 0.095095
H	 1.2269172331	-3.1878548211	 3.4152645128	 0.092683
