16
gdb 60662	3.1771	0.88702	0.77732	4.9536	81.02	-0.2625	-0.0447	0.2178	1458.2406	0.121558	-396.901231	-396.891285	-396.890341	-396.936537	35.626	
C	 0.2200510406	 1.0765268904	 0.1004056877	-0.379764
C	 0.1175995771	-0.4206167072	-0.2674165119	-0.187413
N	-1.2697194358	-0.8651770978	-0.1505494509	-0.2545
C	-1.6945910593	-1.2978420408	 0.9705548132	 0.269014
N	-1.0472668863	-1.3930642007	 2.1876292424	-0.555021
C	-3.086093114	-1.7156825898	 1.0351265504	 0.275291
N	-4.1835552791	-2.0669742876	 1.1211959934	-0.314759
C	 0.595342206	-0.6584767582	-1.6318301867	 0.345299
C	 1.0213992421	-0.8350725628	-2.7405465614	-0.433827
H	 1.2466784992	 1.4277441922	-0.0293347577	 0.131401
H	-0.4376248979	 1.6587908304	-0.5482125159	 0.149147
H	-0.0825315647	 1.2328358476	 1.1396394383	 0.122902
H	 0.7890582937	-0.9844194213	 0.4050807312	 0.084365
H	-0.040725351	-1.3460271759	 2.1903308352	 0.271069
H	-1.4441227018	-2.0161176238	 2.8734504411	 0.277047
H	 1.3850633114	-0.9997776346	-3.7246576486	 0.19975
