12
gdb 18430	4.30701	1.54564	1.38419	3.7322	55.55	-0.2646	-0.0483	0.2163	863.2066	0.08267	-418.471563	-418.464955	-418.464011	-418.502884	23.703	
O	-0.0681317087	 0.0466306295	-0.2758723132	-0.250637
C	-0.0261544006	 1.1847184144	 0.1170666792	 0.15452
C	 1.2251645851	 2.0010658828	 0.0683794565	-0.136204
C	 1.2500671121	 3.480190683	-0.138753561	 0.074755
O	 0.0458302074	 4.0879133697	 0.3964799548	-0.260432
C	 0.4341396757	 3.7197098202	 1.6881249773	 0.46664
O	-0.0821884019	 4.0201228581	 2.7099009183	-0.303736
C	 1.6537465404	 2.9678658511	 1.2090047633	-0.29045
H	-0.9170724649	 1.6912859002	 0.5366753906	 0.11376
H	 2.0705266628	 1.4651317745	-0.3549820573	 0.135327
H	 1.7897580089	 4.0255253231	-0.8994803497	 0.148932
H	 2.6072854237	 2.8736938835	 1.7063338212	 0.147524
