21
gdb 75205	3.53857	1.349	1.1634	1.5574	83.92	-0.2249	0.0186	0.2435	1152.6019	0.182672	-387.09593	-387.087552	-387.086608	-387.128195	33.587	
C	 0.0122620515	 1.5137098727	 0.0593745402	-0.505065
C	 0.0065759382	 0.0176193192	-0.0072288414	 0.359245
C	 0.0004910668	-0.7142986962	-1.123588049	-0.17463
C	-0.0172725006	-2.2245215215	-1.022848347	-0.285615
C	-0.0556288848	-2.64715446	 0.4594026712	 0.402553
C	 0.0808323649	-4.1335965607	 0.6854619309	-0.471694
C	-1.133402797	-1.8411603229	 1.2305014988	-0.280483
C	 0.0022354591	-0.7959449981	 1.279291928	-0.012389
O	 0.975906909	-1.8748598069	 1.158242574	-0.323776
H	 0.8995121405	 1.8829276139	 0.5901113081	 0.128686
H	 0.0014340722	 1.9605984631	-0.9386573541	 0.121864
H	-0.8583930801	 1.894410673	 0.6098829282	 0.12303
H	 0.0197574213	-0.2574186925	-2.1098509249	 0.082403
H	-0.88187812	-2.6426844225	-1.5572386856	 0.101366
H	 0.8755894748	-2.6527541049	-1.4993259931	 0.108732
H	 1.0156734751	-4.5034674939	 0.2503396444	 0.124826
H	 0.0855505158	-4.3604627748	 1.7549315362	 0.121029
H	-0.7489839251	-4.6722880425	 0.2150747535	 0.116526
H	-2.0632351706	-1.5744277313	 0.7245959307	 0.096757
H	-1.3319999527	-2.2863577543	 2.2079139696	 0.099631
H	 0.1563771517	-0.2009939389	 2.1830151914	 0.067002
