11
gdb 3882	7.47368	2.23003	1.7205	1.5351	47.65	-0.2064	0.0446	0.251	659.8389	0.081297	-372.785072	-372.779053	-372.778109	-372.814504	22.521	
N	 0.0342591615	 1.3246727685	 0.1630010552	-0.578447
C	 0.0145808498	-0.0506064459	 0.0467846418	 0.407872
N	-1.0999439444	-0.7602500203	 0.0925700963	-0.308802
N	-0.6026937398	-2.0485589737	 0.0137554242	-0.260391
C	 0.7310229546	-2.0063532312	-0.0806674857	 0.462154
O	 1.4586823914	-3.1235936606	-0.1772627589	-0.420586
N	 1.1787220947	-0.7697827482	-0.0657898555	-0.416065
H	 0.8213073137	 1.7505881884	-0.3037931399	 0.256562
H	-0.8456479783	 1.7592961666	-0.0746432259	 0.256968
H	-1.2178280448	-2.8424378309	 0.0315367876	 0.281143
H	 2.3831515616	-2.8483272228	-0.2202303193	 0.319593
