19
gdb 41080	3.38571	1.83761	1.58782	1.8559	78.25	-0.243	0.0721	0.3151	900.1523	0.162751	-385.800727	-385.794676	-385.793731	-385.830701	26.665	
C	-0.0065513278	 1.6399539301	 0.0678871478	-0.244201
C	 1.535682351	 1.504049097	 0.0795955868	-0.175608
C	 1.7328620165	 0.7147413496	 1.4173937888	-0.205004
C	 0.9165836529	-0.5661780042	 1.0179231043	-0.118015
C	 0.0180854834	 0.1082947712	-0.0807696175	-0.036411
C	 1.4123015083	 0.2219609519	-0.8187518324	 0.317781
C	 1.497690338	-0.5778383849	-2.1076939216	-0.216106
O	 1.4326736454	-1.7888045498	-1.2869080491	-0.308584
C	 1.8651629508	-1.0450191184	-0.1008738869	 0.112087
H	-0.4844885291	 2.0979893639	 0.9396124563	 0.089286
H	-0.3825204279	 2.1074089597	-0.8471136378	 0.097436
H	 2.2059242781	 2.3396642001	-0.1155515247	 0.067013
H	 2.7800788734	 0.492778443	 1.6447262951	 0.098127
H	 1.2967078417	 1.2433775375	 2.2691279755	 0.10049
H	 0.5310343719	-1.1829847845	 1.8307040728	 0.064169
H	-0.8017072197	-0.4670640139	-0.5030962884	 0.080241
H	 0.6674341436	-0.5130786345	-2.8187412447	 0.109163
H	 2.4562367061	-0.5211281542	-2.6421463517	 0.100429
H	 2.8997584633	-1.3010165797	 0.1528550274	 0.067708
