22
gdb 68022	2.62004	1.72912	1.32614	1.41	85.75	-0.2253	0.093	0.3184	1072.4611	0.195032	-367.171923	-367.163829	-367.162884	-367.203646	33.839	
C	-0.0539832251	 1.5340754624	 0.0634277501	-0.504413
C	 0.0402273901	 0.0260904005	 0.076360986	 0.322262
C	 0.8636976517	-0.7974312837	-0.9859700716	-0.272858
C	 0.7104057378	-1.9169595959	 0.0941587632	 0.340655
C	 1.5345709557	-3.1780657208	 0.129126474	-0.487979
C	 0.8671301047	-0.763110291	 1.1283064535	-0.323922
N	-0.7671739843	-2.1839503209	-0.0631975522	-0.135077
C	-1.6289143455	-1.7600947498	 1.056110001	-0.268502
C	-1.2662487637	-0.7859610082	-0.0052315308	-0.056372
H	 0.9390581942	 1.9946041733	 0.046769206	 0.114185
H	-0.600599819	 1.8882972727	-0.8183919518	 0.116525
H	-0.5811618768	 1.9050557757	 0.9497106177	 0.118529
H	 0.3956449871	-0.9892044979	-1.9552608771	 0.096535
H	 1.890108818	-0.4416614442	-1.108783141	 0.088445
H	 2.6044324723	-2.9485422385	 0.1521949089	 0.109777
H	 1.2965715612	-3.7735111187	 1.0175422468	 0.11782
H	 1.3282356006	-3.7953995871	-0.7505906797	 0.126984
H	 1.9005799153	-0.4112689886	 1.162585637	 0.094457
H	 0.4993261885	-0.8715560523	 2.1499522147	 0.090062
H	-2.6183569903	-2.2084895816	 1.0168962236	 0.113369
H	-1.230767083	-1.6718900935	 2.0602625928	 0.113989
H	-2.0021968094	-0.4859307119	-0.748859531	 0.085527
