17
gdb 36132	4.00273	1.12604	1.00455	3.6073	77.37	-0.2374	-0.003	0.2344	1184.8976	0.137097	-380.865982	-380.858241	-380.857296	-380.898725	29.534	
N	-0.2164995608	-1.1165967365	 0.3016304841	-0.309679
C	-0.1201499394	 0.0103521529	 0.0653295507	 0.261628
C	 0.0304044073	 1.433324289	-0.2395604471	-0.426918
C	 1.4706868402	 1.9038473244	-0.0953669107	 0.301713
C	 1.9929001869	 2.4419657055	 1.1926066053	-0.268733
N	 1.6963550638	 3.3552525559	 0.0793468018	-0.1494
C	 2.8665807431	 3.7070943577	-0.7595103847	-0.216286
C	 3.3172588566	 2.4120310409	-1.3995389376	-0.087726
C	 2.5185322921	 1.4085408092	-1.039543411	-0.140067
H	-0.3241527533	 1.6130686889	-1.2613124778	 0.156316
H	-0.6111028452	 2.0151490973	 0.4291548632	 0.162901
H	 1.3342746249	 2.5556162032	 2.0502655869	 0.120301
H	 3.0316627859	 2.2273209542	 1.4325947559	 0.120134
H	 2.5645633498	 4.4521473024	-1.5071746549	 0.12061
H	 3.6457986673	 4.1744303777	-0.1444232912	 0.121441
H	 4.1872578719	 2.3373155763	-2.0412272303	 0.109887
H	 2.5916824689	 0.3736687311	-1.3493916927	 0.123876
