20
gdb 39308	2.85418	1.72538	1.3046	1.813	77.58	-0.2222	0.0675	0.2897	1016.1965	0.174481	-403.105793	-403.09866	-403.097716	-403.137272	29.059	
C	-0.0020058492	 1.4786149373	-0.1228603215	-0.246332
C	 1.2814702023	 0.7259723344	-0.0147335288	-0.036584
C	 2.1156083718	 0.8277496651	 1.2418858102	 0.1267
O	 2.2335836306	 2.1552641959	 1.8214679065	-0.293185
C	 2.064338527	 1.6120666471	 3.1493392854	-0.093444
C	 1.5417806338	 0.2809078942	 2.5755670796	-0.056422
C	 0.0184610782	 0.127637893	 2.5600104219	-0.243972
C	-0.4551281631	-0.5693619451	 1.2753905737	-0.142868
N	-0.0183635618	 0.0295731769	 0.0113609054	-0.095529
H	-0.2701112823	 2.109041807	 0.7201376091	 0.120179
H	-0.3226601312	 1.8576253192	-1.0895892696	 0.113299
H	 1.8444765866	 0.5411969207	-0.9267914837	 0.088421
H	 3.1183831574	 0.4281191479	 1.0359054855	 0.068885
H	 3.0222780212	 1.5301771972	 3.6820559443	 0.094694
H	 1.3684330404	 2.2074686297	 3.7516486473	 0.102205
H	 2.0240273027	-0.6279550321	 2.9437045584	 0.074472
H	-0.3182330289	-0.4477805052	 3.4291330923	 0.100307
H	-0.4576798977	 1.1110573549	 2.6434404108	 0.10804
H	-0.0974199838	-1.6073307761	 1.2693220971	 0.103692
H	-1.5496622241	-0.612163662	 1.253956976	 0.107439
