18
gdb 16955	3.32154	2.21837	2.02656	1.5691	70.42	-0.2354	0.0104	0.2458	770.7802	0.157149	-347.811109	-347.804791	-347.803847	-347.841112	26.631	
O	 0.1221279352	 1.3965556487	-0.1445879556	-0.444665
C	 0.0263280602	-0.0069683985	-0.0107914468	 0.164687
C	 0.6481107717	-0.5853324149	 1.3024713671	-0.249638
C	-0.5462114206	-1.3638797836	 1.9429927432	-0.050685
C	-1.2011150059	-1.9480868049	 0.6652538461	-0.215251
C	-1.4440420719	-0.5591961841	 0.033868168	-0.079606
C	-2.1227714382	 0.154587748	 1.1949246607	-0.103602
C	-1.5856326127	-0.3196043005	 2.3255983119	-0.076313
H	-0.3296059838	 1.7823960475	 0.6149974488	 0.272224
H	 0.5377886616	-0.4071365723	-0.8906949484	 0.085843
H	 1.4824628259	-1.2592037751	 1.0858622943	 0.098385
H	 1.0268113661	 0.2165770562	 1.9412294541	 0.096924
H	-0.2623791789	-2.0669021733	 2.7266670569	 0.059971
H	-0.5238008858	-2.5829636667	 0.0832067403	 0.090421
H	-2.128704346	-2.4894510923	 0.8672771174	 0.097535
H	-1.9563087536	-0.5171913675	-0.9271635219	 0.060955
H	-2.8393991546	 0.96023883	 1.0940959777	 0.097591
H	-1.7679101487	 0.0243288232	 3.3366311762	 0.095224
