18
gdb 97397	6.13401	0.73042	0.71367	1.223	78.	-0.2488	0.02	0.2688	1618.2649	0.145976	-439.000349	-438.991795	-438.990851	-439.03487	31.01	
C	-0.1578971341	 1.4211204461	 0.0682611729	-0.316438
N	 0.0769732806	 0.0015552258	-0.0945114305	-0.207291
C	 0.5631828202	-0.619752888	 0.8820695419	 0.127514
O	 0.8359465094	-1.9422704387	 0.788610953	-0.221614
C	 1.2507410776	-2.5918853841	 1.9652479428	 0.162812
C	 0.2951550528	-3.5836911968	 2.6929581446	 0.00634
C	 0.3916292476	-4.549144758	 1.4875194106	-0.227316
C	 1.8098250185	-4.0236545934	 1.8193103975	 0.00093
O	 1.5145832603	-4.199686801	 3.2604154199	-0.307734
H	 0.4100083563	 1.9757310366	-0.6872151501	 0.130827
H	-1.2173005564	 1.6395236098	-0.1069852711	 0.13002
H	 0.1165006347	 1.8113707837	 1.0620952893	 0.097391
H	 0.8167158064	-0.1741014237	 1.8566167589	 0.079141
H	 1.8240996254	-1.9416512097	 2.6313187286	 0.101845
H	-0.5341034971	-3.3860231552	 3.37182507	 0.100312
H	 0.2259947168	-5.5991095439	 1.7297343109	 0.11233
H	-0.0591469287	-4.2378864224	 0.5448343643	 0.128008
H	 2.7839354596	-4.350558447	 1.4572716064	 0.102923
