19
gdb 79293	2.61952	1.75852	1.49821	0.6993	72.84	-0.2281	0.0682	0.2962	969.7632	0.161256	-423.02059	-423.013231	-423.012287	-423.051932	30.143	
C	-0.0533555018	 1.5786150507	-0.004489674	-0.419783
C	 0.004182648	 0.053324409	-0.0147794002	 0.033977
C	 0.9104775884	-0.5450182809	-1.0922158144	-0.116149
C	 2.25857351	-0.668425048	-0.4252474427	 0.081525
O	 2.150354856	-0.1989024272	 0.9124591326	-0.261219
C	 0.7873049207	-0.5716634522	 1.1647658376	-0.017694
C	 0.7946108181	-2.0858576687	 0.8049081768	 0.120901
O	-0.4814945754	-2.6929014429	 0.7345155747	-0.433277
C	 1.4006406217	-1.899635109	-0.5747791098	-0.13525
H	 0.9461246709	 2.003221921	 0.1235891034	 0.130836
H	-0.4699299999	 1.9616412108	-0.9419203737	 0.110523
H	-0.6863793779	 1.9436286423	 0.8116907076	 0.10782
H	-0.9982187366	-0.3806365136	-0.0584203918	 0.0888
H	 0.7951313971	-0.3339941337	-2.146955949	 0.086405
H	 3.222274663	-0.5052547419	-0.8855216497	 0.104295
H	 0.5058430824	-0.2883841134	 2.1784234073	 0.07008
H	 1.4674513411	-2.6404849297	 1.4736529844	 0.071343
H	-0.7985382244	-2.8224153553	 1.6342027169	 0.284329
H	 1.6535222385	-2.7282697671	-1.2214379361	 0.092538
