19
gdb 14778	7.31079	0.63571	0.61634	3.3912	70.92	-0.2515	0.0323	0.2838	1797.0223	0.164146	-402.213643	-402.203812	-402.202868	-402.250212	32.697	
C	 0.0229967494	 1.3302141591	-0.1982376915	-0.229394
O	-0.031865284	-0.0758494342	-0.202852676	-0.230808
C	-1.3129199637	-0.5762791715	 0.1058025171	-0.046157
C	-1.2610311066	-2.0976167483	 0.0516049739	-0.203662
C	-2.6031369367	-2.735754187	 0.4233450491	-0.161063
N	-2.5633487768	-4.1884792297	 0.3762028394	-0.275901
C	-3.2933680424	-4.9261023931	-0.503173931	 0.154342
O	-4.0751198608	-4.480524111	-1.316226909	-0.321552
H	 1.0471767397	 1.6188697889	-0.4465825225	 0.12787
H	-0.6604115219	 1.7691834409	-0.9425032715	 0.105478
H	-0.2342332913	 1.7470479077	 0.7888581978	 0.102575
H	-1.62723864	-0.2357998316	 1.1089895922	 0.082702
H	-2.0610627954	-0.192318163	-0.6096781317	 0.092122
H	-0.9706320508	-2.4133440276	-0.955859437	 0.122723
H	-0.4748821836	-2.4430013097	 0.7347031006	 0.101025
H	-2.9127560915	-2.4095828235	 1.4251754429	 0.108276
H	-3.385464361	-2.4359303113	-0.2782209387	 0.152466
H	-1.9285866777	-4.6760595329	 0.9886346088	 0.245921
H	-3.0938405147	-6.0103894222	-0.3889193429	 0.073036
