16
gdb 29342	1.98547	1.88168	0.97189	1.493	81.31	-0.1854	0.0291	0.2145	1162.7843	0.123227	-400.764471	-400.755423	-400.754479	-400.797879	33.859	
C	-0.0678316564	 1.5074901024	 0.0125990593	-0.515728
C	-0.0179122465	 0.0130199075	-0.0071850977	 0.175695
C	-0.0333961058	-0.8022694994	-1.1038084523	-0.17836
N	 0.0289440363	-2.1251122079	-0.6720893933	-0.311931
C	 0.0833021665	-2.1461068805	 0.6804724589	 0.304043
O	 0.1491377211	-3.3246460022	 1.3283482461	-0.42955
C	 0.0577312378	-0.8444008258	 1.1557428679	-0.024727
C	 0.1005570826	-0.5113821146	 2.5237498011	 0.186797
C	 0.1386792309	-0.2713260979	 3.7069807837	-0.4685
H	 0.8212741544	 1.9334338309	 0.4916900935	 0.130828
H	-0.1290022326	 1.9108898459	-1.0020506938	 0.117553
H	-0.9352229146	 1.873403055	 0.5739190927	 0.130899
H	-0.0831530094	-0.568909015	-2.1543613657	 0.12124
H	 0.0335463974	-2.945268152	-1.2526207597	 0.270095
H	 0.179936078	-3.1267512763	 2.2736722163	 0.311555
H	 0.1710403002	-0.0419479699	 4.742631073	 0.180092
