18
gdb 6606	5.14268	1.37205	1.33118	1.1644	68.4	-0.2456	0.0766	0.3221	982.4476	0.153006	-384.881138	-384.873294	-384.872349	-384.913106	30.159	
C	 0.0030394167	 1.3416412481	 0.0017280722	-0.262328
O	 0.0470037194	-0.070683955	-0.073143276	-0.28751
C	 0.6729638138	-0.5562976464	-1.1941400521	 0.456991
C	 2.1631214292	-0.3624243685	-1.6423539498	-0.326472
C	 1.5046663833	-1.3170030643	-2.664426243	 0.406082
O	 2.1946288122	-1.8501685349	-3.7330311845	-0.470947
C	 0.8387863758	-2.0676680006	-1.4646721849	-0.348906
C	 0.262083182	-0.3706057051	-2.6937029451	-0.361589
H	 1.011690242	 1.7774402062	 0.022309743	 0.114699
H	-0.5488018665	 1.7747188346	-0.8442677892	 0.113638
H	-0.5127978522	 1.5947999442	 0.9302760508	 0.129528
H	 2.451031525	 0.6223000124	-2.0187161673	 0.092358
H	 2.9279772436	-0.7964494927	-0.9937449575	 0.096527
H	 1.5933305852	-2.4108553669	-4.234761762	 0.284113
H	 1.5086996766	-2.6125015886	-0.7951166667	 0.097087
H	-0.0783419145	-2.6251513774	-1.6754018882	 0.087447
H	-0.6916115286	-0.814751031	-2.9934764992	 0.086842
H	 0.416392637	 0.6149164258	-3.1401807106	 0.09244
