16
gdb 43450	3.04666	1.44843	1.0642	1.7795	72.23	-0.253	-0.0144	0.2386	1088.4533	0.126745	-434.102443	-434.094919	-434.093975	-434.13475	28.97	
N	-0.1724178334	 1.2825121359	-0.0876363839	-0.555761
C	-0.0481654987	 0.0218890764	-0.0022807665	 0.340278
N	 1.0931747798	-0.7707031297	 0.0425985054	-0.379891
C	 0.8596880815	-2.1454038035	 0.0283346356	 0.41438
O	 1.7206641893	-2.9860956147	 0.0648129054	-0.345574
C	-0.6537211408	-2.3333127061	-0.053505686	-0.444537
C	-1.2148001038	-0.9239145216	 0.036099072	 0.293018
C	-2.4298114664	-0.5184477271	 0.7950857832	-0.27052
N	-2.4419424752	-0.5470857164	-0.6698432169	-0.351356
H	 0.7215411894	 1.7711520071	-0.118075203	 0.219183
H	 2.0349360118	-0.4066183723	 0.0510190404	 0.26264
H	-0.9046804731	-2.8105578992	-1.005763559	 0.158305
H	-0.9854853523	-2.9998700317	 0.7461958318	 0.145802
H	-3.0267288214	-1.2889696077	 1.2761431475	 0.123479
H	-2.4000497997	 0.4446810629	 1.295896184	 0.138644
H	-2.3164841569	 0.4043947178	-1.01672187	 0.251911
