18
gdb 17911	3.33351	2.26053	2.14239	0.0474	74.66	-0.2182	-0.0008	0.2175	769.9875	0.156062	-310.659142	-310.652791	-310.651847	-310.688972	26.999	
C	-0.1149959549	 1.5390592905	 0.0009390967	-0.424846
C	 0.0782189172	 0.0281168355	 0.0206769418	 0.065355
C	 1.1388712437	-0.5938047533	-0.9581005642	-0.116884
C	 2.4265033664	-0.0585018468	-0.3025930047	-0.073548
C	 2.2295673857	-0.0660103718	 1.0149384434	-0.073554
C	 0.8077481706	-0.6071942384	 1.2592068283	-0.11689
C	 0.7950247491	-2.074866799	 0.7888503817	-0.080392
C	 0.9914048151	-2.0668738933	-0.5295405171	-0.080401
H	 0.8232178774	 2.0795147149	 0.1443693591	 0.120261
H	-0.5495569427	 1.8552100245	-0.9541640412	 0.110103
H	-0.8102787529	 1.8446606108	 0.791004586	 0.110102
H	-0.8916749167	-0.4574691424	-0.127097249	 0.070595
H	 1.0223847235	-0.390369268	-2.023071987	 0.054274
H	 3.3211445344	 0.2151205978	-0.8454732951	 0.095047
H	 2.9259251173	 0.1999291117	 1.798732319	 0.095038
H	 0.3847651233	-0.4162758871	 2.2459966854	 0.054274
H	 0.685156494	-2.9263407756	 1.4468497288	 0.095738
H	 1.0796917794	-2.9102680999	-1.201056452	 0.095727
