17
gdb 78915	3.42362	1.78411	1.58396	1.2094	68.4	-0.2387	0.0659	0.3045	869.8059	0.139064	-421.790022	-421.783899	-421.782954	-421.820261	26.183	
O	 0.1131280925	 1.4385198164	 0.2013107826	-0.439831
C	 0.0446213291	 0.0290952241	 0.0777952638	 0.125289
C	-1.356133542	-0.5236962777	-0.1453636251	-0.118244
C	-1.6133106441	-0.5714026777	-1.6422828631	-0.096736
C	-1.2448952824	-1.8345030533	-0.8837067197	-0.084234
C	 0.2001914487	-1.9928397724	-1.420434152	 0.051875
O	 0.0869318193	-1.7160794783	-2.8470158527	-0.296013
C	-0.2769439892	-0.3785129617	-2.3949143703	 0.054402
C	 0.6900288246	-0.5383591051	-1.1779690486	-0.105996
H	-0.3861076031	 1.8188421929	-0.530432133	 0.281254
H	 0.5014036454	-0.3679528382	 0.990814644	 0.092868
H	-2.1562022087	-0.3321486551	 0.5602044819	 0.092198
H	-2.5825265126	-0.4079939916	-2.0916743811	 0.095244
H	-1.9218467885	-2.6652941576	-0.742485959	 0.096575
H	 0.7675785034	-2.8914014755	-1.1840190486	 0.082741
H	-0.1943726741	 0.3843533258	-3.1679093566	 0.081416
H	 1.7408608219	-0.3394442949	-1.3699104923	 0.087191
