18
gdb 74557	3.73036	1.21762	1.17594	0.6806	72.52	-0.228	0.0192	0.2472	1123.9421	0.14613	-439.088449	-439.079689	-439.078745	-439.121477	33.067	
C	 0.025241642	 1.4422145828	 0.0576128728	-0.479448
C	 0.0208386004	-0.0387164722	-0.0875034236	 0.384672
N	-0.028785383	-0.7064760756	-1.174124803	-0.302172
C	-0.0407688496	-2.0986259146	-0.8022405104	-0.115962
C	 0.0376209735	-2.110388212	 0.7237036499	 0.015416
O	 0.078612648	-0.7417337475	 1.0881151345	-0.243021
C	-1.2042974684	-2.6138889462	 0.0472850019	 0.32286
C	-2.5474266004	-1.9348428111	 0.1284490196	-0.454704
O	-1.2417465059	-4.0162488577	 0.1360204535	-0.457148
H	 0.8835958997	 1.7609010879	 0.6569629577	 0.147545
H	 0.0694614891	 1.904310629	-0.9280349006	 0.154548
H	-0.8774033975	 1.7810679991	 0.5765634651	 0.146468
H	 0.472921526	-2.7969542602	-1.4533268811	 0.099384
H	 0.6355126296	-2.7562179236	 1.3537774993	 0.119416
H	-2.4697969731	-0.8518839266	 0.0225145063	 0.133944
H	-3.1994971347	-2.2974958568	-0.6748789105	 0.11328
H	-3.0275479243	-2.1602076307	 1.0855073877	 0.129593
H	-1.5962839214	-4.3548871241	-0.694463299	 0.28533
