16
gdb 125271	5.29796	1.23692	1.0091	3.1142	79.54	-0.1938	0.0155	0.2093	1133.8169	0.127734	-396.966698	-396.959147	-396.958203	-396.99853	28.922	
C	-0.0168634018	 1.4974864018	 0.0574758415	-0.503613
C	-0.0011142427	 0.0086604128	-0.044557088	 0.346822
C	-0.0384167091	-0.7952474696	-1.1692846023	-0.416558
C	 0.0018621485	-2.1332086413	-0.685869462	 0.404455
C	 0.0622283946	-2.1060064599	 0.7083873424	 0.243013
N	 0.059768183	-0.7813237452	 1.0921394867	-0.468473
C	 0.0998055709	-3.4501076671	 1.1275781943	-0.140294
N	 0.0652002429	-4.2594857281	 0.0675287909	-0.227504
N	 0.0061182981	-3.4518339207	-1.0236210316	-0.359949
H	 0.8885590465	 1.8861694645	 0.5403602912	 0.130608
H	-0.0769755579	 1.9402819832	-0.9390063112	 0.139696
H	-0.8759154139	 1.8606293763	 0.6354764814	 0.130273
H	-0.087964008	-0.4410839561	-2.1868405507	 0.096314
H	 0.0958833519	-0.428265904	 2.0315634014	 0.257151
H	 0.1490993845	-3.8735842987	 2.1190341875	 0.102658
H	-0.0279586076	-3.876923588	-1.9324724315	 0.265401
