16
gdb 74112	2.49049	1.65815	1.08831	5.8489	74.71	-0.2214	-0.0324	0.189	1075.7997	0.125545	-437.907308	-437.899637	-437.898693	-437.939361	29.831	
N	 0.0834412065	 1.3462562409	-0.0198759901	-0.558864
C	-0.0053739506	-0.0208734953	-0.0010307409	 0.393945
C	-1.1915228854	-0.6786455637	-0.0410161941	-0.314098
C	-1.3118616853	-2.1226509984	 0.0348428239	 0.40775
O	-2.3709342976	-2.7111952799	 0.1851940741	-0.367544
C	-0.0310741481	-2.9136756277	-0.0939848207	-0.081734
O	 0.7492702656	-2.6557725056	-1.2790213465	-0.249471
C	 1.2650212501	-2.2190184606	-0.0315160792	 0.046647
C	 1.3190144412	-0.7242300948	 0.1809924046	-0.353891
H	 0.9629432113	 1.7663399414	-0.2718250352	 0.258889
H	-0.7312725546	 1.8694065806	-0.2996683357	 0.264097
H	-2.1242464172	-0.1258006318	-0.1037036775	 0.08654
H	-0.116554978	-3.962507244	 0.1810500168	 0.106175
H	 2.1381429911	-2.7702084434	 0.317861158	 0.099002
H	 2.060398636	-0.2935857282	-0.5067468727	 0.123433
H	 1.687892855	-0.5170113794	 1.1944447952	 0.139124
