23
gdb 121564	6.31667	0.3804	0.37298	1.5033	93.	-0.2412	0.0624	0.3036	2967.6713	0.203305	-388.271159	-388.259371	-388.258427	-388.311576	40.17	
C	-0.0570433818	 1.469886486	-0.5290406191	-0.385216
C	-0.0468690911	 0.0464992452	 0.0346146812	-0.160581
C	-1.4342923891	-0.6017093548	 0.047004713	-0.148651
C	-1.4174913595	-2.0348161286	 0.6159018042	-0.358116
C	-2.7333058692	-2.6651094035	 0.6345777115	 0.036173
C	-3.8338289733	-3.1551603075	 0.6473928069	 0.084408
C	-5.1532646354	-3.7744106155	 0.6432492738	-0.3241
C	-5.3074313441	-4.8239789949	-0.4626473668	-0.062543
O	-6.6221624373	-5.345200752	-0.3606793336	-0.415881
H	 0.9458304952	 1.9081141417	-0.5257455101	 0.111959
H	-0.4235411676	 1.4839663352	-1.5614670295	 0.115037
H	-0.7086307861	 2.1241584748	 0.0606479799	 0.115587
H	 0.6396160061	-0.5766551062	-0.5542298295	 0.094657
H	 0.3568145419	 0.0590118801	 1.055942179	 0.095331
H	-2.1260714007	 0.0084253939	 0.6403036655	 0.10513
H	-1.8435286472	-0.627362626	-0.9702584453	 0.103504
H	-0.7240121974	-2.6496317352	 0.0258012445	 0.122226
H	-1.0051036241	-2.0148532791	 1.6340436726	 0.123607
H	-5.3560473071	-4.2574855515	 1.6071281866	 0.133626
H	-5.9345506876	-3.0160531919	 0.5089207885	 0.133578
H	-5.1306800938	-4.3519513823	-1.4407031136	 0.095899
H	-4.5467082961	-5.6078010142	-0.330367893	 0.09636
H	-6.737626825	-6.0089029636	-1.0464655066	 0.288006
