17
gdb 37514	3.31045	2.16406	1.91245	1.5446	68.05	-0.2314	0.0776	0.309	780.839	0.140801	-421.802991	-421.797825	-421.796881	-421.832235	23.479	
C	-0.0353195239	 1.5711333816	 0.0135419398	-0.220507
C	 1.4949755303	 1.7323056215	-0.0700080592	 0.05199
O	 1.7591269011	 1.0417472706	-1.3073695307	-0.264213
C	 1.3115471471	-0.2461725203	-0.8856434896	 0.049673
C	 2.3164846189	-0.591332103	 0.2421262546	 0.086027
O	 1.60041037	-1.3882345288	 1.2069808372	-0.305867
C	 0.7993372675	-0.1998515893	 1.3894617554	 0.092681
C	 2.0063410049	 0.7279494071	 1.0142072653	-0.094869
C	 0.0481748292	 0.0346461399	 0.056343659	-0.097256
H	-0.481608201	 1.9868937375	 0.9227429337	 0.098945
H	-0.5317450712	 1.9867357073	-0.8653246237	 0.110401
H	 1.9244872851	 2.731756377	-0.0969913412	 0.079138
H	 1.1998971019	-0.9223774235	-1.7294562198	 0.083096
H	 3.3070716182	-0.9587554116	-0.0197022114	 0.087624
H	 0.2478111806	-0.1655174038	 2.3285182509	 0.083878
H	 2.6887601442	 1.0541220864	 1.7938646713	 0.083445
H	-0.8497665033	-0.5518041185	-0.1230856916	 0.075813
