19
gdb 8489	3.02627	1.94914	1.52373	1.8014	72.34	-0.202	0.0773	0.2793	920.6884	0.163712	-365.014934	-365.00638	-365.005435	-365.04715	32.585	
C	-0.1857500981	 1.4584892544	 0.0545219812	-0.332012
N	 0.099062264	 0.036546687	 0.0100757701	-0.106636
C	 1.1695534526	-0.4459867175	-0.9109625997	-0.238418
C	 1.8437942837	-1.1435341297	 0.2731584755	 0.32559
O	 2.3453632547	-2.4312077397	 0.2511062259	-0.463565
C	 2.1951634592	-0.1248717467	 1.3311670549	-0.405692
C	 0.7532946245	-0.5934049929	 1.1648277658	 0.305841
C	-0.0566063968	-1.2086298853	 2.2654385452	-0.480343
H	 0.6948267519	 2.095371148	 0.2550941648	 0.090911
H	-0.6173618083	 1.7733888721	-0.9012351202	 0.119208
H	-0.9279451267	 1.6564503495	 0.8349198061	 0.120366
H	 0.7782814182	-1.1347029937	-1.6671251836	 0.109793
H	 1.7543835422	 0.3432675925	-1.4042882295	 0.086163
H	 3.2954960968	-2.3844038598	 0.0995613557	 0.286311
H	 2.6977798066	-0.5429811404	 2.1984033066	 0.111269
H	 2.5096474547	 0.8815789722	 1.0648930238	 0.101528
H	-0.4904229	-0.4439746327	 2.9207092208	 0.117128
H	-0.8753219479	-1.8033466126	 1.8491490577	 0.127974
H	 0.5687997087	-1.8602139949	 2.8827938589	 0.124583
