21
gdb 63030	3.26314	1.20625	1.14617	1.8426	83.01	-0.2462	0.0854	0.3317	1193.5305	0.181112	-387.043686	-387.034929	-387.033985	-387.076451	34.632	
C	-0.0422730983	 1.5420182877	-0.0008561324	-0.460108
C	 0.0584787592	 0.0275049716	 0.0411995685	 0.328594
C	-1.1730682536	-0.6653247187	-0.5231712012	-0.452969
C	 1.3441453377	-0.720972032	-0.2075403013	-0.096691
C	 2.5822124996	 0.011427961	 0.3410843678	-0.344579
C	 1.9095089795	 0.0168595946	 1.7258549099	 0.454733
O	 2.6036077232	-0.4334555593	 2.8761798548	-0.284029
C	 2.0638215889	 0.8986106172	 2.8853527178	-0.270595
C	 0.6986339779	-0.7198469691	 1.1937234884	-0.192214
H	 0.8346467197	 2.0391731766	 0.4183491101	 0.121037
H	-0.1636846766	 1.8911116991	-1.0330154653	 0.113585
H	-0.9159597167	 1.8837450677	 0.5662389812	 0.114481
H	-1.3326869836	-0.3821439491	-1.569922364	 0.115975
H	-1.0767714535	-1.7547360304	-0.4810990367	 0.115754
H	-2.0724043326	-0.3858850777	 0.0371567592	 0.116269
H	 1.3878104058	-1.5369042032	-0.91946667	 0.085239
H	 3.46693636	-0.6297535646	 0.3625294903	 0.121803
H	 2.8457090052	 0.9717350928	-0.1127831213	 0.099335
H	 2.8041379077	 1.698052901	 2.8687411129	 0.111517
H	 1.2254702265	 1.0571681051	 3.5628718027	 0.112116
H	 0.1886771639	-1.5174150502	 1.7218398288	 0.090747
