20
gdb 15342	5.96317	0.89062	0.84161	0.8521	81.65	-0.2552	0.0583	0.3135	1414.4822	0.175339	-311.827403	-311.818129	-311.817185	-311.861744	34.003	
C	 0.4490406933	 1.5107064089	 0.2455175715	-0.377806
C	-0.1504222875	 0.137395656	-0.0810077141	-0.19042
C	 0.484656919	-0.491575763	-1.3056608845	 0.000472
C	 1.7489037914	-1.3147671429	-1.1994222723	-0.28381
C	 0.4534988994	-1.9733816163	-1.6029214444	-0.005664
C	-0.2333381066	-2.9795369983	-0.6870957039	-0.379803
C	 0.258119289	-4.3406186657	-0.8840905032	 0.306637
C	 0.66846698	-5.455604753	-1.066297728	-0.446635
H	 1.5239631203	 1.4334240316	 0.4390596341	 0.119482
H	 0.312821983	 2.208302923	-0.5882298338	 0.114149
H	-0.0236480919	 1.9508931191	 1.1290447206	 0.110186
H	-0.0310171613	-0.5204290269	 0.7876585933	 0.094196
H	-1.2323601626	 0.2409152906	-0.2390206256	 0.096441
H	 0.4176293084	 0.1402208758	-2.1894902848	 0.08054
H	 2.5301967198	-1.1927666525	-1.9413714851	 0.110272
H	 2.1190236042	-1.5256589338	-0.1998552251	 0.109871
H	 0.3644188056	-2.2359128237	-2.6532498496	 0.09256
H	-0.0917729049	-2.6965444688	 0.3622502322	 0.127667
H	-1.3178425729	-2.959985389	-0.8609412313	 0.12938
H	 1.0294984841	-6.4422469009	-1.218239956	 0.192285
