20
gdb 68455	2.37306	1.90822	1.29193	2.5623	78.07	-0.2159	-0.0088	0.2072	1031.7698	0.172449	-403.158107	-403.149951	-403.149007	-403.19067	32.187	
C	-0.0766456771	 1.5206467646	 0.1230268155	-0.47948
C	 0.0172866095	 0.0131317962	 0.0130383798	 0.200965
C	 1.105634333	-0.6434931157	-0.9087447491	-0.271379
C	 1.1060147636	-1.8364580817	 0.0930311071	 0.007534
C	 0.6398233122	-0.8342872627	 1.1747316616	-0.260786
N	 0.04403846	-2.8052254681	-0.1704579229	-0.297602
C	-1.2865544035	-2.1868643258	-0.3086405408	-0.277184
C	-1.3007238969	-0.6488139332	-0.3548127164	 0.375545
O	-2.3064359497	-0.0397021667	-0.6320759789	-0.333622
H	 0.9021326891	 1.9490893523	 0.3611316801	 0.104417
H	-0.4312886643	 1.9595007062	-0.8139320859	 0.131011
H	-0.7829695345	 1.8152570367	 0.9053018156	 0.126767
H	 0.8507127302	-0.8497885033	-1.9530612764	 0.094975
H	 2.0316332425	-0.0613903202	-0.870419101	 0.103489
H	 2.0438769101	-2.3730667011	 0.2522085053	 0.072832
H	 1.4837230797	-0.3019166504	 1.6200890957	 0.10748
H	-0.0150336861	-1.2061957537	 1.9671185011	 0.107661
H	 0.2690380818	-3.3125244503	-1.0186517368	 0.220093
H	-1.8066103751	-2.5536175774	-1.1983037239	 0.130175
H	-1.9252637446	-2.4631884756	 0.54327109	 0.137109
