13
gdb 13226	8.35556	0.84045	0.81886	5.2698	72.97	-0.2769	-0.056	0.2209	1328.0556	0.095699	-361.422527	-361.415026	-361.414082	-361.455545	25.558	
N	-0.206904992	-3.8222619801	-0.2293444853	-0.332177
C	-0.125744827	-2.6655466147	-0.1587726852	 0.213848
C	-0.0345816944	-1.3062049075	-0.0736848814	 0.00715
C	 0.0445293439	-0.1028722289	 0.0054960724	 0.160665
C	 0.1323151981	 1.344577448	 0.1048477859	-0.057613
C	-0.1874011366	 1.9770953498	 1.4901060622	-0.288331
C	 1.2715781383	 2.4707443658	 1.4376469504	-0.060104
O	 1.4923220996	 1.8288184306	 0.1580344019	-0.270224
H	-0.4157624867	 1.7958450097	-0.7329143957	 0.123168
H	-0.9567310759	 2.7485021661	 1.465794502	 0.129729
H	-0.4123880879	 1.2572695826	 2.2761907188	 0.13548
H	 1.4041003023	 3.5559581986	 1.3706597884	 0.116655
H	 1.9385264184	 2.0725063202	 2.2094996655	 0.121753
