16
gdb 79326	3.68495	1.24116	1.17277	2.82	70.71	-0.2511	-0.0328	0.2182	1068.5324	0.124156	-437.822014	-437.814423	-437.813479	-437.854268	28.734	
O	-0.2257698313	 1.5152954778	-0.1243380308	-0.436004
C	-0.0212186331	 0.1271418677	-0.0892376356	 0.147568
C	-1.2843218199	-0.7234094307	-0.1030886135	-0.117998
N	-1.7265421182	-0.9844648256	-1.4880612135	-0.181326
C	-0.7371289509	-0.2392355317	-2.3528574364	-0.148902
C	 0.3918931097	-0.6302853035	-1.3895225908	-0.211124
C	-0.5713458194	-1.7712229024	-0.9236173229	 0.291772
C	-0.5472638122	-3.2254810554	-0.7792845702	 0.005809
O	 0.4479348001	-3.9069079609	-0.8501500099	-0.269027
H	 0.6203932051	 1.955608422	 0.0047610458	 0.289756
H	 0.6157234771	-0.1778553216	 0.7505651398	 0.090367
H	-2.0161061541	-0.8647366894	 0.6815371177	 0.11687
H	-0.6838094484	-0.7436753213	-3.3189102158	 0.119586
H	-0.9545374478	 0.8252436252	-2.4723719065	 0.12275
H	 1.4330844876	-0.7257549913	-1.6853541939	 0.09374
H	-1.5539932342	-3.6602976889	-0.5909904037	 0.086162
