16
gdb 112329	2.87419	1.39674	1.04202	2.1507	66.34	-0.2642	-0.0044	0.2598	1117.6888	0.124818	-475.007617	-474.999841	-474.998896	-475.040246	29.237	
O	 0.0716029426	 1.3333835197	-0.1689866117	-0.419253
C	 0.0360138976	-0.0772335327	-0.1214951222	-0.072389
C	-1.3642525856	-0.5919641323	 0.1945639292	 0.060683
O	-2.2603807336	-0.1006747476	-0.837396961	-0.278865
C	-3.0947214048	-1.0864422955	-1.2983395964	 0.435931
N	-4.1041007882	-0.9137077453	-2.0331653882	-0.540133
C	-2.6177634079	-2.3975056544	-0.7701774971	-0.056056
O	-1.2427113038	-2.6463859076	-1.1209392135	-0.241405
C	-1.5280092213	-2.0988517671	 0.1648865065	-0.000765
H	-0.5522978558	 1.6038345949	-0.852029877	 0.294507
H	 0.371791723	-0.5353668698	-1.0618179238	 0.116767
H	 0.7228064615	-0.3851017499	 0.6743354877	 0.114907
H	-1.7061295613	-0.1847262685	 1.1541120819	 0.104876
H	-4.2461071208	 0.0783676275	-2.2319415593	 0.228428
H	-3.2783314025	-3.2545306008	-0.7288362873	 0.132111
H	-1.280998359	-2.7102776006	 1.0271837122	 0.120656
