18
gdb 71055	2.37767	2.15368	1.32353	4.1062	77.54	-0.2115	-0.0464	0.1651	983.8056	0.144815	-401.822943	-401.814655	-401.813711	-401.855093	32.3	
C	 0.1401604804	 1.4788884209	-0.1393559226	-0.493353
C	-0.0307721127	-0.0175333695	-0.0734235382	 0.226178
C	-0.4552031031	-0.7760958995	-1.364320996	-0.209024
N	-0.4680930668	-2.2182468756	-0.9470145957	-0.238547
C	-0.4294987826	-2.0873068217	 0.3125779878	 0.264366
O	 0.7231220243	-2.3458834307	 1.051741978	-0.298155
C	 0.6905523505	-0.833226684	 1.1742521623	 0.383202
C	 1.7074814538	-0.2963910941	 2.1262933435	-0.498473
C	-0.7594560588	-0.7351584666	 1.0165814903	-0.287827
H	 0.9932713238	 1.7516051952	-0.7705464248	 0.131383
H	-0.7538584511	 1.9407183824	-0.5759686152	 0.128955
H	 0.290600245	 1.9305028635	 0.8448391639	 0.123577
H	-1.4099300579	-0.3810529804	-1.7480444919	 0.104779
H	 0.2848782084	-0.7128304407	-2.1695769745	 0.127633
H	 2.7186395673	-0.5184922797	 1.7726258794	 0.146981
H	 1.6085492169	 0.7864511882	 2.2277097008	 0.135139
H	 1.5781486811	-0.7544825766	 3.1117366402	 0.14324
H	-1.5759420482	-0.4693017812	 1.6771582627	 0.109946
