18
gdb 55305	2.42734	1.47578	1.12907	3.856	72.81	-0.2288	0.0145	0.2432	1120.5963	0.148405	-435.235534	-435.226784	-435.22584	-435.269776	32.61	
N	-0.4661838596	 1.4140463213	-0.3398262623	-0.526852
C	-0.0279432563	 0.179747099	 0.0923320437	 0.370607
O	 1.1105724645	-0.0214588953	 0.4469913859	-0.332201
C	-1.1532712126	-0.8504141274	 0.1850000449	-0.155057
N	-0.7380855761	-2.2424714808	 0.412751512	-0.30038
C	-1.7513588748	-2.4367548868	 1.4819648467	-0.231096
C	-1.9196238309	-0.918292615	 1.5261389362	 0.342232
C	-1.8379474653	 0.0180290825	 2.6613376046	-0.290182
N	-3.1109399816	-0.2005715552	 1.9323317188	-0.365108
H	 0.2465333679	 2.1111962819	-0.4947010494	 0.260307
H	-1.2990437654	 1.4892108408	-0.9006074889	 0.251642
H	-1.8566073014	-0.7138577428	-0.6551179449	 0.060581
H	-0.8195672355	-2.85475435	-0.3895803194	 0.222535
H	-2.6748266705	-2.941638118	 1.1665439516	 0.100035
H	-1.3619969227	-2.9269612667	 2.3803411173	 0.113819
H	-1.8244313344	-0.3644320235	 3.678026774	 0.124162
H	-1.3076413452	 0.9548015957	 2.5140582014	 0.129238
H	-3.2893610901	 0.5802807505	 1.3040468677	 0.225719
