16
gdb 111674	2.4484	1.73069	1.3179	4.8952	63.71	-0.2774	0.0024	0.2798	982.955	0.125631	-475.02759	-475.019945	-475.019001	-475.060075	28.488	
O	 0.0131236625	 1.2762785936	 0.50432313	-0.421623
C	 0.0507191734	 0.0429409768	-0.1846045635	-0.092256
C	-1.3182177374	-0.6070680236	-0.2264779367	-0.038736
C	-1.5825946378	-2.066598158	-0.1211860292	-0.075204
C	-0.5047295511	-3.0213096263	 0.3731664678	-0.11793
O	-0.1505130577	-2.5285669733	 1.6727297843	-0.225021
C	-0.9082913163	-1.4432280402	 2.0005788355	 0.454202
O	-0.7189609179	-0.7916990872	 2.9847683901	-0.355813
N	-1.913042859	-1.1957091887	 1.0169674522	-0.180907
H	-0.1860996556	 1.089501226	 1.4306455425	 0.304969
H	 0.3580980448	 0.2698936663	-1.2110467286	 0.117669
H	 0.8051314719	-0.6358628502	 0.23707571	 0.114916
H	-2.0564920586	-0.0170752271	-0.7638394185	 0.124135
H	-2.4219390464	-2.4953244426	-0.6593893258	 0.119623
H	-0.901260396	-4.0356315219	 0.476411926	 0.137029
H	 0.3971316911	-3.0557524037	-0.244917796	 0.134948
