25
gdb 91649	2.38221	1.56258	1.29543	0.0428	92.02	-0.2721	0.0875	0.3596	1163.7593	0.230428	-352.35054	-352.341517	-352.340573	-352.383233	37.079	
C	-0.0973909132	 1.518264551	 0.0109790331	-0.433819
C	 0.014287934	-0.0073812494	 0.02458301	 0.063666
C	 0.8332595925	-0.6919490299	-1.1318877672	-0.251233
C	 1.7172966833	-1.6432223216	-0.2930652198	-0.043947
C	 0.6748128868	-2.165617256	 0.7368497	-0.244666
C	 0.726020928	-0.6833806158	 1.2240620653	-0.061851
C	 2.2613950482	-0.7120314184	 0.8514195913	 0.365604
C	 3.128427068	-1.422345012	 1.9059568529	-0.455646
C	 3.0189447658	 0.564169867	 0.4658957042	-0.470394
H	 0.8649968667	 2.0293528347	 0.0678589893	 0.118422
H	-0.5973040458	 1.855793828	-0.9041640681	 0.110192
H	-0.7021955479	 1.8633010581	 0.8573897762	 0.109395
H	-1.014220301	-0.3871143451	-0.002997562	 0.069036
H	 0.1900966487	-1.2442345907	-1.8237103661	 0.089704
H	 1.4080943126	 0.0231459347	-1.7265899534	 0.094904
H	 2.3813841301	-2.3176292278	-0.8383644138	 0.048693
H	-0.2818292984	-2.5170428396	 0.3392121448	 0.082272
H	 1.0609311845	-2.8988567585	 1.4403240621	 0.095392
H	 0.3950293984	-0.3935711531	 2.2243789593	 0.046373
H	 2.6765167176	-2.3134051339	 2.3424204052	 0.11291
H	 4.0898893907	-1.7182989343	 1.4704268904	 0.110457
H	 3.3481055373	-0.7343765916	 2.7307735239	 0.110509
H	 3.0223543519	 1.2814738363	 1.294862971	 0.111572
H	 4.066137506	 0.3201616544	 0.2505425136	 0.106359
H	 2.6231894854	 1.0726820233	-0.4116427023	 0.116097
