21
gdb 120165	3.31039	1.00231	0.90157	1.7891	80.04	-0.2493	0.086	0.3353	1400.0224	0.181549	-424.173646	-424.164503	-424.163559	-424.208001	34.627	
C	 0.0808376245	 1.503954915	-0.0204021615	-0.386465
C	-0.1434682999	 0.0182051374	-0.2428591207	-0.041456
O	 0.9608695658	-0.5017656947	-0.9649799367	-0.27788
C	 0.9053021118	-1.8831868599	-1.1722366819	 0.111438
C	 0.1132297714	-2.4747691444	-2.3842230579	-0.109367
C	 1.1605662821	-1.8109952353	-3.3236751351	-0.290905
C	 1.9729477311	-2.4501921279	-2.1441459595	 0.36631
O	 3.3396661076	-2.4994295821	-1.9622409907	-0.473066
C	 1.072892712	-3.6979475797	-2.2799802884	-0.26225
H	 1.0019391165	 1.6727315432	 0.5447737758	 0.125777
H	 0.1650609327	 2.0276046644	-0.9769885692	 0.126459
H	-0.7543830089	 1.9358648148	 0.5389397141	 0.116057
H	-0.2405451573	-0.5077797882	 0.7212193006	 0.089201
H	-1.0777903728	-0.1533930695	-0.8000441415	 0.092064
H	 0.7819369537	-2.4202602495	-0.2199570738	 0.060746
H	-0.9646200615	-2.5074118878	-2.5209160821	 0.078603
H	 1.2949332244	-2.2757314409	-4.3033755784	 0.090055
H	 1.147877312	-0.7226748182	-3.3778098651	 0.102492
H	 3.6462862097	-1.6019511217	-1.7897416454	 0.288767
H	 0.9765653235	-4.3359049264	-1.3968696815	 0.092849
H	 1.1988716315	-4.2825988485	-3.1930024411	 0.100571
