19
gdb 75711	2.21908	1.75475	1.34417	4.0568	76.79	-0.2271	0.0048	0.2319	1044.6841	0.159173	-419.171631	-419.163003	-419.162059	-419.204504	33.131	
C	-0.478170465	 1.43132394	-0.0892571538	-0.48502
C	 0.0014975076	-0.0003323741	-0.0518708671	 0.331168
C	-1.0279079498	-1.109948538	 0.2994670417	-0.306614
C	-0.2181912756	-1.3609583299	 1.6023000423	-0.168001
N	 0.8672179475	-0.4313125023	 1.1308434937	-0.160092
C	 1.7733657262	-1.0678532891	 0.2361158269	 0.330453
N	 2.6176965921	-1.9684048628	 0.4895316821	-0.51778
C	 1.1594303601	-0.422977518	-1.0128716804	-0.057617
O	 0.9389227242	-1.3418618425	-2.0498670494	-0.419035
H	 0.3660928944	 2.1281350407	-0.1123019234	 0.124102
H	-1.0950947005	 1.6076209516	-0.978713971	 0.115862
H	-1.0850629932	 1.667934728	 0.7906645121	 0.126843
H	-2.0571452172	-0.7684359871	 0.4278121997	 0.103496
H	-1.0113177478	-1.9432054239	-0.4068050775	 0.125819
H	-0.6924268629	-0.9772119635	 2.5087441169	 0.111226
H	 0.1441308039	-2.3748611099	 1.7830474873	 0.133721
H	 3.0734223283	-2.272768864	-0.3722273176	 0.229412
H	 1.7181713077	 0.4589709597	-1.3588164941	 0.088379
H	 0.6900403599	-0.858968545	-2.8440494781	 0.293678
