18
gdb 73590	2.41207	1.92308	1.46972	4.0859	70.05	-0.2255	0.0649	0.2903	945.3073	0.149252	-439.025469	-439.01817	-439.017226	-439.056862	29.617	
O	-0.1374685232	 1.3300465573	-0.030893599	-0.484481
C	 0.0169550889	-0.0662693301	-0.0457350434	 0.424543
C	-1.2709000355	-0.7374614192	-0.5313023852	-0.122909
O	-1.8693812468	-1.3166657868	 0.6273672494	-0.26291
C	-0.8311283295	-1.7794342504	 1.4944928752	-0.094334
C	 0.3160898223	-0.7770616961	 1.3235401783	-0.10129
C	 1.6795751105	-1.2208204468	 0.7486388337	-0.072989
N	 1.3867563692	-2.0355944806	-0.4517847722	-0.32915
C	 1.3977561013	-0.5578515105	-0.5558733221	-0.160081
H	 0.6525081425	 1.7190604392	 0.3615974538	 0.276587
H	-1.9724123297	-0.0065470164	-0.9399122672	 0.11371
H	-1.0494684837	-1.505299507	-1.2830908817	 0.105588
H	-1.2469539604	-1.8047646975	 2.5053904485	 0.101239
H	-0.50861381	-2.7905529667	 1.2128827692	 0.104493
H	 0.4071123443	-0.0594425866	 2.1414733809	 0.07683
H	 2.6137450545	-1.3392792214	 1.2835340669	 0.095461
H	 2.2744003697	-2.3745649987	-0.8204160924	 0.234842
H	 2.0524016256	-0.0449652718	-1.2512414626	 0.09485
