19
gdb 101935	2.14569	1.32273	0.89044	4.2831	71.88	-0.2389	0.0305	0.2694	1302.8582	0.159273	-456.341191	-456.331522	-456.330577	-456.376469	35.237	
N	 0.9781134929	-1.0794627226	-0.5563325002	-0.525103
C	 0.1183277711	-0.7310430882	 0.4414728525	 0.391092
O	 0.4825234488	-0.4548153457	 1.5688509025	-0.361562
C	-1.3657226723	-0.6778897817	 0.0205282227	-0.146122
C	-1.8478907421	-1.9941769416	-0.6113523121	-0.103169
O	-1.2650511501	-2.1220327538	-1.909757105	-0.420879
C	-2.2294775941	-0.3037924124	 1.205824696	 0.04925
C	-2.5312008034	 1.1106119041	 1.5054914985	-0.238038
N	-3.592281453	 0.2192018761	 0.9914451695	-0.343724
H	 1.9428506617	-1.2222044733	-0.3034672327	 0.252915
H	 0.6141896837	-1.485780359	-1.4059208952	 0.265906
H	-1.4669208255	 0.0941214704	-0.7555750096	 0.100172
H	-1.5727938135	-2.8432112099	 0.0314048606	 0.107792
H	-2.9434568974	-1.9719393421	-0.6864660862	 0.11371
H	-1.4778061659	-2.9940892177	-2.2550619563	 0.296061
H	-2.158087949	-0.9896787583	 2.0455974052	 0.103416
H	-2.6582788086	 1.4316598815	 2.534582826	 0.124119
H	-2.1227265301	 1.8690750403	 0.8424792511	 0.1102
H	-3.7376465633	 0.4086329138	 0.0012665326	 0.223964
