20
gdb 12352	2.91056	1.97912	1.49684	1.4784	75.47	-0.2446	0.022	0.2666	935.3141	0.178359	-349.026763	-349.018793	-349.017848	-349.0585	31.348	
C	 0.0153625354	 1.5684114213	 0.0094535367	-0.410134
C	 0.0389321291	 0.0385924096	 0.0103713995	 0.030705
C	 0.7268263079	-0.5227344968	-1.2486653903	-0.261965
C	 1.0484871662	-1.9910379837	-1.1392598512	-0.060848
C	 0.982537382	-2.6776018374	 0.0028187192	-0.065686
C	 0.5942500145	-2.0514432391	 1.3203953328	-0.285363
C	 0.7230119089	-0.5227032942	 1.2732715962	 0.124338
O	 2.0905007176	-0.1205435689	 1.3503680334	-0.445743
H	 1.0320677089	 1.9607405419	 0.106568886	 0.130302
H	-0.4196627141	 1.9604217331	-0.9160825699	 0.104442
H	-0.5748649888	 1.9558535647	 0.8468815356	 0.107455
H	-0.9952122852	-0.3334439697	 0.0212643647	 0.070289
H	 0.0924784946	-0.3458511788	-2.1265543381	 0.105679
H	 1.6499680321	 0.0430675031	-1.4482193229	 0.107484
H	 1.353966774	-2.4957158764	-2.0532840277	 0.085444
H	 1.2201669837	-3.7387254303	 0.0082496166	 0.086536
H	-0.4347296221	-2.3345283893	 1.584332801	 0.108764
H	 1.2298551182	-2.4347011907	 2.1277502362	 0.108484
H	 0.2540774279	-0.0866074766	 2.1626467617	 0.076272
H	 2.5819494692	-0.6619645818	 0.7222172807	 0.283546
