15
gdb 20405	4.83169	2.06467	1.48591	2.1446	67.17	-0.1868	0.0273	0.2141	807.614	0.123648	-358.85262	-358.84647	-358.845526	-358.882657	24.261	
C	 0.0292638609	 1.4453902374	 0.0976715607	-0.167216
C	 1.5113258906	 1.8950802175	-0.0986483374	-0.337365
C	 2.2110991683	 0.5720016239	 0.0064619814	 0.333198
N	 3.4563449264	 0.1400594374	 0.1261848846	-0.329997
N	 3.3176978229	-1.2034501574	 0.0804802715	-0.192209
C	 2.0155799251	-1.6293699026	-0.0645208765	-0.202502
C	 1.2777939559	-0.4711972292	-0.1175611267	 0.240724
N	-0.0235477237	 0.0146617379	-0.3253129733	-0.416116
H	-0.24231996	 1.5501895025	 1.1581898035	 0.099958
H	-0.6723639874	 2.0403541626	-0.4926647961	 0.108356
H	 1.6565209003	 2.3436814457	-1.0891214587	 0.121969
H	 1.8134249116	 2.635575875	 0.6459474736	 0.119638
H	 4.132066919	-1.778548866	 0.2051343302	 0.268761
H	 1.767303723	-2.6768949358	-0.1063483905	 0.122579
H	-0.7612618429	-0.5030490187	 0.1344521735	 0.230223
