18
gdb 12928	3.60698	1.67009	1.41025	2.5132	68.77	-0.2296	0.0782	0.3078	960.8883	0.152127	-384.883769	-384.87551	-384.874566	-384.916331	30.171	
C	 0.2458736063	 1.0977190647	 0.3582969476	-0.234927
O	-0.3981955467	 0.0340353456	-0.3153397575	-0.234204
C	 0.3932436849	-0.5349227642	-1.3018429784	 0.073165
C	 1.4858500923	-1.5427764335	-0.9985610832	-0.257745
C	 0.9828670793	-2.4797196792	 0.0939156803	-0.086051
O	-0.2400621835	-2.7597684722	-0.6317643894	-0.3099
C	 0.1921114663	-1.9508063936	-1.7271538604	 0.41107
C	-0.1419609446	-2.4327779495	-3.101330966	-0.488265
H	 1.1855162862	 0.7715354654	 0.8267499885	 0.109397
H	 0.4712411764	 1.9320630727	-0.3236312943	 0.105062
H	-0.4389874004	 1.4499562745	 1.1329238411	 0.129554
H	 0.6524499665	 0.1388633775	-2.1233773051	 0.083966
H	 2.5083594851	-1.4524847041	-1.342556614	 0.094258
H	 1.5823001385	-3.3901943971	 0.2008284648	 0.106167
H	 0.7854313076	-2.0437719775	 1.0792068728	 0.109471
H	-1.2292368316	-2.4617959163	-3.2355366076	 0.138396
H	 0.2762534991	-1.7639935749	-3.8588236784	 0.122267
H	 0.2481863983	-3.4414890584	-3.2678532606	 0.128318
