21
gdb 64108	3.39071	1.00066	0.93683	0.7573	95.63	-0.2239	-0.0144	0.2095	1372.1451	0.181066	-349.952294	-349.942785	-349.941841	-349.986104	36.811	
C	 0.2267178062	 1.4086333472	 0.0002004833	-0.416275
C	-0.123367694	-0.096111308	-0.001280228	 0.277946
C	-1.651098932	-0.2672089104	-0.0096117423	-0.431937
C	 0.5571681757	-0.8382045819	-1.1925573766	-0.258517
C	 1.8600607139	-1.4552541916	-0.634250584	-0.325165
C	 1.6003466437	-1.5022949846	 0.8651870393	 0.186655
C	 0.5232912087	-0.7724326322	 1.1898398145	-0.197838
C	 2.4466401828	-2.2074132454	 1.7544451367	 0.19482
C	 3.192446958	-2.8254335268	 2.4720868461	-0.411394
H	 1.3090555496	 1.563912201	-0.0482895416	 0.116039
H	-0.2300594931	 1.9121474723	-0.859461771	 0.111368
H	-0.1399731357	 1.8983987767	 0.9087999735	 0.112185
H	-2.0846666689	 0.1627112759	-0.919653424	 0.11265
H	-1.9304013571	-1.324755878	 0.0317793211	 0.114736
H	-2.1117664869	 0.2374362772	 0.8469823377	 0.110799
H	-0.1030030353	-1.6398447753	-1.5393159945	 0.100469
H	 0.7344608392	-0.174847464	-2.0439153241	 0.095233
H	 2.0725965687	-2.4455903703	-1.0487206019	 0.112747
H	 2.7421039738	-0.8364202	-0.84356086	 0.113685
H	 0.1639473393	-0.6274896819	 2.2032233133	 0.093285
H	 3.8410618532	-3.3637221398	 3.1174442025	 0.188509
