19
gdb 54190	2.63969	1.49439	1.24615	2.9317	75.17	-0.2331	-0.0138	0.2193	1086.0804	0.157184	-423.013346	-423.004428	-423.003484	-423.046934	34.097	
C	 0.0903790575	 1.3330908928	 0.6230582583	-0.474365
C	 0.0583678202	 0.0707964027	-0.2103806193	 0.371318
O	 1.0305024736	-0.3397707088	-0.8066537804	-0.3147
C	-1.248449659	-0.7188584006	-0.2355082431	 0.302009
O	-2.3106769064	 0.1898363405	-0.0185527103	-0.488
C	-1.4735777036	-1.7026036395	-1.4319963728	-0.288528
C	-1.5651106151	-2.8744086604	-0.4400513593	-0.052066
C	-0.2888122612	-2.9861326976	 0.3379810501	-0.283169
C	-1.2873470453	-1.9303004032	 0.7332374706	-0.132778
H	 1.1090483012	 1.7205755875	 0.6584956963	 0.132047
H	-0.5844437218	 2.0769413312	 0.1884512353	 0.156065
H	-0.2815478243	 1.1372795759	 1.6338898241	 0.138634
H	-3.1122117512	-0.3239243053	 0.1292248528	 0.280337
H	-2.4175134009	-1.4637088223	-1.9276476632	 0.101581
H	-0.6719480686	-1.7570535116	-2.1714422766	 0.120455
H	-2.2758445197	-3.6896963201	-0.4956975944	 0.087396
H	-0.2304330009	-3.8263257645	 1.0227615704	 0.113189
H	 0.6559773829	-2.6977164752	-0.1117763417	 0.142517
H	-1.7294418573	-1.8806496115	 1.7224659133	 0.088059
