20
gdb 96047	2.63743	1.15087	0.90722	3.3827	77.62	-0.2515	0.0204	0.2719	1331.8404	0.17071	-440.286448	-440.27702	-440.276076	-440.32277	33.32	
C	-0.4256257469	 1.4214783159	 0.0974355018	-0.418334
C	 0.0943730324	-0.0083098847	-0.0104386251	-0.004641
C	 1.2180307289	-0.2366490486	-1.029350138	-0.080564
O	 1.7647930069	-1.507254775	-0.6981514816	-0.258909
C	 1.6346669179	-1.7154784098	 0.7049250878	-0.080036
C	 0.7448655167	-0.5843330591	 1.2608210294	 0.05638
O	 1.5489498737	 0.4299487425	 1.8744464823	-0.189988
C	 1.5918053617	 0.481219614	 3.2187322184	 0.126777
N	 2.3599831911	 1.2974688508	 3.7980913012	-0.443869
H	 0.3748869161	 2.1096558952	 0.377461778	 0.146675
H	-0.8460600701	 1.749523855	-0.8583919144	 0.118155
H	-1.2160489394	 1.5007933875	 0.8507293519	 0.115506
H	-0.728786128	-0.6853606602	-0.2718771639	 0.086806
H	 0.8674602674	-0.280208713	-2.0643468841	 0.108404
H	 1.9776890768	 0.5569931409	-0.9492180802	 0.104861
H	 1.1854787621	-2.702715174	 0.8691886456	 0.103181
H	 2.6153347538	-1.6918872593	 1.1967129494	 0.113815
H	 0.0086408989	-0.948830429	 1.9856777434	 0.082171
H	 0.9052994881	-0.2273060158	 3.7045552057	 0.084092
H	 2.2522450518	 1.2182756067	 4.8069996424	 0.229519
