13
gdb 66671	4.74118	1.22026	1.17583	5.1922	66.97	-0.2429	-0.0107	0.2322	1013.4405	0.088618	-415.482028	-415.475171	-415.474226	-415.513222	26.678	
O	-0.1012459261	 1.37740999	-0.0565831552	-0.438432
C	 0.0297011495	 0.0251323959	-0.0244784163	 0.376759
C	-0.0353589834	-0.9992035041	 1.0860468679	-0.104052
C	-1.1056762917	-0.9905961326	 0.0101557578	-0.231687
C	-0.2217627748	-1.9820923669	-0.7873711047	 0.319552
C	-0.5220370804	-3.1025602662	-1.6098041984	 0.140877
N	-0.7929821269	-3.9949348214	-2.2949886047	-0.343222
C	 0.906974185	-0.9973230415	-0.8226354084	-0.207084
N	 0.8371644098	-1.9813515205	 0.3013026844	-0.191414
H	 0.6410048216	 1.7779127355	 0.412334377	 0.302289
H	-0.0884940594	-0.9511404655	 2.165416055	 0.122104
H	-2.1718975996	-0.8314234401	 0.061931727	 0.127893
H	 1.7558745465	-0.9358995026	-1.4935557714	 0.126419
