19
gdb 71054	2.35563	2.15333	1.32555	3.9761	81.8	-0.2181	-0.0448	0.1733	996.9099	0.157969	-381.941346	-381.933141	-381.932197	-381.973357	32.548	
C	 0.1795455384	 1.4550680151	-0.1333380984	-0.494428
C	-0.0126384486	-0.0408599064	-0.0653360305	 0.27066
C	-0.427821353	-0.783239077	-1.3603448975	-0.220385
N	-0.4540178708	-2.1981806482	-0.9183784525	-0.163872
C	-0.5190520064	-2.1211081106	 0.3510889104	 0.129145
N	 0.7121765312	-2.4258461644	 1.0864991361	-0.376481
C	 0.6895934517	-0.8459554634	 1.1605018229	 0.285784
C	 1.686966825	-0.2470035203	 2.1092190404	-0.493958
C	-0.7800854888	-0.7295105395	 1.0145017208	-0.255053
H	 1.0732243651	 1.7152555812	-0.7115793346	 0.129707
H	-0.6809665314	 1.9174057235	-0.6311959859	 0.126729
H	 0.2693718587	 1.9175962606	 0.8526863416	 0.122755
H	-1.3760121499	-0.3764267804	-1.7476233808	 0.103482
H	 0.3110622518	-0.7266663777	-2.167993739	 0.121783
H	 0.4961853713	-2.6614041617	 2.0633446294	 0.215668
H	 2.7056891615	-0.4871562166	 1.7897481055	 0.145492
H	 1.590677488	 0.8393813258	 2.1622927951	 0.131634
H	 1.5478743201	-0.6463106244	 3.1209381202	 0.123425
H	-1.5748046142	-0.3903851457	 1.6687951169	 0.097911
