18
gdb 42368	3.08118	0.94291	0.75693	2.7713	78.78	-0.2383	-0.0182	0.2201	1483.6343	0.14417	-401.890722	-401.8811	-401.880156	-401.927085	34.24	
O	-0.289555638	 0.8822659661	 2.1878185526	-0.280319
C	 0.0207953943	 1.105380841	 1.0462824598	 0.381059
C	 1.4604199902	 1.5740386426	 0.7273745723	-0.45271
C	 1.9296223572	 1.3857282493	-0.6365427025	 0.303027
C	 2.3204730615	 1.2265486822	-1.7620303035	-0.449471
C	-0.9533317114	 1.0232377659	-0.118547722	-0.267563
N	-2.2451958889	 0.521261121	 0.2857422113	-0.046273
C	-3.1611783931	 1.4816569985	 0.8849926738	-0.203833
C	-3.3947108278	 0.9704017567	-0.4941369953	-0.225695
H	 1.4926061443	 2.6416705209	 0.9878573698	 0.161461
H	 2.1162134476	 1.0715818685	 1.4458836149	 0.164885
H	 2.6675403016	 1.0837445587	-2.7554983275	 0.203479
H	-0.9850196958	 2.0315481945	-0.5814189473	 0.104893
H	-0.5225019505	 0.3663432543	-0.8836084787	 0.145161
H	-3.744297168	 1.1137556081	 1.7231418612	 0.125375
H	-2.8289998864	 2.5143217616	 0.9818012964	 0.107343
H	-3.2183908227	 1.6596174805	-1.3190464735	 0.108433
H	-4.1537955341	 0.2178002797	-0.6860279818	 0.120747
