19
gdb 70859	3.00831	1.70083	1.3589	2.0701	78.95	-0.2394	-0.0023	0.2371	1011.4887	0.159545	-382.045019	-382.037221	-382.036276	-382.076638	31.377	
C	-0.0758328044	 1.5297457761	 0.0060969919	-0.492178
C	-0.0570307711	 0.0355103819	-0.0750013807	 0.335794
C	 0.7312006707	-0.8162202458	-1.0739741673	-0.309612
C	-0.1962151525	-2.0304823959	-0.6985540891	 0.312448
C	-0.6996896062	-2.9570077485	-1.7767477212	-0.489278
N	 0.5122038269	-2.7168982374	 0.4063437356	-0.228022
C	 0.4468390572	-1.9063061736	 1.3828447888	 0.025605
N	-0.3436784209	-0.722910056	 1.2193737798	-0.194757
C	-1.1317943575	-0.986435934	 0.0022459488	-0.145042
H	 0.8994487957	 1.9145607118	 0.3248199059	 0.128162
H	-0.3044403172	 1.9675199659	-0.9716057018	 0.121329
H	-0.825148317	 1.8658730267	 0.7266895883	 0.136892
H	 0.5247100206	-0.4646764559	-2.0888366165	 0.108423
H	 1.8071782919	-0.9584130304	-0.9358807169	 0.102192
H	 0.1296346037	-3.5157663118	-2.2202997932	 0.131981
H	-1.4073654541	-3.6816313365	-1.3609067683	 0.12567
H	-1.205156979	-2.3990248553	-2.5714016529	 0.112372
H	 0.9498306959	-2.0578335774	 2.3327816213	 0.124903
H	-2.2148339728	-0.9143802339	 0.0281726277	 0.093119
