25
gdb 57541	3.3553	0.77382	0.75505	0.9127	90.17	-0.2432	0.0803	0.3236	1710.3673	0.225748	-389.481496	-389.470377	-389.469432	-389.519076	41.163	
C	 0.2092283853	 1.6578755718	 0.2458278169	-0.413874
C	 0.0944277546	 0.1415530501	 0.0210438663	 0.376707
C	 0.5665275187	-0.6320263374	 1.2638113515	-0.4115
C	-1.3537997554	-0.2336357846	-0.3104791253	-0.395187
O	 0.8203210001	-0.26918718	-1.1479123885	-0.28946
C	 2.2059987484	 0.0096944944	-1.2145984148	-0.08425
C	 2.7593964929	-0.6592832833	-2.4450445227	 0.023824
C	 2.6508450622	 0.0194500368	-3.7844057701	-0.247297
C	 3.9930019345	-0.0974935082	-3.1057464242	-0.274846
H	 1.2239466849	 1.9540307972	 0.5277049693	 0.113017
H	-0.0692029673	 2.199882639	-0.6632221919	 0.117735
H	-0.4604128769	 1.9741110555	 1.0516273692	 0.112545
H	-0.0852929941	-0.416379406	 2.1162667918	 0.111868
H	 0.5374811241	-1.7088160987	 1.0724556713	 0.117703
H	 1.5851820723	-0.3610531394	 1.5561826497	 0.11276
H	-1.685915115	 0.2985804704	-1.206210839	 0.116711
H	-1.4294233416	-1.3069660607	-0.5059286318	 0.11739
H	-2.0236580241	 0.019466148	 0.5166202184	 0.105808
H	 2.3932938381	 1.0939856772	-1.2740473245	 0.078125
H	 2.7315583249	-0.3613317591	-0.32139316	 0.084504
H	 2.6572389659	-1.7405325525	-2.4412206003	 0.086085
H	 2.4588275871	-0.5935699157	-4.657798581	 0.110679
H	 2.1802706453	 0.9965892771	-3.8160731638	 0.111562
H	 4.4298781429	 0.8030828417	-2.6858915555	 0.108635
H	 4.7202573023	-0.7928633234	-3.509602861	 0.110753
