18
gdb 53573	4.4582	0.69883	0.63071	4.0027	82.16	-0.2467	0.0361	0.2828	1756.8476	0.146141	-401.953002	-401.943212	-401.942267	-401.990113	33.904	
C	-0.0472868344	 1.4305954893	 0.2415633899	-0.497154
C	 0.0102538398	-0.0166877338	 0.0905835304	 0.089505
C	 0.0784667403	-1.2122007845	-0.0387890028	 0.032013
C	 0.1085070925	-2.6636281229	-0.1856356071	-0.358889
C	-1.3000372076	-3.2729864835	-0.2063941929	 0.070038
C	-1.4006175762	-4.8167127766	-0.0251104576	-0.414932
C	-2.1684579219	-4.4989654472	 1.284683779	 0.430995
O	-2.6837644947	-5.1331325426	 2.1644789292	-0.357182
N	-2.0427184355	-3.1504658125	 1.0511371793	-0.315582
H	 0.6448511228	 1.9288431363	-0.446094161	 0.151115
H	-1.0523124397	 1.813752412	 0.0331050487	 0.148336
H	 0.2193100247	 1.7364975373	 1.2591764367	 0.150116
H	 0.6244778458	-2.9410793281	-1.1143553691	 0.131192
H	 0.6764724236	-3.114673726	 0.6384943353	 0.12948
H	-1.8562010429	-2.8872102133	-1.0676248447	 0.094599
H	-1.990661205	-5.3452698427	-0.7752711101	 0.132545
H	-0.4491348443	-5.3310729093	 0.1254200656	 0.129597
H	-2.3371538973	-2.3397925317	 1.5752783013	 0.254209
