17
gdb 67527	2.43114	1.84549	1.53056	4.7199	71.79	-0.2264	0.0292	0.2555	942.3678	0.136694	-417.969542	-417.961964	-417.96102	-418.001219	29.869	
C	-0.0253510784	 1.5667969937	 0.0015622043	-0.499587
C	 0.0110287641	 0.0592185528	 0.0368494753	 0.169102
C	-1.2054268849	-0.6791334776	 0.6700368929	-0.091535
N	-1.0315033793	-2.1305647457	 0.4502825946	-0.331588
C	-0.3235396332	-1.4710009443	 1.5679197779	-0.074729
C	 0.9427542657	-0.7847296578	 0.9683609232	-0.039439
N	 1.5495826686	-1.3565387145	-0.2302779267	-0.322026
C	 0.6831215846	-0.7327493372	-1.1228534077	 0.394764
O	 0.5625119784	-0.7993670641	-2.313692155	-0.360555
H	 0.9668535574	 1.9819979155	-0.1994647372	 0.131514
H	-0.6984446365	 1.909908952	-0.791568756	 0.139831
H	-0.3833041999	 1.9802074203	 0.95095933	 0.117963
H	-2.1842969615	-0.2492935852	 0.8436331797	 0.098066
H	-1.8478365572	-2.5995139457	 0.8404582109	 0.236093
H	-0.4667719791	-1.7903676995	 2.5926749538	 0.09684
H	 1.6269150465	-0.3245427695	 1.6817389653	 0.08861
H	 1.9841604445	-2.2615092534	-0.3505547354	 0.246674
