18
gdb 8036	3.48827	1.90682	1.51139	2.367	67.2	-0.2411	0.06	0.3012	888.6463	0.153199	-384.905838	-384.898079	-384.897135	-384.937709	29.725	
C	-0.6560177902	 1.3235673295	 0.0036265972	-0.400911
C	 0.0448633728	-0.0259945471	 0.0140199466	 0.023972
C	 1.2384422914	-0.2534242506	-0.9762365945	-0.331459
C	 2.1609533758	-0.643481639	 0.2105902064	 0.36344
O	 2.951915032	-1.7848578942	 0.1313929386	-0.472891
C	 2.8554443434	 0.538704461	 0.8940317826	-0.104278
O	 1.6860827144	 0.8231328054	 1.6976957164	-0.287296
C	 0.9857069399	-0.3393207164	 1.2086446951	 0.023671
H	 0.0578509102	 2.1271619296	 0.2025897493	 0.130619
H	-1.1321596834	 1.5116012686	-0.9644543959	 0.109803
H	-1.4322706627	 1.3711788534	 0.7749329792	 0.116044
H	-0.6877933208	-0.8340858686	-0.0922850784	 0.070256
H	 1.0737368687	-1.0757028219	-1.6803790529	 0.09231
H	 1.5638243669	 0.6210395521	-1.5481204797	 0.104203
H	 2.4760152762	-2.458516944	-0.3648513662	 0.281437
H	 3.7043750408	 0.2258997049	 1.514375836	 0.110094
H	 3.1500765968	 1.3851165384	 0.2620195614	 0.099324
H	 0.6299902078	-0.9835933811	 2.0174457489	 0.071663
