16
gdb 17837	5.15025	1.47621	1.24892	3.0395	66.07	-0.2311	0.0364	0.2674	965.4998	0.131419	-379.913049	-379.905693	-379.904749	-379.94501	27.817	
N	-0.0963135175	 1.3095521701	 0.0366255975	-0.535204
C	-0.0536632353	-0.0660546276	 0.0128890144	 0.398054
O	 0.8430500205	-0.7180560755	 0.5054725098	-0.365466
N	-1.1542401389	-0.6192473688	-0.682030906	-0.153207
C	-2.4588061613	-0.6905976256	 0.0125351774	-0.04418
C	-3.4882536661	-1.1356460849	-1.0324392142	-0.239886
C	-2.622648699	-2.4266054322	-1.2732904862	-0.24396
C	-1.6336327796	-1.9192879073	-0.2157398125	-0.010696
H	 0.7708118797	 1.7583256493	 0.2854972764	 0.261669
H	-0.6590119101	 1.7741800607	-0.6576305662	 0.259082
H	-2.6112854795	-0.1153772646	 0.917631726	 0.111545
H	-4.4623279227	-1.3647860098	-0.5948288228	 0.109054
H	-3.6197763349	-0.4611408136	-1.8818043953	 0.106827
H	-3.143279613	-3.3356956941	-0.966023695	 0.109224
H	-2.206878647	-2.562937068	-2.2739277655	 0.112348
H	-1.0154731454	-2.478716428	 0.4733078623	 0.124794
