22
gdb 93884	1.98794	1.59058	1.07865	4.0397	83.07	-0.2355	0.0285	0.264	1224.8522	0.194897	-404.402018	-404.392618	-404.391674	-404.436241	35.316	
C	 0.2295632117	 1.6930815458	-0.0308156524	-0.394358
C	 0.0538698396	 0.1718971821	 0.0290549543	 0.050752
C	 0.6504235903	-0.5800167534	-1.1758520264	-0.240733
C	 2.0847432268	-0.9027545272	-0.7319973796	-0.224935
C	 1.9551175746	-1.222219649	 0.7687710519	 0.055786
C	 3.2157185751	-0.8948935135	 1.5699284301	-0.401234
N	 0.7792033244	-0.4238926302	 1.1663633595	-0.051017
C	 0.2389571221	-0.4263001065	 2.408998704	 0.135922
O	-0.7885626318	 0.1464560524	 2.7223803437	-0.351472
H	 1.2783461695	 1.9709184545	-0.1796383869	 0.107791
H	-0.356095288	 2.1087705108	-0.8574639294	 0.113035
H	-0.1216432599	 2.1423121807	 0.9005957621	 0.148437
H	-1.0105713979	-0.0445898545	 0.158418227	 0.102111
H	 0.0929321587	-1.5061158446	-1.352010417	 0.105945
H	 0.6101434916	 0.0117085171	-2.0934751863	 0.105252
H	 2.5360724399	-1.7289665942	-1.2864638882	 0.106223
H	 2.7310761611	-0.027463726	-0.8635450622	 0.108243
H	 1.7260069191	-2.2912429867	 0.8916490881	 0.085682
H	 3.4546332623	 0.1703283591	 1.4918650218	 0.124872
H	 3.1053771557	-1.143333234	 2.6290979422	 0.124729
H	 4.062948966	-1.4701337686	 1.1819644151	 0.120314
H	 0.8363080191	-1.0152281039	 3.1329894789	 0.068655
