17
gdb 79806	4.4034	1.47056	1.26879	0.9266	71.92	-0.2165	0.0071	0.2236	990.6973	0.138255	-417.938202	-417.931467	-417.930523	-417.969023	27.245	
C	 0.0241272337	 1.5010671991	-0.2448196628	-0.329324
N	 0.029482534	 0.063579043	 0.0202595892	-0.108688
C	-1.0308753497	-0.5038006325	 0.9290229908	-0.093078
C	-0.0786633095	-1.7238353731	 1.065263512	 0.145369
O	-0.2310090171	-2.571217945	 2.1904275638	-0.237659
C	-0.4387797257	-1.8976222359	 3.3450228155	 0.12299
N	-0.4989927704	-0.6381887719	 3.4585893684	-0.296846
C	-0.3212180388	 0.0707894594	 2.2037626932	 0.021981
C	 0.7870906107	-0.4432003488	 1.2208138496	-0.093075
H	 0.9832468028	 1.7684091951	-0.6996379085	 0.125985
H	-0.7597090288	 1.7102659886	-0.9797197561	 0.125985
H	-0.1367498564	 2.1604703113	 0.6194214172	 0.109085
H	-2.0918385674	-0.5012633588	 0.6784794207	 0.08921
H	 0.0834257688	-2.3375019489	 0.1828317788	 0.109628
H	-0.5515882843	-2.5732854597	 4.1881453519	 0.133531
H	-0.382848697	 1.1437016798	 2.3649311997	 0.085698
H	 1.8706817351	-0.3691727318	 1.3144752567	 0.089208
