16
gdb 94256	2.17465	1.44959	1.31713	3.4457	69.96	-0.2763	-0.0649	0.2115	1057.8561	0.123425	-437.893964	-437.885419	-437.884475	-437.927198	31.342	
O	 0.5392562058	 0.980379425	-0.5375365814	-0.418635
C	 0.1598359106	-0.1523227484	 0.1589864185	 0.134248
C	-0.0697362688	-0.1051850036	 1.6924263503	-0.271271
C	-1.2659125011	-1.0713421764	 1.5261975444	-0.262249
C	-1.3213721704	-0.7156423345	-0.0165859857	 0.00171
C	-2.3511642859	 0.3770290258	-0.2499180066	 0.133435
O	-2.147868113	 1.5428886695	-0.0095508984	-0.271943
C	-1.5279452382	-1.823774041	-0.930132587	 0.212324
N	-1.6863403431	-2.7090674449	-1.6574536759	-0.328701
H	-0.1090154773	 1.6696698403	-0.3360017934	 0.302275
H	 0.8610324015	-0.9460712431	-0.1107453955	 0.121285
H	 0.7547939692	-0.4311647902	 2.3278537368	 0.119259
H	-0.3945191753	 0.8895114126	 2.0058422808	 0.128926
H	-0.998939837	-2.1210127679	 1.6561841637	 0.142125
H	-2.1741789113	-0.8619422105	 2.0932673139	 0.131622
H	-3.3331020856	 0.0314191773	-0.6311683745	 0.125588
