17
gdb 86533	4.23918	0.87538	0.77326	2.5404	73.02	-0.2385	-0.0733	0.1652	1425.4811	0.134953	-455.126491	-455.117506	-455.116562	-455.161056	31.979	
O	 0.5625979754	 1.077640138	-0.4915330037	-0.419656
C	-0.0018874013	-0.1089334146	-0.0200472045	 0.137108
C	 0.1032865748	-0.4535494332	 1.4929769529	-0.207907
N	-1.3232179944	-0.7947603553	 1.471634397	-0.087656
C	-1.5517743406	-0.1967593211	 0.1417164963	-0.235222
C	-2.1301213636	-0.7715672517	 2.5783539512	 0.240898
N	-1.6506586428	-0.7019152292	 3.7620311543	-0.504008
C	-3.613676939	-0.9063491125	 2.301909646	 0.11003
O	-4.4331536832	-0.8827597109	 3.1834161732	-0.237636
H	 0.3118819784	 1.7955660139	 0.10040412	 0.284797
H	 0.3870229774	-0.9037282488	-0.6593542158	 0.113278
H	 0.7652942599	-1.2698182485	 1.7932605629	 0.129164
H	 0.3167652039	 0.4206776326	 2.1243944292	 0.115872
H	-2.0191008464	 0.7979280895	 0.1723030738	 0.107442
H	-2.0948845249	-0.8280542782	-0.5678569752	 0.124079
H	-2.4262507789	-0.7630564343	 4.4256049811	 0.237135
H	-3.9089422246	-1.0396186757	 1.2401929113	 0.092282
