16
gdb 32271	3.01574	1.45166	1.028	2.6985	74.93	-0.2223	-0.0351	0.1872	1110.7198	0.127186	-434.115821	-434.10805	-434.107105	-434.148031	29.837	
N	 0.1036849005	 1.3878811084	-0.0699085867	-0.601064
C	 0.071625434	 0.0047132109	-0.0617841885	 0.222611
C	-1.1219881745	-0.7276466716	-0.0457626545	-0.041796
N	-1.1596502998	-2.0556394194	 0.0167969355	-0.244648
C	 0.0180795514	-2.6786926194	 0.0576277458	 0.039044
N	 1.2169931616	-2.0958336177	 0.0438938814	-0.29701
C	 1.2531102979	-0.7637990465	-0.0056829453	 0.23833
C	 2.6107596275	-0.1009195335	 0.0161214767	-0.18296
O	 2.7772898696	 0.8710811519	-1.0223347955	-0.413297
H	 0.9255649229	 1.7782503675	-0.5135580476	 0.268403
H	-0.7569958915	 1.8407250959	-0.3399656384	 0.24796
H	-2.0791859462	-0.2073714551	-0.0810772526	 0.101228
H	 0.0005085483	-3.763822611	 0.1029962312	 0.111616
H	 2.7396026176	 0.4602523746	 0.9491416528	 0.132434
H	 3.3798414275	-0.8798158852	-0.0269223786	 0.126045
H	 2.7324061829	 0.4054495603	-1.8645785056	 0.293104
