7
gdb 491	53.05616	1.35517	1.32142	2.4648	51.47	-0.3053	-0.1211	0.1843	776.7874	0.03702	-282.871678	-282.865901	-282.864957	-282.900943	17.93	
O	-0.0719533853	-0.0379361938	 0.0028513131	-0.196125
C	-0.0215313448	 1.1670016747	 0.0078409989	 0.014652
C	 1.2232543685	 1.9101438726	 0.0001674466	 0.049779
C	 2.2521635785	 2.5468166494	-0.0060278744	 0.078494
C	 3.4132077427	 3.2640117017	-0.0129876955	 0.235507
N	 4.3994823163	 3.8772270399	-0.0187815801	-0.311274
H	-0.928041076	 1.8011754155	 0.0187216415	 0.128967
