15
gdb 127262	4.5963	1.06207	0.86747	2.7075	70.18	-0.2493	-0.0161	0.2332	1270.0989	0.113672	-450.167792	-450.15923	-450.158285	-450.201739	29.987	
C	-0.0093603608	 1.4122960349	 0.1024625199	-0.333052
N	-0.0003387903	-0.0305341544	-0.0470468756	 0.065694
C	 0.0433270925	-0.7745120987	-1.1710989407	-0.163344
C	 0.0290330074	-2.0750513316	-0.7201790898	 0.227862
N	-0.0217088684	-2.0537732116	 0.6420638779	-0.276051
N	-0.0398535224	-0.8216659367	 1.0521773117	-0.137709
C	 0.0617271085	-3.3154496295	-1.5325525089	 0.336683
N	 0.0380140667	-4.4543326637	-0.7921861407	-0.540854
O	 0.1072033783	-3.2842232512	-2.7506424933	-0.376018
H	 0.8969913923	 1.8474310452	-0.3262492992	 0.155095
H	-0.8859567113	 1.842871194	-0.3882865109	 0.155114
H	-0.0471082687	 1.6247821278	 1.170520063	 0.174734
H	 0.0795573247	-0.358713938	-2.1629950145	 0.172196
H	-0.0006088685	-4.4077633898	 0.212696573	 0.277501
H	 0.0565285001	-5.3417991266	-1.2640931217	 0.26215
