16
gdb 19695	4.87017	1.74437	1.61137	2.0826	63.7	-0.2311	0.0743	0.3054	837.9876	0.130288	-383.652302	-383.645524	-383.644579	-383.683571	25.651	
C	-0.2677249137	 1.2417720022	-0.0813302442	-0.240725
O	 0.2456807076	-0.0572539247	 0.1147529044	-0.245343
C	 0.7635591304	-0.6318255565	-1.0442729198	 0.196773
C	 1.267250902	-2.0555717577	-0.9242021683	-0.191326
C	 0.0423185815	-2.9280659868	-1.2355902927	 0.105844
O	-1.0892830172	-2.0765408716	-1.4036906319	-0.280994
C	-0.2062944201	-1.1937256811	-2.1402465608	 0.00024
C	 0.8288668939	-2.3544419782	-2.3622503101	-0.15119
H	 0.4976977696	 1.9255164837	-0.4821006684	 0.101028
H	-1.1280315502	 1.2452322434	-0.7663863929	 0.111319
H	-0.5954189849	 1.6118965038	 0.8926179282	 0.129786
H	 1.5177301787	 0.016645684	-1.5178640241	 0.065952
H	 2.1378543746	-2.4201672054	-0.3957743132	 0.096552
H	-0.1016871056	-3.9387680104	-0.8789917883	 0.113017
H	-0.7135007792	-0.5780700834	-2.8794204342	 0.085935
H	 1.3517813825	-2.7585612315	-3.2163902537	 0.103132
