23
gdb 96550	2.27741	1.40934	1.02548	1.4966	81.63	-0.2427	0.074	0.3166	1257.4247	0.206837	-425.429165	-425.419837	-425.418893	-425.463009	36.187	
C	-0.0218881735	 1.6148673636	 0.0590613569	-0.40658
C	 0.0358172723	 0.0804712021	 0.0180634818	 0.035188
C	 0.5836328473	-0.4360753371	-1.3273118981	-0.210874
C	 0.0525758616	-1.8148142437	-1.7325683179	-0.077357
O	 0.5140865397	-2.9025831838	-0.9553370142	-0.240913
C	 0.1478982416	-2.8842287431	 0.4113088441	-0.079668
C	 1.0601596593	-1.9859984589	 1.2567946869	-0.247766
C	 0.8025037817	-0.4589049446	 1.2394447419	 0.127111
O	 2.0454801186	 0.2432295378	 1.2991008618	-0.434205
H	 0.9716106688	 2.0475999365	-0.0792934729	 0.136091
H	-0.6788439546	 1.9945062392	-0.7300956433	 0.102323
H	-0.4079195215	 1.9718519532	 1.0200260812	 0.105359
H	-0.9956000268	-0.285610476	 0.1194325966	 0.065885
H	 0.2883619034	 0.2612456534	-2.1218733434	 0.090538
H	 1.6791176579	-0.4440101529	-1.3094869436	 0.115833
H	-1.0520695073	-1.7902203811	-1.7243069188	 0.079696
H	 0.3667454161	-2.046562167	-2.7555982716	 0.103485
H	-0.9142318479	-2.6148557014	 0.5299361856	 0.087509
H	 0.2583658661	-3.9185540345	 0.7543765125	 0.103598
H	 1.0311746981	-2.337465104	 2.2962964689	 0.089686
H	 2.0798831747	-2.1553964165	 0.8925517489	 0.115491
H	 0.1999308703	-0.1960626782	 2.124935035	 0.058467
H	 2.5536720941	-0.1146177729	 2.0334508217	 0.281101
