17
gdb 17409	4.66176	1.51227	1.47613	2.5749	68.28	-0.2346	0.0788	0.3134	924.3077	0.141615	-363.794034	-363.786767	-363.785822	-363.825375	27.896	
C	-0.0512023727	 1.5384337082	-0.0652130661	-0.417083
C	-0.0650273451	 0.0389348671	 0.0771801864	-0.032599
O	 1.2045811079	-0.6353693284	-0.0523554512	-0.296424
C	 0.5596480475	-0.6550511265	 1.2063782252	 0.442505
C	 1.2678868045	-0.1838407539	 2.4814912005	-0.259286
N	 0.9796948062	-1.5018937046	 3.1636020784	-0.124188
C	-0.4869102603	-1.6261677011	 3.1860164586	-0.239155
C	 0.2145734191	-1.9387746992	 1.9213295253	-0.133999
H	 0.7659521216	 1.9785572376	 0.5124078331	 0.127849
H	 0.0775319317	 1.8259571764	-1.1138253812	 0.133035
H	-0.9971077172	 1.9647645384	 0.28635262	 0.122811
H	-0.8801920003	-0.4740795785	-0.4371546834	 0.090801
H	 2.3429154701	-0.0662689103	 2.330174211	 0.131068
H	 0.8692277409	 0.6879588799	 3.011470821	 0.106249
H	-0.8345125792	-2.459164007	 3.7896198073	 0.126394
H	-1.0967408785	-0.7270918506	 3.2578949802	 0.111519
H	 0.3007956541	-2.9368038273	 1.5053631652	 0.110504
