18
gdb 124524	4.07918	0.97951	0.9543	1.8285	74.58	-0.2345	-0.0026	0.2319	1324.2709	0.147902	-435.289417	-435.28033	-435.279386	-435.323878	33.284	
C	-0.0565568367	 1.5350259829	 0.0021922654	-0.393042
C	-0.0343347289	-0.0043034111	 0.0261549362	-0.090224
C	 0.7276133714	-0.5407680528	 1.2528072269	-0.39316
C	-1.4228212277	-0.5613070242	-0.0187055001	 0.447101
N	-1.9416222666	-1.350496626	-0.9126117603	-0.368015
C	-3.2209037974	-1.528574803	-0.4291718594	 0.399353
N	-4.1075402003	-2.3634177996	-1.0581124896	-0.585468
N	-3.4922427437	-0.8883000343	 0.6851568091	-0.215073
O	-2.2662311187	-0.2389669483	 0.9652302742	-0.216851
H	 0.9662322448	 1.9231015756	-0.0043326853	 0.119485
H	-0.5704768799	 1.9118529776	-0.8867865565	 0.126873
H	-0.5677217767	 1.9308017713	 0.8844520232	 0.138008
H	 0.4528901554	-0.369717506	-0.8827840118	 0.111549
H	 0.2453822228	-0.2201936448	 2.1808102344	 0.137416
H	 0.7671101195	-1.6337079248	 1.2487384298	 0.129928
H	 1.7535782265	-0.1610491038	 1.2503920678	 0.119477
H	-3.939459722	-2.4699091684	-2.046634271	 0.266544
H	-5.075925052	-2.2171338302	-0.8162856732	 0.266101
