16
gdb 96814	2.40647	1.47995	0.96791	3.2944	68.74	-0.2768	-0.0095	0.2673	1194.563	0.123337	-475.088492	-475.079764	-475.07882	-475.122607	30.544	
C	-0.0723373772	 1.4295224738	-0.0334803428	-0.344395
N	-0.0131578801	-0.0229594999	-0.0756033251	-0.308218
C	 0.5890799926	-0.6143280835	-0.9958529074	 0.411008
O	 1.2617333831	-0.0273931176	-2.0567829691	-0.244536
C	 1.8184249624	-1.0058533389	-2.8529315841	 0.495686
O	 2.4552824007	-0.7825875967	-3.8273908269	-0.353095
O	 1.5306990741	-2.2237826301	-2.3560105859	-0.248653
C	 0.7292142462	-2.111975055	-1.1634463894	 0.007011
C	 1.3951041791	-2.8107522991	 0.0111107318	-0.397681
H	 0.4621199381	 1.9252389676	-0.8504543294	 0.138287
H	-1.1227943853	 1.7378634184	-0.0548044274	 0.139936
H	 0.3398510209	 1.7692756568	 0.9222276541	 0.139236
H	-0.2464490163	-2.5613288484	-1.3773310323	 0.135293
H	 2.3868142776	-2.3904327141	 0.1986295507	 0.135998
H	 0.7796884142	-2.6678648592	 0.9025196939	 0.153984
H	 1.4950830197	-3.879889054	-0.1897556406	 0.14014
