20
gdb 119780	3.29125	0.97604	0.93094	1.5373	76.7	-0.2459	0.0157	0.2616	1385.1893	0.170323	-440.293228	-440.283567	-440.282623	-440.329437	33.74	
C	-0.1264355251	 0.5701008716	 0.7475089109	-0.233433
O	-1.3862527819	 0.3439964045	 0.1502462961	-0.218051
C	-1.3622507576	-0.6382006106	-0.8570162569	-0.161321
C	-1.0956057599	-2.03127924	-0.3467123076	 0.369228
N	-0.2749580925	-2.8567147428	-0.8549737373	-0.312521
C	-0.397597197	-4.1088947171	-0.0827409338	 0.028905
C	 0.9612277472	-4.5978229244	 0.4135459311	-0.387967
C	-1.3953799543	-3.7475547132	 1.0522604174	-0.12208
O	-1.8389495364	-2.4122184856	 0.7257770752	-0.245142
H	-0.2591037715	 1.3764351427	 1.4722130672	 0.130618
H	 0.2487246815	-0.31990723	 1.2728030332	 0.112431
H	 0.6253828305	 0.8757012797	 0.003824345	 0.109
H	-2.3558035977	-0.6185789295	-1.3185534488	 0.128933
H	-0.612285232	-0.4237441757	-1.6307576847	 0.118367
H	-0.8247553934	-4.8732333448	-0.7445660225	 0.088969
H	 1.4237863213	-3.851214176	 1.0675892941	 0.117761
H	 0.857700086	-5.5319864295	 0.9758819773	 0.113276
H	 1.6338294529	-4.774793214	-0.4295936357	 0.131943
H	-2.2720166754	-4.397877127	 1.0992425919	 0.11929
H	-0.9198497648	-3.7204815384	 2.0393341977	 0.111796
