17
gdb 55434	2.74632	1.56646	1.01678	4.2156	71.37	-0.2371	0.028	0.2651	1120.4271	0.13914	-451.397122	-451.388843	-451.387899	-451.430219	31.12	
N	 0.0238097292	 1.3197024728	 0.2164194326	-0.565265
C	 0.0644586137	-0.0264505335	 0.0935154901	 0.468152
O	 1.0744963746	-0.7057966641	 0.0438349768	-0.412772
N	-1.1968720836	-0.6588731291	 0.0546306168	-0.162593
C	-1.2533289557	-2.1098702412	-0.1154811021	-0.147198
C	-2.739572958	-2.4038125976	 0.1350959966	-0.191767
N	-3.3559536302	-1.1343803214	-0.2483407868	-0.355803
C	-2.4596124495	-0.0868904569	-0.0657283048	 0.477697
N	-2.6866598012	 1.173370884	-0.0354311313	-0.619391
H	 0.9039846074	 1.8001765492	 0.1572216975	 0.257651
H	-0.870258007	 1.7990809352	 0.1408252377	 0.287219
H	-0.9491513553	-2.3920897325	-1.1299658318	 0.126941
H	-0.585524544	-2.606817119	 0.5872989603	 0.14379
H	-3.1088214367	-3.2288846855	-0.4787612569	 0.121966
H	-2.920830056	-2.6466642975	 1.1916231585	 0.113381
H	-4.308872301	-0.9581096522	 0.0306760031	 0.245437
H	-3.6754325769	 1.3802191494	-0.1405257763	 0.212554
