19
gdb 26096	3.17084	1.25415	1.11367	2.3521	77.27	-0.2164	0.0351	0.2515	1167.8014	0.159372	-419.257096	-419.24808	-419.247136	-419.290727	34.371	
C	-0.2597990059	 1.5006173131	-0.0396397686	-0.42137
C	 0.0385607227	-0.0001791239	 0.007841568	 0.235747
C	 0.8756324016	-0.3604657741	 1.2418030886	-0.38765
O	-1.17313379	-0.7653390254	 0.1301820536	-0.465931
C	 0.756230595	-0.4359757564	-1.2510400065	 0.325845
N	 1.7044100339	 0.2104338883	-1.8955424967	-0.324769
C	 2.0710497514	-0.6157923151	-2.934358393	-0.094126
C	 1.3351160296	-1.7710353263	-2.9152928677	-0.116492
N	 0.4973269201	-1.6419983171	-1.8302567411	-0.273893
H	 0.6639479222	 2.0655621262	-0.180174	 0.151673
H	-0.9168748608	 1.7379290758	-0.884125348	 0.108732
H	-0.7459804509	 1.8170536007	 0.8875338911	 0.115514
H	 0.35819223	-0.0436064411	 2.1518523673	 0.118013
H	 1.0323048874	-1.4415595652	 1.289705229	 0.118639
H	 1.8502983699	 0.1300556861	 1.189680417	 0.135994
H	-1.8185883558	-0.3823921358	-0.4743686842	 0.278655
H	 2.8387949526	-0.3290742466	-3.6370061912	 0.104321
H	 1.3189155855	-2.6394659877	-3.5522956692	 0.124767
H	-0.1982573185	-2.2875991954	-1.4950687684	 0.266331
