20
gdb 115417	3.27747	0.9372	0.88702	4.3983	78.9	-0.2747	0.0223	0.297	1409.9359	0.171474	-403.172811	-403.163585	-403.162641	-403.207604	33.373	
C	-0.265347246	 1.5736946329	 0.1694674052	-0.388722
C	-0.0681496821	 0.0573454636	 0.0674499299	-0.202228
C	-1.3785120446	-0.7221342488	-0.0668010079	 0.009795
C	-2.1702729296	-0.4316325799	-1.3551028333	-0.073826
O	-2.8730161484	-1.6352290783	-1.7063153782	-0.258426
C	-2.5319433571	-2.6774135139	-0.8069128081	-0.030917
C	-1.2100566444	-2.248856703	-0.1484845631	-0.262511
C	-3.6047995211	-2.8728740531	 0.1958349599	 0.273267
N	-4.4364033215	-3.0245641256	 0.9838360586	-0.326736
H	 0.6930210167	 2.0868021714	 0.2916454425	 0.119688
H	-0.7444894404	 1.9792822186	-0.7279368102	 0.122944
H	-0.894440661	 1.8336948738	 1.0277437974	 0.122264
H	 0.5745845025	-0.1757241231	-0.7923515689	 0.098928
H	 0.4666698932	-0.3000730537	 0.9558516424	 0.104258
H	-2.0176211032	-0.4931716464	 0.7956700104	 0.098667
H	-2.8971352039	 0.3777080455	-1.2375519452	 0.118657
H	-1.4976441149	-0.1731085497	-2.1849376074	 0.103027
H	-2.4377697623	-3.6066524872	-1.3786393549	 0.129126
H	-0.3834441577	-2.510513298	-0.8177706829	 0.113627
H	-1.0392023444	-2.7243093549	 0.818996584	 0.129116
