15
gdb 125446	3.02825	1.49824	1.00982	2.5437	74.03	-0.226	-0.0753	0.1507	1116.1841	0.11256	-450.118284	-450.110041	-450.109097	-450.151155	30.817	
C	 0.0766990543	 1.4652925682	 0.007750719	-0.464521
C	 0.063810165	-0.0273451355	-0.0181503375	 0.286848
N	 0.0570525097	-0.6608100858	-1.1364749169	-0.3334
C	 0.0292575482	-2.0544710911	-1.0683660423	 0.451946
N	 0.1209273239	-2.663631079	-2.2956682966	-0.548367
N	-0.0482920125	-2.7995646178	-0.0127586526	-0.190853
O	-0.0156253557	-2.0998290226	 1.2173826001	-0.274045
C	 0.0572916126	-0.7443159718	 1.2740822778	 0.370208
N	 0.1059733199	-0.1101844615	 2.3759101381	-0.524967
H	 0.9528953919	 1.8210543014	 0.5582913193	 0.162945
H	 0.0814590051	 1.855611247	-1.0100187376	 0.138098
H	-0.7935219331	 1.8382497976	 0.5567153508	 0.159893
H	-0.2262581124	-2.1101208847	-3.0632817245	 0.266587
H	-0.1187000816	-3.6431134749	-2.3170676389	 0.267829
H	 0.0896292548	-0.7579575896	 3.166116062	 0.231797
