18
gdb 12239	3.09332	1.52617	1.246	2.1799	68.07	-0.2495	-0.0265	0.223	1036.6421	0.151861	-384.948238	-384.939443	-384.938499	-384.981786	31.638	
C	 0.159581928	 1.3728491199	-0.3014533185	-0.3879
C	-0.0554505297	-0.137556505	-0.1720682588	-0.17198
C	-1.4817586968	-0.5116897776	 0.22496988	-0.057917
C	-2.5195610539	-0.4428128365	-0.9480614621	-0.345942
C	-2.2731875628	-1.946613929	-1.1157031138	 0.340716
O	-2.1898180824	-2.6869731048	-2.0566641219	-0.309273
C	-1.7238923958	-2.0720279653	 0.3039920622	 0.051641
O	-0.6750488859	-2.9630006568	 0.531145679	-0.428262
H	 1.1921996289	 1.6007479976	-0.5825851998	 0.117725
H	-0.4952473953	 1.811030243	-1.0624335819	 0.11668
H	-0.048556431	 1.883030775	 0.6455328143	 0.117058
H	 0.2018195801	-0.6289154792	-1.1205837137	 0.097551
H	 0.6313482586	-0.5525866457	 0.5737307549	 0.115902
H	-1.7822507749	 0.0218123828	 1.1298375228	 0.078911
H	-3.5358270978	-0.2190941487	-0.6118493839	 0.129487
H	-2.2819319148	 0.1782283343	-1.8140720786	 0.131089
H	-2.536472861	-2.2681090464	 1.017043347	 0.106506
H	-0.4435353634	-3.3534541274	-0.3208747572	 0.298007
