20
gdb 6568	2.91858	1.97379	1.48641	1.2576	75.58	-0.2529	0.0822	0.3351	942.5769	0.176089	-348.96759	-348.959196	-348.958252	-348.999587	32.816	
C	-0.1389762163	 1.5743514754	 0.074066864	-0.447879
C	 0.0408934306	 0.0647877277	 0.0301598866	-0.008393
C	 0.8703421407	-0.6503047358	-1.0995276949	 0.3262
C	 0.5810544224	-0.655439719	-2.5754113251	-0.510029
C	 2.1726535999	-0.1484141545	-0.3974319969	-0.338526
C	 1.2251192556	-0.6414141468	 0.7385457199	 0.389132
O	 1.4179887651	-0.5828533919	 2.1075615711	-0.473767
C	 0.9277223863	-1.8874839227	-0.1497754585	-0.324668
H	 0.7817671593	 2.1308418793	-0.1177197576	 0.116267
H	-0.8795766743	 1.894018989	-0.6676387494	 0.113119
H	-0.5082479631	 1.8809942282	 1.0584339101	 0.126505
H	-0.9209880435	-0.4270721176	 0.2215534086	 0.059044
H	 0.592175468	 0.3608529002	-2.9846263364	 0.119433
H	 1.326880248	-1.2426857512	-3.1222822354	 0.118049
H	-0.4037373899	-1.088464682	-2.7828562191	 0.118218
H	 3.0704536688	-0.7489574456	-0.5759219607	 0.079221
H	 2.4011756548	 0.9170282031	-0.4477578362	 0.092211
H	 2.2182582034	-1.0728238746	 2.3247740012	 0.28062
H	-0.0157604046	-2.4091510044	 0.0351542429	 0.087394
H	 1.7540855988	-2.5857923568	-0.3153207944	 0.07785
