16
gdb 128722	3.24023	1.27054	0.92316	2.3059	69.33	-0.2066	0.0311	0.2377	1221.1727	0.124734	-471.185243	-471.176248	-471.175304	-471.218763	32.698	
C	-0.0117208623	 1.3570234741	 0.0225597145	-0.242235
O	-0.0127510965	-0.0728998893	 0.0213306928	-0.268854
C	-1.2181345952	-0.6513986742	 0.0480567122	 0.461298
N	-2.3403753316	 0.0301392693	 0.0754185044	-0.285024
O	-3.351454519	-0.9752978861	 0.0942142773	-0.240436
C	-2.7675742543	-2.1773951598	 0.0608635701	 0.49675
N	-3.5745415582	-3.282028983	 0.1258837289	-0.590879
C	-1.4048110358	-2.0659344158	 0.0305705227	-0.132041
N	-0.4859550644	-3.1445646351	-0.0298412437	-0.630354
H	 1.0369348878	 1.6552551545	-0.0017422267	 0.128828
H	-0.5397143029	 1.7451216394	-0.8538005729	 0.141547
H	-0.4976631571	 1.7431006324	 0.923735045	 0.142707
H	-4.483345915	-3.1718173724	-0.3011710295	 0.263607
H	-3.0923624405	-4.1249067447	-0.1564675661	 0.268409
H	 0.0482254138	-3.230945445	 0.8302002926	 0.243396
H	 0.1893704911	-3.0085205044	-0.7758325617	 0.243281
