17
gdb 90698	3.54532	1.36643	1.08642	4.623	75.19	-0.232	-0.0563	0.1757	1107.3015	0.136528	-421.840848	-421.833213	-421.832268	-421.873145	29.059	
C	-0.2674909219	 1.4222814885	-0.0774862952	-0.40488
C	 0.1671441411	-0.0299445462	-0.0575590007	 0.152568
O	 1.4309050088	-0.2311733123	-0.7377322678	-0.30317
C	 2.0890074475	-0.640534519	 0.4874518878	 0.011535
C	 0.7719315187	-0.5617910841	 1.2790482158	-0.153106
C	 0.4556682933	-1.9922159647	 1.6130784463	-0.069097
C	 1.3681045164	-2.8545961087	 1.1423654146	-0.18342
C	 2.4664038716	-2.1351508969	 0.4502447947	 0.378152
O	 3.454584899	-2.6051194666	-0.0598229222	-0.322179
H	 0.4912114217	 2.0655529872	 0.3788216819	 0.124202
H	-0.423891904	 1.7548442353	-1.1079663046	 0.134861
H	-1.208033886	 1.546454808	 0.4707376114	 0.117543
H	-0.6101866229	-0.6740954061	-0.4874576415	 0.085353
H	 2.9338685237	 0.0042419581	 0.7444481115	 0.097311
H	 0.6958756183	 0.1223818242	 2.1263010807	 0.09249
H	-0.4430722816	-2.2707504368	 2.1540347209	 0.120072
H	 1.3493898764	-3.9331268501	 1.2348242763	 0.121765
