19
gdb 104577	2.11736	1.46497	1.00446	2.9374	71.82	-0.2544	-0.0317	0.2227	1219.7289	0.156816	-460.15939	-460.149838	-460.148894	-460.194218	34.825	
C	 0.394549758	 1.2394103746	-1.3776820968	-0.477531
C	-0.4704071198	 0.1829206601	-0.7361149353	 0.391003
O	-0.8304877958	 0.2544220785	 0.4232745601	-0.315846
C	-0.8324926125	-1.0258216562	-1.5932956693	-0.379452
C	 0.0501898627	-2.2226927004	-1.2423908811	 0.394051
C	 0.0387117304	-2.6509954217	 0.227069462	-0.144144
O	-1.2412994721	-2.5607776898	 0.8119663074	-0.424089
C	 0.4084130336	-3.1732462255	-2.3031430144	-0.231413
O	 1.3595181471	-2.2116329577	-1.8263471123	-0.276137
H	 1.2934180988	 0.7616450467	-1.7855692066	 0.165427
H	-0.1328190236	 1.6924606062	-2.2253440698	 0.145189
H	 0.6643340262	 2.0088288649	-0.6538920874	 0.144599
H	-1.8714039922	-1.2958309191	-1.3839147994	 0.144694
H	-0.7225285857	-0.8008663854	-2.6566719756	 0.110724
H	 0.3679561544	-3.6918334017	 0.3033273326	 0.110896
H	 0.7765186693	-2.0363235769	 0.7630026798	 0.107931
H	-1.3929852633	-1.617284092	 0.9767034809	 0.298603
H	 0.6245666966	-4.208359339	-2.0430934461	 0.121435
H	 0.0554716979	-3.0152198157	-3.3216853086	 0.114061
