18
gdb 40019	3.31144	1.46836	1.24198	1.5618	77.99	-0.2284	-0.0069	0.2215	1038.0654	0.149637	-401.914825	-401.907617	-401.906673	-401.946458	29.124	
C	-0.6886252767	 1.2213674289	 0.0099790515	-0.265371
N	 0.7660284694	 1.4018138566	 0.0243010375	-0.366162
C	 0.2142548459	 0.0300939914	-0.0085918632	 0.323
C	 0.4700268356	-0.7639456705	 1.2701161296	-0.318889
C	-0.0602030982	-2.1780253852	 1.2129699034	 0.042447
O	-1.3583455754	-2.3797000816	 0.6649288152	-0.258593
C	-0.2099460946	-2.8353059988	-0.096757208	-0.009946
C	 0.1206403257	-2.0661560184	-1.3198494843	-0.068049
C	 0.2962745925	-0.7428149235	-1.2707927346	-0.146843
H	-1.1965037217	 1.4817643748	 0.9353203616	 0.122601
H	-1.2428126228	 1.4590763452	-0.8943928709	 0.11448
H	 1.0969009688	 1.6694901659	-0.90022337	 0.228814
H	 1.5535802395	-0.8197634812	 1.4372968436	 0.117435
H	 0.0500323953	-0.230896848	 2.1292967784	 0.115657
H	 0.1660095986	-2.7974393532	 2.0822877121	 0.091454
H	-0.1341589343	-3.9188737589	-0.15628909	 0.092037
H	 0.1908034754	-2.6030641873	-2.2601963089	 0.095233
H	 0.4925011668	-0.1786305062	-2.180664273	 0.090697
