16
gdb 44664	2.83969	1.9387	1.73793	3.9528	71.51	-0.2421	-0.0222	0.2199	848.47	0.12708	-400.759649	-400.75343	-400.752485	-400.790107	25.754	
O	-0.049768628	 0.0234613227	 0.3141328055	-0.307021
C	-0.0681128639	 1.2049246902	 0.1156904355	 0.385066
C	-1.3033962891	 2.1080993482	-0.0242394229	-0.311013
C	-0.7664375941	 3.4465595064	 0.5512631792	-0.11825
C	-0.5959517194	 3.2813272959	 2.051911126	-0.082905
C	 0.6475202225	 2.9007940147	 2.3600948973	-0.073256
C	 1.5143748371	 2.884596329	 1.1421175928	-0.067166
C	 0.6909772508	 3.4217903298	 0.0300001136	-0.057419
N	 1.1028693644	 2.0188609482	-0.0304897776	-0.148776
H	-1.5680415346	 2.2202087805	-1.0828195145	 0.130478
H	-2.1554867441	 1.6762409311	 0.5032147942	 0.130286
H	-1.353737627	 4.3147515625	 0.2489734267	 0.086792
H	-1.433617535	 3.3194533705	 2.7389712781	 0.110483
H	 1.0083482606	 2.6218673105	 3.3418394024	 0.111248
H	 2.5882917515	 3.0133382841	 1.2167826629	 0.109748
H	 1.0485140582	 4.0932512758	-0.7434509592	 0.101705
