23
gdb 101051	2.15056	1.15271	1.02108	0.6372	91.89	-0.2395	0.055	0.2945	1375.3253	0.202922	-351.12093	-351.110292	-351.109348	-351.156317	40.042	
C	-0.1558071401	 1.6203804747	-0.1755495546	-0.39292
C	-0.1435357344	 0.08884565	-0.2069290458	-0.171976
C	 0.862608392	-0.5238740933	-1.1994954137	-0.036828
C	 2.3206358331	-0.1849788725	-0.8602127779	-0.40452
C	 0.6650474105	-2.0426998283	-1.3099439857	 0.167433
C	-0.4275651867	-2.5538988609	-2.2383640329	-0.305641
C	 1.0127649963	-2.7136764911	-2.6314117167	-0.309364
C	 0.9111000527	-2.7997115278	-0.1093458652	 0.304067
C	 1.1207737568	-3.4234455609	 0.8986961839	-0.480552
H	 0.7920903491	 2.0324306062	 0.1833889806	 0.118759
H	-0.3430303175	 2.0377673403	-1.1718993622	 0.109503
H	-0.9436232931	 1.9880341722	 0.4894193763	 0.112135
H	 0.0667275654	-0.3024211783	 0.7960831165	 0.107993
H	-1.1463019786	-0.2712622449	-0.468279679	 0.093983
H	 0.6403307921	-0.1159025232	-2.1961417863	 0.063887
H	 2.5848353083	-0.56372436	 0.1325908397	 0.12729
H	 3.0046473658	-0.6401608654	-1.583468361	 0.112503
H	 2.4947566017	 0.8943492156	-0.8706010386	 0.112304
H	-0.9774161456	-3.4358146597	-1.9324139933	 0.125332
H	-1.0212018216	-1.8046959288	-2.7518136349	 0.115961
H	 1.4065517314	-2.0750719979	-3.4152920285	 0.116205
H	 1.4482783134	-3.7049092087	-2.5927610606	 0.125298
H	 1.3040338289	-3.9764943875	 1.7861377199	 0.189148
