25
gdb 121137	2.98281	0.84059	0.78419	1.7879	89.02	-0.2378	0.0794	0.3172	1654.3212	0.226753	-389.493057	-389.482166	-389.481222	-389.529368	40.064	
C	 0.182501554	 1.5244392428	-0.1544376444	-0.382036
C	 0.0519294684	 0.0293308738	 0.1475798768	-0.164458
C	-1.3230753894	-0.542347113	-0.2251865943	-0.20068
C	-1.442928941	-2.03027901	 0.0793542694	-0.075655
C	-1.559504922	-2.482083187	 1.548902902	-0.085085
O	-2.7099149082	-3.2971187258	 1.2623462526	-0.325208
C	-2.7977317627	-2.7900243426	-0.1042893487	 0.409343
C	-4.0509052595	-1.9344742548	-0.2632906527	-0.427214
C	-2.771218096	-3.9374813998	-1.1043742676	-0.428643
H	 1.1723472293	 1.9027531158	 0.1192015124	 0.112369
H	 0.0312914907	 1.7268994625	-1.2206281111	 0.114089
H	-0.5616306493	 2.1069739296	 0.4000345738	 0.114809
H	 0.8315719732	-0.5246118215	-0.3918709913	 0.095838
H	 0.2403679932	-0.1460077887	 1.2150801226	 0.099921
H	-2.0999957183	 0.0167416898	 0.3116881736	 0.095231
H	-1.5055349659	-0.3703492933	-1.2949271355	 0.093747
H	-0.6412792817	-2.5680441746	-0.4383781538	 0.070118
H	-0.7303537775	-3.0689954493	 1.9609200905	 0.097944
H	-1.7968749223	-1.6700320655	 2.2524767678	 0.08846
H	-4.0941039909	-1.1444462694	 0.4904280866	 0.117544
H	-4.0950197517	-1.471300519	-1.2547543049	 0.111628
H	-4.9393519704	-2.5622312288	-0.1408943059	 0.120165
H	-3.6648049245	-4.5613087718	-0.9972234062	 0.120543
H	-2.7424839103	-3.5564003021	-2.1314617899	 0.111488
H	-1.8931770572	-4.5689124474	-0.942684582	 0.11574
