16
gdb 32292	2.74062	1.49542	0.97901	2.4951	75.24	-0.2475	-0.0726	0.1749	1165.3165	0.124277	-437.940421	-437.932355	-437.931411	-437.973656	29.577	
C	 0.0903915326	 1.5634033093	 0.0076173904	-0.380535
C	-0.0403640143	 0.0429167424	 0.0032592375	-0.255827
C	-1.45686622	-0.4609647787	 0.0134509478	 0.1702
N	-2.4648262811	 0.3494559248	 0.0247226948	-0.286195
C	-3.7374879808	-0.182732841	 0.0335696527	-0.088679
C	-3.9477944718	-1.5099182585	 0.0307385327	 0.051515
O	-2.9230920627	-2.3883063712	 0.0191104787	-0.19815
C	-1.6114206666	-1.935821888	 0.0096964632	 0.396912
O	-0.7194902003	-2.739411715	-0.0006984662	-0.323805
H	 1.1456356808	 1.8498050009	-0.0002903915	 0.112408
H	-0.3947381695	 2.0051538978	-0.8667169561	 0.128281
H	-0.3798290405	 1.9988226953	 0.8932016324	 0.128274
H	 0.4644206197	-0.3963286285	-0.8678295907	 0.134594
H	 0.4790949634	-0.4025698146	 0.8624656933	 0.134594
H	-4.5660339194	 0.5139550201	 0.0429295294	 0.126793
H	-4.9141921894	-1.998364095	 0.0371533815	 0.149619
