21
gdb 112124	2.21476	1.56264	1.04556	2.0462	81.58	-0.2388	0.01	0.2488	1221.2736	0.181868	-424.220147	-424.210865	-424.209921	-424.254276	34.524	
C	 0.1674138471	 1.4076260795	 0.1353963642	-0.233593
O	-0.1317899181	 0.0501826892	-0.084875622	-0.242311
C	 0.5872545584	-0.5473038017	-1.1570305265	 0.09186
C	 2.0681334172	-0.6812147718	-0.8768598944	-0.100707
C	 2.6099191776	-1.8577892335	-0.573793307	-0.058166
C	 1.7891433785	-3.109901206	-0.4626534908	-0.12216
O	 0.4007346218	-2.868285725	-0.4458707587	-0.256789
C	-0.0168640593	-1.9339930326	-1.4348403951	 0.103044
C	-1.5371140087	-1.945752163	-1.4550037858	-0.403474
H	 1.1915199596	 1.5591388095	 0.5059249102	 0.107049
H	 0.0391752285	 2.0080272617	-0.7802937501	 0.098341
H	-0.5314557785	 1.7717379112	 0.8927727936	 0.127239
H	 0.4495233423	 0.0708557006	-2.0628667457	 0.060245
H	 2.6860777023	 0.2090378499	-0.948633874	 0.09189
H	 3.6800748184	-1.9624810371	-0.4105431155	 0.094829
H	 2.0579738259	-3.7969974265	-1.2891003746	 0.094776
H	 2.0228421591	-3.6375907827	 0.469935753	 0.118863
H	 0.3681559651	-2.2525398837	-2.4197817503	 0.061672
H	-1.9271682986	-1.6411883142	-0.4828738446	 0.143844
H	-1.9157003215	-1.2538040288	-2.2134873366	 0.108182
H	-1.896632867	-2.9514627952	-1.6870808693	 0.115366
