17
gdb 92439	2.64309	1.60328	1.49877	3.2801	67.26	-0.2303	-0.0262	0.2041	955.9994	0.137199	-458.968272	-458.960739	-458.959795	-459.000367	29.054	
O	 0.0024070233	 1.424000003	-0.081358332	-0.427041
C	 0.0111121985	 0.0163660062	-0.004840209	 0.121853
C	 0.6233082599	-0.5563199203	 1.3311050345	-0.279155
C	-0.5585421606	-1.3206673812	 1.9812216299	-0.159113
C	-1.6334604994	-0.2868931369	 2.3495062932	-0.074506
O	-2.1587685739	 0.1677352612	 1.0755387116	-0.272487
C	-1.4362688055	-0.5078803186	 0.0478576446	-0.020654
C	-1.2052808541	-1.8827477542	 0.704201794	 0.423101
O	-1.4345551601	-2.9989800185	 0.3413329061	-0.318383
H	 0.9143886861	 1.7245030102	-0.1484083062	 0.286179
H	 0.5195564337	-0.4245063705	-0.8755888326	 0.080573
H	 1.4685941052	-1.2211886081	 1.1335798766	 0.111759
H	 0.9674803596	 0.2643458439	 1.9675461439	 0.111738
H	-0.30830075	-2.0393138195	 2.758683312	 0.092681
H	-2.449266692	-0.7263891055	 2.935504334	 0.1133
H	-1.2254053142	 0.5714121941	 2.896256124	 0.109829
H	-2.0024853765	-0.4723944753	-0.8798686146	 0.100327
