29
gdb 102492	1.68367	1.26171	0.91291	0.0886	98.79	-0.2907	0.0772	0.368	1541.4045	0.272743	-354.772259	-354.760136	-354.759192	-354.808837	46.116	
C	-0.8403200859	 1.1326831503	 1.834516246	-0.383045
C	-0.6661590623	 0.1823243443	 0.6433456785	-0.198628
C	-1.9860106156	-0.454614906	 0.1205685587	 0.07031
C	-2.0834522572	-0.2869136809	-1.4136116712	-0.201642
C	-2.363505166	 1.1560007734	-1.8507465001	-0.388634
C	-2.2130250433	-1.9331744469	 0.5953530015	 0.246524
C	-2.0380850097	-2.0416085859	 2.1239967249	-0.409856
C	-3.6580222733	-2.3721828612	 0.2754302236	-0.410485
C	-1.2352288284	-2.9091295543	-0.0882232497	-0.406396
H	 0.1208221292	 1.5545994462	 2.1472583232	 0.107014
H	-1.5003096983	 1.9677399016	 1.5743180129	 0.113402
H	-1.2779453889	 0.6267552206	 2.6998874364	 0.117491
H	-0.1911523136	 0.7414883773	-0.1703493144	 0.090733
H	 0.0535198316	-0.6007543693	 0.9062814727	 0.094639
H	-2.8175399515	 0.1220053772	 0.5529400566	 0.057878
H	-1.1496667048	-0.6314399526	-1.8758775196	 0.095185
H	-2.8749717763	-0.9248075986	-1.8186518139	 0.092007
H	-3.3249623599	 1.5048192027	-1.4571254137	 0.112283
H	-1.5932744764	 1.8504430184	-1.4987881737	 0.116635
H	-2.4021959751	 1.2363167076	-2.9418233365	 0.109561
H	-2.7259301258	-1.3715741565	 2.6516638999	 0.107771
H	-2.253851549	-3.0628149542	 2.4573311467	 0.104282
H	-1.0207697937	-1.8038021182	 2.4467154608	 0.111604
H	-3.8597285338	-2.4099771516	-0.7985079619	 0.11179
H	-3.8476404399	-3.374824897	 0.6742093773	 0.105756
H	-4.3868688036	-1.6920994891	 0.7306530493	 0.106629
H	-0.1901176674	-2.6493238927	 0.1093282289	 0.110084
H	-1.3931902502	-3.9277392092	 0.2828047013	 0.105799
H	-1.375511371	-2.9298158655	-1.1730939546	 0.11131
