17
gdb 1348	4.2207	2.36765	2.28654	1.3834	65.66	-0.2297	0.0195	0.2492	704.2269	0.147403	-309.731369	-309.724077	-309.723132	-309.762326	27.428	
C	 0.0925134554	 1.4648992175	-0.0705992398	-0.402781
C	-0.0899775806	-0.0556773751	 0.0443224095	 0.341712
C	-1.5793417414	-0.4304697257	 0.0406711703	-0.402772
O	 0.5429130106	-0.6806175	-1.0931827661	-0.304108
C	 1.5751634898	-1.5674325234	-0.679495982	-0.125786
C	 1.5847677193	-1.4876966859	 0.8211280276	-0.098858
C	 0.6497945608	-0.6388773471	 1.2270092339	-0.1058
H	 1.1550106918	 1.7214259439	-0.0854377094	 0.116733
H	-0.3655083545	 1.8282330295	-0.9954984961	 0.121331
H	-0.3786827373	 1.9815946934	 0.7722510641	 0.107784
H	-2.0510561453	-0.0819482147	-0.8830472654	 0.121316
H	-1.6997596845	-1.5150958986	 0.1040141567	 0.116735
H	-2.1014799042	 0.0278402247	 0.8872662842	 0.107786
H	 1.3670541216	-2.5865288863	-1.0435158108	 0.102247
H	 2.5369851479	-1.2609937429	-1.1214856621	 0.10226
H	 2.267981591	-2.0540821503	 1.4417175328	 0.103364
H	 0.4128542696	-0.3697845492	 2.2490022227	 0.098838
