18
gdb 54191	2.61845	1.55059	1.21196	2.8552	72.41	-0.2389	-0.0233	0.2156	1063.1919	0.146193	-439.055911	-439.04742	-439.046476	-439.088951	32.723	
C	 0.7931866313	 0.3473318814	 0.7748959668	-0.491041
C	-0.3193316638	 0.2707776833	-0.2348096972	 0.33184
O	-1.2809143921	 1.0161179624	-0.1984163513	-0.336573
C	-0.2735927204	-0.7693775663	-1.3614601395	 0.339332
O	-1.285714684	-0.4812544511	-2.282369752	-0.48301
C	 1.0797542855	-1.0926475616	-2.1026970834	-0.290911
C	 0.9076387909	-2.5652780941	-1.7112247316	-0.038644
N	 0.9213521151	-2.6110440314	-0.230706365	-0.335691
C	-0.3306279701	-2.2698211761	-0.9456417086	-0.118971
H	 1.09957451	-0.6540876054	 1.0867312255	 0.176202
H	 1.6705687094	 0.8076881728	 0.3039550898	 0.145637
H	 0.4807843345	 0.9658885077	 1.6175433428	 0.135353
H	-1.8195491102	 0.2066122702	-1.8463265273	 0.290326
H	 0.9357519304	-0.902772875	-3.1668029335	 0.1306
H	 1.994049019	-0.6122744603	-1.7470985231	 0.103872
H	 1.1740434949	-3.439675936	-2.2908102139	 0.100977
H	 0.8455814562	-3.5881704766	 0.0500335881	 0.236156
H	-1.2422884766	-2.8399281038	-0.8164506465	 0.104548
