14
gdb 15029	2.59309	1.85509	1.21703	2.5606	63.84	-0.2563	-0.0389	0.2174	963.8301	0.103829	-382.480225	-382.471951	-382.471007	-382.514146	28.518	
O	-0.1831734911	 0.1986445008	 0.3779685671	-0.238271
C	-0.0083129386	 1.3319840275	 0.0234883151	 0.163581
C	 1.3901456546	 1.9662559279	-0.098430828	-0.288836
C	 1.4618401481	 2.8115215381	-1.2809427592	 0.3122
C	 1.4768876188	 3.4880333593	-2.2739930114	-0.441399
C	 1.6756099507	 2.7052228298	 1.2149028307	 0.079788
C	 2.4243633978	 3.9633902111	 1.2834852177	-0.187266
O	 0.9996662456	 3.9381400759	 1.4257004655	-0.226747
H	-0.8449194767	 2.0199206521	-0.2150018963	 0.112588
H	 2.1024328986	 1.1351034505	-0.1691614893	 0.13312
H	 1.5008190227	 4.0864813407	-3.1513985362	 0.207936
H	 1.68710558	 2.0376439926	 2.0771010596	 0.116609
H	 2.979019635	 4.2037527462	 2.1887708664	 0.123202
H	 2.7874686644	 4.4154762276	 0.3637962983	 0.133495
