17
gdb 128654	3.57256	1.19036	0.9044	3.7632	72.38	-0.2034	0.0339	0.2373	1270.2216	0.136958	-451.348158	-451.338905	-451.33796	-451.382504	32.43	
C	-0.0415586426	 1.3419385362	 0.0194094372	-0.228053
O	-0.0609410748	-0.0811288763	 0.0663122307	-0.254055
C	-1.2703228032	-0.650462406	 0.0491489071	 0.454601
N	-1.380123091	-1.96432086	 0.0942376935	-0.370016
N	-2.7508472575	-2.1203334298	 0.0400042097	 0.003757
C	-3.3420814788	-3.4356060077	 0.0348660359	-0.332992
C	-3.3414805457	-0.9126601521	-0.00540358	 0.395795
N	-4.7106392403	-0.7302770906	-0.1173483869	-0.602009
N	-2.434633127	 0.0554122445	-0.0067318202	-0.423321
H	 1.0123782285	 1.6232111562	 0.0368284967	 0.127842
H	-0.5146414966	 1.7152246889	-0.8942649022	 0.131223
H	-0.5595136275	 1.7743461372	 0.8813931711	 0.129212
H	-3.4428718636	-3.8423184521	 1.0478789889	 0.137843
H	-4.3268739021	-3.3826840964	-0.4358610998	 0.142968
H	-2.7032596024	-4.1020497454	-0.5470336134	 0.163199
H	-5.2627242612	-1.2710537109	 0.5351905711	 0.256833
H	-4.9424565941	 0.2521332442	-0.0555388994	 0.267174
