16
gdb 72385	2.85361	2.1623	1.43217	1.5399	67.4	-0.239	0.0024	0.2414	885.1286	0.125347	-437.832436	-437.825791	-437.824847	-437.863083	27.071	
C	 0.0226703047	 1.5301741568	-0.1099476366	-0.48073
C	 0.0101607801	 0.0282209623	 0.00455479	 0.43082
O	 0.3438447506	-0.5229336394	-1.2741594822	-0.274724
C	 0.3701092126	-1.8725948567	-1.3176820588	 0.118751
N	 0.1299004393	-2.6490027618	-0.3458763353	-0.290396
C	-0.1911691767	-1.95003288	 0.8771085478	 0.018031
C	 0.6298771137	-0.6794317187	 1.2509860963	-0.034416
O	-0.510113602	-0.1996195748	 2.0458299709	-0.301562
C	-1.1173545855	-0.6989979895	 0.8034710017	-0.034416
H	 1.0118880729	 1.8781764221	-0.4218780339	 0.130339
H	-0.7019432615	 1.8589925903	-0.8607957793	 0.130338
H	-0.2291886975	 1.9719905758	 0.8541548307	 0.150564
H	 0.6280916571	-2.2349147496	-2.3090714684	 0.134875
H	-0.3970789426	-2.6198749145	 1.7103271612	 0.098889
H	 1.6301522858	-0.5966958345	 1.6740963915	 0.101819
H	-2.1993619011	-0.6395838176	 0.6932519541	 0.101819
