23
gdb 92328	2.08784	1.8259	1.2461	1.3855	84.65	-0.245	0.0717	0.3167	1130.8438	0.207494	-388.293122	-388.284505	-388.283561	-388.326322	34.16	
C	-0.8138392627	 1.1634523487	-0.2611117944	-0.414759
C	-0.1088748628	-0.1844532904	-0.1572956404	 0.041145
C	 1.1766914531	-0.3353447892	-1.0226109869	-0.242304
C	 2.0008516648	-0.7214995257	 0.2319777586	-0.026092
C	 2.927627009	 0.3733066285	 0.7851553106	-0.09516
O	 2.093620337	 1.2679181353	 1.5139338253	-0.262717
C	 1.141252568	 0.4378645033	 2.1820963859	 0.144149
C	 0.1027859469	 1.2955942597	 2.8867909626	-0.42238
C	 0.7151983591	-0.5899115693	 1.1215529051	-0.066757
H	-1.1876553419	 1.3035404966	-1.282346317	 0.106994
H	-1.6716018853	 1.2364153694	 0.4150168231	 0.110946
H	-0.1279886456	 1.9865027177	-0.0413204271	 0.133023
H	-0.8316038018	-0.97488346	-0.3847042255	 0.067799
H	 1.1240993381	-1.1106141662	-1.7910209096	 0.093947
H	 1.5034769079	 0.5950984578	-1.4990026468	 0.094552
H	 2.491271125	-1.6957104524	 0.1934395798	 0.065739
H	 3.6839651467	-0.0670997956	 1.4557066248	 0.083362
H	 3.4440108104	 0.9472501636	 0.0100160177	 0.103047
H	 1.6750645437	-0.1428957407	 2.9595713732	 0.058637
H	-0.6377967257	 0.6570961094	 3.378643849	 0.112954
H	 0.5871893021	 1.9060305501	 3.6544653496	 0.12224
H	-0.4167123783	 1.9638678317	 2.2008557666	 0.129248
H	 0.3531777823	-1.5068655224	 1.5921491758	 0.062386
