13
gdb 5199	7.47808	1.18272	1.06018	5.5795	61.4	-0.2224	0.0046	0.227	1033.5764	0.096396	-398.647816	-398.640869	-398.639925	-398.679885	24.892	
O	 0.4026308989	-0.099655419	-0.1782275139	-0.265581
C	 0.5200911034	 1.0709464963	-0.3697965383	 0.150918
O	 0.4831233132	 1.9772797876	 0.6406203735	-0.218193
C	 0.7010189982	 3.3016814476	 0.310901125	 0.313729
C	-0.2023312552	 4.3124324761	 0.5392332274	-0.177852
N	 0.4049374857	 5.4750998956	 0.1374782464	-0.22534
C	 1.6616375569	 5.2161283323	-0.3396873056	-0.061176
C	 1.8838970233	 3.8609059255	-0.2426807125	-0.25453
H	 0.6662988225	 1.5502739245	-1.3546977679	 0.089792
H	-1.1951450731	 4.2914803626	 0.9548521406	 0.136074
H	-0.0143715134	 6.38640615	 0.1921509686	 0.270933
H	 2.2943005457	 6.0091391489	-0.7031556082	 0.129619
H	 2.7838168339	 3.3328932719	-0.5150787652	 0.111608
