18
gdb 74482	3.26506	1.28075	0.99874	4.0729	82.66	-0.2295	-0.019	0.2105	1206.698	0.147378	-401.993848	-401.985124	-401.98418	-402.027734	32.541	
C	 0.0095415737	 1.5098297484	-0.0123235687	-0.486179
C	-0.0384822295	 0.0200257939	 0.0048204859	 0.186608
C	-1.0779250801	-0.8221376345	-0.0735447677	-0.265066
C	-0.6142626861	-2.2268082867	-0.0131221719	 0.386753
C	-1.3915529376	-3.3214492619	 0.6914416159	-0.314148
C	-1.2609897609	-3.3429297523	-0.8098934936	-0.314146
N	 0.8037764413	-2.1056402224	 0.1084628177	-0.41864
C	 1.2169905639	-0.7896636492	 0.1256218998	 0.342614
O	 2.3606602547	-0.3897272979	 0.2194223939	-0.387849
H	 0.6286448606	 1.865768711	-0.8431015401	 0.144012
H	-0.988020989	 1.9463019366	-0.1052029343	 0.117715
H	 0.4770740171	 1.8907423619	 0.9022750955	 0.144016
H	-2.1258538344	-0.5652630011	-0.1683767916	 0.111139
H	-0.8166567594	-4.0409837329	 1.2643488799	 0.124549
H	-2.3491193665	-3.0619989095	 1.1292848542	 0.12697
H	-2.1279772039	-3.0983820587	-1.4136185593	 0.126969
H	-0.5976201532	-4.0770182728	-1.2543172969	 0.12455
H	 1.4484949893	-2.8744944318	 0.1756384414	 0.250132
