18
gdb 96975	4.22652	1.09088	0.97245	2.4923	74.94	-0.2378	0.0253	0.2631	1243.3208	0.146628	-439.07876	-439.070082	-439.069138	-439.112391	32.497	
C	 0.5175159079	 1.447510731	-0.0706149018	-0.330211
N	 0.4799212572	-0.0064762859	-0.0825882809	-0.317219
C	 0.4059724512	-0.6349708094	 1.0027461889	 0.422808
C	 0.3554258626	-2.1490677382	 1.1422261011	-0.401505
C	 0.4979558658	-2.3896550455	 2.6352336452	 0.366521
O	-0.203975323	-3.4364227006	 3.2254957197	-0.466256
C	 1.7357505213	-1.8282632615	 3.3122658289	-0.374766
C	 0.452676519	-1.0307515448	 3.2553785953	 0.045047
O	 0.3580167795	-0.0445609297	 2.2521627094	-0.244671
H	 1.1823135812	 1.7910962189	-0.8692076913	 0.120239
H	-0.481305418	 1.8438197532	-0.2922200058	 0.126155
H	 0.8488131574	 1.8756195626	 0.8824462619	 0.122056
H	-0.6204985617	-2.5217557218	 0.8135316711	 0.141371
H	 1.1220067603	-2.6177295555	 0.5203446198	 0.130417
H	 0.3073137406	-4.2445503735	 3.1076679915	 0.287615
H	 1.9859116229	-2.2575328058	 4.2764243803	 0.124392
H	 2.5778994565	-1.500563653	 2.7105724858	 0.126244
H	-0.1103264107	-0.7931318705	 4.1484794709	 0.121763
