17
gdb 41675	2.87595	2.06624	1.62681	1.075	70.14	-0.2479	-0.0083	0.2396	856.979	0.140234	-417.982542	-417.976278	-417.975334	-418.012979	25.719	
C	 0.0571967864	 1.5600715429	-0.091364623	-0.106246
O	 1.4150396817	 1.975495	-0.139540756	-0.246716
C	 2.1488710872	 1.7405827984	 1.0500987107	-0.072043
C	 1.7209749747	 0.4491768525	 1.8004445599	-0.06005
N	 0.6890224244	 0.7816126609	 2.8109402157	-0.196687
C	-0.3826296338	 0.1931930407	 2.4613232317	 0.027424
N	-0.363890456	-0.6674764639	 1.3287308666	-0.144934
C	-0.0233414316	 0.0436657136	 0.0429312332	-0.046106
C	 1.0400305097	-0.566110646	 0.8736205419	-0.043603
H	-0.4880899672	 2.0779604061	 0.7100110709	 0.111748
H	-0.3749185298	 1.8663391136	-1.0465806761	 0.117416
H	 3.196356043	 1.6710615795	 0.7421440365	 0.109922
H	 2.0445882651	 2.5835264982	 1.747200987	 0.111453
H	 2.5938054042	 0.0327704025	 2.3098087798	 0.096448
H	-1.3186400666	 0.2971338826	 3.0024311742	 0.128927
H	-0.3929421192	-0.4975891917	-0.82158902	 0.109995
H	 1.5362541877	-1.4864056299	 0.5875423071	 0.103053
