19
gdb 94474	3.883	0.88234	0.7836	0.8511	82.14	-0.23	0.0216	0.2516	1503.4006	0.159943	-419.176895	-419.167967	-419.167023	-419.211331	32.753	
N	 0.147470908	 1.2690254212	-0.454243241	-0.508896
C	 0.0475647746	-0.075170698	 0.0722518246	-0.129264
C	-0.0533307152	-0.2289869528	 1.6086240661	-0.080875
O	-1.2697296271	-1.0223517026	 1.4651910217	-0.272231
C	-1.2817092323	-0.8265461518	 0.0895465069	 0.429907
N	-2.1372004916	-1.13676784	-0.7697310991	-0.335711
C	-3.3322754319	-1.811978566	-0.3774301369	 0.045861
C	-4.5762430695	-1.5214551894	-1.1861199927	-0.271197
C	-3.8783863949	-2.8451910282	-1.3367511438	-0.267664
H	 0.1982581068	 1.2359138542	-1.4678081972	 0.243373
H	-0.694559718	 1.7939035908	-0.2324137267	 0.233654
H	 0.8521632951	-0.67970101	-0.3560320943	 0.112679
H	 0.7345151438	-0.7949141199	 2.1105416563	 0.121739
H	-0.2514423812	 0.7053275697	 2.142109479	 0.118475
H	-3.4667678844	-2.0055892891	 0.6839393754	 0.099358
H	-5.5241277451	-1.486365477	-0.6608154086	 0.111136
H	-4.4708509074	-0.803665375	-1.990963964	 0.118086
H	-3.306700765	-3.0118640857	-2.2419202401	 0.11978
H	-4.3397348747	-3.7313699106	-0.9155757056	 0.111791
