19
gdb 38681	2.85476	1.87182	1.47961	1.4356	74.45	-0.231	0.0767	0.3077	941.7249	0.160783	-422.97657	-422.969542	-422.968597	-423.007845	29.125	
C	 0.0339619182	 1.4369845887	 0.4890433645	-0.333954
C	 1.3161966509	 0.7760072823	 0.0457749232	 0.074911
O	 2.3127267411	 0.5494215697	 0.9923169534	-0.273858
C	 2.6270452541	-0.7966631609	 1.3455683014	 0.124998
C	 2.0305568959	-1.8853676758	 0.4147407455	-0.28602
C	 0.7840439786	-1.9040725012	 1.3385221004	 0.124998
C	 1.6877328243	-1.3278548294	 2.4627027588	-0.235027
O	-0.2549399041	-0.9934214765	 0.982498223	-0.273857
C	 0.0181260135	-0.0039674249	 0.040813232	 0.074912
H	-0.0643110576	 1.5937444011	 1.5571959596	 0.129204
H	-0.4193816119	 2.1954543943	-0.1392231235	 0.112113
H	 1.7098951498	 1.0511213875	-0.932462671	 0.090222
H	 3.7035347415	-0.8154312056	 1.5321780713	 0.077839
H	 1.9050825994	-1.6697931982	-0.646835802	 0.111863
H	 2.5904511456	-2.8178625069	 0.5237094072	 0.108608
H	 0.2942207517	-2.8639963766	 1.5191443735	 0.077839
H	 2.1590007642	-2.1159494315	 3.0580270437	 0.096833
H	 1.2368520803	-0.5816553314	 3.1193086626	 0.108154
H	-0.4041080255	-0.2191219646	-0.9405440436	 0.090222
