19
gdb 96215	2.74136	1.34131	0.9637	2.5991	80.41	-0.2479	-0.0556	0.1923	1219.3922	0.159427	-423.049676	-423.041158	-423.040214	-423.082846	32.036	
C	 0.031470514	 1.6165428732	-0.1407134287	-0.41188
C	 0.0438816834	 0.0833121186	-0.0138854865	-0.108923
C	 0.5920129212	-0.5391631767	-1.3080961895	-0.08883
O	 0.8519730286	-1.9270513484	-1.1828500712	-0.245777
C	 1.8862209065	-2.1913318175	-0.2634995148	-0.129124
C	 1.7326095701	-1.4315273428	 1.0175044902	-0.159202
C	 0.8665233116	-0.4163432673	 1.1578731776	 0.227628
C	 0.6941285292	 0.1396717692	 2.5142610523	 0.095358
O	-0.1393851894	 0.9528090341	 2.8452696753	-0.277609
H	 1.0498468958	 2.0088455013	-0.2404488544	 0.111575
H	-0.5306976288	 1.9151413203	-1.0320775661	 0.111816
H	-0.4286977882	 2.0750045572	 0.7338393014	 0.1568
H	-0.9907220942	-0.2559939143	 0.1289264342	 0.102345
H	-0.1316283698	-0.4353232713	-2.1210762762	 0.114633
H	 1.5122461779	-0.0075439071	-1.6059231378	 0.087379
H	 1.8621380115	-3.2696633714	-0.0646799709	 0.129655
H	 2.8782205666	-1.9752942353	-0.7053642482	 0.108677
H	 2.3376853485	-1.7553896691	 1.8627866179	 0.107529
H	 1.4054285856	-0.2830827726	 3.2609789556	 0.067949
