19
gdb 31492	3.20994	1.04455	0.82504	1.6596	81.94	-0.1811	0.0401	0.2212	1406.0579	0.159696	-419.241277	-419.231435	-419.230491	-419.276353	35.685	
C	-0.4046573682	 1.5962866693	-0.1560106561	-0.511097
C	-0.2245538004	 0.1211555963	 0.0390194983	 0.252147
C	 0.2164461375	-0.7856730404	-0.9064932423	 0.180168
N	 0.6844806126	-0.636701285	-2.228738524	-0.61374
N	 0.2154344189	-2.0346701592	-0.3361596769	-0.311017
C	-0.203256871	-1.9540169963	 0.975404163	 0.272643
C	-0.3089763804	-3.1753583673	 1.8210537961	-0.181345
O	 0.8819582047	-3.9675433342	 1.8004258684	-0.420342
C	-0.4723844373	-0.6292385468	 1.2303369692	-0.340053
H	 0.3733173488	 2.1860515977	 0.3456743735	 0.122199
H	-0.3790006221	 1.8629221782	-1.218502047	 0.101677
H	-1.3677421486	 1.9391349564	 0.2384860274	 0.124167
H	 0.9650875021	 0.3190226557	-2.4087798684	 0.244943
H	-0.0139447496	-0.8903699602	-2.9220810829	 0.242549
H	 0.6241727098	-2.8524096316	-0.7563661338	 0.260509
H	-0.5861764393	-2.8771118131	 2.8424049004	 0.099675
H	-1.0911284315	-3.85464483	 1.4590544009	 0.112131
H	 1.6055266112	-3.3896349954	 2.0673295643	 0.279405
H	-0.8434505775	-0.2362221241	 2.1663866299	 0.085382
