25
gdb 64119	2.59723	1.20182	1.14701	1.3702	88.06	-0.257	0.0698	0.3268	1284.8631	0.22769	-389.521531	-389.511335	-389.510391	-389.555643	40.547	
C	 0.3938780194	 1.3970452233	 0.2827585294	-0.420542
C	-0.0916495309	-0.0320821492	-0.0253137879	 0.297865
C	-1.6206615043	-0.0390125031	-0.136074633	-0.439465
C	 0.5838902438	-0.5830112631	-1.3051455204	-0.225366
C	 1.9830215407	-1.0595128083	-0.8648246936	-0.273547
C	 1.8785019222	-1.3840000364	 0.661789211	 0.400849
C	 2.240002725	-2.8351472747	 0.9883258518	-0.440048
O	 2.7139305741	-0.5053351135	 1.4327619039	-0.468823
C	 0.4209578546	-1.0326816653	 1.0371365649	-0.244643
H	 1.4761779492	 1.4350481559	 0.4223567053	 0.131292
H	 0.1189637106	 2.083347901	-0.5264300452	 0.099239
H	-0.0666558563	 1.7688191624	 1.204950192	 0.106268
H	-1.9619111996	 0.632919808	-0.932026309	 0.107411
H	-1.9995626611	-1.0425373178	-0.3604076406	 0.103168
H	-2.0878484245	 0.2944712283	 0.7974315136	 0.108971
H	 0.0018305331	-1.4351978203	-1.6778650279	 0.087876
H	 0.6199418211	 0.1545665702	-2.1134565414	 0.090176
H	 2.3245449262	-1.9216098132	-1.4459996988	 0.09053
H	 2.7265910518	-0.2677661173	-0.9971871455	 0.098154
H	 3.2861012914	-3.0430203458	 0.7304004135	 0.100408
H	 2.1080988804	-3.0322533996	 2.0565566934	 0.121116
H	 1.615601097	-3.5361369543	 0.4246048793	 0.112038
H	 3.6276220904	-0.675938415	 1.1795927386	 0.270311
H	 0.3736556059	-0.6463107065	 2.0591111287	 0.103171
H	-0.1895431102	-1.9425689761	 0.9979619679	 0.083592
