17
gdb 109637	2.22714	1.36611	1.08613	5.1908	70.93	-0.239	0.0153	0.2543	1169.4323	0.134507	-455.113001	-455.103515	-455.102571	-455.147165	34.341	
C	-0.4404609481	 1.043090403	-0.2067013089	-0.245865
O	 0.5199456388	 0.021881599	 0.0492590321	-0.245049
C	 0.978054752	-0.6009825725	-1.0911022314	 0.033862
C	 1.3521543472	-2.0431048165	-0.9310086654	-0.15031
N	 1.0347808029	-2.671453629	 0.3202856282	-0.519663
C	 0.0843533979	-1.6745292685	-1.7426305676	 0.240952
O	-1.1132375457	-1.9791866289	-1.1242916725	-0.457609
C	 0.1042660072	-1.8081338913	-3.1736949893	 0.253835
N	 0.1650280845	-1.8849477619	-4.3271440374	-0.348133
H	-0.018679726	 1.8260591719	-0.8515736205	 0.116502
H	-1.3362379689	 0.6241528383	-0.676102466	 0.146827
H	-0.6990398408	 1.4778241448	 0.7606628234	 0.132832
H	 1.581240767	 0.0116661817	-1.7631073937	 0.108789
H	 2.2154708309	-2.4061341552	-1.4789534618	 0.120324
H	 1.5580647689	-3.5247554591	 0.4603612613	 0.253685
H	 1.1817897362	-2.0411970772	 1.1004325651	 0.263705
H	-0.8510118541	-2.5123100487	-0.3460174357	 0.295315
