19
gdb 64822	2.38377	1.29882	0.97011	1.0975	76.55	-0.2464	-0.0964	0.1501	1253.1782	0.156511	-423.036014	-423.026424	-423.02548	-423.071137	34.646	
C	 0.2985508511	 1.6039287451	 0.3312644553	-0.458608
C	-0.1467464291	 0.2390925126	-0.1580624169	 0.359119
C	-1.5539850965	 0.2012384564	-0.7660814661	-0.377526
C	-2.6040412613	 0.4463905777	 0.2939147305	 0.303542
O	-2.9698036071	 1.5365998142	 0.6723633593	-0.280909
C	-3.2400172158	-0.7788740221	 0.970872701	 0.089002
O	-2.9811524614	-1.9191949677	 0.6872097516	-0.216475
C	 0.8912208989	-0.66592039	-0.7788011765	-0.31465
C	 0.3318119635	-0.9896838842	 0.5852677074	-0.304714
H	 1.3004996627	 1.5510931855	 0.7674482239	 0.113829
H	 0.3290718606	 2.3252747118	-0.4937880333	 0.118171
H	-0.3806379082	 2.0044499345	 1.0903568569	 0.134093
H	-1.6512169722	 0.9814464312	-1.528343211	 0.124202
H	-1.7332156841	-0.7751131609	-1.2235125683	 0.125134
H	-3.9800118606	-0.4947402889	 1.748666382	 0.110524
H	 0.5970088753	-1.2939626238	-1.6129524148	 0.114314
H	 1.9079877177	-0.2924937692	-0.8411692393	 0.113818
H	 0.9714195183	-0.8406619118	 1.4487206278	 0.112674
H	-0.343527042	-1.8337688205	 0.6678312106	 0.134461
