18
gdb 45246	3.06381	1.68253	1.36111	2.852	75.29	-0.2607	0.0304	0.291	975.4163	0.150519	-401.948154	-401.94125	-401.940306	-401.979447	28.065	
N	-0.1297206689	 1.1752844938	-0.7683049701	-0.550306
C	-0.073443721	 0.0840049342	-0.1551962475	 0.432956
O	 0.9426897195	-0.4634322962	 0.6089942683	-0.278079
C	 0.2156967051	-1.7384740718	 0.735240063	 0.106369
C	-0.165082107	-2.1357136769	 2.163287	-0.256196
C	-1.5551977657	-1.5584029303	 2.416441053	-0.032679
C	-1.7324958335	-0.0678320389	 2.3249228587	-0.291264
C	-2.0725375541	-0.928478276	 1.1311392316	-0.04152
C	-1.0136218567	-1.0906718775	 0.0426946372	-0.165118
H	 0.7345254012	 1.7086757149	-0.6559451217	 0.22562
H	 0.7611791078	-2.5104431326	 0.1882720666	 0.096673
H	-0.1973564667	-3.2286983702	 2.2314433704	 0.108029
H	 0.5901674781	-1.7884043935	 2.8764064077	 0.122397
H	-2.2224164283	-2.114719914	 3.0656984002	 0.087099
H	-2.5639805717	 0.3717500685	 2.8650111039	 0.113833
H	-0.8511933877	 0.5634196323	 2.2816444346	 0.131802
H	-3.1118185822	-1.0139657949	 0.8388939965	 0.092664
H	-1.4029658783	-1.5460940008	-0.8674439427	 0.097717
