14
gdb 125461	6.86764	0.86111	0.77826	6.6284	66.09	-0.2624	-0.0124	0.2499	1386.8882	0.101142	-470.056637	-470.04833	-470.047386	-470.09108	28.208	
C	-0.218467319	 1.4329696837	 0.0427953963	-0.493708
C	 0.0144513482	-0.0350935223	-0.0515649728	 0.377537
N	-0.2208000923	-0.8060794807	-1.1042498309	-0.351708
C	 0.1702867615	-2.0242902034	-0.6698046382	 0.426853
O	 0.1038678029	-3.0974429329	-1.4941322583	-0.208718
C	-0.1589117649	-4.3245574574	-0.9370625283	 0.170046
O	-0.1058222926	-5.3188271562	-1.5861474454	-0.251437
N	 0.6362232577	-2.0898854041	 0.5652802618	-0.300077
N	 0.5135609256	-0.7898963305	 0.9489777716	-0.236799
H	-0.020626949	 1.8035336056	 1.0517558725	 0.130126
H	 0.4302776294	 1.9679186344	-0.6570477196	 0.165297
H	-1.2528351476	 1.6689255282	-0.2203987793	 0.166201
H	-0.4203575585	-4.250730033	 0.1290753631	 0.122114
H	 0.8054946786	-0.5147321014	 1.8726347375	 0.284272
