15
gdb 46869	2.69659	1.81586	1.19636	6.6233	66.65	-0.2432	-0.0461	0.1971	985.0365	0.114603	-453.968174	-453.960852	-453.959908	-454.00006	27.72	
O	 0.008126099	 0.0069045543	-0.689565268	-0.342936
C	-0.0359588608	 1.1417641457	-0.2763176938	 0.348319
N	-1.1749732947	 1.9047335888	-0.2191101817	-0.324535
C	-1.2015127822	 3.192532417	 0.4726871974	-0.206113
C	-0.0101851658	 3.9997022728	-0.013844111	-0.01557
C	 1.1390809738	 4.3234343223	 0.8964053685	-0.251541
N	 1.2273894909	 3.2401962218	-0.0689920169	-0.079226
C	 1.2062744524	 1.8870331953	 0.2800616973	 0.260114
O	 2.0621490214	 1.3313801309	 0.9164016574	-0.304507
H	-2.0376944354	 1.4258605703	-0.4350631916	 0.257138
H	-2.1401469427	 3.698968739	 0.2377046103	 0.132995
H	-1.1623556336	 3.0635952797	 1.5635856654	 0.126667
H	-0.1866535327	 4.6367308123	-0.8777690684	 0.116349
H	 1.7588435228	 5.1904251161	 0.6898203911	 0.1406
H	 1.0611542676	 4.0482471237	 1.9450227741	 0.142246
