16
gdb 29876	3.21089	1.43796	1.0011	8.1942	75.85	-0.2188	-0.0119	0.2069	1129.4463	0.126552	-434.130045	-434.121979	-434.121035	-434.162653	30.392	
C	-0.0976932192	 1.4902120095	 0.0041913008	-0.362104
N	-0.0067926852	 0.0371328466	 0.0038199904	-0.115143
C	 0.0231367843	-0.6736062853	-1.1833916302	 0.020339
C	 0.0376378543	-2.0152633825	-1.1929203806	-0.257782
C	 0.0138847269	-2.7658968069	 0.0719625374	 0.371481
O	-0.0071438859	-3.9817813977	 0.1152169235	-0.377446
N	 0.0333010019	-1.9883038456	 1.2394694574	-0.394146
C	 0.0167658155	-0.6971277158	 1.1740661887	 0.462511
N	-0.0422649269	 0.0335369071	 2.3469871342	-0.572189
H	 0.8406863431	 1.958828139	 0.3270770795	 0.139949
H	-0.3122647422	 1.8305823043	-1.009525725	 0.150622
H	-0.904872256	 1.8214129129	 0.6628833636	 0.162279
H	 0.0284592377	-0.0652216068	-2.0802687765	 0.128284
H	 0.0577515449	-2.5671323365	-2.1233265773	 0.1153
H	 0.1075655715	-0.56592712	 3.1467107693	 0.27302
H	 0.4816566353	 0.8951216578	 2.3879081948	 0.255025
