13
gdb 19327	5.31731	1.69038	1.51559	3.3315	65.16	-0.2282	0.0075	0.2357	819.3403	0.093813	-361.315478	-361.309011	-361.308066	-361.345827	25.588	
C	 0.0040536967	-1.1888175793	-0.1161855873	-0.360458
C	 0.0471856041	 0.0107460077	-0.0374234403	 0.168373
C	 0.0625216489	 1.4203458452	 0.1155811064	 0.323907
O	 0.2066176156	 2.2837940917	-1.0224386407	-0.256716
C	 1.1343409841	 2.4325775991	 0.0411547328	-0.066863
C	 0.467999155	 3.244383564	 1.2082754532	-0.093866
N	-0.9058819352	 3.5964603067	 0.7771442336	-0.307768
C	-0.614290067	 2.2420864856	 1.2863684985	-0.172022
H	-0.0270929226	-2.2469388972	-0.20129983	 0.192256
H	 2.1908060937	 2.3276667263	-0.1738843984	 0.123427
H	 0.9891828922	 3.7741187153	 1.9933777645	 0.10603
H	-1.331661179	 4.1117725651	 1.5484813161	 0.23672
H	-1.1153556966	 1.8065127198	 2.1396614315	 0.106981
