15
gdb 26543	2.43084	1.86599	1.06266	6.5853	72.28	-0.218	-0.0259	0.1921	1058.7109	0.11431	-454.018966	-454.01116	-454.010216	-454.051371	29.167	
C	 0.033754965	 1.557349023	 0.0221106146	-0.505406
C	-0.040032933	 0.0636617734	 0.0145573828	 0.236915
C	-1.1703732458	-0.6767474591	-0.0841395136	 0.197764
O	-2.4016898275	-0.1505942235	-0.1903805788	-0.43329
C	-1.1251134579	-2.1476353307	-0.0814601083	 0.337078
O	-2.1907647176	-2.7525358991	-0.1741653182	-0.410595
N	 0.1108101183	-2.7656861163	 0.0249341469	-0.327322
C	 1.1587767374	-2.0087664377	 0.1164432889	 0.089246
N	 1.1466217095	-0.6560889485	 0.1167211429	-0.343564
H	 0.6348730164	 1.9343007549	-0.8144339351	 0.138395
H	-0.9704962303	 1.9725285955	-0.0646318651	 0.172358
H	 0.4819375141	 1.9329143339	 0.9501916453	 0.138386
H	-2.9698889473	-0.9490014032	-0.2403914373	 0.306634
H	 2.1444688139	-2.4614869403	 0.2013731459	 0.135276
H	 2.0174366449	-0.1533478123	 0.1927624089	 0.268125
