12
gdb 35163	2.53214	1.3316	1.03553	4.5266	69.58	-0.328	-0.054	0.2741	1106.3395	0.077238	-394.540386	-394.532237	-394.531293	-394.573527	28.518	
N	-0.0833223829	-1.139178393	-0.0547766497	-0.300909
C	-0.0388935716	 0.0145876349	-0.0089827304	 0.319338
C	-0.0084254856	 1.4491496193	 0.0510025497	-0.204728
C	 0.4896848018	 2.1533359742	 1.2791798167	-0.292739
C	 1.3594384937	 2.1854733221	 0.0240538347	 0.01503
C	 2.5717004258	 1.4037829514	 0.0132182995	 0.27279
N	 3.5434506087	 0.7796059129	 0.0175510065	-0.306811
C	 1.3995504848	 3.411563397	-0.7367855807	 0.262998
N	 1.3992641615	 4.3991091228	-1.3362896017	-0.306917
H	-0.7842628535	 1.9438141318	-0.5231790989	 0.180604
H	 0.0068883392	 3.0815712006	 1.5574986019	 0.176455
H	 0.8613082981	 1.545080886	 2.0940706124	 0.184889
