19
gdb 57662	2.29832	1.22673	1.03445	4.4455	72.63	-0.2694	0.0057	0.2751	1246.122	0.155654	-460.163097	-460.153286	-460.152342	-460.197856	35.298	
C	-0.0511464172	 1.4815238538	-0.2408879098	-0.42278
C	 0.0222542216	-0.0176835066	 0.0732799084	 0.297849
C	 0.7973629596	-0.3219579174	 1.3605331172	-0.425645
O	-1.3114290907	-0.592584216	 0.1411849646	-0.226197
C	-2.1984855864	-0.1588283202	 1.0505444175	 0.167483
O	-3.2918760438	-0.6335489768	 1.1495875721	-0.278736
C	 0.6996772463	-0.7275780361	-1.0950076898	 0.083933
C	 0.2037080042	-1.9684639496	-1.6987939798	-0.181111
O	 0.0328396378	-0.7006741865	-2.347342991	-0.244012
H	 0.9555618975	 1.8729462086	-0.4165598182	 0.126703
H	-0.6447279124	 1.6377480784	-1.1443948806	 0.156427
H	-0.4895503361	 2.0535344758	 0.5809354984	 0.120935
H	 0.3707158077	 0.2012465012	 2.2203519054	 0.126168
H	 0.7877916432	-1.3957362463	 1.5668077457	 0.13891
H	 1.8376508344	 0.0022006938	 1.2607036915	 0.129282
H	-1.8281161992	 0.6626950024	 1.6876309385	 0.079701
H	 1.7692942946	-0.5140252364	-1.1492561884	 0.093076
H	 0.9088313543	-2.6440840993	-2.1804918364	 0.114965
H	-0.7097777254	-2.4151473428	-1.3192575552	 0.14305
