17
gdb 126330	2.03535	1.5487	0.93912	5.4838	77.52	-0.2441	-0.0459	0.1981	1234.3177	0.136904	-418.043343	-418.034811	-418.033867	-418.077107	30.741	
C	 0.0450874873	 1.5586427919	 0.1090388453	-0.367633
C	-0.0283116886	 0.0272329092	-0.0252561551	-0.31535
C	 0.685351464	-0.5008570502	-1.2374741148	 0.149461
C	 0.1202878244	-0.8889709661	-2.4331117293	-0.110418
N	 1.1457364624	-1.2666792734	-3.2434145503	-0.173275
N	 2.3438519227	-1.1597316416	-2.6763868356	-0.255938
C	 2.0848927268	-0.6904629999	-1.4469791928	 0.165083
C	 3.1679134206	-0.4412188531	-0.4834641272	 0.092845
O	 4.3475262184	-0.5957994294	-0.6922216127	-0.26304
H	 1.0815065592	 1.8994502279	 0.1945583824	 0.126157
H	-0.3931646897	 2.0486014806	-0.765790266	 0.121123
H	-0.496766601	 1.8963168493	 0.9978155101	 0.117339
H	 0.382122315	-0.4351348461	 0.8796305695	 0.11618
H	-1.0789364606	-0.2805215861	-0.0705791674	 0.106707
H	-0.9070685346	-0.9299432794	-2.7598599342	 0.142457
H	 1.0857308679	-1.6127884533	-4.1876138812	 0.283175
H	 2.8061778358	-0.0823341403	 0.5064796891	 0.065128
