18
gdb 74186	2.39181	1.64679	1.08117	5.5846	82.11	-0.213	-0.019	0.194	1114.9327	0.149834	-401.985231	-401.977398	-401.976453	-402.017424	31.276	
N	 0.0965612287	 1.3525069055	 0.2454637424	-0.571545
C	 0.0078412555	-0.0029584278	 0.0531047291	 0.411246
C	-1.1798461295	-0.6626872989	-0.0172865095	-0.316454
C	-1.2933233897	-2.1081140103	-0.0712450474	 0.368595
O	-2.3591705361	-2.6809582891	-0.238603748	-0.373383
C	-0.0203032964	-2.9355778029	 0.1621078703	-0.340189
C	 1.2939325147	-2.2196628674	-0.0660955389	-0.033765
C	 1.5852489429	-1.4877546853	-1.3414229731	-0.29069
C	 1.3064434574	-0.7053069264	-0.0620489166	-0.132727
H	 0.9274713455	 1.8202227661	-0.0804795742	 0.257408
H	-0.7509372941	 1.8920021672	 0.1582769425	 0.26014
H	-2.1160825956	-0.1122981435	-0.031603796	 0.076798
H	-0.0717343964	-3.2742375067	 1.205207894	 0.126655
H	-0.0956276375	-3.8374657367	-0.4533647124	 0.12586
H	 2.1530566034	-2.6842177613	 0.4082851912	 0.093724
H	 2.6030713249	-1.4897744352	-1.7160863712	 0.116509
H	 0.8153820934	-1.4549677476	-2.1048042493	 0.131274
H	 2.146702379	-0.2014636897	 0.4054601173	 0.090544
