17
gdb 52283	4.31491	0.70427	0.63704	2.454	71.27	-0.253	-0.0436	0.2094	1671.8101	0.132878	-458.964154	-458.954934	-458.95399	-458.999995	31.522	
O	-0.4707527062	 0.6438632124	 0.8952611636	-0.233106
C	 0.0220512697	 1.0294399602	-0.132378966	 0.157757
C	 1.3469181574	 1.7491627611	-0.2425410624	-0.275306
C	 1.2117748931	 3.0895874811	-0.9859071527	-0.221251
C	 2.5700757601	 3.7268458075	-1.2454962503	 0.009299
O	 3.4262547446	 2.9295588422	-2.1042016604	-0.291828
C	 3.5552316562	 3.9564237825	-3.110036376	-0.189192
C	 2.6324167034	 4.8606439832	-2.2835967378	 0.336641
O	 2.1520417586	 5.9449371965	-2.3977572336	-0.267323
H	-0.4937017978	 0.8719661096	-1.1095784543	 0.072836
H	 1.7602518692	 1.8824466987	 0.7614078063	 0.124304
H	 2.0304459746	 1.1082128225	-0.8163664745	 0.144169
H	 0.6993052323	 2.9340629895	-1.9432756328	 0.111552
H	 0.6057828031	 3.7946061602	-0.4051500518	 0.132595
H	 3.0751990781	 3.9716380692	-0.29990077	 0.112131
H	 4.5839640743	 4.322160635	-3.220109359	 0.138349
H	 3.1711955992	 3.6502100787	-4.0908983184	 0.138372
