16
gdb 62342	3.6514	1.11863	1.09321	2.7685	74.92	-0.2633	-0.0399	0.2234	1139.3822	0.123328	-400.753047	-400.744826	-400.743881	-400.785828	30.708	
C	-0.009964986	 1.5328821453	 0.014686562	-0.468404
C	 0.0725613822	 0.0129499734	-0.05865217	 0.136357
C	-1.0886941357	-0.6386718301	 0.5120996332	 0.242478
N	-2.0274114583	-1.1382765142	 0.9667227913	-0.331882
C	 0.6979986133	-0.7734260471	-1.1839633065	-0.082364
C	 1.8862531458	-0.0162122147	-1.7935270833	-0.382193
C	 2.5376359853	-0.0505572965	-0.3844125186	 0.401382
O	 3.6202559867	 0.2425277489	 0.02827901	-0.296193
C	 1.3622770089	-0.789970521	 0.2089884572	-0.202737
H	 0.8901090902	 2.0074917872	-0.378212273	 0.142269
H	-0.8702556822	 1.8954970943	-0.555298517	 0.144388
H	-0.1307873128	 1.8522265188	 1.0532350773	 0.150621
H	 0.1688980988	-1.5890318358	-1.6574237422	 0.130177
H	 2.471618818	-0.6412521313	-2.4745228327	 0.147141
H	 1.7033718522	 0.9505991735	-2.2676404638	 0.133418
H	 1.3854930835	-1.5502657508	 0.979079396	 0.135542
