17
gdb 48948	3.64053	1.38613	1.3355	2.9833	72.53	-0.2424	-0.0185	0.2239	994.7441	0.137993	-421.838588	-421.831852	-421.830908	-421.869816	27.036	
O	-0.1614499464	 0.0828481141	 0.2938494741	-0.270276
C	 0.0358873565	 1.2155534871	-0.0818816192	 0.042152
C	 1.3341070199	 1.8897274937	-0.0469105541	 0.222765
C	 2.6260645759	 1.2667356994	 0.4580579834	-0.286843
C	 3.4741790629	 2.5479585543	 0.3185591847	 0.043135
C	 3.2505958418	 2.9493516995	-1.156307542	-0.230555
C	 1.7290387165	 2.9966111918	-1.0613871795	-0.170899
C	 1.4658098831	 3.3769067214	 0.3546591245	 0.059225
O	 2.6859929694	 3.5245938761	 1.0343503466	-0.252361
H	-0.7968138253	 1.8378383382	-0.4869687988	 0.060258
H	 2.5473183472	 0.9266965973	 1.4927649138	 0.123723
H	 2.9844740391	 0.4458219986	-0.1674250422	 0.115199
H	 4.4901899247	 2.543897866	 0.7052043621	 0.091498
H	 3.681720723	 3.9263020887	-1.3913226736	 0.115799
H	 3.6259189554	 2.2022922168	-1.8597153854	 0.113088
H	 1.0764792982	 3.2696792705	-1.87967678	 0.104169
H	 0.6515135181	 3.9841568666	 0.7232136755	 0.119925
