18
gdb 49657	2.95684	1.40141	1.25736	3.4988	76.52	-0.2411	-0.0377	0.2033	1056.6751	0.148677	-401.902902	-401.895484	-401.89454	-401.935095	29.145	
O	-0.4404530014	 0.5176172843	-0.9741904131	-0.262826
C	-0.0653684248	 1.0966132928	 0.0168033535	 0.128953
C	 1.2395815981	 1.822452687	 0.0604989496	-0.086078
C	 1.5433113829	 2.8798682383	 1.0870208188	-0.053271
C	 0.8324466623	 2.9051778014	 2.4503273311	-0.274558
C	 1.4090509905	 1.7123153104	 3.2270270982	-0.033662
C	 1.0948233887	 0.295763378	 2.8034004803	-0.30524
C	 2.3280438052	 0.9808458064	 2.2735314381	 0.009874
N	 2.3879367739	 1.6941524389	 1.0042492021	-0.11424
H	-0.7268077575	 1.181214305	 0.9011527402	 0.087795
H	 1.5997157783	 1.9802556874	-0.9543160212	 0.117274
H	 1.9703811811	 3.8151739458	 0.7303672615	 0.10255
H	 1.0893616834	 3.835763395	 2.9644102476	 0.11809
H	-0.2590019826	 2.8850131668	 2.3740267786	 0.120046
H	 1.6851525549	 1.8774841765	 4.2622535072	 0.096104
H	 1.271514333	-0.4727961054	 3.5499110132	 0.120081
H	 0.2612146397	 0.0690655185	 2.1552126226	 0.123023
H	 3.2979291743	 0.6019679032	 2.5746744416	 0.106084
