20
gdb 33244	5.49225	0.66941	0.64037	2.3932	82.86	-0.2025	0.0478	0.2503	1778.8527	0.171637	-403.174029	-403.164699	-403.163755	-403.20942	33.625	
C	-0.1396341946	 1.3881438047	 0.0178772358	-0.2259
O	 0.0255905341	-0.0063446501	-0.0363581315	-0.227965
C	 0.6377813861	-0.5325166722	 1.1216795011	-0.037151
C	 0.7637885271	-2.0482798343	 0.9614090828	-0.33348
C	 1.3890433456	-2.703569796	 2.1580371324	 0.271989
C	 2.6650007703	-3.2179270288	 2.237170031	-0.183259
N	 2.8557681934	-3.702769884	 3.5068882173	-0.231066
C	 1.7198897959	-3.5103079231	 4.2502906985	-0.074276
C	 0.7943213512	-2.8926405482	 3.4436886726	-0.239715
H	 0.8246931965	 1.9129756523	 0.1156766346	 0.099928
H	-0.6167924429	 1.7005736512	-0.9146713743	 0.12291
H	-0.7786380362	 1.6936757494	 0.8624664387	 0.100157
H	 1.6348002839	-0.0844201343	 1.2723282194	 0.083622
H	 0.0400685564	-0.2920737191	 2.0175117843	 0.084813
H	-0.237801589	-2.453328481	 0.7738949481	 0.108847
H	 1.3567413588	-2.2513381725	 0.0631358507	 0.10295
H	 3.4434918107	-3.2804732608	 1.4931110195	 0.113402
H	 3.6938644891	-4.1482749615	 3.8353010519	 0.260013
H	 1.6666342943	-3.8310043614	 5.2782690395	 0.115519
H	-0.2067061406	-2.6095928203	 3.7337563075	 0.088661
