16
gdb 42870	2.94976	1.39011	1.3537	2.5949	68.61	-0.246	-0.0393	0.2067	1002.9324	0.125346	-437.900183	-437.892873	-437.891929	-437.932535	28.089	
O	 0.0032590201	 0.0034629113	 0.103554047	-0.309635
C	-0.0123610898	 1.1982963549	 0.1211592762	 0.420778
C	-1.0906045749	 2.288710036	-0.038395802	-0.147891
C	-1.3315425065	 3.0280607575	 1.2779060708	-0.295852
C	-0.0141023694	 3.3975321806	 1.9777623915	 0.386307
O	-0.0051178748	 3.9273402322	 3.0601843297	-0.305434
C	 1.2913970623	 3.0629140201	 1.2390759362	-0.295853
C	 1.0313313256	 2.3169130419	-0.0698129608	-0.147891
N	-0.0510439848	 3.0726328499	-0.8088597174	-0.321358
H	-2.0098555634	 2.0425124552	-0.5737772834	 0.100196
H	-1.8777134292	 3.9591020862	 1.0889569769	 0.146637
H	-1.9333384175	 2.435183388	 1.9749512973	 0.14298
H	 1.8068177347	 4.0080590556	 1.0344206993	 0.146637
H	 1.9290912591	 2.4864976081	 1.9177700941	 0.142981
H	 1.940549326	 2.0950193613	-0.6322671243	 0.100196
H	-0.0611647676	 2.7557813611	-1.7766359912	 0.237205
