18
gdb 81195	3.14573	1.55187	1.42357	2.4521	77.21	-0.2294	0.0018	0.2312	977.0663	0.150137	-401.851768	-401.845056	-401.844112	-401.882436	28.62	
O	 0.0277724374	 1.4592330688	-0.0893198789	-0.454631
C	 0.0767104793	 0.0761800347	-0.0154892435	 0.191577
C	 0.0244824375	-0.6092811498	 1.365003845	-0.134857
N	-1.4311694911	-0.0857865483	 1.4414492714	-0.439743
C	-1.2730901056	-0.7469752497	 0.0643717392	 0.294449
C	-2.0200055691	-1.3035737558	-1.099402833	-0.252398
C	-1.3645671245	-2.418585979	-1.4669786195	-0.046446
C	-0.1708092744	-2.7752140577	-0.5562553926	-0.350461
C	-0.5166546262	-1.9144097388	 0.6768890766	 0.00812
H	-0.6457664304	 1.7172499518	 0.5582346046	 0.290233
H	 0.8225919687	-0.27972087	-0.7249278508	 0.086038
H	 0.6895297785	-0.49163131	 2.222538893	 0.082308
H	-1.982119148	-0.6972338417	 2.0515395826	 0.21026
H	-2.8407503661	-0.8438406714	-1.6349256759	 0.109945
H	-1.5907552465	-2.9972029572	-2.3565427687	 0.101283
H	-0.1140153992	-3.8458035914	-0.3368168668	 0.107357
H	 0.7699675158	-2.5069406516	-1.0513269608	 0.124162
H	-1.1406880063	-2.490465103	 1.3690153282	 0.072803
