15
gdb 31914	5.73015	0.85962	0.75874	5.6004	79.22	-0.2239	-0.0214	0.2025	1406.1962	0.11396	-416.854574	-416.846181	-416.845237	-416.888525	30.043	
O	 0.0810025255	 1.2819105726	 0.4675441518	-0.403052
C	-0.0070540812	-0.0284867623	-0.0600670999	-0.19717
C	-1.4417205494	-0.449746288	-0.0218087545	 0.312123
C	-2.5965945705	 0.3062992537	-0.1105673821	-0.185755
C	-3.6942525352	-0.579688909	-0.0628896243	-0.224782
C	-3.1864010531	-1.8642030541	 0.0521721318	 0.203291
N	-1.807378044	-1.7600354401	 0.077974258	-0.372233
C	-3.8360895427	-3.1118054573	 0.1409971486	 0.196805
N	-4.3548681989	-4.1468854999	 0.2138806784	-0.352252
H	 0.9417017026	 1.6411012582	 0.232756602	 0.295472
H	 0.3663424395	-0.0610442833	-1.0973068306	 0.113591
H	 0.6031693455	-0.7439945745	 0.5182959214	 0.096677
H	-2.6261830042	 1.3805956727	-0.1895244029	 0.120787
H	-4.7424044688	-0.328854625	-0.1023472296	 0.122039
H	-1.1810817152	-2.5419575136	 0.1743457018	 0.274459
