21
gdb 26655	2.22456	1.52524	0.92464	1.3796	89.03	-0.1776	0.0539	0.2315	1312.6062	0.181391	-383.321921	-383.310977	-383.310032	-383.358453	38.544	
C	-0.045930991	 1.4872539286	 0.1173553651	-0.507454
C	-0.0070131977	 0.0009667126	-0.0244513266	 0.208361
C	 0.0747404468	-0.8151451506	-1.1330868428	 0.165602
C	 0.1586491103	-0.4073126567	-2.5722399885	-0.516157
C	 0.0589289831	-2.1712873886	-0.6582004127	 0.026656
N	 0.1225671405	-3.3760660367	-1.4245986914	-0.608911
C	-0.0323046699	-2.1449317617	 0.7157605041	 0.305041
C	-0.0860430599	-3.2667699505	 1.694744922	-0.511107
N	-0.0645696677	-0.819528521	 1.0839341346	-0.372784
H	 0.087254609	 1.9674485841	-0.8545364593	 0.133262
H	-1.0006045266	 1.843113032	 0.5274502401	 0.122708
H	 0.7485778148	 1.8599107115	 0.7770147178	 0.120258
H	 0.9987718305	-0.8962175906	-3.0811988155	 0.112871
H	-0.7464565928	-0.6753333671	-3.133829437	 0.115835
H	 0.2952092645	 0.6721182143	-2.6826999205	 0.11752
H	-0.4881883948	-3.3206004762	-2.2341338134	 0.228679
H	 1.0586678459	-3.5327489439	-1.7891073131	 0.229807
H	 0.804033641	-3.3126407427	 2.3363174936	 0.116266
H	-0.9596514524	-3.1993161584	 2.3557460634	 0.114701
H	-0.1497622695	-4.2056288854	 1.1401355582	 0.152147
H	-0.129631214	-0.4915550932	 2.0319026819	 0.246699
