19
gdb 35271	4.10307	0.90984	0.82421	2.0305	82.66	-0.2361	0.0254	0.2615	1414.6525	0.158619	-381.968025	-381.958981	-381.958037	-382.002719	33.506	
C	-0.6585566168	-0.9701671046	 0.7716112239	-0.465239
C	-0.2375111786	 0.0137022558	 0.2223808535	 0.337278
C	 0.2583386798	 1.1648676036	-0.4810981148	-0.174842
C	 0.7985188005	 2.3395161059	 0.2772493868	-0.247471
N	 1.6952286984	 1.4948196394	-0.4978595311	-0.104084
C	 2.6099658342	 0.617535062	 0.2326121077	-0.165931
C	 4.0421916796	 1.1137686715	 0.1342340271	 0.009544
C	 4.5832125104	 1.6662530407	-1.1282040997	-0.227759
N	 4.3594556753	 2.546041359	 0.0389480106	-0.323335
H	-1.0338333454	-1.8320044483	 1.2659192281	 0.203667
H	-0.2346392339	 1.3561334951	-1.4318092836	 0.121539
H	 0.6306994771	 3.3434943084	-0.1035098004	 0.125402
H	 0.8240919159	 2.2509981882	 1.3615758122	 0.129426
H	 2.3244680721	 0.5161170891	 1.2913248395	 0.102522
H	 2.5477842299	-0.3854444785	-0.2059643365	 0.121538
H	 4.7223780437	 0.5653297566	 0.783819185	 0.089008
H	 5.6252486902	 1.5075069265	-1.3910183259	 0.11129
H	 3.8975895234	 1.753782427	-1.9654963656	 0.120726
H	 3.4964117242	 3.0608069425	-0.1217011268	 0.23672
