18
gdb 72418	2.75568	1.75474	1.40982	2.8481	71.94	-0.26	0.0259	0.2859	979.0027	0.149424	-439.122529	-439.115135	-439.114191	-439.154038	29.712	
C	-0.0704986777	 1.4551399156	 0.0778272936	-0.479253
C	 0.0357792036	-0.039989355	-0.020934722	 0.466342
C	 0.7379610715	-0.6785407822	-1.243620093	-0.261897
C	 1.0562389426	-2.0959980027	-0.6852165402	-0.23327
C	 0.4211514016	-1.9865950413	 0.7247381086	-0.039112
O	 0.7020704462	-0.6208578594	 1.0803899592	-0.271873
C	-1.0817624399	-1.9095790018	 0.5293574902	 0.435196
N	-1.9391048858	-2.8100116164	 0.7308309204	-0.561026
O	-1.2965774349	-0.6458359786	 0.0467110125	-0.284572
H	 0.9292807632	 1.8956386807	 0.0943137268	 0.136013
H	-0.61700515	 1.851516634	-0.7812495625	 0.136873
H	-0.5983274768	 1.731214991	 0.9929850046	 0.144722
H	 0.0799721363	-0.6890682099	-2.1140674658	 0.11931
H	 1.6435754553	-0.1225381259	-1.4958669964	 0.112843
H	 0.6244768259	-2.9082579953	-1.2724856798	 0.127409
H	 2.1314436626	-2.262119401	-0.5955701523	 0.116214
H	 0.7625040244	-2.679924303	 1.4875215669	 0.112027
H	-2.874545648	-2.4855466287	 0.4789561292	 0.224055
