21
gdb 37418	2.78006	1.99008	1.64846	0.3049	83.18	-0.2521	0.0728	0.3248	924.7071	0.186859	-349.921541	-349.9152	-349.914256	-349.95171	28.479	
C	-0.0057238991	 1.5052775083	 0.1242224782	-0.297794
C	 1.3134369151	 0.7805299608	 0.0276277155	-0.037199
C	 0.0091665566	-0.0003337205	 0.036596792	-0.037196
C	-0.1297379618	-0.6980472539	-1.3186123666	-0.031056
C	-0.7071733793	 0.0899413314	-2.5461826896	-0.250892
C	 0.7160436763	 0.2622517077	-3.1381654073	-0.015107
C	 1.5460564721	 1.4388769456	-2.561698141	-0.25089
C	 1.9802983969	 0.565196904	-1.3331185565	-0.031058
C	 1.2755623852	-0.6592800535	-2.0022958341	-0.036764
H	-0.2598830128	 1.9408239836	 1.0855595627	 0.10392
H	-0.3595839644	 2.08662352	-0.7188337389	 0.110983
H	 1.955087943	 0.7912968897	 0.9022453387	 0.076426
H	-0.2944816724	-0.5555098945	 0.9177123988	 0.076425
H	-0.5786307386	-1.6856859428	-1.1982497349	 0.064459
H	-1.3265131987	-0.5567799038	-3.1736254366	 0.096575
H	-1.2786338326	 0.9993962513	-2.3381595197	 0.093541
H	 0.8302207415	 0.0592794014	-4.2036496306	 0.057935
H	 2.4022193413	 1.6754696331	-3.1992904986	 0.096576
H	 1.016458302	 2.3733974213	-2.3539886192	 0.093539
H	 3.0640160708	 0.4951013905	-1.223280668	 0.06446
H	 1.828934889	-1.5854377998	-2.1626642442	 0.053116
