16
gdb 75934	2.83613	1.55303	1.11516	3.2931	64.81	-0.2604	0.0138	0.2742	1049.685	0.124709	-475.03656	-475.028617	-475.027673	-475.069176	30.041	
O	 0.3795497226	 0.9256858673	-0.76136605	-0.435882
C	 0.0357624038	-0.2570646427	-0.0955448369	-0.057883
C	 0.462219698	-0.211557385	 1.3778076733	 0.39938
O	 1.4500755918	 0.3649128008	 1.7841145916	-0.394452
N	-0.4711600596	-0.8901981547	 2.0959650443	-0.330025
C	-1.6407341203	-1.3046685111	 1.3295206505	-0.253093
C	-1.4544435262	-0.5388877187	 0.0132431543	 0.410031
C	-2.4741305709	 0.333914923	-0.570592549	-0.236683
O	-2.1913484556	-0.9693796532	-1.1136620933	-0.281815
H	 1.117765202	 1.2984322882	-0.2555267166	 0.296792
H	 0.5219520013	-1.132058656	-0.5626775623	 0.105185
H	-0.3903603456	-0.9955484264	 3.0951475314	 0.260979
H	-1.650077759	-2.3860626232	 1.1407331471	 0.130222
H	-2.5715833773	-1.0391086315	 1.8394192904	 0.126401
H	-3.4437083592	 0.4327984812	-0.0847616519	 0.11517
H	-2.1549102159	 1.1707124819	-1.1856104127	 0.145673
