21
gdb 99144	3.5993	0.83628	0.7357	3.6786	81.68	-0.2299	0.0436	0.2734	1612.1605	0.181576	-420.412325	-420.402034	-420.401089	-420.448598	36.415	
C	 0.1993950507	 1.4525854138	-0.9087283018	-0.331377
N	 0.2923621373	 0.0192496633	-1.076326854	-0.293025
C	 0.7065826006	-0.8112717247	-0.0887898501	 0.387761
O	 1.0433746236	-0.4562341857	 1.0280733696	-0.38725
C	 0.6905678161	-2.299608369	-0.466736002	-0.259815
N	 0.5957162243	-2.514343257	-1.9056020755	-0.099958
C	 1.8019144625	-2.9225312056	-2.6253662168	-0.256732
C	 0.6675112879	-3.8734007295	-2.4519014399	 0.034275
C	 0.7893273173	-5.0992937596	-1.5744701768	-0.414035
H	 0.825479931	 1.9814195832	-1.6365117409	 0.121172
H	-0.8329730004	 1.8045828448	-1.0195430126	 0.122108
H	 0.5472892235	 1.6877396944	 0.0983949614	 0.166011
H	 0.0423711823	-0.4257200526	-1.9477995158	 0.252892
H	 1.5742561321	-2.7483085517	 0.0058627367	 0.11904
H	-0.1902424721	-2.7382930544	 0.017743473	 0.13236
H	 1.9830485913	-2.430960936	-3.5774896343	 0.11597
H	 2.6979432214	-3.1084581945	-2.0344021099	 0.116454
H	 0.000047722	-4.0096863507	-3.3020909012	 0.093396
H	 1.5183046744	-4.9663089848	-0.7716447026	 0.126914
H	-0.1737276185	-5.3579486369	-1.1208337871	 0.127397
H	 1.1097350228	-5.9552884069	-2.1772971194	 0.126442
