25
gdb 118968	2.33517	1.04275	0.99539	0.9853	89.71	-0.2508	0.0805	0.3313	1441.0384	0.227167	-389.479304	-389.468592	-389.467648	-389.514728	39.831	
C	-0.3737758372	 1.3047354938	-0.1846298004	-0.224904
O	-0.1824871705	-0.0829511066	-0.0688093639	-0.236273
C	 0.5065959921	-0.6397624185	-1.1711112311	-0.103305
C	 0.6665884429	-2.1415402094	-0.9430406693	 0.308827
C	 1.4964113366	-2.4094793112	 0.3089658218	-0.46455
C	-0.7098425069	-2.8708977144	-1.0517224551	-0.246892
C	-0.3888609027	-3.2226646744	-2.5279644348	-0.238814
C	 1.1050435714	-2.9046279845	-2.2461942836	 0.009422
C	 1.9477735112	-2.2291958219	-3.3209150501	-0.419942
H	 0.5834125186	 1.8477335923	-0.2425429768	 0.101752
H	-0.9657495573	 1.5641703418	-1.0773357382	 0.100996
H	-0.9142051084	 1.6380365905	 0.7050064958	 0.125045
H	-0.0550544088	-0.4394865586	-2.0990071602	 0.079302
H	 1.4948224125	-0.159966008	-1.2812291805	 0.081135
H	 1.0431507619	-1.937192945	 1.1849518357	 0.131186
H	 1.5793640714	-3.4845278772	 0.4999488643	 0.103176
H	 2.5127053248	-2.009573425	 0.2022781652	 0.104105
H	-0.7457938625	-3.7594150462	-0.4149959249	 0.092506
H	-1.5947400505	-2.2638151693	-0.8501501685	 0.102841
H	-0.6290077006	-4.2315536109	-2.8727675906	 0.091311
H	-0.8329580378	-2.5099716982	-3.230185321	 0.095748
H	 1.6105626108	-3.8251243095	-1.930186028	 0.067882
H	 1.4790713092	-1.3140328305	-3.6975839918	 0.112658
H	 2.9445474903	-1.9667807083	-2.948584683	 0.113701
H	 2.0846591796	-2.8998348209	-4.1768286712	 0.113089
