25
gdb 101192	2.83107	1.02165	0.91966	0.2479	92.36	-0.246	0.0843	0.3303	1457.5401	0.228982	-352.334709	-352.324843	-352.323899	-352.369698	37.737	
C	 0.1510326913	 1.5431119735	-0.065003922	-0.392887
C	 0.2679752944	 0.0209966664	 0.0625721478	-0.160929
C	 0.6405218538	-0.4855377367	 1.469840111	 0.009624
C	-0.4295903261	-0.1554248544	 2.5217827127	-0.394371
C	 0.8846443395	-1.9861988651	 1.4317382257	 0.026231
C	 2.1310040007	-2.671336534	 0.9367668359	-0.085618
C	 3.4050035238	-1.9158976257	 1.3431515316	-0.228775
C	 2.9752909387	-2.022083166	 2.8419510707	-0.228687
C	 1.7087142568	-2.776997054	 2.4127414086	-0.089354
H	 1.0793795306	 2.0383416728	 0.2424676067	 0.111065
H	-0.0513707697	 1.8346915778	-1.1005890588	 0.109844
H	-0.6583910809	 1.9458376454	 0.5516474247	 0.116742
H	-0.6786800965	-0.4461577435	-0.2439743698	 0.087531
H	 1.0249183321	-0.3415605365	-0.6439825229	 0.096865
H	 1.568720142	 0.0195505508	 1.7660344846	 0.070021
H	-0.1427169011	-0.5461611454	 3.5031756794	 0.115186
H	-0.5865349324	 0.9223103671	 2.6243480577	 0.110129
H	-1.3920555979	-0.6086696332	 2.25373908	 0.107582
H	-0.0096597198	-2.5378023514	 1.1378226434	 0.075478
H	 2.0884174319	-3.4308728733	 0.1644223352	 0.077581
H	 4.3123979895	-2.4885355726	 1.1390034419	 0.100006
H	 3.5355918338	-0.9113895391	 0.9271885185	 0.094389
H	 3.6599394807	-2.6486243495	 3.4177856145	 0.09996
H	 2.8274245147	-1.0857415837	 3.3900705816	 0.094983
H	 1.2945767501	-3.6296835496	 2.9386906714	 0.077403
