18
gdb 62699	3.21114	1.66875	1.41428	0.5433	77.82	-0.2172	-0.0493	0.168	959.824	0.146684	-401.823654	-401.816064	-401.81512	-401.855006	31.19	
C	 0.2710816226	 1.4821039716	 0.2998349267	-0.434165
C	-0.0039413765	 0.0004502364	 0.1424429127	 0.372251
O	-1.3990866654	-0.1319304893	 0.0609457056	-0.459818
C	 0.6535201437	-0.8279230816	-1.0758365389	-0.093618
C	 0.814308115	-2.027257084	-0.2303156668	-0.117151
N	 1.980619209	-1.5574214165	-0.9532977042	-0.124075
C	 2.9508810909	-1.1756867859	 0.110912984	-0.18
C	 2.0583398075	-0.6849612512	 1.2439571843	-0.105873
C	 0.7883039974	-1.0524206623	 0.9731756203	-0.076925
H	 1.3271514724	 1.7134586171	 0.1537200498	 0.1182
H	-0.3179621843	 2.0294231516	-0.4415140938	 0.131847
H	-0.0348450866	 1.8287335339	 1.2913979555	 0.132496
H	-1.6150068995	-1.0710956642	 0.0657680892	 0.284221
H	 0.2671268651	-0.7560438543	-2.0883550273	 0.109512
H	 0.4277501596	-3.0359356597	-0.3171404811	 0.093008
H	 3.5758863892	-2.0566753444	 0.3024705054	 0.121879
H	 3.6121350265	-0.3619942069	-0.2101049195	 0.119416
H	 2.3136820434	 0.2171305396	 1.7908245081	 0.108795
