18
gdb 47901	2.68605	1.46016	1.06704	2.8366	75.01	-0.2374	-0.0297	0.2077	1125.0985	0.15	-439.105755	-439.097799	-439.096854	-439.138241	30.656	
O	 0.0376410344	-0.0462300402	 0.3655335056	-0.374626
C	 0.0279906599	 1.1554777864	 0.1561916173	 0.351555
N	-1.1447488123	 1.866302997	 0.1015200888	-0.30286
C	-1.3380329202	 3.3092540249	 0.1739847311	-0.183194
C	-1.4302192946	 4.0283234401	-1.1825450923	-0.062107
O	-0.1964674323	 4.3044252512	-1.8065787492	-0.239783
C	 0.5733415401	 3.1548886991	-2.1543754415	-0.137287
C	 1.5449250085	 2.754745992	-1.0652929225	-0.059233
C	 1.296687554	 1.9120339604	-0.0611743412	-0.144196
H	-1.9535497391	 1.2818469221	 0.2586884064	 0.246596
H	-2.2772341518	 3.4829233777	 0.7099720684	 0.114549
H	-0.5381469659	 3.7662336699	 0.7634331596	 0.135377
H	-2.0829405917	 3.4424147132	-1.8505739206	 0.091939
H	-1.8949182271	 5.007766729	-1.026235815	 0.11073
H	-0.0869023446	 2.3179056752	-2.4157784601	 0.113078
H	 1.1341208473	 3.4329151657	-3.0520576847	 0.112827
H	 2.5356290214	 3.1989821903	-1.1310502126	 0.106001
H	 2.0865510943	 1.6419289359	 0.6334664326	 0.120634
