18
gdb 124761	4.26787	0.92807	0.90569	2.2787	75.42	-0.256	-0.0086	0.2474	1375.9621	0.146314	-439.092099	-439.08284	-439.081895	-439.126645	33.454	
C	 0.0189523997	 1.5621914102	 0.1952008075	-0.402707
C	 0.0030003029	 0.0387918628	 0.0212857958	 0.014016
O	 0.6909240507	-0.6191953852	 1.0794289216	-0.424258
C	-1.3937825804	-0.4945761127	-0.118405146	 0.469491
C	-2.0751497041	-1.1379430868	-1.0998994974	-0.449482
C	-3.367689881	-1.3642355444	-0.5368986006	 0.397988
C	-4.5496270349	-2.0380637899	-1.1564320286	-0.493339
N	-3.4443390592	-0.8939921812	 0.6858658079	-0.20147
O	-2.1924393134	-0.3344558373	 0.9547911615	-0.238091
H	 1.0500906821	 1.9029160237	 0.3171365682	 0.128313
H	-0.4206048404	 2.0617809914	-0.6737159504	 0.123351
H	-0.5563780037	 1.853066137	 1.0796712476	 0.131075
H	 0.5501774773	-0.2308268521	-0.8874511004	 0.106073
H	 0.1706653969	-0.4978876232	 1.882166057	 0.291905
H	-1.7167393442	-1.419879962	-2.0762564386	 0.117925
H	-4.3088905476	-3.0686440887	-1.4367818545	 0.139702
H	-5.384527676	-2.05249364	-0.4535367777	 0.151139
H	-4.8650614846	-1.5158762915	-2.0655923429	 0.13837
