18
gdb 73242	2.20339	1.90379	1.38457	1.276	70.68	-0.2238	-0.0339	0.19	990.4999	0.14875	-439.08675	-439.07888	-439.077935	-439.119139	30.883	
O	 0.0825902807	 1.4617989615	 0.174711635	-0.483598
C	-0.0144466739	 0.0870753825	-0.0603861209	 0.32741
C	 0.265029889	-0.4327812188	-1.5054017973	-0.299911
C	-1.0327679085	-1.283948233	-1.4363593979	-0.223707
C	-1.4131405058	-0.6038013516	-0.08697903	-0.057945
N	-1.5316685003	-1.5282079337	 1.0541040963	-0.297811
C	-0.1572316105	-1.8799467355	 1.4492112813	-0.294139
C	 0.7126373605	-0.6863459114	 1.0463336936	 0.331645
O	 1.7325935083	-0.3021432497	 1.5636872322	-0.328895
H	 0.923782786	 1.5994543194	 0.635825879	 0.287107
H	 0.192795315	 0.4052600568	-2.2023368716	 0.121904
H	 1.208567824	-0.9563143257	-1.6809651187	 0.104451
H	-1.7417183287	-1.1315372421	-2.2515627787	 0.111041
H	-0.8659500279	-2.3576948914	-1.3267987205	 0.110239
H	-2.2727883931	 0.0644950961	-0.137490795	 0.088671
H	-1.9744538409	-1.0402638281	 1.826379777	 0.228653
H	-0.0710451889	-2.0930837735	 2.5163447199	 0.137715
H	 0.1852386652	-2.774614972	 0.9100908464	 0.137169
