15
gdb 4061	5.25403	1.32958	1.19235	1.9294	66.28	-0.231	0.0141	0.2451	989.1718	0.117394	-399.718609	-399.711022	-399.710077	-399.75023	28.907	
O	-0.1683356198	 1.3148097975	-0.0689030978	-0.395814
N	 0.023205511	-0.0811666756	 0.0029933755	-0.266053
C	-1.0886413781	-0.6874125524	-0.0250874297	 0.463161
C	-2.5587289382	-0.2739594771	-0.0149172643	-0.395286
C	-2.8923959383	-1.778416739	 0.0979756706	 0.399868
O	-3.8492591175	-2.2909995099	 0.9481124659	-0.455681
C	-2.3277292399	-2.5398732293	-1.0557435027	-0.339883
C	-1.3948136545	-2.1368721477	 0.0894774447	-0.207246
H	 0.7351306454	 1.6433856403	-0.013687245	 0.305464
H	-2.801391557	 0.2714353495	 0.9016568033	 0.137301
H	-2.9460801101	 0.2754663022	-0.87832464	 0.112915
H	-4.6666338225	-2.4112471945	 0.4521442952	 0.290242
H	-2.5671928727	-3.5989863142	-1.0527298015	 0.121552
H	-2.2195015836	-2.0967262178	-2.0423133828	 0.117552
H	-0.8423123941	-2.876899942	 0.6529086685	 0.111908
