19
gdb 86468	2.27242	1.30217	0.95806	1.0336	88.35	-0.2526	0.0333	0.2859	1294.3889	0.156247	-348.677644	-348.668082	-348.667138	-348.711692	36.556	
C	 0.0420742088	 1.6084620126	 0.0251500712	-0.414259
C	 0.0718798311	 0.0888802264	 0.0191382175	 0.050403
C	 1.0920063107	-0.6314974053	-0.9004681036	-0.260202
C	 1.3431797574	-1.6947817804	 0.2406164584	-0.042173
C	 0.6978269831	-0.6476614594	 1.2319773945	-0.260201
C	 0.5019257475	-2.8768777542	 0.0761513258	 0.303866
C	-0.215073514	-3.8312947	-0.0636044616	-0.471924
C	 2.7300545934	-2.0587876583	 0.494217075	 0.237731
C	 3.8851177652	-2.3155446062	 0.7057937209	-0.422985
H	 1.0399916532	 2.0210629968	 0.2127101043	 0.11386
H	-0.307097537	 2.0027196575	-0.9356588419	 0.118026
H	-0.6284973458	 1.9895312391	 0.803374986	 0.118026
H	-0.9316636863	-0.305736973	-0.1693515632	 0.086713
H	 0.7474253855	-1.027611017	-1.856545611	 0.115207
H	 1.9948685684	-0.034827478	-1.0537529104	 0.112339
H	 1.4846162557	-0.0557464851	 1.7066048627	 0.112339
H	 0.0353211088	-1.0568108769	 1.9957894937	 0.115206
H	-0.8352725483	-4.6846510791	-0.1846292564	 0.196091
H	 4.9018169227	-2.5586173895	 0.8919220881	 0.191939
