20
gdb 46544	3.82578	1.12257	1.0306	3.854	79.52	-0.2358	0.0356	0.2714	1223.1791	0.173124	-403.195105	-403.18709	-403.186146	-403.227795	31.608	
O	-0.3689454646	-0.0418957417	 0.1450039201	-0.378796
C	-0.2471305138	 1.1608573638	 0.0800073068	 0.400732
C	-1.2414178262	 2.2307574147	 0.5430369148	-0.340486
C	-0.7031613104	 3.5329639484	-0.0690299053	-0.262364
C	 0.8111377168	 3.2745537204	-0.2618526759	 0.368665
C	 1.5028511434	 4.1562247884	-1.3371310877	-0.277925
C	 2.0179067798	 5.0820758045	-0.2014516277	-0.209977
C	 1.7385965813	 3.9381680013	 0.8089214737	-0.269282
N	 0.8413206259	 1.8373051336	-0.4127466809	-0.364588
H	-2.2565672501	 1.973677224	 0.2361504193	 0.129577
H	-1.2265915018	 2.2474752103	 1.6388211947	 0.129494
H	-1.1612448789	 3.6984046575	-1.049757628	 0.11173
H	-0.8948762866	 4.4187397314	 0.5406483916	 0.106949
H	 2.3238083578	 3.6189169856	-1.8225644439	 0.10021
H	 0.8636102868	 4.5876945475	-2.1121438614	 0.10126
H	 3.045807214	 5.4402210113	-0.2776576905	 0.104302
H	 1.3630017801	 5.9427534083	-0.0441551984	 0.108596
H	 1.2942555821	 4.1923447722	 1.7751658021	 0.099449
H	 2.6294664047	 3.3275898921	 0.9850810961	 0.099655
H	 1.6832369898	 1.3308151664	-0.6412106994	 0.242798
