20
gdb 39277	2.4828	2.14515	1.54966	2.1827	77.97	-0.2283	0.0842	0.3125	930.8683	0.174752	-403.11938	-403.112661	-403.111717	-403.149958	28.871	
C	-0.0368682036	 1.4443715832	 0.0433890735	-0.342872
N	 1.2411292893	 0.7440383745	-0.0012828252	-0.089034
C	 2.08865284	 0.4811865118	 1.1609071152	-0.1771
C	 2.3030461491	-1.0533231562	 1.2195025083	-0.204019
C	 0.9844351123	-1.8276310814	 0.9304053351	 0.124471
C	-0.1958928757	-0.907826014	 1.2478138895	-0.292946
C	-0.0042758294	-0.0382481033	 0.0080642891	 0.272989
C	 0.0158119482	-1.076689947	-1.0890162675	-0.111754
O	 0.8183483379	-2.1123921269	-0.4804233251	-0.291982
H	-0.367089402	 1.8934623209	 0.9819774403	 0.106557
H	-0.2687247978	 2.0357501879	-0.8391651763	 0.119979
H	 3.0428764235	 1.0018765187	 1.0338109084	 0.10518
H	 1.6520360977	 0.8475639147	 2.1035562254	 0.086336
H	 3.0404843957	-1.3593260293	 0.4719968864	 0.120485
H	 2.6936330865	-1.3316837263	 2.2048453034	 0.093196
H	 0.9789094321	-2.7929659754	 1.4419843044	 0.07437
H	-1.1516419803	-1.4383037074	 1.2204496828	 0.104642
H	-0.1127580246	-0.3813046723	 2.198264855	 0.10337
H	-0.9754212584	-1.4766945316	-1.3434775792	 0.086719
H	 0.5125678895	-0.7153974806	-1.9926363835	 0.111414
