19
gdb 52994	3.16328	0.94421	0.83988	1.3985	87.83	-0.2184	0.047	0.2654	1464.1341	0.15773	-385.839059	-385.829493	-385.828549	-385.874901	34.629	
C	 0.0059037536	 1.4738881393	-0.0167266453	-0.508059
C	 0.0012930785	 0.0186844259	-0.0020592482	 0.235306
C	-0.0006697843	-1.1875208679	 0.0035592954	-0.222121
C	 0.0088874077	-2.610540382	 0.0388539438	 0.255769
C	-0.326465231	-3.4736237136	-1.1615109615	-0.323252
C	-1.1677319191	-3.6246115029	 0.0642539667	-0.113021
C	-0.4369228422	-4.4905364193	 1.0904948073	-0.266679
C	 0.7466066039	-3.4593624507	 1.0804681271	 0.036793
O	 2.0160370298	-3.8915666732	 0.6469354565	-0.434136
H	 0.9368384144	 1.8696089395	 0.4050839992	 0.14782
H	-0.0828750399	 1.8636625195	-1.037191751	 0.146111
H	-0.8230291067	 1.8876505623	 0.5692126063	 0.143429
H	-0.7774271716	-2.9288067418	-1.9832088365	 0.12201
H	 0.3630652788	-4.2595807991	-1.4562502782	 0.123627
H	-2.2235147596	-3.3861032969	 0.0751446788	 0.09856
H	-0.9333959138	-4.5479278728	 2.061674848	 0.100437
H	-0.1783485477	-5.5004848944	 0.7559884332	 0.097163
H	 0.8118605764	-2.9250361153	 2.0362449158	 0.076601
H	 2.4229210229	-4.3952778467	 1.3591121326	 0.283641
