18
gdb 68380	2.99254	1.54474	1.2215	2.3382	72.8	-0.2529	0.0223	0.2751	1033.7474	0.148852	-439.09127	-439.083716	-439.082772	-439.123139	30.575	
O	-0.1400753172	 1.4129439705	-0.125587305	-0.481653
C	 0.0063199039	 0.033031717	 0.0519146766	 0.404661
C	 0.1547655721	-0.5746235373	 1.4833188685	-0.306804
C	-0.6203083623	-1.7767537719	 0.8960364898	 0.10494
C	-1.2907981133	-0.7965930086	-0.094760369	-0.278056
O	 0.2717907285	-2.6680468024	 0.2070205143	-0.256702
C	 1.1594948748	-2.1030777514	-0.6658952775	 0.392797
N	 2.0068750191	-2.7924214204	-1.3025632428	-0.529885
C	 1.0788604185	-0.5912336867	-0.8441318326	-0.357406
H	 0.7327895656	 1.8213857387	-0.1164039483	 0.279591
H	 1.1544513096	-0.7633117235	 1.8833540686	 0.105096
H	-0.4505024813	-0.0236085274	 2.2063910488	 0.114733
H	-1.2292334808	-2.4072119137	 1.5407877882	 0.094434
H	-2.1368384198	-0.2819357152	 0.3658222391	 0.118107
H	-1.5655473802	-1.1743759113	-1.0824173241	 0.110835
H	 1.9106416001	-3.7805419001	-1.0601657655	 0.220076
H	 0.8671837764	-0.3710818692	-1.8954332224	 0.141195
H	 2.0669090264	-0.170375137	-0.6211745964	 0.124041
