17
gdb 52296	3.50414	0.98668	0.80762	5.918	70.35	-0.2557	-0.0348	0.2209	1374.5681	0.133993	-458.988848	-458.979854	-458.97891	-459.024161	31.253	
O	 0.6611120052	-0.002919816	 0.3994247392	-0.272773
C	 0.5828310121	 1.1854627922	 0.459074773	 0.183437
O	 0.9503197353	 1.9822813285	-0.5712802992	-0.183613
C	 0.8545764765	 3.3975104044	-0.397715246	-0.115684
C	 2.2119988856	 3.9916377026	-0.0506452828	-0.091275
C	 2.372454958	 5.5404245471	 0.0826359901	-0.264564
C	 3.1787668493	 5.3499719757	 1.4054824855	-0.328644
C	 2.6811671844	 3.8984995999	 1.4146196397	 0.390805
O	 2.5367630833	 3.0687986807	 2.265753228	-0.294047
H	 0.2039498601	 1.7518574362	 1.3281850953	 0.090669
H	 0.490733021	 3.7996247735	-1.347908836	 0.130489
H	 0.1151688049	 3.6375019061	 0.3776912897	 0.114994
H	 2.9695509274	 3.5695455982	-0.7204078838	 0.124822
H	 2.8889719995	 6.0404488383	-0.7365116445	 0.120609
H	 1.4153849093	 6.0395773974	 0.2558363382	 0.118953
H	 4.2616611615	 5.399946323	 1.252174316	 0.140641
H	 2.9189899267	 5.9598092121	 2.2734278275	 0.135181
