16
gdb 75146	2.85785	1.25114	1.18574	3.0442	70.35	-0.2417	0.0084	0.2501	1113.243	0.12463	-434.107401	-434.098772	-434.097828	-434.141153	31.835	
C	-0.218906171	 1.6480280473	-0.1175706153	-0.431102
C	 0.0737122798	 0.1516211424	-0.0256072287	 0.204824
C	 0.9750979883	-0.4004570858	-1.1943490546	-0.222084
N	 2.146498367	-0.960027528	-0.5376973195	-0.334474
C	 2.004230638	-0.7420611024	 0.7079003044	 0.474982
N	 2.8915622879	-1.0207311158	 1.7053258341	-0.57826
O	 0.8751471436	-0.104454857	 1.1512987266	-0.2689
C	-1.177202642	-0.6156329449	 0.107865417	 0.262587
N	-2.1654528154	-1.2096506371	 0.1817880399	-0.334082
H	 0.7259989349	 2.1913806305	-0.1991072073	 0.139744
H	-0.8263398249	 1.8582651641	-1.0023114051	 0.143525
H	-0.7562482951	 1.9960769464	 0.7673696716	 0.147331
H	 0.4506835731	-1.1587420138	-1.7834980273	 0.134182
H	 1.2498428704	 0.4152456572	-1.874244087	 0.117089
H	 3.6085599286	-1.681329542	 1.4496831687	 0.274563
H	 2.4920967267	-1.1521762714	 2.6215226325	 0.270078
