23
gdb 120955	4.23657	0.84078	0.81684	1.3303	85.47	-0.2612	0.0816	0.3429	1509.0425	0.208093	-388.277319	-388.268701	-388.267756	-388.310892	33.79	
O	 0.0025590987	 1.4305595459	-0.1009148816	-0.421252
C	 0.0431253713	 0.0131577776	-0.0150934292	-0.075552
C	-1.3916672782	-0.500183556	-0.0292480087	-0.202158
C	-1.4830164451	-2.0247829058	 0.0568960076	 0.043472
C	-1.0863700188	-2.6553803007	 1.4405168072	-0.227382
C	-2.3709970475	-3.455587956	 1.7341086011	-0.008247
C	-2.6811519325	-4.0910191369	 0.3473079178	-0.228157
C	-2.9136564758	-2.6050607864	-0.0531840692	-0.027094
C	-3.4806352334	-2.423206112	 1.3860050443	-0.222017
H	 0.9062372504	 1.7583878328	-0.0822809844	 0.283764
H	 0.5989741724	-0.4210886444	-0.8630104181	 0.081187
H	 0.5519370092	-0.313690532	 0.9061323907	 0.08631
H	-1.9335375468	-0.0292388157	 0.7993336772	 0.103716
H	-1.868327063	-0.1501332349	-0.9535465867	 0.099844
H	-0.8622181215	-2.4495421683	-0.7425575027	 0.061571
H	-0.2001183929	-3.2938035491	 1.3779359489	 0.090871
H	-0.8957162748	-1.8931617378	 2.203767302	 0.093735
H	-2.3960230341	-4.0391334546	 2.6553186362	 0.054668
H	-1.8828593962	-4.6424009765	-0.1602549909	 0.082686
H	-3.6030296466	-4.6775095762	 0.3488877687	 0.092758
H	-3.4879999351	-2.3291623961	-0.9390225815	 0.054387
H	-4.4859939866	-2.838260712	 1.4894650256	 0.093451
H	-3.4370012329	-1.4343742448	 1.8510199555	 0.089439
