18
gdb 11784	4.11533	1.77293	1.62741	1.6035	71.29	-0.2316	0.0033	0.235	878.082	0.153937	-347.762674	-347.755503	-347.754559	-347.793902	28.402	
C	 0.0150623676	 1.5411232033	 0.2086431241	-0.379594
C	-0.0001160566	 0.0321166338	-0.0639899264	-0.311305
C	-1.3930261767	-0.5411991608	-0.0709902574	 0.39618
C	-1.7362217782	-2.0652502329	 0.0413643187	-0.266545
C	-3.0201653823	-1.3841633604	 0.5964796926	 0.015378
O	-2.1546027221	-0.3599524229	 1.1815180554	-0.320511
C	-3.5538672611	-0.6659965849	-0.6592451509	-0.083057
C	-2.4433131741	-0.0883456949	-1.1172906122	-0.117364
H	 1.0398140927	 1.9223921025	 0.2382067739	 0.110888
H	-0.5271498288	 2.0921943696	-0.5665433817	 0.116324
H	-0.462970285	 1.7602390433	 1.1670358603	 0.141882
H	 0.4687983825	-0.1881973025	-1.0316284512	 0.100463
H	 0.5898339677	-0.4891471059	 0.6981790328	 0.10608
H	-1.806564881	-2.659087326	-0.8723939156	 0.094471
H	-1.1523425941	-2.5667485913	 0.8179297626	 0.102172
H	-3.7081862406	-1.8535959375	 1.2979562056	 0.078599
H	-4.5641050277	-0.6710928307	-1.0411964446	 0.108458
H	-2.2684754222	 0.5263088581	-1.9884840061	 0.107483
