16
gdb 127896	2.45424	1.60232	0.98108	1.7423	81.46	-0.2328	-0.0757	0.1571	1166.6746	0.121571	-434.022724	-434.013804	-434.01286	-434.056555	31.902	
C	-0.1301780716	 1.4131393956	-0.0087684962	-0.335698
N	-0.1255089173	-0.0324782419	-0.0820029945	-0.290021
C	 0.5696734619	-0.6595028789	-0.9442808679	 0.348479
N	 1.3951998968	 0.0465359422	-1.900134732	-0.126448
N	 2.093775177	-0.4386373286	-2.7599091569	 0.028725
O	 2.1324046364	-1.9433052673	-2.8769890973	-0.263721
C	 1.383534607	-2.6368835704	-2.0119994599	 0.042982
C	 0.6034470709	-2.1021574217	-1.052159544	 0.125201
C	-0.2129904339	-2.9321541626	-0.1123842022	-0.477791
H	 0.50518895	 1.9142643708	-0.7463235544	 0.134908
H	-1.1617404826	 1.7655042894	-0.1270821622	 0.133263
H	 0.185360214	 1.7128784927	 0.9976451464	 0.133261
H	 1.4745529552	-3.7090902382	-2.1712421236	 0.138187
H	-0.08603353	-3.9990109168	-0.3163313365	 0.117694
H	 0.0704974369	-2.7322593668	 0.9263498883	 0.145466
H	-1.2749894907	-2.6779421574	-0.1947153673	 0.145511
