23
gdb 104333	2.16102	1.49195	1.1562	0.9728	87.84	-0.2297	0.0317	0.2614	1223.7509	0.204137	-388.306033	-388.295903	-388.294959	-388.34061	37.989	
C	 0.4678705582	-0.388430016	 1.2564360369	-0.245294
O	 0.0190564589	-0.0073105738	-0.0236627741	-0.290791
C	 0.7715320851	-0.48672833	-1.1437142421	 0.328019
C	 2.2200096681	 0.0330614163	-1.1025908032	-0.44372
C	 0.7016289191	-2.0323349088	-1.3005271779	-0.265428
C	 0.4768896579	-2.2868710602	-2.8100730725	-0.26532
C	-0.0868517343	-0.9725432988	-3.2876059107	-0.182208
C	 0.0507386907	 0.0075978396	-2.3948943924	 0.311068
C	-0.3835401011	 1.4330630389	-2.5217617359	-0.498643
H	 0.5607888695	-1.4793530726	 1.3611687204	 0.103933
H	 1.432094837	 0.066825789	 1.5237855821	 0.105234
H	-0.2842659829	-0.0383787801	 1.9686807497	 0.123698
H	 2.7699456558	-0.3715159007	-0.2475829693	 0.113487
H	 2.7515700255	-0.2683191671	-2.0101543895	 0.120567
H	 2.2414224641	 1.1249005273	-1.0370137821	 0.119291
H	 1.5830180319	-2.5468432416	-0.9079575413	 0.088806
H	-0.1707107326	-2.3806656974	-0.7392432605	 0.110806
H	 1.4180522924	-2.5259342996	-3.3255874539	 0.103023
H	-0.1937659929	-3.1335213068	-2.9967999758	 0.101561
H	-0.5296034405	-0.8483535545	-4.2709676615	 0.083045
H	-0.9138756043	 1.605274547	-3.4622239305	 0.115812
H	-1.0405082514	 1.7065969486	-1.689853456	 0.142261
H	 0.4708140258	 2.1207012314	-2.48516982	 0.120792
