21
gdb 95977	2.56352	1.40961	1.01454	3.8903	79.36	-0.2263	0.063	0.2893	1223.6516	0.184506	-420.469804	-420.460587	-420.459643	-420.503713	34.895	
C	 0.0968767297	 1.6463336836	-0.0588232979	-0.394021
C	 0.04203451	 0.1177085589	 0.0438219082	 0.059739
C	 0.6726935735	-0.6085543146	-1.1607264808	-0.231633
C	 2.1412855986	-0.8009861632	-0.7467277838	-0.226059
C	 2.042598234	-1.1107288229	 0.7542977174	-0.168654
N	 0.8383919547	-0.397563725	 1.1711550229	-0.092959
C	 0.3884605275	-0.2709008782	 2.45684233	 0.438058
N	 1.2060545004	-0.8424571137	 3.4301748359	-0.571486
O	-0.6301113955	 0.3393435133	 2.7469973992	-0.418701
H	 1.1170084993	 1.9993412629	-0.2451746499	 0.104213
H	-0.5408376324	 1.9927107692	-0.8791856335	 0.107497
H	-0.2627288628	 2.088137006	 0.872097437	 0.152896
H	-1.0008655352	-0.1782324626	 0.191462811	 0.096001
H	 0.194284603	-1.5837010821	-1.3036481018	 0.102737
H	 0.560376523	-0.043071382	-2.0887024852	 0.10471
H	 2.6485067855	-1.5930490284	-1.3021736755	 0.104737
H	 2.7049391593	 0.1247104376	-0.8986209036	 0.115578
H	 1.9433158216	-2.1964319437	 0.9195304324	 0.096373
H	 2.9213187617	-0.7698069638	 1.3127664013	 0.11844
H	 1.7298648806	-1.6705182899	 3.1911444779	 0.246278
H	 0.7362858436	-0.8971928914	 4.321383849	 0.256254
