19
gdb 110226	1.96276	1.51335	1.01721	3.1153	76.72	-0.2426	-0.0139	0.2286	1222.8109	0.15786	-423.015714	-423.006642	-423.005697	-423.049702	34.005	
C	-0.0584198779	 1.5397801883	 0.1051780572	-0.494342
C	-0.0078497466	 0.0431114344	-0.0063194728	 0.315909
C	-1.2636904006	-0.8527922502	 0.0151908182	-0.421794
C	-0.4940298112	-1.798010914	 0.9720368801	 0.422014
O	-0.8346400453	-2.7368398262	 1.6367090447	-0.321774
C	 0.7479861102	-0.9646843495	 0.9271571139	-0.256336
C	 1.1690033052	-0.7066118729	-0.5256046065	-0.081312
C	 1.1835344213	-1.7822514435	-1.5944596185	-0.098462
O	 2.316434712	-2.6260524925	-1.4719506913	-0.413391
H	 0.9356224103	 1.9578275406	 0.2920041791	 0.126007
H	-0.4371278908	 1.9875179109	-0.8211562407	 0.130556
H	-0.7198196266	 1.8547857293	 0.9196129683	 0.126468
H	-2.0962477041	-0.3928636265	 0.5579667127	 0.130194
H	-1.6387945043	-1.2508478173	-0.9310671863	 0.120851
H	 1.4351336089	-0.7911401221	 1.7471767487	 0.108302
H	 2.0755893496	-0.1030305768	-0.5511615654	 0.103551
H	 0.2513989584	-2.3635276985	-1.5876326029	 0.099718
H	 1.2679411492	-1.3165568612	-2.582623195	 0.114804
H	 2.2552541622	-3.0690238123	-0.6184891634	 0.289037
