18
gdb 36835	3.78735	0.76083	0.69659	1.7875	81.8	-0.2402	0.0192	0.2594	1630.0173	0.146459	-401.852349	-401.843244	-401.8423	-401.888574	32.14	
C	 1.1086730696	 1.5715457909	 1.3044120243	-0.285637
C	 0.594940998	 0.2162059303	 1.0815826227	 0.106189
C	 0.1691032077	-0.8906850877	 0.8611665622	 0.054739
C	-0.3417473172	-2.2191801367	 0.6593102332	-0.112243
C	-0.7451050965	-2.707500704	-0.6745889005	-0.16127
O	 0.4710836285	-3.1440689848	-0.0841391638	-0.213818
N	 1.043644773	 2.5130307684	 0.1802014728	-0.072932
C	 1.2633515718	 2.0060527087	-1.1695178347	-0.219235
C	-0.0930351679	 2.4400885908	-0.7305894047	-0.218694
H	 0.564140537	 2.0259397724	 2.1414067574	 0.139843
H	 2.1590128957	 1.5098469957	 1.61499175	 0.142364
H	-0.8293308256	-2.665694706	 1.5253946054	 0.119133
H	-1.5333427985	-3.4558393709	-0.7482075857	 0.121017
H	-0.6416325137	-2.0439965564	-1.5311439504	 0.123989
H	 1.8701432439	 2.6402300202	-1.8093638351	 0.117221
H	 1.4141782017	 0.9365217807	-1.2982115541	 0.123675
H	-0.8276251849	 1.6534195248	-0.5732086761	 0.11901
H	-0.4988699526	 3.3980956636	-1.0426542627	 0.116647
