25
gdb 121621	4.02078	0.59896	0.57369	2.419	90.36	-0.2368	-0.0062	0.2306	2118.7207	0.225728	-389.531348	-389.519516	-389.518571	-389.569969	41.625	
C	 0.1179700395	 1.542747582	 0.0968426587	-0.379611
C	 0.0174995285	 0.0232968467	-0.0628099473	-0.170343
C	-1.4175611641	-0.4964498547	 0.0689683405	-0.15392
C	-1.5256001348	-2.0118600238	-0.0906949509	-0.311204
C	-2.9469995969	-2.550212221	-0.0087660031	 0.38049
O	-3.9096041642	-1.8169776295	 0.0376933342	-0.31936
C	-3.1020935307	-4.0747464768	 0.039206231	-0.057135
C	-3.1824446163	-4.5035483288	 1.5191933446	-0.385764
C	-4.3407380922	-4.5267433852	-0.7413131493	-0.384712
H	 1.1516956007	 1.8883784607	-0.0024429744	 0.110024
H	-0.4814012439	 2.0597473165	-0.6605816837	 0.116153
H	-0.2475968084	 1.8617367156	 1.0791885776	 0.1153
H	 0.4231160778	-0.2699807037	-1.0406233657	 0.092103
H	 0.6546218553	-0.4663363066	 0.6862504901	 0.09146
H	-1.8297045192	-0.2081280134	 1.0436414433	 0.104582
H	-2.061845799	-0.0145213404	-0.6750240027	 0.11204
H	-1.1181694467	-2.3325629777	-1.0621218807	 0.120864
H	-0.911433984	-2.5384624402	 0.6538895449	 0.115476
H	-2.2025939602	-4.526407622	-0.3979451971	 0.074091
H	-4.0627443091	-4.0601045603	 1.9949084331	 0.135301
H	-3.262591593	-5.5921733824	 1.5960688003	 0.118869
H	-2.2982331169	-4.1919684703	 2.0848552826	 0.115218
H	-4.2500075936	-4.289636866	-1.8058971341	 0.113601
H	-4.4853379061	-5.607193305	-0.6447018707	 0.107283
H	-5.2296984625	-4.0169129834	-0.3619430812	 0.139194
