15
gdb 133853	3.76654	1.88673	1.71541	2.8744	68.51	-0.2087	-0.0889	0.1198	806.6963	0.113228	-416.642338	-416.636198	-416.635254	-416.672291	26.155	
O	 0.8185041235	-0.5540340094	 0.0062240463	-0.4404
C	 2.1363227887	-0.2598706898	-0.0192660829	 0.360386
C	 2.8625398952	 1.0040261041	 0.5637267516	-0.154626
C	 3.1830814209	-0.4169238643	 1.0163392739	-0.094421
N	 4.244991129	-0.7589610177	 0.030088501	-0.090299
C	 5.1512762116	 0.4305641463	-0.0105489436	-0.183647
C	 4.057523906	 1.3841477332	-0.4955869616	-0.032448
N	 3.5240566806	 0.6767051206	-1.7103022638	-0.228298
C	 3.3161814683	-0.4269064193	-1.0651211905	 0.011457
H	 0.3473154898	 0.0900935275	-0.5361690885	 0.309575
H	 2.3564770496	 1.7100731988	 1.2126314079	 0.101017
H	 3.170575307	-0.8385621904	 2.0123004455	 0.115012
H	 5.950329393	 0.2889222856	-0.7399847914	 0.126676
H	 5.5593406177	 0.6322608073	 0.9806107748	 0.116422
H	 4.2512657393	 2.4443947075	-0.6506032887	 0.083593
