20
gdb 38734	2.38172	2.35191	2.27761	1.6317	78.7	-0.223	0.0869	0.31	821.7571	0.177523	-366.027787	-366.022204	-366.02126	-366.057244	25.711	
C	-0.0382214552	 1.5597463369	 0.0107497663	-0.212187
C	 1.4660056081	 1.9194700539	-0.0125962553	-0.044584
C	 2.0713149426	 1.5299470775	-1.3799070509	-0.210229
C	 1.9874766031	-0.0067613252	-1.3100052598	 0.001606
C	 0.5214965005	-0.4753827297	-1.3784524585	-0.210229
C	-0.0070915946	 0.0133989873	-0.0112107821	-0.044584
C	 1.1807973003	-0.3203063782	 0.9109451917	-0.042399
C	 2.0890881384	 0.8549279524	 0.9100795833	-0.042399
N	 2.4179079642	-0.3384102104	 0.09246819	-0.118205
H	-0.4965567003	 1.9146373397	 0.9403782315	 0.094462
H	-0.597167811	 1.9911131147	-0.8276029641	 0.087974
H	 1.6766397386	 2.9479095651	 0.2857462168	 0.061597
H	 1.5307007983	 1.9521743367	-2.2333103409	 0.091542
H	 3.116150176	 1.8510136619	-1.4446476625	 0.100059
H	 2.6419251617	-0.513070263	-2.022021125	 0.070215
H	-0.0239864556	-0.0594546188	-2.2318512843	 0.091543
H	 0.4741799514	-1.5674709909	-1.4421746414	 0.100059
H	-0.9489930736	-0.4494506499	 0.2882139751	 0.061597
H	 1.1060254823	-1.0450419477	 1.7157446423	 0.082081
H	 2.7721416949	 1.1107423574	 1.7141519778	 0.082081
