18
gdb 75339	2.6276	1.68478	1.14041	5.1293	80.43	-0.2015	-0.0216	0.1799	1082.8791	0.149165	-401.978806	-401.970695	-401.969751	-402.011283	31.336	
C	 0.0691848107	 1.5340504022	 0.0143049956	-0.476798
C	 0.0454222415	 0.0306566444	-0.0155209421	 0.12826
C	-0.0414407473	-0.6720755064	-1.175240915	-0.05889
N	-0.1704355926	-2.0282066179	-1.2719859486	-0.305045
C	 0.0587244358	-2.8712407057	-0.138231603	 0.002312
C	 1.3707371104	-2.8214781839	 0.5967873872	-0.312155
C	 0.1360518145	-2.1789643372	 1.2083661399	-0.145459
C	 0.0273213652	-0.679134515	 1.2615917848	 0.324798
O	-0.0942465621	-0.1112182489	 2.337639203	-0.362242
H	 0.9785597141	 1.9102926064	 0.4960439924	 0.128804
H	 0.0164524745	 1.9542874096	-0.9945685635	 0.102381
H	-0.7705499739	 1.9249427369	 0.598573334	 0.137488
H	-0.0606253748	-0.1558153613	-2.1315682619	 0.113922
H	-0.0189280489	-2.4403655122	-2.1784794207	 0.250401
H	-0.4609170591	-3.821714117	-0.2006480147	 0.108286
H	 1.7317602244	-3.736213068	 1.0519669727	 0.125054
H	 2.1414846547	-2.1612337772	 0.2146845143	 0.128282
H	-0.3001337671	-2.6703589888	 2.0703513253	 0.110601
