18
gdb 49285	2.95405	1.42192	1.02685	3.436	80.54	-0.2273	-0.057	0.1704	1147.2423	0.148909	-401.943519	-401.935762	-401.934818	-401.975983	29.663	
O	-0.0878148436	-0.0124435742	 0.1265566947	-0.269014
C	-0.0138151998	 1.1951775714	 0.1118957966	 0.086568
C	 1.247324504	 1.9541804094	 0.079405297	 0.21192
C	 1.2270780004	 3.2938719442	 0.0071810411	-0.140291
C	 2.4998347656	 4.0878933785	-0.0530407491	-0.258519
C	 3.6268631723	 3.3662483252	 0.700861375	-0.158113
N	 3.7827548778	 1.9624247146	 0.277662569	-0.107585
C	 3.3538642797	 0.9437517643	 1.2402611527	-0.240104
C	 2.5393074899	 1.2208064025	 0.0261028693	-0.103272
H	-0.9285660754	 1.8315412626	 0.114153676	 0.065965
H	 0.274071075	 3.8188675964	-0.0102544165	 0.105675
H	 2.7819069657	 4.2389489937	-1.1050581313	 0.135517
H	 2.3557702151	 5.087803628	 0.3691056774	 0.116079
H	 4.5812558232	 3.8754985094	 0.5296007053	 0.110796
H	 3.4144426709	 3.4326474612	 1.7769053336	 0.099891
H	 3.9664005833	 0.0477714421	 1.2896651324	 0.120846
H	 2.961149905	 1.2846265238	 2.196609179	 0.110254
H	 2.6075038611	 0.5065192967	-0.7923706722	 0.113388
