17
gdb 49824	2.59306	1.3391	0.99931	0.7133	75.21	-0.253	-0.0348	0.2182	1175.3723	0.133786	-421.830892	-421.822272	-421.821328	-421.865139	31.247	
O	 0.4121059499	-0.2321578923	-0.0957159	-0.255564
C	 0.2107753834	 0.9452506244	 0.0546301277	 0.167072
C	 1.2533786534	 2.0237554239	-0.0701479193	-0.18853
C	 0.7763880925	 3.2998174612	-0.8520111258	-0.384909
C	 0.9982233541	 4.1266099321	 0.4312993024	 0.357274
O	 0.8920554352	 5.2864105067	 0.7114079326	-0.305901
C	 1.4131670268	 2.9053154735	 1.1959899798	 0.208862
C	 1.0552486475	 2.6083723338	 2.6425255299	-0.313356
C	 2.4779205587	 2.8582798297	 2.2702704754	-0.304483
H	-0.8039643091	 1.3266513862	 0.321080421	 0.074728
H	 2.1849826436	 1.5888187051	-0.4357685001	 0.100911
H	 1.3971828532	 3.5869953146	-1.7035732777	 0.145335
H	-0.2698932288	 3.2764665887	-1.1749558568	 0.139226
H	 0.5116389523	 3.3851660963	 3.169309298	 0.142823
H	 0.7558272323	 1.5928719826	 2.8788141798	 0.138186
H	 3.1608088848	 2.0159725329	 2.2440406968	 0.135262
H	 2.9244873802	 3.8098467405	 2.5385028263	 0.143063
