20
gdb 91007	4.1553	1.37978	1.21441	0.3775	79.31	-0.211	0.0914	0.3024	1081.8133	0.172796	-403.08338	-403.076121	-403.075177	-403.114735	29.94	
C	 0.0705751908	 1.5669020307	 0.0726119174	-0.407229
C	 0.0366744517	 0.0514071833	-0.0150061728	 0.142314
C	 0.7428809319	-0.5178585137	-1.2496690921	-0.185908
N	 1.0877485227	-1.944757863	-1.1159926086	-0.13441
C	 0.3006069554	-2.7049249376	-0.0416250868	-0.077789
C	 1.5110228609	-3.6564771319	 0.0474302688	-0.2296
C	 2.0773012211	-2.2221896778	 0.0119665826	-0.057668
C	 0.9915384878	-1.8201104279	 1.0515486003	 0.152567
O	 0.6396568959	-0.4735973455	 1.1700671009	-0.28884
H	 1.1045328331	 1.9247324054	 0.0991647384	 0.122461
H	-0.4305900355	 2.0118556939	-0.7928963242	 0.11601
H	-0.4347219986	 1.9104678681	 0.979577504	 0.125241
H	-1.0123300391	-0.2876993577	-0.0356052122	 0.070341
H	 0.1005545794	-0.3927891116	-2.1295927523	 0.102549
H	 1.6744785859	 0.0281843348	-1.447915378	 0.101343
H	-0.7515408612	-2.9651071973	-0.1678464265	 0.082534
H	 1.6349234217	-4.2224977608	 0.9723607021	 0.096304
H	 1.6956115148	-4.2456328126	-0.8502243747	 0.111596
H	 3.1166757198	-1.8952589657	-0.0574131788	 0.078642
H	 1.0834869314	-2.2265693832	 2.0637585526	 0.079543
