25
gdb 57521	2.45664	1.03941	1.03121	0.1318	85.48	-0.2545	0.0617	0.3162	1404.7454	0.223935	-426.640343	-426.628527	-426.627583	-426.676544	45.099	
C	 0.3215470991	 0.9642484143	 0.5356549307	-0.399339
C	 0.1237651449	-0.4647661247	 0.011639086	 0.312889
C	 0.9890328845	-1.441475271	 0.8292196161	-0.403435
O	-1.2535818877	-0.8514356272	 0.1479590666	-0.45923
C	 0.4774063277	-0.6446399243	-1.4804590832	-0.16372
C	-0.1827984372	 0.2282093211	-2.5695095927	 0.312892
C	 0.3421156236	-0.2386268222	-3.9397676183	-0.403441
C	-1.7170844287	 0.1869366614	-2.5621488246	-0.399327
O	 0.2733032602	 1.5714607222	-2.339634145	-0.459239
H	 1.3572299846	 1.2922584034	 0.4072003539	 0.114987
H	-0.3160875398	 1.6700480353	 0.0058118708	 0.134356
H	 0.0900960932	 0.9994849962	 1.6079397406	 0.084903
H	 0.7260752216	-1.3832756605	 1.8921100634	 0.097799
H	 0.8266213707	-2.4706538761	 0.4958536606	 0.116243
H	 2.0550241905	-1.2086388972	 0.7389415984	 0.112688
H	-1.4966504127	-0.7301316162	 1.0719534661	 0.272174
H	 1.5598162518	-0.5050538551	-1.5796903116	 0.097829
H	 0.2686870937	-1.6914583144	-1.7285555703	 0.097833
H	 0.0453792038	-1.2702286247	-4.1552893857	 0.112689
H	-0.0620949844	 0.3958894424	-4.7374374401	 0.097798
H	 1.4335637285	-0.1741227174	-3.9757686934	 0.116243
H	-2.1167453968	 0.5582207463	-1.6198715089	 0.134355
H	-2.1066658086	 0.7965177442	-3.3875194314	 0.084898
H	-2.0854137332	-0.8340107463	-2.6990079224	 0.114982
H	-0.1421061693	 2.1339444605	-3.0019112857	 0.272175
