16
gdb 51601	2.36917	1.13408	0.82744	6.2694	68.77	-0.2737	0.0042	0.2779	1348.4353	0.121923	-475.007645	-474.998599	-474.997655	-475.042837	31.113	
N	-0.4414294894	 1.142675211	-0.454136878	-0.424824
C	-0.5182548275	-0.0286557534	-0.0013195947	 0.128638
O	-1.132377674	-0.9897980123	-0.7401126511	-0.186312
C	-1.0487290164	-2.2987060795	-0.2566751467	 0.059678
C	-1.8500099079	-2.7089145055	 0.9569316004	-0.34495
C	-2.2892577301	-3.1400215829	-0.4133688892	 0.078796
O	-3.4686179406	-2.5391775096	-0.8796300333	-0.189932
C	-3.479900396	-2.1339207131	-2.1790801411	 0.189716
O	-4.4537688921	-1.6667780757	-2.680337123	-0.266027
H	 0.0284143939	 1.7479522309	 0.2158765423	 0.236373
H	-0.1441111905	-0.3992823797	 0.9608946967	 0.098541
H	-0.0892015967	-2.7784894658	-0.435894218	 0.117757
H	-1.4366863695	-3.4441001734	 1.6371785639	 0.133006
H	-2.4667421071	-1.9415352562	 1.4111062288	 0.154188
H	-2.1733522144	-4.1790337851	-0.7080232216	 0.120064
H	-2.5127589717	-2.2929683497	-2.6860931152	 0.095286
