19
gdb 42032	3.28009	1.45578	1.07523	0.9913	71.09	-0.2527	0.0827	0.3353	1104.7785	0.162279	-460.15821	-460.150866	-460.149922	-460.190186	28.673	
C	-0.0051716896	 1.4342022081	-0.0283465664	 0.00913
O	 1.3364172178	 1.9075959389	-0.0193802489	-0.286274
C	 2.0897660538	 0.8285961829	 0.5144424787	 0.141917
C	 3.5690865487	 0.7519998138	 0.20714196	-0.270074
C	 4.0207273537	-0.6146707166	 0.7760330514	-0.068074
O	 3.2559341836	-1.7145418114	 0.295559447	-0.250117
C	 1.8593396575	-1.6372674906	 0.5716173435	-0.137569
C	 1.3689204576	-0.36020666	-0.0912453437	 0.137823
O	 0.0119983513	 0.0090114188	 0.0852782664	-0.290193
H	-0.5763193426	 1.8287491994	 0.8243168253	 0.103565
H	-0.4665799498	 1.7523894866	-0.9723898897	 0.108894
H	 1.9528608623	 0.7955114795	 1.6106315975	 0.067689
H	 3.7433379717	 0.7952239268	-0.872749708	 0.116707
H	 4.1406338032	 1.5570841573	 0.6803933426	 0.108079
H	 5.0534665826	-0.8294638399	 0.4910728299	 0.117508
H	 3.9743348985	-0.5789680901	 1.8773141326	 0.094436
H	 1.4100468457	-2.5387897568	 0.1487030572	 0.119333
H	 1.6605877301	-1.619505001	 1.6548155497	 0.097898
H	 1.6150213141	-0.4240819755	-1.1631974753	 0.079322
