13
gdb 130843	2.78507	1.32465	0.89769	1.4259	71.01	-0.269	-0.098	0.1709	1172.0843	0.090276	-452.787445	-452.779908	-452.778964	-452.820061	26.451	
O	 0.0939170931	-0.0752509345	-0.0024303698	-0.2807
C	 0.0083244319	 1.1338110549	 0.0093927365	 0.093343
C	 1.1864392197	 2.0023620162	 0.0036894901	 0.219
C	 1.3726486226	 3.3901117985	 0.0139554562	 0.003609
C	 0.3621936894	 4.448468912	 0.0349715616	 0.073392
O	 0.6270671772	 5.6292664492	 0.0415312629	-0.265918
C	 2.7776847884	 3.5520053402	-0.000660165	-0.051726
N	 3.4078804992	 2.3805741415	-0.01828318	-0.193406
N	 2.4284952305	 1.4667415268	-0.0152570414	-0.230907
H	-0.9697401253	 1.6511054801	 0.0251131053	 0.10332
H	-0.6934614125	 4.1009017622	 0.0430334074	 0.074395
H	 3.3340808261	 4.4762433311	 0.0012361154	 0.157217
H	 2.6401522498	 0.4799015318	-0.0264638192	 0.29838
