19
gdb 39436	2.40529	1.98154	1.33043	2.4294	74.69	-0.2397	0.068	0.3077	993.3103	0.161479	-422.988781	-422.981612	-422.980668	-423.020202	28.906	
C	-0.0346688996	 1.5228934849	-0.0410653379	-0.389371
C	 1.2938177133	 0.7926502717	 0.0333569828	-0.078685
C	 2.0500770485	 0.6252540566	 1.3407066696	-0.106704
O	 2.0316593467	-0.7302542196	 1.7735857134	-0.235119
C	 0.736725427	-1.1280175695	 2.1764826516	-0.110643
C	-0.3286515483	-0.9576844425	 1.0939115042	 0.069928
O	-0.3753670023	-2.0253062338	 0.1136424621	-0.295755
C	-0.3500127099	-1.0831616877	-0.9850088449	-0.154163
C	 0.0002363049	 0.0339069281	-0.0169123708	 0.294057
H	-0.3906427747	 2.0448594186	 0.8434222807	 0.113893
H	-0.2830352011	 2.0156943572	-0.9756273506	 0.118897
H	 1.8972500371	 0.7885711407	-0.8696488731	 0.09257
H	 3.1035094803	 0.890768595	 1.2249192402	 0.113477
H	 1.6232078559	 1.2709116336	 2.1269832747	 0.086405
H	 0.7988932311	-2.1839009765	 2.4564183316	 0.124108
H	 0.4278457878	-0.549870244	 3.0657891463	 0.081263
H	-1.3163486144	-0.827281129	 1.560962411	 0.070499
H	 0.4000932194	-1.3442557607	-1.7406415174	 0.10746
H	-1.3360555518	-0.9951112031	-1.4632089435	 0.097881
