19
gdb 74004	2.71767	1.66493	1.10666	1.8465	83.58	-0.2251	0.0173	0.2424	1112.6695	0.160355	-385.901294	-385.893422	-385.892478	-385.933584	30.463	
C	-0.0539924816	 1.450581025	-0.0550505447	-0.496828
C	-0.0262098917	-0.0406102678	 0.0251611189	 0.151052
C	-1.0231306436	-0.9071614736	 0.1755912431	 0.179089
C	-2.5131454282	-0.913709907	-0.0264158886	-0.373206
C	-2.6586792416	-2.2107773832	-0.8207346776	-0.058186
C	-1.549197071	-2.9563683321	-0.8107767241	-0.11339
C	-0.4958914082	-2.3179290026	 0.0686933676	 0.061349
O	 0.8343497475	-2.1852248331	-0.4264040137	-0.283447
C	 1.2504841372	-0.8420547836	-0.17236522	-0.154286
H	 0.5204101983	 1.9054244081	 0.7622509505	 0.130806
H	 0.3971578454	 1.8068890191	-0.9898173626	 0.127661
H	-1.0750351741	 1.8369867682	 0.0033179832	 0.126537
H	-3.0814486537	-0.9681164935	 0.9140726074	 0.117058
H	-2.8835134097	-0.0336897294	-0.5646734707	 0.113898
H	-3.5898386151	-2.4813750122	-1.3072535775	 0.096815
H	-1.4313982315	-3.9263082307	-1.278983953	 0.101925
H	-0.4569793689	-2.8488272736	 1.0394054595	 0.073607
H	 1.8282609536	-0.4800467248	-1.0343672566	 0.105847
H	 1.9178731266	-0.8018246233	 0.7068977287	 0.093698
