15
gdb 29095	3.11986	1.46151	1.00059	3.7639	74.61	-0.2039	-0.0314	0.1724	1113.6455	0.114617	-450.146174	-450.138102	-450.137158	-450.178965	30.472	
N	-0.0765309686	 1.4384675171	 0.1862889757	-0.570565
C	-0.1165899233	 0.0470902405	 0.061777919	 0.249405
C	-1.2005944402	-0.6566292758	-0.266823622	-0.055113
N	-1.1549551887	-2.0366296183	-0.3687938265	-0.359712
C	-0.0151723047	-2.7767315731	-0.1445554671	 0.323876
N	-0.0273300988	-4.045470736	-0.2516794221	-0.52378
C	 1.2037048799	-1.9698812183	 0.2264837479	 0.326896
N	 2.2951611273	-2.5693099646	 0.4506860631	-0.510819
O	 1.0946437848	-0.6103432489	 0.3101162212	-0.259064
H	 0.5896540663	 1.8553942591	-0.4584789804	 0.246752
H	 0.1921640737	 1.7253138366	 1.1237800063	 0.246761
H	-2.142528305	-0.1679892317	-0.4620383864	 0.143552
H	-1.9781887511	-2.5617023762	-0.6171860167	 0.266284
H	 0.9081070654	-4.3967664072	-0.0464370537	 0.245689
H	 3.033223123	-1.9066108633	 0.6895899316	 0.22984
