22
gdb 119630	4.0108	0.88556	0.81318	2.011	81.51	-0.2373	0.0729	0.3102	1481.0835	0.196017	-404.338908	-404.329888	-404.328944	-404.372985	34.444	
O	 0.0726835338	 1.4584076986	 0.207000609	-0.420364
C	 0.0222158791	 0.0408325132	 0.2603489003	-0.058556
C	-1.2842368747	-0.5259394712	-0.3060395428	-0.291671
C	-1.3499172898	-2.0344250134	-0.2402861546	 0.345843
C	-0.4088446815	-2.8686899327	-1.1077554524	-0.273428
C	-0.9910418228	-4.3015002592	-1.0838395511	-0.242726
C	-2.5074656283	-4.1187469855	-0.8335684924	-0.227209
C	-2.6125911251	-2.8093035588	-0.0698043626	-0.062382
N	-1.7124918864	-2.5978062495	 1.0769075977	-0.377671
H	-0.6279030595	 1.795110971	 0.7747337799	 0.280274
H	 0.8763276736	-0.3027090143	-0.3330973687	 0.107637
H	 0.1651396756	-0.3311862615	 1.2862539084	 0.100104
H	-2.1232976559	-0.1147304704	 0.2688163001	 0.092281
H	-1.3999236042	-0.1857462573	-1.3427360327	 0.099339
H	-0.4199226955	-2.4620621186	-2.1270315512	 0.104326
H	 0.6319924893	-2.8386735533	-0.7665715304	 0.102259
H	-0.784395341	-4.8490955048	-2.0064565716	 0.105165
H	-0.537648771	-4.8853197849	-0.2761958201	 0.104486
H	-3.0510748427	-4.0202674738	-1.7812713525	 0.104848
H	-2.9498170489	-4.9660029659	-0.2978628373	 0.102131
H	-3.5816794424	-2.3249597776	 0.0168209929	 0.083404
H	-1.1811063719	-3.43954954	 1.2863918418	 0.22191
