13
gdb 9117	3.96806	0.96745	0.78536	5.3862	72.13	-0.2964	-0.105	0.1913	1375.3676	0.093335	-361.455461	-361.446725	-361.445781	-361.491985	28.549	
C	-0.0263014126	 1.5775876958	 0.0112553897	-0.373467
C	-0.0438354729	 0.0380377504	 0.0022444874	-0.327958
C	-1.383142139	-0.5266553766	 0.0126456504	 0.067626
C	-2.5015337306	-0.984320465	 0.0211102704	 0.063011
C	-3.8261374179	-1.5254818386	 0.0306707203	 0.192864
O	-4.1049997	-2.7030791794	 0.0273378637	-0.251237
C	-4.89152987	-0.5023387483	 0.0456493499	 0.223725
N	-5.7308359639	 0.2929282335	 0.057411041	-0.319005
H	 1.0056804852	 1.9377536295	 0.0028635978	 0.130077
H	-0.5400408475	 1.977990028	-0.8660941916	 0.141547
H	-0.5219494828	 1.9674073933	 0.9036490142	 0.141539
H	 0.4850326012	-0.343534971	-0.8807674902	 0.155648
H	 0.5029470006	-0.3539858617	 0.8696077869	 0.15563
