18
gdb 79362	2.49605	1.97733	1.79222	1.1709	68.99	-0.2311	0.0768	0.3078	873.8622	0.151435	-439.065341	-439.058713	-439.057769	-439.096005	27.636	
O	 0.0257736555	 1.4154575772	 0.0166702322	-0.448401
C	-0.0179477644	 0.0093794459	-0.0149986672	 0.149131
C	-1.4066401316	-0.6068001414	-0.1728781728	-0.086723
C	-1.8930333698	-0.7330534931	-1.5719820118	-0.034741
C	-1.1261308359	-0.0930084421	-2.712896068	-0.116323
O	 0.243841302	 0.1588405763	-2.3856246104	-0.292912
C	 0.6842613391	-0.5974099842	-1.2488008371	 0.028327
C	 0.13378533	-2.0235839009	-1.2782773065	-0.188683
N	-1.2970586311	-1.9020328101	-0.8960404516	-0.12895
H	 0.0291728114	 1.6937021414	-0.90968567	 0.286248
H	 0.4404682377	-0.3474804963	 0.9145187168	 0.089165
H	-2.1061025557	-0.5679828653	 0.6557411999	 0.093322
H	-2.9621419207	-0.8252668489	-1.7501116161	 0.09858
H	-1.1747685092	-0.744020806	-3.5991024156	 0.111701
H	-1.5828339721	 0.8645989999	-2.9892910912	 0.116555
H	 1.771828024	-0.5150225951	-1.2297280535	 0.09071
H	 0.2351860639	-2.4983046306	-2.2586888019	 0.117198
H	 0.6380912469	-2.6555212965	-0.5400608851	 0.115798
