21
gdb 122676	4.88845	0.72716	0.6695	1.9505	75.49	-0.2539	0.0821	0.336	1716.0382	0.182044	-461.349824	-461.340116	-461.339172	-461.386518	33.808	
C	-0.1242412113	 1.1692471738	-0.1840168149	-0.385686
C	-0.0457401064	-0.3309916708	-0.4613141038	-0.038099
O	-1.3137798698	-0.9554092887	-0.5765629962	-0.251614
C	-1.9840800869	-1.1711294008	 0.646677563	-0.089526
C	-3.2586209297	-1.9384455824	 0.3219692164	 0.091198
C	-3.0111853796	-3.3368395693	-0.2811840873	-0.114352
O	-3.9952843041	-4.1461764961	 0.3491895274	-0.233661
C	-4.1137023216	-3.6115176618	 1.6383409896	 0.02536
O	-3.9912316669	-2.2056538389	 1.5200703697	-0.272865
H	 0.8805667194	 1.6041436988	-0.1942097077	 0.117235
H	-0.7241162429	 1.6677072589	-0.9511461038	 0.127744
H	-0.5678350814	 1.3832906366	 0.7927764601	 0.123745
H	 0.451768931	-0.5061749408	-1.4208860282	 0.108339
H	 0.5517202718	-0.8330872721	 0.3168693962	 0.088482
H	-1.3608220387	-1.7625527941	 1.3392109905	 0.085663
H	-2.2410827383	-0.2295168947	 1.1526017607	 0.102472
H	-3.8846907218	-1.330551612	-0.3422694969	 0.092917
H	-3.1606028392	-3.3846977935	-1.3601026279	 0.126733
H	-1.9963293134	-3.691553398	-0.0438273915	 0.097271
H	-5.1000014179	-3.8613543781	 2.0411641537	 0.118094
H	-3.3223124924	-4.0046308761	 2.3035799509	 0.08055
