18
gdb 77661	2.18225	1.411	1.26353	4.0106	76.47	-0.2164	-0.0234	0.193	1115.7699	0.145876	-439.04789	-439.03876	-439.037815	-439.081525	33.673	
C	-0.0161225307	 1.5569435484	 0.0066332749	-0.418845
C	 0.1160220989	 0.0478614307	 0.0126367241	-0.152671
C	 1.3604116862	-0.7218919343	-0.253533641	 0.316805
O	 1.4913743575	-1.7065426634	-1.2010005599	-0.440939
C	 2.5939400445	-0.1413790441	 0.4321285095	-0.228104
N	 1.8534036174	 0.028149534	 1.723106606	-0.36847
C	 0.7067906845	-0.7123314315	 1.1952464022	 0.200824
C	 0.0663692324	-1.794066813	 1.9227872179	 0.056032
O	 0.4338509335	-2.1751749697	 3.0155527739	-0.294395
H	 0.8044262408	 2.0167934019	 0.5605622389	 0.153181
H	-0.0176606161	 1.9472870982	-1.0164228056	 0.115995
H	-0.9524817026	 1.8587479186	 0.4859498335	 0.126682
H	-0.7514722629	-0.4862315424	-0.3815586934	 0.093367
H	 0.8156448246	-1.5885127069	-1.8766085529	 0.295849
H	 3.3819612842	-0.8982996006	 0.4879220835	 0.127212
H	 3.0076996188	 0.7856609829	 0.0192629098	 0.109484
H	 2.2728074384	-0.5045243033	 2.4795423833	 0.241688
H	-0.7825971194	-2.2769416853	 1.3901775155	 0.066305
