19
gdb 83460	3.01121	1.11075	0.95105	4.001	76.86	-0.2617	0.0054	0.2671	1286.9212	0.158022	-423.019696	-423.010822	-423.009878	-423.053656	32.697	
C	-0.0698616275	 1.5096391748	 0.1535673118	-0.420402
C	 0.0825188074	 0.0075864486	 0.267668128	-0.064831
C	 1.3031498863	-0.7975524535	-0.1421344149	-0.14754
C	 2.6072206884	-0.0654231934	 0.2052686488	-0.226316
C	 2.1727652579	-0.0253518815	 1.7084052137	-0.302642
C	 0.8706319281	-0.7250673239	 1.3165288645	 0.402562
O	 0.3260676551	-1.7592421419	 2.0920183024	-0.225824
C	-0.7360255136	-1.4568601176	 2.8743428831	 0.148952
O	-1.2488369788	-2.2578950578	 3.5947619988	-0.27095
H	 0.8414128942	 2.0431499863	 0.4354481475	 0.125358
H	-0.3155574409	 1.7959249414	-0.8745705764	 0.125629
H	-0.876369885	 1.8717918181	 0.8004431273	 0.121715
H	-0.8245171677	-0.5416610635	 0.0190184616	 0.10166
H	 1.2127232956	-1.6243371071	-0.8356564719	 0.102225
H	 3.4939333712	-0.6817079646	 0.0480204045	 0.114627
H	 2.7626130606	 0.8995186816	-0.2847176026	 0.105003
H	 2.7966050076	-0.6725978929	 2.327779537	 0.124153
H	 2.0864572368	 0.9520915366	 2.1930026085	 0.101415
H	-1.0627319455	-0.4070095396	 2.7600112083	 0.085207
