15
gdb 3489	4.88505	3.57558	3.13272	1.5759	59.7	-0.2395	0.0974	0.3369	531.8689	0.128072	-308.472241	-308.467552	-308.466608	-308.500312	20.04	
C	-0.0320242333	 1.5875552541	 0.0681855585	-0.237307
C	 1.4942834669	 1.3603033164	-0.0138516007	 0.08239
O	 1.7774301998	 0.7426106345	 1.2520719961	-0.269367
C	 1.0291224922	-0.4640749444	 1.0324648191	 0.08239
C	 1.8035280182	-1.1207034267	-0.1324897064	-0.237306
C	 1.2337774436	 0.0739410553	-0.9105029186	-0.059926
C	-0.0551885533	 0.0543279739	-0.0077765594	-0.059926
H	-0.4077377318	 2.1013320943	 0.9565294631	 0.100227
H	-0.4432899735	 2.0287092845	-0.844021899	 0.098572
H	 2.221031769	 2.1380371499	-0.2425267554	 0.077606
H	 0.7973219494	-0.9591660238	 1.9739949642	 0.077606
H	 2.8833380455	-1.2324241564	-0.006750179	 0.100226
H	 1.3483265973	-2.0566381802	-0.4681947851	 0.098573
H	 1.2220656255	 0.1769674548	-1.9939234632	 0.07312
H	-0.9335268555	-0.5569620063	-0.2062666541	 0.073121
