20
gdb 117298	3.31176	0.89071	0.75017	3.6985	79.87	-0.2373	0.0059	0.2432	1576.4386	0.170611	-436.533544	-436.523111	-436.522167	-436.570491	36.655	
C	 0.6713338344	 1.0285792829	 0.004395231	-0.368878
C	 0.1803971321	-0.3968683093	-0.2666320501	-0.138314
N	 0.7211017466	-1.3781004078	 0.6592439625	-0.336773
C	 0.1382302347	-1.5933897851	 1.8559712786	 0.481709
O	-0.871496836	-1.048789795	 2.2705926818	-0.424704
N	 0.776038325	-2.5547816307	 2.6828316905	-0.383546
C	 1.9158680612	-3.3061252328	 2.4911528418	 0.402335
C	 2.2300868476	-4.2153182811	 3.6601263417	-0.48264
N	 2.6059903368	-3.2087915024	 1.4156249683	-0.534895
H	 1.7623832022	 1.0899925608	-0.0612841814	 0.112477
H	 0.2445860739	 1.7258618408	-0.7241974287	 0.110616
H	 0.3654645454	 1.3461882246	 1.004647281	 0.139499
H	-0.9100211078	-0.4316124182	-0.1925338839	 0.132747
H	 0.4566230347	-0.7104860804	-1.2785461657	 0.101826
H	 1.5822522675	-1.8864486977	 0.4693656934	 0.277083
H	 0.2761396722	-2.6632729516	 3.5511465133	 0.256336
H	 1.4036608173	-4.9106664189	 3.8421665301	 0.149068
H	 3.1345985633	-4.7936134748	 3.4662166532	 0.136753
H	 2.3788769627	-3.6316248294	 4.5749465627	 0.148906
H	 3.4088524362	-3.8301278237	 1.4408965299	 0.220395
