20
gdb 57559	3.76219	0.70622	0.68831	3.6832	76.75	-0.2759	0.0078	0.2838	1685.5619	0.166817	-440.288353	-440.277412	-440.276468	-440.325144	38.412	
C	-0.0137999456	 1.5579049893	 0.0239279058	-0.413853
C	 0.0521040548	 0.0263070223	 0.0208449984	 0.315275
C	 0.7591182218	-0.5065697011	 1.2723825447	-0.413873
O	-1.2595323588	-0.5335604679	-0.0929389856	-0.470684
C	 0.7422541467	-0.4840359343	-1.2503315742	-0.057744
O	 2.0755022572	-0.0003049612	-1.2764391686	-0.243963
C	 2.7790230418	-0.4241533625	-2.4143301505	-0.17895
C	 4.142373646	 0.1138291962	-2.3673788269	 0.262454
N	 5.2214936313	 0.5235808211	-2.3568553573	-0.291209
H	 0.98826531	 1.9926529001	-0.0095028831	 0.138129
H	-0.5805907287	 1.9134720505	-0.841578525	 0.11894
H	-0.5118145516	 1.9179602449	 0.9312433139	 0.10483
H	 0.2598644172	-0.1438306031	 2.1779503927	 0.104832
H	 0.7351060526	-1.6002292419	 1.283132585	 0.118947
H	 1.8007972081	-0.1776213546	 1.3031943103	 0.138138
H	-1.7644412802	-0.2564649632	 0.6784554558	 0.279949
H	 0.72886773	-1.5846112534	-1.255670302	 0.102525
H	 0.1854565068	-0.1342116109	-2.132986852	 0.102513
H	 2.8369130586	-1.5236798707	-2.470731062	 0.141867
H	 2.2965172019	-0.0781534996	-3.3432881591	 0.141875
