18
gdb 18599	3.26752	2.16587	1.78462	2.0599	66.75	-0.2464	0.0851	0.3315	818.4692	0.155536	-384.932204	-384.925307	-384.924363	-384.963141	26.914	
C	 0.2853885165	 1.5075492832	-0.2208946852	-0.41458
C	 0.0430609499	 0.041822629	 0.076033462	 0.160159
O	 0.6674971819	-0.8328656707	-0.9000738082	-0.311291
C	 1.3597824641	-1.5740324254	 0.1210218801	 0.123342
C	 2.863524207	-1.314779861	 0.1349797584	-0.104444
O	 3.0296854093	-0.0433126078	 0.7536429991	-0.246497
C	 2.0521543824	 0.0401720909	 1.7861285	-0.096457
C	 0.8036856034	-0.6535802807	 1.2384812092	-0.131308
H	 1.3557891791	 1.7222683089	-0.2638117588	 0.142988
H	-0.1579525818	 1.765510906	-1.1878170862	 0.125537
H	-0.1805239133	 2.1393984853	 0.5435428887	 0.111251
H	-1.0363639447	-0.1604257907	 0.1180108179	 0.073596
H	 1.095447392	-2.6364402035	 0.1140682777	 0.076609
H	 3.3736115976	-2.1030910017	 0.7143022955	 0.085237
H	 3.2949153146	-1.2677830552	-0.8677867457	 0.121624
H	 2.3996289953	-0.4784624451	 2.6949412473	 0.091335
H	 1.9129428741	 1.0975033463	 2.0266812468	 0.113795
H	 0.1782887525	-1.0955378081	 2.0137985215	 0.079105
