15
gdb 24218	4.27487	1.55314	1.36008	1.6628	70.28	-0.2287	0.0173	0.246	919.059	0.115973	-420.591293	-420.585465	-420.584521	-420.621375	24.341	
C	-0.0589239537	 1.5959129739	-0.0462233894	-0.221242
C	 1.4791663115	 1.3404615903	 0.0079477057	-0.100879
O	 1.1783393832	 0.1814061647	 0.8735254707	-0.289939
C	-0.0163008002	 0.037638081	 0.0160278802	-0.10088
C	 0.6334975432	-0.3035656352	-1.3087227699	 0.303502
C	 0.7362733942	-1.0232853695	-2.4420942699	-0.209693
O	 1.8224100053	-0.5829300743	-3.1614283448	-0.162214
C	 2.4118431549	 0.4364423538	-2.4511496261	-0.209693
C	 1.7199715473	 0.6429518496	-1.3145944442	 0.303501
H	-0.4300746487	 2.0277189676	 0.8848575477	 0.114562
H	-0.4857598344	 2.0804000903	-0.9271025994	 0.107997
H	 2.19753213	 2.0406116534	 0.4274631575	 0.092499
H	-0.8056851994	-0.5757362114	 0.4436923178	 0.0925
H	 0.1840104806	-1.8302678158	-2.8932733517	 0.139989
H	 3.2840957162	 0.8704746715	-2.9100274943	 0.139989
