16
gdb 66030	2.82251	1.25288	1.12701	2.1458	73.9	-0.2716	-0.0134	0.2582	1119.296	0.124433	-396.933639	-396.924907	-396.923963	-396.967176	31.586	
C	-0.4220797368	 1.5774296074	 0.0661859213	-0.437354
C	 0.0159190246	 0.118038543	 0.0661982397	 0.141008
N	 1.3020760822	-0.1490645563	-0.6228692788	-0.320491
C	 1.7518267531	-1.0814715805	 0.4317970038	-0.171771
C	 0.6577614977	-0.5022008473	 1.3795039686	-0.216747
C	 1.1306778764	 0.477260044	 2.3407588892	 0.301049
N	 1.5056011169	 1.253843597	 3.1105465812	-0.322631
C	-1.0746947694	-0.7555909857	-0.4025249718	 0.255653
N	-1.9059386107	-1.4534751859	-0.801830854	-0.330253
H	 0.3911330358	 2.2014084482	 0.440342603	 0.157948
H	-0.6663327775	 1.889451208	-0.9531360704	 0.140821
H	-1.3072617416	 1.7209829553	 0.6923355173	 0.143787
H	 1.2287752472	-0.5275728449	-1.5610274815	 0.241029
H	 1.5711569899	-2.1427987785	 0.224858144	 0.126899
H	 2.7892103364	-0.939355621	 0.7415599715	 0.139056
H	 0.0337057058	-1.2392881327	 1.8847809171	 0.151999
