20
gdb 85277	2.47903	1.51572	1.13153	3.6388	79.19	-0.2277	-0.0133	0.2144	1145.488	0.170892	-403.167311	-403.158605	-403.157661	-403.20028	33.782	
C	 0.0410608489	 1.5571630005	 0.0112114645	-0.409266
C	-0.0064210951	 0.028449537	 0.0142556478	-0.014447
C	 0.6830893108	-0.628033246	-1.2065597159	-0.356673
C	 1.2268959383	-1.9660866433	-0.6968460478	 0.449175
O	 1.3726131353	-2.9782953787	-1.3349796299	-0.32859
C	 1.4456411064	-1.8112545419	 0.778724101	-0.223508
N	 2.1465602609	-0.525558071	 1.0988250996	-0.366909
C	 0.6869526819	-0.6061053896	 1.2324027253	 0.327185
C	 0.0389906999	-0.5150151407	 2.5894579276	-0.494229
H	 1.0788769365	 1.9024278525	 0.0516863685	 0.1339
H	-0.4188888281	 1.9615481148	-0.8959016821	 0.116857
H	-0.4936465029	 1.9799742322	 0.8682812533	 0.111089
H	-1.0544253835	-0.2994011959	 0.0365283951	 0.078048
H	 0.0239823365	-0.7792262509	-2.0632410753	 0.121399
H	 1.5339245566	-0.021895449	-1.5383680502	 0.140313
H	 1.6143096025	-2.6839187974	 1.3991146122	 0.100146
H	 2.5757143063	-0.6347678112	 2.0162695934	 0.234338
H	-0.0173706646	 0.5246659687	 2.9307176774	 0.132278
H	-0.9810634961	-0.9128403604	 2.5650478642	 0.130508
H	 0.6041518795	-1.0825245897	 3.3361720714	 0.118385
