20
gdb 82521	3.18637	1.38296	1.28285	1.836	78.02	-0.2094	0.0704	0.2799	1073.2824	0.171348	-403.094062	-403.085911	-403.084966	-403.126132	32.922	
C	-0.1105815602	 1.5482338324	 0.0153954934	-0.319413
N	 0.0672472766	 0.1093665582	 0.0767328664	-0.08275
C	 1.2601781665	-0.6123936078	-0.3104364984	-0.038963
C	 2.6507062558	 0.0302773542	-0.2323467016	-0.332125
C	 2.9926716379	 0.2087636048	 1.2610414863	 0.395773
O	 4.2665186761	-0.2002213514	 1.6689242812	-0.462474
C	 2.2714154847	 1.2320927995	 2.0926106323	-0.370646
C	 1.7843365211	-0.212347783	 2.058438429	-0.084757
C	 0.7167388697	-0.695379285	 1.096850476	-0.050783
H	 0.8081377882	 2.1260454737	-0.1543426989	 0.107872
H	-0.7908484593	 1.774824009	-0.8140076582	 0.118169
H	-0.5793418239	 1.9084771165	 0.936081049	 0.127949
H	 1.1164607938	-1.390406387	-1.0581124468	 0.086166
H	 3.3835015867	-0.6648763916	-0.6523517973	 0.117292
H	 2.7262951095	 0.9623992086	-0.8056593034	 0.101049
H	 4.8694719839	 0.5425446239	 1.5558581403	 0.280876
H	 2.7815274535	 1.5098463694	 3.0099718843	 0.111048
H	 1.6997947964	 2.0303860329	 1.6445739844	 0.114994
H	 1.911789503	-0.7890196427	 2.9672728042	 0.093581
H	 0.11858665	-1.5352992545	 1.4432509477	 0.087141
