18
gdb 116550	2.01685	1.04727	0.71966	3.3243	85.18	-0.2366	-0.0853	0.1513	1567.7295	0.146324	-435.281284	-435.271284	-435.27034	-435.317767	34.509	
C	 0.4623493864	 1.4577976512	 0.0443872758	-0.359334
C	 0.3064868587	-0.0638378442	-0.0549494483	-0.153679
N	-1.0954540912	-0.4242158167	 0.0045514759	-0.272797
C	-1.7229390422	-1.0362373841	-0.923567416	 0.275821
N	-3.0630445985	-1.3470398903	-0.8096362147	-0.308038
C	-3.8677375896	-1.0568689465	 0.2709155669	 0.098741
N	-5.0956441905	-1.392058384	 0.2647651763	-0.462899
C	-1.1715163691	-1.5109361892	-2.2490059529	 0.110521
O	-1.8571645692	-2.0879402467	-3.0587841362	-0.255975
H	 1.5202209739	 1.7307756806	 0.1053084892	 0.116367
H	 0.0288765283	 1.951074548	-0.8311695202	 0.119518
H	-0.0502413221	 1.8350099176	 0.9332697174	 0.132109
H	 0.8461461603	-0.4293858664	-0.9387301759	 0.092959
H	 0.7912469566	-0.5242570991	 0.8159533326	 0.118661
H	-3.4783817838	-1.8316415794	-1.5951299263	 0.274761
H	-3.3270819016	-0.5373137163	 1.0644327962	 0.129206
H	-5.5398999692	-1.1044883615	 1.134598563	 0.228652
H	-0.1084045072	-1.299397493	-2.4459695127	 0.115406
