18
gdb 107601	2.70562	1.59133	1.15299	3.8144	73.14	-0.2537	0.0163	0.27	1071.1952	0.149618	-439.093327	-439.08548	-439.084536	-439.125643	30.438	
O	 0.0228646009	 1.3814932607	 0.3572103428	-0.419991
C	 0.0257838906	 0.0374145951	-0.0658558132	-0.155955
C	-1.3664386923	-0.5573819631	-0.0484618768	 0.235729
C	-1.9710238837	-1.1743779398	 1.1982868116	-0.315531
C	-1.7341958911	-2.0264654001	-0.0137132644	-0.132512
C	-2.914167223	-2.1786154111	-0.9553659863	-0.109777
O	-3.3301435051	-0.839344299	-1.3003865606	-0.245769
C	-2.375586238	 0.0666803681	-0.9466214506	 0.395007
N	-2.3417242331	 1.2741949351	-1.3299034421	-0.576218
H	-0.6333955304	 1.8282550564	-0.2022371332	 0.299846
H	 0.4479581292	-0.0679277917	-1.0790704434	 0.088239
H	 0.6754011633	-0.519133499	 0.6191860089	 0.098348
H	-1.2929609202	-1.2967574214	 2.0355607714	 0.129464
H	-2.9899039181	-0.918875322	 1.472591927	 0.12839
H	-0.9787466461	-2.8027475533	 0.0008283733	 0.106426
H	-2.6326358545	-2.7043077566	-1.8750628235	 0.121149
H	-3.7759349361	-2.6845288874	-0.5095138918	 0.125093
H	-3.0991624422	 1.4869485491	-1.9785824592	 0.228062
