18
gdb 93978	4.47448	1.0021	0.84696	4.142	75.82	-0.2547	-0.0607	0.194	1346.0721	0.14772	-439.112812	-439.104217	-439.103273	-439.146297	31.352	
C	 0.0468470803	 1.5544011343	-0.1554385204	-0.408313
C	 0.0505926036	 0.0262007552	-0.0999954057	-0.023746
C	 1.0426877682	-0.568423431	-1.0955315423	-0.076852
O	 1.081081018	-2.0014867986	-1.0171260727	-0.244846
C	 0.9617225473	-2.5236415877	 0.2182203392	 0.294225
C	 1.1851985843	-4.009553346	 0.264621061	 0.123969
O	 1.4429090615	-4.6921424849	-0.6907008057	-0.246136
N	 0.6866350784	-1.9432539128	 1.3163992465	-0.301265
C	 0.4052740816	-0.5132377002	 1.2926712639	-0.162761
H	 1.0383348231	 1.9598425637	 0.0770477318	 0.121834
H	-0.2403674968	 1.9184585955	-1.1472879576	 0.121966
H	-0.6602426585	 1.9696200845	 0.5693439262	 0.126243
H	-0.9472417928	-0.3463087608	-0.3661568335	 0.095658
H	 0.777535636	-0.3383078608	-2.1301038707	 0.125201
H	 2.0545604766	-0.1839888261	-0.9060460811	 0.113644
H	 1.0785407299	-4.4051729506	 1.2937967344	 0.104304
H	 1.2829774698	 0.0150285164	 1.6933011258	 0.117511
H	-0.4083830406	-0.3193834102	 2.001007451	 0.119363
