18
gdb 46786	2.90221	1.5986	1.24266	3.4856	71.59	-0.2374	0.0298	0.2673	1022.2968	0.150678	-439.109042	-439.101669	-439.100725	-439.141105	28.845	
O	-0.0613546077	 0.172800538	-0.8596046086	-0.374209
C	-0.0960390531	 1.2288156373	-0.2518369958	 0.377596
C	-1.4088473399	 1.6596028563	 0.4105270696	-0.30787
C	-1.4055856797	 2.8255219176	 1.3811246093	 0.097029
C	-0.2021314244	 2.8987307019	 2.3447033225	-0.292952
C	 0.338025802	 3.9042634299	 1.3096606342	 0.110496
C	 1.3224756189	 3.3481199708	 0.297198873	-0.161779
N	 1.0478386337	 1.9849345296	-0.1445486127	-0.314791
O	-0.9737466241	 4.0434629532	 0.7169288195	-0.296976
H	-2.1055696853	 1.8845384316	-0.4056559375	 0.143484
H	-1.7952214545	 0.759071545	 0.9002532619	 0.13402
H	-2.3979974334	 2.9505728049	 1.8260778481	 0.085274
H	-0.44892889	 3.3684682312	 3.2973585081	 0.115462
H	 0.3699238367	 1.9855255972	 2.5129437298	 0.118913
H	 0.7131854042	 4.8622454576	 1.6855357948	 0.085504
H	 1.3406762088	 4.0389631516	-0.558771231	 0.12257
H	 2.325490958	 3.3555066934	 0.7428356879	 0.112818
H	 1.7961522198	 1.5466167029	-0.664675153	 0.245411
