11
gdb 130750	3.52993	1.67181	1.1427	3.2731	58.48	-0.3014	-0.0955	0.2058	932.2217	0.066746	-488.672198	-488.665902	-488.664958	-488.703071	23.192	
O	-0.0688173192	-0.046250719	 0.005064227	-0.319487
C	 0.0199296439	 1.1413521047	 0.0089557752	 0.42457
O	-1.07245043	 1.9856873972	 0.0283526783	-0.248074
C	-0.7199076821	 3.3915437389	 0.0302026711	-0.184921
C	 0.767906398	 3.3371614054	 0.0094242277	 0.232224
C	 1.1874858172	 2.0554899888	-0.0025009049	 0.193417
O	 2.497169362	 1.988433598	-0.0203908368	-0.233332
N	 2.9144474464	 3.4263681522	-0.0200009736	-0.002153
N	 1.8791919266	 4.1312326342	-0.0020121999	-0.18771
H	-1.1658144164	 3.860575242	-0.8521313058	 0.162725
H	-1.1412256063	 3.8520476978	 0.9289596718	 0.162741
