17
gdb 1135	4.92901	1.86219	1.77689	2.9233	64.37	-0.2386	-0.0171	0.2215	792.7756	0.146177	-309.738198	-309.730638	-309.729694	-309.769847	28.491	
C	-0.3627647187	 1.5986791363	-0.0408655467	-0.447484
C	 0.0305686673	 0.1250288267	 0.0142982463	 0.338583
C	-1.1766800219	-0.7857035321	-0.2169625569	-0.437182
C	 1.2517484481	-0.2699908131	-0.8910591205	-0.385156
C	 1.9202676445	-0.8792899334	 0.3485868558	 0.412409
O	 2.873227959	-1.5841100205	 0.5149046007	-0.291668
C	 0.8537279468	-0.2947924063	 1.2843972174	-0.385156
H	 0.5028248707	 2.2492496491	 0.1249206677	 0.111505
H	-0.7922214417	 1.8561471983	-1.0156852872	 0.117369
H	-1.1105542718	 1.8363110358	 0.7242084698	 0.117369
H	-1.6278483056	-0.5982100323	-1.1976505525	 0.116875
H	-0.8940916127	-1.8435558767	-0.1773207613	 0.116916
H	-1.9465678699	-0.6180706784	 0.5443701531	 0.116875
H	 1.0652389549	-0.9569875336	-1.7215205237	 0.1244
H	 1.8137461745	 0.5897236736	-1.272819867	 0.124972
H	 1.2407024732	 0.5540159866	 1.859259583	 0.124972
H	 0.3880699117	-0.99918347	 1.9796757396	 0.1244
