23
gdb 63796	2.82976	1.59889	1.43392	0.2157	87.31	-0.2485	0.0833	0.3318	1056.4826	0.207536	-351.146423	-351.138398	-351.137453	-351.178091	33.831	
C	-0.1081217981	 1.5758390264	 0.0063575823	-0.443807
C	 0.0043326146	 0.0469762608	-0.0038841703	 0.327282
C	-1.4043057256	-0.5705998686	-0.0442494041	-0.427063
C	 0.8577601956	-0.4939602728	-1.197403773	-0.278125
C	 1.6072749217	-1.6928375152	-0.6174617379	-0.03062
C	 2.5885214263	-1.4594988718	 0.5222355367	-0.066312
C	 2.2876314281	-0.1356354207	 1.2219246877	-0.257443
C	 0.7686836945	-0.524106078	 1.2145918423	-0.048297
C	 1.1842427144	-1.9646817627	 0.8008749608	-0.087155
H	 0.8730086393	 2.0584242647	 0.0433159364	 0.111486
H	-0.61861282	 1.9346442753	-0.8943922523	 0.109609
H	-0.6855226398	 1.923670682	 0.870608989	 0.106463
H	-1.9565996287	-0.2280943035	-0.926457593	 0.106309
H	-1.3582902589	-1.6636992045	-0.0824232823	 0.11612
H	-1.9843776698	-0.2891695441	 0.8421562468	 0.105257
H	 0.2204527889	-0.7898591356	-2.0372156951	 0.090557
H	 1.5450866176	 0.2715671234	-1.5756276992	 0.091263
H	 1.8403890278	-2.5374278224	-1.256780477	 0.076916
H	 3.5239665686	-2.005538162	 0.5674955686	 0.076462
H	 2.6852350004	-0.1247524205	 2.2401732384	 0.09773
H	 2.5848201313	 0.7929092667	 0.7223657547	 0.087297
H	 0.2452633399	-0.3893802813	 2.1627472136	 0.057527
H	 0.8383745619	-2.9095660355	 1.1978873271	 0.078544
