19
gdb 97560	2.74863	0.62424	0.53345	2.1109	90.42	-0.2437	0.0202	0.2639	2129.3428	0.155552	-385.834047	-385.822552	-385.821608	-385.874227	38.302	
C	 0.3377512719	 1.1979581901	 0.7252358613	-0.364989
C	-0.3900967061	 0.22858292	-0.2239262339	-0.315763
C	 0.4108178079	-0.1471206692	-1.3839856371	 0.058608
C	 1.0907815603	-0.4385977841	-2.3344811674	 0.090808
C	 1.9175307981	-0.8343751292	-3.4843021318	-0.245599
O	 2.4640905295	-2.1446973541	-3.327745135	-0.392377
C	 1.1732550564	-0.6931242251	-4.7445298867	 0.108556
C	 0.5668907921	-0.6079043495	-5.7809111405	 0.042526
C	-0.1633249482	-0.4977820178	-7.0348508299	-0.498625
H	 1.2608061032	 0.7508377088	 1.1036382873	 0.1309
H	 0.5994224102	 2.1248246573	 0.2077908029	 0.129517
H	-0.3008349928	 1.4472354583	 1.5778455537	 0.11496
H	-0.6749103904	-0.6781717886	 0.3251617791	 0.131139
H	-1.3303288032	 0.6815880685	-0.5637178772	 0.131299
H	 2.8008273606	-0.1833419659	-3.5224673921	 0.140627
H	 1.7189737836	-2.7552329378	-3.2862074481	 0.28468
H	-0.0598296398	-1.4098042199	-7.6329455499	 0.151749
H	-1.2322360076	-0.3326149277	-6.8612098548	 0.150314
H	 0.2098101346	 0.3370819558	-7.6379909398	 0.151671
