17
gdb 41105	3.10879	1.93471	1.78313	0.9071	70.46	-0.2335	0.045	0.2785	838.7673	0.137271	-421.714076	-421.707819	-421.706875	-421.744259	26.448	
C	 0.023781049	 1.5362817635	 0.1111844397	-0.200219
O	 1.4673999654	 1.5255753506	-0.1456514186	-0.336771
C	 1.4269001885	 0.0920996726	-0.2697158251	 0.387805
C	 1.2692580701	-0.5722646048	-1.6622111616	-0.310819
C	-0.1490050801	-1.0118497042	-1.1775853519	 0.039243
O	-0.0357734076	-2.084307372	-0.2097459419	-0.301074
C	 0.2212558885	-1.2031242039	 0.9114813316	 0.039241
C	 1.7327591046	-0.8117022263	 0.9529304624	-0.310819
C	-0.0811162252	 0.0117256781	-0.0097978981	 0.141933
H	-0.207551381	 1.9489580961	 1.099806338	 0.118739
H	-0.517716147	 2.109165152	-0.6502456685	 0.118739
H	 1.2113907988	 0.1930894247	-2.4416912135	 0.116423
H	 1.9601887763	-1.36347835	-1.9624770814	 0.109323
H	-0.9557643386	-1.1993167531	-1.8899043482	 0.081255
H	-0.2997728511	-1.5381973814	 1.8112909497	 0.081256
H	 2.4596135178	-1.6214682764	 0.8553313282	 0.109323
H	 1.9680028818	-0.1977680154	 1.8272589791	 0.116423
