19
gdb 109831	2.05375	1.22148	0.91536	3.9043	72.98	-0.2648	-0.0062	0.2585	1327.2768	0.15717	-460.161115	-460.151179	-460.150235	-460.196958	34.833	
C	 0.2181509124	 1.475955595	 0.3190191183	-0.423014
C	 0.1244581362	-0.0043269613	 0.0121427495	-0.061671
C	 0.5441954417	-0.6156682046	-1.3177591549	-0.091107
C	 1.1565726875	 0.1942365865	-2.4470761198	-0.079497
O	 2.1748567328	-0.5257982893	-3.1205426379	-0.422964
C	 1.3516509373	-0.8804031724	-0.0808801806	 0.067976
O	 2.6385563982	-0.2779022355	-0.0730792019	-0.198029
C	 3.2133459884	-0.0853828869	 1.1364179344	 0.177649
O	 4.3039067017	 0.3819252028	 1.2583584268	-0.268101
H	 1.1459528593	 1.92061199	-0.045958338	 0.141714
H	-0.6166297808	 2.0216099941	-0.1322633733	 0.129379
H	 0.1759431949	 1.6439827352	 1.4006290268	 0.123425
H	-0.7270610034	-0.4916883317	 0.480876812	 0.097193
H	-0.0454787794	-1.4597836637	-1.6634855709	 0.101907
H	 0.3881952528	 0.4081939615	-3.1969290118	 0.113436
H	 1.5295753928	 1.158391211	-2.0816657309	 0.099404
H	 2.9028097831	-0.6205251226	-2.4957694456	 0.293468
H	 1.3483401361	-1.8723750798	 0.3612098915	 0.112281
H	 2.5654715283	-0.4117437085	 1.9713953163	 0.086552
