19
gdb 120432	4.99685	0.78821	0.72551	3.7051	79.78	-0.2367	-0.0432	0.1935	1563.9716	0.158729	-423.051804	-423.042773	-423.041828	-423.086639	32.397	
C	 0.0444912035	 1.3909711528	 0.0107717719	-0.229847
O	 0.0146882406	-0.016749865	-0.0314911778	-0.235907
C	-1.2891302242	-0.5451915369	 0.051641046	-0.065235
C	-1.1969410996	-2.0715050059	-0.0162367744	-0.065314
C	-2.5689723497	-2.7728403356	 0.0350401402	-0.366374
C	-2.63073758	-3.6587241275	-1.2231902063	 0.381523
O	-3.5379798013	-4.3983783873	-1.5237890834	-0.329531
C	-1.376367636	-3.41968023	-1.9746148336	-0.188566
C	-0.5954741878	-2.5551857818	-1.31760485	-0.038588
H	 1.0909108371	 1.6980809989	-0.0539724641	 0.130417
H	-0.5105612859	 1.8364703607	-0.8295898466	 0.108067
H	-0.3832569065	 1.7789647806	 0.9484262805	 0.107266
H	-1.7733428541	-0.2401625876	 0.9949214952	 0.092841
H	-1.9161545892	-0.1691458273	-0.7757267545	 0.090445
H	-0.5535953066	-2.3862235263	 0.8155093987	 0.101945
H	-2.7091246178	-3.388397826	 0.9273681215	 0.133799
H	-3.4035008712	-2.0633355318	 0.007154377	 0.129926
H	-1.1663085058	-3.9043358915	-2.9195759019	 0.114751
H	 0.3750262746	-2.1995295927	-1.6433622683	 0.128381
