18
gdb 51728	3.13812	1.05988	0.87942	3.024	75.51	-0.2384	0.0177	0.2561	1333.8801	0.146195	-439.038251	-439.029461	-439.028516	-439.07331	31.708	
N	 0.0304498154	 1.2133732709	-0.1670146956	-0.439333
C	 0.0256801307	-0.0415253579	-0.0510438653	 0.123635
O	-1.1464552335	-0.7113136094	-0.0278275141	-0.183492
C	-1.1159593411	-2.1098088097	 0.1631668545	-0.02526
C	-1.8862323316	-2.6483095967	 1.3874991878	-0.103691
O	-2.6862323884	-3.5061079443	 0.5417506432	-0.30533
C	-2.147935111	-2.8966791522	-0.6338981439	 0.439596
C	-2.9962489515	-2.4141079894	-1.7606352827	-0.321328
C	-2.0555108428	-3.5985640204	-1.9440859596	-0.343718
H	 0.9877520193	 1.558489873	-0.1787599047	 0.232065
H	 0.9037412687	-0.6973418386	 0.0331927207	 0.088686
H	-0.0919084455	-2.4882201063	 0.0726367678	 0.095687
H	-1.315020754	-3.2177073175	 2.1273134561	 0.110513
H	-2.4847315928	-1.8750449793	 1.8824129058	 0.122544
H	-4.057936246	-2.6260558531	-1.697748714	 0.129537
H	-2.7405825562	-1.4636790184	-2.2161665668	 0.134055
H	-1.1591596755	-3.4689895822	-2.5427871275	 0.116329
H	-2.5010798442	-4.5858830385	-2.0011854818	 0.129504
