21
gdb 91619	2.19905	1.89018	1.39157	1.3828	82.48	-0.2261	0.0213	0.2475	1039.2859	0.184929	-387.10794	-387.100027	-387.099083	-387.139838	32.474	
C	 0.0185624269	 1.497471734	 0.0599862785	-0.515006
C	-0.0272214213	 0.0059815121	-0.0143172073	 0.326743
C	-0.0179600819	-0.797830027	-1.0876170449	-0.198288
C	 0.0297160788	-2.2404525235	-0.6033841465	-0.047263
C	 1.4546256066	-2.4708284525	-0.0082840731	-0.250708
C	 1.4718045927	-1.5156468219	 1.2286007259	 0.159941
O	 2.5133844537	-0.556531132	 1.220116879	-0.445833
C	 0.0244833122	-0.9042235207	 1.2106419369	-0.126713
C	-0.7894825609	-2.1144740771	 0.7061369661	-0.218787
H	 0.8991971916	 1.8343888047	 0.6207006927	 0.132745
H	 0.0447692767	 1.9524017266	-0.9346407546	 0.120756
H	-0.8550900758	 1.8942356915	 0.5930019752	 0.127598
H	 0.0421235545	-0.4927136475	-2.1261167956	 0.086337
H	-0.2895124153	-2.9971040722	-1.3209836269	 0.057528
H	 1.5932119838	-3.5139192931	 0.2924243857	 0.09767
H	 2.2555491144	-2.2205876952	-0.7092556611	 0.093897
H	 1.6187412663	-2.0778229141	 2.1551615695	 0.084421
H	 2.4867165084	-0.1184230614	 0.3621635816	 0.275708
H	-0.2680968969	-0.4481016243	 2.1574151873	 0.05601
H	-1.8415844752	-1.8749427468	 0.5324122739	 0.095538
H	-0.7157798494	-2.9963297098	 1.3527583677	 0.087708
