19
gdb 41163	3.36262	1.77464	1.47179	1.6791	79.03	-0.2339	0.0099	0.2438	942.4759	0.161665	-385.855493	-385.848864	-385.84792	-385.885943	28.517	
C	-0.0707864914	 1.4963539097	-0.1285979541	-0.252407
C	 1.4699639245	 1.5914554503	 0.1531003628	-0.3164
C	 1.4094506352	 0.1433188482	 0.6317766438	 0.45601
C	 2.3959918087	-1.0039441794	 0.5790847895	-0.358225
C	 1.586277112	-2.2544543849	 0.9077521268	-0.05721
C	 0.3014144329	-2.142339639	 1.2577828553	-0.061407
C	-0.2713987867	-0.7330539488	 1.3416768555	 0.026626
O	 0.7565485678	 0.1008391182	 1.95101354	-0.341823
C	 0.0067104697	-0.06167229	-0.0124080528	-0.06479
H	-0.6850044455	 1.9677676858	 0.6399274402	 0.114825
H	-0.3872902398	 1.8603090438	-1.1078358026	 0.09885
H	 2.049031496	 1.6984624179	-0.7698670446	 0.099779
H	 1.813095877	 2.3263910634	 0.8852762774	 0.108071
H	 2.8524443551	-1.0942303892	-0.4154121147	 0.105115
H	 3.216233967	-0.8652367423	 1.2961465317	 0.116759
H	 2.0779657523	-3.2201287474	 0.8343132936	 0.09328
H	-0.3256549637	-3.0039326406	 1.4616863508	 0.089684
H	-1.236137827	-0.6552968737	 1.8514178383	 0.069855
H	-0.155688834	-0.6333611221	-0.925738527	 0.073408
