18
gdb 13519	3.17141	1.63982	1.40545	3.2615	67.88	-0.2469	-0.0225	0.2244	969.5336	0.151817	-384.944754	-384.935994	-384.93505	-384.978951	30.832	
C	-0.8462074525	 1.2375528386	 0.2570729132	-0.413188
C	-0.1646118864	-0.1077314678	 0.1021005929	 0.157749
O	 0.8532305142	-0.0875322999	-0.9173716466	-0.285356
C	 1.8710125841	-0.5285961752	 0.004568903	-0.083363
C	 0.8793909819	-0.5844852692	 1.179345601	-0.179201
C	 1.132809928	 0.3693178795	 2.3322865715	 0.381963
C	 0.3763996132	 0.0858431241	 3.6162064914	-0.482941
O	 1.8818365622	 1.3146974633	 2.2243100136	-0.299395
H	-0.1257311116	 2.0179283256	 0.5140069572	 0.146173
H	-1.3249739104	 1.5077689886	-0.6892309395	 0.131058
H	-1.622495996	 1.1984586908	 1.0295748836	 0.111396
H	-0.9102782963	-0.8865628679	-0.1095969293	 0.079644
H	 2.3024813516	-1.4922138776	-0.2899151635	 0.09861
H	 2.6623776957	 0.2170355975	 0.1288870503	 0.126718
H	 0.6594911669	-1.5856587393	 1.5556621167	 0.083079
H	 0.7323924596	-0.8544864108	 4.0541475216	 0.143451
H	 0.5263730841	 0.8980030905	 4.3282451018	 0.144503
H	-0.6928292982	-0.0461859308	 3.4157624612	 0.139101
