19
gdb 68395	2.56523	1.95387	1.44165	1.3973	73.67	-0.233	0.0735	0.3066	950.1604	0.160728	-422.991556	-422.984439	-422.983495	-423.022416	30.437	
O	-0.1573699091	 1.3809407614	 0.0532031824	-0.488543
C	 0.0321117901	-0.0065749717	 0.0331240773	 0.388932
C	 0.8824160593	-0.7076219446	-1.0792564156	-0.299908
C	 1.1175568187	-1.8099229334	-0.0056848345	 0.123483
C	 0.9705765959	-0.6963567311	 1.0656118327	-0.316727
O	 0.0510139879	-2.7512537996	 0.0641739754	-0.272831
C	-1.2321399192	-2.1849765834	-0.0446512172	 0.103648
C	-1.8916226522	-1.4975744408	 1.1297289054	-0.338453
C	-1.3289022022	-0.6858871503	-0.0177130292	-0.074052
H	 0.7091844022	 1.8009826743	 0.0688316533	 0.274821
H	 0.389431785	-0.9857629415	-2.0130429106	 0.102937
H	 1.8143777641	-0.1726135816	-1.2863683101	 0.08973
H	 2.0355890233	-2.3956715997	-0.0387364946	 0.081668
H	 1.9033312689	-0.1313045135	 1.1655446458	 0.090397
H	 0.6026635893	-0.9637525771	 2.0563754793	 0.105837
H	-1.8579813461	-2.7611518961	-0.7188800336	 0.097837
H	-2.9717764354	-1.5716702774	 1.200129533	 0.111486
H	-1.3828981471	-1.4995592716	 2.0852683157	 0.122
H	-2.0219943435	-0.1928547622	-0.6923647649	 0.097739
