15
gdb 43028	2.80254	1.95441	1.41941	4.236	65.45	-0.2335	-0.0353	0.1981	895.9616	0.11305	-457.687406	-457.680905	-457.679961	-457.718215	25.992	
O	-0.0658796675	 0.0065956998	-0.1301170848	-0.300556
C	-0.0612897012	 1.1962920185	-0.0271363859	 0.394421
C	-1.2690744127	 2.1902280687	 0.0470662703	-0.045012
C	-0.9041291448	 3.3568027517	 1.0313384345	-0.347802
C	 0.18177546	 3.4793649127	-0.0452454877	 0.362348
C	 1.3808070182	 4.1369497596	-0.7222739551	-0.197626
O	 1.9403933859	 2.8061261713	-0.9556299578	-0.295691
C	 1.0767747797	 2.2502664512	 0.0724409011	 0.013553
O	-0.7910874425	 3.0274099306	-1.0463477832	-0.301365
H	-2.2728940592	 1.7872044722	-0.0695546893	 0.114274
H	-1.6750681399	 4.128878547	 1.0023519467	 0.131042
H	-0.5916023407	 3.1303587864	 2.053230127	 0.119019
H	 1.1719292575	 4.6709218578	-1.6524726925	 0.136276
H	 2.0216784635	 4.7331649629	-0.0624418269	 0.117016
H	 1.6389017636	 2.0996925795	 1.0039297636	 0.100103
