16
gdb 74191	2.54799	1.68893	1.10363	6.7767	73.96	-0.2245	-0.017	0.2075	1061.3512	0.125959	-437.922011	-437.914509	-437.913565	-437.95386	29.653	
N	 0.0889758531	 1.3564912002	 0.1806207336	-0.573483
C	 0.0062891616	-0.0023521358	 0.018887347	 0.389061
C	-1.160736741	-0.6889264971	-0.0321058224	-0.36036
C	-1.2463907787	-2.1399690625	-0.0079018986	 0.419138
O	-2.2754769589	-2.7671591322	-0.027011949	-0.356619
O	-0.0648275611	-2.8562262306	 0.0736710955	-0.247559
C	 1.1789965634	-2.2346396598	-0.0381412234	 0.132274
C	 1.6039012332	-1.5465772725	-1.2950133245	-0.327071
C	 1.2906510644	-0.7281292045	-0.0399680565	-0.181531
H	 0.913491904	 1.8195193469	-0.1675028629	 0.259904
H	-0.7620320575	 1.8893601075	 0.0863421438	 0.261823
H	-2.1176681347	-0.1807569265	-0.0340903756	 0.097139
H	 1.9229221777	-2.7992753345	 0.5122771765	 0.118347
H	 2.6418960947	-1.6307245715	-1.5968576218	 0.12529
H	 0.8846122591	-1.4853999292	-2.1036749174	 0.1396
H	 2.1189825007	-0.2706937776	 0.491956426	 0.104046
