17
gdb 68627	2.4707	1.65449	1.35826	1.6992	73.9	-0.2416	0.0404	0.282	1000.6596	0.135225	-421.762876	-421.754948	-421.754004	-421.79492	31.451	
O	-0.0789634739	 1.3806609427	 0.0574537304	-0.475115
C	 0.0108672207	 0.0009454212	-0.0142639066	 0.343975
C	 0.3579552165	-0.8102295851	-1.3100177974	-0.309389
C	-0.304643858	-1.9277021485	-0.4757953161	 0.09211
O	 0.600569987	-2.1145894438	 0.6209183294	-0.26722
C	 0.8700243204	-0.7558656237	 1.0167109576	-0.13993
C	-1.310187387	-0.8444523634	 0.0447347313	-0.246103
C	-2.0118255399	-1.0360570021	 1.2926436555	 0.324496
C	-2.5947656931	-1.193971977	 2.3325294546	-0.435274
H	 0.8104389655	 1.7500444142	 0.0920454363	 0.28713
H	-0.2289022648	-0.4897787715	-2.1717320771	 0.11009
H	 1.4097559627	-0.9497104887	-1.5676274079	 0.100685
H	-0.6241461998	-2.8883929276	-0.8706927535	 0.094995
H	 1.941075967	-0.5334297898	 0.9228501446	 0.091991
H	 0.5457292389	-0.5833726459	 2.0478884871	 0.121747
H	-1.9871391034	-0.5261702577	-0.7519226949	 0.112306
H	-3.1106321989	-1.3372257931	 3.2495108569	 0.193505
