18
gdb 122693	3.73404	0.83973	0.73357	7.0234	77.22	-0.2444	-0.0278	0.2165	1514.0993	0.147343	-435.272557	-435.26269	-435.261746	-435.307642	35.363	
N	 0.7085240098	 1.0389851484	 1.0937110083	-0.567618
C	 0.4141248419	-0.0153958904	 0.2613006344	 0.25511
N	 1.1843331501	-0.6544852019	-0.5346963835	-0.273255
C	 2.5836705909	-0.2564357017	-0.5612136202	-0.184506
C	 3.4030975574	-0.8578581044	 0.6145951807	-0.185667
C	 4.3908788986	 0.1361307907	 1.2080229421	-0.089353
O	 3.6303789812	 1.1791031414	 1.828229287	-0.403496
C	-0.9877327819	-0.4042927189	 0.2827983482	 0.268095
N	-2.106543819	-0.690398609	 0.3304426074	-0.325366
H	 1.6721568325	 1.1946253966	 1.373051921	 0.289405
H	 0.0052680312	 1.3145812931	 1.7591892788	 0.26577
H	 3.0054495613	-0.5993671738	-1.5101149331	 0.109263
H	 2.6839868649	 0.8396427329	-0.5435136757	 0.1039
H	 2.7243238674	-1.1801496428	 1.4111475168	 0.123575
H	 3.9429052037	-1.7510324882	 0.286537478	 0.113616
H	 5.0323072716	-0.3565725869	 1.9521480452	 0.10199
H	 5.0400902127	 0.5492961527	 0.4223886982	 0.101592
H	 4.2062769557	 1.9261208522	 2.0122259964	 0.296945
