16
gdb 82010	2.59406	1.4471	1.34005	4.8726	68.75	-0.2449	0.0189	0.2637	1014.7184	0.125135	-434.019774	-434.011539	-434.010594	-434.052331	31.476	
N	-0.1112140203	 1.481546935	 0.1830481661	-0.555624
C	-0.0073841334	 0.0488623503	 0.0433527823	 0.101632
C	 0.8760366863	-0.5132647823	 1.0626581893	 0.266056
N	 1.5933310377	-0.9878184045	 1.8351395628	-0.336095
C	-1.3518406604	-0.6941918514	-0.0291135278	-0.064501
N	-2.0016519663	-0.1941913351	-1.2627493796	-0.377459
C	-1.0272546486	-1.3134978524	-1.340527687	-0.079152
C	 0.3290563534	-0.6100172839	-1.4140203254	 0.08849
O	 0.525882631	 0.2829575763	-2.4589969381	-0.425059
H	 0.7638482736	 1.9260616693	-0.0782244276	 0.246236
H	-0.8263842615	 1.8101832276	-0.458379275	 0.244326
H	-1.9313559412	-1.07255999	 0.8024845551	 0.122515
H	-2.9423122029	-0.5806438521	-1.3023456024	 0.247941
H	-1.3132071868	-2.2761426685	-1.7440593263	 0.110805
H	 1.1877743303	-1.2800907286	-1.362734957	 0.115973
H	-0.3309324909	 0.7029564503	-2.6172787193	 0.293917
