21
gdb 26111	2.40265	1.31395	1.04896	0.6606	86.	-0.2067	0.0283	0.2349	1274.4258	0.181644	-387.138252	-387.128535	-387.127591	-387.173183	35.743	
C	-0.0738131907	 1.5798865868	 0.0590092006	-0.38116
C	-0.0069532132	 0.040126846	 0.0610990065	-0.085933
C	 0.7301496443	-0.4792574073	 1.3109997197	-0.381163
C	-1.3686444516	-0.5678401662	-0.0644313445	 0.300746
C	-1.97131755	-1.3674182794	-0.9927650301	 0.134978
C	-1.3904089698	-1.9121088643	-2.261909699	-0.508967
C	-3.3085934152	-1.594473072	-0.507393955	-0.257323
C	-3.4127837906	-0.9229137835	 0.6642798864	-0.023431
O	-2.2449553771	-0.291500736	 0.9529703775	-0.195885
H	 0.9310475606	 2.0099038071	 0.1228281733	 0.107813
H	-0.550304577	 1.9533638472	-0.852174344	 0.115551
H	-0.653390889	 1.9405967796	 0.9141435304	 0.127798
H	 0.5577680027	-0.2771154472	-0.8232994836	 0.082946
H	 1.7344340226	-0.0477648846	 1.3739224854	 0.107813
H	 0.1849774908	-0.2066694191	 2.2197119919	 0.1278
H	 0.8249209476	-1.568907362	 1.2894179283	 0.115551
H	-1.402284105	-3.0082876394	-2.2699838457	 0.128012
H	-1.9596740941	-1.5801997467	-3.1380318139	 0.128011
H	-0.3543238074	-1.5933967046	-2.4028658612	 0.124411
H	-4.0785309347	-2.1836801671	-0.9822429773	 0.104581
H	-4.2052657331	-0.7952576273	 1.3833256143	 0.127851
