20
gdb 26346	2.46928	1.36876	0.98035	1.7459	81.53	-0.1862	0.0517	0.2379	1254.4335	0.170543	-403.186725	-403.177069	-403.176124	-403.221009	36.294	
C	 0.1160098297	 1.3013778225	-0.4311326994	-0.37853
C	 0.0246477126	-0.1384922226	 0.1168180883	-0.106759
C	 0.6762075157	-0.2354187209	 1.5022135397	-0.392101
C	-1.3975978862	-0.63755195	 0.1088441504	 0.172375
C	-2.2468329067	-0.8419246406	 1.1788642935	-0.17084
N	-3.4564268767	-1.2614955341	 0.6998665365	-0.250683
C	-3.4166295353	-1.3497292731	-0.6755474324	-0.165763
C	-2.1548909836	-0.965115112	-1.05900511	 0.217965
O	-1.7335274408	-0.8969918768	-2.3604821065	-0.452517
H	 1.1582335489	 1.6328340895	-0.4988477445	 0.104105
H	-0.3337965208	 1.3789193218	-1.4257118462	 0.116299
H	-0.4217904075	 1.9925740391	 0.2263493953	 0.11817
H	 0.6144868274	-0.7812217966	-0.558594584	 0.061807
H	 0.642884442	-1.2586190322	 1.8878720091	 0.115973
H	 1.7227589448	 0.0824230601	 1.4613610766	 0.107718
H	 0.1635861416	 0.414379877	 2.2206736879	 0.115314
H	-2.0803316588	-0.7250468096	 2.2371218679	 0.115075
H	-4.2521707286	-1.4932157622	 1.265516109	 0.259364
H	-4.2652432858	-1.6672411523	-1.256728883	 0.118422
H	-0.773403462	-0.8422636968	-2.364481538	 0.294604
