19
gdb 35054	2.39691	1.47486	1.44341	1.4883	80.67	-0.2207	0.0432	0.2639	1050.3149	0.160413	-385.844131	-385.836096	-385.835152	-385.876527	31.777	
C	-0.3677841064	-1.2044337556	-0.162106148	-0.462623
C	-0.2032897591	-0.0132095205	-0.0944650213	 0.35602
C	-0.0468950425	 1.4050226153	-0.0185214746	-0.282237
C	 0.4830435449	 2.0871191551	 1.2607418851	-0.099048
C	 0.9570187712	 1.252284476	 2.4453684962	-0.236787
C	 2.4744448979	 1.0232854253	 2.3679332351	-0.208402
C	 2.8573810661	 0.4909405882	 0.9918288341	-0.071355
O	 2.5261684303	 1.398271684	-0.0642288244	-0.257178
C	 1.3244749349	 2.0850143939	 0.019951745	 0.113091
H	-0.5007917459	-2.2547696094	-0.240333582	 0.194546
H	-0.8090517171	 1.9651510534	-0.5538807461	 0.110681
H	-0.0124130934	 3.0204607704	 1.5073567644	 0.095251
H	 0.6962808188	 1.7610295863	 3.3775523617	 0.10085
H	 0.4412056456	 0.2853540887	 2.4565296656	 0.119317
H	 3.0082755146	 1.9634110644	 2.5526568734	 0.104227
H	 2.7969921001	 0.3068916122	 3.131047491	 0.098957
H	 3.9384865879	 0.3484308802	 0.9077189456	 0.105872
H	 2.3699970433	-0.4766860105	 0.8158157103	 0.113179
H	 1.3963738687	 3.0023658926	-0.5563684111	 0.10564
