22
gdb 6987	2.34225	2.16912	1.54952	1.6579	76.87	-0.2388	0.0707	0.3095	967.3841	0.200044	-350.221267	-350.212309	-350.211365	-350.254066	34.134	
C	-0.6262116122	 1.2947657597	-0.0066060905	-0.427539
C	 0.116900549	-0.0386157959	-0.0583301041	 0.000657
C	 1.2777351085	-0.0716121627	-1.0715350346	-0.085739
O	 2.2590582428	-0.9743373972	-0.5612316237	-0.26778
C	 1.7710187591	-1.5556914648	 0.6409255607	-0.088548
C	 0.7972588196	-0.5323359607	 1.2523854601	 0.26757
C	 1.5903452921	 0.5800913218	 1.9601697859	-0.427717
C	-0.1934777419	-1.1798056765	 2.2233467952	-0.449015
H	 0.047323812	 2.1265767344	 0.221727786	 0.120928
H	-1.1008597536	 1.5112495709	-0.9696684411	 0.116529
H	-1.4170441264	 1.2824749108	 0.7507176423	 0.116786
H	-0.6037596784	-0.8164334182	-0.344440356	 0.071596
H	 0.9462503643	-0.401729489	-2.0651046221	 0.094059
H	 1.739669613	 0.9189837846	-1.1886410026	 0.093284
H	 1.2488882967	-2.5045378053	 0.43119337	 0.076848
H	 2.6299249733	-1.7760869171	 1.2838450855	 0.09874
H	 2.3382574691	 1.0241686116	 1.296735619	 0.126248
H	 0.934944002	 1.3791133413	 2.3198782306	 0.111902
H	 2.1191033759	 0.173077815	 2.8287609	 0.110785
H	 0.3239172847	-1.6059868443	 3.0902710382	 0.113535
H	-0.913506993	-0.4470197652	 2.6037573111	 0.115387
H	-0.7578569466	-1.9851554134	 1.7405967802	 0.111483
