12
gdb 132469	3.32394	1.39177	0.98101	2.7163	62.07	-0.2235	-0.0559	0.1675	1058.0178	0.077239	-517.787527	-517.780625	-517.779681	-517.818962	26.325	
O	 0.0023471927	 1.3619489678	 0.0079759427	-0.421657
C	-0.0579785283	 0.014767258	 0.0007825806	 0.199566
C	-1.2151626666	-0.6943046451	 0.0044059498	-0.1627
C	-1.1755889665	-2.125327613	-0.0036176123	-0.355351
C	 0.0325847944	-2.7125344705	-0.0143951631	 0.39973
F	 0.2410978889	-4.0084873539	-0.0224744077	-0.036587
O	 1.190591153	-2.047040237	-0.0183195311	-0.218126
C	 1.2297244467	-0.6593786609	-0.0116895418	 0.381017
O	 2.296348286	-0.0925223545	-0.0137900439	-0.369692
H	 0.9477371904	 1.5859269283	 0.0028020683	 0.313506
H	-2.1663983018	-0.1757669297	 0.0134575932	 0.135249
H	-2.0709666987	-2.7290435897	-0.0010493446	 0.135043
