17
gdb 45782	3.02747	1.40979	1.06966	1.6222	76.16	-0.2167	-0.0109	0.2058	1108.4792	0.138352	-418.030117	-418.022567	-418.021623	-418.062243	29.699	
O	 0.0151255663	-0.0794203442	 0.0391175828	-0.360597
C	-0.0092707527	 1.1321809325	-0.007401682	 0.405856
C	-1.2967914686	 1.9532533225	-0.0519271011	-0.422421
C	-1.1627824156	 3.2800263707	-0.7841560627	 0.297935
C	-1.8035020059	 3.4384782325	-2.1276358794	-0.273149
N	-2.3607454975	 4.1219383468	-0.9502721356	-0.362016
C	 0.1037354029	 3.9866718275	-0.4709455912	-0.175535
C	 1.1746042271	 3.2848512212	-0.0932889259	 0.007238
N	 1.1394352087	 1.8917304773	 0.0473034615	-0.343138
H	-2.0805622217	 1.3202018302	-0.4734784984	 0.12842
H	-1.5630119135	 2.1511030701	 0.9973575771	 0.137271
H	-1.3542889009	 4.0945895233	-2.8676729605	 0.120954
H	-2.3296962581	 2.5802018537	-2.539059251	 0.116684
H	-3.1833708989	 3.6245968844	-0.6158187401	 0.23235
H	 0.1444545641	 5.0626782988	-0.5761632227	 0.110795
H	 2.1343182805	 3.7376748901	 0.1230337767	 0.122998
H	 1.9971293238	 1.3727284228	 0.1584922126	 0.256356
