17
gdb 24598	4.82503	1.02971	0.96834	2.1443	75.24	-0.2207	0.0094	0.2301	1229.7991	0.137668	-421.829487	-421.82197	-421.821026	-421.862514	27.822	
C	-0.0217429983	 1.4855633595	-0.1280059761	-0.083404
O	 1.373254805	 1.590403763	 0.2114370016	-0.270855
C	 1.43871761	 0.1976900327	 0.5696272745	-0.083404
C	 0.009440392	-0.0618804943	 0.0163017183	-0.151037
C	-0.9901299563	-0.7298974736	 0.8755741927	 0.371138
C	-1.8311573511	-1.7848478309	 0.6880766095	-0.291819
C	-2.5614792076	-1.9521136902	 1.9099918452	-0.167914
C	-2.1104525028	-0.9856981372	 2.7490977974	-0.019408
O	-1.1555203167	-0.232951945	 2.138723337	-0.180537
H	-0.6643125715	 1.9855362768	 0.6072897097	 0.109544
H	-0.2364942166	 1.8783319483	-1.1281298555	 0.104743
H	 2.2598108569	-0.3229731044	 0.064305935	 0.104745
H	 1.5262507361	 0.0538348751	 1.6536796919	 0.109539
H	 0.0276200269	-0.5655478228	-0.9515744682	 0.092815
H	-1.9195977609	-2.3726795361	-0.2124200752	 0.108995
H	-3.3165650423	-2.6908834876	 2.1278830246	 0.112739
H	-2.3479196227	-0.7063397434	 3.7622213774	 0.134121
