18
gdb 40844	5.4297	0.88352	0.8126	2.663	89.01	-0.2155	-0.0256	0.1899	1436.8563	0.148504	-401.953962	-401.946014	-401.94507	-401.987252	29.986	
C	-0.1351275063	 1.3602129541	-0.065818508	-0.268796
C	 1.3090880844	 0.9805125516	 0.0994961925	-0.268761
C	 0.2499000565	-0.100899088	 0.0428005689	 0.051857
N	-0.0614918403	-0.7520677246	 1.2672397661	-0.341351
C	-0.3834704726	-1.9755328699	 1.2722556683	 0.437737
O	-0.4672696932	-2.783337048	 0.1531141119	-0.262823
C	-0.8580025249	-4.0997974692	 0.5459438524	-0.131801
C	-1.0104035906	-4.028317907	 2.0385107578	-0.102151
C	-0.7308193404	-2.7878225732	 2.43982597	-0.165739
H	-0.6439881661	 1.7866121054	 0.790424598	 0.119085
H	-0.4753568754	 1.7215744326	-1.0299297311	 0.108975
H	 1.9768584135	 1.0766635028	-0.7494369333	 0.10897
H	 1.7667547411	 1.1530588774	 1.0662758306	 0.11908
H	 0.1996533754	-0.6893018219	-0.869497181	 0.09515
H	-1.792187217	-4.3681163633	 0.0329954972	 0.126576
H	-0.0869908484	-4.8158023647	 0.2286280288	 0.126569
H	-1.3021392928	-4.8737344856	 2.6465437535	 0.120966
H	-0.7391894928	-2.3822378386	 3.4403599575	 0.126457
