14
gdb 94151	1.95492	1.7303	1.20713	4.6296	67.24	-0.2854	-0.0336	0.2518	1041.2385	0.100671	-432.847489	-432.838974	-432.83803	-432.88102	30.415	
O	 0.1737587325	 1.3371901132	-0.2344005488	-0.400949
C	 0.1008206252	-0.0210728213	 0.0128802256	 0.127607
C	 0.1738118568	-0.4894258473	 1.4890558425	-0.215126
N	-1.2993814135	-0.6369826267	 1.5025817348	-0.32735
C	-1.3850384386	-0.6477013618	 0.0277581082	-0.051664
C	-2.4396803995	 0.2096771629	-0.5179770222	 0.290216
N	-3.2413864447	 0.9327574577	-0.9278077292	-0.318212
C	-1.4179935585	-1.9831709196	-0.5788032885	 0.263981
N	-1.3945933679	-3.0582239416	-1.0031941953	-0.318943
H	-0.3942232597	 1.8127108772	 0.3846626075	 0.306781
H	 0.7683876044	-0.5144757443	-0.691801554	 0.136662
H	 0.7358907321	-1.4239870045	 1.6035159382	 0.129212
H	 0.5525106579	 0.2506738182	 2.1999618218	 0.127319
H	-1.6935107167	-1.444188832	 1.9725798994	 0.250466
