21
gdb 72547	2.50048	1.62441	1.60262	1.3609	76.23	-0.2379	0.0671	0.305	993.7753	0.1856	-424.247677	-424.239866	-424.238922	-424.279657	31.867	
O	-0.0657661655	 1.4254967252	-0.0269706823	-0.495327
C	 0.0082642397	 0.0101911649	 0.0109766402	 0.350387
C	 0.7624384491	-0.5104199452	 1.2460540507	-0.251802
C	 0.8032302774	-2.0646290388	 1.1917780657	-0.220709
C	 0.1022349937	-2.5207011605	-0.0957639117	 0.111824
C	-1.3684600391	-2.0808181939	-0.1008415096	-0.225887
C	-1.4255888386	-0.5326241557	 0.0281602842	-0.22125
O	 0.7762649124	-1.9601436785	-1.2263034632	-0.280813
C	 0.7095860378	-0.5324485207	-1.246392163	-0.093023
H	 0.828686929	 1.7730197089	 0.0630273667	 0.273531
H	 1.778392612	-0.0961870692	 1.249247804	 0.085484
H	 0.264148915	-0.1448288978	 2.1491155338	 0.102906
H	 1.8332737461	-2.4308581737	 1.1858339242	 0.10571
H	 0.3073228727	-2.5068092861	 2.0622472629	 0.098192
H	 0.185592883	-3.6034279225	-0.2229503088	 0.072382
H	-1.8301178679	-2.4140728965	-1.0344611618	 0.107044
H	-1.9064193369	-2.5701201538	 0.717524852	 0.097733
H	-1.9161398111	-0.2174042897	 0.9541854825	 0.100032
H	-1.9821524351	-0.0815586881	-0.7983180352	 0.107463
H	 0.1688313648	-0.1976883886	-2.1426311279	 0.097418
H	 1.7341152916	-0.1327875495	-1.3062580336	 0.078703
