19
gdb 91404	3.03508	1.60983	1.43016	2.1734	74.37	-0.2509	0.0008	0.2516	993.0664	0.161431	-423.035319	-423.028125	-423.027181	-423.066538	29.626	
C	 0.1034061386	 1.5571255791	 0.0687644114	-0.39964
C	 0.0018224207	 0.0430078538	-0.0235659537	 0.150751
C	 0.6742799191	-0.5266016045	-1.29889871	-0.224126
C	 0.9875890049	-2.0226120914	-1.0933897156	 0.016706
O	 1.8341362526	-2.0728898624	 0.0638661839	-0.237908
C	 0.9161994339	-1.8582636046	 1.1150678768	 0.1393
O	 0.5800742104	-0.4826245847	 1.1860123538	-0.282141
C	-0.2841190409	-2.7052120669	 0.6950087528	-0.100685
C	-0.2513657332	-2.781640084	-0.6317417027	-0.095598
H	 1.150899555	 1.8709692075	 0.102590376	 0.125459
H	-0.3744368928	 2.0250362449	-0.7982094319	 0.110811
H	-0.3921988054	 1.9169147954	 0.9746612263	 0.123638
H	-1.0590663549	-0.2429263031	-0.0482450771	 0.074405
H	 0.0157563177	-0.35504012	-2.1582047494	 0.096406
H	 1.6219400914	-0.0121775246	-1.4898947404	 0.11078
H	 1.5171228021	-2.4657165119	-1.9399741648	 0.083012
H	 1.3881622818	-2.103888835	 2.0672665984	 0.089785
H	-1.0529862933	-3.0505213746	 1.3724837742	 0.110598
H	-0.9888646078	-3.211232683	-1.2969659383	 0.108446
