17
gdb 78726	4.45856	1.16055	1.04703	1.2934	79.99	-0.2383	0.035	0.2733	1143.618	0.135376	-384.600411	-384.592692	-384.591748	-384.632242	31.06	
O	 0.1583833383	 1.3063327126	 0.1543702883	-0.443876
C	 0.0769799451	-0.0886182816	-0.0243790079	 0.160603
C	-1.353985653	-0.6174021637	-0.1289271822	-0.158489
C	-1.3221124021	-0.5246281963	-1.6372326728	-0.152631
C	 0.2570447816	-0.5778158619	-1.4928787611	-0.130898
C	 0.1675509608	-2.1181451144	-1.385906684	-0.29995
C	-1.3008806173	-1.9033363153	-0.9859494996	 0.239881
C	-2.3412152106	-2.8718442604	-0.9457823934	 0.117658
C	-3.2056199383	-3.7093256039	-0.9196486056	-0.381004
H	-0.494680244	 1.7153208694	-0.4265724397	 0.280347
H	 0.7459819737	-0.5237491498	 0.7249224282	 0.086762
H	-2.1863855429	-0.4444598817	 0.541285944	 0.101277
H	-2.0106517859	-0.1206803356	-2.3648008507	 0.10535
H	 0.9830785392	-0.0873725965	-2.137202992	 0.082081
H	 0.2315825298	-2.611087531	-2.3589058436	 0.111781
H	 0.834303649	-2.6160690438	-0.6729352094	 0.099596
H	-3.9706696833	-4.4449121562	-0.8946841885	 0.181512
