18
gdb 61187	3.39734	0.84225	0.77157	3.5426	76.59	-0.2781	0.002	0.28	1468.4258	0.146862	-398.151592	-398.141523	-398.140579	-398.187004	35.644	
C	-0.0039231082	 1.616626075	 0.0857154666	-0.423648
C	-0.0182618689	 0.0888789005	-0.0171492642	 0.020561
C	-1.4556762971	-0.4817234002	 0.0343639219	-0.369837
C	-2.1373736529	-0.1760263236	 1.2891811376	 0.267609
N	-2.6634381189	 0.0710703982	 2.2878508513	-0.3016
C	 0.6930812002	-0.4408512287	-1.3041141113	-0.146722
N	 0.1568676376	-0.0289160641	-2.5990847026	-0.50406
C	 2.1209659907	-0.0820286869	-1.2472722511	 0.305795
N	 3.2338017558	 0.2180962588	-1.171320763	-0.317124
H	 1.0203637012	 1.9982105671	 0.0704406273	 0.152812
H	-0.5559015151	 2.0793328169	-0.7403649457	 0.114723
H	-0.4737283336	 1.9424897712	 1.0170243144	 0.154616
H	 0.5327867511	-0.3255981572	 0.8351379219	 0.12038
H	-2.0545788413	-0.0738855602	-0.7888208233	 0.146771
H	-1.4396529361	-1.5713815928	-0.0896081121	 0.15282
H	 0.6486238019	-1.5377876575	-1.2783140917	 0.135159
H	-0.7793588192	-0.3916293332	-2.7366334214	 0.243213
H	 0.1241353529	 0.9813624068	-2.6825675745	 0.248533
