20
gdb 63521	3.36263	1.07592	0.98818	3.8825	81.13	-0.2349	0.0374	0.2723	1284.2809	0.169012	-403.16432	-403.154892	-403.153947	-403.198299	35.714	
C	-0.0470517572	 1.530586949	-0.023168297	-0.451491
C	-0.0198812746	 0.014220423	 0.0118701263	 0.265175
C	-1.2660583513	-0.6492660011	-0.5430279273	-0.449867
C	 1.3210117082	-0.6826501092	-0.2251062506	-0.400559
C	 0.7040694349	-0.6604383237	 1.1409921226	 0.385896
C	 1.2537515128	-0.0754578803	 2.4539682713	-0.486175
C	 0.728506037	-1.3824618245	 3.1076067246	 0.435165
O	 0.7229570855	-1.8634683769	 4.2079673398	-0.361377
N	 0.2499523811	-1.8198262699	 1.8934822483	-0.383993
H	 0.8668229763	 1.9619940609	 0.3956756038	 0.118225
H	-0.1437777686	 1.8931413375	-1.0532954972	 0.118618
H	-0.8957429065	 1.9249448377	 0.5479792146	 0.11894
H	-1.4317408327	-0.3543425003	-1.5854189912	 0.121886
H	-1.1961530696	-1.7411614357	-0.5188186235	 0.10436
H	-2.1547484282	-0.3608063679	 0.0300018659	 0.122585
H	 1.3126043062	-1.6206619468	-0.7724522806	 0.110839
H	 2.2006549022	-0.0715474785	-0.4041000338	 0.115162
H	 2.3382908668	 0.0378622326	 2.5050141072	 0.133373
H	 0.7669405879	 0.8328343923	 2.8140277396	 0.13292
H	-0.1789737902	-2.6907264883	 1.6191099572	 0.25032
