18
gdb 14546	4.5855	1.48434	1.36668	3.2668	73.23	-0.2464	-0.0143	0.2321	956.7786	0.153364	-347.790692	-347.78291	-347.781966	-347.8227	29.305	
C	-0.0578190026	 1.5543289799	 0.0845230949	-0.475309
C	 0.0403228217	 0.0449729137	 0.0906015639	 0.232627
C	-1.1700026593	-0.6514287324	-0.4247366076	 0.12357
O	-2.1657626719	-0.0985171739	-0.8232607353	-0.277065
C	 1.3019839368	-0.7543632594	-0.2283817447	-0.091472
C	 2.5586891799	-0.0370744372	 0.2822399664	-0.245563
C	 1.9628372578	-0.0700656519	 1.7266407494	-0.245524
C	 0.7230678045	-0.7862815457	 1.1746841048	-0.091526
H	 0.844967399	 2.0342650959	 0.4656001377	 0.115953
H	-0.2358686166	 1.9177006163	-0.9317148638	 0.132406
H	-0.9035878711	 1.8809959864	 0.6964718473	 0.132317
H	-1.0957837558	-1.7651613003	-0.4193480818	 0.063342
H	 1.290122483	-1.5234749337	-0.9923620745	 0.094031
H	 3.4502107147	-0.6613870986	 0.1940254726	 0.111958
H	 2.7771909199	 0.9412890156	-0.1542553584	 0.107136
H	 2.543027344	-0.7115963602	 2.3931089088	 0.111974
H	 1.7944592958	 0.8869040387	 2.2279458186	 0.107119
H	 0.18853084	-1.5842456932	 1.6775457718	 0.094027
