17
gdb 67674	2.59465	1.88139	1.37196	3.1375	72.14	-0.2391	-0.0005	0.2386	966.6127	0.136288	-421.821799	-421.814269	-421.813325	-421.853738	28.986	
C	-0.0404661158	 1.5428614367	 0.0237623494	-0.508631
C	-0.008918099	 0.0447050593	-0.042225907	 0.150254
C	-0.8839905033	-0.8705328819	 0.8305122687	 0.073475
O	-1.5359378545	-1.9776483609	 0.2612388858	-0.264213
C	-0.5185186298	-2.8758014337	-0.2013407293	-0.091166
C	 0.7558782374	-2.0250260815	-0.243870745	-0.210138
C	 0.5708678145	-1.0444182421	 0.9489302036	-0.174387
C	 0.5578366314	-0.7823642852	-1.1467537151	 0.397932
O	 0.9373905095	-0.5086198715	-2.2531557909	-0.340597
H	 0.9241205439	 1.969510773	-0.268423795	 0.137646
H	-0.8002181417	 1.9413003883	-0.6566827308	 0.143067
H	-0.2784067946	 1.8927628203	 1.0331480681	 0.1218
H	-1.4754863958	-0.3697223268	 1.5885342137	 0.117571
H	-0.4146064448	-3.7210107328	 0.4937453449	 0.104275
H	-0.8113413559	-3.2564503474	-1.1842796063	 0.127815
H	 1.6902344633	-2.5698117765	-0.366768336	 0.101229
H	 1.2156630552	-0.9025347672	 1.8044949413	 0.114066
