17
gdb 1866	5.40475	1.93763	1.51858	2.8932	64.05	-0.2344	-0.0117	0.2228	821.8412	0.148652	-309.763576	-309.75657	-309.755626	-309.794547	26.394	
C	-0.1534364073	 1.5330168439	-0.0023725486	-0.403429
C	 0.0770005391	 0.024407632	 0.0265845687	 0.036492
C	 0.8516274319	-0.5219341808	-1.1971819198	-0.215979
C	 1.3222780132	-1.9167859446	-0.7634515647	-0.318464
C	 1.5085915097	-1.8133427014	 0.7570264778	 0.398907
O	 2.0338794214	-2.6363603986	 1.4605729609	-0.31227
C	 0.9066461307	-0.4817818228	 1.2192580876	-0.317899
H	 0.8006056371	 2.0729291332	-0.0219024286	 0.114201
H	-0.7221697158	 1.8291178724	-0.890473088	 0.114701
H	-0.7098350741	 1.8716314447	 0.8777318936	 0.116713
H	-0.8998306706	-0.4790086445	 0.0554085812	 0.078219
H	 0.2430255318	-0.5310294017	-2.1054675917	 0.101657
H	 1.7176511659	 0.1231446837	-1.3944317802	 0.101476
H	 0.5472470736	-2.6735237542	-0.9441608468	 0.130097
H	 2.2344176342	-2.2763943226	-1.2456834374	 0.126636
H	 1.744853173	 0.2019339754	 1.4200803337	 0.124837
H	 0.3586256363	-0.5985009742	 2.1573674823	 0.124104
