23
gdb 109309	2.09188	1.56076	1.06494	0.1263	92.55	-0.2116	0.0309	0.2425	1257.2397	0.206578	-351.165786	-351.156653	-351.155709	-351.199545	35.503	
C	 0.1977085351	 1.7404949393	-0.0471153409	-0.367965
C	-0.0069811874	 0.2136803519	-0.0759678016	-0.304898
C	 0.6728456667	-0.4486159738	-1.242697574	 0.280767
C	 1.8989213746	-0.9828935546	-1.2435675567	-0.184075
C	 2.2858228766	-1.5646349994	-2.5821685227	-0.259427
C	 1.1905251118	-1.0092094761	-3.527771102	-0.29462
C	 0.0425068607	-0.6042202623	-2.5954081531	 0.297296
C	-1.3347222888	-1.2298810542	-2.7385549492	-0.310088
C	-1.1198357006	 0.2188982069	-3.090915237	-0.324817
H	 1.2612799906	 1.9820748471	 0.0396025778	 0.119808
H	-0.1739830818	 2.2136861976	-0.9607567703	 0.122055
H	-0.3259995341	 2.1886464391	 0.8035134457	 0.109363
H	 0.3776135714	-0.2133721261	 0.8568404031	 0.103473
H	-1.0827336091	-0.0043080694	-0.0914201644	 0.09777
H	 2.5434687069	-1.0402639794	-0.3721743124	 0.079694
H	 3.2942938236	-1.2770587655	-2.9004632453	 0.098614
H	 2.2774111108	-2.6637467718	-2.5480522903	 0.10242
H	 1.5706167225	-0.1195528028	-4.0435232845	 0.101714
H	 0.882789255	-1.7238618245	-4.2963870048	 0.093092
H	-1.4794842007	-1.9418938317	-3.5446432927	 0.109779
H	-1.8958096558	-1.4587641142	-1.8381440805	 0.110389
H	-1.5475539819	 0.9683440385	-2.4334620936	 0.110922
H	-1.1233484662	 0.4985962154	-4.1399919805	 0.108736
