16
gdb 54957	3.19912	1.1089	1.03202	5.4235	71.06	-0.2683	0.0129	0.2812	1193.4145	0.123432	-434.092314	-434.083213	-434.082269	-434.126261	33.121	
C	 0.2598538425	 1.2906802506	 0.414677322	-0.450575
C	 0.0138200165	-0.1766327392	 0.1097132151	 0.142344
C	 0.7413484826	-0.8425889143	-1.0362054925	-0.279386
N	 1.0342252068	-1.1862407411	 0.3416496334	-0.136584
C	 2.2430745589	-0.8958638444	 1.0089283801	 0.422857
N	 3.3318474668	-1.4732037858	 0.3992111867	-0.538225
O	 2.2992140057	-0.2344729581	 2.0210047775	-0.36549
C	-1.3391088143	-0.6290328716	 0.3957070289	 0.271525
N	-2.4269166965	-0.9584464514	 0.6033454272	-0.332397
H	 1.2594393454	 1.5873164571	 0.0919268909	 0.137111
H	-0.4791839844	 1.9023591521	-0.1100827433	 0.138252
H	 0.1825313174	 1.4765714602	 1.4870191652	 0.168905
H	 0.2454802977	-1.6086411286	-1.6253744732	 0.143677
H	 1.454341902	-0.2211897168	-1.573379823	 0.141878
H	 3.1798032208	-2.25802518	-0.2143091111	 0.265476
H	 4.161082142	-1.5124291687	 0.9711701362	 0.270633
