23
gdb 95213	2.38989	1.65554	1.15899	1.2339	84.74	-0.243	0.0778	0.3209	1159.5801	0.207394	-388.291422	-388.282736	-388.281792	-388.324282	34.88	
C	 0.0464504385	 1.5249396698	-0.1644604258	-0.414035
C	 0.0753715024	 0.0092161644	-0.0256108134	 0.138899
O	 0.6735686926	-0.5128504713	-1.2117499241	-0.260585
C	 0.3536049846	-1.8798851983	-1.397257952	-0.10372
C	 0.8110497712	-2.7326409276	-0.2307383228	-0.039151
C	 2.2154184592	-2.5570200378	 0.2751513714	-0.284735
C	 1.0529363689	-2.0333956587	 1.0910658362	-0.036097
C	 0.7943684946	-0.5259099087	 1.235727109	-0.006484
C	 2.0745197384	 0.2394104011	 1.6041508812	-0.395777
H	 1.0526611046	 1.9257780445	-0.3117960829	 0.12803
H	-0.5592293794	 1.8068602797	-1.0297766139	 0.11874
H	-0.3850208325	 1.9892013659	 0.7278897005	 0.11173
H	-0.9656339813	-0.3557621763	 0.0160463125	 0.059431
H	-0.7359083287	-1.9916480489	-1.5365989372	 0.083794
H	 0.8429536915	-2.1857472842	-2.3287021055	 0.103161
H	 0.3817315053	-3.730168699	-0.2031729236	 0.079309
H	 2.7486123834	-3.426320735	 0.6441375099	 0.103835
H	 2.836573869	-1.834463023	-0.2429674479	 0.120367
H	 0.8259258409	-2.6105623513	 1.9823951717	 0.080319
H	 0.0861809666	-0.4003184272	 2.0651272872	 0.068246
H	 2.7754224139	 0.2735345986	 0.764807602	 0.125033
H	 1.8584402422	 1.269185788	 1.9031424777	 0.109421
H	 2.5821205742	-0.2514803246	 2.4403048498	 0.110269
