19
gdb 37223	3.30603	1.51037	1.21484	1.6515	80.79	-0.2372	0.0109	0.2481	1056.9746	0.16127	-385.850053	-385.842707	-385.841763	-385.882233	29.2	
C	-0.0609558684	 1.5165017703	 0.0683756605	-0.18669
C	 1.3209342689	 2.2247793722	 0.0593326324	-0.24575
C	 2.251349263	 1.5809953393	 1.0703899144	-0.260412
C	 2.2276293424	 0.25791945	 1.0901387391	 0.396471
C	 2.5915507685	-0.9514168229	 1.9018385256	-0.130026
O	 1.3195643035	-1.4630335564	 2.3814860778	-0.240188
C	 1.7156013475	-1.7933329387	 1.0526220745	 0.005019
C	 1.3957576344	-0.5858818629	 0.1335346197	-0.106489
C	-0.016729657	-0.0344891002	-0.1162705711	-0.231484
H	-0.5281195066	 1.7407683998	 1.03269575	 0.10847
H	-0.7012620061	 1.9628849265	-0.699545102	 0.092679
H	 1.757897388	 2.1827403659	-0.9488277804	 0.106239
H	 1.1815444443	 3.2868120032	 0.2843800016	 0.100363
H	 2.8353680344	 2.1887243883	 1.7548040067	 0.09163
H	 3.4671978706	-1.1951594547	 2.4902230995	 0.106486
H	 1.7878840648	-2.8450209071	 0.7997348617	 0.100822
H	 1.9423400938	-0.7030974538	-0.8116770808	 0.086565
H	-0.7157839571	-0.4943915216	 0.5881722757	 0.113233
H	-0.3533669789	-0.3057225074	-1.1218880248	 0.093061
