23
gdb 92447	2.26728	1.68837	1.41002	1.633	83.85	-0.2343	0.0798	0.3141	1089.6203	0.208469	-388.311983	-388.303708	-388.302764	-388.344195	33.579	
C	-0.1501983694	 1.5979227049	 0.0256107353	-0.411573
C	 0.0138840804	 0.0798370595	-0.0265821326	 0.039139
C	 0.8746778702	-0.4469837377	-1.2270841846	-0.239498
C	 1.9805687358	-1.2791548634	-0.5316669551	-0.047414
C	 2.8810799888	-0.2944839884	 0.2273509974	-0.081008
O	 2.041581818	 0.1882122741	 1.2970073945	-0.282838
C	 0.7926706274	-0.5115805054	 1.171763938	 0.094053
C	 1.2325065871	-1.9031289711	 0.6764565527	 0.028345
C	 0.1533663079	-2.9417990226	 0.3827309247	-0.435251
H	 0.8212546673	 2.0877902353	 0.1318720211	 0.129644
H	-0.6302926123	 1.9714834667	-0.8849489719	 0.106191
H	-0.7700206827	 1.9005842869	 0.8769377641	 0.108005
H	-0.9826662041	-0.3756826421	-0.0558894235	 0.067141
H	 0.2820871389	-1.05711856	-1.9143407332	 0.094346
H	 1.3020833684	 0.3729080342	-1.8133993456	 0.094795
H	 2.5240976311	-1.9661740358	-1.1830234557	 0.060134
H	 3.7698676395	-0.7802577558	 0.6526939778	 0.092065
H	 3.2122820974	 0.5491556735	-0.3911336578	 0.092463
H	 0.2798830203	-0.4581742442	 2.1345194442	 0.063521
H	 1.9459778474	-2.3266580743	 1.3926873877	 0.073532
H	-0.5750657362	-2.6043627944	-0.3587263183	 0.120747
H	 0.6046823618	-3.8642303688	 0.0022381963	 0.116362
H	-0.3969974831	-3.1991453308	 1.2943023245	 0.1171
