17
gdb 74317	3.19937	1.21891	0.98443	3.4919	75.4	-0.241	-0.0314	0.2097	1203.5278	0.134731	-421.824662	-421.816415	-421.815471	-421.857953	30.435	
C	-0.0328227488	 1.5096986152	 0.0508119456	-0.502104
C	-0.0138905252	 0.0159145665	-0.000109429	 0.329338
C	 0.0004820427	-0.7738779543	-1.0812913235	-0.205526
C	-0.0014172335	-2.2569062147	-0.7394603613	-0.146086
C	 1.2195812882	-2.9592248881	-1.3253866886	 0.152376
O	 1.180447067	-3.7140958501	-2.261949869	-0.252132
C	 0.0251795755	-2.2398065354	 0.7922833787	 0.005581
O	 1.2024573962	-1.6469175196	 1.3462458544	-0.251435
C	 0.0084267617	-0.8355018885	 1.2328234079	-0.064351
H	 0.8595804678	 1.8983093518	 0.556605921	 0.141151
H	-0.0754146852	 1.9444611243	-0.9508539694	 0.131966
H	-0.8986270439	 1.8749718019	 0.6170054818	 0.132035
H	 0.0505258308	-0.4294244962	-2.1083603997	 0.112534
H	-0.8909397805	-2.765591294	-1.1271006193	 0.102728
H	 2.170798731	-2.697562576	-0.8174798938	 0.103419
H	-0.3993672606	-3.0608872145	 1.3626535082	 0.109092
H	-0.4052590233	-0.4989238382	 2.1790310561	 0.101414
