20
gdb 84278	2.99269	1.47052	1.16541	3.5904	79.07	-0.2449	0.0208	0.2657	1114.4056	0.172021	-403.131955	-403.123797	-403.122853	-403.164252	32.171	
C	-0.1721265226	 1.5237041492	-0.1196255903	-0.395281
C	 0.0867408259	 0.0279009039	-0.0044066505	 0.053632
N	 0.9671215804	-0.4376723331	-1.1346682141	-0.323918
C	 1.5625314538	-1.4191704115	-0.6162251157	 0.436652
O	 2.7249157656	-2.1022117627	-0.8490092287	-0.278317
C	 2.8409495621	-2.3028137164	 0.6199886486	-0.131123
C	 1.3780843463	-1.7959367898	 0.8098124056	-0.158853
C	 0.8115068596	-0.4535860002	 1.3329338284	-0.043445
C	 1.8830407179	 0.5162344267	 1.8375432902	-0.403778
H	 0.7628439421	 2.0895283614	-0.147828891	 0.124284
H	-0.7161853046	 1.7368044381	-1.0434661208	 0.127709
H	-0.772834979	 1.8820350014	 0.723517353	 0.107187
H	-0.8793983409	-0.4941315462	-0.0691854743	 0.078915
H	 3.0278618446	-3.3522448243	 0.8518340066	 0.12699
H	 3.6330217625	-1.6626827384	 1.0135648886	 0.132131
H	 0.6915269878	-2.6299806725	 0.9747724948	 0.106187
H	 0.0719741044	-0.6122486608	 2.1242207458	 0.071599
H	 2.6275226804	 0.7362890082	 1.0653490975	 0.132454
H	 1.4398094072	 1.4658821883	 2.1486046647	 0.124066
H	 2.4061024164	 0.0972212988	 2.7032266015	 0.112909
