15
gdb 127172	4.3318	1.09712	0.8803	2.4533	71.91	-0.2394	-0.0494	0.19	1233.4019	0.113214	-450.081739	-450.073613	-450.072668	-450.115244	28.713	
C	 0.0626033162	 1.4813800704	-0.0176487348	-0.360654
N	 0.0060899216	 0.0234218542	 0.0011125797	-0.169607
C	-0.0478756325	-0.6640099488	 1.2075814649	 0.089359
N	-0.0500962108	-0.053927736	 2.3227313906	-0.48031
C	 0.0068007546	-0.6611759327	-1.1934884199	 0.455735
N	-0.0415753807	-1.9695715401	-1.2999201754	-0.194458
O	-0.020746259	-2.2240975999	-2.6523957088	-0.152932
N	 0.0400360906	-1.0784160141	-3.3757681759	-0.059336
C	 0.0581712442	-0.1051505899	-2.5103836992	-0.124118
H	 0.9800553266	 1.829329533	-0.5039417696	 0.136574
H	-0.8031770502	 1.8980396657	-0.5431177707	 0.136587
H	 0.0527659631	 1.8182958917	 1.0171997773	 0.18784
H	-0.0859147496	-1.7447658009	 1.0608705104	 0.148008
H	-0.0931553038	-0.7215157951	 3.0887841396	 0.235847
H	 0.1050534398	 0.9231926726	-2.8287725782	 0.151466
