16
gdb 88725	3.50835	1.0052	0.84903	4.5452	70.48	-0.2768	0.0008	0.2777	1313.6512	0.122944	-437.847293	-437.838693	-437.837749	-437.881351	31.28	
O	-0.1610878315	 1.4593165672	 0.0935484974	-0.414296
C	-0.0598454361	 0.0700935595	-0.0137060798	 0.092973
C	-0.4779730238	-0.7855396892	 1.1508849962	-0.335667
C	-1.3582759476	-0.6870489286	-0.0860110829	-0.06492
C	-2.6435416746	 0.0564236667	-0.003004768	 0.077716
O	-3.4312510679	 0.1373973746	-1.193721197	-0.234262
C	-3.9598635342	-0.6169556544	-0.1022705188	-0.122516
C	-4.0530242426	-2.0497569889	-0.2865604107	 0.308869
N	-4.1377449325	-3.1958125274	-0.4114104097	-0.333619
H	 0.5543229218	 1.7689985722	 0.6587175449	 0.294371
H	 0.7514864077	-0.285788164	-0.6473583708	 0.100906
H	 0.0340022012	-1.7215817278	 1.3415526544	 0.128412
H	-0.8176544338	-0.2596762595	 2.0374975641	 0.121437
H	-1.3852449758	-1.5499061778	-0.7423775955	 0.122141
H	-2.6149775044	 0.9798933877	 0.572053034	 0.12097
H	-4.822842586	-0.1762148504	 0.3940304624	 0.137484
