17
gdb 86119	2.83	1.44404	0.98721	2.8844	70.25	-0.2274	-0.0255	0.2019	1161.0295	0.135694	-455.185776	-455.176971	-455.176027	-455.220031	32.414	
C	 0.1963221892	 1.5585040223	-0.0889528022	-0.400554
C	 0.1513822844	 0.0430357458	-0.0187902441	 0.0131
O	 0.8872685414	-0.4803804219	-1.1383865599	-0.270074
C	 1.1251955994	-1.8245739702	-1.1077098081	 0.451168
N	 1.1672983156	-2.32849877	-2.3857058833	-0.55617
N	 1.2695209431	-2.5549885705	-0.0782344523	-0.34294
C	 1.3021235943	-1.9047638461	 1.2141551355	-0.265024
C	 0.680847136	-0.5175273845	 1.3030633732	 0.351239
O	 0.5677113788	 0.0895418662	 2.3405115041	-0.308894
H	 1.2316743702	 1.9088564572	-0.0609893357	 0.132728
H	-0.270931701	 1.9124916147	-1.0106457906	 0.124787
H	-0.3312294756	 1.9745229643	 0.7707014768	 0.1492
H	-0.8893508153	-0.3105137052	-0.1045371268	 0.117534
H	 1.3097837618	-1.6492512344	-3.1155630709	 0.25999
H	 1.6805507399	-3.1902376316	-2.4810173868	 0.264684
H	 0.8028348743	-2.5332181027	 1.96287696	 0.14005
H	 2.3397436033	-1.8107452533	 1.5702137712	 0.139176
