22
gdb 109837	2.48589	0.97237	0.83094	2.5735	83.48	-0.2218	-0.0234	0.1985	1495.8637	0.191226	-404.32535	-404.314627	-404.313683	-404.362477	37.57	
C	 0.7686545572	 0.0077446278	-0.167819312	-0.380231
C	 0.1394659923	-0.9215775535	 0.8778873806	-0.202921
C	-1.3429045282	-1.1266076591	 0.6262663171	-0.008372
C	-1.8968219051	-2.2425152574	-0.2076073955	-0.023431
C	-1.0206661961	-3.293784147	-0.8729782413	-0.316149
C	-1.7520715491	-4.6134126252	-1.0257668369	 0.171513
O	-1.3111354612	-5.6842538168	-0.6983860685	-0.239754
N	-2.1416289647	-2.191038735	 1.2349926344	-0.109172
C	-1.5335900515	-3.1605258685	 2.136424703	-0.322947
H	 1.8227233535	 0.1968919967	 0.0557521804	 0.116995
H	 0.7099659106	-0.4263747433	-1.1713536634	 0.118911
H	 0.2547317672	 0.9746634079	-0.1959991604	 0.120213
H	 0.6792157025	-1.8720252578	 0.8948226844	 0.10134
H	 0.2649300594	-0.4831637317	 1.8764562437	 0.105422
H	-1.8837752957	-0.179044837	 0.5808283634	 0.086709
H	-2.7943673501	-2.0298738259	-0.791107414	 0.08966
H	-0.7810992326	-2.9397031586	-1.8870165285	 0.126593
H	-0.0785724601	-3.4821742685	-0.3572747851	 0.124498
H	-2.7664326598	-4.5249843547	-1.4809550083	 0.075988
H	-0.5189298142	-3.4913410397	 1.8769116249	 0.107945
H	-1.4988339571	-2.7260010171	 3.1404980536	 0.124888
H	-2.1720981473	-4.0483362955	 2.1785688684	 0.132301
