20
gdb 20024	4.72601	1.11628	0.98589	0.6192	76.93	-0.2214	0.0772	0.2986	1242.1221	0.177294	-345.122626	-345.114072	-345.113128	-345.156185	31.475	
C	-0.2125198705	 1.7371536371	-0.6654194765	-0.375523
C	 0.0719263686	 0.3955803694	 0.0054299772	-0.109959
N	-1.1782389083	-0.3296048604	 0.2213408302	-0.083518
C	-1.6042744303	-1.2814602278	-0.7977836131	-0.267513
C	-1.1530102755	-1.7559306207	 0.5438909792	-0.008523
C	 0.1104193867	-2.5436675763	 0.7025137496	 0.012489
C	 0.5409270205	-2.9673416923	 2.0603188903	-0.246165
N	 0.0257575094	-3.9597330366	 1.1019093311	-0.326132
H	 0.7120838873	 2.3076284549	-0.7975836299	 0.110395
H	-0.6644469089	 1.5911276852	-1.6520425755	 0.118233
H	-0.9064322827	 2.3280322385	-0.0612916258	 0.126697
H	 0.7958626155	-0.1706992686	-0.6035631102	 0.084266
H	 0.5362669064	 0.557032786	 0.9854578113	 0.105432
H	-2.6581535157	-1.2684682418	-1.0641547087	 0.113977
H	-0.9276321004	-1.4703157845	-1.6320303081	 0.108006
H	-1.9173061862	-2.0386865838	 1.2715063611	 0.079908
H	 0.8786825535	-2.3623913111	-0.0439515485	 0.094436
H	 1.5970829473	-3.0629266059	 2.2957387575	 0.119844
H	-0.0863894219	-2.6773281761	 2.8999080394	 0.113234
H	-0.9383320948	-4.1926504954	 1.3321392894	 0.230418
