20
gdb 77760	2.11268	1.85073	1.14029	3.6582	81.07	-0.2177	0.0118	0.2295	1127.4737	0.167835	-403.072236	-403.062693	-403.061749	-403.106497	35.607	
C	 0.1806533764	 1.4946344825	-0.0306612298	-0.330435
N	 0.0536196529	 0.0451730483	 0.0506375426	-0.102967
C	-1.0779036178	-0.7175780353	 0.7121367587	-0.206618
C	-0.1076544295	-1.8908241349	 0.3874600575	 0.48464
O	-0.0546557673	-2.9485718828	-0.1474473539	-0.329465
C	 0.7773397363	-0.8059653367	 1.0691106961	-0.207816
C	-0.3896679642	-0.6655640887	 2.1295511708	 0.326727
C	-0.5345729843	 0.6115158697	 2.9595604322	-0.474755
C	-0.596977359	-1.8778864233	 3.0464408902	-0.461903
H	 0.3941218489	 2.0271226623	 0.9035078072	 0.111089
H	 0.994196277	 1.7215937331	-0.7288771495	 0.129549
H	-0.7396314015	 1.9030465212	-0.4597013664	 0.128955
H	-2.1211661382	-0.5656784636	 0.4358191421	 0.089806
H	 1.8574165476	-0.7602960897	 1.2072056602	 0.090918
H	-0.6457714823	 1.5189375726	 2.3725916111	 0.126168
H	-1.424114542	 0.5288799077	 3.5941503353	 0.120246
H	 0.3247641803	 0.7373170832	 3.6277766486	 0.121257
H	 0.1147068155	-1.8481799306	 3.8790988988	 0.121048
H	-1.6042899223	-1.8648723692	 3.476706641	 0.121668
H	-0.4655578865	-2.8327568858	 2.5303781672	 0.141888
