22
gdb 122553	5.10929	0.70313	0.67512	1.9286	83.8	-0.2268	0.0807	0.3075	1767.025	0.193668	-404.293702	-404.284212	-404.283268	-404.329106	34.819	
C	 0.1571279547	 1.4384163141	 0.177922926	-0.382896
C	-0.1582426022	-0.0190366225	-0.1663216769	-0.181216
C	 0.7840621422	-0.5870113699	-1.2186659466	-0.038033
O	 0.4180464208	-1.9281377194	-1.4775880501	-0.253338
C	 1.1975014068	-2.5454166804	-2.4562429495	 0.179024
C	 2.6696748444	-3.018697447	-2.1203722056	-0.267712
C	 2.2391336223	-4.4262184787	-2.5429156932	-0.04597
N	 1.178715443	-4.8141050522	-1.586681724	-0.319238
C	 0.8302535806	-3.9900695311	-2.7708791767	-0.101621
H	 1.1739457593	 1.5456436168	 0.5718709699	 0.115489
H	 0.0741771442	 2.0848453538	-0.7030287307	 0.114287
H	-0.5328378542	 1.8215017831	 0.935300215	 0.116503
H	-0.0935549131	-0.6456741467	 0.7303008819	 0.110756
H	-1.1859668265	-0.1096995814	-0.5362960556	 0.105193
H	 0.7281081072	 0.0099445856	-2.146684487	 0.078579
H	 1.827590929	-0.5328471015	-0.8654784199	 0.087098
H	 1.2083831878	-1.946096908	-3.3806346344	 0.063869
H	 3.4237850274	-2.5562681248	-2.7600616954	 0.09841
H	 2.9583297183	-2.9382936039	-1.0700966029	 0.111794
H	 2.8199248323	-5.1704544768	-3.0726035673	 0.092649
H	 0.900473418	-5.7686940495	-1.8148970849	 0.226895
H	 0.0917426477	-4.3344910196	-3.4844299422	 0.089478
