14
gdb 130234	3.198	1.50515	1.02456	3.0109	71.08	-0.2154	-0.0493	0.1661	1076.6989	0.102532	-466.189026	-466.18112	-466.180176	-466.221258	30.303	
N	 0.0792015324	 1.4086425726	 0.0820358825	-0.551506
C	-0.011309677	 0.0391514524	-0.0422247675	 0.450903
N	-1.207617423	-0.4674239176	-0.1152778967	-0.220406
O	-1.2399037324	-1.8757503702	-0.3593571047	-0.270581
C	-0.1233648997	-2.6136498776	-0.4501357894	 0.387897
N	-0.112558275	-3.8697054831	-0.6614292962	-0.558233
C	 1.1580093172	-1.8825048545	-0.2871662623	 0.371273
N	 2.2564682784	-2.6420993814	-0.3479011508	-0.542659
N	 1.2085082697	-0.5994802878	-0.0985928994	-0.386809
H	 0.9124037136	 1.7203258972	 0.556980935	 0.259816
H	-0.773316403	 1.8663152401	 0.368045298	 0.262777
H	-1.0587420995	-4.2400770625	-0.7520840486	 0.233958
H	 2.1350780454	-3.6283623512	-0.5178190756	 0.291239
H	 3.165907023	-2.2212752164	-0.2675155043	 0.272332
