15
gdb 50190	5.04679	1.08334	0.97981	5.0573	69.25	-0.2437	-0.0405	0.2032	1159.2139	0.112044	-453.902585	-453.894873	-453.893928	-453.93544	28.231	
N	 0.1563192306	 1.0896965173	 0.5995495888	-0.537836
C	 0.0713171201	-0.0420066456	 0.0526053045	 0.390524
N	 0.9618711052	-0.9905844891	-0.4832412391	-0.336674
C	-0.0656582782	-1.9835767708	-0.7663341925	-0.063982
C	-0.5709831904	-2.8273789342	 0.4491558288	 0.008965
O	-1.4621262157	-1.7870530061	 0.8610016328	-0.271197
C	-1.1197566604	-0.9524446763	-0.2659892125	 0.028658
C	-1.2723635732	-4.1011456302	 0.026523894	 0.142495
O	-2.457838301	-4.2217361019	-0.1181016109	-0.223214
H	 1.125524631	 1.3849108733	 0.7313755584	 0.215601
H	 1.91142059	-1.1702431217	-0.1845776765	 0.24333
H	-0.0287822411	-2.4472299499	-1.751317342	 0.110628
H	 0.1989166654	-3.0641018612	 1.1974230648	 0.100586
H	-1.9850590858	-0.5741405837	-0.8074330734	 0.117963
H	-0.5614141566	-4.9362293799	-0.1835149252	 0.074152
