17
gdb 44051	2.58691	1.70564	1.58224	3.6425	71.3	-0.235	-0.038	0.197	938.7042	0.135356	-421.760252	-421.752832	-421.751888	-421.792168	29.019	
O	-0.1016076032	 0.0777162783	 0.5804403415	-0.274003
C	-0.0966177566	 1.2009574019	 0.1818944835	 0.340807
C	-1.2024298174	 2.1800367339	-0.3444966628	-0.428273
C	-0.0855069857	 3.219683326	-0.6228099012	 0.188725
C	 0.3236520883	 4.2920295357	 0.433233861	-0.295504
C	 1.4555403106	 3.3320337672	 0.9659393967	-0.312538
C	 0.9897352094	 2.2886603885	-0.0837671714	 0.284925
O	 1.6908875869	 2.2049359069	-1.339214635	-0.329223
C	 0.7119258062	 3.1196782984	-1.9406195504	-0.146588
H	-1.7581931192	 1.8087763488	-1.2114988494	 0.137315
H	-1.9266393654	 2.4612554874	 0.4267278217	 0.136671
H	 0.6740160298	 5.2403934569	 0.0191716156	 0.113039
H	-0.4587862279	 4.5089194016	 1.1641787276	 0.11276
H	 2.4752338215	 3.6747350828	 0.7804801596	 0.128092
H	 1.3697531896	 3.0274157371	 2.0111244937	 0.119907
H	 0.1925247027	 2.6508285574	-2.7845877175	 0.112516
H	 1.1912606503	 4.0447669511	-2.2810064131	 0.111371
