18
gdb 24161	4.99463	0.94343	0.84166	1.8095	78.32	-0.1851	0.0323	0.2174	1364.8918	0.14854	-401.94449	-401.936276	-401.935332	-401.97817	31.148	
C	-0.3878548275	 1.0058686826	-0.2378935851	-0.259076
C	 1.0379958404	 1.1148799875	 0.250383187	-0.293259
C	 0.4442097094	-0.2391377653	 0.0012653501	 0.049181
N	 0.1888805072	-1.1052168219	 1.1099494436	-0.40599
C	-0.9912742935	-1.8372351841	 1.1578420229	 0.281905
C	-1.9230500155	-2.0124728684	 0.1734247686	-0.092798
O	-2.9099892109	-2.8635630769	 0.6050726921	-0.152187
C	-2.6008621581	-3.2144696141	 1.8716069183	 0.018992
C	-1.4427904762	-2.6289431612	 2.2716097014	-0.297309
H	-1.1793062118	 1.2129091549	 0.4730107957	 0.121893
H	-0.6080581018	 1.2935597551	-1.260186987	 0.112934
H	 1.8011743551	 1.4738730619	-0.4307206455	 0.11881
H	 1.1918312541	 1.414462188	 1.2825669771	 0.111464
H	 0.7849670943	-0.7645718369	-0.8892899293	 0.097401
H	 0.5249478842	-0.77914934	 2.0019620656	 0.23391
H	-2.0228160133	-1.640433155	-0.8300283658	 0.123178
H	-3.2920720929	-3.8827482926	 2.3588464918	 0.13056
H	-0.9571258933	-2.7407536635	 3.2289018385	 0.100392
