18
gdb 8141	4.08304	1.62392	1.36261	1.3185	73.74	-0.219	0.0252	0.2442	960.3969	0.153469	-347.805201	-347.797484	-347.79654	-347.83663	30.278	
C	 0.0439500194	 1.5080836707	 0.079396934	-0.487272
C	-0.0176910335	 0.0157944962	-0.0037925511	 0.325028
C	-0.0844682644	-0.7376374148	-1.1065003879	-0.260219
C	-0.0561232862	-2.2005206308	-0.7959020201	 0.386221
O	-0.8839439458	-3.0752025916	-1.5031264684	-0.468662
C	 1.2175105005	-2.7071295372	-0.1539539431	-0.340238
C	 0.0450103204	-2.278911838	 0.7103795379	-0.088692
C	 0.0184322099	-0.8518058077	 1.2466206014	-0.31932
H	 0.9814401783	 1.8458235192	 0.5397777085	 0.12383
H	-0.0317934183	 1.9708035464	-0.9083869958	 0.122964
H	-0.7673313054	 1.9028410777	 0.7048520232	 0.123885
H	-0.1262976127	-0.3611487093	-2.1233671262	 0.08216
H	-0.4143631448	-3.3519709387	-2.2969412665	 0.28131
H	 1.392494553	-3.7776341027	-0.2028344947	 0.107374
H	 2.1089548249	-2.0886290022	-0.19741095	 0.105894
H	-0.483957035	-3.0615465729	 1.240076443	 0.093703
H	 0.8943652222	-0.6242443753	 1.8693360128	 0.105864
H	-0.8614688726	-0.667488779	 1.878435353	 0.106169
