18
gdb 63562	2.66729	1.44426	1.12389	3.2547	73.05	-0.2657	-0.0047	0.261	1124.6505	0.146541	-439.094044	-439.085239	-439.084294	-439.127278	32.767	
C	-0.0719817136	 1.5282933304	-0.0585828449	-0.436072
C	-0.0369877326	 0.0153706212	 0.0038642571	 0.244356
C	-1.2184415733	-0.6984063203	-0.6213067936	-0.474478
N	 1.3083515759	-0.5648281001	-0.1523263496	-0.405597
C	 0.6618577765	-0.6353108134	 1.1511168159	 0.094925
C	 1.1925583306	-0.1345667165	 2.4885966297	-0.151543
O	 0.6930079368	-1.3676314451	 3.1146442784	-0.251561
C	 0.2545412738	-1.8708632092	 1.9116025359	 0.427839
O	-0.2349106782	-2.9338974755	 1.6897325888	-0.347284
H	 0.8407540187	 1.9593526255	 0.3592783564	 0.12943
H	-0.1559713216	 1.8616037724	-1.098639254	 0.128985
H	-0.9334534232	 1.9215206379	 0.4913625877	 0.122982
H	-1.2419653396	-0.5116617895	-1.7009341622	 0.124984
H	-1.1718360371	-1.7762493351	-0.4484647285	 0.152455
H	-2.1605274494	-0.3300569453	-0.2021100298	 0.12959
H	 1.2637974355	-1.47856261	-0.6022941333	 0.245703
H	 2.2789690484	-0.0683991545	 2.5712578703	 0.136729
H	 0.7076381227	 0.7420422271	 2.9226770457	 0.128558
