19
gdb 93966	3.79917	1.07625	1.00867	1.8161	70.51	-0.2494	0.0726	0.322	1225.0205	0.159772	-460.136567	-460.128226	-460.127282	-460.170182	31.401	
O	-0.4106743518	 1.2810481117	 0.6084928701	-0.443074
C	-0.4436543648	 0.0580798822	-0.1100157492	 0.142335
C	 0.7240960384	-0.8464153779	 0.280987532	-0.124796
O	 0.3181107802	-1.3630353168	 1.5501302989	-0.282619
C	-1.0837688191	-1.6832613198	 1.4534167002	 0.07873
C	-1.642846299	-0.8284442475	 0.2892326464	-0.297123
C	-1.2452682316	-3.1817170085	 1.283439984	 0.073241
C	-2.4561300049	-3.8039925475	 0.7385711805	-0.188842
O	-1.261243988	-3.7178354921	-0.0426662076	-0.227478
H	-0.2006131994	 1.058647287	 1.523567282	 0.285684
H	-0.4536294511	 0.3240440274	-1.1694835099	 0.089335
H	 0.8737694772	-1.6529719082	-0.4511374642	 0.109341
H	 1.659665144	-0.2998781785	 0.4205422631	 0.114525
H	-1.5254474109	-1.4117902918	 2.4198813354	 0.087743
H	-2.4961424791	-0.2150029164	 0.5811780871	 0.112153
H	-1.9289939704	-1.4707893031	-0.5474463808	 0.126856
H	-0.6418339842	-3.7596302125	 1.9838775231	 0.104518
H	-2.7350928219	-4.8070418171	 1.0562262988	 0.122052
H	-3.2804792336	-3.1788882807	 0.39785941	 0.11742
