15
gdb 2998	7.32948	1.59305	1.4548	3.5551	59.57	-0.2504	0.0203	0.2706	855.4898	0.126015	-341.84212	-341.834558	-341.833614	-341.874262	26.044	
C	-0.0530538776	 1.5068574978	-0.2395761655	-0.334636
N	-0.0812954024	 0.0577916255	-0.2867056535	-0.326548
C	-1.0580339763	-0.6795138671	 0.3063496442	 0.441314
O	-2.0034757128	-0.1918665527	 0.9101976159	-0.400436
C	-0.9079652182	-2.1683757788	 0.1689982746	-0.119865
C	-1.1926005336	-2.9762130851	 1.3920638872	-0.221071
N	-2.1404786166	-2.9593448296	 0.2813301412	-0.30564
H	 0.8375469487	 1.8726764137	 0.2835800862	 0.128039
H	-0.0695263272	 1.9366401627	-1.2470035494	 0.128772
H	-0.9422428364	 1.8310038058	 0.3018439536	 0.17429
H	 0.6616845807	-0.4265190603	-0.7627502762	 0.249045
H	-0.1874405762	-2.5353271394	-0.5582148381	 0.085032
H	-0.6638783895	-3.9132958357	 1.5408636243	 0.120081
H	-1.4422911466	-2.4217353192	 2.291707344	 0.133241
H	-2.8832797759	-2.2970494876	 0.5101530215	 0.248383
