21
gdb 117255	3.7475	0.87002	0.7462	3.6741	82.07	-0.2298	0.0623	0.2921	1590.1047	0.182873	-420.433917	-420.423893	-420.422949	-420.470607	35.125	
C	 0.2731637282	 1.3905943329	 0.1691817454	-0.373338
C	-0.3105282926	 0.0515550484	-0.279412044	-0.129379
N	 0.4239484269	-0.517669678	-1.398119332	-0.363235
C	 0.7502524448	-1.856304073	-1.432213062	 0.459712
O	 0.5954089967	-2.6213954428	-0.4933758875	-0.415303
N	 1.2853604092	-2.2746000416	-2.6335210774	-0.128256
C	 2.1213734001	-1.5141143212	-3.5793846027	-0.181368
C	 2.8542171455	-2.83654941	-3.9335696147	-0.238923
C	 2.0740753562	-3.5069501189	-2.7674186835	-0.152423
H	 1.3144396716	 1.2743838442	 0.4835246131	 0.125274
H	 0.2446051156	 2.1311487199	-0.6384702345	 0.10717
H	-0.3003573049	 1.7954187158	 1.0090070183	 0.117628
H	-0.2565411541	-0.689129154	 0.5208177826	 0.150697
H	-1.3731550298	 0.1729711113	-0.535666696	 0.098315
H	 0.3809041593	-0.0261687282	-2.2768291527	 0.237801
H	 1.5672519732	-1.0352582744	-4.3953701043	 0.1056
H	 2.7531973424	-0.7601079971	-3.092334183	 0.111703
H	 2.5980785614	-3.2271143536	-4.919193815	 0.116236
H	 3.938964503	-2.8158081274	-3.8285540864	 0.115629
H	 2.6706051935	-3.7267478551	-1.8757843993	 0.121069
H	 1.4831239137	-4.3920562673	-3.0196534944	 0.11539
