21
gdb 53190	2.88517	1.07155	0.99463	0.2159	91.29	-0.2238	0.0557	0.2795	1347.3495	0.183688	-349.939739	-349.930604	-349.929659	-349.97541	33.645	
C	-0.0630254596	 1.5558806623	 0.0398034583	-0.50024
C	-0.075016476	 0.0997761592	 0.0533143795	 0.064507
C	-0.0876371714	-1.1061819463	 0.0670602023	 0.093163
C	-0.0469761638	-2.5405969781	 0.0438298389	-0.217625
C	-0.4130300505	-3.4337791142	 1.2262874872	-0.049092
C	-1.2099206338	-2.8418583428	 2.3786025023	-0.217184
C	-2.4473881993	-2.1671006932	 1.732477695	-0.220022
C	-2.6360860618	-2.8488214893	 0.3526869586	-0.217102
C	-1.2806218258	-3.4381945081	-0.0060445459	-0.049117
H	 0.9614062232	 1.9453153851	 0.0310212469	 0.145984
H	-0.5748182028	 1.9553407516	-0.8433200645	 0.144645
H	-0.5623344163	 1.9677406781	 0.9241985187	 0.145128
H	 0.783513905	-2.9324288735	-0.5393754756	 0.10414
H	 0.2683708239	-4.2507209255	 1.4390160213	 0.081613
H	-1.5138057702	-3.6583219991	 3.0441394703	 0.096467
H	-0.6284788165	-2.1355510161	 2.9803992205	 0.102963
H	-3.3380366456	-2.2621300398	 2.3598175791	 0.090278
H	-2.2595958522	-1.1014652503	 1.5962303496	 0.120439
H	-3.3627166146	-3.6671447738	 0.4178179304	 0.09644
H	-3.008467701	-2.1468816762	-0.4007910756	 0.103004
H	-1.2484320109	-4.25844855	-0.7153415672	 0.081611
