18
gdb 94387	2.98889	1.47656	1.23871	3.7928	71.29	-0.2272	0.0563	0.2835	1048.583	0.147461	-439.005969	-438.998017	-438.997073	-439.038595	30.535	
O	 0.1292149944	 1.1538516504	-0.5156005639	-0.427117
C	 0.1090019083	-0.1365698383	 0.0417976568	-0.019732
C	-0.0170310598	-0.2912642077	 1.5734795948	-0.115387
O	-1.2030279731	-1.1005902283	 1.4111950509	-0.323268
C	-1.2797244792	-0.7979603077	 0.0053439879	 0.44934
C	-2.5712204019	-0.0794377267	-0.453953368	-0.236507
N	-2.9852707648	-1.2513171525	-1.312306624	-0.127346
C	-1.8954107644	-1.4113902967	-2.2875400293	-0.244437
C	-1.6877514402	-1.9327424667	-0.9177532909	-0.12661
H	 1.0357140882	 1.4761193212	-0.5209708892	 0.291674
H	 0.8860566768	-0.7799383736	-0.3912451959	 0.080866
H	 0.7772402761	-0.829560913	 2.1020172269	 0.102759
H	-0.2283615493	 0.6580938245	 2.0819086028	 0.104585
H	-3.2629093064	 0.0354125435	 0.3827666022	 0.124555
H	-2.4672795828	 0.8635137734	-0.9974592499	 0.118411
H	-2.1201700245	-2.1316851031	-3.0682578627	 0.122584
H	-1.3477428649	-0.5313146538	-2.6197914871	 0.123119
H	-1.6334676427	-2.9881186846	-0.6718611912	 0.10251
