16
gdb 4543	3.94779	1.73205	1.22226	2.1404	67.9	-0.1945	0.0525	0.247	976.2318	0.130875	-379.972694	-379.964421	-379.963477	-380.005705	29.446	
C	-0.0691030968	 1.4863338782	 0.015405094	-0.345941
N	 0.0055975337	 0.0411419211	-0.0197357723	-0.048013
C	-0.0389746581	-0.7841426777	-1.1446112573	-0.219827
C	 0.0584166965	-2.0649566836	-0.682373446	 0.278597
C	 0.0634514848	-3.3403472742	-1.457619649	-0.484732
N	 0.1621809828	-2.0633922597	 0.7042853136	-0.425374
C	 0.1250029376	-0.8008948589	 1.0363524566	 0.433435
O	 0.1936386959	-0.3016417538	 2.2856004368	-0.431453
H	 0.7470835884	 1.9324986152	-0.5619578129	 0.138905
H	-1.0220996854	 1.8390519043	-0.3924731879	 0.138875
H	 0.0127895964	 1.8150343864	 1.0515067046	 0.163069
H	-0.1326920991	-0.3728635232	-2.1360545216	 0.11691
H	 0.9887615233	-3.9025809668	-1.2888176814	 0.128901
H	-0.7651146512	-3.9905614206	-1.1551218294	 0.128924
H	-0.0279821326	-3.1474908372	-2.5300566214	 0.114626
H	 0.2761615238	-1.0652619897	 2.8700084437	 0.313098
