18
gdb 66798	3.37274	1.95323	1.9504	1.872	76.74	-0.2054	0.0521	0.2575	830.4301	0.149601	-364.685254	-364.679178	-364.678234	-364.715275	26.137	
C	-0.0263043273	 1.5449188821	-0.0022321454	-0.538583
C	 0.0082599568	 0.0446563983	 0.0033021495	 0.382662
C	 0.6444709193	-0.864084463	-1.122918748	-0.129924
C	-0.6199551486	-1.8005735111	-1.088788743	-0.066274
C	 0.0630979343	-2.6490737784	 0.0266178494	-0.005897
C	 1.3369016849	-1.7515121425	-0.0229341881	-0.066275
C	 0.6693511246	-0.8776544006	 1.0806608481	-0.073283
N	-0.5595301449	-1.7889301237	 1.1301373063	-0.182216
C	-1.2188445045	-0.9249947205	 0.0522068601	-0.073285
H	 0.9863007896	 1.9649678158	-0.0303450357	 0.118642
H	-0.5661924729	 1.9260956874	-0.8773467621	 0.118638
H	-0.524639551	 1.9344381326	 0.8933056681	 0.122689
H	 1.1257783996	-0.487403916	-2.0239217608	 0.062683
H	-1.149243903	-2.181412949	-1.9604285527	 0.065047
H	 0.0358965663	-3.7345864034	 0.1265261413	 0.068866
H	 2.3702390219	-2.0931760904	-0.0434444555	 0.065047
H	 1.1229430001	-0.5513064423	 2.0181746767	 0.065733
H	-2.2643904152	-0.6362361252	 0.1731762019	 0.065732
