17
gdb 64538	4.25664	1.24304	1.1158	2.6342	73.78	-0.2266	-0.0377	0.1888	1090.673	0.134882	-421.754888	-421.747298	-421.746353	-421.786747	30.307	
O	 0.0304472343	 1.471527234	-0.1038442448	-0.47344
C	-0.0752601169	 0.0959021658	 0.0032067031	 0.326756
C	 0.9992607427	-0.5899274115	-0.7706423544	 0.125845
O	 1.8270319852	 0.0390370155	-1.3896875159	-0.299097
C	-0.4496020463	-0.6987083765	 1.2437830294	-0.1396
C	-1.623482919	-0.129619311	 2.0844455684	-0.070879
C	-2.2320486032	 1.144548515	 1.561119436	-0.30321
C	-2.5211058618	-0.1569563205	 0.8609587701	-0.070872
C	-1.3547818738	-0.7254568601	 0.0102642399	-0.139417
H	 0.8058749444	 1.6137477591	-0.6737601448	 0.294493
H	 0.998630589	-1.6973450858	-0.7472173858	 0.10013
H	 0.1969753651	-1.4797958663	 1.6287525833	 0.093466
H	-1.8309071137	-0.5122794824	 3.0748631501	 0.096724
H	-3.0653649225	 1.4944704313	 2.1645805187	 0.108317
H	-1.6383414244	 1.9236944764	 1.1080954075	 0.160601
H	-3.5196699732	-0.5637699465	 0.7729014716	 0.096714
H	-1.5092812658	-1.5299799263	-0.7005227223	 0.093467
