23
gdb 7545	2.90581	1.33053	1.08648	1.1314	82.59	-0.2179	0.081	0.2989	1233.4718	0.210124	-330.307491	-330.297589	-330.296645	-330.341851	36.67	
C	-0.1091251296	 1.6258342518	 0.0314389581	-0.379263
C	-0.077090696	 0.1055989413	-0.1498783681	-0.17084
C	-1.3965871975	-0.5627589993	 0.2677590517	-0.247481
C	-1.440705383	-2.0760898569	 0.087641961	 0.346937
C	-0.4178006927	-2.855940148	 0.8948419068	-0.444771
C	-2.7670867422	-2.7143574748	-0.1792144553	-0.300291
N	-1.7395551548	-2.691590906	-1.2149143923	-0.110042
C	-1.9915247812	-1.8877290828	-2.3996632597	-0.314377
H	 0.8396622314	 2.0839749864	-0.2646063758	 0.111668
H	-0.9017405209	 2.0813118918	-0.572914841	 0.112941
H	-0.2972940288	 1.8957027912	 1.0767970963	 0.113742
H	 0.1399682046	-0.1352066118	-1.1976579398	 0.101141
H	 0.7511291726	-0.3107506714	 0.4350377784	 0.101643
H	-1.5856334307	-0.3448730261	 1.3281659463	 0.095869
H	-2.2228793576	-0.0955591683	-0.2787978167	 0.093532
H	-0.5112413018	-2.6326389752	 1.964099992	 0.10794
H	-0.5606337491	-3.9291383865	 0.7493436756	 0.122307
H	 0.6053273027	-2.6145081354	 0.5887403296	 0.118458
H	-3.011264522	-3.6904237756	 0.2352514077	 0.104538
H	-3.6236598217	-2.0500158836	-0.2985440161	 0.096561
H	-2.5563363196	-0.9590618687	-2.2224563527	 0.097603
H	-1.0403569319	-1.6256148135	-2.8746548276	 0.121072
H	-2.5647019002	-2.4913103088	-3.1116054285	 0.12111
