16
gdb 123753	4.98979	1.06472	0.94154	1.5846	69.67	-0.2345	-0.023	0.2115	1218.6808	0.126846	-434.037997	-434.030699	-434.029755	-434.070898	26.63	
C	-0.1905530955	 1.282915715	-0.0257662099	-0.157724
C	 1.3229997946	 1.4696505558	-0.2947454947	-0.241406
C	 1.5219029946	 0.2153084173	 0.5901482849	-0.083597
N	 0.0865531257	-0.1135022	 0.3936978357	-0.308796
C	 2.4637134661	-0.8574476102	 0.1502851315	 0.406317
N	 3.1948932947	-0.7722586802	-0.9286600252	-0.179657
O	 3.8953756995	-1.9867243716	-0.949264505	-0.153328
C	 3.4953149422	-2.6583358658	 0.1305791456	 0.105141
N	 2.6258460795	-2.0359852506	 0.8576084063	-0.314082
H	-0.551394388	 1.9348094503	 0.7823211878	 0.092545
H	-0.8731354419	 1.3684222961	-0.8767855964	 0.108584
H	 1.5982106874	 1.2851238607	-1.3331171315	 0.140354
H	 1.7883187307	 2.3924712337	 0.0504153306	 0.109272
H	 1.771328442	 0.4801186229	 1.628223543	 0.087019
H	-0.3984112434	-0.4350261247	 1.2242187649	 0.223432
H	 3.9293283518	-3.6345658188	 0.2910422624	 0.165926
