17
gdb 66842	2.7202	1.91682	1.45892	2.3234	71.31	-0.2239	0.0702	0.2941	922.4223	0.135937	-421.736813	-421.729672	-421.728728	-421.767772	29.657	
O	-0.123359606	 1.274765539	 0.0105569404	-0.468188
C	-0.0023373221	-0.0923890413	 0.0766524995	 0.358396
C	 0.2125774353	-0.996750791	-1.1783307266	-0.254961
C	 0.9560560252	-2.1790725319	-0.5272689541	-0.047667
C	 1.9527980536	-1.5830488569	 0.5023081717	-0.250861
C	 0.6917904163	-0.960572452	 1.1520918864	-0.118033
C	-0.1878202625	-2.1350590754	 0.5609185778	-0.137985
C	-1.0239762635	-1.1201387136	-0.2944177302	 0.3262
O	-2.3626858145	-0.9723340013	-0.5340667295	-0.453475
H	 0.7056066538	 1.6432360681	-0.3156894663	 0.284327
H	 0.3154964382	-0.5477639987	-2.1586815518	 0.084897
H	 1.1954781688	-3.0555669523	-1.129784694	 0.062504
H	 2.3901222095	-2.3616776343	 1.1348366261	 0.098624
H	 2.7440818695	-0.916366459	 0.1420910905	 0.083424
H	 0.6489176224	-0.6359791974	 2.1910534855	 0.071382
H	-0.5449747075	-2.9822371063	 1.1412538467	 0.072921
H	-2.6318711164	-1.6300108958	-1.1855039322	 0.288493
