21
gdb 40850	4.65196	1.25013	1.15907	0.0495	86.94	-0.2659	0.0939	0.3598	1138.6365	0.184088	-349.866824	-349.859612	-349.858668	-349.898362	29.926	
C	 0.0992513658	 1.4163660584	-0.5806341639	-0.207437
C	 1.3589386577	 1.6930130621	 0.2873937233	-0.304735
C	 1.2611068688	 0.2389995148	 0.8132456543	 0.411088
C	-0.1970126501	 0.1662633204	 0.2947450055	-0.304735
C	 2.30819028	-0.8298895295	 0.4431714506	-0.115103
C	 3.2427743069	-0.4289692476	 1.6387935729	-0.038139
C	 3.348978611	-1.8824096846	 2.1401640341	-0.274626
C	 1.8954122198	-1.7510501293	 1.6451586623	-0.038139
C	 1.7711151848	-0.2742447861	 2.1669168364	-0.140202
H	-0.66544766	 2.1955122105	-0.6178993215	 0.093721
H	 0.3628216349	 1.1428168278	-1.6060226039	 0.100443
H	 2.2779244013	 1.9858256987	-0.2282916274	 0.093347
H	 1.1577674312	 2.4261885093	 1.0758122981	 0.096044
H	-0.9224441347	 0.3850178109	 1.0856404518	 0.096044
H	-0.509650523	-0.7494329039	-0.2151210815	 0.093347
H	 2.6349748441	-1.1676721765	-0.5432540483	 0.063363
H	 4.0033536913	 0.3529192792	 1.62376189	 0.068904
H	 4.0047663978	-2.5534570542	 1.57523687	 0.089163
H	 3.4922669774	-2.0232557289	 3.2166895612	 0.08968
H	 1.0992043014	-2.4967381343	 1.6374823828	 0.068904
H	 1.4784318635	 0.0288873626	 3.1751282033	 0.059068
