19
gdb 67893	2.37453	1.81049	1.31714	3.0585	78.58	-0.2275	-0.0214	0.2061	1027.924	0.158589	-385.85946	-385.851624	-385.85068	-385.891447	31.555	
C	-0.0062101041	 1.5233703857	-0.0249848417	-0.490126
C	-0.0085622267	 0.0114684867	 0.006806725	 0.35268
C	-1.3881351388	-0.7198046921	 0.0058308846	-0.429473
C	-0.925597209	-1.5154584435	 1.2514713704	 0.405592
O	-1.44452758	-2.3489158022	 1.9353261328	-0.301314
C	 0.4288004897	-0.777432783	 1.2910267825	-0.203553
C	 1.5995173555	-1.4070376364	 0.4951745181	-0.045956
C	 1.1324668921	-2.1616540261	-0.717523565	-0.313862
C	 1.1602958652	-0.6597969752	-0.7678735795	-0.09458
H	 0.9917226244	 1.9194215894	 0.1939258337	 0.120714
H	-0.3007186436	 1.8977580464	-1.0129152916	 0.121029
H	-0.7026236271	 1.9392447053	 0.7112546551	 0.11591
H	-2.2247454413	-0.0564191449	 0.2533972834	 0.127467
H	-1.6676358584	-1.3114602476	-0.87008462	 0.127299
H	 0.702095818	-0.2741327383	 2.219763511	 0.087761
H	 2.5921267799	-1.5468173218	 0.9041687306	 0.094744
H	 1.9289756086	-2.6412918471	-1.2782582729	 0.117002
H	 0.2066901319	-2.729761347	-0.7208183042	 0.122753
H	 1.7705661237	-0.1319697485	-1.4922813824	 0.085914
