16
gdb 9735	3.97697	1.54013	1.4915	1.5176	66.32	-0.2467	0.0311	0.2778	904.9551	0.12928	-383.701937	-383.693868	-383.692924	-383.734548	29.761	
O	-0.1919682074	 1.3202207752	-0.1297587571	-0.462311
C	-0.0052365065	-0.0893006755	 0.0095629369	 0.168769
C	-1.4105321249	-0.7079415991	-0.1084472955	-0.241098
C	-1.6260006511	-0.6714276066	-1.6227318563	-0.080609
O	-0.3431483328	-0.912182179	-2.2048565517	-0.264303
C	 0.6779110688	-0.6863295525	-1.2473181117	-0.087654
C	 0.7082218054	-0.4065658753	 1.2456533441	 0.256303
C	 1.3252542876	-0.6411479061	 2.25044327	-0.429744
H	 0.6724071889	 1.7403803214	-0.0632821614	 0.285086
H	-1.3922377658	-1.7350958134	 0.2640731729	 0.118352
H	-2.1427113138	-0.1306195344	 0.4576436362	 0.124372
H	-2.316617902	-1.4432909967	-1.9766113606	 0.104192
H	-2.0035270529	 0.3095903467	-1.9390926754	 0.109621
H	 1.4211911316	 0.0144671545	-1.6479346275	 0.098327
H	 1.1852968157	-1.629451173	-1.0035596625	 0.10278
H	 1.8594933692	-0.8514519766	 3.1441595895	 0.197917
