16
gdb 96943	3.23821	1.09255	0.95996	2.8214	73.96	-0.2528	-0.0353	0.2175	1249.3987	0.12234	-437.852789	-437.844254	-437.84331	-437.886726	30.305	
C	 0.0232729019	 1.4021622241	 0.0943750793	-0.344236
N	 0.1532731403	-0.0447690399	-0.0045836827	-0.332471
C	 0.5843680477	-0.6938106117	 0.9668761971	 0.482152
O	 1.0278457375	-0.2597003807	 2.2376199925	-0.284683
C	 1.4657364854	-1.6047112348	 2.5296710611	 0.068443
C	 0.3002563478	-2.5473784806	 2.5946344919	-0.141185
C	-1.0669345706	-2.1470052889	 3.030770908	 0.159317
O	-1.8088215045	-2.8933968668	 3.6201920455	-0.259783
C	 0.9179388954	-2.1257433958	 1.234589711	-0.255121
H	 0.5663514713	 1.8631597016	-0.7369299576	 0.134922
H	-1.0317156592	 1.6713827137	-0.02442466	 0.136897
H	 0.3916543188	 1.8210228515	 1.0374906673	 0.131935
H	 2.4167032119	-1.727690622	 3.0293835381	 0.138291
H	 0.5612116246	-3.5658696492	 2.8687344851	 0.127121
H	-1.3650813205	-1.1102398738	 2.7796673464	 0.101143
H	 1.2790612521	-2.8572556766	 0.527496427	 0.137259
