17
gdb 47113	2.81966	1.68452	1.24096	4.4533	66.88	-0.266	0.0076	0.2735	1000.1696	0.139101	-459.012485	-459.00531	-459.004366	-459.045428	26.811	
O	-0.052624642	 0.0055314399	 0.0653413514	-0.342816
C	-0.0262260822	 1.2021750222	 0.081844296	 0.431304
O	-1.1470147177	 1.9545384079	 0.2033270028	-0.209914
C	-0.8563034612	 3.3556623968	 0.2754286272	-0.093331
C	 0.666451452	 3.5435330084	 0.0580610309	-0.067449
C	 1.4050687721	 4.1229630996	 1.2792172874	-0.098169
O	 1.6786087368	 3.005166381	 2.1081572882	-0.240189
C	 2.1132308431	 1.9766811591	 1.2332881224	-0.098005
C	 1.2039997398	 2.0979470676	-0.015122804	-0.184512
H	-1.4545801912	 3.8593777208	-0.4883659709	 0.12183
H	-1.1747976694	 3.7132731823	 1.2599402087	 0.125155
H	 0.8609329607	 4.1232036094	-0.8452694126	 0.091494
H	 2.3398403734	 4.6132221435	 0.9617961458	 0.095019
H	 0.8158184759	 4.8395598406	 1.857812215	 0.116233
H	 3.1656765328	 2.1271582108	 0.9478649078	 0.097343
H	 2.0167698653	 1.0164668354	 1.7436493823	 0.14045
H	 1.7415973917	 1.8490614848	-0.9311149684	 0.115557
