23
gdb 95963	2.45095	1.47082	1.2138	1.4992	84.14	-0.2544	0.0638	0.3182	1161.8237	0.207365	-388.295046	-388.286164	-388.28522	-388.328814	34.743	
O	 0.0210297198	 1.6419986722	 0.4128762323	-0.440231
C	-0.0540247091	 0.2623060658	 0.0599878115	 0.089309
C	 0.7206141349	-0.6476262156	 1.0518795609	-0.241197
C	-0.35106909	-1.364594439	 1.920688309	-0.20567
C	-1.6798509567	-0.6696075263	 1.5636077404	-0.304329
C	-1.5016315233	-0.2800999022	 0.0941573546	 0.355303
C	-2.5536940135	 0.5966248704	-0.633324319	-0.292831
C	-2.458840029	-0.3434061688	-1.8659770965	-0.20913
C	-1.7414589927	-1.3945742757	-0.9766792093	-0.267544
H	-0.3223956369	 1.7437230996	 1.3069468589	 0.275518
H	 0.3687866707	 0.2245846922	-0.9481163316	 0.076353
H	 1.3478552581	-1.3689107701	 0.5206075134	 0.10233
H	 1.3957573586	-0.0234610088	 1.6442209576	 0.103661
H	-0.4076950316	-2.4240623594	 1.6509707955	 0.103824
H	-0.125873691	-1.3247176714	 2.9897898688	 0.09551
H	-2.5582046589	-1.3000983647	 1.7320836965	 0.092586
H	-1.8225559782	 0.2329676724	 2.1764584125	 0.082273
H	-3.5333850445	 0.5446408244	-0.1480888094	 0.090341
H	-2.283532311	 1.6456005392	-0.7707795735	 0.109011
H	-3.3967379967	-0.649813057	-2.3345915993	 0.094637
H	-1.8047526987	 0.0591435768	-2.6440052429	 0.10479
H	-0.8582613133	-1.8884197274	-1.3934722586	 0.092267
H	-2.4262528273	-2.1671751464	-0.6130500515	 0.093218
