19
gdb 35682	2.32949	1.54699	1.11366	1.4389	81.49	-0.2377	0.0441	0.2818	1144.8659	0.158416	-385.831985	-385.823414	-385.82247	-385.865481	32.651	
C	-0.4179364441	-1.0502946837	-0.6073563715	-0.447879
C	-0.278578106	 0.0801640736	-0.2180110983	 0.299275
C	-0.0638779692	 1.4275294636	 0.2589272075	-0.222252
C	 0.2119701161	 1.6821427514	 1.7760059858	-0.238617
C	 1.2204483386	 2.7864110883	 1.3664017609	-0.30141
C	 1.2910748573	 2.158611322	-0.0414329518	 0.448233
C	 2.5262090844	 1.3605621275	-0.5053482321	-0.351138
C	 2.5105541498	 2.3224805213	-1.7086107926	-0.076128
O	 1.3537312225	 3.014382174	-1.1854605424	-0.312326
H	-0.5618255662	-2.0443739937	-0.9514807899	 0.193911
H	-0.8657196025	 2.0900031312	-0.0860975419	 0.114114
H	-0.6444208987	 1.9731093524	 2.3855372003	 0.110883
H	 0.701529944	 0.8214464503	 2.2363622473	 0.115781
H	 0.7476837037	 3.7713186036	 1.3109425803	 0.117419
H	 2.154348127	 2.869687256	 1.9270295153	 0.100789
H	 3.3967719686	 1.439157789	 0.1483157904	 0.108253
H	 2.3321865203	 0.3127789179	-0.7380902095	 0.12825
H	 3.3741544073	 2.9908423456	-1.801634056	 0.103982
H	 2.3041484772	 1.8653382199	-2.6828566017	 0.108861
