21
gdb 72921	2.49087	1.9611	1.51903	1.6002	80.35	-0.2416	0.0859	0.3274	975.386	0.18478	-387.058772	-387.051496	-387.050551	-387.089848	30.829	
C	-0.0420090724	 1.4792114734	 0.0239353022	-0.487141
C	 0.0218994763	-0.0374615142	-0.0068560195	 0.389413
C	-1.2909097924	-0.8116480367	 0.332878354	-0.302608
C	-0.5617602821	-1.5514375888	 1.4963046624	-0.2446
C	 0.7575475974	-0.8036009635	 1.1522187337	-0.050881
C	 1.8275601994	-1.5037072235	 0.2885466034	 0.064787
C	 1.0656088291	-2.0898058096	-0.920142935	-0.254448
C	 0.9039216067	-0.5754598287	-1.1636238719	 0.017263
O	 2.2437630646	-0.3965107999	-0.5847495935	-0.304032
H	 0.9602025995	 1.9055121085	-0.0810380298	 0.131992
H	-0.6682801098	 1.864836043	-0.7902074056	 0.108492
H	-0.4681071801	 1.8408662186	 0.9661524695	 0.108532
H	-2.0990515127	-0.1569324573	 0.6688417453	 0.098575
H	-1.6851803271	-1.4471366943	-0.4650441046	 0.096167
H	-0.9565285042	-1.3041676872	 2.4842329189	 0.101512
H	-0.5182510258	-2.6411149718	 1.4171804648	 0.098443
H	 1.2041289572	-0.2088961452	 1.9509804522	 0.069974
H	 2.6560987549	-2.0178620686	 0.7762908631	 0.076309
H	 1.7547930252	-2.5315148837	-1.6400042313	 0.110858
H	 0.1922267437	-2.7267093835	-0.7723803595	 0.098982
H	 0.7888856826	-0.1371449171	-2.1562752387	 0.072409
