18
gdb 82110	3.03296	1.2935	1.05815	2.6296	71.3	-0.2394	0.0646	0.304	1152.4614	0.148081	-439.004286	-438.996287	-438.995343	-439.037412	30.497	
O	 0.3497085842	 1.4377098929	 0.2211406736	-0.425338
C	 0.1428190369	 0.0638753802	 0.0698864843	 0.108682
C	 0.3187902292	-0.7964006228	 1.3297273993	-0.024882
O	-0.6677112151	-0.3019308203	 2.2534919358	-0.259475
C	-1.0746408443	-1.2634800015	 1.2648489704	 0.015728
C	-1.3562087279	-0.483542727	-0.0278782431	-0.110442
C	-2.4880639348	 0.5036930011	-0.0205630193	 0.032544
C	-3.0483083883	 1.0128228609	-1.2949209331	-0.240709
N	-3.8398456024	 0.0963118389	-0.4547856293	-0.32935
H	-0.0340061119	 1.6774769692	 1.0743401585	 0.293295
H	 0.7464772778	-0.2657936713	-0.7787174367	 0.095794
H	 1.2078189791	-1.2482528198	 1.7538639791	 0.110676
H	-1.5177811573	-2.1821422366	 1.6306797684	 0.111721
H	-1.4438029025	-1.1579090622	-0.8880196373	 0.071401
H	-2.5069604419	 1.1617408566	 0.8438927503	 0.096774
H	-3.4312838688	 2.0272541924	-1.3553267474	 0.121675
H	-2.623018346	 0.6362364993	-2.2222665826	 0.107922
H	-3.804970586	-0.8414550201	-0.849466821	 0.223983
