23
gdb 89629	3.83047	1.02489	0.94597	0.2481	90.37	-0.2281	0.0892	0.3172	1374.1406	0.206127	-351.117987	-351.109069	-351.108125	-351.151645	35.141	
C	-0.1758196369	 1.5749916425	 0.108092303	-0.40388
C	 0.0974848141	 0.0816961802	-0.0270101271	 0.043753
C	 1.2834220776	-0.4011614197	-0.9345176307	-0.334828
C	 1.8431846916	-1.2127308355	 0.2478761794	 0.414314
C	 2.1530581201	-0.262072958	 1.3719713892	-0.340458
C	 0.7213421442	-0.6776854692	 1.1523806263	-0.120524
C	 2.4388126911	-2.5740719611	 0.1672795788	-0.109636
C	 1.9921616426	-3.5884058174	-0.8585297384	-0.276893
C	 3.3570354913	-2.9563293258	-0.9713986014	-0.267598
H	 0.7154982984	 2.12260604	 0.4313754174	 0.113351
H	-0.4988930813	 2.0032904792	-0.8475231537	 0.110675
H	-0.9666896657	 1.7648354672	 0.8424030871	 0.112358
H	-0.8204575655	-0.4242644754	-0.3435522509	 0.071544
H	 0.9429597304	-1.0080076455	-1.7767995325	 0.100736
H	 1.9477248019	 0.3808308009	-1.3195299486	 0.089797
H	 2.6301199055	-0.7123396976	 2.2376113829	 0.105355
H	 2.4852380464	 0.7544317409	 1.1699947785	 0.099676
H	 0.1641738493	-1.199217127	 1.9231575741	 0.076495
H	 2.7058417601	-2.9858195647	 1.1375427851	 0.075584
H	 1.9273745817	-4.6267323322	-0.5520400684	 0.10838
H	 1.2366999495	-3.2940445876	-1.5790641196	 0.110036
H	 3.5083065375	-2.2266052258	-1.7600165819	 0.112841
H	 4.2311198564	-3.5597634683	-0.7524462387	 0.108922
