17
gdb 42665	2.60048	1.93145	1.70797	3.4456	71.15	-0.2162	-0.0191	0.1971	877.9014	0.139975	-417.999261	-417.992692	-417.991747	-418.030041	26.779	
O	-0.0107474884	 0.0588810549	 0.1062787384	-0.337813
C	-0.0217662221	 1.2593475631	 0.0375705963	 0.481766
C	-1.2075078276	 2.1666497734	-0.0190014506	-0.179526
C	-0.9998573932	 3.4767009678	 0.6912221019	-0.003315
C	 0.1827441078	 3.689331825	 1.6184271982	-0.199063
N	 1.2956565249	 2.7870298039	 1.287279058	-0.302909
C	 1.1789034388	 2.2278908691	-0.0667262164	-0.15597
C	 0.6428567124	 3.2423850224	-1.0871268894	-0.1756
N	-0.8037577908	 3.406907804	-0.7518776762	-0.123101
H	-2.1980270562	 1.7646029236	-0.1966282371	 0.110957
H	-1.9006188655	 4.0117342249	 0.9829395882	 0.107422
H	 0.4713933267	 4.7504548292	 1.5502978427	 0.105397
H	-0.1415475534	 3.5222497293	 2.6539784324	 0.119779
H	 2.1886021624	 3.247698041	 1.4102584147	 0.228177
H	 2.0989009332	 1.7151046787	-0.3433515648	 0.096865
H	 1.1449339591	 4.2137064894	-1.0423611234	 0.106834
H	 0.706603992	 2.8656297203	-2.113408223	 0.1201
