15
gdb 64541	4.38661	1.26818	1.141	3.8268	66.39	-0.2483	-0.0434	0.2049	1038.4161	0.110366	-457.672481	-457.66513	-457.664186	-457.704172	28.765	
O	-0.0499799493	 1.4647991722	-0.0718653242	-0.453692
C	-0.1028119108	 0.0946721492	 0.0200271271	 0.350742
C	 1.0010389462	-0.5581544047	-0.7543335936	 0.121865
O	 1.8115793713	 0.0973479356	-1.365071719	-0.288971
C	-0.450032142	-0.7286762155	 1.2531578035	-0.190048
C	-1.6624414676	-0.1694498807	 2.060741489	 0.015124
O	-2.1392088912	 1.033895394	 1.4602530441	-0.216172
C	-2.5167863483	-0.2144769437	 0.8807409546	 0.014693
C	-1.3512801119	-0.7772099326	 0.0102045589	-0.189662
H	 0.7223398894	 1.6413689553	-0.6358231532	 0.293994
H	 1.0335328826	-1.665543719	-0.7362412245	 0.099011
H	 0.2022830223	-1.5010134404	 1.6445728002	 0.101677
H	-1.8582145747	-0.3364886768	 3.1123863683	 0.119852
H	-3.5702702932	-0.4262833269	 0.7485339431	 0.119866
H	-1.4889711729	-1.5920145461	-0.6914671842	 0.10172
