17
gdb 46515	3.97552	1.16863	1.01719	3.0369	68.02	-0.2671	0.0086	0.2756	1153.4974	0.136691	-458.982395	-458.974729	-458.973785	-459.015141	29.215	
O	-0.0645272972	-0.1438795833	-0.2572602926	-0.320643
C	-0.0253111192	 1.0538396462	-0.2431779392	 0.423155
C	-1.1560548698	 1.9659672386	 0.2006068476	-0.362635
C	-1.3613128879	 3.0957239906	-0.8234127504	-0.297741
C	-0.0531106869	 3.8427315033	-1.0559771657	 0.398172
C	 0.0869219549	 4.8321876709	-2.1298714551	-0.230994
O	-0.0299136133	 5.2425750324	-0.7613919839	-0.267555
C	 1.1639013592	 3.1157002606	-0.5038752519	-0.158507
O	 1.0871195485	 1.6983888355	-0.696687933	-0.21947
H	-2.0488973318	 1.3527849697	 0.3236434769	 0.138857
H	-0.9072837865	 2.3874403686	 1.1827767464	 0.137165
H	-1.7163230736	 2.6631420042	-1.7650444069	 0.127712
H	-2.119687477	 3.8054245034	-0.4823551133	 0.130594
H	 1.0594437447	 5.0039016009	-2.5895469282	 0.120678
H	-0.7713509901	 5.0659100831	-2.758951473	 0.121383
H	 2.084219133	 3.4349756952	-0.9949010076	 0.13173
H	 1.2567336428	 3.3428110403	 0.5660032901	 0.128097
