14
gdb 10010	3.33821	1.48257	1.03315	4.7906	71.05	-0.243	-0.0457	0.1973	1075.2866	0.104601	-378.704613	-378.695796	-378.694851	-378.738857	30.044	
C	 0.0104216389	 1.5968427242	 0.1142051968	-0.334296
N	 0.0499028322	 0.1533059516	 0.101067435	-0.240986
C	-1.018809407	-0.5211230308	 0.000352159	 0.27639
N	-1.0129762708	-1.9300589458	-0.0152580578	-0.352304
C	 0.0553644848	-2.8074069696	 0.0674874971	 0.158691
O	 1.2199489412	-2.5336462774	 0.1721679921	-0.262227
C	-2.3602095262	 0.00680331	-0.1102916239	 0.268071
C	-3.4808572216	 0.435148926	-0.20282268	-0.457777
H	 0.6288873623	 1.972053729	-0.7093325202	 0.137734
H	-0.993571527	 2.0340842044	 0.0319305829	 0.114481
H	 0.4766939204	 1.9518826257	 1.0405095152	 0.137738
H	-1.9227570683	-2.3571874208	-0.0994165275	 0.261336
H	-0.3237803577	-3.8498790918	 0.0222054482	 0.077053
H	-4.4666648913	 0.8242885654	-0.284214417	 0.216096
