20
gdb 112513	3.60645	0.94277	0.8501	3.6422	80.3	-0.277	0.0211	0.2981	1415.5236	0.170398	-403.158602	-403.149027	-403.148083	-403.193308	35.103	
C	 0.1566771319	 1.4812609483	 0.1701537383	-0.385634
C	-0.0521433735	-0.0277049155	 0.0039724519	-0.197045
C	 0.6590878668	-0.5842041989	-1.22167999	 0.028657
C	 2.2147319191	-0.5864759813	-1.2696705993	-0.249817
C	 2.14442564	-1.9626815728	-2.0003615463	-0.182027
C	 3.0763086377	-3.0131601242	-1.6411074479	 0.263152
N	 3.7714231881	-3.8812725731	-1.3217316081	-0.332465
C	 0.6786075585	-2.1217849597	-1.4470639416	 0.086534
O	 0.6313199028	-2.782964136	-0.2086202212	-0.418727
H	 1.2186109934	 1.7277596345	 0.2781929142	 0.1191
H	-0.2249899248	 2.0356283647	-0.6947566486	 0.112527
H	-0.3604999412	 1.8544099167	 1.0590703934	 0.117562
H	 0.3029791561	-0.5590429644	 0.8922942923	 0.119504
H	-1.124793917	-0.2454679325	-0.0749548477	 0.099459
H	 0.2699599675	-0.1078392531	-2.1298029665	 0.076397
H	 2.7215173214	 0.2193725163	-1.8021031989	 0.113985
H	 2.6480096063	-0.6921511977	-0.2731453578	 0.131577
H	 2.134301899	-1.8346730753	-3.0863776086	 0.122715
H	-0.0487126157	-2.5371061072	-2.1567666109	 0.07462
H	 0.9526023035	-3.684906769	-0.3245120468	 0.299928
