17
gdb 71374	2.65437	1.77526	1.27226	3.7247	72.74	-0.2293	0.0066	0.2359	1001.7501	0.134598	-421.79482	-421.786678	-421.785734	-421.827054	31.442	
C	-0.0015819973	 1.4652592336	 0.0500801224	-0.514101
C	-0.0377272327	-0.0331102362	-0.0007776292	 0.257911
C	-1.2516547126	-0.9410091185	-0.239168283	-0.29035
C	-0.3429789126	-2.1055086755	 0.2454029708	-0.193417
C	 0.5994692196	-1.0354606814	 0.9179184772	-0.166417
C	 1.2137339006	-0.8218974187	-0.485378566	 0.217455
O	 2.4090155946	-0.2033057245	-0.7477137837	-0.450656
C	 0.7448787045	-2.1992844983	-0.8536428487	 0.37674
O	 1.1720621806	-3.0858760107	-1.5370253417	-0.343707
H	 1.0048771072	 1.8237876872	 0.284365788	 0.136382
H	-0.3020888854	 1.9004336553	-0.9104256932	 0.122403
H	-0.6861714323	 1.8461662109	 0.8151612423	 0.128699
H	-2.0555589748	-0.7206246203	 0.4702860138	 0.106398
H	-1.6622431479	-1.0135236608	-1.2533901514	 0.099986
H	-0.7352876167	-3.0060329015	 0.7080066665	 0.096373
H	 1.1114868043	-0.9876412457	 1.8669053991	 0.117994
H	 2.3330702411	 0.2861099354	-1.5747569032	 0.298307
