21
gdb 104677	2.14567	1.74149	1.15679	1.2319	78.76	-0.2345	0.0796	0.314	1146.8673	0.180752	-424.139287	-424.130139	-424.129195	-424.173423	34.704	
C	 0.650130419	-0.8968424057	 1.6044104354	-0.377234
C	 0.3944545081	-0.3790627206	 0.1841770163	-0.245832
C	-1.0831734066	-0.4467500127	-0.210965817	 0.479541
O	-1.6826111805	 0.5432258117	 0.5721672156	-0.321756
C	-3.0894084465	 0.6824507547	 0.6921084217	-0.220994
C	-1.495415295	-0.6103066441	-1.7202451303	-0.035344
C	-0.9784757324	-2.0686059066	-1.7087360762	-0.232001
C	-1.8057265289	-1.8287450008	-0.4255259181	-0.035368
O	-2.809381862	-1.1380676677	-1.2750809532	-0.319203
H	 1.6986083879	-0.7617247497	 1.8862538322	 0.110925
H	 0.0294093598	-0.3592462551	 2.3250027661	 0.133557
H	 0.4200725946	-1.9650132042	 1.6874578116	 0.109946
H	 0.6839907446	 0.6755812029	 0.1220968322	 0.111452
H	 1.0216933468	-0.9174507056	-0.5285453586	 0.096683
H	-3.2342747671	 1.4542914996	 1.4543469818	 0.109796
H	-3.5626361674	 0.9982231694	-0.2417944228	 0.120921
H	-3.5736863978	-0.2418461577	 1.0251095875	 0.112242
H	-1.4997156844	 0.1186682343	-2.5316279659	 0.092677
H	-1.4938812832	-2.7036607511	-2.4286674195	 0.113878
H	 0.0879706579	-2.282153645	-1.6471391894	 0.102662
H	-2.1810273268	-2.5534823459	 0.2979697607	 0.093453
