16
gdb 49490	2.1674	1.74912	1.18231	5.5427	74.86	-0.2656	-0.046	0.2196	1049.8781	0.124662	-400.716903	-400.709215	-400.708271	-400.749497	28.72	
O	-0.6846723321	 0.8275983221	 0.5717338134	-0.238703
C	 0.1808162359	 1.0045269075	-0.2481809542	 0.124738
C	 1.3236004881	 1.9744313925	-0.1173468488	-0.109075
C	 1.1434849956	 3.4708230483	-0.5867485423	-0.088883
C	 0.2708666646	 3.7129647731	 0.6783605529	-0.261074
C	 1.4907230989	 2.8573561494	 1.1608193326	 0.234195
C	 2.3857360952	 3.7986368413	 0.2888056201	-0.254996
C	 1.7689153543	 2.394673101	 2.4969669068	 0.166367
N	 2.0103019245	 2.033940504	 3.5685207799	-0.348782
H	 0.1912484331	 0.4288813822	-1.2022176027	 0.087915
H	 2.2437924247	 1.5084721025	-0.4881472962	 0.099358
H	 0.9467717624	 3.8041082657	-1.60393983	 0.099719
H	 0.2460606626	 4.7394618054	 1.0493045995	 0.113568
H	-0.7034740839	 3.2332119565	 0.731755709	 0.144689
H	 3.3472899019	 3.3931118837	-0.0333606522	 0.113521
H	 2.4722125143	 4.8275749848	 0.6430676723	 0.117444
