13
gdb 48522	2.84319	1.68781	1.21544	2.0986	63.6	-0.2492	-0.0489	0.2003	957.4557	0.087493	-456.509233	-456.502072	-456.501128	-456.541275	26.222	
O	-0.8787920439	 1.3535279767	-0.1321726414	-0.27124
C	 0.2216434635	 0.877765108	 0.0402295614	 0.035854
C	 1.4478624899	 1.6827844007	 0.0604374567	 0.037859
C	 1.4734500419	 3.1163427266	 0.6982631021	 0.086748
O	 2.81278684	 3.3989240628	 1.0668059385	-0.278465
C	 3.1955639605	 2.8898630714	-0.2474671322	-0.083493
C	 1.7121297051	 3.0305321708	-0.7378565126	-0.159521
C	 2.9036588777	 1.3666963294	-0.1100654553	 0.410662
O	 3.5378055418	 0.370385056	-0.2902853454	-0.3171
H	 0.3714272092	-0.2092737551	 0.2019571053	 0.10518
H	 0.6417928629	 3.4613772765	 1.2977009952	 0.156272
H	 4.1039590673	 3.3135880989	-0.6643733099	 0.122306
H	 1.2104132041	 3.3374839274	-1.6425938522	 0.154937
