19
gdb 100393	1.84869	1.30633	0.95067	3.2165	72.6	-0.2536	-0.039	0.2147	1310.5242	0.154072	-460.179198	-460.168491	-460.167546	-460.215715	37.183	
C	 0.6917027072	-0.5826817672	 1.3891199157	-0.422339
C	 0.105082554	 0.0286034407	 0.112948622	-0.197409
C	 0.8441544863	-0.3750822749	-1.1904917357	 0.244542
O	 2.2330763953	-0.0628953355	-1.1216525604	-0.467886
C	 0.6079261965	-1.8499067898	-1.5654169234	-0.340011
C	 1.5412466703	-2.3008052479	-2.670989969	 0.164761
O	 2.2634382705	-3.2604809668	-2.593133782	-0.244864
C	 0.3072025382	 0.5522085634	-2.2829267159	 0.155802
O	-0.6878075066	 0.3375118329	-2.9237371256	-0.261323
H	 0.6499098414	-1.6761726189	 1.385958278	 0.130429
H	 1.7330564653	-0.2774347902	 1.535491522	 0.122703
H	 0.1305765773	-0.236965751	 2.2617342495	 0.131899
H	-0.9501041638	-0.2448375684	 0.0044296139	 0.120398
H	 0.1423015312	 1.1218630048	 0.1966680309	 0.111294
H	 2.6496672822	-0.6515703926	-0.4837429272	 0.295689
H	 0.7473640844	-2.5142301442	-0.7087711364	 0.116513
H	-0.4254934565	-1.9421704001	-1.9226532879	 0.148003
H	 1.5113126871	-1.6771353793	-3.5915298501	 0.087696
H	 0.9099772298	 1.477888055	-2.4040464783	 0.104102
