21
gdb 95335	3.04149	1.31963	1.06828	2.0155	85.53	-0.2378	0.0146	0.2524	1191.7928	0.184684	-387.092382	-387.084282	-387.083338	-387.124789	32.565	
O	 0.0540059433	 1.4651197097	-0.0010305752	-0.437745
C	 0.0154080206	 0.031082991	 0.0262592713	 0.113549
C	-1.4300912055	-0.4952625783	 0.1866702695	-0.222923
C	-2.1944994149	-0.5985684137	-1.1489956363	-0.24735
C	-1.4313128486	-1.5811095149	-2.0285266488	-0.021181
C	-1.3848122284	-1.5406790514	-3.5916334299	-0.253365
C	 0.1723177254	-1.7084890382	-3.5107675332	-0.318072
C	 0.0490481919	-1.2722725453	-2.065815493	 0.358365
C	 0.7120362552	-0.5153206817	-1.1998885594	-0.297819
H	-0.2132783977	 1.738190301	-0.8852080557	 0.273392
H	 0.5767668383	-0.2261728867	 0.9327209403	 0.085828
H	-1.3947312821	-1.4906324436	 0.648979895	 0.093882
H	-1.9446657232	 0.1684488856	 0.8874346876	 0.103283
H	-3.231455499	-0.9058643689	-0.9775726853	 0.093656
H	-2.2294418962	 0.3854397834	-1.6360512284	 0.084294
H	-1.6168563365	-2.6109815447	-1.6933860369	 0.079439
H	-1.9452085375	-2.306583208	-4.1320533077	 0.09986
H	-1.6600831599	-0.5548707311	-3.9763005482	 0.10496
H	 0.4680038057	-2.7585579163	-3.6145983292	 0.112269
H	 0.7946697149	-1.1048620999	-4.1763201875	 0.10927
H	 1.7289619642	-0.173445588	-1.3783062889	 0.086408
