17
gdb 65622	3.34222	1.33004	1.21602	4.6264	72.72	-0.2473	0.0113	0.2586	1065.8851	0.136	-417.971166	-417.963079	-417.962135	-418.003679	30.716	
C	 0.1551080695	 1.4508453793	-0.0793473961	-0.442734
C	 0.0456321086	-0.05880506	 0.0180278655	 0.253761
O	 0.9608386879	-0.7532462044	-0.8781515203	-0.325137
C	 1.4674604496	-1.5979299155	 0.1789482282	 0.108529
C	 2.7580334728	-1.0651263674	 0.8322710009	-0.187948
N	 1.9364347737	-0.1514232902	 1.6816594428	-0.319171
C	 0.6866211701	-0.7963959726	 1.243270081	-0.104251
C	-1.3323091207	-0.5221140112	-0.221522842	 0.267276
N	-2.4142016734	-0.8996864196	-0.3740350549	-0.337557
H	 1.1518490911	 1.751279972	 0.2466075881	 0.15
H	-0.0107920584	 1.7674767965	-1.1124377503	 0.143025
H	-0.5940054889	 1.9321744273	 0.5563013282	 0.1334
H	 1.371875749	-2.6600727164	-0.0482048569	 0.101265
H	 3.2913997197	-1.8413269236	 1.3947747803	 0.106716
H	 3.4566074384	-0.5526894969	 0.1643364767	 0.12184
H	 2.1141861458	-0.2154972236	 2.6753843443	 0.231816
H	 0.0189263953	-1.1977320739	 2.0048559446	 0.09917
