16
gdb 44105	3.00581	1.83844	1.65025	3.4428	74.46	-0.2394	-0.0345	0.2049	869.235	0.126319	-400.715092	-400.708707	-400.707763	-400.745713	26.194	
O	-0.165660891	 0.2054640472	 0.6405477199	-0.300591
C	-0.1203574149	 1.3288834171	 0.2313585136	 0.39106
C	-1.3564317646	 2.2691731247	-0.0710939816	-0.365311
C	-0.619218984	 3.4804106185	 0.4449506944	 0.078817
C	-0.4226285694	 3.6982286503	 1.7584323297	-0.113321
C	 1.0551980091	 3.667905784	 2.097642563	-0.26981
C	 1.6820072889	 3.1876463013	 0.7866341964	-0.029945
C	 0.7039506965	 3.4466028178	-0.2831002713	-0.08483
N	 1.096364309	 2.0507784672	-0.0501740941	-0.153289
H	-1.602137664	 2.2872834586	-1.1375987261	 0.125872
H	-2.2181819312	 1.9409497397	 0.5084231839	 0.134644
H	-1.1771674909	 3.5142300085	 2.5163134082	 0.1098
H	 1.5191259628	 4.6253567961	 2.3741452419	 0.126014
H	 1.2141205515	 2.9873623318	 2.9428099151	 0.136522
H	 2.7526095211	 3.2808031188	 0.6386458111	 0.113084
H	 0.8850830711	 3.8961273784	-1.254427354	 0.101283
