18
gdb 126668	6.39273	0.69896	0.63759	4.0286	74.67	-0.2319	-0.0072	0.2247	1726.1815	0.14724	-439.068633	-439.059859	-439.058914	-439.103198	31.327	
C	-0.0653300885	 1.5056007375	-0.0665011624	-0.385774
C	 0.0112633213	-0.0214833257	 0.0105639116	-0.190716
C	 0.7473016733	-0.4957597798	 1.2529108075	-0.060652
O	 0.7720479229	-1.9218646915	 1.2446551692	-0.265471
C	 1.3949626778	-2.4967635389	 2.2900882274	 0.221987
C	 2.022588045	-1.9738719817	 3.3821407015	-0.056963
O	 2.493802724	-2.9792596373	 4.1528850854	-0.169986
N	 2.1771167667	-4.1924772138	 3.5690080689	-0.123173
C	 1.5286377505	-3.9033212791	 2.4692750185	-0.058783
H	 0.9330031283	 1.9555775186	-0.0955887245	 0.120661
H	-0.5982828025	 1.8230635059	-0.9667090834	 0.124492
H	-0.5936239354	 1.9240574086	 0.7970953613	 0.120658
H	-0.9954682622	-0.4540187628	 0.0151971772	 0.114961
H	 0.5220757653	-0.4226708067	-0.8718964861	 0.114963
H	 1.7791601279	-0.1129014783	 1.2704645591	 0.105161
H	 0.2449763282	-0.1447272792	 2.167275166	 0.105165
H	 2.2095017573	-0.975004307	 3.7368957907	 0.145666
H	 1.1691360002	-4.693425019	 1.8265539524	 0.137805
