19
gdb 55021	3.03564	1.17823	1.03363	4.8834	76.98	-0.2286	-0.0219	0.2067	1236.5473	0.158829	-419.167281	-419.158199	-419.157255	-419.201791	33.084	
C	 0.3948718733	 1.3033299206	-0.4504827955	-0.483353
C	 0.0872827467	 0.1071938716	 0.4312029729	 0.407788
O	 0.9100034224	-0.3769101801	 1.1725592108	-0.29626
C	-1.3184137383	-0.4232649684	 0.3109720042	-0.150831
N	-1.6269014666	-1.7004304104	 0.9643321608	-0.32361
C	-2.2865036586	-0.5082150249	 1.4701157272	-0.025947
C	-2.001358527	-0.0939952979	 2.8828626675	-0.011221
C	-2.0861968382	-1.1289553666	 3.9511457846	-0.232558
N	-0.7995966282	-0.5273103096	 3.5924487332	-0.310199
H	 1.3962547587	 1.6750213304	-0.2325947135	 0.148022
H	 0.3321201979	 1.0193995854	-1.5078371014	 0.140144
H	-0.3423476983	 2.0982845423	-0.2902360474	 0.140879
H	-1.7865866691	-0.215827157	-0.6506269293	 0.089283
H	-2.245606026	-2.2621512637	 0.3878551947	 0.242393
H	-3.3251408561	-0.341569214	 1.1793889753	 0.092649
H	-2.319567313	 0.922018859	 3.1125415422	 0.087353
H	-2.4668847334	-0.8675719025	 4.9347932513	 0.111351
H	-2.2862392259	-2.1487148028	 3.6319076833	 0.112881
H	-0.2630212502	-1.1505096516	 2.9914552891	 0.261235
