17
gdb 107549	2.3357	1.45577	1.11273	3.2612	68.8	-0.2502	-0.0303	0.2199	1118.3123	0.133798	-458.910986	-458.902282	-458.901338	-458.945034	31.445	
O	 0.0206899723	 1.4381242331	 0.1059054025	-0.409631
C	 0.026280153	 0.0266748088	-0.0725857814	-0.184752
C	-1.3567480382	-0.5443019313	-0.0680565124	 0.213578
C	-2.1099771383	-1.0167535189	 1.1714181102	-0.36195
C	-1.9251721615	-1.9438382543	 0.0150712943	 0.054094
O	-2.9066343467	-1.6996799182	-0.99601853	-0.282692
C	-2.3890433951	-0.3712165477	-1.2041433332	 0.004334
C	-3.361389066	 0.7648588299	-1.0089745358	 0.141198
O	-4.465788561	 0.6617029367	-0.542865931	-0.246709
H	-0.3861359181	 1.6213083583	 0.9598130459	 0.286904
H	 0.5078652171	-0.1392715016	-1.0425830026	 0.11763
H	 0.6404321532	-0.4786983711	 0.6891081418	 0.095839
H	-1.4689692437	-1.2072413847	 2.0278030995	 0.118649
H	-3.1055799387	-0.6483918676	 1.3994463307	 0.147609
H	-1.4583234104	-2.9212440455	 0.0427631067	 0.115205
H	-1.9041398921	-0.2858663932	-2.1868612819	 0.102345
H	-2.9287632562	 1.7514658173	-1.2957475235	 0.088349
