19
gdb 62716	2.73354	1.42754	1.25962	3.6874	82.39	-0.2343	-0.0502	0.184	1094.6888	0.159029	-385.917882	-385.909562	-385.908618	-385.950277	32.605	
C	-0.0964723333	 1.5519340784	 0.0067654598	-0.459635
C	 0.029689871	 0.0417381689	 0.0150734679	 0.315193
C	-1.1998015588	-0.6601998599	-0.535158155	-0.447785
C	 1.3545598204	-0.6842956784	-0.2356749332	-0.136902
C	 2.6181258484	 0.0914894688	-0.0847841577	-0.069352
C	 2.8102562856	 0.5138737277	 1.1740976658	-0.208889
C	 1.6930170409	 0.0466631973	 2.0438183303	 0.390945
O	 1.5738994583	 0.2171457415	 3.2361241955	-0.340128
C	 0.737542191	-0.7117566635	 1.1432195087	-0.214542
H	 0.8099384959	 2.0574166952	 0.341890076	 0.129672
H	-0.328845052	 1.9069965135	-1.003835052	 0.1153
H	-0.9165724263	 1.86352964	 0.6628497779	 0.127483
H	-1.3942729937	-0.3470333163	-1.5673358582	 0.121194
H	-1.0844501612	-1.7481121772	-0.5271524159	 0.117714
H	-2.0861776041	-0.411206904	 0.0590265959	 0.127146
H	 1.3366238537	-1.544737936	-0.8958856227	 0.09555
H	 3.267513593	 0.3077973365	-0.9262673133	 0.116089
H	 3.6196716617	 1.1287593827	 1.5455305921	 0.115997
H	 0.2430335496	-1.5823964653	 1.556616378	 0.104951
