13
gdb 52469	4.46641	0.58228	0.51679	3.8694	93.78	-0.2599	-0.1108	0.1492	2018.6433	0.085406	-419.396451	-419.386673	-419.385729	-419.43457	31.387	
C	 0.118326308	 1.3861805128	-0.2178535008	-0.520427
C	 0.0728180674	-0.0573209792	-0.1000764253	 0.25688
C	 0.0347747591	-1.2643978385	-0.0023130917	-0.177244
C	-0.0096097268	-2.6121099655	 0.1071858287	-0.252222
C	-0.0464443286	-3.8226770331	 0.204904053	 0.435823
C	-0.096719339	-5.249063701	 0.3213665305	 0.020396
O	-1.1016195841	-5.8909121363	 0.5570174266	-0.25199
C	 1.2266126136	-6.006875539	 0.1314269107	 0.084925
O	 2.2793869154	-5.4824470919	-0.1046288127	-0.215783
H	 1.1437437048	 1.7403640007	-0.3686358262	 0.168374
H	-0.4861311753	 1.7257225683	-1.0663507132	 0.169953
H	-0.277076338	 1.863440734	 0.6856661351	 0.169619
H	 1.0874753236	-7.1031114413	 0.2400545852	 0.111697
