19
gdb 80716	3.43013	1.00076	0.92925	3.7458	79.32	-0.2412	0.0297	0.2709	1310.852	0.15996	-382.036883	-382.028239	-382.027294	-382.070725	32.253	
C	-0.0615834049	 1.5904878949	 0.2255445104	-0.432977
C	 0.089676972	 0.1012844157	 0.0080494931	 0.035524
C	 0.5372372804	-0.6315710228	-1.1995960138	-0.106144
C	 1.6869838439	 0.0052831403	-1.9761792592	 0.021699
C	 1.4101628462	 1.2078042007	-2.8955840937	-0.373454
C	 2.6383350669	 1.7469647027	-3.4775992835	 0.257629
N	 3.6236990319	 2.1573709695	-3.920577287	-0.30434
C	 2.4173234238	 0.1444897521	-0.6152094378	-0.193648
N	 1.3538996281	-0.6548663362	 0.0987653088	-0.145427
H	-1.0310449089	 1.9268555008	-0.1569400568	 0.128049
H	-0.0347011472	 1.810802943	 1.2981397478	 0.13376
H	 0.7119997364	 2.1946532663	-0.249353879	 0.123693
H	-0.6779308681	-0.457400929	 0.5434967325	 0.102772
H	 0.006922401	-1.5155531589	-1.5436462933	 0.097312
H	 2.1884248187	-0.7622926124	-2.570960068	 0.109863
H	 0.744819168	 0.8993153694	-3.7110121224	 0.154307
H	 0.8967482093	 2.0125532694	-2.3626928491	 0.153134
H	 3.3685451908	-0.3865652035	-0.5716701139	 0.125309
H	 2.5667484816	 1.1548260581	-0.2244024251	 0.112937
