17
gdb 86872	2.79768	1.32408	1.07939	4.9777	70.	-0.243	-0.0427	0.2003	1145.5889	0.136358	-455.200568	-455.19188	-455.190936	-455.234471	30.823	
C	-0.0480388898	 1.3931484263	 0.0077135704	-0.341328
N	-0.0358342558	-0.0463221626	 0.1086393709	-0.099329
C	-1.2083282711	-0.8510380349	-0.1485434355	-0.191284
C	-0.643694727	-2.2874718445	-0.0013111638	-0.088856
N	 0.7614874438	-2.1039642642	-0.2932430717	-0.350474
C	 1.1320045841	-0.7732877985	-0.0509684699	 0.455083
O	 2.2606355756	-0.3416387824	-0.0041967167	-0.411556
C	-0.8962373567	-2.8745927172	 1.3846349442	 0.159801
O	-0.0274663133	-3.2957000658	 2.1000854248	-0.235267
H	 0.9812570625	 1.7372929465	 0.1219282494	 0.169476
H	-0.4323472716	 1.7320221456	-0.9654502356	 0.11707
H	-0.6668022228	 1.8353327355	 0.7963747689	 0.123964
H	-2.0154417602	-0.6459201594	 0.5660466352	 0.116503
H	-1.608314039	-0.6859081797	-1.1604791602	 0.114491
H	-1.1360664803	-2.9615500982	-0.7168149572	 0.114653
H	 1.3994029808	-2.7878413915	 0.0913404519	 0.261389
H	-1.9703436891	-2.9134899651	 1.679595755	 0.085664
