15
gdb 30291	3.1196	1.6436	1.15782	0.4269	66.31	-0.2092	0.0093	0.2185	1006.4809	0.115561	-453.944499	-453.937311	-453.936367	-453.976548	27.064	
N	-0.1946661768	 1.5342809633	-0.0436405295	-0.503175
C	 0.0674813809	 0.089727358	-0.0125761178	-0.158407
C	-1.2929956409	-0.7207797889	-0.0512430321	-0.093518
O	-1.3561323263	-1.5486196208	-1.2779842784	-0.282712
C	-0.1433492464	-1.3672590368	-1.7970506674	 0.428103
C	 0.7313078227	-0.5406697025	-1.2047123681	 0.125831
N	 1.8974479129	-0.5233557511	-1.9620967552	-0.330222
C	 1.6411865645	-1.3348558002	-2.9358115726	 0.027148
O	 0.3708044922	-1.911280019	-2.9077265312	-0.202325
H	 0.672598572	 2.0335733374	 0.1336998334	 0.237542
H	-0.4788435698	 1.8025404743	-0.9835114607	 0.225679
H	 0.5809201519	-0.1120031836	 0.9333879546	 0.10014
H	-1.387047384	-1.4094432519	 0.7899779294	 0.134835
H	-2.1454734201	-0.0406866529	-0.0724513399	 0.139615
H	 2.2653043571	-1.6329556251	-3.7615049144	 0.151466
