14
gdb 16516	3.91291	2.50102	1.81359	2.6785	62.74	-0.2303	-0.0515	0.1789	709.4684	0.106757	-378.569857	-378.563699	-378.562755	-378.599569	25.151	
O	 0.0577283406	 1.3343694116	 0.0647867596	-0.460612
C	-0.0052017701	-0.037823195	-0.0685085975	 0.381126
C	 0.8586727324	-0.7754606179	-1.1217372394	-0.238538
N	 0.4878708902	-2.1808492406	-0.8471877653	-0.154706
C	-0.6168570308	-2.1012036024	-0.2182274675	 0.134502
N	-0.5871793418	-2.3991811321	 1.2246611065	-0.346312
C	-0.633970682	-0.8397317121	 1.2074479513	-0.092353
C	-1.3231651006	-0.7063143489	-0.0963321178	-0.211594
H	 0.9275446434	 1.5674714708	 0.409106487	 0.295452
H	 0.6376378008	-0.3909975733	-2.1283815436	 0.11848
H	 1.9403053484	-0.6982385867	-0.9606244364	 0.120102
H	-1.5302412971	-2.6347626855	 1.5554227159	 0.224903
H	-0.7934663335	-0.3114858248	 2.1425188707	 0.116701
H	-2.3051545699	-0.3691484532	-0.4030701235	 0.112849
