18
gdb 121681	7.65882	0.55377	0.52312	5.0172	74.5	-0.267	-0.0382	0.2288	2028.8009	0.144141	-439.103222	-439.092677	-439.091732	-439.141358	34.781	
C	-0.0953227574	 1.3368903547	 0.1480070217	-0.231514
O	-0.0103536153	-0.0647783324	 0.029982979	-0.236415
C	 0.6518710004	-0.4739565708	-1.1446918264	-0.056721
C	 0.6731166759	-1.9962224478	-1.1470928326	-0.3156
C	 1.3623762464	-2.5781748036	-2.3646946501	 0.374128
O	 1.8399388659	-1.9048155967	-3.2409214785	-0.264459
C	 1.4100983285	-4.1204547374	-2.4024867973	-0.45585
C	 2.0707166372	-4.6570733755	-3.5850922182	 0.289527
N	 2.5900542612	-5.1031760478	-4.5144621235	-0.292231
H	 0.9011323296	 1.804362347	 0.1809701239	 0.108965
H	-0.6558032619	 1.7831673776	-0.6881976151	 0.108989
H	-0.6194247816	 1.5541033988	 1.0815576823	 0.129976
H	 0.1367033852	-0.0991116937	-2.0427206211	 0.106855
H	 1.6790773792	-0.078968097	-1.1801839716	 0.106697
H	 1.1711380189	-2.3661250492	-0.2410648762	 0.138476
H	-0.3521281479	-2.3859942178	-1.0947142486	 0.138727
H	 1.9190887357	-4.4807492808	-1.4999248537	 0.175353
H	 0.3858222399	-4.5087040576	-2.343439224	 0.175095
