16
gdb 105568	1.99723	1.57015	1.31616	4.1787	70.83	-0.2484	-0.0089	0.2395	1070.2293	0.1227	-437.852756	-437.843735	-437.842791	-437.886592	32.457	
C	-0.1334217818	 1.5051574693	-0.0304689341	-0.339433
N	 0.059732708	 0.0508448987	 0.0127123669	-0.331018
C	 0.7429833732	-0.4973492003	-1.154745176	-0.076354
C	 0.5755548263	-2.0345296731	-1.2781367786	-0.111702
O	-0.3115499511	-1.8652395142	-2.4283375037	-0.234302
C	-0.2030043519	-0.5070702134	-2.3944526029	 0.469962
O	-0.7171178831	 0.2935115067	-3.1032496644	-0.321681
C	 2.0868209264	 0.0143051566	-1.4028129422	 0.312133
C	 3.1943555255	 0.4516006367	-1.5712481097	-0.474184
H	 0.8046349473	 2.0741169077	-0.1112823402	 0.11649
H	-0.7621774067	 1.7586295528	-0.8869421976	 0.160002
H	-0.6538074907	 1.8102804368	 0.8808036779	 0.124512
H	 0.6016052572	-0.1908494059	 0.8377524645	 0.228206
H	 1.4698031436	-2.5925874468	-1.5562233511	 0.135499
H	 0.0444332105	-2.4936311883	-0.4435358237	 0.133484
H	 4.1701091474	 0.8393365567	-1.7339810849	 0.208386
