18
gdb 71263	2.53261	2.03666	1.44872	3.6434	74.56	-0.2296	0.0298	0.2594	940.6034	0.149294	-401.963003	-401.955613	-401.954669	-401.994362	29.951	
C	-0.0276249549	 1.5422166741	-0.0118174058	-0.493143
C	-0.0784908846	 0.0351378694	 0.0498781585	 0.175019
C	 0.3046388681	-0.7946488056	-1.2435993951	-0.267026
C	-0.862685096	-1.7336946229	-0.9564372037	-0.092645
C	-0.9155012721	-2.071426829	 0.5353864312	-0.000178
N	 0.2372345227	-1.8518696929	 1.3658596561	-0.327609
C	 0.7748496247	-0.5993710228	 1.1603219227	 0.3922
O	 1.7736349259	-0.1458989436	 1.6736756919	-0.389796
C	-1.424612868	-0.750169303	 0.0678434193	-0.130803
H	 1.0134210399	 1.8782568047	-0.0211244109	 0.142016
H	-0.5307182255	 1.9231180104	-0.9059922779	 0.110027
H	-0.5084398552	 1.9873586012	 0.8657595369	 0.123909
H	 0.1104797266	-0.1900642193	-2.1329134931	 0.111746
H	 1.3164699879	-1.2102421613	-1.3027397631	 0.106265
H	-1.3936344809	-2.3383952899	-1.6826498454	 0.088685
H	-1.607160346	-2.8396363775	 0.8574706602	 0.107239
H	 0.7968867322	-2.5916957899	 1.7588664388	 0.250933
H	-2.4203406648	-0.3550233722	 0.2236436695	 0.093159
