19
gdb 82196	2.56405	1.80149	1.38154	3.2191	73.88	-0.2215	0.0624	0.2839	995.8037	0.160987	-419.156615	-419.148807	-419.147863	-419.188381	31.621	
C	-0.1610932631	 1.481147397	 0.0238211793	-0.503549
C	 0.0840278405	-0.0032671381	-0.0046572949	 0.302924
N	-0.7083278561	-0.9045282996	 0.8544134206	-0.360281
C	 0.7528393186	-0.783157229	 1.0695205765	-0.092538
C	 1.5780531069	-1.8867044529	 0.4327467371	-0.040849
N	 0.7897819699	-2.9106005629	-0.2842608012	-0.327623
C	 1.3997104112	-1.8001702701	-1.0389894494	-0.077357
C	 0.3887948524	-0.6851618682	-1.3636302735	 0.08242
O	-0.7738456356	-1.1527113143	-2.0064211999	-0.43869
H	 0.6880468797	 2.0332222018	-0.394401436	 0.12211
H	-1.0476688843	 1.7357294252	-0.5681625345	 0.137601
H	-0.3217408403	 1.8367542734	 1.0476252132	 0.10963
H	-1.1960917659	-0.3521915309	 1.5573453185	 0.224996
H	 1.1133058321	-0.3178603193	 1.9815892988	 0.081838
H	 2.5206414962	-2.1670846053	 0.8905754736	 0.084048
H	 1.3563409802	-3.7469332924	-0.4039345236	 0.231727
H	 2.1956206049	-2.0175654273	-1.7440520753	 0.085394
H	 0.8488235691	 0.0412191351	-2.0418509265	 0.078049
H	-1.1582413864	-1.7818067723	-1.3789413727	 0.300151
