20
gdb 105647	2.01541	1.39697	1.26875	3.3886	79.95	-0.2748	0.0225	0.2973	1176.2952	0.169369	-403.146778	-403.137027	-403.136082	-403.181219	35.534	
C	 0.0426051823	 1.4080356617	 0.1205863618	-0.264976
O	-0.0279585079	-0.0027027349	-0.0152624438	-0.281696
C	 0.6176167855	-0.5391560319	-1.1458399334	 0.264194
C	 2.1759858828	-0.5828809522	-1.0142839046	-0.273804
C	 2.0504218082	-2.0159718299	-0.4374945074	-0.243113
C	 0.6191908651	-2.1040326692	-1.0362772827	-0.000529
C	-0.4970934755	-2.7769688886	-0.2575068421	-0.411428
C	 0.0740450856	 0.0246110083	-2.3919964273	 0.234343
N	-0.3417818829	 0.4591096909	-3.3797093874	-0.350602
H	 1.0790923892	 1.7628598947	 0.197187654	 0.114497
H	-0.4437551079	 1.9179283565	-0.7208212265	 0.138555
H	-0.4848571847	 1.6537752808	 1.0440748702	 0.136999
H	 2.6627791153	-0.5607979227	-1.991562476	 0.124453
H	 2.6153386176	 0.1889951301	-0.380027241	 0.116243
H	 2.7767813067	-2.7558156271	-0.7779868011	 0.106366
H	 2.0304523468	-2.0151694833	 0.6550363721	 0.115871
H	 0.6746010719	-2.5091447495	-2.05143098	 0.095916
H	-0.6002204689	-2.3386190694	 0.7373536141	 0.134476
H	-1.4578483565	-2.6789689389	-0.7729763624	 0.127225
H	-0.2830317625	-3.8452571351	-0.1463147864	 0.117011
