20
gdb 109148	3.60391	1.00414	0.95764	3.5389	75.98	-0.2522	0.0243	0.2765	1335.1705	0.169638	-440.316187	-440.306581	-440.305637	-440.351013	35.268	
C	-0.2157178319	 1.5933598996	-0.0695997984	-0.42603
C	 0.0770984653	 0.0976347247	-0.0243681374	 0.353433
C	-1.1917155062	-0.74102508	 0.0838876468	-0.42603
C	 1.0337412348	-0.3772517701	-1.1638984066	-0.226564
N	 2.2485458586	-0.8406171473	-0.4866753837	-0.342067
C	 2.0498056226	-0.6756659291	 0.7579263245	 0.38212
C	 3.0625956879	-1.0301568193	 1.8056864033	-0.131433
O	 4.2296928431	-1.555492814	 1.2317288579	-0.422025
O	 0.880108408	-0.1587873886	 1.1817639766	-0.280762
H	 0.714644109	 2.1675109876	-0.1033619902	 0.128117
H	-0.8007649594	 1.836215453	-0.962586983	 0.122905
H	-0.7847042086	 1.906883092	 0.8103501996	 0.127973
H	-1.8170843122	-0.5949014903	-0.8028172253	 0.122906
H	-0.9459443779	-1.8042635886	 0.1579404415	 0.128118
H	-1.7733942195	-0.4575568814	 0.9657343691	 0.12797
H	 0.5964532864	-1.1913439286	-1.7529161391	 0.113975
H	 1.2759224228	 0.4339057335	-1.8598039037	 0.113977
H	 3.2837579871	-0.1267599842	 2.3953107788	 0.118315
H	 2.605237463	-1.7505300685	 2.5018166287	 0.118312
H	 4.0770493571	-1.5545941702	 0.2750398507	 0.296792
