19
gdb 77170	3.25077	1.06552	0.85938	1.8455	78.26	-0.2433	0.0244	0.2677	1359.7921	0.16008	-419.18613	-419.177252	-419.176308	-419.220279	33.001	
N	 0.0476926922	 1.2140684437	 0.3864905834	-0.517077
C	 0.0873824552	-0.1585586177	-0.0672704829	-0.133007
C	-1.2648757273	-0.8999644893	-0.2389648429	 0.135499
O	-0.8748567334	-1.2591757514	-1.6189005192	-0.275402
C	 0.2761026345	-0.5071984047	-1.5413117763	 0.402807
N	 1.1197932675	-0.2001191904	-2.4183248343	-0.551444
C	-1.5697295202	-2.0895860468	 0.6081607556	 0.003572
C	-2.4290143855	-1.9129309946	 1.8392092844	-0.267805
C	-2.9692775759	-2.653970111	 0.6466558882	-0.269445
H	 0.993807906	 1.5698144023	 0.482723365	 0.244857
H	-0.400693023	 1.7999837565	-0.3128069329	 0.234946
H	 0.7745265667	-0.722854973	 0.5703428761	 0.111085
H	-2.1153573689	-0.2090508409	-0.2746055471	 0.083942
H	 0.8764166907	-0.5994992059	-3.3270311503	 0.225672
H	-0.7540396384	-2.8038614664	 0.6796972067	 0.089913
H	-2.1620575226	-2.4770271512	 2.7252666582	 0.119269
H	-2.8189434317	-0.9221313477	 2.0462988299	 0.123727
H	-3.7265950089	-2.1656015956	 0.0425618418	 0.119392
H	-3.078505367	-3.7303680759	 0.7114409267	 0.119499
