19
gdb 68056	2.0597	1.80984	1.15775	1.7443	82.89	-0.2354	0.0413	0.2768	1127.1204	0.155768	-385.807975	-385.798779	-385.797835	-385.841254	35.445	
C	 0.0554850494	 1.443348707	 0.1233111628	-0.513268
C	-0.0073134273	-0.0376774747	-0.0661084689	 0.404998
C	 0.5767404625	-0.9444150503	-1.1786040888	-0.310065
C	 0.0483656531	-1.8444027203	-0.033276189	 0.404996
C	 0.2020102808	-3.3108974587	 0.209722317	-0.513268
O	 0.6643816542	-0.9033028366	 0.9348016602	-0.3676
C	-1.2587478236	-0.9794712755	 0.0049388781	-0.283834
C	-2.0558716858	-0.9821501045	 1.2095500619	 0.322016
C	-2.7522848731	-0.9857945983	 2.1901534756	-0.436527
H	 1.0960641586	 1.7799642808	 0.1535872675	 0.13465
H	-0.4522822992	 1.9543447903	-0.7005978607	 0.126235
H	-0.4318972202	 1.7240316424	 1.0615620243	 0.144546
H	 0.0702609598	-0.9776299603	-2.1473596708	 0.090538
H	 1.6635670529	-0.9124621475	-1.2634483368	 0.105819
H	 1.2613060905	-3.5814735588	 0.2511039218	 0.134652
H	-0.2682752488	-3.5868142182	 1.1580580969	 0.144546
H	-0.2723500777	-3.8817645917	-0.5945560617	 0.126235
H	-1.875271333	-1.0148995484	-0.8990824568	 0.093412
H	-3.3546449032	-0.9884512569	 3.0645106874	 0.191918
