21
gdb 81653	2.78094	1.55675	1.27372	1.1506	83.31	-0.2329	0.015	0.248	1088.262	0.184162	-387.075334	-387.067329	-387.066385	-387.107366	32.213	
C	-0.1725450679	 1.4566986208	-0.0450929927	-0.419136
C	 0.0415745111	-0.0523935483	-0.0181960943	 0.023275
C	 1.2756633006	-0.5520462452	-0.8319448333	 0.127452
C	 2.1029856341	-0.5138168697	 0.479151516	-0.272266
C	 0.7613970748	-0.5982280643	 1.2691233489	-0.06752
C	 0.374871858	-2.0204688099	 1.571793096	-0.073369
C	 0.5516325903	-3.0429021836	 0.7336903676	-0.075157
C	 1.2052616031	-2.9998013396	-0.6308444933	-0.124784
O	 1.0729901377	-1.8257880538	-1.4177435378	-0.274694
H	 0.7440240264	 2.0056602491	 0.1981067894	 0.112984
H	-0.5015329468	 1.7861562318	-1.0369081393	 0.118283
H	-0.9378602494	 1.7578233524	 0.6783317526	 0.116098
H	-0.8820155289	-0.5767859164	-0.2759994297	 0.073788
H	 1.6106329139	 0.0929044201	-1.6505294583	 0.072727
H	 2.8434164733	-1.2973234157	 0.6495865	 0.104803
H	 2.5903172173	 0.4564397751	 0.600181995	 0.103304
H	 0.6815413758	 0.0274858555	 2.1616784332	 0.058589
H	-0.0992569513	-2.2106888741	 2.5313029329	 0.085722
H	 0.2447126615	-4.0394785183	 1.0440411487	 0.090687
H	 2.2728720271	-3.2577419002	-0.5158330184	 0.104851
H	 0.7723584294	-3.7903359059	-1.2534051132	 0.114364
