15
gdb 28287	4.99623	1.31523	1.18917	2.7355	71.45	-0.2	-0.0011	0.1989	1013.4319	0.114944	-416.77599	-416.769422	-416.768477	-416.80676	26.51	
O	 0.1160041992	 1.315388039	-0.0038284386	-0.42603
C	 0.1741741141	-0.0274805308	-0.100205512	 0.355123
C	-0.0385241666	-0.7739535083	-1.2440179823	-0.269868
N	-0.0841791874	-2.0803038107	-0.7668750921	 0.002611
C	 0.5808537807	-3.3955024853	-0.9355928165	-0.0149
C	 2.0126124864	-3.339554894	-0.4773663539	-0.270934
C	 0.8896493559	-3.3969292675	 0.554973392	-0.176528
C	 0.2593408835	-2.0236735081	 0.5581128469	 0.262034
N	 0.4306743201	-0.8012856916	 1.0135024966	-0.398782
H	 0.3273428395	 1.5293187844	 0.9132474743	 0.30324
H	-0.3246982345	-0.4758498091	-2.2372934646	 0.128025
H	 0.1458718804	-4.1644515296	-1.5593603143	 0.120655
H	 2.5928067654	-4.2498995494	-0.6077347505	 0.12486
H	 2.5743824091	-2.4193165883	-0.602839209	 0.143544
H	 0.7770597942	-4.1977951909	 1.2714259741	 0.116948
