16
gdb 2323	7.05835	1.31104	1.20923	3.2446	62.31	-0.2396	-0.0187	0.2209	980.7986	0.135416	-325.761605	-325.75375	-325.752806	-325.794518	27.143	
C	 0.105261942	 1.5384174286	-0.2503468657	-0.393751
C	-0.0681904624	 0.0821831311	 0.1068503581	 0.001414
N	 1.117833567	-0.7851523252	 0.0205337324	-0.336874
C	 0.4817457189	-0.563471764	 1.3330237701	-0.026726
C	 1.3132415348	 0.1511482721	 2.3820023687	-0.280825
C	 2.3712126114	-0.7700924298	 2.9546123542	 0.158961
O	 2.5280221566	-0.9934835821	 4.1277225456	-0.241049
H	 1.0765534154	 1.9189125915	 0.0725298373	 0.128082
H	 0.0454031271	 1.6715913862	-1.3356690684	 0.124775
H	-0.6801589891	 2.1491202621	 0.2078447377	 0.12001
H	-1.0075367056	-0.3466485869	-0.2416584371	 0.086491
H	 0.8763824104	-1.7002558195	-0.3485158244	 0.233911
H	-0.1129291672	-1.3828926504	 1.7355352933	 0.093838
H	 1.834339166	 0.9975712566	 1.919676086	 0.124179
H	 0.6906345858	 0.526824226	 3.1994330001	 0.119223
H	 3.0146244689	-1.2486788764	 2.1829551718	 0.088341
