14
gdb 45073	2.55757	1.70878	1.15943	6.2082	65.46	-0.2751	-0.0482	0.227	1006.0739	0.100844	-436.702045	-436.694659	-436.693714	-436.734545	27.228	
O	 0.0105977468	 0.0136742847	-0.2775008151	-0.271619
C	-0.0312951695	 1.1741490888	 0.0019822917	 0.397789
C	-1.2819228826	 1.9876097398	 0.3577475242	-0.354255
C	-0.7491626022	 3.273919883	 0.9386592571	 0.037242
O	 0.1460778193	 3.0527834527	 2.0366050357	-0.239605
C	 0.7113346127	 3.3598089656	 0.7658192316	 0.035115
C	 1.2133481802	 2.1297129864	 0.0268425276	-0.307322
C	 2.3972047747	 1.5095939904	 0.6052431382	 0.308736
N	 3.3427996339	 1.0334633946	 1.0667252058	-0.312212
H	-1.8693261224	 2.1618318041	-0.5525514654	 0.144177
H	-1.9078694065	 1.4215760357	 1.0526515406	 0.162027
H	-1.3734397651	 4.1594271226	 1.0107412145	 0.11858
H	 1.2533926371	 4.2975555255	 0.691853449	 0.125488
H	 1.4325345436	 2.390783906	-1.0186482456	 0.155859
