14
gdb 127899	2.65453	1.63264	1.01772	3.7056	74.08	-0.2419	-0.0804	0.1615	1092.7593	0.099208	-466.095096	-466.086687	-466.085743	-466.128369	30.349	
C	-0.1575519815	 1.3947695037	 0.0062142992	-0.341551
N	-0.1229266535	-0.0520747749	-0.092205115	-0.303697
C	 0.617295277	-0.630230601	-0.9531585857	 0.370445
N	 1.4545108402	 0.0443969917	-1.8641165584	-0.216776
N	 2.1293266923	-0.5660252755	-2.7111034328	 0.071984
O	 2.0769088051	-1.9495972673	-2.7916157688	-0.22012
N	 1.3085633207	-2.7382055321	-1.9324578276	-0.19825
C	 0.6231101727	-2.0920620072	-1.0362649339	 0.400007
N	-0.1131778787	-2.7628801445	-0.1271470906	-0.544
H	 0.5031947138	 1.9109434401	-0.6952963609	 0.148776
H	-1.1896609623	 1.7274729875	-0.1533464182	 0.138737
H	 0.105697686	 1.676826126	 1.0319643641	 0.139451
H	-0.2533156915	-3.7532956459	-0.2343587158	 0.27282
H	-0.7455362204	-2.2103022607	 0.4295289844	 0.282176
