19
gdb 79712	2.70745	1.68636	1.32862	2.1705	74.32	-0.2361	0.0725	0.3086	1004.9398	0.160842	-422.971228	-422.963594	-422.96265	-423.002712	31.437	
O	-0.0588933035	 1.5536513062	-0.0285672386	-0.438257
C	-0.0067137952	 0.1474292471	 0.0442223145	 0.128954
C	 0.2277912116	-0.6493798486	 1.3680716491	-0.159879
C	-0.952112284	-0.3217764306	 2.2889445451	-0.041796
C	-1.7971410371	 0.9110288321	 2.0736277509	-0.309233
C	-2.0976881704	-0.3313777576	 1.2720570864	-0.043597
C	-1.3220842123	-0.6663851705	-0.0100804365	-0.091676
C	-0.4375977013	-1.8389884595	 0.5529132768	 0.149895
O	 0.3379355843	-2.4773437076	-0.4356014162	-0.448029
H	 0.8347986517	 1.8746889691	-0.1792807262	 0.2828
H	 0.6723261977	-0.2404295638	-0.7179878037	 0.094467
H	 1.2209724672	-0.7436033842	 1.8111148962	 0.050369
H	-1.023781377	-0.8578368748	 3.2289216109	 0.079718
H	-2.5085609193	 1.10595262	 2.871340299	 0.097647
H	-1.3883686715	 1.7914036144	 1.6042900211	 0.144898
H	-3.0175877838	-0.8746001933	 1.4564443603	 0.08292
H	-1.8793505137	-0.7777845683	-0.9397390363	 0.068068
H	-0.9785118471	-2.5660089136	 1.1698176535	 0.068893
H	 0.9482781938	-3.0762175965	 0.0056379439	 0.28384
