19
gdb 46791	2.78165	1.62453	1.27344	4.4256	74.63	-0.2581	0.0085	0.2666	1031.2807	0.16177	-423.054308	-423.046969	-423.046025	-423.086128	29.444	
O	-0.0308319194	 0.1010555156	 0.7972407744	-0.310451
C	-0.0312688435	 1.1314449513	 0.179288979	 0.3877
C	-1.3130367326	 1.9244943278	-0.0668108245	-0.328318
C	-1.6470983458	 2.4216874791	-1.4867076686	-0.22369
C	-0.5057267323	 3.1507521069	-2.2049722267	-0.008221
C	 0.6697707136	 2.1982334474	-2.5694368697	-0.244473
C	 1.3557068548	 2.6063698158	-1.2443151475	 0.133877
C	 0.4697328588	 3.880543809	-1.2336311147	-0.2585
O	 1.1696133981	 1.6569448761	-0.1904148502	-0.239477
H	-2.1172341346	 1.2849989571	 0.3006077191	 0.13336
H	-1.2648304662	 2.7847825608	 0.6121121436	 0.132895
H	-1.973370535	 1.5768559875	-2.1054612098	 0.112742
H	-2.5119067381	 3.0887277301	-1.3964366898	 0.10696
H	-0.9056929968	 3.7478885331	-3.0280869934	 0.072302
H	 0.4506287152	 1.1339938467	-2.695260176	 0.112296
H	 1.2363522087	 2.549223282	-3.4356187199	 0.108076
H	 2.4351651956	 2.7587753373	-1.2571126238	 0.096207
H	 0.9988983727	 4.697327225	-1.7317122482	 0.109206
H	 0.0993724368	 4.2453373613	-0.2738468631	 0.107508
