17
gdb 54556	3.09134	1.59905	1.21687	1.6823	72.96	-0.2444	-0.0288	0.2156	1029.5475	0.134031	-421.750668	-421.74272	-421.741775	-421.784044	29.783	
C	-0.1052102836	 1.4257291243	-0.4005016264	-0.487495
C	-0.0368429931	 0.0040457168	 0.1031595126	 0.251535
O	 0.9775529298	-0.5313486181	 0.4925749127	-0.306734
C	-1.3286778624	-0.7562638902	 0.1053109003	 0.390864
O	-2.5680819375	-0.1387394488	-0.3560263579	-0.364784
C	-2.9493450964	-1.493646017	 0.0332187899	 0.063814
C	-1.6511673559	-2.1675994027	-0.5073406032	-0.119944
C	-1.3762833562	-2.8887137935	 0.8288543937	-0.274114
C	-2.0093951497	-1.5544613899	 1.2759996389	-0.119926
H	 0.8842758158	 1.8818981208	-0.3614706471	 0.139662
H	-0.4953583957	 1.4389913761	-1.4240579635	 0.15458
H	-0.8173010275	 1.9993879182	 0.2028499663	 0.154648
H	-3.9917234534	-1.7908912902	-0.0739765207	 0.101667
H	-1.44967059	-2.4744752099	-1.5332710845	 0.092051
H	-1.96175949	-3.7917179575	 1.0216937527	 0.099156
H	-0.327734015	-3.0340956214	 1.0894809683	 0.132967
H	-2.2143006891	-1.1658300871	 2.273136768	 0.092053
