23
gdb 119521	3.96103	0.92507	0.84179	0.2455	90.7	-0.2223	0.0252	0.2475	1486.5568	0.206478	-351.163634	-351.154629	-351.153685	-351.19749	35.101	
C	-0.0409843219	 1.5861599591	-0.1409655988	-0.380914
C	-0.0374801851	 0.056072958	-0.1898949683	-0.157382
C	-1.3865716673	-0.5600350425	 0.2097279628	-0.287555
C	-1.4008887266	-2.072801882	 0.1666391682	 0.378466
C	-1.6705449802	-2.7701405382	-1.1443277453	-0.318229
C	-2.6870514145	-2.8698375787	-0.0190567273	-0.141256
C	-2.5468960812	-4.0716983903	 0.8511686057	-0.067313
C	-1.3724646452	-4.0853087727	 1.486113024	-0.087769
C	-0.553688409	-2.8463908684	 1.1888121354	-0.325901
H	 0.93119306	 1.9984550644	-0.4289467917	 0.109893
H	-0.7934781547	 2.0026054171	-0.8202411089	 0.112187
H	-0.2713503383	 1.9496966532	 0.8668347475	 0.112798
H	 0.2251842142	-0.2826931982	-1.2001529421	 0.097054
H	 0.7481545322	-0.3286874574	 0.4728829396	 0.097741
H	-1.6514776239	-0.2219626022	 1.2219543968	 0.090853
H	-2.1692714646	-0.1708541576	-0.4551727533	 0.088052
H	-1.9222567062	-2.1362067835	-1.9896553813	 0.103143
H	-1.1140839816	-3.6666407473	-1.39977682	 0.106075
H	-3.6505094153	-2.3854591365	-0.1413729809	 0.080995
H	-3.3052636095	-4.8441644537	 0.9137395311	 0.091768
H	-1.0129660812	-4.8808587362	 2.1290721258	 0.089628
H	 0.4447862617	-3.0929495366	 0.8053546961	 0.107097
H	-0.3913428219	-2.2490679797	 2.0983189048	 0.100569
