14
gdb 26914	3.10973	1.43781	0.98557	3.9008	71.31	-0.198	-0.0463	0.1517	1104.641	0.101131	-473.882231	-473.874262	-473.873317	-473.914619	29.98	
N	 0.0050989574	 1.4761990299	 0.1831757667	-0.604255
C	-0.0009660276	 0.0622192903	 0.0673486259	 0.047407
C	-1.1460649408	-0.6778997279	 0.0488704883	 0.446461
O	-2.3660098925	-0.1161328939	 0.0854187199	-0.411275
O	-1.1673583258	-2.0084249625	 0.0272034973	-0.271811
C	 0.0209735229	-2.8214176579	-0.0374729051	 0.420803
O	-0.149350393	-4.0075926642	-0.0827635052	-0.343178
C	 1.2289534944	-2.0483776368	-0.0282294428	-0.292934
C	 1.2047470995	-0.6866125837	 0.0377137122	-0.048571
H	 0.4686237423	 1.9182299852	-0.6038624293	 0.245633
H	-0.9384908584	 1.8406460549	 0.2356923151	 0.253153
H	-3.0214005042	-0.8260184902	 0.0798994854	 0.316645
H	 2.1539262474	-2.6078786255	-0.0609448783	 0.122716
H	 2.1390556784	-0.1330156377	 0.0694666098	 0.119206
