15
gdb 34350	2.97105	1.61846	1.31403	2.1792	69.1	-0.2431	0.0034	0.2465	957.1957	0.113608	-416.734052	-416.727064	-416.72612	-416.765434	27.281	
N	-0.0383752094	-1.1754940399	 0.0113571304	-0.337863
C	-0.0273830594	-0.0180546777	 0.016570005	 0.191644
C	-0.0128931779	 1.4188502101	 0.0306618504	 0.150245
C	-0.4016624806	 2.2018367728	-1.2699092542	-0.218259
N	 0.8662050768	 2.9887375434	-1.213697161	-0.299176
C	 1.3186279463	 2.2531391516	-0.0181090404	-0.10915
C	 0.9169287667	 2.8975674353	 1.340709406	 0.052286
O	-0.3656429188	 3.5073074048	 1.1685389513	-0.216527
C	-0.3287950094	 2.1099430243	 1.3973428364	-0.051179
H	-0.4877067026	 1.5430399681	-2.1381957347	 0.124227
H	-1.295878928	 2.8220136505	-1.1797412904	 0.132852
H	 1.4607461969	 2.822791701	-2.0167356563	 0.231462
H	 2.2946233355	 1.7671081874	-0.0408078134	 0.102148
H	 1.5503187708	 3.2954274507	 2.1246226589	 0.121607
H	-0.9009063669	 1.7009378276	 2.2213489523	 0.125683
