18
gdb 109505	2.00071	1.37821	1.03782	3.4852	73.28	-0.2664	0.0213	0.2877	1212.3409	0.145428	-439.081415	-439.071573	-439.070628	-439.11619	35.848	
C	-0.0662922293	 1.5849557238	 0.1600226139	-0.467356
C	-0.0270344481	 0.0882886346	-0.042576782	 0.377106
O	-1.1294982129	-0.5929433507	 0.4795633382	-0.452715
C	 0.523480992	-0.5654608481	-1.2648545098	-0.077868
C	 1.1116292848	 0.1862879614	-2.442618329	-0.098609
O	 2.1202439929	-0.5624989009	-3.0954619186	-0.416071
C	 1.3060173119	-0.6832969366	 0.0549165274	-0.277389
C	 2.5566201514	 0.0000369107	 0.1871805562	 0.283933
N	 3.5665208995	 0.5635654856	 0.2621959482	-0.356633
H	 0.8364836992	 2.0783552874	-0.2031747568	 0.150429
H	-0.9350408725	 2.0104707106	-0.3507751195	 0.138414
H	-0.1529345536	 1.8146173662	 1.2288211674	 0.122158
H	-1.2200659766	-0.3523252896	 1.4091612833	 0.287411
H	 0.0228255274	-1.490060175	-1.5350867183	 0.123184
H	 0.3259123604	 0.3539648092	-3.1866725232	 0.122112
H	 1.4842005158	 1.172107798	-2.135511029	 0.106142
H	 2.8995445055	-0.5582773001	-2.5285190024	 0.297493
H	 1.2493395924	-1.6408053666	 0.5600355339	 0.138259
