16
gdb 86706	2.46256	1.40187	1.05722	3.9756	67.5	-0.2515	-0.0526	0.1989	1127.1386	0.122527	-475.026855	-475.017901	-475.016957	-475.062001	30.899	
O	 0.3197751963	 1.2003406184	-0.4712182293	-0.412433
C	 0.0608746672	-0.0867200228	-0.0022769155	 0.111171
C	 0.0875057696	-0.3250762001	 1.5349019209	-0.208524
N	-1.2744679977	-0.8466284111	 1.4444548049	-0.031397
C	-2.167027384	-1.0264197571	 2.4540158826	 0.142781
O	-1.8732178834	-0.9701900585	 3.6276772355	-0.320566
C	-1.4570244051	-0.5838380073	 0.0252945265	-0.149187
C	-2.4162900004	 0.5276019903	-0.3427167174	 0.154253
O	-2.8668503597	 1.3177175415	 0.4467771357	-0.249452
H	-0.1283872039	 1.8381132241	 0.0976356426	 0.299898
H	 0.7005744952	-0.7594162655	-0.5737505071	 0.120223
H	 0.8264262137	-1.0426201578	 1.9027495354	 0.133192
H	 0.1622608342	 0.5954971338	 2.1262589596	 0.129349
H	-3.1839838696	-1.255978162	 2.0809345581	 0.078412
H	-1.6538231649	-1.4674968194	-0.5939987025	 0.104336
H	-2.6421391674	 0.5920523935	-1.4291276999	 0.097944
