18
gdb 90014	2.96424	1.39012	1.12163	3.0927	71.61	-0.2382	-0.0017	0.2365	1118.4136	0.148239	-439.09204	-439.083836	-439.082892	-439.124952	30.913	
C	 0.7712513388	 1.4392669893	-0.0052371748	-0.415809
C	-0.1032850266	 0.1938402508	-0.0690716586	 0.07071
C	 0.2157646447	-0.7698439355	-1.2459439487	-0.322411
C	 0.9230550572	-1.6599723522	-0.1957744446	 0.159556
C	 0.9595292514	-3.1990044186	-0.2218778038	-0.142329
O	 2.4221592517	-3.1687376621	-0.3515644305	-0.245813
C	 2.4551165492	-1.8015971578	-0.2647071657	 0.408344
O	 3.4084639751	-1.0880728048	-0.2374357837	-0.334913
N	 0.2766134853	-0.9010495905	 0.8729857017	-0.363948
H	 1.8285493969	 1.1803103424	-0.1251946637	 0.148843
H	 0.4936064815	 2.1467189285	-0.7943164279	 0.119317
H	 0.647374575	 1.9500723319	 0.9563626266	 0.117813
H	-1.1589292287	 0.4685274768	 0.0314642538	 0.077173
H	-0.6645834652	-1.2502855198	-1.6769235066	 0.116804
H	 0.8455332767	-0.371352876	-2.0423996778	 0.1256
H	 0.6607639246	-3.6820087572	 0.7105398781	 0.131101
H	 0.5048401174	-3.6907667254	-1.0844535806	 0.124169
H	 0.8824763549	-0.62508158	 1.6404974569	 0.225795
