22
gdb 102616	1.63284	1.40954	0.90488	2.3219	78.96	-0.2653	0.0602	0.3255	1415.774	0.19214	-441.549104	-441.537951	-441.537007	-441.587647	39.407	
C	-0.1812897667	 1.5167566364	 0.3263737268	-0.392615
C	-0.0563752116	 0.0028699183	 0.1378745486	-0.177013
C	 0.6816735565	-0.4004787239	-1.1389247136	 0.124352
C	 0.827640925	-1.9149843386	-1.2905515438	-0.177435
C	 1.5901538189	-2.3413084197	-2.5474990358	-0.390187
O	-0.0743293417	 0.0994893614	-2.2705516528	-0.283247
C	 0.5473483632	 0.9685387948	-3.1065413874	 0.504908
N	-0.3339828268	 1.3825570438	-4.0677327298	-0.564968
O	 1.6910843068	 1.3491370472	-3.010299345	-0.40109
H	 0.8026540178	 1.9967799921	 0.3477435156	 0.124396
H	-0.7542818369	 1.967128213	-0.4890361445	 0.127295
H	-0.6919323572	 1.7526668709	 1.264843829	 0.109889
H	 0.4840509925	-0.4352746398	 0.985925899	 0.097957
H	-1.0521665002	-0.458451773	 0.1310044146	 0.098792
H	 1.665409751	 0.076984288	-1.1739255988	 0.11629
H	 1.3443806819	-2.2883154673	-0.3979140949	 0.098758
H	-0.1714397901	-2.369275387	-1.2846093997	 0.098326
H	 1.0623206587	-2.0271409962	-3.4525542589	 0.119874
H	 2.5906298876	-1.8976861986	-2.5750360484	 0.127072
H	 1.7008053717	-3.4291386319	-2.5867652265	 0.109835
H	-1.1797348011	 0.8558156896	-4.2051726938	 0.261688
H	 0.0658953907	 1.8517781105	-4.86186141	 0.267125
