16
gdb 88409	2.43119	1.21924	0.90166	6.5895	70.09	-0.2668	-0.0393	0.2275	1258.3188	0.122011	-437.879711	-437.870472	-437.869528	-437.91475	32.386	
O	 0.1125864331	 1.3337145355	 0.4692487688	-0.415643
C	 0.0772101732	-0.0241004438	 0.1352230998	 0.077132
C	-0.5347843297	-1.0093659112	 1.0956245249	-0.328754
C	-1.2861195927	-0.5908385564	-0.1525912957	-0.028697
C	-2.504393414	 0.3235044321	-0.0346442858	-0.289843
C	-2.6487670443	 1.1514136007	-1.3200960953	 0.151948
O	-3.6077530745	 1.1506614133	-2.0388513882	-0.218405
C	-3.7181014872	-0.4242509219	 0.2917026932	 0.310858
N	-4.6603624533	-1.0320384484	 0.5673410249	-0.315002
H	 0.7905838247	 1.4664474494	 1.1401321053	 0.299087
H	 0.8991117367	-0.361860627	-0.4943164172	 0.105349
H	-0.1363632398	-2.0161835655	 1.1443952996	 0.130632
H	-0.8969841271	-0.6151880876	 2.0392919231	 0.130116
H	-1.3569229762	-1.3194330165	-0.9535953498	 0.121789
H	-2.3028023918	 1.0471256568	 0.7652848479	 0.152861
H	-1.744166407	 1.7602146308	-1.5260788656	 0.116571
