20
gdb 47927	2.22167	1.60488	1.12813	2.8595	75.74	-0.2372	0.0272	0.2644	1133.0745	0.173889	-440.319418	-440.311194	-440.31025	-440.35222	31.976	
O	 0.0516931078	 0.0023701671	 0.0351069592	-0.373226
C	-0.0394741975	 1.2173957234	 0.0754811127	 0.362028
C	-1.3956538245	 1.9150492676	 0.0098498545	-0.305663
C	-1.7891584232	 2.399381354	-1.3999571426	-0.085387
O	-1.0760342267	 3.5310288975	-1.8615034471	-0.250259
C	 0.2227000529	 3.2824333913	-2.38182858	-0.071118
C	 1.3143594392	 3.8664675617	-1.4814093465	-0.20118
C	 1.1684887251	 3.4433185485	-0.0109047363	-0.170076
N	 1.0761161147	 2.0071897482	 0.1914593164	-0.27971
H	-2.1236058297	 1.1608341124	 0.3200105364	 0.128571
H	-1.4604737406	 2.7563369079	 0.7067074788	 0.115646
H	-1.6956658944	 1.5641644269	-2.1099314042	 0.111168
H	-2.8409001873	 2.7021989596	-1.3801518611	 0.112679
H	 0.3796759952	 2.2044688557	-2.5183265588	 0.109928
H	 0.2827518821	 3.7457469208	-3.3748203253	 0.104036
H	 2.2909743031	 3.5570212865	-1.8759718562	 0.097595
H	 1.2841124049	 4.9617654137	-1.5247863137	 0.109235
H	 2.017896246	 3.8171490783	 0.5696849951	 0.111822
H	 0.2744758479	 3.9141749721	 0.4025577051	 0.132378
H	 1.9339488252	 1.4730574468	 0.1625655534	 0.24153
