15
gdb 44434	3.70511	1.464	1.42991	3.4457	65.57	-0.2776	-0.0256	0.252	929.9241	0.11271	-457.657311	-457.650668	-457.649724	-457.688253	26.526	
O	-0.0989286608	 0.0460424798	 0.3913533627	-0.290153
C	-0.066053301	 1.1724369927	 0.049852619	 0.373541
O	-1.1719302394	 2.0268200765	-0.2586390682	-0.289204
C	-0.2204465921	 2.8799914256	-1.040114844	 0.094245
C	 0.6876314661	 4.1818771272	-1.0043042436	-0.006604
C	 0.7389894397	 4.6672862902	 0.4360408342	-0.215738
C	 0.9124162709	 3.2703412643	 1.0885745639	-0.240483
C	 0.8752159223	 2.4007012961	-0.1993016589	 0.194757
O	 1.8146947983	 3.1917870496	-1.0741512444	-0.360979
H	-0.2049930944	 2.4899816342	-2.0567314245	 0.129072
H	 0.6989386921	 4.8771556524	-1.8427885128	 0.106481
H	 1.5900612131	 5.3297286394	 0.6032450201	 0.123232
H	-0.1761831366	 5.1827923974	 0.7371086551	 0.120584
H	 1.8803690732	 3.1354568188	 1.5752691604	 0.129355
H	 0.1236660886	 3.0191924159	 1.799244741	 0.131893
