16
gdb 56490	2.10898	1.41824	0.88041	3.6688	80.56	-0.2778	0.0091	0.287	1266.5386	0.120631	-363.554124	-363.544242	-363.543298	-363.588998	35.502	
C	-0.0574760643	 1.5667533718	 0.0290861982	-0.406751
C	-0.0215203877	 0.0288930033	-0.0043263926	-0.14001
C	-1.384135526	-0.5113772382	 0.0137199598	 0.277477
N	-2.4713700964	-0.9022654043	 0.0275137771	-0.319668
C	 0.7571210598	-0.5232364599	-1.2543751424	-0.35678
C	 2.1260101748	-0.0001118413	-1.2840868083	 0.32099
C	 3.2462415438	 0.4320508831	-1.2982424134	-0.426858
C	 0.7542684377	-1.9876703614	-1.2801669511	 0.324756
C	 0.7409785365	-3.1876839303	-1.2824348832	-0.41691
H	 0.9604866292	 1.9600915932	 0.0464750936	 0.14647
H	-0.5730525134	 1.9621508234	-0.8508603107	 0.138607
H	-0.5874363376	 1.9139596635	 0.9187218717	 0.1417
H	 0.4961217127	-0.3442271697	 0.8860112387	 0.147217
H	 0.2260793441	-0.1580818412	-2.1450655423	 0.153431
H	 4.2409840047	 0.8042630947	-1.3225098769	 0.207689
H	 0.7228961719	-4.2497503068	-1.2924651482	 0.208641
