15
gdb 25578	7.24342	0.75841	0.68947	4.0156	68.47	-0.2134	-0.0349	0.1785	1523.1402	0.11222	-453.978597	-453.970184	-453.96924	-454.013651	29.053	
O	-0.2299013284	 0.2121781596	 0.505941845	-0.234155
C	 0.0489679358	 1.1303119473	-0.2168516575	 0.141641
C	 1.3690417245	 1.871064924	-0.1421803434	-0.154591
O	 1.3437450225	 2.8817218375	-1.1460743429	-0.282008
C	 2.4480946482	 3.6416921836	-1.2103854109	 0.500221
N	 3.5205456666	 3.560794911	-0.4703603124	-0.356129
C	 4.3464830824	 4.5679591902	-0.9480026756	-0.093282
C	 3.7517039837	 5.2408993343	-1.9731742539	-0.10501
N	 2.5133853811	 4.6308426386	-2.1391680845	-0.340225
H	-0.6436730432	 1.5099080737	-1.00041097	 0.094647
H	 1.502937812	 2.3109199459	 0.8534990445	 0.157342
H	 2.2039436535	 1.1785377323	-0.3037589867	 0.156958
H	 5.3198661882	 4.7386429534	-0.5155913897	 0.112361
H	 4.0640616272	 6.0665685066	-2.5892648297	 0.131891
H	 1.7985607059	 4.863073572	-2.8069670922	 0.270339
