18
gdb 107194	3.82181	1.15279	1.10996	3.9403	71.08	-0.2148	0.0475	0.2623	1142.5501	0.147853	-438.984754	-438.976844	-438.9759	-439.017038	31.473	
O	 0.4971317622	 0.3567713981	-1.0074708147	-0.407557
C	-0.0737637007	 0.208626528	 0.2854888586	-0.210478
C	-1.50241844	-0.246902102	 0.2141671696	 0.34435
N	-1.9080997933	-1.293090355	-0.763724513	-0.408794
C	-2.5637991897	 0.0534237826	-0.7662904067	-0.115981
C	-3.637383507	 0.1076463563	 0.3482222828	-0.141352
C	-3.7090804106	-1.1342638731	 1.2046020994	 0.14454
O	-3.7120175441	-2.453132564	 0.796110839	-0.428543
C	-2.5227105526	-0.2150322379	 1.3849746422	-0.215503
H	 0.1115420939	 1.1429470445	-1.4081964957	 0.290933
H	 0.5370845789	-0.5431070154	 0.7998675554	 0.129097
H	-0.0068266967	 1.1381123175	 0.8701589653	 0.105142
H	-1.1947478608	-1.270580893	-1.4940280078	 0.239899
H	-2.5535717655	 0.6586336219	-1.6642183228	 0.093801
H	-4.3788182033	 0.8966971758	 0.3878475139	 0.088972
H	-4.422425513	-1.0013849665	 2.0169190656	 0.105451
H	-3.0526488019	-2.4891633503	 0.0792162203	 0.299407
H	-2.3041650458	 0.2941057724	 2.3167694187	 0.086616
