24
gdb 104304	2.77903	1.24716	1.17739	1.5326	87.58	-0.2257	0.0781	0.3038	1232.0128	0.218501	-368.40563	-368.396475	-368.395531	-368.438896	36.423	
C	-0.1437446167	 1.5465114869	-0.0837467349	-0.39348
C	 0.0031279332	 0.0240645916	 0.0267270063	-0.214613
C	 0.7620371776	-0.4869224302	 1.2689791998	 0.315529
C	 2.2188623205	 0.0158490329	 1.2794732727	-0.439125
C	 0.0537943492	-0.1367589094	 2.6077518086	-0.281351
C	 0.3854814113	-1.3267729196	 3.5384723509	-0.163629
N	 0.6296848699	-2.5151509037	 2.6969262557	-0.101323
C	-0.4395988435	-2.7525268596	 1.7154896795	-0.269187
C	 0.7879346487	-2.0181840469	 1.3159924005	-0.034406
H	 0.8250487215	 2.0473266797	-0.1726401865	 0.118147
H	-0.7301412736	 1.8119080887	-0.9690542728	 0.112597
H	-0.6567858943	 1.9657063014	 0.7882395277	 0.116602
H	-0.9947714965	-0.431252906	 0.0225256397	 0.091844
H	 0.5101102609	-0.3525431858	-0.8718658501	 0.091265
H	 2.2662953929	 1.1069051408	 1.3407342064	 0.113537
H	 2.7696958282	-0.3896539556	 2.1339964195	 0.121733
H	 2.7468504053	-0.2934504357	 0.3703771461	 0.111045
H	 0.3949144814	 0.8151064392	 3.0230135817	 0.09905
H	-1.0264818224	-0.0453784394	 2.4556126613	 0.098099
H	 1.3053124087	-1.1351881649	 4.1016727658	 0.106986
H	-0.4055611189	-1.534183078	 4.2662265683	 0.102367
H	-0.5634661055	-3.7923949868	 1.4269033421	 0.112769
H	-1.3732122938	-2.2034169787	 1.8123776182	 0.105366
H	 1.5355118758	-2.522234731	 0.7072059035	 0.08018
