15
gdb 20055	4.52377	1.70025	1.55458	2.7983	60.48	-0.2509	0.0216	0.2724	839.1831	0.120238	-399.783308	-399.776525	-399.775581	-399.815007	24.493	
C	 0.3365279866	 1.4770843652	 0.2898318385	-0.170836
O	 1.2634202349	 0.4171996372	 0.0221979808	-0.23199
C	-0.1211799686	 0.0964833111	 0.1048301254	 0.062427
C	-0.5331788293	-0.7979830033	 1.2512450118	 0.055141
C	 0.1396134417	-2.2042379644	 1.2220517469	-0.197244
N	 0.9272721044	-2.2766750229	 2.4630813847	-0.254756
C	 0.7363168022	-1.1772294735	 3.0560875896	 0.127269
O	-0.0862723571	-0.2428637117	 2.511653924	-0.229802
H	 0.3840029162	 1.8856550932	 1.2952353207	 0.132832
H	 0.2078736003	 2.1973026772	-0.5164966515	 0.116919
H	-0.5829061011	-0.1773331903	-0.8464545246	 0.098507
H	-1.6265387581	-0.8565827331	 1.2854911944	 0.097171
H	-0.5913901417	-3.0177875588	 1.196198434	 0.118884
H	 0.8024154025	-2.3191763015	 0.3586242535	 0.13201
H	 1.171887597	-0.8853979544	 4.0049532118	 0.143468
