19
gdb 53352	2.62374	1.11917	0.92446	1.9013	84.84	-0.2454	0.0171	0.2625	1351.3915	0.158629	-385.876423	-385.867	-385.866056	-385.911868	34.113	
C	-0.0930320168	 1.4707208675	-0.0299705135	-0.498971
C	-0.0612071906	 0.014253836	-0.0079397259	 0.037381
C	-0.0042531735	-1.190286894	 0.0061431036	 0.097447
C	 0.0317706993	-2.6496457573	 0.0326127639	-0.225563
C	 0.6102500463	-3.1852569452	 1.3801950042	-0.26546
C	-0.6275113162	-3.4986231979	 2.1878092945	-0.054831
C	-1.7257525606	-3.5200772492	 1.4381356672	-0.102081
C	-1.4308222729	-3.2392820521	-0.0205324105	 0.103668
O	-2.3753077346	-2.4320666536	-0.6850586097	-0.430943
H	 0.9181217746	 1.887588787	 0.0338435328	 0.150929
H	-0.5475226018	 1.8462735669	-0.9532673169	 0.15093
H	-0.6691989499	 1.871303443	 0.8113071716	 0.149069
H	 0.6165701203	-3.0053255476	-0.8213143573	 0.101012
H	 1.205311751	-4.0923768124	 1.2083197036	 0.10881
H	 1.2721398834	-2.4600147902	 1.8623589709	 0.114762
H	-0.5841489424	-3.7139812833	 3.2499340043	 0.095684
H	-2.7305405809	-3.7512218385	 1.7725421281	 0.098844
H	-1.4178870409	-4.1794624648	-0.5878456237	 0.092068
H	-2.230443164	-1.5248838844	-0.3841917674	 0.277245
