17
gdb 110706	3.32793	1.30918	1.19728	2.4096	73.76	-0.2446	-0.004	0.2406	1083.9082	0.13539	-421.795743	-421.787833	-421.786889	-421.828418	29.859	
C	 0.1565512627	 1.3246093369	 0.1980722349	-0.245961
O	-0.3503669924	 0.0792993047	-0.2350610735	-0.24523
C	 0.4298230162	-0.5269967412	-1.2072127604	 0.18505
C	 1.8053816576	-1.2110903726	-0.8279256131	-0.250488
C	 1.366684468	-2.2630354641	 0.1702651761	-0.080043
C	 0.2115826803	-2.7421244518	-0.3280090841	-0.070567
C	-0.0051411306	-1.9646788719	-1.6140890405	-0.242592
C	 1.4957546857	-2.081969849	-2.115010525	 0.417468
O	 2.0933912608	-2.582369947	-3.0068420986	-0.2987
H	 1.1293317691	 1.2156073495	 0.6986516277	 0.113164
H	 0.2727660368	 2.0289416649	-0.639947068	 0.109506
H	-0.5636886633	 1.7352231534	 0.9087764109	 0.133702
H	 0.5559911176	 0.1295980079	-2.0845613794	 0.079814
H	 2.7351915078	-0.6660652664	-0.6877055898	 0.083021
H	 1.9385331734	-2.6033321829	 1.0209703341	 0.111059
H	-0.3910488241	-3.5712877984	 0.0119225332	 0.112457
H	-0.8707569255	-2.1647911921	-2.2397750345	 0.08834
