21
gdb 22182	2.47338	1.2344	1.01765	0.8938	83.68	-0.2128	0.0095	0.2223	1282.7216	0.179327	-420.344997	-420.33473	-420.333786	-420.379546	38.211	
C	-0.1475095083	 1.5094745659	-0.0097388351	-0.330746
N	-0.0233681352	 0.0734979742	 0.0956757249	-0.104902
C	-1.238317205	-0.7261369153	 0.3579725437	-0.270315
C	-0.4054344521	-1.5707254455	 1.2917082071	 0.386087
N	-0.5026987164	-2.6722205293	 1.9005298273	-0.254253
O	-1.7550051846	-3.2735256865	 1.6644896133	-0.392301
C	 0.738038721	-0.5675460693	 1.2270679332	 0.214189
C	 2.0978683106	-1.1074241292	 0.791422859	-0.413349
C	 0.8482624214	 0.2665143114	 2.5120609593	-0.43249
H	 0.8435689797	 1.9651386322	-0.1037141304	 0.121726
H	-0.7079759321	 1.7557303999	-0.9183912955	 0.123137
H	-0.665624347	 1.9870128792	 0.8418670559	 0.093547
H	-2.0453438751	-0.1863527628	 0.8830363272	 0.105913
H	-1.6694688091	-1.2235879471	-0.51795419	 0.125505
H	-1.6829163442	-4.0942427864	 2.1634143954	 0.306444
H	 1.9995354976	-1.6961784305	-0.1231276128	 0.121603
H	 2.7913595194	-0.2817413596	 0.5964692842	 0.110939
H	 2.5302793859	-1.7396880031	 1.5732295625	 0.12292
H	 1.2538514014	-0.3516271103	 3.3179893481	 0.131202
H	 1.5194502107	 1.1197701289	 2.3676441059	 0.116257
H	-0.1244953686	 0.6453441832	 2.8385687065	 0.118889
