20
gdb 99949	2.83744	1.09754	0.96568	3.8127	79.99	-0.2878	-0.082	0.2058	1310.4657	0.167685	-403.181521	-403.170898	-403.169953	-403.217245	38.037	
C	 0.1084647579	 1.5793746936	 0.0095188895	-0.414811
C	-0.0052213487	 0.0515148975	 0.0024422807	-0.18582
C	-1.4446201991	-0.5101309184	 0.0131124003	 0.126647
C	-2.217553153	-0.0951852198	 1.2866967031	-0.437557
C	-2.2415835173	-0.0816307567	-1.2410197243	-0.437556
C	-1.3521021575	-2.0360578313	 0.0040278796	 0.303409
O	-0.3361601169	-2.6826301694	-0.0089931151	-0.285193
C	-2.6534919008	-2.7574253375	 0.0125512702	 0.24584
N	-3.656814776	-3.3326451384	 0.0189948831	-0.319078
H	 1.1627684581	 1.8713565879	 0.0011013379	 0.124302
H	-0.361152735	 2.0335133204	-0.8683072555	 0.120985
H	-0.3444130158	 2.024081363	 0.9008662311	 0.120984
H	 0.5125476424	-0.3478814262	-0.8765521341	 0.111735
H	 0.5291054749	-0.3571889341	 0.8671339288	 0.111736
H	-2.3785094647	 0.9858178239	 1.2883300622	 0.133286
H	-3.1996837355	-0.5743231979	 1.3343010641	 0.143948
H	-1.6625976706	-0.3591001858	 2.19248913	 0.129958
H	-1.7039192561	-0.3356491331	-2.159974709	 0.129955
H	-3.2244410178	-0.5604315783	-1.2751384261	 0.143948
H	-2.4025439586	 0.9992932006	-1.2279293065	 0.133282
