22
gdb 107918	2.88048	1.32044	1.17851	0.9049	85.91	-0.2004	0.0869	0.2874	1191.1695	0.194085	-367.147224	-367.138501	-367.137557	-367.180446	34.129	
C	 0.032609008	 1.4767552846	 0.2056322048	-0.372764
C	-0.1104245699	-0.0204798068	-0.1005869834	-0.303786
C	 0.6462754147	-0.4433335501	-1.3269414897	 0.347604
C	 0.3811482834	-0.0589498911	-2.7856333256	-0.30613
C	 1.3929215495	-1.1877867214	-3.1502922407	-0.026648
C	 1.0789489369	-1.839483158	-1.7497142147	-0.172771
C	 2.1393327499	-0.8939817762	-1.2891225381	-0.068505
N	 2.7277982166	-0.7835290392	-2.6182687176	-0.075071
C	 3.3160812616	 0.4820377047	-3.0330784601	-0.328576
H	 1.0815902097	 1.7462312837	 0.3660266235	 0.116527
H	-0.342640019	 2.0860573641	-0.6233723241	 0.118426
H	-0.529943921	 1.7526800586	 1.1028046258	 0.109852
H	 0.2418177096	-0.6069029498	 0.7586500487	 0.095345
H	-1.1742031028	-0.268916535	-0.2181629045	 0.095847
H	-0.6315089688	-0.3496136168	-3.0813028745	 0.097383
H	 0.5820618244	 0.9599371075	-3.1343583847	 0.0881
H	 1.3815821586	-1.6690664186	-4.1275400703	 0.072118
H	 0.7997926589	-2.8340504686	-1.4333299367	 0.092229
H	 2.7241109895	-0.8946073746	-0.3760243887	 0.087532
H	 4.2690526204	 0.6152606839	-2.5094553065	 0.117745
H	 3.5292696024	 0.444247559	-4.1068748471	 0.116549
H	 2.6969304676	 1.3708460001	-2.8332297258	 0.098995
