15
gdb 69180	2.24357	1.90669	1.25715	2.9371	66.44	-0.2425	-0.0428	0.1997	996.4312	0.109795	-457.70788	-457.699809	-457.698864	-457.740522	29.71	
C	-0.0725720577	 1.5296691209	 0.0367484263	-0.513513
C	 0.1241634343	 0.0529737766	-0.0077629388	 0.330269
O	-0.7545406993	-0.8313316593	 0.6951865293	-0.271718
C	 0.6574142234	-0.905671015	 1.0029712849	-0.223874
C	 1.2424668466	-1.7742000444	-0.1148742683	 0.386518
O	 1.9949135907	-2.6974216815	-0.1712366451	-0.295394
C	 0.636219321	-0.8099210672	-1.1645650617	 0.278297
C	 0.1701825328	-0.9894707306	-2.5360406069	-0.255797
O	 1.410108664	-0.3248523189	-2.2411778865	-0.265942
H	 0.821120106	 2.0383383616	-0.3353377311	 0.150508
H	-0.9174010966	 1.824478674	-0.594836384	 0.141298
H	-0.2765596446	 1.8611061127	 1.057656736	 0.143975
H	 0.9640832534	-0.7586033528	 2.0314760589	 0.127571
H	 0.2697870534	-1.9647850654	-3.007966239	 0.139923
H	-0.6224744274	-0.3502571406	-2.920879724	 0.127878
