20
gdb 117568	2.21681	1.08756	0.77242	3.3959	80.88	-0.2807	0.0216	0.3023	1516.3914	0.169212	-403.141292	-403.131286	-403.130342	-403.177242	35.372	
C	 0.1312981806	 1.4229721673	 0.0576543375	-0.385606
C	-0.1358146533	-0.0589346711	-0.1333136887	-0.053423
O	 0.8289428798	-0.5663320604	-1.0508009693	-0.244028
C	 0.7273399484	-1.9461796771	-1.3068140514	-0.026552
C	-0.5384147394	-2.2676521288	-2.0168174245	 0.269518
N	-1.5262864349	-2.5068670856	-2.5666800922	-0.331066
C	 1.9204939354	-2.3791499931	-2.1275130986	 0.017664
C	 3.2068025653	-2.7242136348	-1.4269673445	-0.276804
C	 2.3833985463	-3.811801364	-2.0678226191	-0.265914
H	 1.139923757	 1.5868065118	 0.4470860242	 0.128342
H	 0.0385649025	 1.9541894191	-0.8934959922	 0.134252
H	-0.5883369166	 1.8473487311	 0.7637424738	 0.121419
H	-0.0544725318	-0.5995577421	 0.8238398185	 0.091336
H	-1.1510505403	-0.2256884445	-0.5215252311	 0.117393
H	 0.7136639848	-2.5144363323	-0.3604251696	 0.103561
H	 1.9913949623	-1.8703875008	-3.0829501334	 0.110495
H	 4.1345879636	-2.4265057226	-1.9014381337	 0.123525
H	 3.2249531391	-2.6690141789	-0.3436492111	 0.119018
H	 1.8459491422	-4.4938637121	-1.4172852324	 0.121632
H	 2.7394799189	-4.2656691811	-2.9850067221	 0.125236
