27
gdb 102544	1.77636	1.27112	0.95994	0.1432	95.53	-0.2598	0.0828	0.3426	1468.3056	0.250423	-353.558117	-353.546846	-353.545902	-353.594334	42.472	
C	-1.655629638	-0.2564586566	-0.2883636995	-0.386703
C	-0.1535499867	-0.0653138196	-0.0543430118	-0.184342
C	 0.7639126187	-0.6405846116	-1.1536653133	-0.032091
C	 2.2455749749	-0.2882355442	-0.8901830753	-0.180277
C	 2.5875497937	 1.1995558806	-1.03129961	-0.39151
C	 0.5870629737	-2.1502251613	-1.3629987292	 0.403547
C	 0.8108277053	-3.0401868724	-0.1511721551	-0.472361
C	-0.4440092722	-2.614414295	-2.3673573979	-0.313487
C	 1.0250253822	-2.704482031	-2.7005280214	-0.316227
H	-1.9675992196	 0.1856499265	-1.2414656421	 0.1093
H	-1.9350027512	-1.3133368145	-0.3096079752	 0.123828
H	-2.2358329973	 0.2266087671	 0.5046086837	 0.10642
H	 0.0493292111	 1.0071941325	 0.0414984556	 0.093304
H	 0.1253679555	-0.5061663219	 0.9116963828	 0.093434
H	 0.4818526264	-0.1586952282	-2.1025149067	 0.05776
H	 2.5299309105	-0.6294704573	 0.113781011	 0.092781
H	 2.8649974547	-0.8599199428	-1.5913021796	 0.095074
H	 2.0731327984	 1.8164363411	-0.2882925239	 0.11771
H	 3.6620388005	 1.3652500664	-0.9026712842	 0.109782
H	 2.3112694049	 1.576080462	-2.0229442131	 0.111052
H	 0.0879104222	-2.8355368515	 0.6463162202	 0.116567
H	 0.7050390648	-4.0951758429	-0.4229712726	 0.109815
H	 1.814278964	-2.9095834058	 0.2686399412	 0.116107
H	-0.9813716024	-3.5350373203	-2.1624895233	 0.103877
H	-1.0347109579	-1.8659728942	-2.8845150405	 0.107446
H	 1.4196620228	-2.0131247749	-3.4386279272	 0.104986
H	 1.4877598009	-3.6856155501	-2.7252268627	 0.104209
