19
gdb 124630	4.31749	0.90236	0.84622	4.0651	78.66	-0.1992	0.0071	0.2063	1420.3991	0.160108	-415.388326	-415.379294	-415.37835	-415.422705	33.433	
C	-0.1888287968	 1.5124254291	 0.0303354222	-0.383661
C	 0.0342686992	-0.0087935408	 0.0446314636	 0.055833
C	 0.7549510457	-0.4636652299	 1.3148753586	-0.395164
N	-1.2023367781	-0.7776497829	-0.0934658734	-0.382938
C	-1.9316553474	-0.7275846574	-1.265844676	 0.381774
C	-1.5367092489	-0.5203356786	-2.573592555	-0.18008
N	-2.6968103457	-0.6664497422	-3.2752121034	-0.150375
N	-3.732072692	-0.9368295344	-2.4803004895	-0.116037
N	-3.2762673402	-0.9710927934	-1.2556327943	-0.27761
H	 0.7651699834	 2.0494102214	 0.0576893323	 0.112566
H	-0.7291562463	 1.8217757954	-0.8688058618	 0.122949
H	-0.7765792045	 1.8223203056	 0.9019440017	 0.115068
H	 0.6633945719	-0.2767505453	-0.8146699231	 0.086355
H	 0.1539365854	-0.2343410604	 2.203329214	 0.115217
H	 0.9342313927	-1.5416095359	 1.2949215131	 0.127088
H	 1.713327938	 0.0520474027	 1.4232254252	 0.117708
H	-1.8093295754	-0.7341275183	 0.7155668764	 0.237453
H	-0.5948219486	-0.3013045342	-3.0433997027	 0.13465
H	-2.8442906425	-0.5890982005	-4.268335508	 0.279203
