15
gdb 9715	3.73788	1.6006	1.56261	3.879	66.99	-0.2714	-0.017	0.2545	877.899	0.119126	-362.683109	-362.675619	-362.674675	-362.714916	27.818	
O	-0.2258469262	 1.2762139408	-0.2366809454	-0.446216
C	 0.0400358249	-0.0973532556	 0.0521600232	 0.219991
C	-1.3201622094	-0.8439924037	 0.0898203865	-0.243819
C	-1.4515844164	-1.5364853882	-1.2872688027	-0.266887
C	-0.0397608547	-1.5371801915	-1.8126046109	-0.059744
C	 0.7812043106	-0.7900421301	-1.0789482428	-0.115508
C	 0.7730998723	-0.1880811854	 1.3339721194	 0.232026
N	 1.3705130552	-0.2438208676	 2.3220723547	-0.342233
H	 0.6145106003	 1.7242614568	-0.3882300906	 0.288198
H	-1.3046110785	-1.5897653334	 0.8872501476	 0.131527
H	-2.1173097276	-0.1312403927	 0.3061042643	 0.133397
H	-1.866666011	-2.5461869192	-1.2007106237	 0.11812
H	-2.1145014165	-0.9862137003	-1.9669607577	 0.127075
H	 0.2486763158	-2.0718646823	-2.7110672945	 0.111749
H	 1.8357671713	-0.6169911976	-1.2587845974	 0.112323
