20
gdb 82140	3.0727	1.13769	0.96775	4.0724	79.37	-0.2327	-0.0175	0.2152	1261.8036	0.169989	-403.111539	-403.102519	-403.101575	-403.146117	33.323	
C	-0.161108245	 1.6402999224	 0.0953553948	-0.418315
C	-0.0563679893	 0.1221667075	 0.0290575032	 0.007699
C	 0.4489613052	-0.4982383569	-1.2829102534	-0.053676
N	 1.8459827267	-0.0305654411	-1.4593942643	-0.332137
C	 1.5617853924	-1.1971725791	-0.5892404488	-0.076328
C	 1.1310378082	-0.6377148589	 0.7707756189	-0.020375
C	 2.1714118649	 0.1542323458	 1.5723499859	-0.284622
C	 1.6386699853	 0.5656557512	 2.9247141986	 0.160608
O	 1.5141457878	 1.6982843865	 3.315054835	-0.240412
H	 0.7343503914	 2.1088131641	-0.3195574165	 0.139519
H	-1.0233531371	 1.9866021209	-0.4854181742	 0.107962
H	-0.286428641	 1.9925878622	 1.1233969694	 0.132294
H	-1.0047149598	-0.3370191786	 0.32417114	 0.074685
H	-0.139218143	-0.8114110579	-2.1371607807	 0.091577
H	 2.1755362447	-0.3953907416	-2.3522626941	 0.229691
H	 2.0164495209	-2.1605691806	-0.7883258122	 0.090728
H	 0.7166056183	-1.4380817959	 1.3934587422	 0.075828
H	 3.0360754593	-0.5023104341	 1.7518429791	 0.11056
H	 2.5148008399	 1.0326163403	 1.0242233613	 0.139093
H	 1.3405098902	-0.293947986	 3.5736766357	 0.065621
