19
gdb 6119	2.83333	1.78626	1.43706	3.8452	71.99	-0.2396	0.0393	0.2789	971.5767	0.163752	-365.102549	-365.093554	-365.09261	-365.135831	33.437	
C	-0.1421499836	 1.5681189874	-0.09749931	-0.412643
C	 0.0196823443	 0.0578855756	 0.0009413725	-0.20659
C	 1.1459973863	-0.5752218342	-0.851796453	 0.444164
O	 1.4472371779	-0.5763126985	-2.0169919629	-0.376097
N	 1.7073657148	-1.1493286351	 0.2590535854	-0.365124
C	 0.7411805306	-0.6072209273	 1.2387255729	 0.337753
C	 1.3807623435	 0.3420588574	 2.2512275422	-0.427567
C	-0.0807531754	-1.6907821015	 1.9369750355	-0.429111
H	 0.8032639909	 2.0957161969	 0.0554295926	 0.12425
H	-0.504837649	 1.8305909915	-1.0956891187	 0.13883
H	-0.865482229	 1.9431752777	 0.6338644808	 0.116852
H	-0.9370716568	-0.4353429256	-0.1991522194	 0.095506
H	 2.5179289725	-1.7424739788	 0.3678318984	 0.24069
H	 2.0098581198	 1.0895172414	 1.7623818033	 0.124056
H	 0.6153671503	 0.8618350645	 2.8366491513	 0.122112
H	 2.0087404489	-0.217922465	 2.9532462775	 0.114526
H	 0.5429458367	-2.277568046	 2.6209416732	 0.114334
H	-0.8878266429	-1.2439980313	 2.5272306486	 0.121739
H	-0.5237096898	-2.375676869	 1.2081993698	 0.122321
