20
gdb 51567	4.34176	0.72307	0.66399	3.2521	81.86	-0.2377	-0.0184	0.2193	1693.8204	0.169835	-403.114438	-403.10506	-403.104116	-403.150309	33.72	
O	-0.7518021179	 0.3830991821	 0.052855619	-0.241899
C	-0.1397003823	 1.4189919414	 0.1093898263	 0.158083
C	 1.3045791298	 1.5958080717	-0.3122052783	-0.280584
C	 1.4454058459	 2.7298247581	-1.3102270493	-0.039882
N	 1.3611037516	 4.1006365209	-0.7720314995	-0.345528
C	 2.622350818	 3.6435843165	-1.3779489316	-0.03005
C	 3.8233204969	 3.5490279481	-0.4950938056	 0.036274
C	 5.1269247307	 3.0393373869	-1.061723341	-0.26893
C	 4.9803765688	 4.4964823289	-0.7071697864	-0.274273
H	-0.6160165642	 2.3525451319	 0.4840377068	 0.087735
H	 1.8827517629	 1.831994621	 0.5888777606	 0.12387
H	 1.6719998831	 0.6517116982	-0.7250846071	 0.120286
H	 0.9441107808	 2.5412564172	-2.2591251648	 0.093044
H	 0.8493357632	 4.7101359579	-1.403274738	 0.234165
H	 2.850623159	 4.0146222264	-2.3780846969	 0.080491
H	 3.6053009946	 3.2931866479	 0.5360663605	 0.090631
H	 5.7487241858	 2.4116567283	-0.4334701481	 0.116136
H	 5.1506224382	 2.773475839	-2.1136608673	 0.112334
H	 4.9048669391	 5.2114340638	-1.5202551615	 0.111574
H	 5.4998885857	 4.8727201038	 0.1667199925	 0.116523
