14
gdb 19274	3.33163	1.96163	1.40131	2.6129	58.33	-0.2324	-0.0379	0.1945	869.3372	0.104977	-419.622903	-419.615426	-419.614482	-419.655171	26.276	
C	 0.1247008999	 1.3094066357	-0.1304130034	-0.24577
O	-0.3061043036	 0.0104667496	 0.2449559273	-0.241616
C	 0.5303038884	-0.5976627246	 1.1701256868	 0.015565
C	 0.1611308803	-2.0282504653	 1.561254842	-0.009989
O	 0.35667921	-2.8419280415	 0.4132987331	-0.222299
C	 1.5111615505	-2.5616481135	 1.2359840882	-0.113225
C	 1.9453383219	-1.1783139707	 0.7612405301	 0.38711
O	 2.9589322283	-0.6961828427	 0.3546886898	-0.298679
H	 1.1147133428	 1.2869446481	-0.6015186795	 0.139763
H	-0.6082141873	 1.6903434621	-0.8441006055	 0.13463
H	 0.163670661	 1.9835553083	 0.7390144269	 0.108409
H	 0.6923999006	 0.0347402647	 2.0633479519	 0.091008
H	-0.52834291	-2.3724371697	 2.3219279519	 0.124727
H	 2.0591148073	-3.3997968306	 1.6479568704	 0.130366
