15
gdb 123661	4.12856	1.67208	1.30857	5.7964	70.15	-0.2169	0.0127	0.2296	919.77	0.116634	-412.956428	-412.95027	-412.949326	-412.986868	24.976	
C	-0.0152852013	 1.4656507652	 0.1140063186	-0.319951
C	 1.310418126	 0.7357051793	-0.0198732913	-0.018087
N	 2.0666945667	 0.3485626787	 1.1654283998	-0.420102
C	 1.2092582512	-0.4247489388	 1.9517106597	 0.353479
C	 1.0568382345	-1.0734384653	 3.1550888397	-0.187066
N	-0.1474643214	-1.7290549847	 3.1130179345	-0.186176
N	-0.7500573474	-1.5164343892	 1.9763390825	-0.183817
N	 0.0841005473	-0.7204727215	 1.2657627288	 0.06512
C	 0.0056095831	-0.0410437624	 0.0055614521	-0.003709
H	-0.2930141081	 1.8981936635	 1.0687141896	 0.13833
H	-0.3487318478	 2.014390868	-0.7596295651	 0.132956
H	 1.8924743866	 0.8518425317	-0.9261840485	 0.120814
H	 2.5602479526	 1.0933845104	 1.638952664	 0.255257
H	 1.7010894465	-1.1240067221	 4.0157427583	 0.116991
H	-0.4119364983	-0.5860843929	-0.8300878626	 0.135959
