21
gdb 55687	3.16711	1.06925	1.04466	1.7365	78.99	-0.2598	0.0192	0.279	1300.4747	0.180307	-424.266312	-424.256505	-424.255561	-424.301324	36.036	
C	-1.4147620963	 1.4193923479	-1.2773747984	-0.473911
C	-1.6393836544	-0.0751384217	-1.2423259223	 0.415416
O	-2.1856600797	-0.7149789833	-2.1071855101	-0.360773
O	-1.1496845577	-0.5981094922	-0.1004748055	-0.296254
C	-1.2820382106	-2.0231555848	 0.1140486307	 0.447184
C	-0.3124925848	-2.7814097604	-0.7822963077	-0.45044
C	-1.1520953891	-2.3614107754	 1.6184642393	-0.266911
C	-2.3734251499	-3.3115047341	 1.4726318004	-0.228502
C	-2.7263020573	-2.5917477749	 0.1419260378	-0.244899
H	-1.8059477163	 1.8231576994	-2.2104158421	 0.14564
H	-1.913568583	 1.8935946068	-0.427251311	 0.146788
H	-0.3473269533	 1.6411876626	-1.1911913188	 0.147327
H	 0.7099541376	-2.4249207783	-0.620445064	 0.116985
H	-0.3397784474	-3.8501152089	-0.5479466012	 0.117987
H	-0.5769383442	-2.6507261034	-1.8332100712	 0.147927
H	-0.2011290462	-2.7834583362	 1.9528770499	 0.097778
H	-1.3877942073	-1.4844788851	 2.2259148719	 0.109789
H	-2.0761120108	-4.3519610421	 1.3195374368	 0.106612
H	-3.1205872104	-3.280865209	 2.2675108824	 0.102893
H	-3.4561013092	-1.7938068131	 0.2952765573	 0.108116
H	-3.0367140696	-3.1922387138	-0.7139873743	 0.111251
