19
gdb 87491	2.92458	1.41799	1.15136	1.2002	76.45	-0.2401	0.064	0.3041	1118.5337	0.160062	-419.100239	-419.092204	-419.09126	-419.132532	31.922	
C	 0.0138443254	 1.5349636243	-0.0780166539	-0.39301
C	 0.0157282089	 0.0327668281	 0.0509733187	-0.139816
N	 1.3495732746	-0.650874846	-0.0766772344	-0.440348
C	 0.6186086728	-0.6646965505	 1.1839429713	 0.488375
C	 1.1338134471	-0.2613449972	 2.5788913714	-0.178562
N	-0.198484485	-0.7769621571	 3.097348043	-0.321168
C	 0.2567807856	-1.8336840258	 2.1059770341	-0.202235
C	 1.7175719535	-1.7067687095	 2.6925787775	 0.16396
O	 2.853476433	-2.0932326902	 1.9879805713	-0.445882
H	 0.8935831732	 1.9636192904	 0.408751762	 0.125138
H	 0.0269825106	 1.8368566187	-1.1303748505	 0.1215
H	-0.8815741839	 1.957562685	 0.3892624986	 0.128528
H	-0.8141852965	-0.4743200923	-0.4386971859	 0.094663
H	 1.2280329691	-1.5388279099	-0.560416757	 0.23629
H	 1.5598638184	 0.6866777977	 2.9081231646	 0.087253
H	-0.0597101034	-1.1379290123	 4.0481869316	 0.211434
H	-0.3370106067	-2.7229277517	 1.8878581618	 0.082618
H	 1.8092544098	-2.0835850356	 3.7169415674	 0.080806
H	 2.8857131535	-1.5756548563	 1.1719933384	 0.300455
