16
gdb 85719	2.08922	1.56955	1.00634	6.7957	74.75	-0.2597	-0.0118	0.2479	1169.6157	0.124166	-396.923104	-396.914374	-396.91343	-396.956952	30.892	
C	 0.0158877204	 1.5657592359	 0.1061843891	-0.339395
N	 0.0027128198	 0.1186481658	 0.12243047	-0.050522
C	-1.2530941777	-0.5987259977	 0.3927616248	-0.174931
C	-0.4390099828	-1.6746377607	 1.1756669215	-0.210935
C	-0.1331886973	-2.8756257572	 0.4188229174	 0.311079
N	 0.0828541694	-3.8418941878	-0.1767619898	-0.312483
C	 0.6883289862	-0.58152154	 1.2163502315	-0.127801
C	 2.0800677084	-0.9527417512	 0.9727860983	 0.318507
N	 3.1880332405	-1.2292826518	 0.7992928725	-0.312544
H	 1.0413664848	 1.9203778817	-0.033121631	 0.147921
H	-0.5815007212	 1.9240867769	-0.7371581761	 0.140659
H	-0.387681297	 2.0112486378	 1.0339709195	 0.102041
H	-1.9386611799	-0.059758807	 1.0656158448	 0.105649
H	-1.7954244678	-0.931246809	-0.494973964	 0.142771
H	-0.8310744034	-1.9480970631	 2.1553882377	 0.143976
H	 0.6358800177	-0.0477049626	 2.180659584	 0.116008
