17
gdb 133659	2.37934	1.27862	1.01408	1.9248	57.26	-0.2595	0.0679	0.3273	1182.5843	0.13077	-586.649183	-586.639303	-586.638358	-586.684289	35.662	
C	 0.0562661512	 1.5837479738	-0.0904210981	-0.401191
C	-0.1176825093	 0.0710363716	 0.0332258109	 0.148382
O	 0.1730364205	-0.595394973	-1.1837696064	-0.428139
C	 0.6894086517	-0.4897083904	 1.2294434946	-0.181777
N	 0.1313169602	 0.0355877063	 2.4702160725	-0.507868
C	 0.7596591194	-2.0250951319	 1.2238178417	 0.28945
F	 1.5324178179	-2.5083669644	 0.2436618995	-0.073886
F	 1.2893331581	-2.4659742657	 2.3850371917	-0.092454
F	-0.4569880821	-2.5788321365	 1.1132994325	-0.081609
H	 1.1007176591	 1.8314498661	-0.3189478739	 0.10448
H	-0.5688969273	 1.9628788831	-0.9026410885	 0.124745
H	-0.2129441634	 2.0844860276	 0.8416553536	 0.141896
H	-1.1740072428	-0.1585165575	 0.2199287331	 0.097731
H	 1.0973964834	-0.4377671275	-1.405546017	 0.279654
H	 1.7304284387	-0.1486152399	 1.150844576	 0.099383
H	-0.8119824047	-0.3229256332	 2.5973715387	 0.238478
H	 0.6728569993	-0.2960985087	 3.2618489291	 0.242725
