18
gdb 12339	2.99522	2.0876	1.33068	2.5983	72.89	-0.2357	-0.0109	0.2248	940.2492	0.154202	-347.846738	-347.838984	-347.83804	-347.878838	29.253	
C	-0.0277977871	 1.5563642121	 0.0010836836	-0.398851
C	 0.0998930444	 0.0352909037	 0.0146194494	-0.084486
C	 0.7971740893	-0.5245316166	-1.2479195833	-0.25514
C	 1.0734055729	-2.0008742776	-1.1512317008	-0.067513
C	 1.1253149377	-2.6605300189	 0.0043574439	-0.047674
C	 0.9543698153	-1.9968120995	 1.3464284177	-0.356134
C	 0.814540179	-0.4800162921	 1.2592526489	 0.386819
O	 1.2364102106	 0.2497007415	 2.1261289123	-0.313968
H	 0.95889083	 2.0287715663	-0.0011311772	 0.127409
H	-0.572307344	 1.8898762254	-0.8878539548	 0.106239
H	-0.5562623998	 1.9147713877	 0.8875141756	 0.127221
H	-0.9016393931	-0.4217750747	 0.0418211237	 0.096337
H	 0.1718430188	-0.3131205745	-2.1238729691	 0.110202
H	 1.7360489217	 0.0230992095	-1.4206730384	 0.119393
H	 1.2391626904	-2.5347098471	-2.0835802003	 0.091422
H	 1.3225282221	-3.7296009115	 0.0139356502	 0.093199
H	 0.0573796269	-2.3869372656	 1.8531166213	 0.132546
H	 1.7906743848	-2.2203762781	 2.0183034372	 0.13298
