21
gdb 58908	3.14617	1.38222	1.24187	1.5348	80.9	-0.2262	0.0771	0.3034	1119.4416	0.181751	-387.032817	-387.024363	-387.023418	-387.065635	33.512	
C	-0.063560654	 1.511386721	-0.0543455497	-0.3972
C	 0.0253330296	-0.0187551096	 0.0548643933	-0.105226
C	 0.9029913913	-0.4604561866	 1.2335634412	-0.400378
C	-1.3536499661	-0.6200649591	 0.1318087111	 0.467257
C	-2.372634412	-0.4002293466	 1.2922521643	-0.273075
C	-3.0657102461	-1.6484968929	 0.7513016413	-0.121875
C	-2.8471312358	-1.5735246751	-0.7688834108	 0.098844
O	-2.1740734784	-0.3522078892	-1.056566726	-0.339665
C	-1.7807309339	-2.1459382663	 0.0937199428	-0.217684
H	 0.9300647204	 1.9451065107	-0.2038889235	 0.109109
H	-0.6988532935	 1.8051632698	-0.8936489719	 0.139052
H	-0.4835997821	 1.9467604622	 0.8593729179	 0.114895
H	 0.4739724283	-0.4013853826	-0.8717214877	 0.085612
H	 0.960035473	-1.55131187	 1.3077325783	 0.115367
H	 1.9212431525	-0.0783281101	 1.1131525235	 0.115345
H	 0.5167036876	-0.0780861806	 2.1845730228	 0.118222
H	-1.9255899706	-0.5876053079	 2.2716941295	 0.10339
H	-2.912372018	 0.5519824324	 1.2890668322	 0.098399
H	-3.8551417509	-2.236631479	 1.2014952876	 0.089252
H	-3.4978281533	-2.0082652231	-1.5159044846	 0.105096
H	-1.2498258679	-3.0874692677	 0.1159634085	 0.095262
