15
gdb 11107	4.6391	1.29693	1.13908	3.02	65.55	-0.2555	-0.0401	0.2154	1052.2451	0.116877	-399.795399	-399.787203	-399.786259	-399.829079	27.754	
C	 0.2558832222	 1.4517831714	-0.0213906591	-0.341077
N	 0.3627293543	 0.0015049268	 0.0635192213	-0.318418
C	 0.4781382321	-0.6687642744	-0.9802070037	 0.479679
C	 0.6098260959	-2.1455854677	-1.2899933511	-0.407077
C	 0.6543682998	-1.6416068204	-2.7618204792	 0.032447
O	 0.5185627799	-0.2740978338	-2.3166959037	-0.250855
C	 1.94701681	-1.9179668065	-3.4939764497	 0.143494
O	 2.8456656613	-1.132518829	-3.6208730096	-0.221816
H	 1.0645242308	 1.9015150032	 0.5642629022	 0.133229
H	 0.2996786816	 1.8448189572	-1.0432520001	 0.131976
H	-0.6864779603	 1.7669196081	 0.4394254379	 0.12976
H	 1.5236491993	-2.6133496646	-0.918574827	 0.148124
H	-0.2530663582	-2.7562183696	-1.0226354382	 0.146249
H	-0.1979056454	-1.9513505992	-3.378257501	 0.113031
H	 2.0035238369	-2.9553400014	-3.9000587989	 0.081252
