17
gdb 32079	3.69942	1.15612	0.89052	4.1691	78.05	-0.2516	-0.0455	0.2062	1276.5257	0.136634	-418.070868	-418.06231	-418.061366	-418.105398	30.619	
C	-0.3742089481	 1.4883733921	 0.1296032207	-0.47193
C	-0.0901888538	 0.0155440349	 0.0322316436	 0.318762
N	-0.0229904574	-0.5080260338	-1.1969379592	-0.326806
C	 0.2286880967	-1.8141485834	-1.2902633746	 0.325451
C	 0.3065825627	-2.4156228129	-2.6775036821	-0.117295
O	 0.5748055018	-3.7909685721	-2.6598970686	-0.428403
N	 0.4215746943	-2.6571340623	-0.2731549682	-0.314157
C	 0.3536970425	-2.1306566249	 0.9521842165	 0.015477
C	 0.0977458977	-0.7855057933	 1.1630679254	-0.183959
H	 0.3962775168	 2.0545462141	-0.402972599	 0.151073
H	-1.3285060686	 1.7187044945	-0.3542348287	 0.151073
H	-0.4110852494	 1.8283115602	 1.1667754616	 0.124449
H	-0.6454110097	-2.2069968895	-3.1902071601	 0.116347
H	 1.0815508342	-1.8708132316	-3.2390071213	 0.116346
H	 0.6474634411	-4.0280278262	-1.7224957036	 0.290279
H	 0.5099617036	-2.812302811	 1.7851509622	 0.124168
H	 0.0456347257	-0.3726706547	 2.1632468954	 0.109124
