21
gdb 113758	3.73328	0.8061	0.72056	2.384	80.79	-0.2621	-0.0348	0.2273	1615.4573	0.180177	-424.224632	-424.214522	-424.213578	-424.260625	36.501	
C	 0.4751601994	 1.6114487604	 0.1858722317	-0.380885
C	-0.1071075851	 0.2164831936	-0.0714466012	-0.190632
C	 0.5053860397	-0.4459720844	-1.2890316786	 0.010972
C	 1.7716583771	-1.2609004163	-1.1902564246	-0.310602
C	 0.4613250001	-1.936249822	-1.5354817934	-0.039036
C	-0.2048546846	-2.8918234587	-0.561261343	 0.036224
O	-1.5977880998	-2.9105550784	-0.7231853767	-0.439218
C	 0.3610610295	-4.2882234163	-0.7431096657	 0.136524
O	-0.3468128612	-5.2370669003	-0.9823207327	-0.263623
H	 1.5561871027	 1.5632740505	 0.3545608042	 0.116492
H	 0.303428565	 2.2744809941	-0.6691986752	 0.115303
H	 0.0162484329	 2.0757180045	 1.0641087485	 0.112764
H	 0.0495649877	-0.4067773782	 0.8164412794	 0.094083
H	-1.1934176735	 0.2855150568	-0.2060619359	 0.114839
H	 0.4087932429	 0.1483739634	-2.1951190395	 0.087486
H	 2.5297546687	-1.1734641074	-1.9603426679	 0.115057
H	 2.1731332146	-1.4285493698	-0.1943810919	 0.10965
H	 0.3254911407	-2.2340183206	-2.5720595847	 0.093362
H	 0.0625014695	-2.5911979734	 0.4682946705	 0.087147
H	-1.8304801773	-3.8408452553	-0.8729106348	 0.292669
H	 1.461079561	-4.3862513521	-0.6501597084	 0.101426
