17
gdb 39828	2.86498	1.61618	1.54714	1.5284	67.23	-0.2456	0.0748	0.3204	936.6639	0.136733	-458.904709	-458.897689	-458.896745	-458.936001	27.793	
C	-0.0648174775	 1.5291946705	 0.0112207884	-0.283364
O	 1.1268977645	 0.7135668156	-0.0051517785	-0.293943
C	-0.1264074534	 0.0763671014	 0.0035318221	 0.521504
C	-0.5162946928	-0.9988077571	 1.0173081127	-0.050651
C	-2.0279690904	-0.9848456846	 1.2204125368	-0.071458
O	-2.6803069167	-0.5598622431	 0.0250103856	-0.274276
C	-2.0516477683	-0.9710933054	-1.1877627428	-0.071458
C	-0.5362736804	-0.9872035814	-1.014594853	-0.05065
O	-0.2462081188	-2.0066415728	-0.0071863564	-0.304846
H	-0.2397514103	 2.0770757687	 0.9356848221	 0.121941
H	-0.2578308568	 2.0875737882	-0.9033107777	 0.121941
H	 0.0712720021	-1.1376950404	 1.9276919733	 0.09879
H	-2.3506496315	-1.9946334702	 1.5143293996	 0.107716
H	-2.3297606681	-0.2763727658	 1.9995890286	 0.111124
H	-2.3801606947	-1.9774938719	-1.4867921042	 0.107716
H	-2.3686205564	-0.2538012835	-1.9527129961	 0.111124
H	 0.0332616894	-1.1156195182	-1.9378835107	 0.09879
