15
gdb 93620	2.7206	1.3642	1.06421	4.9723	65.36	-0.2615	-0.061	0.2004	1105.4684	0.112848	-453.956744	-453.948474	-453.947529	-453.990211	30.114	
O	 0.3327922278	 1.2051007505	 0.6361754935	-0.429979
C	 0.0709122826	-0.0720003698	 0.1399078582	 0.058187
C	-1.4115197876	-0.468995871	 0.046581979	-0.217616
N	-1.4524954748	-1.5683107051	-0.9383961831	-0.287699
C	-0.4298429214	-1.2955591006	-1.9550988638	-0.274968
C	-1.0064511473	-0.781919467	-3.2059316927	 0.333131
N	-1.4568055026	-0.3676854775	-4.1854716561	-0.31226
C	 0.5133002998	-0.2346808795	-1.3113562055	 0.363486
O	 1.3770570343	 0.4022654756	-1.8449013478	-0.299104
H	 1.0329689357	 1.583786559	 0.0847290888	 0.299635
H	 0.5996623037	-0.8514386203	 0.7225887147	 0.09724
H	-1.8391050215	-0.7969596481	 0.9944080937	 0.130325
H	-1.9953593218	 0.3851541283	-0.3152731077	 0.142441
H	-1.2665571208	-2.4571656241	-0.4919422322	 0.240635
H	 0.153328504	-2.1911289605	-2.197654739	 0.156546
