18
gdb 11951	3.38566	1.67371	1.34688	2.1511	68.14	-0.2495	0.074	0.3235	971.573	0.152334	-384.90878	-384.90046	-384.899516	-384.941506	30.99	
C	-0.2067968039	 1.4336643553	 0.1361180561	-0.499894
C	 0.1956458786	-0.0026470636	 0.0441759367	 0.345041
C	 0.6515590419	-0.7884349898	-1.1999545026	-0.281175
C	 1.4495598116	-1.749325527	-0.2515235327	-0.282236
C	 0.956710503	-0.9081201353	 0.9353606141	 0.323775
C	 1.5453082552	-0.7393786259	 2.2997630966	-0.173043
O	 1.3343092976	-1.8892902098	 3.1058840067	-0.415202
O	-0.4887433668	-0.952828743	 0.8797877785	-0.334921
H	 0.5392865556	 2.0771593201	-0.3409967903	 0.124974
H	-1.1643616701	 1.5962170588	-0.3718238123	 0.133111
H	-0.3214559938	 1.7402847101	 1.1789592677	 0.133
H	-0.1587063561	-1.2309784919	-1.784213697	 0.10838
H	 1.3040328072	-0.2107674384	-1.8596490058	 0.103465
H	 1.1402970003	-2.7962774002	-0.2343117256	 0.112612
H	 2.5301882983	-1.6905399639	-0.4030506349	 0.104956
H	 2.6305084143	-0.6092297438	 2.2315306614	 0.110923
H	 1.1249710891	 0.1637788049	 2.7677920558	 0.09248
H	 0.383527668	-2.0487471664	 3.1111268277	 0.293754
