17
gdb 36215	4.77837	0.96368	0.88768	4.4597	78.35	-0.2314	-0.0097	0.2217	1295.4575	0.137353	-380.863942	-380.856175	-380.85523	-380.896913	29.289	
N	-0.1671863294	-1.0495739204	 0.5309119055	-0.307823
C	-0.0861746624	 0.0541842991	 0.199498802	 0.266922
C	 0.0300713783	 1.4585504352	-0.2108125675	-0.447846
C	 1.449695063	 1.9601164121	-0.1763946154	 0.307717
C	 2.11666781	 2.546727983	-1.1720731507	-0.189924
C	 3.456707288	 2.9918744676	-0.7040957172	-0.055137
C	 3.4445238352	 3.9988789875	 0.3969800431	-0.233598
N	 3.5849252716	 2.576151295	 0.7160441618	-0.096114
C	 2.3200754025	 1.8952805591	 1.0666866435	-0.258029
H	-0.3893461234	 1.5652327585	-1.2164639737	 0.160395
H	-0.6054053688	 2.0518605415	 0.4612409052	 0.160918
H	 1.7517155202	 2.7019818115	-2.1803153024	 0.106799
H	 4.3266128674	 2.8787753257	-1.3451659253	 0.103317
H	 4.3308553818	 4.5919277011	 0.6057814344	 0.121083
H	 2.4971462142	 4.4937947825	 0.6030363083	 0.108648
H	 1.8543807872	 2.3751381408	 1.9378052348	 0.116023
H	 2.5318641544	 0.8570174802	 1.3533079135	 0.136648
