21
gdb 79798	2.52947	1.71338	1.34241	0.8126	89.68	-0.2041	-0.025	0.1791	1073.1854	0.182161	-349.866492	-349.858248	-349.857304	-349.898604	33.212	
C	 0.2721901915	 1.5886928407	 0.2021042554	-0.41482
C	 0.0268542374	 0.0947962312	 0.0978007365	-0.002658
C	 0.6547595865	-0.7756085865	-1.0618222494	-0.138553
C	 2.0480009525	-1.5112547544	-0.8394239581	-0.094102
C	 3.0618227169	-1.1384605577	 0.2580264379	-0.263446
C	 2.0963273548	-0.5638661718	 1.2931141344	-0.111258
C	 0.8347020105	-0.8978654373	 0.9551416203	-0.014148
C	 0.8080083678	-1.9671749503	-0.1615000402	 0.315821
C	 0.12345686	-3.2998270092	-0.1437950604	-0.515959
H	 1.3392834957	 1.8231081301	 0.1445827186	 0.115081
H	-0.2391727419	 2.1153141109	-0.6111476609	 0.113663
H	-0.1130182333	 1.9883794607	 1.1467511304	 0.119053
H	-1.052421138	-0.1081898706	 0.0791126243	 0.077724
H	 0.2479247603	-0.7892553626	-2.0724253889	 0.080966
H	 2.3903018105	-2.0179524176	-1.7417768117	 0.071836
H	 3.6599851057	-2.0173031973	 0.5414402393	 0.103746
H	 3.7728982216	-0.3506545931	-0.0209503534	 0.105792
H	 2.3414245141	 0.3646279958	 1.8006941421	 0.092806
H	-0.9248712165	-3.2095999828	 0.1631609638	 0.119288
H	 0.1425788437	-3.7590669904	-1.1379358931	 0.116822
H	 0.6114907606	-3.9913806178	 0.5526113229	 0.122345
