20
gdb 35235	3.16832	1.1575	0.98703	4.3699	83.79	-0.2781	0.0289	0.307	1253.4695	0.172983	-366.038254	-366.029922	-366.028978	-366.072109	31.927	
N	-0.0888077657	-1.1390315529	 0.0285838048	-0.350934
C	-0.0579141655	 0.0181869556	 0.0471961144	 0.292785
C	 0.0041107511	 1.450654227	 0.0584338585	-0.222781
C	 0.5755735397	 2.1760752328	 1.2686637384	-0.340008
C	 1.3555290583	 2.1672802086	-0.0086377351	 0.364617
C	 2.6698789343	 1.3822628118	-0.1237932559	-0.292058
C	 3.3745964671	 1.9968343818	-1.3474009271	-0.2029
C	 2.9625841647	 3.4770621625	-1.2878751795	-0.202439
C	 1.4729201832	 3.4207465253	-0.8941301932	-0.285957
H	-0.8230648792	 1.9316669653	-0.4545745327	 0.126197
H	 0.0674193409	 3.0861667642	 1.5701891815	 0.123794
H	 0.9289447402	 1.5594972591	 2.0883858865	 0.134822
H	 3.2744701867	 1.5496820991	 0.7756734907	 0.105263
H	 2.5124614627	 0.304257513	-0.211848366	 0.12889
H	 4.4572593525	 1.8469914928	-1.3318674169	 0.100273
H	 2.9933698035	 1.5408670673	-2.2690807632	 0.106568
H	 3.5379894177	 3.9897283623	-0.5076747796	 0.102573
H	 3.1306651441	 4.0149091509	-2.2246649974	 0.100212
H	 0.8558656587	 3.3055245998	-1.7927963721	 0.10869
H	 1.1322253349	 4.3261297337	-0.3829252761	 0.102392
