19
gdb 17241	4.51225	1.58802	1.53038	1.8445	74.35	-0.219	0.0822	0.3012	930.2448	0.166648	-327.852754	-327.845556	-327.844612	-327.88414	28.267	
C	 0.1774132504	 1.4844312383	 0.2228495027	-0.372739
C	-0.0972259244	 0.0193844099	-0.1447045505	-0.310517
C	 0.660681991	-0.4335807993	-1.3598721381	 0.353935
C	 0.4503921639	-0.0663611806	-2.8226964011	-0.225617
N	 1.2941731996	-1.2603915958	-3.2250628988	-0.171176
C	 2.6606908327	-0.8397368399	-2.7138562564	-0.176542
C	 2.1257642825	-0.9340099663	-1.2965452962	-0.127911
C	 1.0248483059	-1.8200147601	-1.8077451762	-0.097325
H	 1.238135425	 1.6419490962	 0.4428424669	 0.118871
H	-0.0932664311	 2.1546653869	-0.5998077361	 0.119093
H	-0.4000165274	 1.7857214839	 1.1020472899	 0.112205
H	 0.1582409746	-0.6276145805	 0.7044190585	 0.098767
H	-1.1728463733	-0.1192766806	-0.3177372257	 0.100447
H	-0.5823271509	-0.2283952198	-3.1466047831	 0.102776
H	 0.8092362864	 0.8955092493	-3.2086099749	 0.092752
H	 3.3884796518	-1.6222726495	-2.9454461015	 0.107377
H	 3.0168949403	 0.1211483049	-3.1039281409	 0.094869
H	 2.6526776307	-0.9972319244	-0.3519097309	 0.085883
H	 0.6759618021	-2.8159537825	-1.5731102179	 0.09485
