16
gdb 10784	2.46742	2.46729	1.6614	0.9866	55.27	-0.2715	0.0377	0.3092	811.2825	0.131624	-457.994151	-457.987127	-457.986182	-458.025407	27.943	
O	 0.2660143093	 1.1295334338	-0.4321397142	-0.442751
C	 0.047129472	-0.223500905	-0.1100503058	 0.064209
C	 0.2499870065	-0.5132435334	 1.4182531363	 0.064225
O	 0.6178915576	 0.6468643233	 2.1261778396	-0.442751
C	-1.2780618786	-0.838742924	 1.559363867	 0.064208
O	-1.9395213062	 0.0995114489	 2.3745454797	-0.442753
C	-1.4809055715	-0.5490534376	 0.0310559208	 0.064229
O	-2.2913973176	 0.5820015723	-0.1838071247	-0.442749
H	 0.5685251148	 1.5280395034	 0.4054677739	 0.297798
H	 0.5993372874	-0.869832247	-0.7977985124	 0.080733
H	 0.9376202307	-1.3312962667	 1.6498180665	 0.080736
H	-0.1971242291	 0.9091533686	 2.5940038698	 0.2978
H	-1.5090701799	-1.8553519059	 1.8892367444	 0.080733
H	-2.4275702301	 0.6613281805	 1.743614987	 0.297799
H	-1.8472872937	-1.3940362071	-0.5583877272	 0.080735
H	-1.6619212316	 1.2801990358	-0.4449291409	 0.297799
