23
gdb 60350	3.26135	0.68711	0.63372	4.395	87.69	-0.24	0.03	0.2701	1867.375	0.203952	-384.48436	-384.473153	-384.472208	-384.521602	40.07	
C	 0.0263022419	 1.4832651885	 0.3712217052	-0.394441
C	-0.0443235551	-0.0009346814	-0.0136828321	 0.03584
C	-1.5001022914	-0.4763242354	-0.0984596346	-0.391316
C	 0.6822372555	-0.2896392805	-1.3363705224	-0.128263
N	 2.108067412	 0.0210316501	-1.254287071	-0.300409
C	 2.9203903189	-0.4903750154	-2.3550079661	-0.096566
C	 2.6550552015	 0.1224771278	-3.7485183633	-0.394593
C	 4.3428811854	-0.3234876401	-2.0046864977	 0.275059
N	 5.460368172	-0.170323505	-1.7549241404	-0.32008
H	 1.0566074359	 1.8161751624	 0.5311118326	 0.118802
H	-0.4222661723	 2.1146823758	-0.4060804521	 0.110032
H	-0.5195570111	 1.6691423106	 1.3016186565	 0.118203
H	 0.470301253	-0.5791336691	 0.7642360138	 0.087933
H	-2.0516235652	 0.0711918847	-0.8722611791	 0.112994
H	-1.5611441449	-1.5434191081	-0.3375450962	 0.111836
H	-2.0196222897	-0.316365119	 0.8514143297	 0.115847
H	 0.5951235478	-1.3605994405	-1.5608350576	 0.10004
H	 0.1616987578	 0.2440697676	-2.1528559023	 0.082764
H	 2.2541329504	 1.0207139965	-1.1629479459	 0.22608
H	 2.734670025	-1.5713426262	-2.4121025714	 0.131181
H	 3.3077060045	-0.3261856695	-4.5026799916	 0.138372
H	 1.6172416942	-0.0516504421	-4.0429280444	 0.129687
H	 2.8395583938	 1.2009344382	-3.7338555094	 0.130996
