17
gdb 32221	2.76999	1.50222	1.05362	0.9767	78.76	-0.2392	-0.0402	0.1991	1137.1128	0.137763	-418.077114	-418.069116	-418.068172	-418.110072	30.075	
C	 0.0131949974	 1.5476202051	 0.1203410495	-0.382398
C	-0.0826093957	 0.0194413942	-0.0405254376	-0.265808
C	 0.6622979154	-0.4838395936	-1.2480898924	 0.244858
N	-0.0154926683	-0.784399789	-2.3496529823	-0.291352
C	 0.6701558482	-1.2170966495	-3.4181458299	-0.040913
C	 2.0465620226	-1.357214543	-3.3877837215	-0.026754
N	 2.7549517477	-1.0614804791	-2.2889143313	-0.335187
C	 2.0698022055	-0.630042953	-1.2460398855	 0.375947
O	 2.7518991451	-0.3184662302	-0.1230656512	-0.412202
H	 1.0531897095	 1.8642439774	 0.2396981119	 0.130902
H	-0.403047827	 2.0565344745	-0.7543376013	 0.125418
H	-0.5443322818	 1.8758982805	 1.0025882274	 0.116524
H	 0.316826699	-0.4628589533	 0.8582589492	 0.115723
H	-1.1281386611	-0.2803200561	-0.1508705806	 0.117534
H	 0.0979433653	-1.4576533714	-4.3088012859	 0.111458
H	 2.602359192	-1.713135237	-4.2504431933	 0.116519
H	 3.6844611961	-0.4902073464	-0.3170531852	 0.299729
