21
gdb 103462	2.54129	1.35965	1.1058	1.0235	78.66	-0.2441	0.0596	0.3036	1195.5939	0.18106	-424.193085	-424.183349	-424.182405	-424.227325	36.65	
C	-0.0785395249	 1.5859217458	 0.092750974	-0.502465
C	 0.0161940772	 0.0846455361	 0.0569824943	 0.286492
C	-1.2179834654	-0.8273742716	-0.0638790107	-0.272888
C	-0.5794209502	-1.8344626684	 0.9408586247	-0.237838
C	 0.6628489016	-0.9439667176	 1.0303447558	-0.181902
C	 1.2382132349	-0.6884644176	-0.3347787605	 0.331283
O	 1.1488431825	-1.656650095	-1.363222996	-0.480507
C	 2.5668652901	 0.0483178879	-0.4077227433	-0.127689
O	 3.6520146805	-0.8607786275	-0.4931860129	-0.425069
H	 0.8700126357	 2.0623794556	 0.3555295601	 0.122379
H	-0.3851576543	 1.9796923662	-0.8843820413	 0.124527
H	-0.8257315313	 1.9115534401	 0.8253174108	 0.117809
H	-2.1182083442	-0.3551486545	 0.3369722629	 0.097563
H	-1.4262917298	-1.2047230884	-1.0674366519	 0.107916
H	-1.1272929519	-1.8833385587	 1.8841183559	 0.103601
H	-0.4215503271	-2.8564306769	 0.5809608896	 0.086625
H	 1.25833092	-0.7760994866	 1.9221927612	 0.084182
H	 1.4716390273	-2.4887669296	-1.0013025075	 0.286668
H	 2.562567252	 0.7335636485	-1.270084253	 0.091571
H	 2.7312685741	 0.646043404	 0.4930250391	 0.109708
H	 3.5126398632	-1.3522102716	-1.3105750212	 0.278033
