18
gdb 115560	2.91098	1.08472	1.02796	3.7398	74.3	-0.2363	0.0188	0.2551	1240.3001	0.145802	-439.01055	-439.000912	-438.999968	-439.045278	35.366	
O	 0.0402616785	 1.3378322749	-0.5703995103	-0.426777
C	 0.1559505711	-0.0259589889	-0.2160621458	-0.048441
C	-1.2053902386	-0.5296664364	 0.2654725673	-0.055863
N	-2.2265014046	-0.3078792535	-0.8061754185	-0.335628
C	-2.3442838136	-1.7772231444	-1.0353884743	-0.22118
C	-1.4386456805	-2.0764659673	 0.2065312275	 0.217714
O	-0.2547073083	-2.81180327	-0.0361274461	-0.462985
C	-2.1727118354	-2.6087603101	 1.3465100084	 0.273117
C	-2.772653482	-3.0767603663	 2.2781230117	-0.477821
H	-0.7167804107	 1.3672206866	-1.1729965596	 0.282967
H	 0.5065372621	-0.637558203	-1.0589555698	 0.098121
H	 0.9004247554	-0.1004687606	 0.5816743225	 0.111132
H	-1.4555012754	-0.0631847446	 1.2219251261	 0.087518
H	-3.085767604	 0.0689594608	-0.4229089105	 0.229945
H	-3.3596509404	-2.1792463986	-1.0012544777	 0.112521
H	-1.8588502613	-2.0871447741	-1.9659991451	 0.119974
H	-0.3969266936	-3.7188989094	 0.25218184	 0.289568
H	-3.2997741289	-3.4812779951	 3.1071036542	 0.206119
