18
gdb 72323	3.25581	1.75579	1.36839	3.4597	75.37	-0.2463	-0.0245	0.2218	962.7941	0.148962	-401.893066	-401.885979	-401.885035	-401.924094	28.883	
C	-0.0244622521	 1.5508144273	-0.0173536664	-0.489611
C	-0.1395004578	 0.0464068177	 0.0202256573	 0.306216
C	-0.4934187644	-0.690688002	-1.2864692359	-0.226119
N	-0.7306650162	-2.0932647908	-0.8821736161	-0.215489
C	-0.8568185157	-2.0600508754	 0.3808564332	 0.25947
O	-0.231520802	-2.9700390502	 1.2031950279	-0.258637
C	 1.013146258	-2.1946853163	 1.3378205817	-0.097068
C	 0.6080492612	-0.6900340616	 1.2111551287	-0.141018
C	-0.8776384253	-0.7017201074	 1.0737045164	-0.181605
H	 0.8219121361	 1.8655390094	-0.6382822222	 0.125994
H	-0.9300421183	 2.0001823389	-0.4410006934	 0.123981
H	 0.1198367789	 1.9733580911	 0.9814435943	 0.12087
H	-1.3591812622	-0.2140309218	-1.7683522626	 0.109622
H	 0.3185743136	-0.7075472901	-2.023020546	 0.11822
H	 1.4167940324	-2.3974473494	 2.3333053717	 0.122577
H	 1.7091902944	-2.5353012845	 0.5656191953	 0.125852
H	 1.1061745797	-0.0065477372	 1.8916593513	 0.09697
H	-1.6335922702	-0.3752803376	 1.7770444449	 0.099774
