18
gdb 97725	5.0972	0.67655	0.65582	2.2348	84.77	-0.2412	0.0177	0.2589	1738.2448	0.147474	-401.868857	-401.859851	-401.858907	-401.904323	32.581	
O	 0.1306428997	 1.3687479581	-0.3191423704	-0.402465
C	 0.0546328373	 0.032703357	 0.161031147	-0.202417
C	-1.3045502128	-0.5026836935	 0.1898724388	 0.21589
C	-2.4338236179	-0.9253881465	 0.1508213733	-0.102495
C	-3.773486328	-1.4090899503	 0.1691282034	 0.141421
C	-4.810694511	-1.1602149595	 1.2866314262	-0.298398
C	-5.3877556227	-2.5927131906	 1.0424284837	-0.238838
C	-4.35095844	-2.7954157999	-0.0688357206	-0.088051
N	-4.4441268687	-1.7663766671	-1.0879805424	-0.345245
H	-0.3513478063	 1.4003048226	-1.1522587574	 0.288358
H	 0.6950248645	-0.6420857779	-0.4298802441	 0.119429
H	 0.4735047964	 0.0569574954	 1.1734097023	 0.13833
H	-4.3525869445	-1.0591279848	 2.2719400916	 0.121463
H	-5.4770875793	-0.3082914177	 1.1178452339	 0.101441
H	-5.2368164302	-3.2503663927	 1.9012230002	 0.114719
H	-6.4329814394	-2.6664554268	 0.7244561696	 0.102764
H	-3.8361414462	-3.7147972674	-0.3228977747	 0.106941
H	-5.3754691108	-1.3563952886	-1.1522925602	 0.227154
