19
gdb 41481	3.12892	1.6532	1.34065	1.6035	74.01	-0.2367	0.0646	0.3013	993.3698	0.161519	-422.992841	-422.985759	-422.984815	-423.024301	28.421	
C	 0.2702930073	 1.6246330013	 0.3276251468	-0.097737
O	 1.5543645676	 1.4672772939	-0.3400926645	-0.337238
C	 1.2812380393	 0.0897758003	-0.5795118341	 0.466593
C	 1.7197322447	-0.5541684837	-1.874274046	-0.184805
O	 1.6608789614	-1.9494933989	-1.6053019797	-0.257874
C	 2.1274185034	-2.1506353678	-0.2637426152	-0.09565
C	 1.6552371513	-0.9412654757	 0.5448515453	-0.09776
C	 0.1725574296	-0.9113240636	 1.032566231	-0.253509
C	-0.1584386159	 0.1790118357	-0.0155464023	-0.134455
H	 0.3887720401	 1.844789222	 1.3961460667	 0.1016
H	-0.3190017996	 2.4190673607	-0.1422471187	 0.11024
H	 1.0662527595	-0.3487647728	-2.726178211	 0.112005
H	 2.7423645666	-0.2215982763	-2.1238456394	 0.098187
H	 1.7255175942	-3.1093113162	 0.076940026	 0.108569
H	 3.2270083058	-2.2103349165	-0.2522471534	 0.09363
H	 2.3945707437	-0.5941508488	 1.2679859743	 0.080518
H	-0.355816869	-1.8498607195	 0.8418574954	 0.10819
H	 0.0200671935	-0.6340629947	 2.0794204225	 0.099702
H	-1.0552617034	 0.0680172607	-0.6250624337	 0.079795
