18
gdb 37881	2.96034	2.2365	2.1528	0.9241	71.8	-0.2298	0.0662	0.2959	777.9622	0.153001	-401.909902	-401.904625	-401.903681	-401.939164	24.137	
C	-0.0150181506	 1.5650985667	 0.013193967	-0.21426
C	 1.4983370501	 1.8326706908	-0.0317109625	-0.044508
C	 2.0304287188	 1.3603128463	-1.4353304524	 0.094811
O	 0.9767297147	 0.7622451585	-2.2127668513	-0.300404
C	 0.9266549893	-0.3292652772	-1.24590845	 0.089297
C	 2.3634089869	 0.0517427931	-0.7210486606	-0.0569
N	 2.1543186216	 0.6148721877	 0.6357590801	-0.12005
C	 1.0360249634	-0.2067508532	 1.1495107352	-0.177609
C	 0.0377015753	 0.0235134197	-0.0121877674	-0.07445
H	-0.4793307052	 1.9347014077	 0.9318997209	 0.094985
H	-0.5254469484	 1.9948356228	-0.849408454	 0.119693
H	 1.8402352664	 2.7909830165	 0.3583073719	 0.076081
H	 2.6903411931	 2.0007753028	-2.0189839127	 0.083155
H	 0.720177127	-1.2869583862	-1.7252595481	 0.081936
H	 3.2144633134	-0.6082852	-0.8897116439	 0.075665
H	 1.3659990413	-1.2455052111	 1.2587238783	 0.103595
H	 0.6695148876	 0.1496647832	 2.116675591	 0.103889
H	-0.9236245246	-0.4886212383	 0.0369190185	 0.065075
