21
gdb 122845	6.40764	0.50149	0.48272	2.602	78.4	-0.2376	0.0669	0.3044	2273.089	0.181125	-457.574961	-457.563432	-457.562488	-457.613937	38.749	
C	 0.2462424226	 1.3767737301	 0.2235127073	-0.320237
N	-0.1144345324	 0.0215356546	-0.1516642518	-0.362184
C	 0.6076309885	-0.6315666082	-1.1340483464	 0.498078
O	 1.4257894371	-0.0692690955	-1.8427370405	-0.408026
N	 0.3110365229	-1.9771903132	-1.2382163005	-0.374012
C	 0.829784456	-2.7699777218	-2.3404352866	-0.151095
C	 1.2415662732	-4.1710262037	-1.885343744	-0.173548
C	 1.7880239154	-5.0163919643	-3.0281745805	-0.071065
O	 2.0881512684	-6.3037074532	-2.5107538393	-0.421364
H	 1.0189589654	 1.4138966999	 1.0036001089	 0.117703
H	 0.6369480871	 1.8755647847	-0.663439555	 0.16615
H	-0.6384683674	 1.912303106	 0.5799736049	 0.11745
H	-0.520731435	-0.5504177392	 0.5721315008	 0.232559
H	-0.5479023367	-2.2971095554	-0.8182605848	 0.23069
H	 0.0916690814	-2.8416196601	-3.1544461045	 0.096384
H	 1.6836802527	-2.2145169912	-2.7350135545	 0.149095
H	 1.9987264484	-4.0944890666	-1.0978445644	 0.115128
H	 0.3828827647	-4.6983165754	-1.449501911	 0.096444
H	 1.0419903029	-5.0770740618	-3.8381832254	 0.084092
H	 2.6852631649	-4.5351262204	-3.4500900372	 0.091789
H	 2.4588479697	-6.8341000955	-3.2219216456	 0.285972
