19
gdb 40496	4.23907	1.25595	1.21514	1.5374	79.26	-0.2213	0.0809	0.3022	1101.0855	0.160017	-385.807894	-385.800589	-385.799645	-385.8399	29.487	
C	 0.649560565	 1.4797387625	 0.2887004631	-0.267038
C	 1.0960331248	 0.2367652563	-0.4395931435	-0.267152
C	-0.2703361824	 0.2846272962	 0.1995488432	-0.137286
C	-0.5424038073	-0.5073709199	 1.4166232073	 0.513429
O	 0.4953934811	-0.6422841556	 2.3968708283	-0.334125
C	-0.3202939297	-1.6895384851	 2.9983353541	 0.065968
C	-1.5099264537	-0.909650963	 3.614657628	-0.233009
C	-1.8895469267	-0.6142229282	 2.1634901044	-0.165873
C	-1.139906777	-1.8543456509	 1.6673334151	-0.209988
H	 1.1015748379	 1.6804976705	 1.2529833788	 0.132021
H	 0.3974358286	 2.3617174586	-0.2892888135	 0.108932
H	 1.1547253816	 0.2610095047	-1.5220508499	 0.107074
H	 1.8422046852	-0.3809200883	 0.0466043242	 0.12721
H	-1.125396587	 0.3700282668	-0.4644137108	 0.086027
H	 0.259872422	-2.433452075	 3.5398514846	 0.085717
H	-2.232031112	-1.580608496	 4.0876875994	 0.102686
H	-1.253909265	-0.0816497561	 4.2832488964	 0.099858
H	-2.804124502	-0.1862150704	 1.772449193	 0.088895
H	-1.4159947832	-2.6874436369	 1.0361102877	 0.096653
