16
gdb 48431	2.35551	1.34518	1.04907	2.6824	70.19	-0.2632	-0.0374	0.2258	1159.8858	0.122056	-437.877203	-437.86835	-437.867406	-437.91158	31.656	
O	-0.4241749244	 0.1733835432	 0.2587530678	-0.279846
C	 0.4164975457	 0.78333325	-0.3557549093	 0.124321
C	 1.1292161326	 1.9847856428	 0.1443441234	 0.323165
C	 2.5843704291	 2.164929739	-0.2967040854	-0.318923
C	 1.5178023203	 3.0297842827	-0.8822758893	-0.31116
O	 0.7227187715	 2.5036770301	 1.3732471715	-0.276117
C	 0.9257956764	 1.6686760854	 2.5020168979	-0.217127
C	 2.3415443024	 1.5769282255	 2.903758115	 0.257417
N	 3.4516260899	 1.5077992593	 3.2170025868	-0.311505
H	 0.7344437651	 0.4721452417	-1.3770632968	 0.084339
H	 3.2405955238	 2.5946293631	 0.4490286083	 0.163892
H	 3.0302608141	 1.3875090976	-0.9072714167	 0.134781
H	 1.2077973593	 2.8708424751	-1.9090440771	 0.133388
H	 1.4392737746	 4.0506063917	-0.5279975101	 0.150628
H	 0.361980393	 2.128488427	 3.3183649233	 0.163851
H	 0.5251183768	 0.6646953258	 2.3349992206	 0.178898
