18
gdb 41727	3.34137	1.75293	1.74536	1.0452	69.27	-0.2209	0.0804	0.3013	866.7954	0.152504	-439.070732	-439.064674	-439.06373	-439.100835	25.91	
C	-0.009331431	 1.5941554747	-0.0168513381	-0.053982
O	 1.3988863394	 1.9296069345	-0.0043890413	-0.288549
C	 2.1010604133	 0.7168593097	-0.1793423799	 0.106934
C	 2.0857165187	-0.2174608596	 1.0643311161	-0.057942
C	 2.4945221873	-1.5331320103	 0.4053390364	-0.091973
O	 1.701231177	-1.5473367257	-0.8022084218	-0.287321
C	 1.1720112244	-0.2394226762	-0.9528097231	 0.100226
C	 0.0105579227	 0.0693057488	 0.0324160774	-0.084254
N	 0.6231841035	-0.268467816	 1.3506531591	-0.302437
H	-0.4900120331	 2.0244055079	 0.8652915684	 0.11584
H	-0.4774377537	 1.9948718368	-0.9269567414	 0.092025
H	 3.0895628065	 0.9169654508	-0.5920323327	 0.087607
H	 2.678693471	 0.0924601634	 1.9256612569	 0.080804
H	 3.5655697598	-1.5819815338	 0.1560632241	 0.096301
H	 2.2416005676	-2.4102965863	 1.0125084847	 0.102943
H	 0.9892263603	-0.0328273136	-2.0072069813	 0.086742
H	-0.9460299184	-0.4251659894	-0.1323759423	 0.076476
H	 0.3631775247	-1.2112480356	 1.622488839	 0.220558
