15
gdb 23106	2.34305	1.40792	1.01581	4.1584	69.	-0.2714	-0.0273	0.2441	1146.928	0.112664	-453.910821	-453.902615	-453.901671	-453.944158	29.63	
O	-0.1795568043	 1.319156406	 0.2118309094	-0.385382
N	 0.0020143324	-0.0675121327	 0.2136004333	-0.195138
C	-1.0883751191	-0.6626812069	-0.0389190739	 0.360507
C	-2.4651470283	-0.0862396849	-0.2814214387	-0.154614
O	-3.3030419141	-1.2073865256	-0.5240740987	-0.245028
C	-2.7381394697	-2.3253878666	 0.135554201	-0.093104
C	-1.2055095952	-2.1813474513	-0.0641915091	-0.256585
C	-0.7636880709	-2.7403968467	-1.3434960658	 0.289777
N	-0.4203436324	-3.1913739421	-2.3504214517	-0.318806
H	 0.7050265836	 1.6480396736	 0.4072384048	 0.317139
H	-2.7905534173	 0.4882669825	 0.6001163727	 0.128989
H	-2.4976193237	 0.5792405026	-1.1487523586	 0.152161
H	-2.9575174908	-2.3106298437	 1.2144219728	 0.10864
H	-3.1541870682	-3.2317480819	-0.3057385424	 0.142745
H	-0.628988772	-2.6413502522	 0.7418935749	 0.1487
