21
gdb 84116	2.27864	1.65566	1.11581	1.9586	83.88	-0.2329	0.0163	0.2492	1158.1653	0.183296	-387.095948	-387.087252	-387.086308	-387.129349	33.648	
C	 0.3053347553	 1.4141005049	 0.0171463443	-0.492933
C	 0.0732691116	-0.0644610802	-0.0229529085	 0.322267
C	 0.023342611	-0.8457741643	-1.1063542338	-0.232694
C	-0.2514464458	-2.3009627568	-0.7961963195	 0.087824
O	 0.6030675314	-3.2148128671	-1.4759023973	-0.432388
C	-0.1645255668	-2.33832428	 0.7507569	-0.034865
C	 1.2461625707	-2.5217953064	 1.3907783481	-0.222425
C	 1.1044922954	-1.1484846376	 2.105815782	-0.227087
C	-0.1614476522	-0.8588178488	 1.2438204215	-0.110743
H	 1.1585802581	 1.6647339833	 0.6596588408	 0.127524
H	 0.4959057759	 1.8231802217	-0.9785364183	 0.124478
H	-0.5630174292	 1.9358868591	 0.4395446657	 0.127253
H	 0.1481033488	-0.5025086054	-2.1290477506	 0.087416
H	-1.2549876545	-2.5926414312	-1.1322903161	 0.086614
H	 1.5100427742	-2.9217382817	-1.338049887	 0.275884
H	-0.9175630786	-2.9885685877	 1.1979535935	 0.065498
H	 1.3630925085	-3.3927494316	 2.038494422	 0.104351
H	 2.0599762246	-2.5431043021	 0.6609836007	 0.081263
H	 0.8715841938	-1.2471129417	 3.1691924665	 0.100284
H	 1.9406338418	-0.4511527431	 2.0012278688	 0.094136
H	-1.0339697139	-0.4937388034	 1.7966208273	 0.068344
