16
gdb 17923	3.27433	2.2399	2.13925	2.041	59.13	-0.2428	0.0612	0.3041	731.573	0.132496	-420.862928	-420.856524	-420.85558	-420.893123	25.407	
O	-0.0599522166	 1.4016342782	-0.039513961	-0.43505
C	-0.0036848481	-0.000994203	 0.0272733569	 0.114367
C	 0.3093529135	-0.6178867497	 1.4111495332	 0.023865
C	-0.8672681513	-0.0767792672	 2.2297869878	-0.073964
O	-1.9621679318	-0.1258728417	 1.290343086	-0.279338
C	-1.4070977296	-0.6232626315	 0.0689266481	 0.057533
C	-1.0434477346	-2.0951950855	 0.2886674724	-0.087353
O	 0.1037806109	-2.0128813717	 1.172639296	-0.284537
H	 0.8405116507	 1.7395712989	-0.0124338234	 0.288846
H	 0.6271787168	-0.4387692005	-0.756229934	 0.079906
H	 1.3027610235	-0.469168292	 1.8353489069	 0.078745
H	-1.081263173	-0.7161612123	 3.0923060255	 0.107274
H	-0.7129332566	 0.9567821827	 2.5605427603	 0.104163
H	-2.088038441	-0.4039554584	-0.7522584224	 0.09078
H	-1.8592937267	-2.634118006	 0.7812273714	 0.114004
H	-0.7626307262	-2.6229802903	-0.631572684	 0.100759
