12
gdb 23655	4.06891	1.95087	1.32943	1.7946	57.07	-0.2838	-0.0597	0.2241	837.1656	0.084638	-418.874186	-418.867593	-418.866649	-418.906518	22.857	
C	-0.0123326346	 1.4824040697	 0.0100881303	-0.461774
C	 0.0036135684	-0.0149969899	-0.0069846057	 0.362567
N	-0.1074297039	-0.6426009956	-1.1852104183	-0.273849
C	-0.0845235535	-1.9721900966	-1.1138582743	 0.082093
N	 0.0356600256	-2.7008493742	-0.0042885206	-0.298552
C	 0.1363686971	-1.9563019662	 1.084901462	 0.356805
F	 0.257976314	-2.609829132	 2.2174569446	-0.041252
N	 0.1296332255	-0.6421861392	 1.1725695463	-0.325461
H	 0.9118572639	 1.8587174001	 0.4596394096	 0.155186
H	-0.1193344849	 1.874064438	-1.0007864264	 0.147681
H	-0.8360424953	 1.8381242063	 0.6368038663	 0.155176
H	-0.1720963923	-2.5198619104	-2.0492230638	 0.141381
