17
gdb 64818	2.87937	1.31768	1.09659	3.8028	68.03	-0.2762	0.0057	0.2819	1127.1071	0.134234	-458.970864	-458.962472	-458.961528	-459.004262	31.086	
C	-0.0927053186	 1.850500125	-0.7214509908	-0.44199
C	-0.052069275	 0.4014659318	-0.272564363	 0.366388
C	 1.0011443627	-0.5153968501	-0.9375107249	-0.474693
C	 1.6353866929	-0.5255519147	 0.4511957548	 0.44585
O	 2.5829146616	-1.0033421122	 0.9850386852	-0.313211
O	 0.6792684024	 0.2844050193	 1.0097038066	-0.268706
C	-1.4357172658	-0.2009718377	-0.1749891662	 0.038302
C	-1.88639934	-0.9994365066	 0.9704379393	-0.180728
O	-2.3061056753	 0.360106032	 0.799282127	-0.235913
H	 0.9158200887	 2.269516163	-0.7707416497	 0.129388
H	-0.5528008962	 1.929321728	-1.7118087917	 0.126668
H	-0.6873600916	 2.4372820207	-0.0170465708	 0.157122
H	 0.648684496	-1.493032502	-1.2726210827	 0.143487
H	 1.6160681966	-0.0579498272	-1.7141833137	 0.144829
H	-1.8982953711	-0.3755603992	-1.1495032124	 0.101627
H	-2.6639012075	-1.7477948394	 0.8260512672	 0.119391
H	-1.2068135298	-1.1682110508	 1.8008553657	 0.142188
