13
gdb 130369	5.7205	1.01286	0.86304	5.7919	75.74	-0.2321	-0.0689	0.1632	1238.4996	0.090459	-445.096688	-445.088996	-445.088051	-445.129589	26.983	
N	 0.0009878861	 1.3317148664	-0.0092972293	-0.480603
C	 0.0713806933	-0.0024476776	 0.0795901211	 0.161367
N	 1.1918316789	-0.6235738402	-0.0968123662	-0.341498
C	 1.1776196771	-1.9933853824	-0.077886152	 0.475658
N	 2.35777038	-2.6151637418	 0.0501581143	-0.276912
C	 2.2591291614	-3.9340459233	 0.0295728192	 0.11034
N	 1.1345846735	-4.6502696827	-0.0851641244	-0.191663
N	 0.0018437218	-3.9702698544	-0.2033103571	-0.06192
N	 0.0010615331	-2.6620377671	-0.2172058996	-0.249321
H	 0.8330747819	 1.8563030168	-0.2304303404	 0.28118
H	-0.8584118254	 1.8229610377	 0.1580474247	 0.28079
H	-0.8685028339	-0.5079482574	 0.3125150618	 0.15316
H	 3.1779872622	-4.5097203742	 0.1172294379	 0.139422
