16
gdb 128637	2.47938	1.49436	0.9435	3.5337	67.9	-0.2142	0.0373	0.2515	1197.2172	0.124777	-471.229948	-471.220973	-471.220028	-471.264154	31.195	
C	-0.0311988527	 1.3842408317	 0.0931233583	-0.239814
O	-0.0453312176	-0.047140132	 0.0641511447	-0.271964
C	-1.2538426079	-0.6026896689	 0.0030039479	 0.512536
N	-2.4251502008	 0.0092259324	-0.0334119461	-0.476018
C	-3.2799654694	-1.0537385174	-0.0900334547	 0.426405
O	-4.6093865042	-0.8894719091	-0.1418789277	-0.409079
N	-2.7366885023	-2.2503951535	-0.0912318679	-0.338053
N	-1.3912955949	-1.9380198986	-0.029152939	-0.061513
C	-0.3855128011	-2.9719139665	-0.0086360753	-0.331488
H	 1.0204260781	 1.667029493	 0.1412057141	 0.13759
H	-0.4961403295	 1.7919623307	-0.8085059365	 0.14533
H	-0.5679114203	 1.7566682837	 0.9698260969	 0.145267
H	-4.7691729487	 0.0613253852	-0.1292831601	 0.308375
H	-0.4504935167	-3.5815566952	-0.9143280919	 0.148923
H	 0.5947547159	-2.4970761991	 0.0420624545	 0.154551
H	-0.5246467279	-3.6182806463	 0.8625608727	 0.148952
