20
gdb 60901	3.23582	1.17033	1.00004	3.3206	78.8	-0.2378	-0.0221	0.2156	1242.6079	0.169746	-403.114272	-403.105208	-403.104263	-403.1486	33.45	
C	 0.1633534865	 1.4832678596	-0.2650830714	-0.39313
C	 0.0126010845	-0.0077382276	 0.0513474677	-0.192545
C	 0.3922448766	-0.8904023496	-1.1294281197	 0.138261
O	 0.6828075551	-0.4734783137	-2.2223510902	-0.24901
C	 0.7722999537	-0.4063221034	 1.2990000208	 0.356959
C	 2.1889882407	-0.8291453851	 1.3076975213	-0.284702
N	 1.1624473556	-1.841262179	 1.6344410037	-0.172569
C	 0.7802019762	-1.5625014216	 3.0641760179	-0.150558
C	 0.2970614209	-0.1279201089	 2.7276857038	-0.319144
H	 1.2102173394	 1.7311060433	-0.4616267857	 0.129701
H	-0.4109713598	 1.7468990656	-1.155780787	 0.133393
H	-0.1852016125	 2.0962050866	 0.5711544114	 0.113898
H	-1.0507953713	-0.2371324921	 0.2374948475	 0.096801
H	 0.3707047002	-1.9781380635	-0.9096627629	 0.109152
H	 2.6716568039	-1.0075432636	 0.3508181683	 0.130339
H	 2.861142791	-0.4893701799	 2.0937905091	 0.11072
H	-0.0187012316	-2.2371329748	 3.3769557438	 0.115265
H	 1.618436823	-1.6571809463	 3.7621538786	 0.107967
H	 0.7661485244	 0.7132232852	 3.2458830013	 0.107169
H	-0.7878695666	-0.0229770312	 2.8011083121	 0.112033
