13
gdb 9326	4.26262	1.08347	0.90467	3.1141	56.86	-0.2932	-0.0758	0.2174	1192.7992	0.09398	-435.757916	-435.74956	-435.748616	-435.792118	27.856	
O	-0.0172595447	 1.4375442834	-0.0494128911	-0.411798
C	-0.0062472677	 0.0271146081	-0.0732496034	-0.074353
C	-1.3996084887	-0.5642067656	 0.0378910533	-0.086689
O	-2.1185918916	-0.1359043183	-1.1510589972	-0.24108
C	-3.3781692302	-0.5573830688	-1.254811618	 0.370323
O	-3.9699565758	-1.2587077851	-0.4823954099	-0.323489
C	-3.9793282095	-0.0369610006	-2.4897779659	 0.252399
N	-4.4965553298	 0.3484139579	-3.4475272989	-0.300749
H	-0.5024398996	 1.7363686339	-0.8260505045	 0.295899
H	 0.4857866213	-0.366624048	-0.975543691	 0.108804
H	 0.5767755184	-0.3010081319	 0.7933492663	 0.128145
H	-1.3855461928	-1.6575262083	 0.0712964349	 0.136491
H	-1.9272883892	-0.1848256567	 0.9168536252	 0.146099
