20
gdb 6603	4.70648	1.3872	1.3197	1.6064	75.95	-0.2269	0.0953	0.3222	1046.2498	0.175519	-348.959036	-348.950651	-348.949707	-348.991478	32.164	
C	-0.1063074834	 1.5241893436	 0.0928021742	-0.38062
C	-0.0996174297	-0.0071068891	 0.0369965045	-0.313533
C	-1.4738991723	-0.5941699081	-0.0969868476	 0.435346
C	-2.5903177472	-0.3106128993	-1.1388088372	-0.295504
C	-3.1823525474	-1.1699476446	 0.0078686386	 0.409543
C	-4.6071572777	-1.5225631895	 0.300250283	-0.508758
C	-1.9245915171	-2.0762194369	-0.0440359427	-0.304624
O	-2.4649992225	-0.2991403642	 0.9792128089	-0.37949
H	 0.9045713756	 1.914595471	 0.241492196	 0.110702
H	-0.4988200294	 1.9524596493	-0.8351161363	 0.116847
H	-0.7358668762	 1.8743597461	 0.9152660089	 0.139207
H	 0.5073738433	-0.3595363629	-0.8066378401	 0.103015
H	 0.3584363286	-0.4162615863	 0.9459570129	 0.110008
H	-2.9478581568	 0.719718425	-1.1725590944	 0.100209
H	-2.4979655008	-0.7644287476	-2.129802088	 0.086555
H	-5.0093875787	-2.1634950355	-0.4907293077	 0.123973
H	-4.6831150319	-2.0575758116	 1.2517941217	 0.131381
H	-5.2217870465	-0.6191446037	 0.3599966621	 0.131173
H	-1.7701009315	-2.6954185427	-0.9323442112	 0.086345
H	-1.6912756183	-2.5970521331	 0.8865133044	 0.098225
