18
gdb 58833	3.45784	1.28616	1.11752	4.0001	71.05	-0.2144	0.056	0.2703	1119.5361	0.145634	-438.974726	-438.966281	-438.965337	-439.007701	32.493	
C	-0.0332662141	 1.5210672826	 0.2454433617	-0.412063
C	-0.0446309831	 0.0102523231	-0.0047275577	-0.016582
O	 0.5485744311	-0.7077865728	 1.0754933328	-0.441644
C	-1.4405506863	-0.5207869063	-0.1491919129	 0.359885
N	-2.3224142852	-0.7794569676	 1.0089899767	-0.364251
C	-1.9915592973	-1.8754229447	 0.0609088498	-0.181245
C	-2.8952825705	-1.7026493314	-1.2134257482	 0.022571
O	-3.7198453261	-0.5483195124	-1.0532828132	-0.212308
C	-2.3572679344	-0.3600603323	-1.4259634459	-0.049571
H	 0.9942720037	 1.8914364067	 0.3391878634	 0.106042
H	-0.503551103	 2.0571669588	-0.5848245191	 0.128123
H	-0.5794012328	 1.7588689874	 1.1626427333	 0.138946
H	 0.5046018657	-0.1991728884	-0.9389986907	 0.073138
H	 1.3787868805	-0.2769019575	 1.3007154883	 0.288138
H	-1.6809963613	-0.9077425244	 1.7945996905	 0.240983
H	-1.4938963267	-2.7812635431	 0.3786029008	 0.107686
H	-3.2154958904	-2.4701728217	-1.9071428301	 0.108743
H	-2.1415683796	 0.2021062539	-2.3272470094	 0.103407
