16
gdb 124309	3.65738	1.03906	0.93394	0.4676	70.66	-0.25	-0.0317	0.2183	1256.6217	0.123257	-437.90281	-437.89432	-437.893376	-437.938068	29.796	
C	 0.5880280939	 0.6148085338	 0.5024190377	-0.476602
C	-0.570578016	 0.0520230215	-0.2923217022	 0.378529
O	-1.7257521495	 0.2056385849	 0.0228355389	-0.296924
C	-0.1967711668	-0.771421267	-1.537562136	-0.39242
C	 0.0459415003	-2.1994443741	-1.1466524137	 0.370127
N	 1.2549227282	-2.7093853918	-1.212831887	-0.199258
O	 1.1370609923	-4.021444909	-0.7649063135	-0.161038
C	-0.143072051	-4.2545517653	-0.4407790877	 0.086629
C	-0.8974080555	-3.1485454791	-0.652072318	-0.322067
H	 1.3439112296	-0.1581088967	 0.6769122718	 0.15675
H	 1.0757860061	 1.4073389753	-0.0781646357	 0.146237
H	 0.2335523614	 1.0253337951	 1.4482895654	 0.144028
H	-1.0342797946	-0.7111382147	-2.2373221825	 0.137618
H	 0.7068619962	-0.3788526787	-2.0107988852	 0.134157
H	-0.3617029527	-5.2471386712	-0.078249679	 0.155016
H	-1.9516368219	-3.0082738029	-0.4831814434	 0.139218
