17
gdb 15821	6.44985	0.91484	0.85881	1.7463	66.05	-0.2574	-0.0249	0.2325	1322.2293	0.14122	-400.984032	-400.975267	-400.974323	-401.01837	30.356	
O	 0.0055573109	 1.4164248947	 0.3965528333	-0.423805
C	 0.0512131397	 0.0612527293	-0.0239083973	-0.076964
C	-1.3478368962	-0.5080904379	 0.1554032617	-0.293038
C	-1.4653432624	-1.9626494853	-0.243102236	 0.376678
O	-0.5072821878	-2.6278565038	-0.5886107191	-0.3405
C	-2.8346306493	-2.5675233745	-0.1949067136	-0.101227
C	-3.2514335553	-3.351058931	-1.4044441894	-0.216625
N	-2.9223771945	-4.0347038727	-0.1630862116	-0.303112
H	 0.8874270737	 1.7877598817	 0.3024746125	 0.288816
H	 0.3542817637	-0.0292775541	-1.0770826328	 0.1014
H	 0.766113101	-0.5275358047	 0.5674513548	 0.106214
H	-1.6608577874	-0.4081460514	 1.2038965549	 0.139672
H	-2.0756522566	 0.0804026629	-0.4191460447	 0.135444
H	-3.5903509543	-2.0362924151	 0.3760822422	 0.100114
H	-4.3012183407	-3.3608226144	-1.6830536802	 0.1273
H	-2.5423122604	-3.3930054919	-2.2265032038	 0.131528
H	-1.964184684	-4.3814855418	-0.231702331	 0.248105
