21
gdb 83157	2.38086	1.48443	1.30277	2.9319	81.29	-0.2332	-0.0092	0.224	1107.2371	0.184125	-387.115939	-387.107507	-387.106563	-387.148971	32.872	
C	-0.2969933698	 1.4607034085	 0.1659388542	-0.424835
C	-0.0461576287	-0.0227214305	 0.0004615719	-0.010156
C	 0.6506088709	-0.6108072731	-1.2120586064	-0.053852
C	 1.2177205102	 0.2732423081	-2.3214004296	-0.241469
C	 2.7191332207	 0.5780455799	-2.1260845496	-0.285005
C	 2.9691338214	 1.1329804284	-0.7359134267	 0.39178
O	 3.4606542623	 2.2206584338	-0.5379723648	-0.324145
C	 2.5656678401	 0.2058759928	 0.4067305268	-0.315736
C	 1.324664713	-0.6414527048	 0.1507895924	-0.060307
H	 0.5437472911	 2.0792914362	-0.1588585787	 0.13659
H	-1.1772724756	 1.7761800332	-0.4057399314	 0.118695
H	-0.4840557162	 1.703207575	 1.217696096	 0.121069
H	-0.8576402882	-0.6341816803	 0.3876247949	 0.082168
H	 0.2552739987	-1.560810435	-1.5577068968	 0.084256
H	 1.0793829035	-0.2205868628	-3.2876798801	 0.106457
H	 0.6693420919	 1.2197499141	-2.3858710276	 0.115918
H	 3.2861065051	-0.3568473914	-2.2298380957	 0.111844
H	 3.0882247278	 1.2930483887	-2.8646606286	 0.115843
H	 3.4214292128	-0.4714150395	 0.5423630974	 0.12475
H	 2.4923229285	 0.800667303	 1.3224461509	 0.12199
H	 1.3472565904	-1.6062122143	 0.6489273717	 0.084146
