19
gdb 7848	4.45495	1.10618	0.95348	3.8478	72.11	-0.2347	0.039	0.2737	1235.8055	0.164661	-365.09053	-365.081271	-365.080327	-365.125233	33.267	
C	-0.2767484653	 1.4252324559	-0.0845724676	-0.404391
C	 0.4108975846	 0.0774530487	-0.1183573478	-0.012585
C	 1.891750636	-0.0523570058	 0.1446624831	-0.303007
C	 0.8886356403	-0.6405946952	 1.1234763911	-0.020612
C	 0.7139360695	-0.0717213815	 2.5166972869	-0.309303
C	 1.6418757302	-0.6367131931	 3.5984912803	 0.38201
N	 2.855721821	-1.0768326561	 3.1592344644	-0.511074
O	 1.3223317882	-0.6579705079	 4.7709959927	-0.36602
H	 0.1546317314	 2.0908942132	 0.6682562922	 0.118295
H	-0.1845722955	 1.927532124	-1.053585716	 0.119796
H	-1.3450070753	 1.3224610614	 0.1360084264	 0.122032
H	 0.0250044473	-0.5837197936	-0.8903517823	 0.088253
H	 2.4803376366	-0.7182298729	-0.4781633256	 0.111476
H	 2.417756245	 0.8473629642	 0.4523755445	 0.114606
H	 0.7858193838	-1.7225300212	 1.0850167537	 0.09303
H	 0.8683975753	 1.0136758425	 2.5133050922	 0.123925
H	-0.3034063545	-0.233126837	 2.8854872367	 0.13093
H	 3.101330377	-1.0722124535	 2.1851497599	 0.265467
H	 3.5054939044	-1.438628772	 3.8370964151	 0.257172
