15
gdb 56489	2.12426	1.42568	0.88636	4.3696	75.69	-0.2931	-0.0179	0.2752	1240.2315	0.110202	-379.65591	-379.64638	-379.645436	-379.690609	33.489	
C	 0.0056676894	 1.5654082391	-0.000319492	-0.414222
C	 0.0312647932	 0.0263258244	 0.0196030363	-0.169102
C	 0.7281838652	-0.4837393854	 1.1948756598	 0.31295
C	 1.2834826015	-0.884786475	 2.1814056879	-0.426066
C	-1.4284565869	-0.5623139505	-0.0144300558	-0.291584
C	-2.1821935598	-0.0598731981	-1.1714842351	 0.300264
N	-2.7580737193	 0.364086443	-2.0778367948	-0.306047
C	-1.4234514584	-2.0312787079	-0.0160669752	 0.310037
N	-1.4118602713	-3.1853149447	-0.0157606201	-0.29932
H	 1.0285167814	 1.9469589544	 0.016480654	 0.146197
H	-0.4907236384	 1.9350692139	-0.9006696392	 0.15439
H	-0.5156498518	 1.9559718266	 0.878558417	 0.136797
H	 0.537892996	-0.333913134	-0.8833764644	 0.146627
H	 1.785891378	-1.2536630035	 3.0419459108	 0.21379
H	-1.9428713289	-0.2282025122	 0.8954474709	 0.185288
