19
gdb 90776	3.17867	1.3934	1.20039	2.5154	70.06	-0.2392	0.0596	0.2988	1070.8187	0.160258	-460.143971	-460.13589	-460.134946	-460.176504	31.714	
O	-0.6101548113	 1.399852912	 0.3046346044	-0.416776
C	-0.1631541914	 0.0856136754	 0.07601855	 0.099117
C	 0.3785657745	-0.7216205932	 1.294851761	-0.297275
C	-0.7392792014	-1.7846211465	 1.0912218766	-0.073897
C	-1.3404452012	-0.9324721357	-0.075324077	 0.085107
O	-2.6157545724	-0.4844981377	 0.3404607494	-0.259076
C	-2.6379414541	-0.5098557113	 1.7708157719	-0.134143
C	-1.8717933867	-1.7906822765	 2.1310547405	 0.133174
O	-2.6923970982	-2.9415061307	 1.9985683684	-0.443965
H	 0.1620996658	 1.9588431692	 0.438528855	 0.285947
H	 0.5165338423	 0.0372444283	-0.7869177612	 0.067262
H	 1.3999034725	-1.0951769087	 1.1912028357	 0.101554
H	 0.3018182449	-0.1718851167	 2.2381011265	 0.098816
H	-0.4067645271	-2.7977933078	 0.8680177916	 0.078693
H	-1.4504135582	-1.3699833242	-1.069467911	 0.080099
H	-2.1570843129	 0.3877196712	 2.1800144329	 0.108384
H	-3.6805815905	-0.5444600469	 2.0948595491	 0.113244
H	-1.5016127073	-1.7907400109	 3.1600665121	 0.087942
H	-3.1596972772	-2.8555932394	 1.1591094839	 0.285793
