19
gdb 68897	2.48643	1.74696	1.25484	2.1106	76.14	-0.2249	0.0152	0.2401	1039.9481	0.159391	-423.022542	-423.014391	-423.013447	-423.054413	33.364	
O	 0.0291521833	 1.3338438827	-0.0211341579	-0.48812
C	 0.0414660504	-0.0584183275	 0.0663381248	 0.417034
C	-0.5132752092	-0.6801300855	 1.3308954293	-0.415074
C	-1.304175093	-0.7482233861	 0.0245671662	 0.258985
O	-2.391041434	 0.1344872999	-0.1299189982	-0.479299
C	-1.3944303094	-2.031791155	-0.7126224276	-0.08822
C	-0.3086429836	-2.7140063452	-1.0816785116	-0.081553
C	 1.0888663833	-2.2227980654	-0.7921035837	-0.288897
C	 1.1719367712	-0.6858939805	-0.7190149619	-0.25734
H	-0.898647364	 1.5836595494	-0.1404258826	 0.287339
H	-0.1084138503	-1.60699341	 1.7225497879	 0.117244
H	-0.8615547063	 0.027199042	 2.077386724	 0.109609
H	-2.9981510806	 0.0071608138	 0.6060061914	 0.291645
H	-2.3950049636	-2.3953042529	-0.9304709162	 0.086956
H	-0.4156793088	-3.6669153521	-1.5919419341	 0.090294
H	 1.4474604494	-2.6628905532	 0.1495292163	 0.114089
H	 1.7810726614	-2.5832648023	-1.5606153139	 0.107085
H	 1.1186515795	-0.2693625261	-1.7317190561	 0.111174
H	 2.1354845343	-0.3776251162	-0.2989844863	 0.10705
