18
gdb 68523	2.89	1.67935	1.3991	3.727	75.61	-0.2296	-0.0133	0.2163	980.1341	0.149671	-401.988546	-401.98128	-401.980336	-402.019697	30.073	
C	-0.0492809199	 1.5220969241	-0.0059436061	-0.495722
C	 0.0336876199	 0.0114370965	-0.0142023256	 0.278827
C	 0.7495134332	-0.6943176543	-1.1949177406	-0.233594
C	 0.4465115836	-2.1055759964	-0.6294849008	-0.189909
C	 0.99666256	-1.9360288899	 0.7922203437	-0.091512
C	 0.7585778947	-0.6769743764	 1.1643231805	-0.114201
C	-1.0912833571	-1.9893723186	-0.4365328637	 0.420802
O	-1.9199490351	-2.866404947	-0.4620796131	-0.378214
N	-1.295837914	-0.6428697137	-0.174991816	-0.333254
H	 0.9544675266	 1.9556739221	 0.0357530743	 0.127612
H	-0.5512963843	 1.890828732	-0.9049887579	 0.130577
H	-0.6038569183	 1.8851127646	 0.8668249146	 0.119396
H	 0.2740550545	-0.4805475657	-2.1562777713	 0.107468
H	 1.8185666503	-0.4774413297	-1.2335449857	 0.105556
H	 0.7548186115	-2.9882431193	-1.1837982258	 0.085979
H	 1.4153601022	-2.7416405774	 1.3798606744	 0.113515
H	 0.9494184511	-0.2126503634	 2.1234344753	 0.102599
H	-2.0736827789	-0.3838074577	 0.4145817437	 0.244075
