20
gdb 110392	5.60123	0.95144	0.93896	2.1807	79.98	-0.2095	0.0753	0.2848	1327.7266	0.170275	-403.043059	-403.034727	-403.033783	-403.07594	32.426	
C	-0.1055310788	 1.6717415655	 0.0955513432	-0.376847
C	-0.1220050206	 0.1462139098	 0.0209017882	-0.121254
N	 0.665569327	-0.4363938052	 1.1067192221	-0.118705
C	 2.1447323086	-0.5281224363	 0.8873089848	-0.028647
C	 2.2548288095	-1.7561698867	 1.8402994811	-0.074931
C	 3.0799357451	-2.5488831191	 0.8267517099	 0.097093
O	 2.9221783804	-3.9455404981	 0.9400590346	-0.440507
C	 2.0950844143	-1.7760003899	-0.0728411973	-0.124234
C	 0.9454722515	-1.8996968521	 1.0031612921	-0.006276
H	 0.9066212664	 2.0648500594	-0.0497998782	 0.112381
H	-0.7447766522	 2.1071750999	-0.6786536631	 0.109596
H	-0.4594431844	 2.0096685607	 1.0736049363	 0.125616
H	-1.1509516419	-0.2170716268	 0.1382815257	 0.097062
H	 0.2168962828	-0.1814045243	-0.9784257158	 0.074886
H	 2.805292468	 0.3383393145	 0.838318399	 0.080459
H	 2.3211620955	-1.7217026022	 2.9264265399	 0.08442
H	 4.1385984393	-2.2656502823	 0.737938546	 0.063603
H	 3.3481516251	-4.3602398417	 0.1835098892	 0.28301
H	 2.0099358056	-1.7886559732	-1.1593824241	 0.075763
H	 0.1733057487	-2.6638553121	 1.0849305262	 0.087512
