16
gdb 44488	3.85332	1.62338	1.49994	3.709	66.88	-0.2517	0.008	0.2597	886.8177	0.128668	-437.896376	-437.890499	-437.889555	-437.926521	24.679	
O	-0.0082983628	 0.0290531519	 0.2161410563	-0.335904
C	-0.0000878781	 1.2007826466	-0.0050212385	 0.432628
O	-1.1591012517	 1.938925127	-0.1656724831	-0.238664
C	-0.7599336976	 3.2512346984	-0.5418839222	 0.10911
C	 0.0221745977	 4.1400010936	 0.4983989611	-0.062695
C	 0.9275192993	 3.1085043468	 1.1820498627	-0.207682
C	 1.1487282216	 2.1968355498	-0.0833425348	-0.171907
C	 0.6492591701	 3.2048735563	-1.1579611113	-0.052278
N	 0.947111383	 4.5698506924	-0.6144502882	-0.325758
H	-1.5567178727	 3.7456483084	-1.0951416049	 0.10125
H	-0.4475868406	 4.9134255608	 1.1035047359	 0.082046
H	 1.8573300981	 3.5716993973	 1.51360776	 0.126886
H	 0.4627329436	 2.5775015167	 2.0148157506	 0.125773
H	 2.1273330156	 1.739689034	-0.1934706511	 0.103768
H	 0.8561980395	 2.9918127823	-2.2056810219	 0.091443
H	 0.4481228353	 5.2386924777	-1.2036958808	 0.221982
