14
gdb 123363	4.2024	1.00832	0.91715	3.7751	70.98	-0.229	-0.0052	0.2238	1246.116	0.100123	-432.808543	-432.800308	-432.799364	-432.842579	29.528	
C	-0.9913665262	-0.2754816317	-1.0943741283	-0.473935
C	-0.3314194283	 0.4240473159	-0.3739604263	 0.337367
C	 0.4685362079	 1.2817251153	 0.5023265476	-0.31457
N	 0.7223268808	 2.6044452807	-0.0745923481	-0.389745
C	 1.7022259419	 2.7193847476	-0.8607998967	 0.56119
N	 2.1036447551	 3.8795552041	-1.5084294996	-0.366916
C	 3.2135031991	 3.5794095236	-2.2387799897	 0.08422
N	 3.5714719092	 2.3465130948	-2.1386424461	-0.121024
O	 2.6057961041	 1.7671929057	-1.2595092283	-0.246258
H	-1.5701351093	-0.8966688294	-1.7317539355	 0.19535
H	-0.0753717115	 1.4341418751	 1.4411882984	 0.133636
H	 1.4017004086	 0.7584863845	 0.7572069204	 0.137545
H	 1.630397717	 4.7610538054	-1.419877679	 0.291439
H	 3.7471126416	 4.2963900784	-2.8442239488	 0.1717
