21
gdb 119428	2.95663	1.17513	1.00581	2.6744	79.92	-0.2162	0.0703	0.2865	1285.0822	0.181296	-424.182799	-424.173369	-424.172424	-424.217059	35.367	
C	-1.0305724088	 1.2534299257	 0.5663666726	-0.225479
O	-1.2068619193	-0.1444863744	 0.5228528611	-0.247977
C	-0.5442724537	-0.7594141341	-0.5777626516	-0.191733
C	-0.7717695138	-2.2366588202	-0.4769010046	 0.255395
C	-0.6124885754	-2.997522079	 0.8295249531	-0.3893
C	-1.9596008878	-2.9528776193	 0.1595264593	 0.399726
O	-3.1044138476	-2.4411843957	 0.7418082597	-0.472641
C	-2.0274549148	-3.9525423686	-0.9914567395	-0.265871
C	-0.7907264548	-3.2376866575	-1.6398452401	-0.298832
H	-1.5587532513	 1.6239276011	 1.44797885	 0.130581
H	 0.033391645	 1.5221667215	 0.6482035429	 0.111662
H	-1.4425096046	 1.7431864652	-0.3292211321	 0.110385
H	-0.9548407484	-0.3720311804	-1.5262805292	 0.090111
H	 0.5280138385	-0.4971713464	-0.5575065961	 0.092931
H	-0.0165449646	-3.9084978605	 0.8721593077	 0.094636
H	-0.5367804542	-2.3614797141	 1.7054200439	 0.115838
H	-2.8962008568	-1.5319305163	 0.9934130829	 0.28985
H	-1.9197992383	-5.0093839957	-0.7283580877	 0.096214
H	-2.9321855317	-3.8231655461	-1.5888251355	 0.109302
H	-1.0377504635	-2.7773981046	-2.6003192487	 0.100764
H	 0.114473296	-3.8417305606	-1.7636732981	 0.09444
