20
gdb 78169	2.20768	1.64169	1.24515	3.2332	79.71	-0.2092	-0.0155	0.1936	1104.0036	0.1707	-403.149812	-403.14102	-403.140076	-403.183047	33.316	
C	-0.1137075748	 1.5388374509	 0.0818441033	-0.425163
C	 0.0279690934	 0.0353561609	-0.0193762672	-0.019081
C	 0.6402654229	-0.7340372611	-1.1608714899	-0.026883
C	 1.3458954328	-0.7327007219	 0.1758489017	-0.208787
C	 2.634572276	-0.0053720068	-0.0442844338	 0.408326
O	 3.5572543785	 0.0771623104	 0.726466959	-0.325249
C	 2.6222001686	 0.5519689682	-1.474843499	-0.29409
N	 1.4954618578	-0.0922982491	-2.1327466047	-0.057448
C	 0.8480807359	 0.6427755062	-3.2002739729	-0.323087
H	 0.6994960942	 2.0808450895	-0.4029320681	 0.127416
H	-1.0496832594	 1.864592412	-0.3846784588	 0.123309
H	-0.1389919099	 1.8532562106	 1.1307552091	 0.128983
H	-0.7939872725	-0.4977647236	 0.4557654558	 0.096683
H	 0.1266504456	-1.6204621946	-1.5242911641	 0.096867
H	 1.3628152159	-1.5717851532	 0.8597455584	 0.110514
H	 2.5432797836	 1.6518620948	-1.4276286525	 0.114232
H	 3.5765736785	 0.3278002916	-1.9684699103	 0.129759
H	 1.5760639199	 0.8685567528	-3.986887092	 0.123162
H	 0.0614170979	 0.0240600462	-3.6438641173	 0.121431
H	 0.390882395	 1.5953378561	-2.8787603165	 0.099105
