19
gdb 105648	2.02905	1.4217	1.28355	4.4388	76.54	-0.2397	0.022	0.2617	1144.1017	0.15863	-419.190547	-419.180985	-419.180041	-419.224679	35.104	
C	 0.0303096147	 1.3690918731	 0.1241127109	-0.263816
O	-0.0019054448	-0.0417116008	-0.0248668253	-0.291844
C	 0.640139007	-0.5525334516	-1.1716400259	 0.281935
C	 2.1964969775	-0.5857567115	-1.0311813026	-0.274599
C	 2.0698896371	-1.9917198194	-0.3904855708	-0.26178
C	 0.6542153783	-2.1118316683	-1.0468676607	 0.01622
N	-0.4972831901	-2.6933566138	-0.4143822101	-0.520274
C	 0.0850036352	 0.0169263588	-2.4076172187	 0.234476
N	-0.3251214921	 0.4620525046	-3.3927258175	-0.349219
H	 1.0569993542	 1.7523118327	 0.1951641408	 0.114692
H	-0.4780865124	 1.871175964	-0.7084880325	 0.141572
H	-0.4960890166	 1.5912742422	 1.0541276676	 0.136925
H	 2.6862667481	-0.6058819247	-2.0069478993	 0.125783
H	 2.6313691619	 0.2140719663	-0.4301916884	 0.117759
H	 2.8142609778	-2.7415072615	-0.6646803562	 0.10314
H	 1.9977068302	-1.9346040971	 0.6982749127	 0.111299
H	 0.7597597473	-2.5356959642	-2.0504186236	 0.105599
H	-0.390397048	-3.6970219471	-0.3164603567	 0.232119
H	-0.6306579655	-2.2942641719	 0.5083065363	 0.240014
