19
gdb 32951	4.24317	0.86544	0.74086	3.6257	81.03	-0.2094	0.0301	0.2395	1558.3466	0.159437	-419.243943	-419.234464	-419.233519	-419.279347	33.213	
C	-0.3407943159	 1.278172634	-0.94615971	-0.223028
O	-0.2783828264	-0.1292230291	-0.9692124528	-0.243898
C	 0.8503826693	-0.6385385925	-0.2753353137	-0.199394
C	 0.8663211918	-2.1188959081	-0.4100755827	 0.300051
C	 1.142224208	-3.1421781868	 0.4566952031	-0.187505
N	 1.0739214164	-4.3592388778	-0.1842694641	-0.298159
C	 0.7493462581	-4.0880870533	-1.4311827613	 0.343205
C	 0.5259318722	-5.08890501	-2.5151176224	-0.498764
N	 0.629354801	-2.7391801279	-1.6204569899	-0.324155
H	-0.4315866836	 1.6650622598	 0.080644648	 0.109561
H	 0.550113752	 1.7348677283	-1.4061638219	 0.104987
H	-1.2252504653	 1.5752528438	-1.5144940762	 0.129585
H	 1.766919162	-0.1843271213	-0.6951401489	 0.096708
H	 0.8199430177	-0.3674767955	 0.7915868514	 0.107836
H	 1.3936096014	-3.0702665379	 1.5045151578	 0.101658
H	-0.4982725516	-5.0482292954	-2.9043598593	 0.130649
H	 1.2065126344	-4.9359042777	-3.360654996	 0.12916
H	 0.6992130551	-6.0856203651	-2.1077498497	 0.156793
H	 0.3036977532	-2.2641780875	-2.4461667814	 0.264712
