17
gdb 34728	3.65812	1.49131	1.44564	4.5941	74.04	-0.2616	0.0214	0.2829	945.8304	0.140254	-380.871554	-380.865133	-380.864189	-380.902281	26.402	
N	-0.069091924	-1.1666382561	-0.1121497959	-0.33187
C	-0.0224427619	-0.0139149434	-0.0488158157	 0.291584
C	-0.0053094096	 1.4465677043	 0.0434315918	-0.136144
C	-0.5000531324	 2.0039921313	 1.3922023906	-0.063199
C	 0.7422647917	 2.1176317839	 2.2464399905	-0.065063
C	 1.8856910573	 1.6049382333	 1.3650506316	-0.200192
N	 1.3794608332	 2.0122697116	 0.0208956544	-0.121554
C	 1.0701858748	 3.4514585248	 0.2609083624	-0.18761
C	 0.2079574062	 3.3345300649	 1.5226997647	-0.088666
H	-0.5684142521	 1.8472716787	-0.805380913	 0.125376
H	-1.4854095512	 1.8033797524	 1.786983938	 0.107391
H	 0.7171981645	 2.0105042635	 3.3215024419	 0.098036
H	 2.8435826159	 2.0942490012	 1.5584490188	 0.113033
H	 2.0245604896	 0.5222549803	 1.4075108894	 0.134596
H	 1.9988090015	 4.0074231164	 0.4130483768	 0.114752
H	 0.5420618099	 3.8751071807	-0.5980717652	 0.111686
H	-0.2350602033	 4.1803160722	 2.0296817889	 0.097845
