23
gdb 82816	2.2188	1.90418	1.43076	0.162	88.43	-0.2512	0.0853	0.3366	1061.5522	0.206863	-351.12813	-351.119866	-351.118922	-351.160173	33.951	
C	-0.2489863329	 1.5355842936	-0.025502756	-0.424107
C	 0.0651582408	 0.045938032	 0.0032573116	 0.003287
C	 1.1389834005	-0.5647505311	-0.9386180628	-0.059297
C	 2.5174981111	 0.1420586639	-0.8921264972	-0.229726
C	 2.8257802988	-0.533075003	 0.4659062471	-0.028392
C	 2.0710077172	 0.1134926389	 1.6521759583	-0.280532
C	 0.7583877311	-0.6115650571	 1.2376581678	 0.345057
C	-0.1277883419	-1.1443691232	 2.341968877	-0.500596
C	 1.6035246671	-1.4958393645	 0.2403380405	-0.090637
H	 0.6447366721	 2.149545316	 0.1223503089	 0.116451
H	-0.689564721	 1.8235642574	-0.9869160781	 0.111971
H	-0.9663980255	 1.8030863182	 0.7588118964	 0.112175
H	-0.8636372201	-0.5148967579	-0.1672395692	 0.063314
H	 0.7949248112	-0.9200835107	-1.9113029119	 0.056419
H	 3.1701657911	-0.254643564	-1.6761368696	 0.09548
H	 2.5488614768	 1.2358999943	-0.9418282415	 0.086514
H	 3.8495111742	-0.8646339381	 0.644100589	 0.058393
H	 2.4324869808	-0.2848033488	 2.6060988352	 0.09165
H	 2.0631007974	 1.2068452638	 1.7196627384	 0.086283
H	-0.6045549476	-0.3249591647	 2.8953352937	 0.113448
H	-0.9254890776	-1.7820455504	 1.9437100779	 0.10965
H	 0.4447843466	-1.7373736875	 3.0643630831	 0.109665
H	 1.6322452497	-2.5836314869	 0.2254258615	 0.053529
