17
gdb 18674	3.0573	2.2365	1.51793	3.3017	68.03	-0.2327	-0.0125	0.2202	852.3817	0.144919	-363.872877	-363.866092	-363.865148	-363.903843	26.508	
O	 0.0323047697	-0.0023005441	-0.4156612909	-0.32992
C	 0.0080778179	 1.1705291187	-0.1146195633	 0.433756
C	-1.2678732899	 1.9509011656	 0.1422234873	-0.310424
C	-1.3011261891	 3.1825656843	-0.7884447136	-0.212369
C	-0.1451412576	 4.1612296777	-0.5127801108	-0.199858
C	 1.1872222278	 3.471813748	-0.2369975272	-0.027413
N	 1.3480310389	 2.9185790921	 1.1064847393	-0.329633
C	 1.2643997311	 1.9836670795	-0.0441261334	-0.141046
H	-2.1178700619	 1.2878656411	-0.0323061772	 0.115665
H	-1.2803749788	 2.2776885441	 1.1885129821	 0.134539
H	-1.244531997	 2.8345549055	-1.8274338933	 0.110517
H	-2.2599146834	 3.7010054391	-0.6874779855	 0.105117
H	-0.0315484155	 4.8375884274	-1.366525859	 0.101993
H	-0.3832828156	 4.7844269504	 0.3566690007	 0.115741
H	 2.0632584468	 3.9297383857	-0.6912798152	 0.09495
H	 2.3156774966	 2.9810415235	 1.4117321869	 0.240815
H	 2.16022573	 1.4531429415	-0.3532191768	 0.097572
