20
gdb 7466	3.56503	1.41444	1.2828	0.6064	80.12	-0.2591	0.0513	0.3104	1055.3783	0.175565	-311.832791	-311.824056	-311.823112	-311.865675	33.423	
C	-0.2204540865	 1.7331175947	 0.1784352093	-0.460275
C	 0.065225747	 0.2409871734	 0.0629575213	 0.350586
C	-1.2322435603	-0.5571877516	-0.2101001005	-0.406113
C	-1.87016593	-0.2291533665	-1.4802533407	 0.313926
C	-2.3750210204	 0.0487261225	-2.5357999469	-0.454248
C	 1.2190491791	-0.1849534304	-0.9005477545	-0.247821
C	 1.7621653048	-1.1406358165	 0.1954803641	-0.211668
C	 0.8684561908	-0.4109655789	 1.2344307241	-0.259935
H	 0.7014405742	 2.2926844566	 0.366971112	 0.107258
H	-0.6726493713	 2.1208307423	-0.7401981599	 0.129364
H	-0.9117151514	 1.9399450019	 1.0047143342	 0.108837
H	-1.0094748426	-1.6318330469	-0.1908559514	 0.124921
H	-1.9381834102	-0.3786238173	 0.6123584917	 0.124609
H	-2.8313017098	 0.2884270668	-3.4639868614	 0.193137
H	 0.920654712	-0.6218186146	-1.8567643628	 0.105305
H	 1.9024547801	 0.6453825391	-1.1001977852	 0.095651
H	 1.4600956674	-2.1792123278	 0.036153099	 0.102418
H	 2.8392548017	-1.1273406614	 0.3756435634	 0.097223
H	 1.424611995	 0.3383932768	 1.8050167037	 0.095582
H	 0.3026120104	-1.0277483621	 1.9394375906	 0.091243
