20
gdb 18717	3.05196	2.10946	1.44477	1.4189	74.24	-0.2373	0.0836	0.3209	925.2775	0.178827	-348.999554	-348.992099	-348.991155	-349.030925	29.635	
C	-0.0157949476	 1.5740863496	-0.0057916592	-0.39428
C	 0.0449677472	 0.0427801192	-0.0030448144	 0.014575
C	 0.6351316232	-0.5245593997	-1.3071197673	-0.217322
C	 0.9316226625	-2.0139796083	-1.1529593304	-0.071416
O	 1.9480748315	-2.23570783	-0.1849246603	-0.257923
C	 1.6706295824	-1.7114251611	 1.0835804108	 0.09153
C	 2.268227471	-0.3700487506	 1.4223293379	-0.309033
C	 0.7721117309	-0.5078078087	 1.2184946277	-0.042489
H	 0.9899302462	 2.0045703203	-0.0591076496	 0.116528
H	-0.5866592818	 1.9441036477	-0.8646227033	 0.108092
H	-0.4922564757	 1.9540896335	 0.9040933402	 0.110408
H	-0.9860946136	-0.3350193807	 0.0612738775	 0.071687
H	-0.0665530992	-0.3604816599	-2.1333554901	 0.094198
H	 1.5665826317	-0.0074105907	-1.5706583151	 0.101967
H	 0.0108894119	-2.5573291178	-0.8818372533	 0.083983
H	 1.3145381475	-2.4448405472	-2.0825571703	 0.10425
H	 1.6360998729	-2.4803933924	 1.8525763299	 0.087427
H	 2.6365672034	-0.1901223858	 2.4265106463	 0.107021
H	 2.855608672	 0.0906472949	 0.6354063825	 0.116729
H	 0.1835514337	-0.4679635423	 2.1315440907	 0.08407
