14
gdb 127204	2.36044	2.03701	1.10093	0.22	67.34	-0.2668	-0.0804	0.1864	1010.0302	0.101237	-470.009432	-470.00165	-470.000706	-470.042104	28.237	
C	-0.1719851127	 1.4391397913	-0.0083372043	-0.340169
N	-0.0342298634	-0.0186986202	 0.0011697963	-0.207308
C	-0.0055926872	-0.6685546148	-1.2264794376	 0.50847
N	-0.0942454678	-0.0311764538	-2.3125949803	-0.549424
O	 0.1238011272	-2.0447538259	-1.2183109521	-0.278183
N	 0.2259374699	-2.7971691429	-0.0537123562	-0.039166
C	 0.195357074	-2.1567326292	 1.0489259255	-0.051768
C	 0.0620474382	-0.6924494094	 1.2042253025	 0.418029
O	 0.0398060476	-0.1526163138	 2.2898534877	-0.360762
H	 0.6616562952	 1.8839777547	-0.5550186988	 0.158433
H	-1.099616866	 1.7175951467	-0.5118997646	 0.158532
H	-0.1775370134	 1.7686898764	 1.0284496336	 0.169247
H	-0.0558117033	-0.6649150647	-3.1078745931	 0.243488
H	 0.2753437816	-2.7494284145	 1.9535293315	 0.170584
