18
gdb 26158	2.58606	1.29481	1.03873	2.3736	74.33	-0.2367	0.0006	0.2373	1210.981	0.147076	-439.12794	-439.118829	-439.117884	-439.162312	32.989	
C	-0.008776673	 1.5383908769	-0.1750202347	-0.391914
C	 0.0006066772	 0.0058505873	-0.0926910161	 0.018506
O	 0.6723741573	-0.5609144478	-1.2109364156	-0.43289
C	 0.6286544259	-0.4783821123	 1.1828200708	 0.18993
C	 0.1004572313	-1.0228332174	 2.3077401064	 0.237956
C	-1.2653428017	-1.3700037344	 2.7720479435	-0.497602
O	 1.1469028477	-1.2870065947	 3.1645904975	-0.179583
C	 2.2485424501	-0.889126183	 2.4942813208	 0.062573
N	 2.0168277973	-0.4010392264	 1.32295429	-0.326144
H	 1.0099354142	 1.927088975	-0.078710394	 0.126851
H	-0.414552302	 1.8526037874	-1.1404156982	 0.121174
H	-0.6175498905	 1.9732675462	 0.624712633	 0.108665
H	-1.03047666	-0.3623183511	-0.148483702	 0.084583
H	 1.616658455	-0.4841145703	-1.0241137526	 0.291986
H	-1.9873888558	-1.1818582812	 1.974519307	 0.144684
H	-1.3327371509	-2.4264535708	 3.0533731846	 0.146064
H	-1.5596880408	-0.7760574841	 3.644761254	 0.143968
H	 3.1961786586	-1.0178370693	 2.9935711557	 0.151195
