16
gdb 83417	2.85445	1.35811	1.12704	12.1476	65.73	-0.1807	-0.0137	0.1671	1083.3184	0.124915	-474.950112	-474.94191	-474.940966	-474.98338	30.262	
O	 0.2269118696	 1.2376820365	 0.4350731258	-0.445945
C	 0.0316521294	-0.1341167128	 0.2042777118	 0.050244
C	-0.6172423014	-0.8914423346	 1.3010100816	-0.122574
N	-1.6351958985	 0.0339995034	 1.9267808191	-0.278409
H	-2.1588743185	-0.3702585254	 2.6997171242	 0.309487
H	-1.2299421834	 0.9343366676	 2.1951268247	 0.309062
C	-2.4040693967	 0.0709721151	 0.5849739423	-0.244301
C	-1.3099751468	-0.7447711667	-0.0764929439	 0.156955
C	-1.5852094317	-1.856785559	-1.1267757729	 0.292519
O	-2.7911408088	-1.9346146946	-1.4156794139	-0.48255
O	-0.566443837	-2.4757731823	-1.4629674593	-0.479776
H	 0.2070252026	 1.6899492884	-0.4155915212	 0.308218
H	 0.8309070834	-0.6830988126	-0.2896335747	 0.155517
H	-0.2443526727	-1.7269398171	 1.8779351737	 0.146762
H	-3.3244774362	-0.5039918917	 0.6675044352	 0.183296
H	-2.5909605732	 1.0969086858	 0.2630868175	 0.141495
