12
gdb 123307	2.02497	1.90912	0.98267	6.2583	75.83	-0.2518	-0.0396	0.2123	1087.1569	0.079057	-394.532549	-394.525162	-394.524218	-394.56465	27.268	
C	 0.0411569713	-1.2174129927	-0.0043858605	-0.409658
C	 0.0034333609	-0.0148664869	 0.0022406444	 0.206858
C	-0.0210122457	 1.3951497388	 0.0107211859	 0.025769
C	-1.1236826818	 2.2333776578	 0.0294162438	-0.117292
N	-0.6441881326	 3.4976576368	 0.030642599	-0.181024
N	 0.6907405864	 3.57285921	 0.0143471762	-0.270065
C	 1.0870108522	 2.2985281751	 0.0020973138	 0.183516
C	 2.4670885163	 1.9571698376	-0.0171640562	 0.244366
N	 3.5812626115	 1.6470943798	-0.0328952307	-0.340339
H	 0.0818993643	-2.2786445623	-0.009645278	 0.198517
H	-2.1782518841	 2.012614136	 0.0413523579	 0.164684
H	-1.1737083386	 4.35443512	 0.0422230944	 0.294668
