21
gdb 91123	3.75379	1.39004	1.31231	1.5259	81.32	-0.2273	0.0935	0.3208	1072.6461	0.18573	-387.089414	-387.082216	-387.081272	-387.120614	30.006	
C	-0.1154022139	 1.5048383906	-0.0360351673	-0.409289
C	 0.0636634411	-0.0015860402	 0.0740252474	 0.13362
O	 0.900074338	-0.5045701345	-0.9985557245	-0.302177
C	 1.9120089051	-1.2059343794	-0.2837320235	 0.121901
C	 1.1899550045	-1.9966950721	 0.8482648802	-0.03392
C	 2.2926835989	-2.4633571946	 1.7977405678	-0.241414
C	 3.1645821146	-1.1682350226	 1.8341237818	-0.238481
C	 2.3477292623	-0.2825487803	 0.891783989	-0.033529
C	 0.8464592162	-0.5279743069	 1.2807118595	-0.076701
H	 0.8370380385	 2.0314245338	 0.0687370342	 0.118657
H	-0.5400245138	 1.7613116672	-1.0111136206	 0.125998
H	-0.8005777174	 1.8658385427	 0.7387978477	 0.11007
H	-0.9204300157	-0.4872779158	 0.0042359377	 0.070298
H	 2.6169344902	-1.6630786994	-0.9794271885	 0.073779
H	 0.391023822	-2.6956065789	 0.5943276341	 0.061996
H	 1.9046383356	-2.7391450396	 2.7828343966	 0.098304
H	 2.8384379889	-3.3275391225	 1.4062077099	 0.09852
H	 3.2452825976	-0.7424310025	 2.8387836625	 0.098471
H	 4.1818294563	-1.3340183816	 1.4658267358	 0.09814
H	 2.7178082299	 0.7220474023	 0.6848240726	 0.063029
H	 0.4644933611	-0.2977778954	 2.2770124176	 0.062728
