20
gdb 60078	2.36132	1.1219	0.94529	4.903	79.81	-0.2697	0.0368	0.3065	1349.0699	0.169342	-403.155219	-403.145322	-403.144378	-403.190376	36.48	
C	 0.1250995283	 1.5031721187	-0.0104437536	-0.413596
C	 0.0517112729	-0.0007182392	 0.2484353603	 0.135215
O	 0.3090503622	-0.3054690205	 1.617813444	-0.427392
C	-1.2879520293	-0.5996105733	-0.2143449842	-0.291767
C	-1.3248974625	-2.1239713031	-0.1916987588	 0.200669
C	-1.5520622395	-2.8540508434	 1.122575926	-0.267172
C	-2.6399479338	-2.8407429178	 0.0937472881	-0.315864
C	-0.4433752435	-2.755420098	-1.1428940654	 0.2445
N	 0.2681416189	-3.2415544994	-1.9156759605	-0.355842
H	 1.0741104881	 1.9018234079	 0.3576074908	 0.13039
H	 0.044878736	 1.7280972675	-1.0783432587	 0.125591
H	-0.6908663449	 2.0291383593	 0.5027811502	 0.106449
H	 0.8614645224	-0.4965635216	-0.3001537644	 0.11568
H	-0.2388944649	 0.2783437599	 2.1542833058	 0.275923
H	-2.0891640889	-0.2201688817	 0.4333165551	 0.090412
H	-1.5110788554	-0.250717797	-1.2297564823	 0.115301
H	-1.0077109932	-3.7763279863	 1.2843475393	 0.140203
H	-1.6438968417	-2.2254996035	 1.9987804114	 0.126933
H	-3.5059963824	-2.2079290821	 0.2542692925	 0.124892
H	-2.8421659389	-3.7532811162	-0.4539206156	 0.139474
