21
gdb 115834	3.02728	1.16966	0.96991	2.6595	78.81	-0.2332	0.0787	0.3119	1284.8386	0.18307	-424.217869	-424.20913	-424.208185	-424.251827	33.755	
O	 0.365049906	 1.0029009869	 0.5105924187	-0.424321
C	 0.0433866735	-0.2764460133	 0.0104963653	-0.057558
C	-1.468522444	-0.4812369619	-0.0675001116	 0.104186
C	-1.8886945759	-1.9368632088	-0.3575815057	-0.262145
C	-2.2469008028	-2.4819807794	 1.0382396624	-0.294215
C	-2.767794578	-1.2351107963	 1.7192046657	 0.473488
C	-4.2314602768	-0.9976054933	 1.9890506136	-0.32594
C	-3.2346989455	-1.1441474107	 3.1310219906	-0.338544
O	-2.0052677815	-0.1510892555	 1.2302194006	-0.327987
H	-0.1780606017	 1.1119323259	 1.3013030481	 0.289832
H	 0.4816902792	-0.3544365744	-0.990918863	 0.10304
H	 0.4825300801	-1.0764104879	 0.631847875	 0.077216
H	-1.8878581978	 0.2230379942	-0.7963462574	 0.08228
H	-2.7642009853	-1.9586503189	-1.0120920437	 0.111052
H	-1.0921688585	-2.5043957714	-0.84680437	 0.106592
H	-2.9792307338	-3.2916605639	 1.0093474367	 0.106129
H	-1.3520668378	-2.8506628663	 1.5526032778	 0.10916
H	-4.612845684	-0.0018057084	 1.7936229704	 0.120751
H	-4.9356436244	-1.8037432863	 1.8100724867	 0.1092
H	-3.2555086019	-2.0488837036	 3.7296839135	 0.11488
H	-2.972538529	-0.2454203666	 3.678118656	 0.122902
