19
gdb 48621	3.48126	1.3823	1.18752	2.7572	80.52	-0.2434	-0.027	0.2164	1076.941	0.160494	-385.898049	-385.890459	-385.889515	-385.930219	30.157	
O	-0.1741975827	 0.0764364877	-0.3909514109	-0.259108
C	 0.0262410841	 1.125997066	 0.1679311204	 0.049514
C	 1.3113265526	 1.89551588	 0.0952054791	 0.220948
C	 2.5999069507	 1.1901246834	-0.419045088	-0.250902
C	 2.997032068	 2.5683903203	-1.020347307	-0.035753
C	 1.4737700873	 2.8545352242	-1.1514949881	-0.250493
C	 3.6141641093	 3.465222386	 0.0689750456	-0.254792
C	 2.7528910471	 3.4487788607	 1.31232352	-0.081777
C	 1.6459928625	 2.7069151562	 1.3296844852	-0.111734
H	-0.7802417014	 1.6161576981	 0.7644621539	 0.069786
H	 3.2514223581	 0.7458517183	 0.3369000622	 0.098586
H	 2.3577914551	 0.4554388126	-1.1892989758	 0.119078
H	 3.5942290146	 2.5790221213	-1.9346946893	 0.067038
H	 1.0551304039	 2.4013848926	-2.0531473559	 0.114747
H	 1.11699418	 3.8801110541	-1.0346681086	 0.102368
H	 4.6314899997	 3.1240064126	 0.3072292098	 0.109741
H	 3.7241711911	 4.4948125512	-0.2999878937	 0.107743
H	 3.0547446714	 4.0471879454	 2.1668759148	 0.093394
H	 0.9865407284	 2.663767789	 2.1923016863	 0.091616
