16
gdb 113628	3.61894	0.88609	0.85851	3.4783	72.76	-0.297	-0.1	0.197	1395.6371	0.12176	-437.881746	-437.872456	-437.871512	-437.916935	32.06	
C	-0.2522879716	 1.5864992303	-0.7557577545	-0.381672
C	 0.0315914346	 0.3116137867	 0.0511732478	-0.231651
C	-1.2465256446	-0.3998524642	 0.4122761061	 0.086256
O	-1.9101709796	-1.1316268586	-0.6103869523	-0.224839
C	-1.4101571849	-1.8828708826	 0.4812186828	-0.07986
C	-0.2576796978	-2.7951465074	 0.2057099436	 0.304334
O	 0.4396910493	-2.7756094479	-0.776355057	-0.269344
C	-0.002657488	-3.763121909	 1.2964251056	 0.212442
N	 0.1903059875	-4.5094872144	 2.1582862313	-0.293741
H	 0.680471859	 2.0986878579	-1.0061407298	 0.125495
H	-0.7689533933	 1.3445100383	-1.6888888141	 0.14113
H	-0.8789397529	 2.2863318635	-0.1926234632	 0.11911
H	 0.6733075307	-0.3598079539	-0.5241831758	 0.141511
H	 0.5588303419	 0.5633603593	 0.9798545139	 0.111571
H	-1.9270035576	 0.1584723025	 1.0598179893	 0.111896
H	-2.1544337726	-2.2869794905	 1.1678760665	 0.127365
