17
gdb 41321	3.27564	1.78721	1.36965	1.4369	71.99	-0.2377	0.0031	0.2407	938.1149	0.137576	-421.790338	-421.783672	-421.782728	-421.82127	26.954	
C	 0.017573988	 1.4723968612	 0.0299630571	-0.108519
O	 1.4731755427	 1.4856082513	-0.0204846015	-0.342242
C	 1.5281635957	 0.0605562562	 0.0390305214	 0.423389
C	 2.5500519414	-0.6929912523	-0.7930508267	-0.380902
C	 2.7389061528	-1.9562674446	 0.0225002073	-0.061287
C	 2.1320224546	-1.9209629855	 1.2129811486	-0.087982
C	 1.4420367975	-0.6066142323	 1.4368419263	 0.022411
O	-0.0207414945	-0.6487688646	 1.36740092	-0.314795
C	-0.0091941884	-0.0698906251	 0.0538367563	-0.001005
H	-0.3787267268	 1.9478417632	 0.9329332934	 0.114984
H	-0.4074423255	 1.9425929399	-0.8645138349	 0.107
H	 2.2077319572	-0.8928103852	-1.8153484135	 0.113999
H	 3.4772312731	-0.110041284	-0.8817313666	 0.126886
H	 3.3194614467	-2.7943543129	-0.3485165299	 0.103569
H	 2.1389311801	-2.7200110742	 1.945202667	 0.104516
H	 1.7778589825	-0.0492352557	 2.31739421	 0.090443
H	-0.6375742772	-0.6022455953	-0.6625901844	 0.089536
