12
gdb 24743	3.6183	1.29219	0.95215	5.5462	72.34	-0.2677	-0.1009	0.1667	1114.6666	0.078199	-435.533155	-435.525897	-435.524953	-435.565589	25.753	
O	 0.072569294	-0.0633649142	 0.0035578591	-0.293742
C	-0.0546445135	 1.1434591365	 0.0077538922	 0.195834
C	 1.1355846981	 2.0213301969	 0.0012372217	 0.241975
N	 2.0925635986	 2.669315715	-0.0041526756	-0.315895
C	-1.3361010545	 1.8204850705	 0.0191147653	 0.293998
C	-2.6179443462	 1.3303288756	 0.0273949484	-0.244688
C	-3.4750401326	 2.4601511096	 0.0368002553	-0.169632
C	-2.6541581222	 3.5546360023	 0.0335591458	-0.000565
O	-1.3602729443	 3.1873292381	 0.0229914879	-0.162259
H	-2.8874870362	 0.2864071182	 0.0266175098	 0.155005
H	-4.5532172403	 2.4686713958	 0.044873852	 0.137553
H	-2.8402307009	 4.6166243656	 0.0377559481	 0.162415
