15
gdb 49001	2.46705	1.68459	1.1637	4.0043	68.34	-0.2494	-0.0528	0.1966	1031.7591	0.112133	-453.904755	-453.897051	-453.896107	-453.937367	28.501	
N	-0.0197733125	 1.1782115094	 0.4546795767	-0.544647
C	-0.0199348661	-0.0138631324	 0.0843431572	 0.481212
O	 1.0257884447	-0.8554478697	-0.2839853183	-0.280237
C	 0.1239662932	-1.9239954947	-0.6540694457	 0.324392
C	-0.2081343041	-2.9015295057	 0.4986136513	-0.234732
N	-1.2138808774	-1.9531389849	 1.0465263979	-0.307609
C	-1.0898918096	-1.0695991252	-0.134238098	-0.204331
C	 0.2930596793	-2.4125563788	-2.0585491506	 0.085581
O	 0.9908593983	-1.8890555438	-2.8850983728	-0.237198
H	 0.9246768907	 1.5646583199	 0.4997467429	 0.23814
H	-0.6341971994	-3.8386154849	 0.1182964557	 0.11342
H	 0.6205606313	-3.1270929728	 1.175439676	 0.134075
H	-2.1375606937	-2.3490155308	 1.1637733783	 0.237073
H	-1.9893992993	-0.8107789395	-0.6915777045	 0.114956
H	-0.3185095354	-3.3153971862	-2.2878714161	 0.079904
