17
gdb 22755	3.0045	1.01673	0.8056	3.6439	78.14	-0.2605	-0.0117	0.2487	1376.4584	0.134566	-417.974775	-417.965608	-417.964664	-418.009146	33.157	
C	-0.3791700845	 1.249504288	 0.1277187024	-0.409047
C	 0.0757779948	-0.2018710117	 0.1139204343	-0.073028
C	 0.975485225	-0.6952647761	-1.0886617934	-0.16099
C	 1.9529133588	-1.3752229956	-0.0646267358	-0.335409
C	 1.2102283103	-0.6325753224	 1.0247671838	 0.403689
N	 1.4320066347	-0.3248070064	 2.2312623755	-0.231813
O	 2.6376625167	-0.8834119424	 2.6836265339	-0.388305
C	 0.3472953803	-1.5429160874	-2.0848044168	 0.269694
N	-0.1651952474	-2.2274718856	-2.8633275576	-0.324644
H	 0.4688865299	 1.928727865	-0.0042696381	 0.122721
H	-1.1033119485	 1.438264827	-0.6708975666	 0.13044
H	-0.8527964993	 1.4892151836	 1.0837129227	 0.14238
H	-0.7828707079	-0.8737794537	 0.227399256	 0.119416
H	 1.4538153252	 0.153910025	-1.5836047055	 0.129596
H	 1.8306350207	-2.4605001585	-0.0098136096	 0.14961
H	 3.0139025791	-1.1457006968	-0.1780019983	 0.144415
H	 2.6847528121	-0.563814512	 3.5913217333	 0.311276
