20
gdb 92205	2.84464	1.80671	1.4853	0.6287	77.05	-0.2129	0.0666	0.2794	969.2638	0.173517	-403.111052	-403.103802	-403.102858	-403.142846	29.274	
C	-0.2593294432	 1.5486519447	 0.0544367855	-0.402195
C	-0.0017956241	 0.0402716478	 0.0271365305	-0.002272
C	 0.7856362494	-0.4624986099	-1.2293682992	-0.195997
N	 1.926405003	-1.2813674737	-0.7787848869	-0.103309
C	 3.1821731726	-0.5205642276	-0.4622456445	-0.191154
C	 2.9125452883	-0.6690475075	 1.039703754	 0.107274
O	 2.0027317472	 0.3498670717	 1.5114719565	-0.315611
C	 0.8327742695	-0.4682782366	 1.2088551759	 0.114283
C	 1.731990375	-1.5914435889	 0.6716640168	-0.084709
H	 0.6871557704	 2.0941321637	 0.0962220494	 0.13321
H	-0.8068097829	 1.8681265767	-0.8380076405	 0.112143
H	-0.8515415408	 1.838001021	 0.9290796275	 0.113647
H	-0.9655674354	-0.4838947207	 0.0714267337	 0.072063
H	 0.1306212383	-1.0635739317	-1.8706305667	 0.100241
H	 1.1539533862	 0.3680069555	-1.8404579831	 0.103279
H	 4.0672359276	-1.0595588649	-0.8197493466	 0.103176
H	 3.2132131592	 0.5122002203	-0.8257332982	 0.105942
H	 3.7215916679	-0.8674000352	 1.744931851	 0.079514
H	 0.2474533637	-0.6452569698	 2.117730092	 0.074446
H	 1.582381958	-2.636728855	 0.9412805829	 0.076029
