15
gdb 25774	4.21778	1.09823	0.87685	4.3476	73.69	-0.2186	-0.0606	0.158	1261.3407	0.112155	-453.993491	-453.984989	-453.984045	-454.027058	30.678	
C	-0.142931417	 1.4525970467	 0.1404492928	-0.484075
C	 0.0217395427	-0.0546452305	 0.1495085406	 0.296911
O	 1.1000796664	-0.6029683805	 0.1760328531	-0.284412
C	-1.2281651233	-0.8559149771	 0.1234981352	 0.300811
N	-1.355834892	-2.1539013188	 0.1272523283	-0.320723
C	-2.7116016182	-2.3804446355	 0.093388701	 0.274387
N	-3.2105180848	-3.6704271853	 0.151123719	-0.599382
C	-3.3607008755	-1.1742184883	 0.0681825528	-0.116919
O	-2.4091149082	-0.1948335533	 0.0862102011	-0.164069
H	 0.8446969084	 1.9134034923	 0.1603640363	 0.144035
H	-0.6892579659	 1.7760846909	-0.7514281096	 0.146214
H	-0.72725601	 1.7819708823	 1.0057145019	 0.147292
H	-2.5237786017	-4.3551172713	-0.1336025059	 0.263587
H	-4.0949841258	-3.8080940522	-0.3155647268	 0.252796
H	-4.388500625	-0.8585429794	 0.0425806503	 0.143547
