19
gdb 60303	5.88312	0.49412	0.46987	4.1245	85.89	-0.2665	-0.0608	0.2057	2290.7287	0.154787	-422.997156	-422.986262	-422.985317	-423.035109	36.611	
C	 0.038608298	 1.4584076629	 0.2058876234	-0.397842
C	-0.0275697881	-0.0556738789	-0.0108035519	 0.169629
C	-1.4594604599	-0.5555221976	-0.1572750873	-0.391655
O	 0.6529651407	-0.4550464023	-1.2036260577	-0.256718
C	 2.0589494179	-0.4123500847	-1.1165822294	-0.223924
C	 2.6505075502	-1.0172717886	-2.3003700774	 0.058051
C	 3.1793165449	-1.5083346345	-3.2683842892	 0.083255
C	 3.7624574363	-2.103250518	-4.4419446154	 0.020496
O	 4.9509452618	-2.2305444336	-4.6287108706	-0.230209
H	 1.0655634321	 1.8129564771	 0.3345496864	 0.117657
H	-0.4019797685	 1.9816180494	-0.6486556943	 0.128394
H	-0.5179132174	 1.7360652199	 1.1064307341	 0.12077
H	 0.4460540038	-0.5622621555	 0.8476601465	 0.068326
H	-1.9426125174	-0.0754790303	-1.0139577809	 0.1277
H	-1.4720510699	-1.6363776891	-0.3178652177	 0.125803
H	-2.0401345632	-0.3266109901	 0.740951479	 0.116135
H	 2.4377096536	 0.6190935165	-1.0269341652	 0.132802
H	 2.4155799693	-0.9533339239	-0.2220539419	 0.128606
H	 3.0174124958	-2.4479654086	-5.1876096106	 0.102725
