20
gdb 47032	3.27708	1.38463	1.08899	3.4177	80.24	-0.246	0.0335	0.2796	1143.2854	0.173881	-403.163936	-403.156216	-403.155272	-403.196576	30.461	
N	-0.1420704612	 1.2392123374	 0.6322973104	-0.513049
C	-0.0516336729	 0.0807577802	 0.1264765913	 0.387391
C	-1.2550613033	-0.8251934125	 0.0269328985	-0.275923
C	-1.2553862471	-1.6170928866	-1.2857853172	-0.233829
C	-0.0010381403	-2.4878817541	-1.3134974506	-0.028479
C	 0.594874032	-2.7780451169	-2.720546477	-0.248004
C	 1.5585206982	-1.5711054837	-2.5334839716	-0.244589
C	 1.2634552274	-1.6383674432	-1.0163238322	 0.142542
O	 1.144195088	-0.3918978848	-0.3339898304	-0.26307
H	 0.7738141851	 1.6940339345	 0.6240462786	 0.213422
H	-1.2368481131	-1.5274624416	 0.8718392667	 0.119231
H	-2.140193445	-0.1993483854	 0.1462249609	 0.132773
H	-2.1572401041	-2.2308090605	-1.3734696699	 0.104977
H	-1.2629564815	-0.920809206	-2.1334965968	 0.108219
H	-0.1386209416	-3.3515324346	-0.6561688267	 0.073087
H	 1.1252114937	-3.7326287763	-2.7573350421	 0.107026
H	-0.0997891221	-2.7340010713	-3.5623877331	 0.106052
H	 2.597035491	-1.6860024036	-2.8491553326	 0.10539
H	 1.1584855531	-0.6506823816	-2.9657707757	 0.117032
H	 2.0272814337	-2.2121709593	-0.4828879707	 0.089803
