20
gdb 126917	4.87047	0.80279	0.699	3.4079	84.22	-0.1939	0.0465	0.2404	1651.7898	0.17166	-399.355612	-399.345894	-399.344949	-399.390663	35.135	
C	-0.0912369321	 1.587092193	-0.0107188072	-0.402318
C	-0.0399574638	 0.0664012977	 0.0855413608	-0.106959
N	-1.3736549635	-0.5040808117	-0.0755005938	-0.410906
C	-1.4866204383	-1.8870796374	-0.0245578643	 0.466017
C	-0.5426606657	-2.8981635972	-0.0123839103	-0.378577
C	-1.2975196807	-4.101295216	-0.0269345776	 0.357163
C	-0.7841179289	-5.5067807215	-0.0149253522	-0.491237
N	-2.6024723615	-3.8639282219	-0.0421894882	-0.293555
N	-2.697361944	-2.5036031254	-0.037828311	-0.293129
H	 0.9118728355	 2.0106614097	 0.088288379	 0.125098
H	-0.5098959274	 1.9028712024	-0.9705333294	 0.13171
H	-0.7097655296	 2.0136457832	 0.787808044	 0.115575
H	 0.590213673	-0.337907158	-0.7145014139	 0.122301
H	 0.4240731355	-0.2384575522	 1.0381876412	 0.099046
H	-2.0625143225	-0.0290483689	 0.4950469673	 0.229145
H	 0.5285511892	-2.7899080265	 0.0203951783	 0.089201
H	-0.1873904298	-5.7095327007	 0.8816637612	 0.122396
H	-1.621779388	-6.2071971047	-0.0363524591	 0.135893
H	-0.1433620124	-5.7062508543	-0.8812103352	 0.122947
H	-3.6017087351	-2.0751943592	-0.1303238597	 0.260189
