15
gdb 3085	3.60739	2.33779	1.98415	1.0958	63.3	-0.247	0.038	0.285	724.9841	0.122715	-308.469258	-308.46136	-308.460415	-308.500958	28.552	
C	-0.1180499792	 1.5556043189	-0.0881572795	-0.401306
C	 0.0051513226	 0.0526520121	-0.0228028328	-0.050648
C	 1.3308241348	-0.6247694227	-0.2284082034	 0.108857
O	 2.4683871046	 0.146713154	-0.4374466779	-0.421332
C	 0.6926809408	-0.6455229379	 1.1612796093	-0.262289
C	 1.3447955929	 0.1063949156	 2.1879292073	 0.30152
C	 1.9620350115	 0.7287676416	 3.0148931971	-0.449044
H	 0.8128293069	 2.0394709206	 0.2113071605	 0.133299
H	-0.344366237	 1.8715941396	-1.1117393398	 0.121033
H	-0.9197432343	 1.9160047444	 0.5640192565	 0.119194
H	-0.8556409649	-0.4962919175	-0.3957692863	 0.092579
H	 1.3501850664	-1.5697176206	-0.7674045057	 0.099773
H	 2.8985642395	 0.2889662122	 0.4158278869	 0.292224
H	 0.2603516899	-1.5874974319	 1.4846410386	 0.115143
H	 2.4647760655	 1.2828134515	 3.7685652693	 0.200997
