13
gdb 16261	3.39623	1.98587	1.42112	3.5828	67.24	-0.2412	-0.0265	0.2147	847.7916	0.094155	-361.395395	-361.388362	-361.387418	-361.426603	26.514	
O	-0.0715579489	 0.0119872085	-0.0256502454	-0.284298
C	-0.0465834039	 1.2000282272	 0.05912375	 0.375611
C	-1.1422503445	 2.2983090944	 0.1800022536	-0.339163
C	-0.0313789562	 3.3245873432	-0.0706531973	-0.116792
N	 0.8990888079	 3.1757227853	 1.0418162863	-0.357934
C	 1.0425743658	 2.2524590301	-0.156511592	 0.115841
C	 2.2430793452	 2.1756502365	-0.9034236505	 0.164558
C	 3.2578058266	 2.0772854808	-1.5427340553	-0.409786
H	-1.8606688119	 2.1975758852	-0.6382455365	 0.138279
H	-1.6628842863	 2.383354562	 1.1354774332	 0.140573
H	-0.085603236	 4.2246819531	-0.6684279619	 0.12618
H	 1.6469509092	 3.8625793376	 0.9334010313	 0.248757
H	 4.151268493	 1.9885407761	-2.1101818655	 0.198173
