19
gdb 72188	2.97231	1.98727	1.57175	1.274	77.12	-0.2261	0.0794	0.3054	900.6564	0.161789	-385.85508	-385.848532	-385.847588	-385.885385	28.685	
O	-0.1492264399	 1.3566321779	 0.0825110963	-0.489801
C	 0.0381148679	-0.0241374491	 0.0142532816	 0.428547
C	 1.1594485405	-0.7225801285	 0.8049324394	-0.300265
C	 1.1647676092	-1.8153193038	-0.3070410402	-0.054678
C	 0.1361212686	-2.9084313618	 0.0187615971	-0.224022
C	-1.1901704988	-2.2313531219	-0.2798843821	-0.054479
C	-1.0561440034	-1.2803278581	-1.4339232472	-0.083745
C	-1.330406092	-0.7370348054	-0.0328255636	-0.106326
C	 0.4119369657	-0.815453413	-1.2857769702	-0.128741
H	 0.7093411723	 1.7792826301	-0.0277977554	 0.274228
H	 2.0760628895	-0.120305174	 0.7797427082	 0.080762
H	 0.9683134445	-1.0387328814	 1.8355046149	 0.092695
H	 2.1384490652	-2.1983742703	-0.6128089117	 0.065234
H	 0.2575684027	-3.7807208855	-0.6351148165	 0.093132
H	 0.2281823342	-3.25571712	 1.0541355113	 0.095446
H	-2.1115850333	-2.797496569	-0.1860565775	 0.081885
H	-1.6739902521	-1.272947667	-2.3223103142	 0.08215
H	-2.2373441337	-0.3088487735	 0.3771397288	 0.086462
H	 0.9569985329	-0.3670512955	-2.1137388188	 0.061516
