15
gdb 79671	2.89627	1.50813	1.21972	2.6396	72.64	-0.2282	0.012	0.2402	1017.9819	0.11068	-420.503126	-420.495591	-420.494647	-420.534811	30.155	
O	 0.1139571133	 1.4253817939	-0.0467697427	-0.419746
C	-0.0422998181	 0.0589850805	 0.0485138711	 0.104651
C	-0.4211012789	-0.75096327	 1.2546108399	-0.22415
C	-1.6145487477	-0.1723772527	 2.0531112097	 0.029982
O	-2.0272017631	 1.0889958959	 1.4744564435	-0.269782
C	-2.469323662	-0.144076593	 0.8763501833	-0.045903
C	-1.3438863562	-0.7381876631	-0.0307639093	 0.039112
C	-1.5927570609	-1.7778094945	-0.9603732908	 0.207797
C	-1.8249825716	-2.6556801586	-1.7523111158	-0.403473
H	-0.5954460528	 1.8148820165	 0.482744107	 0.299675
H	 0.7299478655	-0.4371721984	-0.5347688826	 0.127045
H	 0.1640809789	-1.5883828431	 1.6134475402	 0.11345
H	-1.8338934204	-0.3297591125	 3.1009979843	 0.127435
H	-3.5334375191	-0.2882794261	 0.7396190326	 0.124337
H	-2.0215345169	-3.4266577147	-2.4551607102	 0.189571
