19
gdb 78372	4.07611	1.17664	1.08182	1.0959	82.53	-0.2175	0.0182	0.2358	1165.7627	0.160549	-385.838553	-385.831087	-385.830143	-385.870167	30.489	
O	 0.0865438261	 1.1993120869	 0.135673157	-0.432276
C	-0.0850236427	-0.1795749426	-0.000939026	 0.104907
C	-1.5140428041	-0.5700314355	-0.1591124899	-0.113712
C	-0.5431153051	-0.6769247027	-1.3728318539	-0.245071
C	-0.6186878652	-2.1693160885	-1.2489704964	 0.312814
C	 0.0054605798	-3.3433995037	-1.2666731215	-0.246094
C	-0.6341424931	-4.2460314898	-0.2061858733	-0.233846
C	-1.3611317439	-3.2377685916	 0.7512699294	-0.260173
C	-1.7231339225	-2.1050403044	-0.2231691443	-0.028231
H	 0.9523528606	 1.4277400503	-0.2184760666	 0.288997
H	 0.6076393309	-0.7927623852	 0.5780213966	 0.088852
H	-2.2873362275	 0.1694514021	 0.0088399555	 0.096
H	-0.4479256539	-0.0447898581	-2.2464891805	 0.096444
H	 0.8573017636	-3.645281168	-1.8647923422	 0.089984
H	-1.3503073729	-4.9554389421	-0.6467599279	 0.102968
H	 0.1123341909	-4.8510401029	 0.32006733	 0.100912
H	-2.2145052121	-3.6838644347	 1.2697376591	 0.091377
H	-0.6514767889	-2.8860147979	 1.5081035182	 0.101912
H	-2.6973669602	-2.2872166616	-0.6978832934	 0.084235
