19
gdb 5970	3.16647	1.2742	1.14965	4.705	72.6	-0.2721	0.0289	0.301	1154.1191	0.162156	-365.07532	-365.065413	-365.064469	-365.110757	34.929	
C	 0.0538680447	 1.5651866645	-0.123507307	-0.380404
C	-0.0099438971	 0.053559033	 0.0223115849	-0.052196
O	 0.6341344611	-0.504835253	-1.1159406688	-0.283347
C	 0.7032565996	-1.9254639596	-1.2088140063	 0.217413
C	 1.5313481363	-2.5501424668	-0.0681575587	-0.418762
C	-0.6903281506	-2.5764559045	-1.3145916295	-0.418689
C	 1.4212636808	-2.1611450676	-2.4835139699	 0.282745
N	 1.9772602516	-2.3888642857	-3.4696517995	-0.337746
H	 1.0928670197	 1.9019282757	-0.1725183258	 0.132488
H	-0.4528469056	 1.8836177865	-1.0384709679	 0.132488
H	-0.4303953226	 2.0476746098	 0.7306794366	 0.117147
H	 0.4909709607	-0.2593818692	 0.9494051858	 0.09585
H	-1.0563781776	-0.2776462128	 0.0828003571	 0.095828
H	 0.9971467176	-2.4705701537	 0.8818888046	 0.125875
H	 1.710917153	-3.6094929891	-0.2677243724	 0.139351
H	 2.4943438834	-2.0419854415	 0.019250582	 0.143386
H	-1.2755809323	-2.0870025274	-2.0963378942	 0.143388
H	-0.594599296	-3.636964101	-1.5604756018	 0.139322
H	-1.2243397566	-2.4962051878	-0.3644919592	 0.125863
