18
gdb 91966	2.50994	1.72084	1.42238	1.4775	70.72	-0.2456	0.0726	0.3182	980.2133	0.149193	-439.046414	-439.038974	-439.03803	-439.078053	29.991	
O	 0.1032997684	 1.4231145512	-0.1281759471	-0.43394
C	 0.0380159412	 0.0146598071	 0.0036107413	 0.023541
C	 0.6295006471	-0.4725986053	 1.3554470939	-0.275168
C	-0.5710596671	-0.5232917945	 2.2801256056	 0.038048
O	-1.4078385914	 0.6477368126	 2.1819615381	-0.28123
C	-1.7992021414	-0.5499121796	 1.4748139656	-0.013129
C	-1.4135445101	-0.4957957278	 0.0268434638	 0.316436
C	-2.3454708289	-0.2450180121	-1.0915507461	-0.289939
N	-1.8811985693	-1.6169675021	-0.8059966117	-0.373531
H	-0.4082293778	 1.7753154486	 0.6130968644	 0.287399
H	 0.5871874051	-0.390538691	-0.851995221	 0.078863
H	 1.0564131546	-1.4787086138	 1.2651747219	 0.110023
H	 1.416935474	 0.2045512452	 1.6965743212	 0.119964
H	-0.5071507539	-0.9590853057	 3.2732254885	 0.102926
H	-2.7290233857	-1.012603619	 1.7904497892	 0.107614
H	-3.4003414492	-0.0717822087	-0.8970921826	 0.121764
H	-1.9496384544	 0.277023756	-1.9582934743	 0.127132
H	-1.1560656512	-1.882468991	-1.4689619704	 0.23323
