19
gdb 31719	3.03832	1.09554	0.84158	2.5419	80.	-0.1871	0.0369	0.224	1397.9414	0.159635	-419.248177	-419.23875	-419.237806	-419.283683	33.639	
C	 0.0322949258	 1.5129176188	-0.0562425295	-0.364182
C	-0.0284742902	-0.0214613623	-0.033005787	-0.29179
C	-1.4297348521	-0.5449495906	 0.0174803756	 0.360492
N	-2.3542196767	-0.1955230065	 0.8985629188	-0.389883
C	-3.464809774	-0.9213401026	 0.5758328153	 0.370179
O	-4.6277021014	-0.8363083133	 1.2535641901	-0.27741
C	-4.6382813576	 0.0635331872	 2.3542083548	-0.229708
C	-3.2377128445	-1.7297935378	-0.5108512387	-0.239007
N	-1.9195424396	-1.4660852208	-0.8510896525	-0.286266
H	 1.069308662	 1.8608075243	-0.0305692664	 0.108838
H	-0.4420483878	 1.9119311782	-0.9580765398	 0.117964
H	-0.4953299569	 1.9222432261	 0.8083532131	 0.14489
H	 0.4775029989	-0.4351898401	-0.9137584824	 0.093004
H	 0.5244751195	-0.3896788594	 0.8407753992	 0.124206
H	-4.4279918598	 1.0893273646	 2.0334662578	 0.126192
H	-5.6425219503	 0.0035032189	 2.7777861656	 0.119929
H	-3.896467786	-0.2193268664	 3.10866267	 0.126179
H	-3.8552705414	-2.4272413657	-1.0471787876	 0.125971
H	-1.413376528	-1.8879905324	-1.6111688366	 0.2604
