17
gdb 2445	3.94208	3.31237	2.56577	1.6059	62.2	-0.2356	0.0773	0.313	620.0666	0.151884	-309.712115	-309.70644	-309.705496	-309.741317	22.916	
C	-0.0432589268	 1.5650989274	 0.1092287915	-0.233661
C	 1.4838159911	 1.4100857164	-0.0194942485	 0.105616
C	 2.1271720155	 1.1436424317	 1.3484856069	-0.220313
C	 1.6487417658	-0.2360199903	 1.8709296139	-0.179203
C	 0.236914783	-0.6224435074	 1.3583544174	-0.220313
C	 0.0070998313	 0.030375313	-0.0117842871	 0.105616
O	 1.2865985531	 0.1371698051	-0.7087551255	-0.299159
H	-0.4475596444	 2.0029449279	 1.0253350785	 0.091174
H	-0.488581967	 2.036827398	-0.7684454818	 0.104102
H	 2.0377344921	 2.1257959057	-0.6326751685	 0.072762
H	 3.2192487253	 1.1450514143	 1.2695240854	 0.099944
H	 1.859071748	 1.9567799786	 2.0340483872	 0.095871
H	 2.3492781326	-0.9878795679	 1.5006239148	 0.11736
H	 1.6933852777	-0.2776997545	 2.9629816921	 0.091629
H	 0.1609964644	-1.712303927	 1.285490747	 0.099944
H	-0.5523309813	-0.2962174809	 2.0466381115	 0.095871
H	-0.7479403567	-0.4768872863	-0.6181312449	 0.072762
