25
gdb 58472	2.3305	1.23017	1.09323	1.2579	89.45	-0.2498	0.0722	0.322	1321.8071	0.225609	-389.48832	-389.476911	-389.475967	-389.524004	42.954	
C	-0.3509263123	 1.4480574229	 0.0500648508	-0.423372
C	 0.0936833114	-0.0148073587	-0.0463793012	 0.081727
O	 0.9865550277	-0.2098594154	-1.1468010606	-0.447293
C	 0.8172375008	-0.5251115655	 1.1952616428	 0.344961
C	 2.0175516794	 0.3269875839	 1.5804256172	-0.475162
C	-0.0365738964	-1.1358679799	 2.2894489025	-0.392363
C	 0.8390491362	-2.0341635297	 1.4402043983	 0.29696
C	 0.1802760688	-2.9786028353	 0.4445892297	-0.447701
C	 2.0571497722	-2.6758229131	 2.0871640542	-0.452476
H	 0.5065782917	 2.122688233	 0.1147187082	 0.126826
H	-0.9330645538	 1.7262473365	-0.8367744275	 0.10137
H	-0.9883280817	 1.6062148777	 0.9258617833	 0.120951
H	-0.8116439734	-0.6189910686	-0.1979394725	 0.056438
H	 0.6023093026	 0.2161138932	-1.9197108937	 0.277596
H	 1.7053015124	 1.3313214567	 1.8860792608	 0.110382
H	 2.5788824323	-0.0960733095	 2.4140964466	 0.109322
H	 2.6978800589	 0.4306123153	 0.7298207858	 0.131198
H	 0.2559139172	-0.9542766819	 3.3195164814	 0.100613
H	-1.112201594	-1.1776741925	 2.1411373856	 0.098702
H	-0.7902716951	-2.6229753008	 0.0936471035	 0.110546
H	 0.8177331686	-3.1270998033	-0.4334589017	 0.125559
H	 0.013787307	-3.9563864262	 0.9113460008	 0.104407
H	 1.7845307858	-3.6507080984	 2.5081370631	 0.110532
H	 2.8533609417	-2.8462178271	 1.3528423341	 0.11754
H	 2.4738693222	-2.0810009033	 2.9019545185	 0.112737
