22
gdb 95504	2.16903	1.47589	0.92859	2.1617	84.02	-0.2399	0.017	0.2569	1313.9177	0.194724	-404.365639	-404.356337	-404.355392	-404.399963	35.184	
C	-0.1498759182	 1.5255530707	-0.0183668852	-0.405232
C	 0.0127767384	-0.0016620015	-0.0299054135	-0.00785
C	 0.8177905039	-0.4048456589	-1.2628915949	-0.057648
O	 0.8520990429	-1.8021359133	-1.5691234417	-0.235267
C	 1.4845703725	-2.6759342442	-0.7358960014	 0.104613
N	 1.4833702722	-2.7980630078	 0.5169651855	-0.247495
C	 0.6599928877	-2.0258493464	 1.4442955415	 0.047265
C	 1.0810071022	-2.4068017827	 2.8684846473	-0.387815
C	 0.6685533781	-0.4996396823	 1.2622633003	-0.184656
H	 0.8232741833	 2.0263739837	 0.0472333896	 0.118226
H	-0.6491404304	 1.8832085739	-0.9248886531	 0.115455
H	-0.7446324545	 1.8473997036	 0.8414469824	 0.119844
H	-0.9828825568	-0.4587567515	-0.1186464442	 0.080972
H	 0.3892152468	 0.0510929332	-2.159704127	 0.111628
H	 1.8511236168	-0.0419635069	-1.1603337597	 0.102091
H	 2.0355067493	-3.4044443694	-1.3341019541	 0.112515
H	-0.3784849787	-2.3646700881	 1.2965467985	 0.086525
H	 2.0999351926	-2.0603340248	 3.0719992762	 0.115558
H	 0.4104556568	-1.963626228	 3.6117281315	 0.101945
H	 1.0688093548	-3.4928929419	 2.9867425708	 0.120939
H	 1.7051306771	-0.1367405961	 1.3134379538	 0.094341
H	 0.1437204134	-0.0587327212	 2.1185224776	 0.094045
