19
gdb 93141	2.45908	1.62171	1.12083	1.3707	76.39	-0.2447	0.0216	0.2663	1108.8584	0.160545	-423.011199	-423.003144	-423.0022	-423.043858	31.453	
O	 0.061816455	 1.518345471	 0.1289396139	-0.428906
C	 0.1471326583	 0.0948843937	 0.084321443	 0.083794
C	 0.5816656454	-0.4583566229	 1.4471227124	-0.278217
C	 1.0022819093	-1.902850746	 1.4811081313	-0.069152
C	 0.4567630075	-2.9573646133	 0.8771446802	-0.040303
C	-0.7403648965	-3.0824749005	-0.0244561993	-0.298281
C	-1.5635953407	-1.8838614786	-0.4320780973	 0.06667
O	-2.0834164982	-0.994951154	 0.5631856871	-0.260029
C	-1.169608012	-0.4702932535	-0.4156936365	 0.010033
H	-0.6042773063	 1.7479066099	 0.7873919893	 0.283209
H	 0.9235822106	-0.1104272674	-0.6619636193	 0.098212
H	 1.4136957613	 0.1672309899	 1.7834763538	 0.107763
H	-0.243631722	-0.2983491059	 2.1547692964	 0.121244
H	 1.8719676387	-2.1024646757	 2.1035463737	 0.087571
H	 0.9323389614	-3.9207003725	 1.0571036874	 0.087875
H	-0.4183751334	-3.5691949273	-0.9582880052	 0.118045
H	-1.4315679085	-3.8087946333	 0.4306266082	 0.125665
H	-2.3099757939	-2.1513923461	-1.1845532036	 0.089715
H	-1.6394751562	 0.1849578527	-1.1517845955	 0.095091
