21
gdb 99687	1.72672	0.89118	0.61105	0.297	97.01	-0.2375	0.0479	0.2854	1906.7555	0.178636	-349.915044	-349.903052	-349.902108	-349.955667	39.866	
C	 0.0088595602	 1.5413280895	-0.0518991232	-0.39073
C	 0.0637214095	 0.0145886112	-0.0110013433	-0.159873
C	 0.7025095466	-0.5401762087	 1.2959040454	-0.3445
C	-0.0643786454	-0.1504468409	 2.4864411606	 0.122279
C	-0.7017870644	 0.1794065149	 3.4528679068	 0.033897
C	-1.4655003077	 0.5662319486	 4.6309107266	-0.497859
C	 0.8699283471	-1.9965760225	 1.2196954919	 0.0604
C	 1.0033689697	-3.1891320637	 1.1281488845	 0.099021
C	 1.1661174542	-4.6328564865	 1.0318162724	-0.49894
H	 1.0131146638	 1.9762229739	 0.0073442541	 0.112316
H	-0.449111358	 1.8873123097	-0.98335469	 0.111833
H	-0.5768079546	 1.9361660229	 0.7831397828	 0.130264
H	-0.9415434443	-0.4085116713	-0.1060585801	 0.111802
H	 0.6518891472	-0.3692036855	-0.8512571586	 0.104494
H	 1.7036152645	-0.0886263607	 1.3786749203	 0.122921
H	-1.4628674817	-0.2301421649	 5.383396526	 0.149012
H	-1.0494386597	 1.465255114	 5.0990455016	 0.146281
H	-2.510220354	 0.7781382778	 4.377807455	 0.146623
H	 2.2181624912	-4.9080175501	 0.8974973474	 0.146037
H	 0.806296032	-5.1335944375	 1.9375111158	 0.148503
H	 0.6063439938	-5.0419828001	 0.183404474	 0.146218
