16
gdb 50423	2.17278	1.7098	1.09632	5.1433	73.73	-0.2203	-0.0425	0.1778	1090.0064	0.123927	-437.924009	-437.915807	-437.914862	-437.957603	29.293	
O	-0.0406004721	-0.1370767865	 0.1696324618	-0.226228
C	-0.0070649282	 1.0613018973	 0.2168660565	 0.163466
C	 1.2548452275	 1.9083812274	 0.0551082116	-0.107274
C	 1.4654506952	 2.8480725572	 1.2871236235	-0.302527
C	 2.6697341002	 2.233549597	 1.9661634307	-0.155848
C	 3.1932659016	 1.2759229916	 1.2019335287	 0.021366
N	 2.4685376583	 1.0956526451	 0.0141739594	-0.038441
C	 2.7800488409	 0.1770558472	-0.9534915927	 0.154978
O	 3.7553273958	-0.5399163465	-0.9232555296	-0.327753
H	-0.9253998852	 1.6705187685	 0.3816663047	 0.090349
H	 1.1283397734	 2.4890761091	-0.867427586	 0.122069
H	 1.6516979459	 3.8826817143	 0.9758858161	 0.128012
H	 0.5742899673	 2.8714161139	 1.926176984	 0.12191
H	 3.0548206009	 2.5588276842	 2.9208833319	 0.114724
H	 4.0582532038	 0.6491117649	 1.3557907209	 0.160149
H	 2.0468101845	 0.1801859851	-1.7799375517	 0.081047
