16
gdb 50497	4.44693	0.99231	0.9292	2.0826	68.71	-0.2641	-0.0441	0.2199	1233.8604	0.123963	-437.908387	-437.900026	-437.899082	-437.942578	29.562	
O	-0.7119349987	 1.230082329	 1.0005385139	-0.23296
C	 0.2064682787	 0.9063734135	 0.2949396802	 0.140964
C	 1.364053143	 1.828083355	-0.0823701785	 0.027923
C	 1.7177964052	 2.8538529786	 1.0029770699	-0.259878
C	 2.8810672902	 2.1684061944	 1.7360052604	-0.243506
C	 3.5663656201	 1.4046699099	 0.5870630083	-0.025452
O	 2.519708381	 0.9936595692	-0.2830278109	-0.270025
C	 4.5350103799	 2.2567979546	-0.1375287215	 0.274789
N	 5.2894171835	 2.9301609659	-0.6964672075	-0.317729
H	 0.2876292754	-0.1093853663	-0.1487110407	 0.102143
H	 1.1057935328	 2.3072768281	-1.0371109878	 0.122537
H	 2.0444536284	 3.7944028366	 0.5533016617	 0.132115
H	 0.8557455076	 3.0497136774	 1.6424556011	 0.145284
H	 3.5519343178	 2.8625256474	 2.2434568916	 0.136949
H	 2.511396182	 1.4423514424	 2.4658466169	 0.128873
H	 4.0923322933	 0.5075573542	 0.927482893	 0.137973
