23
gdb 123165	7.20908	0.45434	0.44271	2.3706	84.76	-0.2506	0.0897	0.3403	2507.6565	0.203412	-425.400105	-425.389283	-425.388339	-425.437818	37.41	
C	-0.147894129	 1.49909484	 0.2200066488	-0.384083
C	-0.0524954988	-0.0070208337	 0.0426451801	-0.027484
O	-1.3586396243	-0.5430656843	 0.0317728282	-0.242743
C	-1.3890038643	-1.943709911	-0.123651209	-0.051858
C	-2.8397040796	-2.4055625805	-0.0997096109	-0.191848
C	-2.9790743648	-3.9228676878	-0.2743133409	-0.223899
C	-4.4193224798	-4.3721525631	-0.2364714594	 0.100464
C	-4.8338109094	-5.6488017083	 0.3563962198	-0.181759
O	-5.0402726461	-4.4179761918	 1.0521319944	-0.235614
H	 0.8504521402	 1.9465574937	 0.2340386396	 0.112883
H	-0.7180666447	 1.9461929234	-0.5992869306	 0.125733
H	-0.6517609054	 1.7425968922	 1.1596581875	 0.127033
H	 0.4690799568	-0.253581247	-0.8984968483	 0.082193
H	 0.5368749499	-0.4561479798	 0.8607031844	 0.083411
H	-0.9078069759	-2.2362380126	-1.0744309115	 0.079036
H	-0.8180196309	-2.4336943029	 0.6851165265	 0.082751
H	-3.2944917032	-2.1030954968	 0.8496228006	 0.124552
H	-3.386192146	-1.8825081525	-0.8939372592	 0.104443
H	-2.5377908512	-4.2340193427	-1.2313268093	 0.099688
H	-2.4278572621	-4.445070153	 0.5171016848	 0.103307
H	-5.059374725	-3.9466331721	-1.012811964	 0.089979
H	-5.7367622788	-6.1462494907	 0.0045104775	 0.113076
H	-4.0808045177	-6.3080739187	 0.787227391	 0.110739
