16
gdb 108159	3.43394	1.51981	1.27367	3.2745	69.57	-0.2232	-0.0537	0.1696	991.1794	0.121745	-437.726164	-437.718431	-437.717487	-437.758405	29.491	
C	-0.1922463355	 1.3569597465	 0.2306627922	-0.260161
O	 0.1743019752	 0.0041085121	-0.019916646	-0.283073
C	 0.84065534	-0.6030850647	 1.011335478	 0.384956
C	 2.2874653494	-0.1897821405	 1.4177647119	-0.235703
N	 2.5444348495	-1.0782671393	 2.5939610518	-0.221384
C	 1.6340543253	-1.9481025083	 2.4563836035	 0.269017
O	 0.5261671843	-2.0127434532	 3.3127337706	-0.262851
C	-0.1209370197	-1.4643179139	 2.07665726	-0.009249
C	 0.8117784159	-2.0778751627	 1.1344797997	-0.276525
H	 0.6873964777	 2.0038860986	 0.335733682	 0.125062
H	-0.7740923263	 1.6867443073	-0.6316636098	 0.137657
H	-0.803395242	 1.4378155278	 1.1385266476	 0.122398
H	 2.9704678128	-0.302601227	 0.5623622107	 0.118489
H	 2.378167239	 0.8324292677	 1.7970106904	 0.132188
H	-1.2010446492	-1.3857823347	 2.1061419267	 0.134297
H	 0.7474293837	-2.8883318057	 0.4197697407	 0.124883
