15
gdb 129545	3.31777	1.1206	1.03947	3.5522	72.59	-0.2429	-0.0066	0.2363	1176.4818	0.113784	-412.937362	-412.92908	-412.928136	-412.971056	30.294	
N	-0.1890682904	 1.3792224803	 0.1279397697	-0.506771
C	 0.0306112117	-0.0683438915	-0.0382502165	-0.267544
C	 0.7877881029	-0.424251988	-1.251438997	 0.336561
C	 1.3827025694	-0.6775722963	-2.2652733112	-0.4828
C	 0.706978768	-0.6013965859	 1.1972903694	 0.384452
C	 0.3571790648	-1.636587398	 2.0286626995	-0.188898
N	 1.3319542978	-1.6394194842	 2.9682535659	-0.152347
N	 2.2349692837	-0.6672156831	 2.7472352883	-0.107015
N	 1.8567174403	-0.0410354378	 1.6724060093	-0.251862
H	 0.7082938805	 1.8064529953	 0.3448244651	 0.251947
H	-0.4858881547	 1.7696524269	-0.7623467632	 0.233152
H	-0.9554320617	-0.5456886335	-0.108369215	 0.113453
H	 1.921416871	-0.9037838235	-3.1520673865	 0.198533
H	-0.4626480757	-2.334460523	 2.0308698384	 0.153439
H	 1.4455206126	-2.2460575178	 3.7646018539	 0.2857
