19
gdb 117805	2.58371	0.96554	0.84395	2.6399	71.86	-0.2591	0.0265	0.2856	1420.0937	0.157728	-456.336308	-456.325688	-456.324744	-456.372058	37.801	
N	-0.0490664408	 1.5172760971	 0.0003628978	-0.519421
C	 0.0185167959	 0.0507916511	-0.0028696269	 0.041356
C	 0.7589945958	-0.5019190224	-1.2560106231	-0.087344
O	 0.2008023313	-0.0032458868	-2.4530247595	-0.420651
C	 0.6987237911	-0.4599822421	 1.2801297011	-0.205887
C	 0.0161515231	-0.0275177171	 2.5742976494	-0.088992
O	 0.785512615	-0.5697888191	 3.6373471838	-0.421567
C	-1.3689929343	-0.4620301517	-0.0887386349	 0.30187
N	-2.4307131044	-0.8966549031	-0.2314993479	-0.351797
H	 0.8820940192	 1.8802940858	 0.1901792781	 0.233401
H	-0.2921819739	 1.8226724214	-0.9396693043	 0.246648
H	 1.7922837624	-0.1411036356	-1.2208829131	 0.114489
H	 0.7759555986	-1.6007938799	-1.2347770767	 0.10938
H	-0.652652423	-0.4326001417	-2.5865422776	 0.301529
H	 0.7499545228	-1.553329819	 1.2569904773	 0.125681
H	 1.7326251309	-0.0930341087	 1.2850964484	 0.111982
H	-0.0331594513	 1.0683762684	 2.624242199	 0.108824
H	-1.017207584	-0.4051781029	 2.5912715772	 0.110186
H	 0.3670693855	-0.3208170837	 4.4664309218	 0.290313
