11
gdb 133508	3.95553	0.65286	0.62394	3.3367	55.98	-0.3169	-0.0197	0.2972	1644.3325	0.060998	-545.884994	-545.876386	-545.875442	-545.92205	28.61	
F	 0.0265916353	 0.0353346039	-0.0069322427	-0.067679
C	-0.0111444832	 1.3735673777	 0.0007474624	 0.271706
F	 1.2486727731	 1.8184922406	-0.0557742743	-0.064391
F	-0.6365576342	 1.7712435367	-1.1124072241	-0.064486
C	-0.6941575549	 1.8704151287	 1.1969134357	-0.138808
C	-1.2537659108	 2.2766859575	 2.1760502385	 0.153104
C	-1.9382773167	 2.7520738322	 3.3751554005	-0.485178
C	-1.9899360908	 4.2165042064	 3.462870685	 0.285521
N	-2.0390899744	 5.3663994296	 3.5473324204	-0.285518
H	-2.9638647154	 2.3628318558	 3.4002118763	 0.197853
H	-1.4371685881	 2.3645693809	 4.2711089723	 0.197875
