23
gdb 90781	3.67555	1.28885	1.18868	0.1602	88.87	-0.2423	0.0931	0.3354	1177.8416	0.207422	-351.152628	-351.144327	-351.143382	-351.184846	33.923	
C	-0.0626077084	 1.5565669345	 0.0086701086	-0.40344
C	-0.0077632695	 0.0261863734	 0.0127143761	 0.042313
C	 0.7960837802	-0.5374107625	-1.198940237	-0.255785
C	 2.1593158983	-0.9013745666	-0.611227344	-0.076445
C	 2.2760407827	-0.4489084477	 0.8214042319	-0.129918
C	 0.7753356449	-0.5162093704	 1.2221060042	-0.028526
C	 0.8762167968	-2.0748669405	 1.1794850191	-0.30574
C	 2.243584775	-1.9381335757	 0.5016278346	 0.357707
C	 3.3382099464	-2.9646728403	 0.5621214188	-0.504483
H	 0.9474550104	 1.9830282241	 0.0060296938	 0.117513
H	-0.5838027992	 1.9329396376	-0.8780217861	 0.10876
H	-0.5840716071	 1.9395091418	 0.8928076307	 0.106986
H	-1.0312472486	-0.3678910353	 0.0175794183	 0.06232
H	 0.3004717753	-1.4044842358	-1.6492271586	 0.093879
H	 0.8978152232	 0.2134512788	-1.9898174814	 0.091757
H	 3.040446049	-0.8430070065	-1.242020283	 0.073317
H	 3.063228834	 0.1685532479	 1.2347889993	 0.075245
H	 0.4766201027	-0.0856047371	 2.1788483308	 0.05836
H	 0.9793490368	-2.5005094876	 2.1823106508	 0.092287
H	 0.0827507648	-2.6164533881	 0.6485552758	 0.080816
H	 3.0861760277	-3.8525296964	-0.0312540419	 0.116063
H	 4.2813772416	-2.5658129164	 0.1733243856	 0.114261
H	 3.5161557431	-3.2964430114	 1.5920848736	 0.112754
