19
gdb 70087	2.2026	1.86353	1.46298	1.2929	75.9	-0.2237	0.0084	0.2321	995.3692	0.158127	-423.019593	-423.010999	-423.010054	-423.05197	34.416	
C	-0.1215852958	 1.5690024639	-0.0754993145	-0.465845
C	 0.0377560648	 0.0490730981	-0.0807819027	 0.263333
O	-1.2639695178	-0.5728975078	-0.1499586895	-0.479076
C	 0.8822153821	-0.4879246852	-1.217150086	-0.112634
C	 1.854684706	-1.2967618071	-0.7878317347	-0.081487
C	 1.8743210608	-1.4162989659	 0.6960936442	-0.174018
C	 2.1682221888	-0.1166228143	 1.4527074798	-0.333654
C	 0.7564536901	-0.505743475	 1.1744785412	 0.406542
O	-0.0575016862	-0.7866384221	 2.2624706806	-0.479924
H	 0.8475002581	 2.072439124	-0.065274541	 0.131061
H	-0.6701523218	 1.901404208	-0.9631172358	 0.119863
H	-0.6713185572	 1.8850488475	 0.8197892832	 0.122744
H	-1.913406305	 0.069373643	 0.1547850227	 0.283592
H	 0.6802862978	-0.2202815804	-2.2476686812	 0.095088
H	 2.5788615638	-1.7898069817	-1.4275306696	 0.099927
H	 2.1047565755	-2.356867784	 1.1827016973	 0.093856
H	 2.4772131582	-0.2208921056	 2.4880382575	 0.121299
H	 2.6355097787	 0.7003042864	 0.9121512378	 0.110024
H	-0.8203247911	-1.2462069117	 1.8841061007	 0.279311
