17
gdb 121341	3.08543	0.9819	0.81123	3.7577	64.63	-0.2742	0.001	0.2752	1382.3485	0.135386	-496.127159	-496.118183	-496.117238	-496.162086	31.071	
O	-0.0879255143	 1.3906858608	 0.2588155113	-0.41954
C	 0.0262327054	-0.0068167621	 0.0522720999	-0.083004
C	-1.3846982143	-0.5822262652	 0.0401042491	-0.187482
C	-1.3893460759	-2.0988627899	-0.1631617898	-0.066646
O	-0.768050043	-2.8180246724	 0.8987046335	-0.257505
C	-1.7910834314	-3.3597423523	 1.6996399071	 0.026224
O	-2.9656492043	-3.4422067776	 0.8992193624	-0.217314
C	-2.8081025398	-2.6610835649	-0.2035910729	 0.431059
O	-3.6629669409	-2.477237967	-1.0159293821	-0.33314
H	 0.7977260492	 1.7611231233	 0.3134514625	 0.288988
H	 0.5236863793	-0.2335136778	-0.9057014244	 0.088153
H	 0.6112431652	-0.4892085552	 0.849069654	 0.104057
H	-1.8840134386	-0.326211194	 0.9817997377	 0.114816
H	-1.9650312111	-0.1249930086	-0.7683211917	 0.13749
H	-0.8730614146	-2.358800727	-1.0942446251	 0.122876
H	-1.505507772	-4.365500102	 2.0206330175	 0.134906
H	-2.0079072187	-2.7272200384	 2.5731216808	 0.116063
