21
gdb 95979	2.22105	1.53131	1.17815	2.7658	78.06	-0.2282	-0.0164	0.2117	1166.1482	0.181532	-424.255493	-424.245844	-424.244899	-424.290435	35.013	
C	-0.7469507943	 1.2897288539	-0.1360241698	-0.427506
C	-0.0014106733	-0.043839099	-0.1371412718	 0.017051
C	 1.3626096547	-0.024342196	-0.8516624317	-0.243548
C	 2.0910607926	-1.2397775758	-0.2569924123	-0.068126
O	 1.4006784718	-1.5914558492	 0.9511168352	-0.258588
C	 0.4025788588	-0.6338723615	 1.2398886171	-0.000978
C	 0.9451819174	 0.4442239387	 2.1977739559	 0.388384
C	 0.0173017391	 0.9088979187	 3.3024858678	-0.488527
O	 2.0641987161	 0.8840651981	 2.0625081486	-0.312257
H	-0.1485427574	 2.0858990284	 0.3190980972	 0.130816
H	-0.9769056017	 1.597568954	-1.1608017662	 0.122482
H	-1.6974389318	 1.223249338	 0.4045450096	 0.115273
H	-0.6353518455	-0.8022581591	-0.61270975	 0.084115
H	 1.2608736694	-0.0852938878	-1.9382939512	 0.099985
H	 1.8976085096	 0.8976284626	-0.6089723429	 0.125096
H	 2.0585031422	-2.1105732242	-0.92373835	 0.096209
H	 3.1379276409	-1.018821558	-0.0260163284	 0.113518
H	-0.4341385676	-1.1565529444	 1.7184365442	 0.079014
H	-0.1365960477	 0.0895463175	 4.0153544369	 0.147773
H	 0.4487493268	 1.7653500478	 3.8220313471	 0.142261
H	-0.9694823901	 1.1675614273	 2.9028677147	 0.137552
