18
gdb 56656	2.2757	1.33947	1.03882	4.1508	72.23	-0.2758	0.0074	0.2832	1213.7097	0.144366	-439.077859	-439.067822	-439.066878	-439.112855	35.882	
C	 0.0137164087	 1.4790594741	-0.2713126095	-0.430041
C	 0.1358100308	-0.0034271193	-0.0334335549	 0.019291
O	 1.4607286599	-0.561764446	 0.0193113223	-0.282648
C	 0.6620016506	-0.6265168087	 1.1998582708	 0.33635
C	 1.1442704272	 0.1543017687	 2.4005158661	-0.468465
C	 0.2164278033	-2.0513941646	 1.5715171611	-0.081896
O	-0.8520798955	-2.0523193148	 2.5021586716	-0.400201
C	-0.1115519843	-2.8704253073	 0.3873034218	 0.279123
N	-0.4306126107	-3.5169303048	-0.5154282585	-0.329814
H	 0.7380057028	 2.0517858024	 0.3098626635	 0.132834
H	 0.1837419846	 1.6965903547	-1.3305294368	 0.141269
H	-0.9944758468	 1.8240760082	-0.0179055916	 0.126126
H	-0.5505945635	-0.607144185	-0.6300669611	 0.11011
H	 1.3818232722	 1.1864057405	 2.1434726637	 0.131627
H	 0.3849585318	 0.1453065545	 3.1865469646	 0.1407
H	 2.0516390388	-0.3099761001	 2.8025273193	 0.133694
H	 1.0498319107	-2.5408308344	 2.0896718795	 0.145251
H	-1.6307304704	-1.6893544779	 2.0634602882	 0.296691
