14
gdb 45871	2.11963	1.7886	1.2997	1.7066	67.99	-0.244	-0.0472	0.1968	993.4166	0.099894	-436.662998	-436.655	-436.654056	-436.696234	28.902	
O	 0.0526601106	-0.0024566707	 0.1822782352	-0.292827
C	-0.0199219522	 1.1848419775	 0.0046998034	 0.359878
C	-1.3135827346	 1.9586160764	-0.158930116	-0.26208
N	-1.2167705956	 3.2063448056	-0.903156606	-0.260142
C	-0.0874529031	 3.5995704665	-1.3027872124	 0.138813
O	 1.1425280178	 3.0521668743	-1.1069863947	-0.222867
C	 1.2464617178	 2.0663135889	-0.0589371782	-0.159389
C	 1.463817307	 2.6987755918	 1.2374239687	 0.335064
C	 1.604581871	 3.2046400927	 2.3180556073	-0.453764
H	-2.0482032464	 1.3038651653	-0.6390955658	 0.153143
H	-1.709184341	 2.1710174116	 0.8446632748	 0.157989
H	 0.0065988342	 4.4931266906	-1.9161613149	 0.138802
H	 2.0919370925	 1.4287747047	-0.3278469716	 0.150361
H	 1.745198572	 3.6536564248	 3.2709055301	 0.217019
