27
gdb 100103	2.93566	0.84471	0.7935	1.2101	92.54	-0.2558	0.0621	0.3179	1674.0665	0.248673	-390.710189	-390.698163	-390.697218	-390.747012	45.087	
C	 0.5035108468	 1.278879852	-0.0550291259	-0.393721
C	 0.1241490672	-0.184368666	 0.1901047131	-0.186523
C	-1.3537461488	-0.5415792245	-0.1101063965	 0.335746
C	-2.3114996808	 0.2501039911	 0.7839688718	-0.403101
O	-1.6762902423	-0.1337057757	-1.4497924537	-0.452916
C	-1.521890047	-2.0708381646	 0.0666066047	-0.202574
C	-2.9238696287	-2.6971579828	-0.0785031729	 0.029758
C	-3.4765038009	-2.6286848652	-1.5101913107	-0.390677
C	-2.8883914838	-4.1539100355	 0.4096497606	-0.387377
H	 1.5864840904	 1.4141397668	 0.0249178427	 0.106819
H	 0.1894196304	 1.5949572827	-1.05332189	 0.125581
H	 0.0365671148	 1.9504433007	 0.6715119657	 0.116317
H	 0.7545611058	-0.8280269818	-0.4401617611	 0.080584
H	 0.3536068782	-0.4636622258	 1.2258615847	 0.093327
H	-2.1603039542	 1.3235343224	 0.6510487858	 0.122842
H	-3.3505421949	 0.030880592	 0.5290626335	 0.125385
H	-2.1521935302	 0.0040065906	 1.8382370658	 0.108765
H	-1.1305758348	-0.6512669059	-2.052184541	 0.273609
H	-0.8431518869	-2.5674952557	-0.6450576315	 0.075184
H	-1.1350751765	-2.3249666581	 1.0624137416	 0.090075
H	-3.6138322639	-2.1516834749	 0.5783161379	 0.074344
H	-2.8248359643	-3.1801534787	-2.2007794996	 0.097047
H	-4.469740888	-3.0876381827	-1.5641377391	 0.101978
H	-3.5445167459	-1.5998270815	-1.8657683513	 0.136624
H	-3.8782908678	-4.6167994126	 0.3388198155	 0.108023
H	-2.1992330992	-4.7543927288	-0.1968405125	 0.108707
H	-2.5586551448	-4.2224771874	 1.4519511226	 0.106172
