16
gdb 29528	3.20316	1.55248	1.06207	2.8328	70.96	-0.1754	0.0499	0.2254	1078.482	0.126666	-437.892658	-437.885009	-437.884064	-437.924892	29.028	
N	-0.0343828108	 1.4592580527	 0.0160398441	-0.604478
C	 0.0188047162	 0.0599304478	-0.0157708854	 0.055466
C	-1.0300253459	-0.8211736189	-0.0387902907	-0.118636
O	-0.5665513838	-2.1469365213	 0.0400420557	-0.209471
C	 0.7502629025	-2.0172342493	 0.0933068929	 0.452945
C	 1.205670849	-0.7492057114	 0.0598517727	 0.089759
C	 2.697442928	-0.7986622291	 0.2355194919	-0.384887
C	 2.9244378115	-2.3536145333	 0.1497190278	-0.087347
O	 1.623370507	-3.0269639608	 0.225379513	-0.280421
H	 0.6991537553	 1.8891941047	-0.5328378223	 0.244077
H	-0.9303476668	 1.8267999599	-0.2775138351	 0.243271
H	-2.0973178928	-0.7119696203	-0.1064880621	 0.119661
H	 3.2763461799	-0.2901829208	-0.5434409239	 0.109978
H	 3.0322471889	-0.3957259299	 1.1997311255	 0.118798
H	 3.3750744699	-2.6362394779	-0.8060593342	 0.124106
H	 3.535532462	-2.7475161919	 0.9633115903	 0.127178
