21
gdb 70149	2.38367	1.75451	1.27358	1.3758	83.21	-0.2404	0.0034	0.2438	1073.2538	0.183885	-387.076372	-387.068103	-387.067159	-387.10858	33.087	
C	-0.126820483	 1.4939006421	-0.008046805	-0.469824
C	-0.0304817705	-0.0166639978	 0.0276345824	 0.320481
C	-0.7961807786	-0.7965557944	 1.0719495481	-0.355287
C	 0.7113506348	-0.684893588	 1.1705761375	-0.092078
C	 1.6092185545	-1.8411187637	 0.8884760125	-0.069265
C	 2.4204257493	-1.8691144041	-0.1708146027	-0.089087
C	 2.5124341377	-0.7125792511	-1.1454748667	-0.107207
O	 1.3596534353	-0.4931054605	-1.9631247459	-0.263335
C	 0.1057295838	-0.6919855857	-1.3292611907	-0.120604
H	 0.7316212708	 1.9243585411	-0.5354772123	 0.129053
H	-1.0329988246	 1.820030931	-0.5322127034	 0.115448
H	-0.1523691233	 1.9188134645	 1.0004438584	 0.110189
H	-1.3883864281	-0.2438673859	 1.7937645954	 0.109344
H	-1.2235092155	-1.7518561853	 0.7830723827	 0.112456
H	 1.0591823747	-0.0223606711	 1.9628821958	 0.092807
H	 1.5889175802	-2.6780100933	 1.5848953402	 0.090232
H	 3.0471159585	-2.7375929972	-0.3542547106	 0.091357
H	 2.7387222194	 0.2066463955	-0.5840928049	 0.098783
H	 3.3327450522	-0.8706727809	-1.8510379849	 0.105467
H	-0.0994164933	-1.765473699	-1.2244353644	 0.088841
H	-0.6313770047	-0.2836968863	-2.0299600915	 0.10223
