20
gdb 52789	3.02653	0.89658	0.77988	1.4768	86.24	-0.2119	0.0373	0.2492	1566.548	0.167966	-403.094238	-403.083762	-403.082817	-403.131039	37.008	
C	 0.0819834065	 1.5172891416	-0.0527818209	-0.498921
C	 0.0450797482	 0.0621818755	-0.0577943674	 0.002305
C	-0.0030804458	-1.1417443114	-0.057232686	 0.096817
C	 0.0009490986	-2.5970681154	-0.0810983738	 0.202233
O	 0.7555669765	-3.1029539785	-1.1659995903	-0.460617
C	 0.2635473716	-3.260398354	 1.3138481995	-0.217284
N	-1.1889726563	-3.4526126477	 1.462086816	-0.060328
C	-1.6652324157	-4.669602385	 2.0775935839	-0.319775
C	-1.3973833699	-3.2692421711	 0.0156229852	-0.204806
H	 0.9757720117	 1.8939855642	 0.4566076206	 0.148989
H	 0.084445564	 1.9187610508	-1.0720764633	 0.150559
H	-0.7921228294	 1.9293401161	 0.4632220722	 0.154764
H	 1.4816684538	-2.4917464869	-1.327776355	 0.281883
H	 0.8256739227	-4.1969126047	 1.166945583	 0.089111
H	 0.7364786478	-2.658065908	 2.0957376435	 0.101815
H	-1.3656364673	-4.6950062176	 3.1308462885	 0.119796
H	-2.7595368388	-4.7011295164	 2.0406390773	 0.12022
H	-1.2792790008	-5.585314213	 1.5891479211	 0.090171
H	-2.2733938939	-2.6760409022	-0.2619576173	 0.107474
H	-1.3835203833	-4.2084090965	-0.5604195067	 0.095596
