16
gdb 44329	3.1755	1.86483	1.51094	2.7377	72.04	-0.2252	-0.0346	0.1906	879.6043	0.126869	-400.754013	-400.747693	-400.746749	-400.784642	25.955	
O	 0.0172727411	 0.0620136557	 0.2344146932	-0.301541
C	-0.0125327622	 1.2424143953	 0.0344273501	 0.419952
C	-1.266345558	 2.1338943546	-0.0985952428	-0.367956
C	-0.7485512705	 3.3949428515	-0.7491951223	-0.031715
C	 0.2031464414	 4.3329696505	-0.0618062709	-0.073981
C	 0.7110285466	 4.002389305	 1.2948423242	-0.077242
C	 1.3374707681	 2.8237697201	 1.2741147541	-0.09124
C	 1.1963597856	 2.2013769395	-0.103753078	-0.174649
N	 0.721411365	 3.294151068	-0.9930348954	-0.11884
H	-2.014736642	 1.6335296597	-0.7178219507	 0.139107
H	-1.7029882317	 2.2718831797	 0.8951937377	 0.143511
H	-1.3088460012	 3.7855382463	-1.594147256	 0.101154
H	 0.247389799	 5.3611546009	-0.4128764362	 0.096967
H	 0.5931805065	 4.6533671929	 2.1517156624	 0.112003
H	 1.7693695699	 2.2967866303	 2.1157919264	 0.120171
H	 2.0824580724	 1.69673182	-0.4916803059	 0.104298
