16
gdb 23101	2.05493	1.71396	1.0954	4.7109	71.52	-0.2538	-0.0204	0.2334	1101.0893	0.125359	-434.031596	-434.023263	-434.022319	-434.064916	30.705	
O	-0.1536923739	 1.3342072205	-0.1518168072	-0.387142
N	 0.0388001435	-0.049796309	-0.0468754124	-0.201471
C	-1.0694082995	-0.6576088854	 0.0628335907	 0.392207
C	-1.207495967	-2.1584421608	 0.1693480519	-0.30563
C	-2.7093657869	-2.3277192752	 0.4987315777	-0.185206
N	-3.4032047204	-1.1685395942	-0.0938676444	-0.284876
C	-2.4767179102	-0.0366605296	 0.0537657491	-0.251772
C	-2.7379967545	 0.6871563754	 1.3113570949	 0.337053
N	-2.9430815711	 1.2366110546	 2.3065515725	-0.330047
H	 0.7477906047	 1.671662325	-0.1913832998	 0.315244
H	-0.9672882279	-2.6267851198	-0.7926759567	 0.127521
H	-0.5367533238	-2.5841480265	 0.9192689825	 0.138625
H	-3.1372534512	-3.2568268427	 0.1186737581	 0.118581
H	-2.865331845	-2.306722149	 1.5828808724	 0.137461
H	-3.5480408753	-1.3295216625	-1.0853275422	 0.232196
H	-2.5803150216	 0.6776594093	-0.7680807071	 0.147255
