18
gdb 61063	2.47099	1.40008	1.12918	2.0118	71.67	-0.2441	-0.0291	0.215	1136.5966	0.147232	-439.107822	-439.098936	-439.097992	-439.142423	31.373	
C	-0.1192532116	 1.5810956359	 0.0326040269	-0.419281
C	 0.016663754	 0.0557086151	-0.0160433025	-0.077588
C	 0.7448226964	-0.3903918103	-1.2754982317	 0.164452
O	 0.5646382538	-1.4512845122	-1.8205004558	-0.257829
C	 0.7539941838	-0.4855175497	 1.2362393218	 0.00032
C	 0.8124002698	-2.034185271	 1.3421908738	-0.135017
O	 2.2264016158	-2.3219617175	 1.5057960174	-0.2195
C	 2.8471436813	-1.1286915665	 1.4094049408	 0.130805
N	 2.1722045757	-0.065225056	 1.2605462366	-0.280923
H	 0.8657528371	 2.0519234369	 0.0935627684	 0.150491
H	-0.6342079413	 1.9628598524	-0.854549387	 0.120353
H	-0.6934096038	 1.8889943428	 0.9115589094	 0.122184
H	-0.9717794731	-0.4187038557	-0.0401272485	 0.099906
H	 1.4887984774	 0.335675112	-1.6713121208	 0.091084
H	 0.2535031357	-0.0502750563	 2.1101055833	 0.094098
H	 0.2843027268	-2.4306164794	 2.2118593254	 0.121596
H	 0.4670161292	-2.5381812928	 0.4367521362	 0.148884
H	 3.9287437929	-1.1804432277	 1.4728259761	 0.145965
