20
gdb 40684	3.46448	1.02373	0.92233	1.6147	80.43	-0.2437	0.0724	0.3161	1342.9485	0.17108	-403.085069	-403.076575	-403.075631	-403.118995	32.081	
C	-0.0076516795	 1.531135659	 0.064978333	-0.184274
O	 1.1816299526	 0.7432169899	-0.009339222	-0.242709
C	-0.0798094908	 0.0650476793	 0.0321543869	 0.11368
C	-0.352921961	-0.7405223101	 1.2570218331	-0.137759
N	-1.5573666676	-1.5991994414	 1.1954887114	-0.398748
C	-0.2424380374	-2.2204673726	 1.2744154936	 0.373167
C	 0.3729358903	-3.1476121477	 0.2190164014	-0.289852
C	 1.2596548073	-3.7493065951	 1.3501941316	-0.205467
C	 0.3494107916	-3.0613385529	 2.4120975825	-0.307788
H	-0.1631520434	 2.0547310772	 1.0079425272	 0.110232
H	-0.2482074023	 2.1056223231	-0.8285508178	 0.115392
H	-0.3728887099	-0.4140990193	-0.9017432941	 0.099018
H	-0.1320933482	-0.2256204469	 2.1914967031	 0.083915
H	-2.0233475829	-1.62346853	 2.0995665065	 0.230838
H	-0.3608075991	-3.860069883	-0.169251838	 0.108168
H	 0.8888130522	-2.678811946	-0.6220502903	 0.110538
H	 1.3259139716	-4.8376289548	 1.3958104604	 0.101503
H	 2.2705031178	-3.335982727	 1.346113807	 0.113284
H	 0.8397341267	-2.5276265113	 3.2307253862	 0.103397
H	-0.3869391282	-3.7536190904	 2.8349081483	 0.103465
