20
gdb 110946	1.95684	1.79328	1.15358	3.3016	73.64	-0.231	0.0414	0.2724	1115.4154	0.172068	-440.214704	-440.205989	-440.205045	-440.248049	33.333	
O	 0.0974436306	 0.2012234955	-1.5917635604	-0.429765
C	-0.5239958886	 0.1496930559	-0.3236486225	-0.101255
C	-1.6493431758	-0.8702148389	-0.3030847553	-0.00369
C	-1.5008545325	-2.3391399559	-0.3503361963	-0.072932
C	-0.3441747234	-2.9047485759	 0.4819522394	-0.04476
C	 1.1050701709	-2.6840745218	 0.0101357192	-0.110269
O	 1.2199248089	-2.479387516	-1.4001596546	-0.40076
C	-0.9402551259	-2.0942670637	 1.6673757341	-0.187883
N	-2.1336178801	-1.6485138918	 0.8595671712	-0.161462
H	 0.4928161914	-0.6709619474	-1.7465330088	 0.2946
H	 0.2034545014	-0.0316086383	 0.4789554049	 0.078348
H	-0.9444029718	 1.1447928934	-0.1417824398	 0.109481
H	-2.5091915355	-0.5309250383	-0.8785952385	 0.103431
H	-2.104142352	-2.9414880207	-1.0241819555	 0.092755
H	-0.5121560669	-3.9721939617	 0.650803011	 0.087904
H	 1.5297194727	-1.781594746	 0.4571055678	 0.12642
H	 1.7405198004	-3.5246594091	 0.3209155952	 0.103351
H	 0.8219311597	-3.2298478335	-1.8534622179	 0.292769
H	-1.2850019648	-2.7175581099	 2.4941028427	 0.115114
H	-0.3284942889	-1.2838317157	 2.0747266143	 0.108602
