18
gdb 28672	3.27406	1.07568	0.83446	1.3862	85.71	-0.1908	0.042	0.2329	1373.5873	0.147133	-364.82521	-364.816082	-364.815138	-364.859766	33.727	
C	 0.3846175169	 1.3612925032	 0.2252950992	-0.503981
C	 0.0579105388	-0.0725264342	-0.0327335897	 0.300516
C	-0.5833569235	-0.6822719329	-1.0882662572	-0.220161
C	-0.6048118445	-2.0844978822	-0.8381784068	-0.237613
C	 0.020594866	-2.2966390425	 0.3681534203	 0.313668
C	 0.2368879108	-3.5590100349	 1.1589140482	-0.4669
C	 1.4507607479	-3.5331580271	 1.9733088356	 0.289654
C	 2.4353303919	-3.4704692229	 2.6605581161	-0.448691
N	 0.4093700259	-1.0693426631	 0.8486638858	-0.333919
H	 1.4655934633	 1.5341056002	 0.3043168739	 0.125088
H	 0.0124837127	 1.9790831183	-0.5952290086	 0.136102
H	-0.0723010687	 1.7316509917	 1.1517761863	 0.124674
H	-0.9888378772	-0.1733877865	-1.9500431891	 0.086476
H	-1.0350215095	-2.8497209763	-1.466901603	 0.086881
H	-0.6195247951	-3.7563309729	 1.821626524	 0.143855
H	 0.2754834289	-4.4060952601	 0.4642832724	 0.148548
H	 3.3134130844	-3.4435937613	 3.2571237112	 0.199242
H	 0.9554666711	-0.9473454167	 1.6857325013	 0.256559
