18
gdb 13239	7.85745	0.86219	0.81702	4.3861	73.76	-0.2307	0.0379	0.2686	1372.6394	0.154568	-343.975082	-343.966873	-343.965928	-344.008522	29.156	
N	-0.1387684507	-1.1699605917	 0.187417164	-0.30586
C	-0.0991731672	-0.0160729493	 0.138785459	 0.257662
C	-0.0233692916	 1.4404595478	 0.0769532166	-0.339938
C	 1.4224073244	 1.9481845961	-0.0906453408	-0.14328
N	 1.4410153658	 3.3906226902	-0.1391982405	-0.067014
C	 1.0109037575	 4.0785551137	-1.3778763695	-0.164627
C	 2.1332434329	 5.1185738422	-1.1483389945	-0.227063
C	 2.7519260675	 4.0726583098	-0.1901964026	-0.161958
H	-0.6408133686	 1.7865623273	-0.7599528657	 0.153474
H	-0.453772013	 1.8675280321	 0.9885123648	 0.160107
H	 2.0192360429	 1.6208668422	 0.7676228975	 0.124422
H	 1.8680368968	 1.4847404329	-0.9917368791	 0.095465
H	 1.1841092673	 3.4752586471	-2.285125282	 0.088465
H	-0.0263023888	 4.4288989619	-1.3800442904	 0.10503
H	 2.7246188457	 5.4126268751	-2.0151549519	 0.110117
H	 1.7802091502	 6.0097801059	-0.6271048377	 0.117961
H	 3.1304502578	 4.4110624305	 0.7796961863	 0.106887
H	 3.5315577711	 3.4711750061	-0.6853735832	 0.09015
