17
gdb 40738	4.20787	1.17357	1.10751	2.3355	67.26	-0.2498	0.0853	0.3352	1122.6707	0.135658	-458.90487	-458.897338	-458.896394	-458.937674	28.438	
C	-0.4979689142	 0.8603578203	-0.4541975358	-0.165766
O	 0.4958664851	 1.3499119937	 0.4558168702	-0.236708
C	 0.3942164196	-0.0547905823	 0.2613748986	 0.048631
C	-0.0583923048	-0.856644459	 1.4588436524	 0.187178
O	-1.3167590718	-0.4215980327	 1.9458863318	-0.26514
C	-1.9517637078	-1.5686210393	 2.4642281225	 0.062973
C	-2.6457810383	-2.4533135186	 1.4518865935	-0.324821
C	-1.2283686315	-2.7428693741	 1.8932759611	 0.062568
O	-0.2138988179	-2.2164588149	 1.068195007	-0.275153
H	-1.5240095456	 0.9680795175	-0.1154751298	 0.13384
H	-0.3103659502	 1.0720070996	-1.5055363097	 0.115068
H	 1.2291568592	-0.5153611438	-0.2673878702	 0.106141
H	 0.6904730446	-0.7849587498	 2.2677118313	 0.082323
H	-2.2901204028	-1.4823111911	 3.4904684605	 0.111241
H	-3.4303018427	-3.1106632475	 1.8134346124	 0.118335
H	-2.7813154029	-2.0560107233	 0.4528944955	 0.129753
H	-0.9591149579	-3.6376990148	 2.4429333686	 0.109539
