20
gdb 108920	3.32368	1.10474	0.93488	2.1261	81.77	-0.2107	0.0209	0.2316	1312.6104	0.17035	-403.127782	-403.118769	-403.117825	-403.161445	34.085	
C	 0.0370393866	 1.5371293281	 0.086671489	-0.476513
C	-0.027494332	 0.0324895443	-0.0120549255	 0.315091
C	-0.859878621	-0.7899906551	 0.9161359839	-0.276225
N	 0.6036013374	-0.7886720668	 1.0555919659	-0.14238
C	 1.2791944699	-1.9176067024	 0.3829511078	-0.264672
C	 0.9997359056	-1.7527565322	-1.1001696971	 0.287018
C	 1.4772846669	-2.7390922252	-2.1130824678	-0.178234
O	 1.0830320756	-2.3247137449	-3.4084145349	-0.412478
C	 0.2856356234	-0.645966923	-1.3072814555	-0.235468
H	 1.0089709123	 1.9114085971	-0.2520472662	 0.120966
H	-0.7380665959	 1.9992837566	-0.5351135792	 0.11618
H	-0.1132062133	 1.8625061662	 1.1191749274	 0.125681
H	-1.3847138601	-0.3194691017	 1.744744615	 0.107442
H	-1.3456766917	-1.6734344108	 0.5063960277	 0.104325
H	 2.3561899667	-1.8762581847	 0.600302664	 0.108363
H	 0.9157927207	-2.8742504268	 0.782539221	 0.107864
H	 2.575980912	-2.8329580718	-2.0375400107	 0.096191
H	 1.0703866087	-3.7371282327	-1.868789573	 0.095756
H	 1.4234095223	-2.9616126899	-4.0428807642	 0.290033
H	-0.036772584	-0.2779124145	-2.2720601177	 0.11106
