15
gdb 27957	3.81473	1.15035	0.88429	6.7266	79.48	-0.2395	-0.0607	0.1788	1229.652	0.114329	-416.877607	-416.869949	-416.869004	-416.909823	28.997	
N	-0.038265814	 1.394117358	 0.1525497457	-0.588559
C	 0.004236891	 0.0204373336	 0.0567617537	 0.359414
C	-1.1679730747	-0.7517630732	 0.0439322531	-0.243361
C	-1.0731607006	-2.138246018	-0.0021186921	 0.232333
C	-2.3450731982	-2.9252841636	-0.0169772503	 0.112144
O	-2.424312643	-4.124728243	-0.0599816822	-0.24604
N	 0.0859620038	-2.8134565212	-0.0365361406	-0.32059
C	 1.1919823832	-2.0733120579	-0.0233070002	 0.006263
C	 1.2151491755	-0.6823432196	 0.0209447332	-0.192783
H	 0.7885055754	 1.8986279945	-0.1259673493	 0.258158
H	-0.8978733743	 1.8461660075	-0.116417014	 0.257961
H	-2.1435508431	-0.2743113304	 0.0716821734	 0.096205
H	-3.2585187053	-2.2854908352	 0.0163155208	 0.062447
H	 2.1330457333	-2.6187161479	-0.0525060563	 0.112266
H	 2.1621772109	-0.1520292336	 0.029179935	 0.094142
