15
gdb 1288	6.33957	1.33199	1.1392	4.0322	54.97	-0.2398	0.0615	0.3013	993.3409	0.125275	-379.006904	-378.998708	-378.997764	-379.04013	28.576	
N	-0.0516659917	 1.3352046399	-0.1571899357	-0.564146
C	 0.0307278631	-0.0329957954	 0.0903106232	 0.453465
O	 1.0323643043	-0.5572096519	 0.5431821525	-0.396499
N	-1.1085762888	-0.7270039858	-0.24001535	-0.338978
C	-1.117989427	-2.1768117776	-0.2466875877	-0.12293
C	-2.5193563578	-2.6925237735	 0.0307481242	-0.085929
O	-3.3654220557	-2.1775474032	-0.9935261706	-0.426706
H	 0.6805008387	 1.8490595236	 0.3094184104	 0.257818
H	-0.961057159	 1.7668490396	-0.0832563177	 0.244299
H	-1.7937051135	-0.2911279351	-0.8372542384	 0.246731
H	-0.7741613579	-2.577728028	-1.2114936531	 0.110641
H	-0.4193503401	-2.5179565487	 0.5196461209	 0.141541
H	-2.5115715516	-3.7928719206	 0.0278948018	 0.093185
H	-2.8483364933	-2.3516278071	 1.0234563426	 0.095786
H	-4.2751195698	-2.4038460362	-0.7811510824	 0.291721
