21
gdb 57894	2.37769	1.12685	1.07346	1.7665	79.28	-0.243	-0.0247	0.2183	1311.4289	0.179145	-424.233145	-424.222674	-424.22173	-424.26908	37.445	
C	 0.317595185	 1.2299568687	 0.3694873526	-0.403847
C	-0.1475240789	-0.1875071167	-0.0368327055	-0.058794
C	-1.6717477762	-0.3124326979	-0.0403477213	-0.394038
C	 0.4382311502	-0.491995341	-1.4097423956	 0.338744
O	-0.195416114	-0.3960910733	-2.4375975234	-0.318992
C	 1.9043910608	-0.8526908041	-1.5024510084	-0.04682
O	 2.6648686327	-1.0160534205	-0.3027620053	-0.25036
C	 2.4411730244	-2.1742511875	-1.1086900043	 0.094704
C	 1.6248851138	-3.3055730082	-0.5392666142	-0.430139
H	 1.4081770375	 1.2999532579	 0.3993529891	 0.13922
H	-0.0624719056	 1.9782254284	-0.333753858	 0.127663
H	-0.0640826684	 1.4744330223	 1.3652132376	 0.121981
H	 0.2958030706	-0.8825172548	 0.6837327215	 0.096657
H	-2.1105823667	 0.3569017523	-0.7846776576	 0.135124
H	-1.9894531146	-1.3297883319	-0.2878103137	 0.116131
H	-2.0774709928	-0.0566094622	 0.9430351981	 0.108344
H	 2.414012317	-0.3326714569	-2.3142165648	 0.116502
H	 3.3323217181	-2.4945322407	-1.6522516526	 0.102092
H	 0.714567979	-2.9569971591	-0.0488322384	 0.135026
H	 1.342482592	-3.9976099724	-1.3393896803	 0.13547
H	 2.2170263961	-3.8637438124	 0.1932558644	 0.135332
