19
gdb 72043	2.40304	1.65205	1.27668	0.8354	88.73	-0.2188	0.0384	0.2572	1076.3539	0.158885	-348.684028	-348.675859	-348.674915	-348.716305	32.597	
C	-0.1571807978	 1.4309128367	-0.0338295702	-0.500945
C	 0.0256583876	-0.0559191291	-0.0190299991	 0.280051
C	 0.9639233175	-0.8900190009	-0.8937514179	-0.282577
C	 0.133683528	-2.1246437486	-0.4593560331	-0.12334
C	 0.4171073961	-2.2494618925	 1.0607128302	-0.237801
C	-0.3057876048	-0.9128782323	 1.2045003523	-0.162812
C	-1.0615541382	-1.1305627303	-0.1078087975	 0.301714
C	-2.4275941628	-1.0744834603	-0.441529928	-0.001406
C	-3.594444927	-1.0318458768	-0.7419644567	-0.380657
H	 0.7152193385	 1.9408118692	 0.3916817646	 0.121292
H	-0.2984994667	 1.8024082768	-1.0545329205	 0.123901
H	-1.0346212447	 1.7256019403	 0.5509340621	 0.127442
H	 0.8226772189	-0.6523870769	-1.9521785602	 0.102445
H	 2.0348860806	-0.8975942252	-0.6565197659	 0.087096
H	 0.0542971859	-3.0037119868	-1.0942132564	 0.081313
H	-0.1552376866	-3.0606809475	 1.5182698806	 0.106813
H	 1.4667980198	-2.315578757	 1.3698276863	 0.089888
H	-0.7092824339	-0.4615187819	 2.1022775916	 0.095016
H	-4.6225673304	-0.9942745667	-1.0023630122	 0.172566
