23
gdb 60137	3.86182	0.90895	0.85836	1.3886	86.61	-0.2594	0.0714	0.3309	1474.9352	0.205933	-388.239571	-388.230429	-388.229484	-388.274003	35.469	
C	 0.0828743867	 1.5670277378	-0.1603318045	-0.40235
C	 0.0019313568	 0.0458882796	-0.0229539474	 0.14396
O	 0.6308169601	-0.3934296376	 1.1810499295	-0.425692
C	-1.4390736547	-0.4758097597	-0.1330984881	-0.269185
C	-1.5228747505	-1.996653232	-0.1585725694	 0.087897
C	-1.3637924386	-2.8756382754	 1.1262893134	-0.038373
C	-2.804464746	-2.453789309	 1.5435498457	-0.224049
C	-2.8792272044	-2.7552365044	 0.0173174717	-0.068029
C	-2.0314820739	-4.0254773253	 0.3172149383	-0.220543
H	 1.1177054604	 1.9028719513	-0.0516936165	 0.122806
H	-0.2916503552	 1.8998111495	-1.1338519729	 0.114509
H	-0.5195367177	 2.0598629467	 0.6135903142	 0.104652
H	 0.6029851312	-0.4136905022	-0.8183256623	 0.086958
H	 0.1535471195	 0.0033866508	 1.9184330127	 0.274644
H	-2.0277215804	-0.0441144914	 0.686443486	 0.083742
H	-1.8803582119	-0.0834551014	-1.0596452509	 0.094126
H	-0.9309523981	-2.370803499	-1.0043745428	 0.056061
H	-0.4817257912	-2.9410380789	 1.7618221102	 0.077289
H	-3.338493836	-3.1491635124	 2.1974251233	 0.086436
H	-2.9647456458	-1.4244304534	 1.8689753118	 0.082937
H	-3.7590514571	-2.6878624535	-0.6262400707	 0.06185
H	-1.4557088474	-4.4413236858	-0.5147109788	 0.085443
H	-2.5220882059	-4.8108401442	 0.8985557775	 0.08491
