18
gdb 118603	1.78482	1.05121	0.69024	4.4572	75.04	-0.2985	-0.0198	0.2787	1607.2062	0.144982	-439.120926	-439.110718	-439.109773	-439.157856	34.464	
C	 0.0078308026	 1.5515824951	 0.0113483906	-0.387314
C	-0.0125368443	 0.0209995791	-0.0026447731	-0.188103
C	-1.4371272893	-0.5395606392	 0.0561248307	-0.181147
C	-1.4729856051	-2.0719356877	 0.0426782787	-0.066377
O	-0.8321179642	-2.5525851594	 1.2322108935	-0.180849
C	-0.1642720325	-3.7319075774	 1.1573920559	 0.180806
O	 0.3862500456	-4.2079003087	 2.0988121612	-0.253271
C	-2.8537599169	-2.5824305974	-0.0175910784	 0.292062
N	-3.9381487757	-2.9747228564	-0.0817104528	-0.302983
H	 1.032987243	 1.9300007045	-0.0323913769	 0.123586
H	-0.5385980693	 1.9656470756	-0.8429374404	 0.120089
H	-0.4537970101	 1.9446040099	 0.9233926953	 0.125494
H	 0.4841671527	-0.3462181625	-0.9107914833	 0.099317
H	 0.5610332182	-0.3665769803	 0.8456279812	 0.128003
H	-1.9501048561	-0.1949680371	 0.9605581951	 0.136444
H	-2.0246735842	-0.1850497834	-0.798525013	 0.126189
H	-0.9367705712	-2.4474432021	-0.8399701926	 0.133734
H	-0.1844258432	-4.1755604426	 0.1437767483	 0.094322
