16
gdb 90218	3.06198	1.85645	1.63259	2.6662	68.51	-0.2216	0.0428	0.2643	860.5743	0.124099	-437.693503	-437.686832	-437.685888	-437.724236	27.617	
O	 0.1763245713	 1.2422612229	-0.3210885199	-0.419222
C	 0.061470619	-0.1141460515	-0.0070585971	 0.047291
C	 0.1764749125	-0.4543747195	 1.5364278522	-0.341373
C	-1.3698703118	-0.4436656683	 1.6128099974	 0.153799
N	-2.1690445555	 0.8277263054	 1.5088224809	-0.390464
C	-2.80935033	-0.055171963	 0.4796607069	-0.121891
C	-2.5148992697	-1.4300192647	 1.2378488303	 0.030928
O	-1.7858983086	-2.0284062121	 0.1306225965	-0.339458
C	-1.4242541014	-0.6115794961	 0.0722187593	 0.311937
H	-0.4694455901	 1.7098965741	 0.2301170103	 0.295487
H	 0.7120761705	-0.6746892036	-0.6822710833	 0.108852
H	 0.5856150875	-1.4510003722	 1.712406227	 0.13402
H	 0.7023995415	 0.2798580689	 2.1495725638	 0.122331
H	-2.7678789154	 0.968774721	 2.3243160479	 0.221602
H	-3.6802336862	 0.2450169341	-0.1114916727	 0.093153
H	-3.1693266737	-2.0821858454	 1.8268579406	 0.093009
