16
gdb 32041	2.9087	1.40235	0.95197	3.557	80.29	-0.1928	-0.0379	0.1549	1181.9782	0.125944	-434.086651	-434.078667	-434.077723	-434.119504	29.845	
C	 0.0009945087	 1.4316338595	 0.0087568433	-0.275152
O	-0.018949914	 0.0094547467	 0.0051576696	-0.247873
C	-1.1929796919	-0.6430623481	 0.0120472519	 0.489027
C	-1.2267873719	-2.012465683	 0.0085783349	-0.170747
N	-2.4169484207	-2.6773953311	 0.0155695757	-0.215868
C	-3.5335943883	-2.0160890672	 0.0256150483	-0.083302
C	-3.6298521597	-0.5615930406	 0.0302762939	 0.329775
N	-4.654548141	 0.2117301244	 0.0399706051	-0.569024
N	-2.3632020708	 0.0489075427	 0.0225674883	-0.408027
H	 1.0543049685	 1.7113606962	 0.0016895941	 0.159255
H	-0.4831833605	 1.8451172419	-0.8844646341	 0.14238
H	-0.4698782038	 1.8403870354	 0.9112204489	 0.142378
H	-0.3087173187	-2.583026859	 0.0002420392	 0.116609
H	-4.4666218224	-2.5757073487	 0.0310000345	 0.109175
H	-5.5095515571	-0.341372715	 0.0448001165	 0.215845
H	-2.3871054264	 1.0580597359	 0.0255248101	 0.265549
