20
gdb 101306	2.56668	1.21649	1.01452	2.6221	77.04	-0.256	-0.0051	0.2509	1268.1358	0.169948	-440.284139	-440.274607	-440.273663	-440.318495	34.955	
C	 0.433180585	 1.4023151392	 0.1409489163	-0.384965
C	 0.2522336805	-0.1117642735	 0.0090144912	-0.208256
C	 0.8562867525	-0.6722256111	-1.2872885965	 0.107883
O	 2.2469698594	-0.4230598721	-1.39565997	-0.443621
C	 0.5420260303	-2.157797787	-1.459989937	-0.017417
C	 1.3372776907	-3.0185282661	-2.4059046964	-0.270439
N	 1.4332502504	-3.1833366753	-0.9683485318	-0.051033
C	 2.5569547427	-3.0781307392	-0.1939516953	 0.147166
O	 2.6912163426	-2.3511872984	 0.7713061746	-0.327437
H	 1.4911942167	 1.6744743997	 0.0986504454	 0.128889
H	-0.0776190659	 1.9348319731	-0.6692915205	 0.111598
H	 0.0252944888	 1.7642403351	 1.089162988	 0.113349
H	 0.717794109	-0.6310043561	 0.8547384462	 0.129991
H	-0.8155664963	-0.3640890588	 0.0334135544	 0.09201
H	 0.397750219	-0.1538286508	-2.1417366559	 0.092839
H	 2.6424698038	-0.6795334384	-0.5503980087	 0.301611
H	-0.5125226883	-2.4050245032	-1.3427024609	 0.10684
H	 0.8492477834	-3.8188255799	-2.9552768673	 0.126645
H	 2.1795748187	-2.5386421561	-2.8963930223	 0.147606
H	 3.3323768868	-3.8029996809	-0.5044555835	 0.096744
