21
gdb 92453	2.37157	1.75426	1.46068	1.3203	77.15	-0.2392	0.0888	0.328	1032.7048	0.183949	-424.23636	-424.228248	-424.227304	-424.268493	32.324	
C	-0.1355559621	 1.5799345983	-0.0129408394	-0.407467
C	 0.0149265553	 0.068178203	 0.0154659225	 0.13509
O	 0.7992760196	-0.3956818897	-1.118255621	-0.304549
C	 1.8901838257	-1.1503395864	-0.5682772938	 0.066843
C	 2.8197686688	-0.1653549198	 0.1466031979	-0.091659
O	 2.0465740033	 0.2124241022	 1.3093306482	-0.28254
C	 0.8111002046	-0.5087154391	 1.2012602872	 0.054615
C	 1.2574970033	-1.874388412	 0.637818821	 0.011135
C	 0.1887853861	-2.9123236182	 0.3132446192	-0.433174
H	 0.8250059357	 2.0708456457	 0.1548132219	 0.133938
H	-0.5356469905	 1.8973036944	-0.97982497	 0.122235
H	-0.8314784001	 1.9056018351	 0.7679973791	 0.109845
H	-0.9794110578	-0.3979568132	-0.0382359932	 0.071412
H	 2.3422886595	-1.7493466464	-1.3591767345	 0.079188
H	 3.7692714147	-0.6159465612	 0.4635280197	 0.097538
H	 3.0240778899	 0.714434813	-0.472487139	 0.106178
H	 0.3051643254	-0.487683698	 2.1668886899	 0.077635
H	 2.0209771258	-2.3005933989	 1.2957490409	 0.080927
H	-0.4814916307	-2.5695382829	-0.4782363169	 0.139156
H	 0.6532919026	-3.8431710198	-0.0276714215	 0.117793
H	-0.4130775291	-3.1513436861	 1.1966165519	 0.115862
