18
gdb 38783	2.89363	2.05827	1.70257	1.3987	73.29	-0.2096	0.0763	0.2859	861.8504	0.150797	-401.878583	-401.872326	-401.871381	-401.908789	26.771	
C	 0.0589521041	 1.4964085668	-0.2813043215	-0.248327
C	 1.2998758749	 0.6981893841	-0.0548223961	-0.006364
C	 2.1682214234	 0.8767234756	 1.1851295173	-0.253049
C	 1.4082734825	 0.616060948	 2.4792250759	 0.100498
O	 0.2814130842	 1.5338349909	 2.6480749678	-0.301239
C	-0.627094346	 0.4354520575	 2.6032771498	 0.065506
C	 0.4692088512	-0.5978930865	 2.4828386367	-0.179461
C	-0.4845262106	-0.3772127376	 1.3342973394	-0.00487
N	-0.0221952285	 0.0684905798	 0.0441696274	-0.115724
H	-0.2155308047	 2.2129069236	 0.4841432115	 0.139478
H	-0.2453360758	 1.7484852034	-1.2947665694	 0.103924
H	 1.8547254312	 0.3753405436	-0.9344042664	 0.086819
H	 3.0090001617	 0.1725191038	 1.1445451592	 0.107153
H	 2.6020525147	 1.8832183707	 1.2105980694	 0.117402
H	 2.063564186	 0.674824412	 3.353091918	 0.086817
H	-1.5249529216	 0.4964075209	 3.2074732535	 0.105613
H	 0.6442416914	-1.5429780429	 2.9782062699	 0.098093
H	-1.2490269382	-1.1481140935	 1.2544957376	 0.09773
