16
gdb 31423	3.02418	1.29606	0.91251	3.3704	76.11	-0.2118	-0.0215	0.1902	1218.6479	0.126244	-437.9545	-437.946753	-437.945809	-437.98682	29.494	
C	 0.102033647	 1.3864034785	 0.0065084021	-0.247884
O	 0.0027047578	-0.030096205	 0.0034921459	-0.259
C	-1.2287120069	-0.5815645284	 0.0109209185	 0.458745
C	-2.4069650608	 0.1186808327	 0.0214286865	-0.436404
C	-3.68781238	-0.5507573385	 0.0288776421	 0.432512
O	-4.7900432413	-0.0255989407	 0.0384174169	-0.407359
N	-3.5861822496	-1.9604356957	 0.0242867926	-0.366623
C	-2.4176950296	-2.6550704865	 0.0138751155	 0.05002
C	-1.2239640069	-2.0129982752	 0.0069420433	-0.255948
H	 1.1687712855	 1.6130037655	-0.0007673247	 0.139375
H	-0.3715248635	 1.8197637631	-0.8821395201	 0.136098
H	-0.358328692	 1.815034584	 0.9043383768	 0.136095
H	-2.4468966121	 1.1981252426	 0.0247257193	 0.11018
H	-4.4742132327	-2.4410919767	 0.0294499161	 0.259885
H	-2.5022372002	-3.7350687047	 0.011527871	 0.136338
H	-0.2867056946	-2.549899115	-0.0013611216	 0.113969
