18
gdb 42407	3.32136	0.99533	0.85708	2.4556	73.12	-0.2451	0.0129	0.258	1376.0079	0.147186	-439.074031	-439.06519	-439.064246	-439.108933	31.931	
O	 0.1587416912	 1.0599365805	 1.5094678878	-0.375786
C	 0.0527136955	 1.3795730697	 0.3409024927	 0.37563
N	 1.0811713257	 1.4468739804	-0.5504884522	-0.33587
C	 2.4085217809	 1.030123176	-0.2127163099	 0.067331
C	 3.5571903374	 1.7083893484	-0.9071970219	-0.296647
C	 3.2975584509	 1.9695833709	 0.556131853	-0.24098
C	-1.2862566128	 1.7743727852	-0.2403475326	-0.019038
C	-1.4912243054	 3.1135271878	-0.8184297913	-0.168068
O	-1.3644484407	 1.9655878465	-1.6578741292	-0.237966
H	 0.8211652638	 1.5445662354	-1.5217729837	 0.261065
H	 2.5091819382	-0.0289917441	 0.0109117217	 0.107437
H	 4.4088381954	 1.1006611579	-1.1899436484	 0.121056
H	 3.3189280065	 2.5014737586	-1.6079386141	 0.11525
H	 2.8786509596	 2.9304003092	 0.8295340812	 0.121831
H	 3.967274197	 1.5399144835	 1.2916241216	 0.122503
H	-2.130133986	 1.2637717231	 0.2173873905	 0.124257
H	-2.4822935056	 3.5618635943	-0.7880608786	 0.131643
H	-0.6559798514	 3.8103042766	-0.8504535165	 0.126351
