20
gdb 104135	3.51235	1.05831	1.01829	4.3313	75.48	-0.2402	0.0352	0.2754	1261.8655	0.170457	-440.325945	-440.316649	-440.315705	-440.359902	34.817	
C	-0.2473002701	 1.5923451217	-0.202405329	-0.253588
O	-0.218353204	 0.1862568838	-0.0750465672	-0.285943
C	 0.6398039313	-0.5183920921	-0.9610767576	 0.400644
C	 0.2799182958	-0.287464771	-2.4336444623	-0.441808
C	 2.1485559011	-0.2018677841	-0.6975483935	-0.221095
N	 2.7857422653	-1.4888169242	-0.8930772202	-0.304047
C	 1.9509906726	-2.5714782351	-0.7825479638	 0.406038
O	 2.287686905	-3.7334750891	-0.8170279198	-0.380064
C	 0.540549756	-2.0108006017	-0.6007530391	-0.386417
H	 0.7509417886	 2.0441808702	-0.1050624681	 0.107084
H	-0.6863376997	 1.9222433537	-1.1534558035	 0.112933
H	-0.8723223981	 1.9640606552	 0.6130367256	 0.13279
H	 0.4412629248	 0.7501169406	-2.7394444898	 0.116286
H	 0.9023240149	-0.9205186046	-3.0731391647	 0.13308
H	-0.7688322731	-0.5442176299	-2.6093125654	 0.128086
H	 2.5497327685	 0.5481303906	-1.3870164846	 0.108038
H	 2.2686479792	 0.1712485073	 0.3292461644	 0.111643
H	 3.7851840474	-1.6199043355	-0.8984492407	 0.25013
H	 0.2552253454	-2.1122347853	 0.4513669691	 0.139489
H	-0.1816156308	-2.5662954805	-1.2014769998	 0.126721
