19
gdb 37040	3.01033	1.74628	1.35623	1.9048	79.48	-0.2404	0.0267	0.267	995.3823	0.160968	-385.874061	-385.866874	-385.86593	-385.905284	29.598	
C	-0.0439542898	 1.5666904004	-0.0352034723	-0.301787
C	 1.531103835	 1.6099389328	-0.0500765458	-0.30179
C	 1.5214450819	 0.0895606072	 0.1815948989	 0.356246
C	 2.3769146142	-0.8423624404	 0.9829499542	-0.379775
C	 1.5226819653	-1.9077005924	 1.6388287991	-0.043087
C	 0.1889379946	-1.9443821785	 1.651191114	-0.043086
C	-0.7345542278	-0.9279212231	 1.0118155056	-0.379758
C	 0.0534177764	 0.0492012774	 0.1952285812	 0.356226
O	 0.7925157518	-0.4870431468	-0.9130526243	-0.323076
H	-0.4658753881	 2.1085875587	 0.8151481707	 0.103499
H	-0.5575321379	 1.869241296	-0.9508960678	 0.107614
H	 2.0099681378	 1.939659256	-0.975161517	 0.107629
H	 1.9386152333	 2.1746638773	 0.7924060893	 0.103483
H	 3.152445208	-1.3100268826	 0.3608465515	 0.11852
H	 2.9164882339	-0.2739387333	 1.7537858776	 0.113423
H	 2.0699788923	-2.7019990116	 2.140664054	 0.086887
H	-0.304490011	-2.7672944342	 2.1626851278	 0.086886
H	-1.4946407705	-1.4377863342	 0.4039670475	 0.11852
H	-1.2901351294	-0.3896174887	 1.7928345355	 0.113424
