19
gdb 35628	3.1549	1.36066	1.06124	0.5669	86.15	-0.2275	0.0182	0.2457	1152.328	0.160472	-348.722784	-348.714835	-348.713891	-348.75502	31.927	
C	 0.0637588474	-1.2245531402	 0.0927399102	-0.459994
C	 0.0353861591	-0.0232115303	 0.0514676056	 0.323533
C	 0.0017509216	 1.4372615069	 0.0192721167	-0.190117
C	-0.8893339877	 1.9989766296	 1.1616312728	-0.271421
C	-0.7611576436	 3.492676507	 1.3070830606	-0.100824
C	 0.3551110098	 4.150466481	 0.9868975441	-0.034369
C	 1.5640309241	 3.4699194363	 0.464423031	-0.096721
C	 2.1745070567	 2.3239621203	 1.2666251569	-0.283819
C	 1.4090322306	 2.0336121524	 0.0108835252	-0.012477
H	 0.0887812462	-2.2855695985	 0.1207116207	 0.191183
H	-0.4668907428	 1.7438781597	-0.9267936008	 0.107609
H	-1.9283879824	 1.716174517	 0.9642525343	 0.113925
H	-0.6230964389	 1.4960964769	 2.1004770476	 0.123609
H	-1.6150059341	 4.0300311935	 1.7094950862	 0.087362
H	 0.4086485192	 5.2280633537	 1.115572456	 0.087423
H	 2.2595759857	 4.093612939	-0.0875593511	 0.084522
H	 3.252030707	 2.2030730851	 1.2426955729	 0.112711
H	 1.7212697382	 2.10046265	 2.225771529	 0.122311
H	 1.998699684	 1.7314984407	-0.8489982979	 0.095551
