18
gdb 87693	2.52132	1.37347	1.09169	2.7472	74.65	-0.2381	-0.0274	0.2107	1161.2537	0.146167	-439.062514	-439.053676	-439.052732	-439.09624	33.1	
C	-0.4734974722	 1.3983300499	-0.0865576261	-0.383019
C	 0.0920354253	-0.0120313874	-0.0555898504	-0.074279
N	 1.3837552162	-0.1996420471	-0.8168129928	-0.401832
C	 2.0790180375	-0.6161501167	 0.4153657079	 0.17382
C	 3.3122141169	-1.4766287518	 0.5195171158	-0.386763
C	 3.4475020349	 0.0100171933	 0.6788285506	 0.101698
O	 3.9395745128	 0.7716782122	-0.3648203311	-0.425842
C	 0.8394322754	-0.4493246315	 1.2298081532	 0.307862
O	 0.541799788	-0.5709255645	 2.3830916757	-0.31522
H	 0.2945107449	 2.1292928133	 0.1820156036	 0.129819
H	-0.8476375472	 1.6459916762	-1.0843535936	 0.125621
H	-1.2996185732	 1.4844128092	 0.6259906965	 0.135988
H	-0.67233906	-0.7463512831	-0.3385595815	 0.106268
H	 1.3124107889	-0.9521571782	-1.4950281101	 0.232033
H	 3.3899182824	-2.1042700997	 1.4016905942	 0.138375
H	 3.683963019	-1.9116811498	-0.4029981727	 0.127976
H	 3.6407434451	 0.4121346315	 1.6701728137	 0.116671
H	 3.1803942654	 0.9229882642	-0.9570387528	 0.290825
