18
gdb 85549	2.6179	1.61889	1.25441	2.9308	71.4	-0.2297	-0.0166	0.2131	1029.1482	0.148196	-439.073986	-439.066101	-439.065156	-439.106417	30.868	
O	-0.2988137177	 1.4928017201	 0.6572640295	-0.432786
C	-0.0607427363	 0.2007886958	 0.106844083	 0.070094
C	 0.8249942235	-0.637663703	 1.0412469816	-0.346282
C	 0.1588130407	-0.8305500204	 2.4019177403	 0.404053
O	 0.7968706019	-1.0300013495	 3.4072106589	-0.310632
C	-1.3644885596	-0.7103231405	 2.4345836966	-0.257254
N	-2.0225342295	-1.0597841963	 1.1708693597	-0.1071
C	-2.6686987983	 0.0215005015	 0.4208159584	-0.250359
C	-1.3792119609	-0.538153607	-0.0473188244	-0.001973
H	 0.5531409432	 1.8946995715	 0.8576670094	 0.289062
H	 0.4124850052	 0.2907635073	-0.881548694	 0.077336
H	 0.9860186303	-1.6294330284	 0.5979907783	 0.136966
H	 1.8150494122	-0.1967397097	 1.1977598288	 0.117632
H	-1.7371392797	-1.3605306567	 3.2308410179	 0.132718
H	-1.5647721417	 0.3282625513	 2.7381041227	 0.133006
H	-3.5924300541	-0.2494791061	-0.0830440978	 0.115093
H	-2.6451450665	 1.0204580364	 0.8469281413	 0.135616
H	-1.3783115628	-1.2476582463	-0.8727378804	 0.094809
