19
gdb 75461	2.22493	1.57946	1.26593	2.635	78.2	-0.2287	-0.0325	0.1962	1096.7916	0.156415	-423.050546	-423.041052	-423.040108	-423.084783	34.423	
C	-0.5359856545	 1.2572660844	-0.056816022	-0.499955
C	-0.1287278279	-0.1803152821	-0.0700884427	 0.286038
C	 0.1322673827	-0.9733008157	-1.1067874798	-0.212269
C	 0.5270026176	-2.3442000448	-0.6456676277	-0.135515
O	 0.4747521713	-2.2789218901	 0.7806020917	-0.310557
C	 0.0518234836	-0.9856877521	 1.2133165178	 0.208386
C	 1.0595190663	-0.3893830996	 2.199216794	-0.42654
C	-1.3283709468	-1.13819069	 1.8696746223	 0.125315
O	-1.8416838756	-0.3125283582	 2.5794551021	-0.255634
H	 0.2385569097	 1.8815372719	 0.4045778817	 0.136473
H	-0.7108354951	 1.6276432645	-1.0698062979	 0.126759
H	-1.4463822288	 1.4045443639	 0.534237936	 0.152526
H	 0.0980306634	-0.6871805009	-2.1511307838	 0.10625
H	-0.1536855004	-3.1290546638	-1.0094013516	 0.109188
H	 1.5422206274	-2.624274345	-0.966841122	 0.109688
H	 1.9972886447	-0.1546139358	 1.6891829527	 0.118604
H	 0.650811162	 0.5167098088	 2.6523072287	 0.13926
H	 1.2659063209	-1.1100456105	 2.995132177	 0.131563
H	-1.8336844105	-2.0913788651	 1.5965338336	 0.090421
