20
gdb 11748	4.95825	1.28912	1.21825	1.7526	75.2	-0.2432	0.0854	0.3285	1101.1008	0.175858	-348.981782	-348.973272	-348.972328	-349.014632	31.988	
C	 0.0402688781	 1.5098248965	-0.2661236325	-0.378258
C	 0.0425905688	 0.0210540499	 0.1090081396	-0.299766
C	-1.3397342401	-0.5317280516	 0.2666854808	 0.445301
C	-2.3700521435	-0.2606452441	 1.3804071146	-0.317118
C	-2.9776173819	-1.6892100002	 1.1094614358	 0.012612
C	-4.4406441948	-1.7893822958	 0.7033920569	-0.402816
C	-1.9237670541	-1.8573986529	-0.0011729195	-0.066403
O	-2.1070190348	-0.7761407485	-0.9281209903	-0.294494
H	 1.0608799341	 1.8857977498	-0.3824249529	 0.112861
H	-0.4922212769	 1.6677259007	-1.2085385368	 0.134721
H	-0.4529395824	 2.1124151203	 0.5037860023	 0.118621
H	 0.5612766951	-0.5583601403	-0.6629738433	 0.109235
H	 0.5933094701	-0.127386507	 1.0465861591	 0.100082
H	-1.9280116604	-0.1700015183	 2.3759875749	 0.100435
H	-3.0324411109	 0.5892003419	 1.1960450911	 0.104214
H	-2.7568574481	-2.3557630545	 1.9497500789	 0.073047
H	-4.6312365	-1.1636515199	-0.1730259684	 0.132963
H	-4.7142721482	-2.8206513592	 0.4537064391	 0.111081
H	-5.0993591062	-1.45661657	 1.5126372392	 0.111861
H	-1.4776721941	-2.7663664068	-0.3922532586	 0.091819
