13
gdb 132109	3.14489	1.46141	0.99803	4.4302	69.13	-0.2083	-0.051	0.1573	1066.6868	0.089061	-494.053424	-494.045726	-494.044782	-494.085817	28.725	
N	 0.0746929601	 1.3378657982	 0.1129078466	-0.571118
C	-0.0160722107	-0.0066482626	 0.0419605418	 0.381675
C	-1.18259048	-0.7232841375	 0.0209534701	 0.07706
F	-2.3635729052	-0.0722772754	 0.0302465462	-0.092717
C	-1.0910202156	-2.1222364997	-0.0157111934	-0.062005
N	 0.039628258	-2.7775335102	-0.0295372252	-0.334864
C	 1.2168104446	-2.0672404244	-0.0099314746	 0.426291
N	 2.4029520534	-2.506786778	-0.0189430303	-0.53228
O	 1.1524916849	-0.6390601873	 0.0211014298	-0.230499
H	 0.9668838154	 1.7613058156	-0.0826848652	 0.284877
H	-0.7585024872	 1.8770545082	-0.0505726237	 0.285389
H	-2.0133816435	-2.7025288703	-0.0354308214	 0.132589
H	 2.3610090558	-3.5238751767	-0.0436389107	 0.235602
