18
gdb 51588	6.03976	0.62694	0.60587	2.5883	80.1	-0.2443	-0.0238	0.2205	1784.9958	0.144916	-401.893098	-401.883346	-401.882402	-401.929401	34.264	
O	-0.8071733563	 0.6134982422	 0.3024196148	-0.238486
C	-0.118069214	 1.5993797444	 0.2511487519	 0.157298
C	 1.312660776	 1.6290119925	-0.2508625779	-0.283225
C	 1.4801087461	 2.6669893685	-1.3454698068	-0.043326
N	 1.5416206015	 4.0775307558	-0.9209811365	-0.32694
C	 2.7108555741	 3.4757253687	-1.568876599	-0.012067
C	 3.9803917066	 3.3483783513	-0.7390419577	-0.357372
C	 4.8172253587	 4.5403285082	-0.8333870419	 0.294095
C	 5.4946251554	 5.5274306314	-0.9361582933	-0.435864
H	-0.5010722396	 2.5923751617	 0.5758965399	 0.090617
H	 1.9498806343	 1.888918344	 0.6024900061	 0.124694
H	 1.5843238513	 0.6289799046	-0.6015616385	 0.122169
H	 0.9057590982	 2.4458117206	-2.2445238783	 0.098561
H	 1.0344845196	 4.6810012012	-1.5612509877	 0.239038
H	 2.9033835562	 3.7540320628	-2.6034635164	 0.100413
H	 3.7178892827	 3.1703134966	 0.3086894331	 0.138946
H	 4.5490285588	 2.47294899	-1.0798899821	 0.134001
H	 6.0976176302	 6.3980489554	-1.0117430097	 0.197448
