22
gdb 88529	3.207	1.28195	1.14554	1.1465	87.31	-0.2187	0.0911	0.3098	1185.3187	0.195028	-367.133884	-367.125594	-367.124649	-367.167095	33.1	
C	 2.5446546746	-2.4230646334	 1.8368101895	-0.418167
C	 1.2434313943	-1.974294093	 1.2075214306	 0.017482
C	-0.0151891013	-1.888008758	 2.0048874047	-0.269625
N	 0.6055092217	-0.6824804278	 1.466269675	-0.19901
C	 1.1370382572	 0.3040823459	 2.3442789073	 0.410394
C	 0.3002399814	 1.5069892351	 2.8704451599	-0.250929
C	 1.7453886996	 1.7422403072	 3.3892616659	-0.043741
C	 1.7892008292	 0.2432978823	 3.7847794202	-0.26888
C	 2.2459995743	 1.3312403805	 1.9748196077	-0.258186
H	 2.5605916119	-2.2636991302	 2.9163340059	 0.127469
H	 2.6872868029	-3.4937626349	 1.6540889219	 0.120177
H	 3.4011098455	-1.8983918474	 1.3996479744	 0.123671
H	 1.1470613345	-2.266759632	 0.1621502883	 0.089285
H	-0.9772053016	-2.1629668868	 1.5792521213	 0.111314
H	 0.0769635218	-2.0705112816	 3.0751396211	 0.108159
H	-0.0718351211	 2.199644638	 2.1109145575	 0.090943
H	-0.4625352564	 1.2832932123	 3.6219643399	 0.084424
H	 2.0982223469	 2.5785427746	 3.9896460628	 0.074349
H	 1.1389125339	-0.0635094063	 4.6093211839	 0.086316
H	 2.782212974	-0.2057251518	 3.8660324254	 0.087629
H	 3.2686643317	 0.9490546346	 1.906826457	 0.084702
H	 2.0155184549	 2.0140833029	 1.1526582299	 0.092223
