15
gdb 13358	7.71003	0.99983	0.89999	1.1069	75.32	-0.236	-0.0186	0.2174	1275.402	0.118753	-362.655752	-362.647501	-362.646557	-362.691356	27.366	
C	-0.0789250874	 1.4421454625	-0.03459869	-0.510468
C	-0.0133231099	-0.0087592296	-0.0098758178	 0.269973
C	 0.0490272183	-1.2111677655	 0.0076706938	-0.045619
C	 0.1155330031	-2.630961501	 0.0310495967	 0.221536
N	 1.1198036773	-3.3354860916	-0.315487938	-0.322661
C	 0.726640842	-4.7371940471	-0.1231830471	-0.198305
C	-0.7280909157	-4.6739788654	 0.4110605372	-0.117793
O	-1.0162055092	-3.2603575426	 0.4696247866	-0.25511
H	 0.6890950804	 1.879716024	 0.6123753247	 0.160367
H	 0.0828495447	 1.8240121102	-1.0484532031	 0.160371
H	-1.0547757707	 1.8000472123	 0.3096389337	 0.158499
H	 0.8034417822	-5.2776316922	-1.0729172116	 0.119949
H	 1.4128369714	-5.221808572	 0.5798473322	 0.119949
H	-1.4589740791	-5.1449591031	-0.2523782542	 0.119655
H	-0.8436627574	-5.0886849691	 1.4164583071	 0.119656
