16
gdb 75976	2.44447	1.62406	1.29762	2.4655	67.79	-0.2662	-0.0106	0.2556	1012.2812	0.126967	-471.212696	-471.204785	-471.203841	-471.245293	29.721	
N	-0.2439451299	 1.3947141595	 0.3848814424	-0.525287
C	-0.0329101784	-0.0284116128	 0.0533646635	-0.173619
C	 0.7522746682	-0.6582723546	 1.18878506	 0.424833
N	 2.0010081782	-0.8218833566	 1.1082222216	-0.518446
O	 0.020446026	-1.0299041021	 2.281018327	-0.242475
C	-1.3408251577	-0.6397900226	 2.2706847514	 0.012167
O	-1.9973594279	-1.0505335719	 1.085101238	-0.242475
C	-1.3961832908	-0.6802395054	-0.0845680581	 0.424833
N	-1.9223970891	-0.8620020731	-1.2171120599	-0.518446
H	 0.6625710292	 1.8490426547	 0.4529460233	 0.248268
H	-0.745625299	 1.8346447446	-0.3816672043	 0.248268
H	 0.5190614278	-0.1978294609	-0.875023521	 0.125457
H	 2.367093025	-1.230116401	 1.9710665116	 0.227882
H	-1.8219206184	-1.1701362457	 3.091559215	 0.138537
H	-1.416024359	 0.445884094	 2.3788360307	 0.14262
H	-2.8487766743	-1.2834503959	-1.1202884613	 0.227882
