18
gdb 71503	2.82959	1.59208	1.4226	3.5011	76.13	-0.24	-0.0233	0.2167	993.1291	0.148437	-401.909319	-401.901966	-401.901021	-401.940932	29.374	
C	-0.003574904	 1.5537330131	-0.0563168795	-0.522093
C	 0.0115009132	 0.0463764847	-0.0245338393	 0.291866
C	 0.5748752143	-0.9536638462	-1.045093443	-0.20827
N	 0.0093105615	-1.9027004204	 0.0141692663	-0.163004
C	 0.5847422131	-0.9191267399	 1.0626392813	-0.018468
C	-0.3219878305	-0.9948587254	 2.2779748435	-0.371325
C	-1.6636532213	-0.9600131879	 1.5295211713	 0.436354
O	-2.7818136883	-0.9285892408	 1.9683029699	-0.322711
C	-1.2062601508	-0.9373677376	 0.0892895635	-0.149276
H	 1.0161021425	 1.9514453549	-0.1017758414	 0.126429
H	-0.5476500294	 1.9222049809	-0.9323491596	 0.129863
H	-0.4873604862	 1.9662775573	 0.8357050899	 0.128971
H	 0.0794314357	-1.0387612708	-2.0164147735	 0.104479
H	 1.6627780692	-1.0219815915	-1.1524723339	 0.099729
H	 1.6651176353	-0.9917849209	 1.1999376075	 0.080188
H	-0.208662922	-1.9277228534	 2.8393390591	 0.14024
H	-0.2206125438	-0.1566372841	 2.9737813246	 0.129058
H	-1.9489911888	-1.026943872	-0.7024531167	 0.087974
