16
gdb 47688	2.46144	1.72781	1.10001	1.6861	70.33	-0.2452	-0.0075	0.2377	1062.9082	0.126737	-471.214068	-471.206308	-471.205363	-471.246815	29.091	
N	-0.1223747259	 1.1923174694	 0.6739729076	-0.520532
C	-0.0552840817	 0.0961936296	 0.0281730042	 0.403223
C	-1.3309034928	-0.7156401145	-0.1272443719	-0.15389
O	-1.4233505741	-1.2957357081	-1.4207715691	-0.223721
C	-0.8386228505	-2.5518533853	-1.4999081259	-0.012034
O	 0.4298929354	-2.6086027121	-0.8523370361	-0.250552
C	 1.3478849525	-1.6358015314	-1.1531571158	 0.426032
N	 2.4294224645	-1.8293478439	-1.7828333921	-0.537428
N	 1.0889347434	-0.3923792575	-0.5938797144	-0.359328
H	 0.7882086323	 1.6501925781	 0.7504296871	 0.210146
H	-1.3942729543	-1.4817070697	 0.6569813354	 0.128758
H	-2.1645916453	-0.0240619478	-0.0090869939	 0.151865
H	-1.4255486402	-3.3231700688	-0.9833075182	 0.116103
H	-0.7441614556	-2.7844778363	-2.5664645762	 0.125053
H	 2.488287252	-2.8006206147	-2.0803965231	 0.231529
H	 1.8664914404	 0.2458743331	-0.6857671475	 0.264775
