14
gdb 29353	2.01289	1.92319	0.98461	4.7651	71.76	-0.1918	0.0116	0.2034	1103.6632	0.102355	-432.917188	-432.908718	-432.907773	-432.950027	31.45	
N	 0.0404879525	 1.4023310916	-0.1137898929	-0.613552
C	-0.0036289743	 0.010021124	-0.0358460991	 0.168407
C	-1.0981145695	-0.8115788368	 0.001101805	-0.166247
N	-0.6378533078	-2.1371992765	-0.0199603163	-0.309714
C	 0.7053801757	-2.1519135541	-0.0613573649	 0.339624
O	 1.3585581386	-3.3250794433	-0.077088217	-0.419456
C	 1.1662174356	-0.8389742407	-0.0734370697	 0.005263
C	 2.5205530414	-0.4642724875	-0.1053863541	 0.151563
N	 3.6468969113	-0.1793249316	-0.1240553636	-0.382595
H	 0.8858346662	 1.7964274159	 0.2778463748	 0.257333
H	-0.7712835781	 1.8571951934	 0.2806084801	 0.246956
H	-2.1513527448	-0.5932075007	 0.0236106314	 0.121194
H	-1.2100691153	-2.9630351077	 0.0015918315	 0.276159
H	 2.3067996187	-3.149286566	-0.1160575652	 0.325064
