19
gdb 121781	2.75546	0.79132	0.63732	1.1403	84.35	-0.2549	0.0325	0.2874	1742.5992	0.154865	-385.803675	-385.79292	-385.791975	-385.840335	37.753	
C	-0.074690752	 1.3800661734	 0.0480706342	-0.229176
O	-0.0613158377	-0.0258932176	-0.0076145033	-0.232079
C	 0.6678647131	-0.5241284769	-1.1065663455	-0.064204
C	 0.6326591356	-2.0454041652	-1.0383997931	-0.198103
C	 1.3583268484	-2.7181060402	-2.2359719452	-0.357798
C	 2.7842841155	-2.371357518	-2.2828079615	 0.352721
C	 3.9474554273	-2.0733728771	-2.3130112227	-0.470103
C	 1.1691722285	-4.1722142247	-2.2065423736	 0.320534
C	 0.9889344036	-5.358667609	-2.1669992324	-0.429416
H	 0.9413260061	 1.7959061159	 0.1397839788	 0.104884
H	-0.5443757854	 1.8209496373	-0.8459283986	 0.102908
H	-0.6546470841	 1.6672608317	 0.9284956775	 0.127541
H	 0.2239142662	-0.1720376697	-2.0556056715	 0.081465
H	 1.7075870596	-0.1609419749	-1.0822697944	 0.103441
H	 1.0901100973	-2.3822697946	-0.1041013605	 0.12794
H	-0.4079014073	-2.382411107	-1.0352490022	 0.122082
H	 0.8927024549	-2.3397443629	-3.1588570129	 0.137064
H	 4.9781754668	-1.8194332889	-2.3449259956	 0.201663
H	 0.8391451436	-6.4095969118	-2.1390512975	 0.198635
