16
gdb 23409	3.65872	1.2993	1.05626	2.2624	76.83	-0.2294	-0.038	0.1915	1110.8636	0.125476	-437.832596	-437.825238	-437.824294	-437.864559	28.282	
O	-0.1096855032	 1.3034215923	-0.1866485454	-0.389423
N	-0.009841524	-0.0913628375	-0.0982153996	-0.236139
C	-1.1553775545	-0.6359484464	 0.0619637743	 0.390466
C	-2.4883547688	-0.0482349373	 0.2119514066	-0.147805
C	-3.3947395428	-1.001329529	 0.4815357082	-0.086502
C	-2.7919211456	-2.3781043326	 0.5152339264	-0.136952
C	-2.8442983331	-3.1650701348	-0.8196830874	-0.074378
O	-1.5027902135	-2.7619878487	-1.154793774	-0.283876
C	-1.3050392051	-2.1374435693	 0.1416060629	 0.026328
H	 0.8089944122	 1.5665075575	-0.3067414166	 0.309353
H	-2.6771023901	 1.0122823303	 0.1248182626	 0.125731
H	-4.453062988	-0.8246687384	 0.6397162174	 0.111
H	-3.0285058828	-2.9472121382	 1.4163947196	 0.092109
H	-2.9234976907	-4.2531984647	-0.6984166358	 0.10222
H	-3.578153328	-2.826356287	-1.5597170765	 0.107425
H	-0.5127953223	-2.6310090962	 0.7101998872	 0.090441
