15
gdb 32141	2.97875	1.42525	0.96989	3.0605	71.09	-0.2417	-0.0219	0.2198	1146.6887	0.114698	-454.016957	-454.009373	-454.008429	-454.049231	28.172	
C	-0.0503593693	 1.4218310873	 0.0411920636	-0.234815
O	-0.049126751	-0.0074519402	-0.0046625456	-0.257864
C	-1.2331116797	-0.6280337541	 0.0138371516	 0.463805
C	-1.2426316478	-2.0292232175	-0.0312241277	-0.245891
C	-2.4917780598	-2.6174545445	-0.0095410009	 0.02185
N	-3.6413139291	-1.9294076853	 0.0501925324	-0.309396
C	-3.4941600172	-0.6140235252	 0.0879583215	 0.452367
O	-4.6273117	 0.1006067368	 0.1481323477	-0.388293
N	-2.3508836431	 0.0856008438	 0.0733941671	-0.450318
H	 1.0004586026	 1.7109142981	 0.014796623	 0.135732
H	-0.5822172083	 1.8405010916	-0.8171935911	 0.137966
H	-0.5218063761	 1.7835129703	 0.958784687	 0.137909
H	-0.322854565	-2.5946106845	-0.0795272146	 0.113144
H	-2.5892159276	-3.7000413156	-0.0414223129	 0.121244
H	-4.3633387887	 1.0296213389	 0.169653379	 0.302558
