15
gdb 16654	3.47779	2.2001	1.52536	3.0495	60.46	-0.2558	-0.0192	0.2366	810.2469	0.12007	-399.800857	-399.794123	-399.793179	-399.831761	25.806	
O	 0.3169972754	 1.1948567089	 0.6256052066	-0.439153
C	 0.0107731725	-0.0658294297	 0.1069021397	 0.0742
C	-1.4900230613	-0.3435901203	-0.1328251793	-0.281001
C	-1.4581103127	-1.3370674952	-1.3028575071	-0.026772
C	-1.3260961527	-0.8247737226	-2.6927067448	-0.242608
N	-0.1296055286	-1.2774531571	-1.9565546235	-0.11677
C	 0.5900229038	-0.254728144	-1.3006147821	 0.337415
O	 1.4842794874	 0.4087520782	-1.7589812772	-0.334782
H	 1.045576491	 1.5309722811	 0.0812646199	 0.294713
H	 0.4215873077	-0.8677447203	 0.7448733366	 0.102518
H	-1.9850036822	-0.7629719733	 0.7438854302	 0.122235
H	-1.9966256818	 0.5908964091	-0.3930877103	 0.12584
H	-1.8499247253	-2.3371917521	-1.1469587616	 0.109522
H	-1.5953666096	-1.4499738772	-3.5386083371	 0.136461
H	-1.4334849837	 0.2438471246	-2.8615273601	 0.138183
