17
gdb 19250	3.16453	2.00052	1.54983	1.6839	68.02	-0.2348	-0.0262	0.2086	863.1733	0.141269	-363.821916	-363.814151	-363.813206	-363.854595	28.4	
C	-0.2387085433	 1.5261378536	-0.1505108968	-0.397232
C	 0.0696205309	 0.0427428234	-0.0657493705	 0.04759
C	 1.1976549943	-0.6344951596	-0.9151433085	-0.130967
C	 2.1133114946	 0.1471525178	-1.8213766561	 0.140332
O	 1.8411905563	 1.186999355	-2.3670640999	-0.250457
C	 1.8030562263	-1.0887312101	 0.4160370044	-0.051772
C	 2.0633473316	 0.0729683979	 1.2902458888	-0.245613
N	 0.6901652822	-0.4549455069	 1.2236152797	-0.129537
H	 0.6486690352	 2.1542869356	-0.0541472065	 0.12679
H	-0.6968435342	 1.7634207033	-1.1140266402	 0.134184
H	-0.9409509784	 1.7923095682	 0.6466509284	 0.12171
H	-0.8589878074	-0.5201984565	-0.1901814549	 0.092971
H	 0.8085439035	-1.4775887232	-1.4978248473	 0.110798
H	 3.1146125615	-0.3270637985	-1.9589894031	 0.078511
H	 2.1681547608	-2.0864287971	 0.6352268536	 0.101122
H	 2.5346568734	-0.1178059257	 2.249108522	 0.127496
H	 2.2984057828	 1.0431739729	 0.8599501971	 0.124074
