18
gdb 37022	3.23866	1.78854	1.50005	1.5696	80.22	-0.2181	0.0071	0.2253	927.8872	0.15067	-364.799184	-364.792605	-364.791661	-364.829611	28.065	
C	-0.0517108507	 1.6057734117	-0.0292749688	-0.372202
C	 1.4076393965	 2.0226694905	-0.1597615144	-0.076083
C	 2.2482578049	 0.9897562323	-0.0153849059	-0.182321
C	 1.497032126	-0.2853909276	 0.1641936366	 0.262272
C	 1.7012916429	-1.3673127414	 1.217323436	-0.342758
C	 0.2874340529	-1.568509304	 1.7492071484	-0.063236
C	-0.6075163645	-0.7552277764	 1.1775693852	-0.142811
C	 0.0482908934	 0.0931228575	 0.1398298526	 0.25358
N	 0.6299511247	-0.706845392	-0.9673600391	-0.399452
H	-0.5240557933	 2.0731871705	 0.8441083082	 0.118343
H	-0.6477827308	 1.9063556169	-0.9008013617	 0.112862
H	 1.7023092677	 3.0421140777	-0.3856122382	 0.09724
H	 3.3301499114	 1.0500551461	-0.0536602642	 0.098834
H	 2.1077165508	-2.2921479468	 0.7918912535	 0.119235
H	 2.3902813493	-1.0444734496	 2.0084121675	 0.107556
H	 0.0542976054	-2.3276724748	 2.4886648323	 0.093744
H	-1.6676944984	-0.7288034477	 1.4009827203	 0.094823
H	 0.8257616616	-0.0965569228	-1.7603750184	 0.220374
