19
gdb 90272	2.47526	1.57943	1.26367	2.5715	79.76	-0.2172	0.0144	0.2316	1082.6158	0.158629	-422.992711	-422.984129	-422.983185	-423.025804	32.4	
C	-0.1079105081	 1.4140184996	-0.0706064848	-0.494253
C	-0.0297675833	-0.0630936106	 0.1307008437	 0.174735
C	-0.9899651446	-0.9502479228	 0.3782543205	 0.092898
C	-2.3991268913	-1.2775995911	-0.0708953557	-0.353159
C	-1.7195796443	-2.4812176974	-0.8498074845	 0.072846
O	-1.3218061195	-2.1551366583	-2.1554535852	-0.417352
C	-0.489394367	-2.3333190123	 0.1400898156	 0.10787
O	 0.8484085401	-2.2300660961	-0.2795952873	-0.272079
C	 1.2460466914	-0.8557681079	-0.1351286334	-0.141559
H	 0.4982558624	 1.9536666327	 0.6684882624	 0.130051
H	 0.2747225199	 1.7006746177	-1.0585418005	 0.128252
H	-1.1364168316	 1.7739397907	 0.0188533121	 0.125704
H	-3.064991681	-1.6332362376	 0.72160914	 0.109736
H	-2.9187503783	-0.5334014039	-0.6797919073	 0.103905
H	-2.2589332014	-3.4376087327	-0.8065038479	 0.064604
H	-2.1144779719	-2.0581130208	-2.6925211019	 0.285969
H	-0.5835838042	-3.058029443	 0.9609671512	 0.074327
H	 1.7169264897	-0.5172162576	-1.0695176387	 0.109199
H	 2.0020892231	-0.7735212986	 0.6624039818	 0.098307
