19
gdb 99826	1.88205	1.53961	1.24612	1.8752	77.69	-0.2377	-0.0209	0.2169	1154.8684	0.153276	-422.99699	-422.986013	-422.985069	-423.032958	38.878	
C	-0.1727977042	 1.4461036562	-0.0053018099	-0.252003
O	 0.0857035909	 0.0525348793	 0.0286457968	-0.265649
C	 0.6696666616	-0.5084762114	-1.143014027	 0.033774
C	 0.5479409126	-2.0367279489	-0.972346783	-0.416927
C	-0.0108642696	-0.0881311284	-2.3716277773	 0.356369
C	-0.5962164816	 0.2521536661	-3.3639196509	-0.468919
C	 2.1981956057	-0.186886155	-1.2222092047	 0.364182
C	 2.9115029055	 0.0232873848	 0.0999817507	-0.482402
O	 2.7715060735	-0.1674425305	-2.281550612	-0.292279
H	 0.7328124166	 2.0359059645	-0.2079190055	 0.108515
H	-0.9243538385	 1.6988274955	-0.7616816924	 0.131439
H	-0.5497754492	 1.70975682	 0.9851859825	 0.130563
H	-0.5086729384	-2.3034141229	-0.9050054353	 0.140542
H	 0.9980435027	-2.547530092	-1.8256131672	 0.14583
H	 1.0476047063	-2.3521204189	-0.052702516	 0.127215
H	-1.0984199709	 0.5530397511	-4.2503425768	 0.201511
H	 2.5419619618	-0.6493048366	 0.8767991549	 0.145835
H	 3.9836975079	-0.1075832316	-0.052752297	 0.14191
H	 2.7300775972	 1.0432452786	 0.4563554301	 0.150493
