16
gdb 47332	3.20897	1.18808	0.88752	3.9225	85.03	-0.2312	-0.0723	0.1589	1246.5004	0.124582	-400.738303	-400.730207	-400.729263	-400.771066	30.652	
O	-0.0689710347	-0.0736394319	 0.0137380146	-0.329617
C	-0.05295056	 1.1402713888	 0.0503668664	 0.410621
C	-1.3348319524	 1.9658903332	-0.0175564709	-0.283777
N	-1.1509149529	 3.2361295976	 0.6741454036	-0.311804
C	-0.0833567009	 4.044526052	 0.1105470378	-0.261372
C	 1.2109962765	 3.2585481468	 0.0593234284	 0.149041
C	 1.2023826342	 1.9087239675	 0.0819680374	-0.256002
C	 2.4110712467	 4.0074447692	-0.0358964651	 0.244453
C	 3.4053257698	 4.6836968618	-0.1172126072	-0.38588
H	-1.5957457558	 2.0707550585	-1.0906693571	 0.10198
H	-2.1346845814	 1.3933947867	 0.4576171339	 0.131429
H	-2.016441081	 3.7624278592	 0.6904118194	 0.230502
H	-0.2889798981	 4.4129174947	-0.9158036269	 0.108223
H	 0.0627638417	 4.932172516	 0.7344507571	 0.130021
H	 2.1226932922	 1.3353623885	 0.0631316973	 0.115224
H	 4.2928243062	 5.2629986815	-0.1897528386	 0.206958
