19
gdb 14712	7.13905	0.67338	0.63972	4.6471	74.59	-0.2453	0.0128	0.2581	1772.599	0.163549	-402.193193	-402.183457	-402.182513	-402.2294	33.127	
C	 0.0943208966	 1.5014201045	 0.0774359927	-0.384907
C	-0.0265482634	-0.009780253	 0.1259544244	-0.054571
O	 0.8084957469	-0.4829328003	 1.1900628211	-0.203796
C	 0.848270616	-1.8144679051	 1.3616737671	 0.134835
N	 1.546440977	-2.3274932904	 2.2750081458	-0.236232
C	 1.5714790926	-3.7745586558	 2.3953002915	-0.158308
C	 3.0336185397	-4.2299671768	 2.4480670325	-0.035057
O	 3.7298473007	-3.5873009664	 3.4930419262	-0.422457
H	 1.1296872824	 1.7986625646	-0.1089542663	 0.137508
H	-0.5334497686	 1.9015619115	-0.7239036959	 0.122957
H	-0.2255501836	 1.9431583801	 1.024837002	 0.138046
H	-1.0655774049	-0.3141536274	 0.310375441	 0.111196
H	 0.2948980069	-0.4592280257	-0.823214929	 0.110671
H	 0.2312074586	-2.3894091937	 0.6535300227	 0.07741
H	 1.0907280851	-4.0511585654	 3.342367458	 0.113912
H	 1.0393517541	-4.2897238835	 1.5775757753	 0.078159
H	 3.0846541866	-5.3085309045	 2.6338731789	 0.099844
H	 3.5034268177	-4.0358204623	 1.468689568	 0.078785
H	 3.4682431298	-2.6583227002	 3.4388213141	 0.292007
