22
gdb 62836	2.52478	1.74971	1.47252	1.8173	87.33	-0.2036	0.0532	0.2569	1034.7758	0.194198	-367.053399	-367.045214	-367.04427	-367.085186	34.29	
C	-0.0942803119	 1.479836913	 0.0361718644	-0.480219
C	 0.0422042288	-0.0496853879	 0.0475257089	 0.370383
C	-1.2565062151	-0.6116084363	-0.5437078994	-0.473541
N	 1.2889518769	-0.6441010012	-0.6576493072	-0.216118
C	 2.1021636058	-0.0691330422	 0.5393969432	-0.262253
C	 0.8508874284	-0.6917686132	 1.2445987842	 0.211296
C	 0.1680941819	-1.5593198608	 2.3341113054	-0.337012
C	-0.0370056975	-2.6373066813	 1.1778216613	-0.274123
C	 1.0987481017	-1.8742943722	 0.37229012	 0.020149
H	 0.5795823636	 2.0008979299	 0.7172643242	 0.116111
H	 0.0769375674	 1.8617882304	-0.9770580629	 0.128564
H	-1.1150122717	 1.7544935597	 0.3205272576	 0.115478
H	-1.5771949722	 0.0445454289	-1.3596104281	 0.116606
H	-1.1398135168	-1.6092876784	-0.9641377355	 0.132387
H	-2.0653629689	-0.6259395654	 0.1953651393	 0.114806
H	 3.0498674633	-0.5853141354	 0.7065199298	 0.102444
H	 2.2551149978	 1.0073679467	 0.4711358426	 0.103483
H	 0.8561760887	-1.9191775874	 3.1039822263	 0.110402
H	-0.7301079282	-1.161991287	 2.8157785331	 0.101069
H	 0.2610823521	-3.656865877	 1.4339649007	 0.105872
H	-1.049168136	-2.6637507758	 0.7847722885	 0.119153
H	 2.0494584717	-2.4054499171	 0.4496804435	 0.075063
