16
gdb 30532	6.82857	0.83782	0.74982	4.0949	83.34	-0.1977	-0.0165	0.1812	1480.5554	0.124432	-434.117841	-434.108976	-434.108032	-434.151797	31.561	
C	 0.0174539445	 1.4804727272	 0.020185099	-0.489876
C	 0.002386573	-0.0098269004	-0.0242180916	 0.25766
C	-0.064897309	-0.8389279346	-1.0924716227	-0.13212
O	-0.0512305975	-2.1334460281	-0.6357258091	-0.195526
C	 0.0270919319	-2.0115200196	 0.7284189189	 0.471625
N	 0.0637804785	-3.1224893618	 1.519163338	-0.352312
C	 0.0510107877	-4.2877875049	 0.9791647523	 0.121474
N	 0.0409508194	-5.4118672869	 1.7319800816	-0.49456
N	 0.0603744373	-0.7763806332	 1.1353822312	-0.37905
H	 0.9297950833	 1.8469505106	 0.5027961078	 0.136188
H	-0.0355221397	 1.9059712477	-0.985509342	 0.117734
H	-0.8288076006	 1.8616354817	 0.6016648229	 0.136511
H	-0.1254624111	-0.7041635185	-2.1588973462	 0.131772
H	 0.0231012104	-4.4639968209	-0.0994811715	 0.129295
H	 0.2035571731	-6.3085118905	 1.310989285	 0.26861
H	 0.1632388987	-5.3210749079	 2.7282268966	 0.272575
