25
gdb 58557	2.16122	1.36654	1.14489	1.3916	88.2	-0.2526	0.0737	0.3264	1269.9689	0.227079	-389.487962	-389.477299	-389.476354	-389.522716	41.034	
C	 0.0608197261	 1.5040130376	-0.1724938046	-0.409686
C	 0.0138632053	-0.014074276	 0.0616972922	 0.00102
C	 0.7897804442	-0.3993043678	 1.3305220625	-0.407924
C	-1.4294005808	-0.5560190354	 0.0452005414	 0.34943
C	-2.2983511855	-0.0327825129	 1.195167489	-0.46002
C	-2.1784264731	-0.4326141597	-1.3239840119	-0.264714
C	-2.6402347548	-1.9068694686	-1.1888795306	-0.256138
C	-1.5843040477	-2.1141654354	-0.0690956601	 0.081001
O	-0.3836886796	-2.7116600983	-0.5295955885	-0.439301
H	 1.0956564591	 1.8395729435	-0.298048755	 0.108174
H	-0.4926725589	 1.7941813442	-1.0718223724	 0.110596
H	-0.3602164161	 2.0601444948	 0.6723576623	 0.110676
H	 0.5222335107	-0.4948542607	-0.7812342393	 0.083797
H	 0.3784002202	 0.0833781038	 2.223927257	 0.105425
H	 0.7787815663	-1.4815456583	 1.4836355444	 0.125131
H	 1.83578693	-0.0848614976	 1.2467456201	 0.104727
H	-2.3881756167	 1.0574431111	 1.1647548518	 0.115886
H	-3.3128469174	-0.4420361856	 1.1383868925	 0.108575
H	-1.8889002053	-0.3131195672	 2.1708147159	 0.11642
H	-2.9608581313	 0.3280988252	-1.3882212365	 0.090979
H	-1.4867162975	-0.2922241108	-2.158749911	 0.10074
H	-3.6676573392	-2.007846928	-0.8291841805	 0.099674
H	-2.5149230615	-2.5464375106	-2.0668015939	 0.090033
H	-1.9374049526	-2.6147500225	 0.8439507651	 0.053259
H	-0.584923714	-3.6180104449	-0.7830069098	 0.28224
