22
gdb 78689	3.86703	1.21749	1.10951	1.5171	87.07	-0.2239	0.0842	0.3082	1219.313	0.193099	-367.126235	-367.117498	-367.116553	-367.158785	34.848	
C	-0.1891492062	 1.6362564756	 0.0507385738	-0.419004
C	-0.0541814667	 0.1295194806	-0.0436745261	 0.057982
C	 0.8466042639	-0.5327859735	-1.0845711167	-0.097023
C	 2.0981796977	-0.2192773066	-0.2061601544	-0.051523
N	 0.9993304729	-0.5119170683	 0.8609000414	-0.182236
C	 1.0541649357	-1.7278438607	-0.1059206734	-0.040334
C	 2.5953599425	-1.6807773854	-0.1693895847	 0.320806
C	 3.2545033449	-2.2206083583	-1.4344164382	-0.466928
C	 3.3387302054	-2.1089200045	 1.0932676697	-0.460145
H	 0.7666089746	 2.1460813891	-0.1038757532	 0.115688
H	-0.8935371337	 2.0070402828	-0.7019072462	 0.116097
H	-0.5694486991	 1.9230119428	 1.0367743368	 0.126767
H	-1.0307272542	-0.3524959879	 0.0984810636	 0.06645
H	 0.7685902062	-0.5525264852	-2.1768332443	 0.062286
H	 2.6822051073	 0.7025399492	-0.166500755	 0.075067
H	 0.3836805405	-2.5773499367	 0.0506435334	 0.071506
H	 2.7266043422	-1.9163596745	-2.3428558581	 0.11426
H	 4.288654213	-1.8664703996	-1.5134897223	 0.115588
H	 3.2867098967	-3.3159709624	-1.416909138	 0.115904
H	 3.3723928008	-3.2018279574	 1.1717048811	 0.108316
H	 4.3750232015	-1.7518542296	 1.0724477453	 0.108024
H	 2.8533120441	-1.7122631793	 1.9870457055	 0.14245
