17
gdb 79684	2.57357	1.54545	1.20566	4.0852	75.07	-0.2212	-0.0243	0.1969	1054.1572	0.134765	-421.756575	-421.748591	-421.747647	-421.788885	30.907	
O	-0.0547121787	 1.4753000928	-0.1771052519	-0.412422
C	-0.1253484884	 0.0929340804	 0.0112871948	 0.020633
C	-0.4852195043	-0.6369256769	 1.2559315925	-0.156582
C	-1.6870811927	-0.1286890457	 2.0744695058	-0.063547
C	-2.3284635184	 1.1427638621	 1.5724233368	-0.311818
C	-2.5805511664	-0.1465126631	 0.8465589705	-0.108906
C	-1.4238975091	-0.6585873187	-0.0412615598	 0.201198
C	-1.6015691437	-1.8120560657	-0.9222246915	 0.075071
O	-2.6610074818	-2.3645847878	-1.1208805542	-0.28069
H	 0.6912638294	 1.8030839072	 0.3380626247	 0.292557
H	 0.6428861727	-0.4522761035	-0.5466818293	 0.10268
H	 0.1123423698	-1.4762770826	 1.5923465886	 0.107783
H	-1.9028985447	-0.5418133149	 3.0503007705	 0.100011
H	-3.1692374	 1.4600757286	 2.1831727519	 0.115395
H	-1.7546535895	 1.9426679139	 1.1296389862	 0.139946
H	-3.5567114634	-0.5981796007	 0.7435467419	 0.11827
H	-0.6623917806	-2.1710431754	-1.4039234375	 0.060421
