18
gdb 97392	6.18067	0.72701	0.6585	1.7625	82.19	-0.2224	0.0089	0.2314	1700.9641	0.148554	-435.292487	-435.283331	-435.282387	-435.327703	31.706	
C	 0.4322193407	 1.824787584	 0.9197394206	-0.309961
N	 0.9870604756	 0.5032301056	 0.7127442056	-0.24041
C	 0.2323066152	-0.3685297777	 0.1925547244	 0.118184
N	 0.6897405919	-1.654745218	-0.0372020729	-0.40655
C	-0.0663391692	-2.6484073374	-0.5951079204	 0.531876
N	-1.2744174203	-2.5665000148	-0.987752387	-0.355852
C	-1.6196885857	-3.8955978299	-1.5019758477	-0.180635
C	-0.3292347925	-4.743258563	-1.3165294842	-0.11152
O	 0.6088851516	-3.8228656304	-0.7131659776	-0.271334
H	 0.488030947	 2.0858157204	 1.9831328062	 0.12591
H	 1.0339143439	 2.5660174508	 0.3806183015	 0.125923
H	-0.615022136	 1.9250281993	 0.5929958793	 0.101715
H	-0.8068322598	-0.2242398197	-0.1197233256	 0.132777
H	 1.6398851583	-1.8690369632	 0.2242464616	 0.268927
H	-2.4674835477	-4.3133401592	-0.9471439456	 0.11353
H	-1.9216672158	-3.8340064364	-2.5536007116	 0.113613
H	-0.4553706782	-5.5925076143	-0.6397179933	 0.121967
H	 0.100383311	-5.0989157561	-2.2569305132	 0.121841
