18
gdb 32577	1.99124	1.86556	1.03896	2.1042	74.14	-0.1896	0.055	0.2446	1151.9914	0.148718	-435.307307	-435.298006	-435.297062	-435.341904	33.766	
C	-0.1944462803	 1.5405685892	-0.023924686	-0.378471
C	 0.0523106139	 0.0301559907	-0.0241033538	-0.151988
N	 0.75086661	-0.4314317957	 1.1653145766	-0.072542
C	 2.1144759319	-0.7482463335	 1.2844533059	 0.201033
N	 2.9507798534	-0.6727977444	 0.1522941108	-0.611221
C	 2.2803449243	-1.1430942621	 2.5816279425	-0.144986
N	 1.0816506216	-1.0837715147	 3.2763418568	-0.377563
C	 0.2220819194	-0.6513887637	 2.3943725187	 0.431651
O	-1.0901908858	-0.4175990984	 2.6029556532	-0.434343
H	 0.7500527657	 2.0912789774	 0.0196338343	 0.120238
H	-0.7213964281	 1.8362228335	-0.9365325016	 0.117807
H	-0.8043457718	 1.8326728213	 0.8351084271	 0.138536
H	-0.8982388202	-0.5077907102	-0.0888808673	 0.125882
H	 0.6708622933	-0.2621833731	-0.8757917778	 0.135668
H	 3.5063917777	 0.1766189439	 0.1281443379	 0.244664
H	 3.5854860245	-1.4604763534	 0.1084931624	 0.248965
H	 3.1897826964	-1.4736657397	 3.0603478729	 0.096651
H	-1.2540250158	-0.6472040171	 3.5264073373	 0.310018
