23
gdb 69543	2.52724	1.51482	1.33781	0.275	89.28	-0.2244	0.0906	0.315	1131.4094	0.20569	-351.11702	-351.108345	-351.107401	-351.149431	35.401	
C	-0.0216427265	 1.5524421022	 0.0378721473	-0.499924
C	 0.0366159055	 0.0510919691	 0.0033577463	 0.370209
C	-0.8528664222	-0.8145711915	 0.8511689722	-0.357429
C	 0.6378608273	-0.9496742402	 1.0067568459	-0.154448
C	 1.2998306378	-1.7432043694	-0.1472607561	 0.390828
C	 2.7988279068	-1.9044446074	-0.0237381665	-0.490194
C	 0.4852860874	-2.9158076705	-0.787307985	-0.296091
C	-0.1354866822	-1.9191111284	-1.8202042239	-0.243551
C	 0.6608741153	-0.7510607914	-1.1679829976	-0.122317
H	 0.9374803181	 1.9995149363	-0.2488162243	 0.113103
H	-0.7832991287	 1.9373743126	-0.6522744635	 0.116923
H	-0.2727724535	 1.9156322363	 1.0403060728	 0.113984
H	-1.3408767943	-0.2868117401	 1.6660641148	 0.104227
H	-1.4622399205	-1.6117114142	 0.4359487485	 0.106758
H	 1.1211276611	-0.7575639584	 1.9600222623	 0.073296
H	 3.0554847941	-2.6225498113	 0.765609147	 0.113286
H	 3.2393586752	-2.2670661388	-0.959179962	 0.109114
H	 3.2799343341	-0.9521433922	 0.2281785294	 0.112951
H	 1.1224540748	-3.6762903389	-1.2473658266	 0.092718
H	-0.2198027053	-3.4236062337	-0.1239476483	 0.096599
H	 0.1683943419	-2.1213444187	-2.8502209782	 0.095661
H	-1.2243829642	-1.8226398865	-1.803683978	 0.097916
H	 1.295248828	-0.150378475	-1.8233787064	 0.056383
