19
gdb 39006	3.11587	1.76032	1.29494	0.1671	87.45	-0.2063	0.0214	0.2276	1007.3544	0.162009	-348.761295	-348.754459	-348.753515	-348.792052	28.953	
C	-0.0416214714	 1.5166809143	 0.0850532494	-0.331383
C	 1.3009916481	 0.8376418472	 0.0306410265	-0.122611
C	 1.9498701897	 0.4614584498	 1.3719121709	-0.26694
C	 1.0014632539	-0.5583831557	 1.9870743987	-0.242975
C	-0.0217159044	-0.8147701056	 1.1732862591	 0.297771
C	-1.07274865	-1.8837262859	 1.0046764138	-0.394745
C	-1.2752966705	-1.854206985	-0.5080785663	-0.085625
C	-0.6617183493	-0.8175281995	-1.0945303388	-0.200299
C	 0.0266772316	 0.0084395559	-0.0764165831	 0.324454
H	-0.4011313925	 1.9141234043	 1.0303857371	 0.109001
H	-0.3321039099	 2.0910764335	-0.7897084537	 0.105964
H	 1.9388196963	 1.0337377987	-0.8238085461	 0.085888
H	 2.9404058281	 0.0112874128	 1.2203346327	 0.10641
H	 2.1099933757	 1.3427111038	 2.0075761975	 0.106792
H	 1.206976671	-1.0403536918	 2.9361986146	 0.086446
H	-0.7492667498	-2.8620333809	 1.3785040307	 0.116167
H	-2.0146019832	-1.6500531255	 1.5241637349	 0.117233
H	-1.8838487908	-2.589889665	-1.0214691674	 0.092849
H	-0.7016422526	-0.5785685255	-2.1507939006	 0.095603
