17
gdb 110896	3.03107	1.45618	1.1812	3.5894	67.58	-0.2428	-0.0328	0.21	1052.9773	0.136876	-458.94474	-458.937198	-458.936254	-458.976861	29.176	
O	 0.0168806675	 1.4111736676	-0.0606025701	-0.426145
C	 0.0615892851	 0.0001653548	-0.0315148284	-0.081683
C	-1.3527631564	-0.5963005251	-0.0056082981	-0.130356
C	-1.4655301997	-2.1221924501	 0.184402343	 0.050147
C	-2.9494876548	-2.3535915179	 0.5531039348	-0.249668
C	-2.4405566037	-1.6396032624	 1.8269997238	-0.0273
O	-1.133435942	-2.272996037	 1.6127919285	-0.296982
C	-2.0858945276	-0.2395051769	 1.305013093	 0.448009
O	-2.2290033492	 0.8412244615	 1.8160159895	-0.350142
H	-0.5451503337	 1.6938531353	 0.673260195	 0.297058
H	 0.5851317868	-0.3168022219	-0.9404700256	 0.107038
H	 0.6288562746	-0.3807043201	 0.8306814298	 0.106475
H	-1.9105717934	-0.2251065262	-0.8725068	 0.108039
H	-0.9010162063	-2.7833982252	-0.471825844	 0.097417
H	-3.7297791536	-1.8841207801	-0.051353924	 0.114147
H	-3.1672223945	-3.4037522517	 0.7499420935	 0.128286
H	-2.8588982292	-1.7493468046	 2.8248756394	 0.10566
