19
gdb 107583	2.68045	1.56715	1.13173	3.4083	76.84	-0.2448	0.0204	0.2652	1117.2114	0.160723	-419.206274	-419.197948	-419.197004	-419.239123	31.814	
C	-0.4587161231	 1.4667281051	-0.1695411779	-0.382177
C	 0.1828466266	 0.0961586197	 0.0871961654	-0.293794
C	 0.8761413421	-0.471711945	-1.1263462858	 0.254225
N	 0.0884747602	-0.9732249817	-2.2936824004	-0.36341
C	 0.9184963152	-1.9050957212	-1.5149453918	-0.133258
C	 2.2498962885	-2.1449835042	-2.1896683868	-0.088549
O	 2.8597739543	-0.8461062549	-2.3148730676	-0.251045
C	 2.1772600292	 0.0991847809	-1.6023103876	 0.414706
N	 2.6026270935	 1.2645266395	-1.3625975191	-0.550193
H	 0.3028607773	 2.1868426853	-0.4746054265	 0.164065
H	-1.211687564	 1.4082217015	-0.9626136163	 0.11171
H	-0.9511193101	 1.8349423596	 0.7353732673	 0.108539
H	 0.9128242584	 0.1793211664	 0.9000399912	 0.117632
H	-0.5788424552	-0.6216864731	 0.4191332704	 0.089418
H	-0.8814263068	-1.0621495091	-1.9930277014	 0.23439
H	 0.4614639553	-2.6829231375	-0.9133952812	 0.103025
H	 2.9018394489	-2.7857161742	-1.5843393475	 0.1135
H	 2.1503712989	-2.5688802421	-3.1928999619	 0.127795
H	 3.5358052909	 1.394472495	-1.7570452626	 0.223422
