18
gdb 10761	3.64001	1.4547	1.33148	2.3298	63.35	-0.2571	0.0731	0.3302	988.1969	0.152061	-422.051917	-422.043324	-422.04238	-422.084603	32.292	
C	-0.160349635	 1.6606227778	-0.0059878124	-0.408343
C	-0.040811051	 0.1392936145	-0.0516363643	 0.294717
O	 0.6170661052	-0.2773041219	 1.1479706983	-0.480328
C	-1.4309772555	-0.5347122088	-0.0761162756	-0.076832
O	-2.1310342485	-0.2865371614	 1.1224635089	-0.426117
C	 0.7704334772	-0.3179302229	-1.2559796244	 0.040709
C	 2.2346123653	-0.3695637411	-1.2295661044	-0.187067
O	 1.4523055214	-1.5676540724	-1.0772420873	-0.2575
H	 0.8179400247	 2.1145832473	 0.1692903437	 0.121081
H	-0.5635191703	 2.0446312864	-0.9485354955	 0.114137
H	-0.8388665567	 1.9511722433	 0.7989792889	 0.140081
H	 0.9650396542	-1.1618534276	 0.9571992314	 0.291431
H	-2.0385323159	-0.1396736973	-0.8981861788	 0.102096
H	-1.2944784781	-1.6156915414	-0.2490504849	 0.090293
H	-1.4838004821	-0.4349859527	 1.8252582631	 0.285884
H	 0.2728459998	-0.21461541	-2.2209632165	 0.100489
H	 2.7938335414	-0.3035719586	-2.1603153782	 0.124236
H	 2.7598275339	-0.0497501831	-0.333216372	 0.131031
