16
gdb 28892	2.40115	1.82234	1.04268	0.2207	75.34	-0.2139	-0.0093	0.2046	1092.0225	0.125335	-437.967129	-437.95904	-437.958096	-437.999609	30.875	
C	-0.0534776953	 1.5389442116	 0.0506006521	-0.486707
C	-0.0056198335	 0.0360719871	 0.0263237741	 0.210724
C	 0.1093208004	-0.6394126544	-1.183409449	 0.215866
O	 0.1795436386	 0.051146685	-2.3544825675	-0.443841
C	 0.1506392386	-2.041285391	-1.1638776461	 0.328751
O	 0.2637845258	-2.6570263763	-2.3738308426	-0.447944
N	 0.0882546742	-2.7769412604	-0.0740280146	-0.367676
C	-0.0227329111	-2.1277163833	 1.0961054757	-0.027787
C	-0.072111857	-0.7469454295	 1.1876401033	-0.198611
H	 0.8492261521	 1.9679189697	-0.3974382235	 0.142415
H	-0.8991350163	 1.9144239611	-0.5354790807	 0.142416
H	-0.1455862559	 1.9127075687	 1.0727249453	 0.122365
H	 0.2540309854	-0.5938485778	-3.0688985231	 0.310179
H	 0.2787053689	-3.6067034547	-2.1960216953	 0.301777
H	-0.0729346917	-2.7490241827	 1.9850368141	 0.10649
H	-0.1622588132	-0.2681938429	 2.1566841478	 0.091582
