23
gdb 101176	3.39889	0.95942	0.87783	1.2905	86.34	-0.2629	0.0783	0.3411	1432.2699	0.206066	-388.234092	-388.224809	-388.223864	-388.26851	35.503	
C	-0.0107630628	 1.4516514494	-0.0917127624	-0.392881
C	 0.0045737565	-0.0832657894	-0.1450990126	-0.032575
C	 0.715971078	-0.5819636458	-1.4056241696	-0.072634
O	 0.0056339441	-0.1064264985	-2.5410916416	-0.424745
C	 0.6808267126	-0.6654382467	 1.0937635364	 0.07648
C	 0.0095634583	-0.6238234663	 2.5071692725	-0.062718
C	-0.9175614388	-1.792482821	 2.0591952046	-0.223339
C	 0.5040948655	-2.1582623305	 1.5386735403	-0.063788
C	 1.0347850279	-1.7144836694	 2.9324353515	-0.220885
H	 1.0064739547	 1.8482535832	 0.0161338783	 0.104084
H	-0.4371928414	 1.8625750856	-1.0093796917	 0.131401
H	-0.5995643231	 1.8117761106	 0.7575034901	 0.109247
H	-1.0313803657	-0.4322349072	-0.2180978071	 0.081697
H	 1.7574982271	-0.2178211239	-1.4082944284	 0.079573
H	 0.7534050613	-1.6827341738	-1.3985137402	 0.08439
H	 0.4826125965	-0.3779779145	-3.3302442616	 0.28526
H	 1.7289770826	-0.3355264632	 1.11539583	 0.054129
H	-0.2755355346	 0.2639205229	 3.07452593	 0.067158
H	-1.3122766628	-2.4251668811	 2.8592363908	 0.086997
H	-1.6914425221	-1.5768923522	 1.3216429851	 0.095842
H	 0.7923875718	-3.0533283891	 0.9839738451	 0.064645
H	 2.0840999745	-1.4105646438	 2.9871494281	 0.085731
H	 0.7526003798	-2.3419110555	 3.7821439924	 0.086931
