18
gdb 61023	3.58545	1.07414	0.92414	3.6618	72.75	-0.2356	-0.0326	0.203	1259.9904	0.147006	-439.039122	-439.030697	-439.029753	-439.072775	31.49	
O	 0.9470538655	-0.0140944983	-1.0697925036	-0.440457
C	 0.0136072762	-0.0131313294	-0.0202107765	 0.037527
C	-1.2132450269	-0.805429338	-0.4061254891	 0.12933
O	-1.3114700372	-1.351376088	-1.4804160906	-0.269048
C	 0.6431060684	-0.5757375543	 1.2628369794	-0.008498
C	 1.855868036	 0.2273202068	 1.8626714613	-0.242371
C	 1.0574014164	 0.38203858	 3.1602568993	-0.039232
N	-0.1861302632	 1.1039348929	 2.7993745003	-0.329062
C	-0.0989132242	-0.3649515961	 2.593781619	-0.083932
H	 0.5412650722	-0.5395541906	-1.7772711809	 0.292288
H	-0.3210460653	 1.0132495445	 0.2044160541	 0.11536
H	-2.021649771	-0.8649406814	 0.3507748011	 0.098176
H	 0.9130176157	-1.6242551601	 1.1099530708	 0.085493
H	 2.746157038	-0.3945693952	 1.9672941026	 0.109898
H	 2.1150009408	 1.1589113099	 1.3555496708	 0.12165
H	 1.4328065453	 0.4064621322	 4.175713614	 0.097203
H	-0.7106352644	 1.2514491154	 3.6612383873	 0.230791
H	-0.8022707523	-1.0331644004	 3.0758796107	 0.094886
