19
gdb 100440	5.96938	0.48033	0.4552	2.0095	101.52	-0.2327	-0.013	0.2197	2430.3945	0.155795	-385.852201	-385.840956	-385.840012	-385.891797	38.169	
C	 0.0106284361	 1.5659559252	 0.0815325007	-0.385854
C	-0.014284808	 0.0391831568	-0.0034476779	-0.172173
C	 0.7038476874	-0.4901878631	-1.2625311435	-0.100902
O	 2.060603606	-0.0505213495	-1.3281251194	-0.412469
C	 0.6052098443	-1.9471692882	-1.3591020589	 0.250668
C	 0.5488805598	-3.1569101439	-1.398733174	-0.136589
C	 0.4838635106	-4.5141280442	-1.4506306877	-0.221026
C	 0.4266662272	-5.7223572236	-1.4957503565	 0.254775
C	 0.3571960077	-7.1711555918	-1.5524385821	-0.518437
H	 1.0384127892	 1.9361830548	 0.055170469	 0.132389
H	-0.5284721714	 2.0167751737	-0.7591484756	 0.115551
H	-0.4603908793	 1.9136017859	 1.0055068332	 0.111055
H	 0.4674880428	-0.4035995202	 0.8776593776	 0.098495
H	-1.0450996665	-0.3330961548	-0.0127050828	 0.109954
H	 0.2297096067	-0.0412409863	-2.1456238629	 0.118193
H	 2.5601261266	-0.5645716843	-0.6835500747	 0.284485
H	 1.0783874457	-7.5748373746	-2.2720635446	 0.157606
H	 0.5741495928	-7.6181482025	-0.5756638171	 0.156468
H	-0.6404601478	-7.5065766993	-1.8577171628	 0.157811
