17
gdb 66278	1.98341	1.67683	1.41146	2.6499	73.68	-0.2485	-0.0377	0.2107	1036.469	0.134345	-421.82135	-421.812659	-421.811715	-421.854586	33.059	
O	 0.2862791002	 1.5574266717	 0.296867249	-0.461521
C	-0.0123825983	 0.2090432419	 0.0364413018	 0.139059
C	-1.5078148082	-0.0475871681	-0.2240050947	-0.254236
C	-1.522135513	-1.3520609597	-1.0540216452	-0.227472
C	-0.2973658169	-1.2451174642	-1.9881311159	-0.319964
C	 0.6184294939	-0.2299391203	-1.3183844766	 0.367257
O	 1.6230564948	 0.2723642512	-1.74812737	-0.325398
C	 0.5124365498	-0.6918386556	 1.0731362879	 0.32828
C	 0.9573544534	-1.4443044955	 1.8994252592	-0.501277
H	 1.1558318244	 1.7133558659	-0.1032173129	 0.291184
H	-2.090418835	-0.1154775346	 0.6958963444	 0.121271
H	-1.8843560002	 0.7975248723	-0.8108292915	 0.116762
H	-1.4147145697	-2.2118096823	-0.3868855857	 0.124354
H	-2.4575047583	-1.4772058878	-1.6029801887	 0.111271
H	 0.2260575075	-2.1903266536	-2.1563604982	 0.142573
H	-0.5570586611	-0.8499896577	-2.9767789601	 0.143362
H	 1.3527762967	-2.0928980137	 2.6421219271	 0.204496
