19
gdb 74963	2.4113	1.91677	1.47513	1.4668	75.59	-0.2345	0.0118	0.2464	985.2841	0.159118	-423.034499	-423.026475	-423.025531	-423.066501	31.765	
C	-0.012454432	 1.5057555633	-0.0010990186	-0.510993
C	-0.0887219491	 0.018680254	-0.0474609573	 0.342552
C	-0.0760629889	-0.8276461248	-1.0811429886	-0.222732
C	 0.0156034645	-2.2119943566	-0.4628527494	-0.033628
C	 1.4476136841	-2.3148925116	 0.1553768712	-0.081772
O	 1.3669895537	-1.3711438735	 1.2248084425	-0.307259
C	-0.0167225326	-0.9014473166	 1.1861772969	 0.377101
C	-0.4343295943	-0.4083111559	 2.5420537597	-0.499782
O	-0.7242629558	-2.0467174	 0.7596808278	-0.258601
H	 0.9049227645	 1.8309042571	 0.5059539101	 0.13946
H	-0.0138993934	 1.9367845659	-1.0057958461	 0.127613
H	-0.8515152731	 1.938554058	 0.5570275762	 0.130274
H	 0.0123481745	-0.6018600202	-2.1354734443	 0.100968
H	-0.3345145302	-3.071465844	-1.0308747274	 0.087835
H	 1.634578152	-3.3167274797	 0.5574080316	 0.106119
H	 2.2415510784	-2.0412061944	-0.547250873	 0.099908
H	 0.2056259488	 0.4208877814	 2.8533726771	 0.132328
H	-1.471773135	-0.0655741733	 2.5179121415	 0.130833
H	-0.3397854761	-1.2163434192	 3.2703724903	 0.139776
