13
gdb 25117	3.28788	1.41838	1.04833	4.2437	71.09	-0.2547	-0.0931	0.1616	1053.8447	0.091047	-452.794511	-452.787395	-452.786451	-452.826582	26.343	
O	 0.0003522341	 0.0892569656	-0.6805457187	-0.321868
C	-0.0036896765	 1.172146351	-0.15125849	 0.424351
N	-1.2334491312	 1.7550060646	 0.2226731633	-0.337736
C	-1.5991829946	 3.0732219926	 0.1937794975	 0.030478
C	-0.8433744837	 4.1713175997	-0.0350554887	-0.206312
C	 0.5992139177	 4.2403203078	-0.196008586	 0.317824
O	 1.1905627925	 5.2511514107	-0.5368743953	-0.33269
C	 1.4336640438	 3.0517970191	 0.2251522392	-0.043346
N	 1.1744732722	 1.8080993486	 0.2432198179	-0.227779
H	-1.9852256557	 1.0799165137	 0.1696676004	 0.27403
H	-2.6663749058	 3.2053831567	 0.3441965654	 0.144147
H	-1.3516180367	 5.1275569055	-0.0778466132	 0.126682
H	 2.4296951338	 3.3570458944	 0.5577600782	 0.152218
