19
gdb 13351	4.68583	1.13823	1.0682	3.7131	72.88	-0.2468	0.0351	0.2818	1162.8387	0.167556	-365.109132	-365.100891	-365.099947	-365.143675	29.454	
O	 0.4080215971	-0.4402566804	 0.7931057903	-0.325167
C	 0.081597322	 0.6599041271	 0.3993889667	 0.150394
N	 0.9121552865	 1.5767457756	-0.1647210072	-0.29126
C	 2.331980799	 1.3627437679	-0.3754365959	 0.062693
C	 2.7787802856	 1.5359127898	-1.8433067449	-0.214657
C	 4.297010752	 1.8486158766	-1.7765788236	-0.204122
C	 4.6157932849	 2.1118594407	-0.2753905582	-0.202137
C	 3.2502232725	 2.3285898047	 0.3935364037	-0.214079
H	-0.9591554275	 1.0373184097	 0.4612307914	 0.069651
H	 0.5151049432	 2.4594570061	-0.4490204578	 0.240918
H	 2.5215048466	 0.339061836	-0.0415459193	 0.124937
H	 2.5431007651	 0.6574376983	-2.4490641295	 0.109427
H	 2.2333810013	 2.379974151	-2.2836391572	 0.087889
H	 4.8964308726	 1.0207182253	-2.164108795	 0.105405
H	 4.5384528875	 2.7205877791	-2.3906928333	 0.101903
H	 5.1011043181	 1.2335304033	 0.1636914437	 0.107034
H	 5.2964782813	 2.9547215813	-0.1312994819	 0.098082
H	 2.9041177603	 3.3600255582	 0.238791362	 0.085776
H	 3.2530641321	 2.1402931894	 1.470304056	 0.107313
