16
gdb 94348	2.64814	1.32228	1.10845	2.1836	70.11	-0.2553	0.0194	0.2747	1118.0652	0.123161	-437.856742	-437.848217	-437.847273	-437.890415	31.036	
O	 0.1779282445	 1.2289508347	-0.2907540632	-0.41795
C	 0.0701220232	-0.1163128337	 0.0808433245	-0.024348
C	-0.0386790994	-0.3528892531	 1.6002340403	-0.097901
O	-1.2601696763	-1.1239908736	 1.4264780993	-0.306888
C	-1.3165221969	-0.7670406539	 0.0599714668	 0.444842
C	-2.5438657397	-0.3039149844	-0.624389344	-0.34421
C	-1.9355628685	-1.6681672481	-0.9911596896	-0.282096
C	-1.2354674756	-1.8204237618	-2.2316845329	 0.288304
N	-0.6288938298	-1.8989074392	-3.2150863718	-0.345956
H	 0.4804017268	 1.2719628126	-1.20311123	 0.301047
H	 0.8297327652	-0.7393474873	-0.4037592556	 0.1082
H	 0.7485240253	-0.9409738383	 2.0786946672	 0.120355
H	-0.2197959955	 0.573124199	 2.1558107188	 0.125314
H	-3.4756027078	-0.3407389863	-0.0714905931	 0.143021
H	-2.452429419	 0.504364196	-1.3413826115	 0.143248
H	-2.4590501365	-2.5467341825	-0.6299866052	 0.145016
