20
gdb 26222	3.2552	1.04782	0.96405	1.7865	82.59	-0.2236	0.0137	0.2373	1353.3312	0.170289	-403.206509	-403.196983	-403.196039	-403.241314	34.463	
C	 0.0816850569	 1.5560708549	 0.0060082166	-0.385356
C	 0.0705891912	 0.015169315	 0.0023712153	-0.095759
C	 0.7903837887	-0.5436868448	-1.2402542386	-0.385349
C	 0.6443579583	-0.5396346534	 1.2634010361	 0.354229
C	 0.1772035264	-1.3017886529	 2.2805739921	-0.227881
N	 1.1869445213	-1.5150318344	 3.2144266608	-0.299555
C	 2.2099324031	-0.8838087307	 2.7341509885	 0.377691
C	 3.5763285101	-0.7607056029	 3.3048379448	-0.489311
O	 1.9626674645	-0.2627539539	 1.5479956904	-0.219114
H	 1.1071326303	 1.934624051	 0.0583516934	 0.127556
H	-0.3776765016	 1.9451165738	-0.9080975298	 0.11273
H	-0.4693128349	 1.9528000407	 0.863558539	 0.120174
H	-0.9730838601	-0.3214010253	-0.0240631371	 0.091955
H	 1.8450933213	-0.2518282265	-1.2393291915	 0.127544
H	 0.7419407686	-1.6360904311	-1.2665541534	 0.120177
H	 0.3317678091	-0.1567090806	-2.1556145063	 0.112732
H	-0.81146399	-1.7132923605	 2.4104772973	 0.115997
H	 4.3288846787	-1.1701041642	 2.622653039	 0.142673
H	 3.8355449582	 0.2871531714	 3.4895956482	 0.142681
H	 3.6149393399	-1.3080313955	 4.2468817452	 0.156187
