18
gdb 88222	3.88508	0.72623	0.65422	2.4995	87.83	-0.2406	-0.051	0.1895	1728.8274	0.144714	-401.906843	-401.89682	-401.895875	-401.943456	34.621	
C	 0.1516836303	 1.4671047666	-0.4088570237	-0.317428
N	 0.0576129901	 0.0494945781	-0.0748877961	-0.073229
C	 1.2956745751	-0.6883253966	 0.0249149943	-0.233892
C	 0.4982842817	-0.3838033175	 1.2675759575	-0.188032
C	 1.0217681504	 0.5432598597	 2.2240616286	 0.090307
C	 1.4318918158	 1.337471856	 3.0396404523	 0.033017
C	 1.9431312862	 2.2933305577	 3.9997662123	 0.244379
C	 1.9102540998	 1.8456537601	 5.4475190665	-0.477791
O	 2.3662750734	 3.3771721382	 3.6533443302	-0.281282
H	 1.0393235353	 1.964912586	 0.0061144395	 0.128172
H	 0.1738677148	 1.5571777015	-1.4987807516	 0.129201
H	-0.7385765304	 1.9821935504	-0.0374103416	 0.133518
H	 1.2896042537	-1.7025669294	-0.3653022286	 0.128053
H	 2.2327926838	-0.1469055392	-0.0934041682	 0.127561
H	-0.1160513587	-1.177941512	 1.6847887007	 0.122588
H	 2.4865839607	 0.9223949225	 5.5705327441	 0.145539
H	 2.3232708328	 2.6318483	 6.0811668958	 0.143057
H	 0.8810815552	 1.6229484979	 5.7493120276	 0.146262
