16
gdb 126855	2.85854	1.55904	1.09459	0.2761	74.53	-0.2557	-0.0774	0.1783	1086.5541	0.125287	-434.078528	-434.070671	-434.069726	-434.111304	29.018	
C	-0.0011817179	 1.531365131	-0.0824133485	-0.386951
C	-0.0377469081	 0.011313375	 0.0738224318	-0.130056
N	-1.406868282	-0.5194744746	 0.0211086835	-0.071242
N	-1.9557464121	-0.7885064969	 1.2134114028	-0.054668
N	-3.1478754172	-1.2440278573	 1.2858557059	-0.222938
C	-3.8512028041	-1.4553255536	 0.122657738	 0.062036
C	-3.3588129104	-1.2103181601	-1.1148315934	-0.243981
C	-2.0230733189	-0.6825154169	-1.2464123981	 0.471504
O	-1.4307485267	-0.3907108951	-2.2689779609	-0.39588
H	 1.0341758492	 1.8797144998	-0.0261138836	 0.127666
H	-0.4116794165	 1.826983152	-1.0501299775	 0.153381
H	-0.5713493735	 2.0174815753	 0.7143939148	 0.132234
H	 0.5181249209	-0.4690313636	-0.7338049678	 0.145795
H	 0.3679843056	-0.3015601319	 1.036703033	 0.13576
H	-4.8520565935	-1.8443567219	 0.2776190646	 0.140012
H	-3.9268426649	-1.3863081112	-2.0199385447	 0.137329
