23
gdb 41372	2.30735	1.74386	1.70702	0.1472	87.44	-0.238	0.0786	0.3166	1014.7078	0.208761	-351.144557	-351.136947	-351.136003	-351.176209	32.166	
C	 0.0324353431	 1.5639331875	-0.2526747509	-0.306274
C	 1.444730745	 1.6386563887	 0.4210015166	-0.306274
C	 1.4421319802	 0.0920047577	 0.5909444571	 0.357834
C	 0.8383693521	-0.4430203307	 1.9206959626	-0.291753
C	-0.5720867626	-0.5176496145	 1.2478909115	-0.291753
C	 0.0353110532	 0.0175703053	-0.0801253571	 0.357834
C	 0.15140805	-0.9292711183	-1.2743290986	-0.315543
C	 1.4043893136	-1.7843660177	-0.9360912969	-0.20045
C	 2.3769440545	-0.8115220006	-0.2127198713	-0.315543
H	-0.7675656443	 2.0907399041	 0.275803285	 0.092943
H	 0.0195726178	 1.8927663827	-1.2957648252	 0.09521
H	 2.2333184457	 2.0098877456	-0.2397938335	 0.09521
H	 1.490095573	 2.2101955811	 1.3527208495	 0.092943
H	 1.2344987523	-1.4158132312	 2.2272955943	 0.095
H	 0.9198599016	 0.2373810625	 2.7734878632	 0.09321
H	-0.9739619388	-1.5326664947	 1.1738305843	 0.095
H	-1.342855176	 0.1176561464	 1.6941458367	 0.09321
H	-0.7381642249	-1.5452184819	-1.4450851686	 0.091789
H	 0.3306286383	-0.3587113784	-2.1940594731	 0.091552
H	 1.1219398949	-2.5960594657	-0.2539407012	 0.099279
H	 1.8498450205	-2.2552861323	-1.8177032698	 0.093235
H	 2.9289338747	-0.2212414868	-0.9546352648	 0.091552
H	 3.1188107561	-1.3411530585	 0.3947440001	 0.091789
