18
gdb 69675	3.41142	1.29136	1.17685	1.5837	82.91	-0.218	0.0241	0.242	1116.6859	0.145921	-364.683248	-364.67502	-364.674076	-364.715592	32.61	
C	 0.1107444588	 1.6117456995	-0.0223305923	-0.495962
C	 0.0062888443	 0.1174686406	 0.0598185904	 0.331977
C	-0.8629944808	-0.6393647886	 1.0246124182	-0.361841
C	 0.6239517137	-0.883142946	 1.0135713421	-0.05012
N	 1.2286132313	-1.7099086387	-0.1077909561	-0.167133
C	 0.2123869571	-2.2462660869	-1.0625765213	-0.181711
C	-1.0095950988	-2.9444110167	-0.7725973977	 0.307052
C	-1.9824732469	-3.6400632901	-0.6365272524	-0.417044
C	 0.5364067271	-0.7898561152	-1.071559582	-0.117671
H	 1.0907496077	 1.9255245272	-0.4001525469	 0.122065
H	-0.6530869769	 2.0288195978	-0.6901964277	 0.123518
H	-0.0289861995	 2.065908022	 0.9635258075	 0.122
H	-1.1660717791	-0.039306809	 1.8794993226	 0.110885
H	-1.5954082007	-1.3715311507	 0.719854847	 0.143591
H	 1.2522315498	-0.7434647979	 1.8841217985	 0.104094
H	 0.7640682937	-2.7670280844	-1.8465747909	 0.12929
H	-2.8561843494	-4.2252046411	-0.4878735027	 0.198691
H	 1.0823082886	-0.3669647818	-1.9120917263	 0.098318
