20
gdb 87526	3.3791	1.39469	1.28996	2.1056	79.21	-0.2208	0.0869	0.3077	1070.8311	0.171989	-403.083754	-403.076029	-403.075085	-403.115646	30.98	
C	-0.1311249562	 1.4473975344	-0.0597395215	-0.318114
N	 0.0410260525	 0.003417761	 0.0396255941	-0.167994
C	 1.408258276	-0.5071657101	-0.1903854599	-0.362057
C	 0.796902572	-0.5194504971	 1.1505072719	 0.45804
C	 1.1645524183	 0.1670215227	 2.4914565337	-0.173538
C	-0.1393756533	-0.5037855359	 3.0414270227	-0.242702
C	 0.32639375	-1.6369215523	 2.0910382296	 0.015309
O	 1.5542604196	-2.0889896936	 2.6866481701	-0.281852
C	 2.2147308825	-0.8351509723	 2.9920573124	-0.076611
H	 0.7401992477	 2.0248214708	 0.2900110639	 0.099249
H	-0.3179027633	 1.7113354616	-1.1052142276	 0.125591
H	-1.0036204836	 1.7530257944	 0.5271032916	 0.122531
H	 1.4826852404	-1.4152004467	-0.7827920548	 0.121108
H	 2.1904938641	 0.2280923976	-0.3797758517	 0.105545
H	 1.3816292085	 1.2289180764	 2.5926838592	 0.077082
H	-0.1865737865	-0.7389688152	 4.107364374	 0.098503
H	-1.0468161472	-0.004080862	 2.7001819755	 0.112623
H	-0.2840535588	-2.4831264942	 1.7837449185	 0.086596
H	 3.1669279484	-0.7709259323	 2.4529376426	 0.101612
H	 2.4064519989	-0.7658797372	 4.0695910757	 0.099079
