17
gdb 64863	3.84614	0.94144	0.86051	3.7044	73.88	-0.2551	-0.0445	0.2106	1333.1106	0.134717	-418.007205	-417.998199	-417.997255	-418.041489	32.495	
C	-0.1678578224	 1.6928143916	 0.0558384864	-0.461148
C	 0.0370347956	 0.1838163543	 0.0581735324	 0.222066
C	 0.7696592359	-0.3794289958	-1.2055817618	-0.294675
C	 2.0389979466	-0.4585395631	-0.309953851	-0.110474
N	 1.1706426087	-0.3269341681	 0.8776244428	-0.342398
C	 2.836544139	-1.6847963531	-0.3669336221	 0.292931
N	 3.4692528767	-2.6496791872	-0.430044697	-0.315606
C	-1.2489370068	-0.5683998264	 0.3798519334	 0.139111
O	-2.3515520482	-0.0902966007	 0.3338402737	-0.245855
H	 0.7391902622	 2.2152502312	-0.2632472948	 0.115424
H	-0.9863774236	 1.9632743004	-0.6158493439	 0.148951
H	-0.4388441614	 2.0447649229	 1.0565139932	 0.132673
H	 0.415201455	-1.3644916021	-1.5128847433	 0.140121
H	 0.8194002913	 0.2829938016	-2.0687707898	 0.134689
H	 2.7115921472	 0.3918846225	-0.4816936458	 0.120466
H	 1.5093064139	 0.293673127	 1.6053812813	 0.231564
H	-1.0709769595	-1.631051845	 0.6573982963	 0.09216
