19
gdb 55933	4.34479	0.92458	0.83547	4.7737	75.03	-0.2277	0.0283	0.2561	1384.2846	0.159404	-419.192739	-419.183615	-419.18267	-419.228333	33.006	
N	-0.004675047	 1.3538924631	 0.0185974859	-0.525836
C	 0.0305209783	 0.0124377694	 0.2687606539	 0.416767
O	 1.0189060942	-0.5394819149	 0.7144330735	-0.352245
C	-1.2649790736	-0.7352670851	-0.0457577829	-0.354559
C	-1.074807229	-2.2460973589	 0.015580533	 0.036622
C	-0.8092159825	-2.9550575713	 1.3700162474	-0.168955
N	-1.9332718752	-3.93885861	 1.1471346299	-0.127412
C	-3.154550293	-3.1198749344	 1.0940484004	-0.236677
C	-2.2959829639	-3.1571434016	-0.1075584788	-0.069438
H	 0.8038134431	 1.906076543	 0.2526815322	 0.260988
H	-0.8272613903	 1.8179464184	-0.3234525021	 0.257748
H	-2.0285282783	-0.4085918604	 0.6720394219	 0.120704
H	-1.6310432696	-0.4338134456	-1.036187775	 0.11364
H	-0.3052051611	-2.5362739436	-0.7031265635	 0.094388
H	 0.1509427254	-3.4674618423	 1.4189935638	 0.122106
H	-0.9343779877	-2.3504680634	 2.2743622538	 0.100095
H	-4.0646465053	-3.7120806415	 1.07221999	 0.118562
H	-3.2164861632	-2.2241759259	 1.7097797569	 0.103546
H	-2.6084003612	-3.6623028251	-1.0169910405	 0.089956
