22
gdb 59340	2.8631	1.10792	0.85373	3.3967	84.95	-0.2405	0.0379	0.2784	1430.2832	0.192979	-404.385125	-404.374789	-404.373845	-404.420573	37.044	
C	 0.0631006844	 1.6150161173	 0.1668004898	-0.392655
C	 0.0431731459	 0.086616768	 0.0301717118	 0.024183
C	 0.7752626102	-0.5897566761	 1.1984869096	-0.397099
C	-1.3893542908	-0.4439924762	-0.0781481028	-0.133827
C	-2.2017539051	-0.1317429606	-1.3745993803	-0.20807
N	-2.2743672545	-1.5753241848	-1.6046454009	-0.06839
C	-2.8525447387	-2.3633874166	-2.6599814276	-0.344495
C	-1.5462639939	-1.9281509639	-0.4971906236	 0.406769
O	-1.1832469427	-3.0003907019	-0.0796631782	-0.386998
H	 1.0914248227	 1.9879286599	 0.2158192031	 0.114755
H	-0.4304358495	 2.107949422	-0.6775396908	 0.110102
H	-0.4482309264	 1.9308437519	 1.0839352596	 0.113675
H	 0.5652421438	-0.1808048865	-0.9003174848	 0.074857
H	 0.7385421184	-1.6779973936	 1.1071649752	 0.150639
H	 1.8227940711	-0.2735818218	 1.235295865	 0.105999
H	 0.3126420592	-0.3167587848	 2.1547190596	 0.109005
H	-1.9487985584	-0.2174284723	 0.836222632	 0.093897
H	-3.1757680404	 0.3484673629	-1.2272181463	 0.10666
H	-1.6441631903	 0.4104356505	-2.148354732	 0.106121
H	-2.4159210105	-2.1153484013	-3.6356873476	 0.126358
H	-2.6461419877	-3.4134741221	-2.438905269	 0.161432
H	-3.9387026569	-2.2218150101	-2.7214782017	 0.127083
