19
gdb 67647	3.16069	1.75776	1.55745	1.3319	77.26	-0.2335	0.0787	0.3122	925.871	0.16191	-385.848734	-385.842068	-385.841124	-385.879241	28.681	
O	-0.1082358442	 1.4209275662	-0.0787604488	-0.468976
C	 0.0291346915	 0.0478742359	-0.0341889235	 0.39092
C	-0.0756717514	-0.8328251554	 1.1715550411	-0.131527
C	 1.1330197489	-1.7462337611	 1.2908521706	-0.227837
C	 1.497380574	-2.0355270087	-0.1763834598	-0.044449
C	 0.4604582453	-3.0172631349	-0.7948711698	-0.23724
C	-0.397577449	-1.7902340292	-1.170830908	-0.013607
C	-1.0524978181	-1.0151433274	-0.0070645096	-0.142321
C	 0.8402482599	-0.8522423494	-1.0089079641	-0.130426
H	 0.5907368796	 1.8145133425	 0.4555366968	 0.282845
H	-0.5367419848	-0.4108748887	 2.059204291	 0.082232
H	 1.9426988167	-1.2209043178	 1.8145491295	 0.085274
H	 0.9351637172	-2.6724754012	 1.8424016116	 0.095963
H	 2.5532377608	-2.2635177967	-0.3302378904	 0.060322
H	 0.8490615087	-3.5082867558	-1.6922746805	 0.093503
H	 0.0321159945	-3.7767769764	-0.1325906016	 0.087601
H	-0.9937326962	-1.7997891935	-2.0847783569	 0.064992
H	-2.1167834145	-0.9068124169	 0.1657224029	 0.085793
H	 1.3688738913	-0.4214742714	-1.8562184703	 0.066937
