22
gdb 60975	2.30044	1.10964	0.90843	2.9218	83.56	-0.2458	-0.0209	0.2249	1409.9547	0.190906	-404.344858	-404.334102	-404.333158	-404.381512	38.66	
C	 0.286959586	 1.4133154866	 0.2025308968	-0.413998
C	-0.1646889263	-0.0471120114	 0.0191721655	-0.071321
C	-1.6774029504	-0.1124925915	-0.0729941589	 0.167494
O	-2.3972574655	-0.7069611116	 0.6866828955	-0.250609
C	 0.441643165	-0.6334146371	-1.2477259827	-0.063688
N	 1.8633814242	-1.0196369171	-1.1886518912	-0.373946
C	 0.8400062393	-2.0582152161	-1.4404150885	 0.319756
C	 0.6833922223	-3.0886494685	-0.3397469066	-0.44166
C	 0.7387144234	-2.6281813982	-2.8425512309	-0.458379
H	 1.3792092032	 1.4560036232	 0.2153827132	 0.142271
H	-0.0693256797	 2.0459571882	-0.6189245606	 0.115249
H	-0.0902505759	 1.8317188076	 1.1401535595	 0.126838
H	 0.1367768417	-0.63687479	 0.8871221245	 0.100051
H	-2.1037818461	 0.4604036027	-0.9330026663	 0.065132
H	 0.1144563481	-0.1180378492	-2.1528449289	 0.076385
H	 2.3343425556	-0.7654609333	-2.053987159	 0.225022
H	 0.8977136755	-2.6642904064	 0.6419563266	 0.133023
H	-0.3320489192	-3.4989691684	-0.3283418344	 0.125522
H	 1.3804808082	-3.918781992	-0.500331545	 0.116232
H	 1.5338911543	-3.3616683672	-3.0204892426	 0.122904
H	-0.2188808525	-3.1389929135	-2.9922539631	 0.127468
H	 0.8231736188	-1.8437939767	-3.6019853129	 0.110254
