19
gdb 75179	4.70648	0.97752	0.83789	1.5779	85.04	-0.2401	0.0197	0.2597	1380.8425	0.158109	-385.864822	-385.855903	-385.854959	-385.898222	33.869	
C	 0.0447971128	 1.5202152663	 0.0871525517	-0.480187
C	-0.0180969001	 0.0243613943	-0.0348658352	 0.294397
C	-0.0715232823	-0.6256923214	-1.1978175298	-0.168265
C	-0.079200634	-2.1282193351	-1.2863635894	-0.255109
C	 0.3822757555	-2.7293670534	 0.0534125556	-0.072439
O	-0.3257610653	-2.1182626157	 1.1280601841	-0.258574
C	-0.0096302681	-0.7462408526	 1.264375792	-0.146372
C	 0.1747907106	-4.1722316546	 0.1191366476	 0.296759
C	 0.0149977262	-5.3625178784	 0.1317552246	-0.408544
H	 0.9390455117	 1.838171063	 0.6390692174	 0.125315
H	 0.0670857716	 1.9999167345	-0.894748219	 0.125371
H	-0.8182796174	 1.9127616545	 0.6401645416	 0.126175
H	-0.1004845786	-0.0682667942	-2.131364262	 0.081996
H	-1.0802502103	-2.5079191893	-1.5272095951	 0.124139
H	 0.5860958586	-2.4742772874	-2.0863362239	 0.113023
H	 1.46075539	-2.522768	 0.1693232985	 0.094359
H	 0.9716318027	-0.6219913102	 1.7609707667	 0.095273
H	-0.7609890116	-0.3369365222	 1.9507837526	 0.117344
H	-0.1264963121	-6.4147375582	 0.1570065519	 0.195338
