16
gdb 66654	2.77741	2.17752	1.47324	2.6317	70.72	-0.2347	-0.0253	0.2095	885.5399	0.124888	-400.708134	-400.701226	-400.700282	-400.739292	27.475	
C	-0.0904013028	 1.4984782306	 0.0396471541	-0.495734
C	-0.0923589333	-0.0002820572	 0.058268064	 0.174209
C	-1.0856880354	-0.8660857673	-0.6415980912	-0.090398
C	-0.8198840542	-2.3200708818	-0.1864310501	-0.117855
C	 0.5631069898	-2.1607132546	-0.7161621447	-0.018638
C	 0.3590114938	-2.1862459426	 0.7804888846	-0.215458
C	 0.4224780984	-0.7678154795	 1.2527935165	 0.430708
O	 0.7941658823	-0.3207812819	 2.3058872933	-0.331297
N	 0.2910051828	-0.732117415	-1.1947963548	-0.191763
H	 0.9278046952	 1.8797122692	 0.1595180928	 0.139649
H	-0.4924217429	 1.878390351	-0.9024422145	 0.130094
H	-0.6938486032	 1.8870414586	 0.8652857244	 0.135343
H	-1.9561823552	-0.4977605949	-1.1726353382	 0.106247
H	-1.4977428338	-3.1608758338	-0.1929597229	 0.111275
H	 1.2238264463	-2.8073501683	-1.2765709894	 0.115425
H	 0.6849306823	-3.0200676425	 1.3845118261	 0.118194
