16
gdb 127837	3.90382	1.1204	0.88001	1.5237	85.09	-0.2285	-0.0763	0.1522	1296.3068	0.120724	-434.027603	-434.018292	-434.017348	-434.062167	32.473	
C	 0.1155428395	 1.4403217335	 0.1185038252	-0.334663
N	 0.2311702252	-0.0004462784	 0.1007935025	-0.290665
C	 0.5216993355	-0.6439386614	-0.9548641113	 0.409164
C	 0.6557402889	-2.067201777	-1.0593323904	-0.309888
C	 0.9698194153	-2.6621592622	-2.2345665754	 0.426054
C	 1.1251132396	-4.1421195576	-2.4130208118	-0.465142
O	 1.1749468462	-1.9871485236	-3.3633015098	-0.322514
N	 1.0333122219	-0.4079403179	-3.2787804469	 0.021997
N	 0.7549698201	 0.060252186	-2.2171898069	-0.092979
H	 0.8189642805	 1.8407069188	 0.8583172755	 0.13376
H	 0.2974076421	 1.9291511557	-0.8451959163	 0.129763
H	-0.888266323	 1.7084789323	 0.4690647182	 0.13376
H	 0.4986252005	-2.6596441969	-0.1692057461	 0.119603
H	 0.4178304264	-4.5077499601	-3.1644816335	 0.152034
H	 2.1322736712	-4.3749873137	-2.7736131132	 0.152034
H	 0.9506767301	-4.6647358576	-1.4704074199	 0.137685
