17
gdb 69574	2.8708	1.48992	1.18169	2.9533	74.42	-0.2325	-0.0116	0.221	1068.394	0.134603	-421.794785	-421.786514	-421.78557	-421.827448	31.576	
O	-0.0347827006	 1.4292437054	-0.0075487472	-0.447385
C	 0.0055427719	 0.0570688834	 0.0690116276	 0.285589
C	-0.2905503359	-0.8351202392	-1.1342831766	-0.349666
C	-1.1863211832	-0.9310148161	 0.0619481312	-0.229214
C	-0.4948597796	-1.7785178314	 1.1192248637	 0.26741
C	-1.0760579912	-2.4345282573	 2.3417998357	-0.33094
C	-0.4059858875	-3.2714898569	 1.2842472851	-0.32106
C	 0.63216114	-0.7602406623	 1.1810418031	 0.287906
O	 1.5498442384	-0.5858218379	 1.9338436433	-0.335356
H	 0.7373226544	 1.733487004	-0.4975208224	 0.298169
H	-0.6823936273	-0.2657717215	-1.9722081639	 0.125144
H	 0.3587372335	-1.6634566696	-1.403367422	 0.122706
H	-2.2358303843	-0.6693563784	 0.0476216323	 0.116167
H	-0.5520501184	-2.2699801647	 3.2774402838	 0.13789
H	-2.1570036152	-2.478304664	 2.421951013	 0.122467
H	-1.0324766353	-3.8858691792	 0.6459967931	 0.120571
H	 0.5700784103	-3.6899738743	 1.5071103101	 0.129602
