15
gdb 48643	2.63351	1.61502	1.32021	3.7798	66.97	-0.2402	-0.0488	0.1914	980.03	0.111577	-457.749505	-457.741946	-457.741002	-457.781915	28.02	
O	-0.7455598973	 0.8923026421	 0.4952854084	-0.250973
C	 0.2586496464	 0.8218866899	-0.1680975179	 0.06097
C	 1.3646132644	 1.8163130173	-0.068771213	 0.235245
C	 1.7372235723	 2.6285446766	 1.1968766038	-0.284715
C	 2.5423490564	 3.5092892243	 0.1766518345	-0.201674
C	 3.51024486	 2.4552736749	-0.3865402808	-0.084571
O	 2.6210908451	 1.3121017797	-0.539488889	-0.323139
C	 1.3378663485	 3.2434604227	-0.7518647503	 0.410804
O	 0.644084783	 3.8546193485	-1.4956616097	-0.290268
H	 0.4195982446	 0.0275259755	-0.926411048	 0.100025
H	 0.8836680881	 3.1346404027	 1.6479946804	 0.147736
H	 2.3263400156	 2.0844464917	 1.9374431248	 0.126986
H	 2.9186769204	 4.5063569665	 0.3908741326	 0.108426
H	 3.9356027407	 2.7321841772	-1.3568692611	 0.125814
H	 4.3199960718	 2.1970663604	 0.3042852653	 0.119337
