22
gdb 117643	2.72431	0.9833	0.86887	14.8345	82.44	-0.1661	-0.0138	0.1523	1444.5281	0.192271	-441.455378	-441.444443	-441.443499	-441.491722	39.252	
C	-0.0173923144	 1.5788157438	 0.0068665571	-0.344299
N	 0.0168853649	 0.0910658074	-0.0258175547	-0.253921
H	 0.4895305011	-0.2775744062	 0.8026983714	 0.307188
H	-0.9305733504	-0.2926939283	 0.0019890959	 0.30719
C	 0.7192528101	-0.5266104211	-1.2597249471	-0.208229
C	 0.6925065347	-2.0400744685	-1.1831870174	 0.124054
C	 1.4617559493	-2.5749497363	 0.0305080709	-0.440298
C	-0.7350899532	-2.5988106477	-1.2083695463	-0.4403
C	 1.4540188431	-2.5336644683	-2.5238436816	 0.37096
O	 1.8489440092	-1.5936719233	-3.2417486492	-0.482164
O	 1.5258827314	-3.7617889995	-2.6268981834	-0.466293
H	 1.008783439	 1.9466736518	-0.0082571059	 0.188054
H	-0.5414690231	 1.9301612383	-0.8822253467	 0.188047
H	-0.528749942	 1.9235586585	 0.9073984656	 0.166786
H	 0.1898083696	-0.1450036849	-2.131863243	 0.157791
H	 1.7331190477	-0.1283410865	-1.2617856466	 0.157822
H	 0.9419076856	-2.4303882854	 0.9947373494	 0.05513
H	 1.5962915913	-3.6500419361	-0.1116122875	 0.16651
H	 2.4600218957	-2.1270990354	 0.1055317315	 0.112178
H	-1.3230553353	-2.1681938789	-2.0278817032	 0.11217
H	-0.6653616693	-3.6746031456	-1.3870394329	 0.166496
H	-1.2935981549	-2.4546206477	-0.2659545863	 0.055131
