18
gdb 55533	3.1825	0.99129	0.88067	2.4925	75.3	-0.2562	-0.051	0.2052	1366.5027	0.145705	-439.097273	-439.087731	-439.086787	-439.133351	33.249	
C	 0.844491387	 0.6032321043	-0.2279741464	-0.475956
C	-0.1124345599	-0.1900445917	 0.6330805216	 0.374506
O	 0.1791273581	-0.6415941178	 1.7138072765	-0.288088
C	-1.5039200086	-0.4413227558	 0.0234351432	-0.386702
C	-1.4425856925	-1.7333257442	-0.7885077998	 0.370627
O	-1.2706555027	-1.7254155292	-1.990429265	-0.335575
C	-1.5639080205	-3.0072066792	-0.019924498	-0.098144
C	-2.5836001885	-3.9849359679	-0.5307679872	-0.223679
N	-1.1626857786	-4.2461764499	-0.6973603789	-0.299625
H	 1.8455083673	 0.5857831201	 0.2038234673	 0.147196
H	 0.8550478041	 0.1984786776	-1.2459632329	 0.161176
H	 0.4961933698	 1.6401294828	-0.3043034628	 0.147181
H	-2.2162198962	-0.5425220677	 0.8454287946	 0.138199
H	-1.7925411523	 0.3683219538	-0.6491820255	 0.130973
H	-1.3584297677	-2.9517223679	 1.044294517	 0.125784
H	-3.0984907668	-4.6176196601	 0.1862005047	 0.131719
H	-3.1653312531	-3.681938007	-1.3971616906	 0.131949
H	-0.892065129	-3.9875379502	-1.6472325578	 0.248459
