19
gdb 57679	2.39041	1.01269	0.85319	3.9807	73.39	-0.2558	-0.0315	0.2243	1402.541	0.154387	-460.199035	-460.188544	-460.1876	-460.235325	36.568	
C	-0.0341536226	 1.5968237576	 0.0144936916	-0.417559
C	 0.0561464032	 0.06973835	 0.0996281808	 0.308948
C	 0.8112784136	-0.3935433198	 1.3515266948	-0.418516
C	-1.3589579581	-0.540578628	 0.054204086	-0.28596
C	-1.3825937451	-2.0575957167	 0.0899849954	 0.144711
O	-2.031609517	-2.698142315	 0.8773587775	-0.241556
O	 0.6847817296	-0.4645196331	-1.1091809921	-0.229702
C	 1.9568432871	-0.1550578903	-1.4150914993	 0.166751
O	 2.4935939988	-0.5735324586	-2.3981752387	-0.274597
H	 0.9533406351	 2.0642813393	 0.0588985185	 0.125288
H	-0.5199392151	 1.8997309655	-0.9169887449	 0.137211
H	-0.6211549478	 1.9834552465	 0.8526597505	 0.132689
H	 0.2395878307	-0.1300587381	 2.2461594003	 0.137911
H	 0.9500667912	-1.4781499017	 1.3455927265	 0.144561
H	 1.7931284811	 0.0796497303	 1.4341541619	 0.125696
H	-1.9588302071	-0.1662425354	 0.8877034826	 0.122893
H	-1.8314874665	-0.2255226485	-0.8854049646	 0.133063
H	-0.7593890228	-2.5513576947	-0.6841252875	 0.106382
H	 2.4483251915	 0.5105926407	-0.6851549093	 0.081787
