15
gdb 35421	2.92213	1.61732	1.33493	4.0137	68.19	-0.2653	-0.0009	0.2644	956.1394	0.115101	-416.820773	-416.81378	-416.812836	-416.852909	26.186	
N	-0.5890963592	-1.0525875587	-0.6178882442	-0.325514
C	-0.3584061381	 0.048016834	-0.3503159182	 0.297313
C	-0.0743517811	 1.4262975634	 0.0071789204	-0.20498
C	-0.1243659177	 1.7894948711	 1.5381748252	-0.24228
C	 1.3700080107	 2.2058452316	 1.4883360746	-0.015942
N	 2.2779118095	 1.2318094048	 2.1074195708	-0.254688
C	 2.7474882395	 0.5389046742	 1.1559561296	 0.119238
O	 2.3800861574	 0.8086926114	-0.1307284738	-0.211037
C	 1.4276039604	 1.8714160845	-0.0336982477	 0.081
H	-0.7008758874	 2.0839931005	-0.6012212448	 0.132104
H	-0.8232845404	 2.5969028594	 1.7620621506	 0.123196
H	-0.3189462085	 0.946585458	 2.2012476926	 0.140779
H	 1.6021626138	 3.2189372857	 1.8212793796	 0.09605
H	 3.4510453949	-0.2794154564	 1.2521964096	 0.157232
H	 1.6705484662	 2.6306730964	-0.7766657045	 0.10753
