13
gdb 3140	4.38606	2.79551	1.95569	3.8807	56.5	-0.2387	0.0132	0.2518	651.9723	0.102214	-340.594424	-340.588205	-340.587261	-340.624335	23.089	
N	-0.0724648254	 1.192593448	 0.4123415064	-0.547018
C	-0.0109776175	-0.0138383482	 0.0455754535	 0.319331
N	 0.9467166772	-0.8750669882	-0.5030431615	-0.351748
C	 0.1028347048	-2.0849671956	-0.4152919859	-0.246042
C	-1.0174656822	-1.1473390042	 0.0768558881	 0.372897
C	-2.150331141	-1.3647097729	 0.9741752075	-0.257029
O	-2.3292393223	-1.1036726122	-0.4255634609	-0.252188
H	 0.8159120647	 1.6799896959	 0.2859420848	 0.213103
H	 1.9410781389	-0.8368949996	-0.3340808392	 0.243676
H	-0.08168195	-2.5668438243	-1.3795128649	 0.12744
H	 0.4351111664	-2.8275503551	 0.3185910377	 0.115122
H	-2.3956997238	-2.3756567168	 1.2963545906	 0.120262
H	-2.4551113898	-0.5592210969	 1.6391023637	 0.142194
