22
gdb 59305	2.60706	1.12249	0.99572	3.7394	82.83	-0.2414	0.0381	0.2795	1333.7035	0.192681	-404.38265	-404.372291	-404.371347	-404.418356	37.771	
C	 0.619769906	-0.3875541099	-1.9311912718	-0.390074
C	 0.0420823882	 0.0365801243	-0.5733315337	 0.020333
C	 0.0532766885	 1.5696051588	-0.4530190108	-0.394316
C	-1.3722840417	-0.511383011	-0.2921274014	 0.04318
N	-2.249715785	-0.7118884889	-1.4562234235	-0.32857
C	-2.461260493	-2.0558778824	-1.2610722502	 0.425465
O	-3.0951573326	-2.8797458302	-1.8656306349	-0.369057
C	-1.5981193041	-2.0370896466	 0.0253381856	-0.173883
C	-0.447914619	-3.0248440654	 0.1533454477	-0.420415
H	 1.6564394747	-0.0480947674	-2.0212563853	 0.112964
H	 0.6076622951	-1.4692220056	-2.0798314904	 0.124947
H	 0.0507961343	 0.0576340022	-2.7536052547	 0.113457
H	 0.6897425147	-0.3617889159	 0.2200210539	 0.083131
H	-0.60586603	 2.0284905657	-1.2001604792	 0.110326
H	-0.2844839153	 1.8978530019	 0.5353984912	 0.113768
H	 1.0593010642	 1.969498221	-0.6145226868	 0.115544
H	-1.8414196003	 0.1214006009	 0.4722393711	 0.075695
H	-2.6672780692	-0.0662905404	-2.1103954301	 0.246006
H	-2.2583050984	-2.1381429913	 0.8938176779	 0.103584
H	 0.2284806962	-2.9988156076	-0.7033466648	 0.129948
H	 0.1397534368	-2.8341478298	 1.0573330961	 0.119619
H	-0.8490227702	-4.0403434424	 0.2247234641	 0.138349
