19
gdb 74915	3.47022	1.50015	1.26354	1.8133	79.91	-0.2165	0.0101	0.2265	1048.7827	0.160706	-385.863699	-385.856369	-385.855425	-385.895206	29.753	
C	-0.1724523683	 1.5664411716	 0.0535345069	-0.475619
C	 0.0121202733	 0.0800815824	-0.054575181	 0.319742
C	-0.042688432	-0.5805644699	-1.2147333642	-0.152881
C	 0.1756314319	-2.0616995898	-1.234241457	 0.054761
O	 1.5185560171	-2.4396228462	-0.7412874123	-0.307417
C	 0.9254022872	-3.1058959713	 0.3692873719	 0.088743
C	 0.0655327683	-2.1675694799	 1.179489902	-0.072754
C	 0.2915723403	-0.6570042367	 1.2396617891	-0.320638
C	-0.4807139672	-2.8224917785	-0.070648758	-0.168726
H	 0.7097406988	 2.042495206	 0.5009560261	 0.126948
H	-0.3467916159	 2.0250482412	-0.923315545	 0.121861
H	-1.0206975724	 1.8118762687	 0.7058776589	 0.12309
H	-0.2263050446	-0.058262789	-2.1490009051	 0.080263
H	 0.0166851344	-2.5095067475	-2.2177206453	 0.078483
H	 1.4176171316	-3.9923208824	 0.7523932944	 0.097828
H	-0.3011812147	-2.6162255993	 2.0994360261	 0.088228
H	 1.3258357425	-0.4484319235	 1.5483313842	 0.123411
H	-0.3408770296	-0.2281466598	 2.0282978596	 0.101087
H	-1.3757749307	-3.426896056	-0.122682251	 0.093589
