19
gdb 81254	2.94787	1.51023	1.39898	2.1738	74.68	-0.2473	0.0627	0.31	1014.6538	0.16088	-422.943117	-422.935812	-422.934868	-422.974874	29.901	
O	 0.0091894842	 1.4353643173	-0.1338200592	-0.45348
C	 0.1106904779	 0.0544671244	-0.0491130778	 0.150346
C	 0.0194177063	-0.6063081405	 1.3402835016	-0.061948
O	-1.4243266818	-0.1494237309	 1.3860529648	-0.406135
C	-1.2183403656	-0.7785861025	 0.0408684727	 0.395307
C	-2.0886034671	-1.2891693326	-1.0694641401	-0.375746
C	-1.177715571	-2.4765499668	-1.5843885688	-0.194146
C	-0.0266121341	-2.751070702	-0.5228782114	-0.289565
C	-0.4841934673	-1.9315413445	 0.6879405112	-0.001287
H	-0.6881152336	 1.6679274254	 0.4977056935	 0.28651
H	 0.8914621757	-0.2760676381	-0.7343640587	 0.088678
H	 0.5894490521	-0.4307344921	 2.2538385445	 0.0939
H	-3.0398162171	-1.6646663878	-0.6800678127	 0.119558
H	-2.3018084467	-0.55792076	-1.853007574	 0.114507
H	-1.7859406903	-3.3718529881	-1.7331649187	 0.113025
H	-0.7433614718	-2.2284203178	-2.555910478	 0.113322
H	 0.0578313025	-3.8159617372	-0.2957002866	 0.105062
H	 0.9401723893	-2.4368497153	-0.9223801106	 0.114082
H	-1.1196117918	-2.4888427309	 1.3796951385	 0.088009
