15
gdb 131075	4.28926	0.89343	0.83262	3.575	68.38	-0.2532	-0.0086	0.2446	1348.7017	0.11396	-453.980276	-453.972225	-453.971281	-454.015053	27.916	
O	-0.2930562049	 1.0217197781	 1.6216857798	-0.262781
C	 0.2053165265	 1.5543367252	 0.6793496068	 0.180367
O	 0.2158502608	 2.8983403029	 0.5276112169	-0.185778
C	 0.925425239	 3.4287614504	-0.6054316128	-0.21932
C	 2.3350705381	 3.768943292	-0.2471003588	 0.363344
C	 3.5106783339	 3.7224582011	-0.9703227759	-0.312507
C	 4.4907211135	 4.2274874952	-0.088732946	 0.002553
N	 3.9747268253	 4.5546414481	 1.0921890423	-0.217792
N	 2.6639555445	 4.2796243922	 0.9673501922	-0.230677
H	 0.6895864034	 1.0243692029	-0.1633616664	 0.088285
H	 0.9099403521	 2.7212097449	-1.4422438048	 0.134291
H	 0.3544621677	 4.3130111626	-0.9047850831	 0.147936
H	 3.637101581	 3.3770408167	-1.9838326641	 0.108
H	 5.5482277076	 4.3572613062	-0.2650984114	 0.118431
H	 2.0527406415	 4.3945646515	 1.7594040553	 0.285648
