20
gdb 118932	2.35809	1.35048	1.12076	3.357	75.93	-0.2482	0.0328	0.281	1190.4364	0.169586	-440.297148	-440.287229	-440.286285	-440.332097	35.505	
C	-0.57006086	 0.759201852	 0.1115183116	-0.259299
O	 0.7683948578	 0.290718865	 0.0479822219	-0.235166
C	 1.1489310794	-0.5570490926	 1.1029508184	-0.119994
C	 0.7408859838	-2.0319389264	 0.9233908808	 0.120061
C	 1.1049388589	-2.5618743791	-0.4601913079	-0.438826
C	 1.1921065074	-2.9234619285	 2.1306180766	-0.207293
N	-0.2248960318	-3.1480189654	 2.4160281479	-0.322825
C	-0.7069887663	-2.4006154497	 1.3749090361	 0.408846
O	-1.8241674622	-2.1655029721	 0.9898067954	-0.371106
H	-0.7519561666	 1.3030560351	 1.0515644977	 0.100219
H	-0.6967960948	 1.4520832839	-0.7239127292	 0.120543
H	-1.3002952548	-0.0536560846	 0.0319374774	 0.153978
H	 2.2455008738	-0.516894373	 1.1363544947	 0.105394
H	 0.7733713461	-0.1795155273	 2.0687382667	 0.088081
H	 2.1814749924	-2.4667475375	-0.6403210987	 0.11722
H	 0.8298653963	-3.6156689557	-0.5670067184	 0.117105
H	 0.5859821718	-1.9883236285	-1.2307955215	 0.148234
H	 1.744656839	-3.8254402262	 1.8485380501	 0.113423
H	 1.7309024862	-2.396419089	 2.9260903708	 0.110277
H	-0.6953175863	-3.7101345604	 3.1095880894	 0.251129
