12
gdb 25180	3.19616	1.55757	1.04723	2.5501	76.64	-0.2474	-0.096	0.1514	1033.854	0.077038	-435.490581	-435.483358	-435.482414	-435.522537	26.818	
O	-0.0131531454	 0.0161044212	 0.3825863573	-0.305772
C	 0.0245019123	 1.1631559184	 0.04835195	 0.387286
O	-1.154270538	 1.7872324323	-0.355891575	-0.196762
C	-1.1583241046	 3.0761775764	-0.7400784938	 0.066767
C	-0.0314924096	 3.8159074115	-0.7511836577	-0.092494
N	 1.1776449828	 3.293106567	-0.3714316826	-0.284012
C	 1.2189436441	 2.0474950826	 0.006803715	-0.023354
C	 2.4497488078	 1.4602409632	 0.4096749415	 0.294378
C	 3.4838919449	 0.9499021191	 0.7531406448	-0.343441
H	-2.1436055381	 3.4233729221	-1.0260732436	 0.155502
H	-0.0471689405	 4.8524903045	-1.0624635069	 0.131343
H	 4.3972432644	 0.4995150118	 1.056168391	 0.21056
