19
gdb 45733	2.778	1.54346	1.18478	2.4333	81.38	-0.2368	-0.0196	0.2172	1092.6933	0.160018	-385.913548	-385.905596	-385.904652	-385.946394	30.754	
O	-0.3620213048	 0.0756257361	 0.0129988565	-0.323659
C	-0.2159859277	 1.2718184703	 0.015417422	 0.327381
C	-1.3379809014	 2.321093961	 0.034710292	-0.381478
C	-0.5782001706	 3.6201908388	 0.029089559	-0.097939
C	 0.7443573167	 3.4373369256	 0.0102479363	-0.13355
C	 1.1366993889	 1.9903966804	-0.0005038256	 0.214027
C	 2.1884949662	 1.5213673738	 1.065683973	-0.261474
C	 3.2810800822	 1.5044692944	-0.0317687913	-0.211896
C	 2.1587575366	 1.5293892674	-1.0986338912	-0.261474
H	-1.9959368807	 2.1868837554	-0.8336577545	 0.136816
H	-1.9718606504	 2.1803883035	 0.9197976675	 0.136816
H	-1.0709150106	 4.5855973489	 0.0394338658	 0.101567
H	 1.4792817019	 4.2355050828	 0.0031121111	 0.100427
H	 2.3327015567	 2.1785136947	 1.9264822893	 0.101264
H	 1.9385397004	 0.5158871829	 1.4145554513	 0.123485
H	 3.8747918537	 2.422832249	-0.0365226335	 0.102002
H	 3.9644134716	 0.65262508	-0.0443149494	 0.102938
H	 1.8992093499	 0.5264973834	-1.4479504695	 0.123485
H	 2.2793266915	 2.1929127117	-1.9581746488	 0.101264
