20
gdb 9770	3.15395	1.64433	1.51532	1.1766	70.36	-0.2501	0.0822	0.3323	972.7256	0.176582	-386.150673	-386.14204	-386.141096	-386.183897	31.83	
C	 0.0677975589	 1.5686388731	-0.0838306173	-0.39142
C	 0.0030789364	 0.0447806885	 0.044398988	-0.198399
C	 0.6839425839	-0.5227676888	 1.3048127317	 0.382692
C	-0.0109235319	-0.1119294134	 2.6008147894	-0.43594
C	 0.868685605	-2.0527584805	 1.182232037	-0.15231
O	 2.1346692675	-2.186694604	 0.5552907469	-0.238625
C	 2.9063736944	-1.1629565243	 1.1286953701	 0.020364
O	 2.05291423	-0.0569412438	 1.3363011336	-0.301628
H	 1.1031334933	 1.9118135334	-0.013974358	 0.134248
H	-0.3365253202	 1.891203977	-1.0480491777	 0.109886
H	-0.5097817064	 2.0720318697	 0.6977673561	 0.112871
H	-1.041902181	-0.2918264067	 0.0325838632	 0.089038
H	 0.4925935073	-0.4138567541	-0.8227615012	 0.105816
H	-1.0410229343	-0.4843459804	 2.6225550603	 0.114602
H	 0.521658498	-0.5179309462	 3.4655058253	 0.117401
H	-0.0398976052	 0.9753998408	 2.7029255765	 0.130587
H	 0.8693442511	-2.5317701883	 2.1741323028	 0.088558
H	 0.1186921725	-2.5340104556	 0.5513020345	 0.116143
H	 3.3365001235	-1.4905185679	 2.0934108772	 0.081523
H	 3.7100510572	-0.8958886786	 0.4344321013	 0.114594
