17
gdb 33420	2.85588	1.04899	0.81131	4.4179	78.56	-0.2531	0.009	0.2621	1381.1383	0.13494	-380.813356	-380.80413	-380.803186	-380.848088	33.163	
C	-0.1257537836	-1.1802158057	 0.0696857558	-0.409366
C	-0.0867671655	 0.017799573	 0.0110005898	 0.314467
C	 0.001960643	 1.4777241284	-0.0379541722	-0.322745
C	 1.4721346772	 1.971845319	 0.1370265584	-0.232151
C	 1.5793216789	 3.4588894649	 0.3835462201	 0.016779
C	 2.7591250386	 4.2130864374	-0.110317905	-0.24959
N	 1.4327756221	 4.4405964924	-0.7007774995	-0.302192
C	-0.5739519791	 1.986639292	-1.2947177498	 0.305243
N	-0.9962437486	 2.3909977883	-2.2909814046	-0.326345
H	-0.174553457	-2.2404693636	 0.1164338587	 0.210846
H	-0.5957722137	 1.8962054099	 0.7836236272	 0.160819
H	 1.8911011555	 1.4251932863	 0.9883220504	 0.13051
H	 2.0458065684	 1.679931788	-0.7487122672	 0.124377
H	 1.1198590627	 3.7880575472	 1.3153907916	 0.096363
H	 3.1554193025	 5.0437893135	 0.4663982744	 0.123705
H	 3.5035298981	 3.666034019	-0.6842574679	 0.114619
H	 1.3502515805	 3.97467362	-1.6009863104	 0.244659
