20
gdb 104594	2.45774	1.20971	0.98258	3.7928	75.49	-0.233	0.0398	0.2728	1278.9815	0.16941	-440.298165	-440.288305	-440.287361	-440.333489	36.33	
C	 0.2036424284	 0.2780075908	 1.8801745169	-0.256998
O	-0.1415028201	 0.4150834236	 0.509953844	-0.28784
C	-1.0819214095	-0.5293184542	 0.0410400453	 0.412249
C	-2.513047602	-0.3072973229	 0.5000292447	-0.379837
C	-3.1977425041	 0.9628257134	-0.0251268618	 0.388165
N	-2.4017951886	 2.0663580792	-0.0849877451	-0.515852
O	-4.3779778296	 0.9743185899	-0.3190199529	-0.367532
C	-0.8163813071	-0.992144029	-1.3591801768	-0.308255
C	-0.5689171225	-1.9280032661	-0.1921679212	-0.322499
H	 1.000389989	 0.9987267717	 2.0766979471	 0.131637
H	-0.6416480244	 0.4975045186	 2.545755738	 0.118818
H	 0.5697505624	-0.73315515	 2.0986759538	 0.118889
H	-3.1393818688	-1.1423335648	 0.1806734804	 0.131065
H	-2.5610712478	-0.286634118	 1.5964103818	 0.12259
H	-1.4047002642	 1.9850856467	 0.0479624597	 0.269279
H	-2.7946334988	 2.9042536097	-0.481780522	 0.252977
H	-1.6664056205	-1.1766869512	-2.0065631202	 0.126946
H	 0.0541502264	-0.5748716481	-1.8512975562	 0.125171
H	 0.4650989137	-2.1256630388	 0.0674399243	 0.12085
H	-1.243690432	-2.7625092205	-0.0367230399	 0.120179
