14
gdb 1415	4.10392	1.84506	1.34009	3.2872	61.8	-0.2661	0.0166	0.2826	877.7344	0.110882	-324.53683	-324.528812	-324.527868	-324.569522	27.634	
C	-0.1867937718	 1.8971499841	-0.0344722651	-0.39338
C	 0.2335880406	 0.4286327434	-0.034213914	-0.051026
O	 1.1459239569	 0.2685659854	 1.0662424106	-0.183377
C	 1.8332377918	-0.893285782	 1.1148788664	 0.132497
N	 2.65146316	-1.0953728908	 2.0530231811	-0.437826
C	-0.910784656	-0.4785772637	 0.0801111249	 0.350757
C	-1.8505530591	-1.2216096812	 0.1711930454	-0.478587
H	 0.6981382247	 2.5308329166	-0.128391337	 0.134912
H	-0.8624060741	 2.0929592525	-0.8702769698	 0.13219
H	-0.6992199079	 2.1393259882	 0.8990665001	 0.146646
H	 0.7686530876	 0.2060960114	-0.9688789732	 0.113334
H	 1.6004567833	-1.5794292555	 0.2902215308	 0.09499
H	 3.0901040021	-2.0069541807	 1.9396350857	 0.229856
H	-2.6803779079	-1.8796665978	 0.255120734	 0.209015
