18
gdb 22782	2.6532	1.11321	0.88906	2.3021	72.22	-0.2489	-0.009	0.2399	1320.95	0.145347	-476.154809	-476.145244	-476.1443	-476.189562	34.531	
C	 0.4585733292	 1.4058236735	-0.2225636834	-0.402008
C	 0.0855950971	-0.029181186	 0.1030727767	 0.065603
O	 0.8023960178	-1.0166563414	-0.6997591369	-0.333388
C	 1.3697133822	-1.6703877547	 0.4748119656	 0.02247
C	 2.8924045165	-1.6407905516	 0.4146497419	-0.066062
O	 3.3429851112	-2.2850160326	-0.7584175203	-0.417508
C	 0.661860523	-0.667278325	 1.3485434445	 0.327175
N	 0.6346057186	-0.5035703593	 2.6001435229	-0.232423
O	-0.1738874386	 0.5926982982	 2.9475678667	-0.39132
H	 1.5326702554	 1.570561743	-0.1031976765	 0.124774
H	 0.1833916206	 1.6356882757	-1.2563794639	 0.130665
H	-0.0771075542	 2.086667902	 0.4445718772	 0.141769
H	-0.9993311669	-0.1749115692	 0.0091362655	 0.106999
H	 1.013126495	-2.7050078914	 0.556081767	 0.106789
H	 3.2409629549	-0.597807807	 0.4687658097	 0.088752
H	 3.3110801018	-2.1819168836	 1.2692198635	 0.120885
H	 2.8800930191	-1.8595041836	-1.4907899062	 0.294767
H	-0.1073431427	 0.600369293	 3.9086586359	 0.31206
