19
gdb 114015	5.47412	0.63449	0.60865	4.6925	75.16	-0.2607	0.013	0.2737	1818.2576	0.156826	-460.152659	-460.142761	-460.141817	-460.189455	33.946	
C	-0.0825105341	 1.2130715404	-0.6097644533	-0.23433
O	-0.1186930289	 0.2375900153	 0.4150591543	-0.23901
C	-1.2813252831	-0.52733557	 0.3964680672	 0.116642
C	-1.3759892199	-1.70986982	-0.5326352854	-0.314757
C	-1.1890417444	-1.9165249363	 0.9598538902	-0.057809
C	 0.131073846	-2.4216930403	 1.4770315014	-0.107409
O	 0.2593249959	-3.8370869808	 1.2494909918	-0.171462
C	 0.1625085857	-4.6590440223	 2.3072804269	 0.170809
O	 0.2256936446	-5.84843654	 2.2148772061	-0.278077
H	 0.8594398762	 1.7553168626	-0.5029541676	 0.131632
H	-0.126651895	 0.7542839149	-1.6073738327	 0.114445
H	-0.9166219555	 1.9242675461	-0.5168412246	 0.11064
H	-2.191720832	 0.0401640228	 0.5964351979	 0.091762
H	-2.3313527307	-1.961186565	-0.9787458659	 0.120271
H	-0.5128763456	-1.9098622011	-1.1587264654	 0.129414
H	-2.0544838311	-2.2648687448	 1.5166256053	 0.096132
H	 0.959350832	-1.9415172411	 0.9546083092	 0.135508
H	 0.2396206349	-2.2116756483	 2.5487846004	 0.113657
H	 0.0261483952	-4.1144640819	 3.2636019543	 0.071942
