19
gdb 53324	3.15653	1.03188	0.89416	1.6732	84.47	-0.2296	0.0278	0.2574	1381.446	0.157326	-385.820789	-385.811337	-385.810393	-385.85668	33.857	
C	 0.2197906022	 1.5793962937	-0.2165344996	-0.500722
C	 0.0951632758	 0.132871307	-0.1216739095	 0.107625
C	-0.014713941	-1.0634737184	-0.0318952303	 0.068887
C	-0.1136582964	-2.5110713542	 0.0247892527	-0.075343
O	 0.1653179077	-3.1117327867	 1.3320704627	-0.292089
C	-1.0163880142	-3.9154544661	 1.2274953421	 0.07347
C	-2.2541472917	-3.0756117155	 1.2515227249	-0.021056
C	-2.4102434342	-1.8140903086	 2.0705186299	-0.417014
C	-1.4693114997	-3.2268521036	-0.04271788	-0.165605
H	 0.8697007974	 1.9680384137	 0.5751967424	 0.154917
H	 0.6537679582	 1.8787765454	-1.1768272235	 0.150485
H	-0.7533684875	 2.0731259592	-0.1200870199	 0.150134
H	 0.5784072204	-2.9537858807	-0.7038250667	 0.107877
H	-0.9346467055	-4.9589861707	 1.5096462226	 0.100801
H	-3.1496442682	-3.6948890831	 1.2037105913	 0.088153
H	-1.4463051881	-1.3287578521	 2.2289960827	 0.145204
H	-3.0772062928	-1.0992912615	 1.5779357474	 0.114314
H	-2.8362129667	-2.052675808	 3.0512677812	 0.110573
H	-1.8994374755	-3.6238909497	-0.9522844502	 0.099387
