14
gdb 27483	2.08714	1.8429	0.98468	3.2629	67.16	-0.2725	-0.0486	0.2239	1116.4805	0.101605	-473.927642	-473.919972	-473.919028	-473.9601	28.203	
C	 0.0895935342	 1.4768220851	 0.0203274192	-0.469646
C	-0.0656055918	-0.0058443866	 0.0011679464	 0.410815
C	-1.2121819422	-0.6863932148	-0.1506055556	-0.350121
C	-1.2141729768	-2.1417411503	-0.1496267714	 0.455433
O	-2.1751726403	-2.8665727796	-0.2766357228	-0.358991
N	 0.0745501608	-2.6825065365	 0.0219976257	-0.441793
C	 1.2579473856	-2.0040303344	 0.1796269001	 0.485454
O	 2.3328275215	-2.5077252764	 0.3240367303	-0.353568
O	 1.1390755258	-0.6284161516	 0.1617746258	-0.257308
H	 0.7665253002	 1.7949056162	-0.7794576912	 0.160017
H	-0.8745689268	 1.9700368978	-0.1073432916	 0.146176
H	 0.536143428	 1.7965599045	 0.9676205529	 0.160009
H	-2.1560026709	-0.1765044829	-0.2762839271	 0.132713
H	 0.1432730126	-3.6914090605	 0.0325997892	 0.280811
