14
gdb 21132	6.9899	1.31993	1.11972	1.9062	61.89	-0.1928	0.0463	0.2391	1007.701	0.108107	-412.047291	-412.039588	-412.038644	-412.079235	27.909	
C	 0.0136748199	 1.3858296268	-0.0023757878	-0.332242
N	 0.0426590326	-0.0649925045	-0.017360269	-0.366762
C	-1.0838537971	-0.6492784986	 0.038009572	 0.488751
N	-2.3909256856	-0.1729619166	 0.1409807386	-0.325995
N	-3.340748865	-1.2120838922	 0.0219446017	-0.34094
C	-2.6136761612	-2.2763538031	 0.0107681139	 0.494057
O	-3.0540363968	-3.5365640803	-0.0221739866	-0.41415
N	-1.270782991	-2.0359411229	 0.0528009546	-0.404659
H	 1.0372929515	 1.7682367809	 0.0216169727	 0.12255
H	-0.4686506425	 1.8131197717	-0.898745185	 0.096556
H	-0.5153763098	 1.7916025405	 0.8752730581	 0.108007
H	-2.6581881933	 0.705933393	-0.2715992521	 0.269617
H	-4.0197827441	-3.4997717238	-0.0309422013	 0.321132
H	-0.5256941476	-2.707674201	 0.0004035202	 0.284079
