18
gdb 26121	2.60161	1.28797	1.06066	0.5016	74.78	-0.2105	0.006	0.2165	1206.5739	0.147313	-439.128757	-439.119759	-439.118815	-439.162859	32.99	
C	-0.0371637829	 1.5828846907	 0.0337885356	-0.383325
C	 0.0179962903	 0.0434660636	 0.0858201556	-0.097373
C	 0.7455917708	-0.443342136	 1.3543392295	-0.383336
C	-1.3373840592	-0.5632012127	-0.0416250502	 0.260672
C	-1.949030913	-1.3820620606	-0.9375555945	 0.225471
O	-1.4236176753	-1.9108695764	-2.062795504	-0.433247
N	-3.2517542236	-1.6376848035	-0.5568945962	-0.337738
C	-3.3850159035	-0.9713891888	 0.54698789	 0.067568
O	-2.2892573296	-0.2980607197	 0.9313794707	-0.188804
H	 0.9710210526	 2.0055701366	 0.0899128654	 0.111816
H	-0.5049566966	 1.9300319015	-0.8918617745	 0.119525
H	-0.6166355787	 1.9775396683	 0.8744872872	 0.124602
H	 0.5761926111	-0.3111220623	-0.7891369077	 0.103085
H	 0.2008050892	-0.1383651137	 2.2535056362	 0.12462
H	 0.8330184397	-1.5334824389	 1.3654498316	 0.119513
H	 1.7521317081	-0.0163997128	 1.4076475726	 0.111816
H	-2.1186133169	-2.4430116624	-2.4679684777	 0.305485
H	-4.2565170325	-0.8976855026	 1.1780266604	 0.149651
