15
gdb 67090	2.63201	1.59654	1.37225	2.7485	66.57	-0.2449	-0.0447	0.2002	967.5798	0.110748	-457.688851	-457.681266	-457.680322	-457.721135	28.843	
O	-0.1992078342	 1.443238086	-0.0232903511	-0.428047
C	-0.0252213511	 0.0981875444	-0.0203806136	 0.281021
C	-1.05163555	-1.00193926	-0.0080378893	-0.161674
C	-0.4898526451	-1.6569472896	-1.2613284733	-0.256393
C	 0.8569901463	-0.9824974271	-0.8860509385	 0.234726
O	 1.2564377439	-1.6212761042	 0.3494338994	-0.315349
C	 0.1607066772	-0.9837515341	 0.9886700629	-0.006194
C	 1.9611732167	-0.7338132489	-1.8481071621	 0.039733
O	 1.784035812	-0.3246731605	-2.969404163	-0.254553
H	 0.5833937277	 1.8652075801	 0.3525013986	 0.302385
H	-2.0731612697	-0.9507001907	 0.3456031856	 0.106228
H	-0.4589620832	-2.74830827	-1.3240989465	 0.109269
H	-0.8985405939	-1.2184984922	-2.1731441367	 0.135597
H	 0.0719781446	-1.0265036722	 2.0658358684	 0.120887
H	 2.9756488586	-0.932450051	-1.4383471609	 0.092363
