14
gdb 125368	3.32896	1.80509	1.179	7.0451	68.9	-0.2336	-0.0098	0.2238	965.2718	0.103408	-429.042918	-429.035904	-429.03496	-429.074296	26.296	
C	-0.0191737202	 1.5130683826	 0.0910706697	-0.491416
C	-0.0095371004	 0.0315257556	-0.0230476698	 0.279036
C	-0.0337099048	-0.8061304574	-1.0984298455	-0.158615
N	-0.0084493047	-2.1339904353	-0.6645444614	-0.407224
C	 0.0316446057	-2.1181886109	 0.6952980677	 0.534681
N	 0.0700886465	-2.9112989947	 1.7512441952	-0.359877
N	 0.0927457088	-2.041035024	 2.7994781924	-0.102223
N	 0.0711849175	-0.7894119081	 2.4401306584	-0.179984
N	 0.0311770127	-0.8228988199	 1.080058762	-0.009544
H	 0.8789781395	 1.8771647728	 0.6014030929	 0.155702
H	-0.0605050071	 1.9667794778	-0.9013941739	 0.138638
H	-0.8836109342	 1.8600919449	 0.6671545007	 0.155892
H	-0.0672608982	-0.5624938393	-2.1471933106	 0.155683
H	-0.0183835512	-2.9543414041	-1.2428718078	 0.289249
