17
gdb 34987	2.79365	1.62331	1.39686	1.6381	77.3	-0.2298	0.0422	0.272	981.0941	0.136132	-384.611783	-384.604454	-384.60351	-384.643365	29.678	
C	-0.3980409608	-1.2599084816	-0.1914080433	-0.417452
C	-0.1453863718	-0.0892512308	-0.0712297071	 0.315674
C	 0.0318639921	 1.32796179	 0.0311734161	-0.264566
C	 0.5132268326	 2.0796836047	 1.269884065	 0.080295
O	 1.2221978925	 1.4044642948	 2.2686449859	-0.256286
C	 2.5621681674	 1.1934325165	 1.8663728388	 0.100095
C	 2.8408923801	 0.1100720071	 0.8671967106	-0.333035
C	 2.6890146272	 1.5500734871	 0.4049860095	-0.086202
C	 1.3460462306	 2.1270349978	 0.0185610276	-0.11157
H	-0.5956931807	-2.298903549	-0.2841837055	 0.194371
H	-0.7609695904	 1.875032544	-0.4772289968	 0.118357
H	-0.0956197626	 2.8939100165	 1.6509492369	 0.105685
H	 3.2805735213	 1.4559593437	 2.6357073756	 0.099143
H	 3.8518866507	-0.2851752442	 0.8535357798	 0.109869
H	 2.0649387975	-0.6078696031	 0.6464723308	 0.151599
H	 3.5590481347	 2.0659651565	 0.0176996261	 0.094615
H	 1.3609834595	 2.9989602301	-0.6241819901	 0.099405
