23
gdb 100984	1.96231	1.46944	0.9865	1.5273	82.58	-0.2459	0.0752	0.3211	1316.1441	0.202329	-425.402811	-425.391839	-425.390895	-425.438802	40.36	
C	-0.1488849545	 1.5164539945	-0.1378667554	-0.237606
O	-0.084687249	 0.1309315953	 0.1117498111	-0.243819
C	-1.3190043023	-0.5593821325	-0.0384234638	 0.080391
C	-1.6144987257	-0.8316112653	-1.5192557172	-0.421854
C	-1.2541846894	-1.8589469964	 0.7670705126	 0.364207
O	-2.3742629881	-2.6828086413	 0.5302951458	-0.471943
C	 0.0601484238	-2.5442538874	 1.0494161342	-0.356096
C	-0.7618103154	-1.9532463332	 2.1847793415	-0.021124
C	-0.2704869045	-0.7970794239	 3.027837419	-0.424415
H	 0.8396555189	 1.9274734498	 0.0820378818	 0.127457
H	-0.3944693799	 1.7465647482	-1.184518985	 0.109398
H	-0.8905779949	 2.01111829	 0.5077441681	 0.108471
H	-2.133108164	 0.057877018	 0.3773639032	 0.072048
H	-2.5915742063	-1.3065812031	-1.6365156773	 0.122497
H	-1.6318008941	 0.0990606156	-2.0925089175	 0.116538
H	-0.8426689345	-1.4800276678	-1.947689515	 0.119902
H	-2.2345271477	-3.1398162448	-0.3059813917	 0.281042
H	 0.0956181267	-3.6240796538	 0.948883812	 0.100958
H	 0.9630474402	-2.0175712931	 0.7622024418	 0.125785
H	-1.3300582109	-2.6953201935	 2.7398532814	 0.092415
H	 0.3491964962	-0.1138352386	 2.4473547586	 0.135387
H	-1.1084206259	-0.2269721833	 3.4462426769	 0.10972
H	 0.3235102713	-1.1702071136	 3.8697334751	 0.110642
