15
gdb 45243	3.57932	1.68949	1.51415	2.8155	62.9	-0.257	-0.0053	0.2517	868.0242	0.11572	-457.775183	-457.769383	-457.768438	-457.805322	24.079	
O	-0.0737203614	-0.0428111068	-0.296764867	-0.339782
C	-0.0165006847	 1.1247335264	-0.0489305014	 0.434257
O	-1.1318098721	 1.9055914873	 0.132606144	-0.236119
C	-0.684888257	 3.2069160254	 0.5689662138	 0.05536
C	-0.0414351355	 3.0361303406	 1.9687513375	-0.235949
C	 1.3841918194	 2.8140043555	 1.435928906	 0.059243
O	 1.5720331564	 4.0530799183	 0.6807987351	-0.292732
C	 0.6386251929	 3.459229189	-0.240271359	 0.07708
C	 1.1729773227	 2.0480343784	 0.0706480084	-0.203904
H	-1.508632398	 3.90731231	 0.4621162247	 0.103771
H	-0.0715707608	 3.9406544435	 2.5781276034	 0.125758
H	-0.4858164865	 2.2002664304	 2.512279586	 0.12793
H	 2.197641512	 2.5695651853	 2.115574774	 0.102925
H	 0.5936742697	 3.9138240376	-1.2281220695	 0.106454
H	 2.085360033	 1.717241099	-0.4158041461	 0.115709
