19
gdb 86442	1.9306	1.71301	0.95512	3.7665	72.75	-0.2626	0.0099	0.2725	1238.8784	0.158299	-460.219605	-460.210679	-460.209735	-460.253361	33.178	
C	 0.0213327633	 1.5454568122	 0.0812871489	-0.409929
C	 0.0247014735	 0.0274684511	 0.0400104554	 0.112052
C	 0.619545401	-0.5485185404	-1.2459720241	-0.341551
C	 0.9912249549	-2.0219310842	-1.1481465115	 0.39742
O	 1.18297104	-2.7139729127	-2.1092785793	-0.321871
O	 1.1810631848	-2.5306973586	 0.0938957186	-0.240896
C	 0.7254800787	-1.8219270672	 1.2710604855	 0.218948
C	 1.5914774625	-2.2710747062	 2.4257832782	-0.404874
O	 0.8126967573	-0.4437801974	 1.1342786866	-0.244839
H	 1.0427594484	 1.9299360222	 0.0022103336	 0.13167
H	-0.5663307503	 1.9471459377	-0.7494304755	 0.124922
H	-0.4109060208	 1.9027592609	 1.0194731371	 0.129888
H	-1.0051857578	-0.346990103	 0.1662330462	 0.079312
H	-0.0482438465	-0.4290678494	-2.1024102528	 0.137114
H	 1.5484500369	-0.0153352657	-1.4844469179	 0.143137
H	-0.3266905389	-2.1200621459	 1.4149036602	 0.080693
H	 2.624604767	-1.9610462859	 2.2516735052	 0.13956
H	 1.2328737676	-1.8186743246	 3.3532780455	 0.130546
H	 1.5552073384	-3.3584695429	 2.5165901102	 0.138697
