25
gdb 60420	4.22165	0.55295	0.51054	2.4814	90.59	-0.2411	-0.0069	0.2342	2254.8676	0.225324	-389.531255	-389.519406	-389.518462	-389.56999	41.702	
C	-0.1340842456	 1.5427720929	 0.197607981	-0.382038
C	-0.0724799826	 0.0222746515	-0.0071457211	 0.042468
C	-1.4872018106	-0.5697334942	-0.0668430288	-0.388064
C	 0.7299511421	-0.3711195233	-1.261645065	-0.174027
C	 2.215086269	 0.0055093624	-1.2227885445	-0.180453
C	 2.9795807645	-0.4840527306	-2.4525288519	-0.302007
C	 4.4557989558	-0.1051202993	-2.4568795081	 0.376325
C	 5.2743738387	-0.6067685483	-3.6353623138	-0.472381
O	 4.9512598629	 0.5578536748	-1.5743654392	-0.290345
H	 0.8588490275	 1.983537273	 0.3229272041	 0.119428
H	-0.611751944	 2.0315659098	-0.660617198	 0.108041
H	-0.7204472926	 1.7926539969	 1.0880048218	 0.109074
H	 0.4387631224	-0.4150963153	 0.8630596554	 0.07124
H	-2.0436224645	-0.1683527827	-0.922661315	 0.109644
H	-1.4612353971	-1.6598180909	-0.1696176718	 0.106983
H	-2.056242187	-0.3311317139	 0.8378325735	 0.108549
H	 0.6422012286	-1.4574024693	-1.4038325517	 0.084534
H	 0.2574703206	 0.0856251508	-2.1442461214	 0.086032
H	 2.3398422559	 1.0898410945	-1.1443677427	 0.114752
H	 2.6826237186	-0.4115277939	-0.3227980378	 0.106649
H	 2.9078419565	-1.5766821166	-2.5546335146	 0.114689
H	 2.531210263	-0.0881836536	-3.3759912285	 0.117061
H	 5.2679118703	-1.7023994904	-3.6631558145	 0.137082
H	 4.8391040614	-0.2639683656	-4.5807014826	 0.135351
H	 6.3015996164	-0.2499881785	-3.5520063947	 0.141413
