18
gdb 51241	3.22683	1.26099	1.11776	2.8967	72.3	-0.2469	0.0198	0.2667	1126.8373	0.147683	-439.071167	-439.062786	-439.061842	-439.105405	30.683	
O	-0.139535179	-0.0417656272	 0.2400697283	-0.318169
C	-0.0619739707	 1.1199789369	-0.0974794123	 0.130922
N	 1.1039152663	 1.8123144897	-0.2291055211	-0.379235
C	 2.3911311473	 1.1987569124	-0.0518248423	 0.33016
C	 2.6912152047	 0.5107587666	 1.308610965	-0.252921
C	 4.0037053443	 1.3472307143	 1.4435118263	-0.236303
C	 3.7163060418	 2.0054176593	 0.0750252787	 0.049358
O	 4.3005807356	 1.2878567879	-1.0277332489	-0.287497
C	 3.0853802056	 0.5366681801	-1.263507497	-0.106695
H	-0.9459978094	 1.750374584	-0.3208642741	 0.078341
H	 1.0641864846	 2.7365404996	-0.6315835716	 0.249493
H	 1.9440639763	 0.746065868	 2.0664503849	 0.121255
H	 2.7994440058	-0.57334215	 1.2568088333	 0.115444
H	 3.98744442	 2.0497494647	 2.280793638	 0.104934
H	 4.9418902546	 0.789825404	 1.4637405651	 0.117072
H	 3.8121283083	 3.0908549144	-0.030374142	 0.073841
H	 3.2415482412	-0.5466558861	-1.2104975229	 0.111782
H	 2.6336349328	 0.7950542812	-2.2298296875	 0.098219
