15
gdb 44432	3.65653	1.54747	1.51146	5.0755	65.99	-0.2604	-0.0083	0.252	901.0217	0.113198	-457.674401	-457.667995	-457.667051	-457.705069	25.908	
O	-0.2327239419	 0.1390242901	-0.5458921035	-0.299157
C	-0.1031513493	 1.2173527935	-0.0905223037	 0.414552
O	-1.1173782625	 2.1195365085	 0.3109407632	-0.275142
C	-0.1251162419	 2.8521161895	 1.1176302176	 0.11838
C	 0.7458022286	 4.1639397392	 1.0090709121	-0.142859
C	 1.969466917	 3.1146463771	 1.1817771613	-0.331526
C	 0.9856047806	 2.2791780627	 0.3040272035	 0.175496
O	 0.9848044584	 3.0486605987	-0.9308724132	-0.288154
C	 0.7873924613	 4.4056148942	-0.4863310392	-0.081884
H	-0.191887137	 2.5034287381	 2.1477437941	 0.114272
H	 0.6106189411	 5.004914447	 1.6869622842	 0.097017
H	 2.9244337973	 3.3977417578	 0.7376806146	 0.131295
H	 2.0851283636	 2.7637051867	 2.2061952334	 0.129838
H	-0.1503445725	 4.8039410044	-0.8881897369	 0.123961
H	 1.6207299372	 5.0365108826	-0.8136073276	 0.113911
