17
gdb 61435	3.36865	0.98454	0.7956	14.6307	68.8	-0.1802	-0.0554	0.1248	1369.7102	0.134084	-492.30444	-492.295467	-492.294522	-492.3389	33.018	
N	 0.1709475219	 1.3219051886	 0.5165109488	-0.515698
C	-0.0379620398	 0.1165944587	-0.0074432694	 0.460787
N	 0.9408137585	-0.661577375	-0.4074366996	-0.466149
H	 0.6018514899	-1.4867058004	-0.9709424725	 0.333305
H	 1.9058609855	-0.3685078131	-0.395275702	 0.271037
C	-1.4293732309	-0.4130903944	-0.1495194323	-0.296649
C	-1.6656340223	-1.0855571248	-1.5245126886	-0.043782
O	-0.6793597215	-2.059555039	-1.8073922119	-0.467806
C	-3.0448555777	-1.8530377262	-1.4414008096	 0.380129
O	-4.0406863165	-1.1876550249	-1.1652144152	-0.459943
O	-2.8615832379	-3.0870761487	-1.6341999117	-0.488511
H	 1.0918027535	 1.7193573028	 0.6201485988	 0.282314
H	-0.614708945	 1.8717085735	 0.8221700684	 0.301583
H	-1.5670987629	-1.1722767243	 0.6306793889	 0.16526
H	-2.1809304017	 0.3631483934	 0.0040630699	 0.145908
H	-1.6893350363	-0.3156211439	-2.3062791145	 0.081398
H	-1.318882537	-2.8694337022	-1.7971993274	 0.316816
