23
gdb 122823	5.94739	0.50934	0.49353	3.5495	85.76	-0.2354	0.0672	0.3026	2333.3505	0.204563	-421.65543	-421.643687	-421.642742	-421.694557	40.043	
C	-0.3964733119	 1.4731609452	-0.2180257701	-0.379948
C	 0.1120384819	 0.047964726	 0.0144489485	-0.16073
C	 0.7338155127	-0.5791914621	-1.237359999	-0.16329
C	 1.242442101	-2.0028206559	-0.9950817845	-0.155475
N	 1.8446169859	-2.5850030623	-2.1834992837	-0.372172
C	 1.5369270218	-3.8690274969	-2.5867758021	 0.495275
O	 0.6562756742	-4.5406398371	-2.0753343585	-0.407588
N	 2.327903112	-4.3300690796	-3.6246447889	-0.361604
C	 1.9778226684	-5.5666937011	-4.2993946849	-0.320039
H	 0.4157358449	 2.1366639413	-0.5357207739	 0.111783
H	-1.1651858935	 1.4963936533	-0.9983197757	 0.11583
H	-0.8336284557	 1.8948388915	 0.6923754246	 0.112419
H	 0.8521069422	 0.0508862173	 0.8258682149	 0.094609
H	-0.7147638848	-0.5849951942	 0.36217759	 0.10261
H	-0.0003273312	-0.6004657668	-2.0523611413	 0.10303
H	 1.5629038163	 0.0530013969	-1.5872437676	 0.081188
H	 1.9571065023	-2.0048468221	-0.1580720652	 0.09443
H	 0.421502324	-2.6674849706	-0.7167649972	 0.149459
H	 2.728094444	-2.2018168186	-2.4806427741	 0.229359
H	 2.8014359297	-3.6355310043	-4.1808879133	 0.231072
H	 2.8805999026	-6.0494057359	-4.6850295239	 0.116865
H	 1.5025332987	-6.2214683144	-3.5690115135	 0.166388
H	 1.2755178747	-5.4172091498	-5.1310478905	 0.116528
