17
gdb 111376	2.05766	1.79933	1.15006	5.4227	73.23	-0.2495	0.0258	0.2752	1088.1041	0.135932	-417.955204	-417.946774	-417.94583	-417.98855	30.738	
C	-0.1565100683	 1.3224281568	-0.0212773395	-0.2506
O	 0.3338976142	 0.0022177165	 0.1387837014	-0.227145
C	 0.7474737442	-0.5915822997	-1.0379812397	 0.169975
C	 1.3665951392	-1.9743073982	-0.8907330609	-0.104161
N	 0.2993979696	-2.8879770238	-0.4278131499	-0.305281
C	 0.4032573168	-2.5693254578	-1.8604884573	-0.050212
C	-0.330955943	-1.2316704657	-2.0501579789	-0.25213
C	-1.7341838457	-1.183046036	-1.6790029595	 0.328117
N	-2.8562135822	-1.1178168951	-1.4077920293	-0.345612
H	 0.6031228327	 1.9781564513	-0.4736888496	 0.105077
H	-1.0633323284	 1.3464513843	-0.638791866	 0.132203
H	-0.3996857427	 1.6926574387	 0.9762009957	 0.139423
H	 1.4002730201	 0.0748136344	-1.6216746347	 0.078771
H	 2.4111651503	-2.1991708758	-0.7188341046	 0.107364
H	 0.7256211685	-3.8021850453	-0.2821992196	 0.239979
H	 0.5531521366	-3.3303074269	-2.6144270272	 0.111697
H	-0.2047289319	-0.8195962578	-3.0539561002	 0.122535
