19
gdb 65727	4.00199	1.02911	0.96647	3.4675	75.65	-0.2403	-0.0212	0.2191	1263.3516	0.156563	-422.995015	-422.986116	-422.985171	-423.028977	33.236	
C	-0.1284092829	 1.5747561727	 0.1499445251	-0.439609
C	 0.0372945412	 0.0644702043	 0.1047182654	 0.383811
C	-1.2631021496	-0.6532383934	-0.2887422107	-0.309933
C	-1.7372299552	-0.2885999221	-1.6801181778	 0.149981
O	-2.8637687789	 0.042520153	-1.9513829511	-0.246314
O	 1.1051255683	-0.3522639542	-0.818842007	-0.334333
C	 1.7115505461	-1.1337249323	 0.2134571832	 0.10551
C	 2.207254463	-0.2618817946	 1.320242585	-0.317795
C	 0.743821382	-0.6512982479	 1.2657564906	-0.165078
H	 0.7943153673	 2.0666744173	 0.4636338089	 0.124896
H	-0.4011213911	 1.9628577714	-0.8368569853	 0.136044
H	-0.9248205428	 1.8470183842	 0.8501101121	 0.127053
H	-1.0695333505	-1.7342982829	-0.2791215754	 0.122792
H	-2.0627929463	-0.4395728028	 0.4273763009	 0.116672
H	-0.9513051939	-0.3627250706	-2.4617501265	 0.099355
H	 2.0923918044	-2.1141861107	-0.0468292583	 0.106512
H	 2.7684782783	-0.7684400231	 2.0996383718	 0.119409
H	 2.5371844607	 0.7492091918	 1.1022335597	 0.119885
H	 0.2401484296	-1.1822995599	 2.0626776995	 0.101142
