17
gdb 47287	3.36139	1.30342	1.00656	2.0737	71.8	-0.2723	0.	0.2723	1146.3311	0.138055	-455.163349	-455.155462	-455.154518	-455.196449	29.578	
N	-0.0072498316	 1.2590165915	 0.4902043868	-0.471145
C	-0.024089374	 0.074923797	 0.0507346695	 0.354999
C	-1.3276680851	-0.6342819734	-0.2262283045	-0.257707
C	-1.4192770002	-1.4404550551	-1.5393844905	-0.318669
C	-0.6574968844	-2.7398944493	-1.4942750814	 0.397112
N	-1.2353418666	-3.8515758026	-1.6582240197	-0.49688
O	 0.6871835553	-2.6814812757	-1.2085746522	-0.234463
C	 1.3518390954	-1.4402240653	-1.2204869267	 0.002066
O	 1.1439817316	-0.6530973986	-0.0692951153	-0.242415
H	 0.9561157309	 1.5534091679	 0.6653193	 0.225161
H	-1.5221218463	-1.3145066163	 0.6129044187	 0.14384
H	-2.1042044462	 0.1313944241	-0.2074808219	 0.143489
H	-2.4596131768	-1.7086467535	-1.7240912686	 0.148456
H	-1.0939106265	-0.8255817186	-2.3873555007	 0.127181
H	-0.5612037616	-4.61584076	-1.5769989207	 0.224671
H	 2.4142310019	-1.6837299348	-1.2156944201	 0.139989
H	 1.1010989943	-0.8706386873	-2.1231018928	 0.114315
