20
gdb 105538	2.28518	1.45826	1.11505	2.4762	74.72	-0.2418	0.0662	0.308	1172.494	0.170511	-440.213937	-440.204736	-440.203792	-440.248861	33.218	
C	 0.2755589587	 1.2860051655	-0.1674969597	-0.258333
O	 0.0084442068	-0.1016180732	-0.1431490432	-0.304693
C	-1.3261923282	-0.5332333028	-0.0504064215	 0.328399
C	-2.2065832604	-0.0320140665	 1.1308036674	-0.136651
O	-3.2660751014	 0.3260034906	 0.221349406	-0.271281
C	-2.4322253799	 0.1123493613	-0.9336002315	-0.131675
C	-1.3095437986	-2.044130766	-0.165872336	-0.01191
C	-0.3494937797	-2.7359684025	-1.0569534552	-0.252044
N	-0.2118742033	-2.8271095453	 0.4114905308	-0.336671
H	 1.3630689729	 1.3872614682	-0.1519158343	 0.135922
H	-0.1066038882	 1.7661468276	-1.0772632963	 0.119671
H	-0.1363360611	 1.8097816294	 0.7041801364	 0.120331
H	-2.5171162096	-0.7894014005	 1.8585231408	 0.116307
H	-1.810951553	 0.8392050737	 1.6678820838	 0.099758
H	-2.1516859807	 1.0545083485	-1.4206759052	 0.098871
H	-2.902448592	-0.5450896955	-1.6733261667	 0.110757
H	-2.2948233968	-2.4825311916	-0.01901032	 0.099752
H	-0.6391350525	-3.6598695413	-1.5493279263	 0.114951
H	 0.3651338068	-2.1233412908	-1.5967959073	 0.119694
H	 0.5184313301	-2.1775868886	 0.6971929481	 0.238843
