17
gdb 46920	3.32473	1.43523	1.11278	3.9	68.49	-0.2564	0.0098	0.2661	1069.9575	0.137295	-458.969444	-458.962017	-458.961073	-459.001499	28.808	
O	-0.0300958426	 0.3488989681	-0.8725269174	-0.313411
C	 0.0047739487	 1.2357482652	-0.06221024	 0.364863
C	-1.3434956183	 1.8148599948	 0.4208005021	-0.213834
O	-1.3715737567	 2.865749784	 1.3626759268	-0.239391
C	-0.7706848005	 4.0320031875	 0.8843863719	 0.112574
C	-0.0453705698	 4.8537343943	 1.8975902229	-0.331223
C	 0.7379650361	 4.0221431629	 0.8961294529	-0.071295
C	 1.3408347389	 2.7239737733	 1.3617223801	-0.087565
O	 1.2005343283	 1.6718974632	 0.3843130766	-0.224625
H	-1.8786736875	 2.0903421002	-0.4994418093	 0.134605
H	-1.8862605237	 0.9792069833	 0.8707506275	 0.151895
H	-1.3030850607	 4.5220422824	 0.0698194773	 0.098261
H	-0.045334205	 5.930428432	 1.7767675242	 0.126517
H	-0.078604123	 4.5084403818	 2.9250033817	 0.133055
H	 1.2667233409	 4.5397777678	 0.1025086237	 0.104867
H	 2.4207828518	 2.8090083277	 1.4995438194	 0.127843
H	 0.8969633332	 2.4043259616	 2.3076089095	 0.126863
