23
gdb 94851	3.53842	1.09288	0.99688	1.4655	85.79	-0.2334	0.0823	0.3157	1326.1298	0.20668	-388.299165	-388.290306	-388.289362	-388.332865	34.489	
C	-0.615443906	 1.274928529	 0.2225567656	-0.414235
C	 0.1604769872	-0.0216482875	 0.0084514494	 0.011756
C	 1.0941640416	-0.0116480768	-1.2096592039	-0.080356
O	 2.0912345944	-0.9971205154	-0.9605837416	-0.311506
C	 2.098871517	-1.3744122039	 0.4134484123	 0.454714
C	 1.8159449781	-2.8806970825	 0.6940101513	-0.274213
C	 2.991899825	-2.8720911514	 1.7074210844	-0.214887
C	 3.5027555644	-1.5647788695	 1.0414620978	-0.285977
C	 1.1608969706	-0.3850589732	 1.1165517138	-0.287772
H	 0.0671407635	 2.1226456206	 0.3527764736	 0.115983
H	-1.2647143285	 1.4969857341	-0.6312981373	 0.116149
H	-1.2497146841	 1.2165257974	 1.1128346959	 0.117158
H	-0.5484800051	-0.8518960438	-0.1081593026	 0.078885
H	 0.5836826593	-0.2542497719	-2.1484735866	 0.099666
H	 1.5624136812	 0.9795538209	-1.3266332559	 0.08436
H	 0.8198490572	-3.1565673788	 1.0527914293	 0.086898
H	 2.0516246309	-3.4707814847	-0.1953466816	 0.107709
H	 2.6541175526	-2.708019313	 2.7342870472	 0.100089
H	 3.6638962971	-3.7322082421	 1.6987752155	 0.099515
H	 4.2353932763	-1.7694728028	 0.256337231	 0.110393
H	 3.8822454405	-0.7653691284	 1.684288006	 0.088807
H	 1.7183259481	 0.5108215716	 1.419941273	 0.095622
H	 0.6905575386	-0.8043951281	 2.0098581734	 0.101244
