18
gdb 34908	2.7819	1.69122	1.33589	1.6641	79.49	-0.2259	0.0438	0.2697	997.4236	0.148558	-364.733064	-364.725612	-364.724668	-364.764723	30.34	
C	 0.0154204747	-1.2313554181	 0.0357168986	-0.481511
C	 0.0036700872	-0.0293485254	 0.0284863471	 0.366619
C	-0.0118439197	 1.4301093029	 0.0379510048	-0.190313
C	-0.7504082915	 2.0479337654	 1.2439746698	-0.035884
C	-0.2877535306	 1.7236959176	 2.6368855159	-0.30624
C	 0.2366689778	 2.9579336866	 1.9425997278	-0.041714
C	 1.5251876276	 2.8955287	 1.1534582214	-0.025051
C	 2.2893248804	 1.6270556984	 1.0421502206	-0.2531
N	 1.3627353006	 2.0199714204	-0.0301478928	-0.100598
H	 0.0223676862	-2.2932367055	 0.0292834677	 0.197335
H	-0.5221105457	 1.7735515743	-0.8699722005	 0.115906
H	-1.7847746104	 2.3333817421	 1.0885313274	 0.094649
H	-1.0041978692	 1.8801677493	 3.4368444986	 0.114267
H	 0.3611708885	 0.8714681817	 2.7981208864	 0.125834
H	-0.0625688759	 3.9303251118	 2.3156868148	 0.090126
H	 2.0272398547	 3.8433791312	 0.9785342863	 0.091182
H	 3.3361318557	 1.6468692442	 0.7494125231	 0.114404
H	 2.0287944396	 0.791512893	 1.6826775628	 0.12409
