23
gdb 112844	2.90142	1.17736	0.95378	1.1533	85.67	-0.2422	0.0821	0.3243	1342.3937	0.206348	-388.286827	-388.277637	-388.276693	-388.320687	35.371	
C	 0.0187114921	 1.3324090674	-0.1607285187	-0.234243
O	-0.0024723188	-0.0309534788	 0.1887523995	-0.246263
C	-1.2906348476	-0.6178161833	 0.131716018	 0.143848
C	-1.8207206312	-0.8512903282	-1.306816809	-0.274942
C	-2.7333992204	-2.0960599242	-1.2204326591	 0.024111
C	-2.8686647187	-2.864798834	-2.5365561882	-0.395188
C	-2.1485972755	-2.9031731227	-0.0621094724	-0.036812
C	-0.6553905387	-3.1121044905	-0.0302625462	-0.285751
C	-1.2751454579	-1.993393623	 0.7703227873	-0.067553
H	 1.0399759094	 1.691237106	-0.0087196181	 0.123629
H	-0.2581420774	 1.502056069	-1.2122262845	 0.103167
H	-0.6617642156	 1.9261572572	 0.4714049546	 0.099088
H	-1.9977855212	 0.0231397729	 0.6869363955	 0.057819
H	-2.3461668409	 0.0158988123	-1.7151218901	 0.094999
H	-0.9636263226	-1.0445915481	-1.9621160382	 0.107905
H	-3.7350975609	-1.7667678277	-0.9109095141	 0.070798
H	-1.8952672087	-3.238861415	-2.872245702	 0.115141
H	-3.5363667489	-3.7259399377	-2.4256384322	 0.110096
H	-3.2758083204	-2.2278390621	-3.3293205114	 0.109286
H	-2.7788341046	-3.6518076463	 0.406819946	 0.076649
H	-0.2900608096	-3.9656842924	 0.5298198435	 0.107845
H	-0.0531125605	-2.8691801433	-0.898746016	 0.115469
H	-1.2528304916	-2.0515856177	 1.8524108057	 0.080901
