17
gdb 110762	2.45064	1.32404	1.11674	2.1684	69.15	-0.2246	0.006	0.2306	1143.0885	0.135997	-455.117908	-455.109019	-455.108075	-455.151859	32.812	
N	-0.1203856856	 1.5017832397	-0.0675625022	-0.600658
C	-0.052222266	 0.0879338041	 0.0031131911	 0.128948
C	-0.2694252955	-0.7680123979	-1.2536681311	-0.034779
C	 0.6964080215	-1.811783797	-1.7546815864	-0.126425
O	-0.0605728214	-2.7960157768	-2.447004216	-0.417213
C	-1.1724433489	-0.9513998267	-0.0724158665	-0.042959
N	-0.5359256311	-1.7102634791	 1.0074379985	-0.340584
C	 0.556004976	-0.8202625275	 1.081316677	 0.330434
O	 1.54542712	-0.8216118389	 1.7587764377	-0.344867
H	-0.2679863893	 1.9058236861	 0.8519370402	 0.243439
H	 0.7435139931	 1.8905583125	-0.4322842877	 0.243241
H	-0.7268276931	-0.1747073993	-2.0429643798	 0.112018
H	 1.432498733	-1.3317405098	-2.4175512156	 0.095797
H	 1.2576591634	-2.2551476212	-0.9193974502	 0.100401
H	 0.554209015	-3.3999329027	-2.8746564455	 0.289777
H	-2.2403281926	-0.7821133394	-0.076130767	 0.117502
H	-0.4119082584	-2.716149336	 0.9766618435	 0.245929
