21
gdb 100888	1.94318	1.17559	0.88447	1.8089	81.41	-0.2498	0.0294	0.2793	1438.382	0.178165	-424.176068	-424.164889	-424.163945	-424.212786	39.697	
C	-0.1254888441	 1.5502806978	-0.0069534766	-0.380346
C	-0.0863442872	 0.0209489073	-0.0497271225	-0.195574
C	 0.8013019117	-0.5115574164	-1.1844256306	 0.111101
O	 2.1259981651	-0.0223964365	-1.1118399402	-0.42971
C	 0.7795729347	-2.0645403283	-1.2570518659	-0.062009
O	 1.4106918269	-2.5644802306	-2.4247082164	-0.242192
C	 0.5970713219	-2.5415766487	-3.5769139427	-0.238945
C	 1.4777601886	-2.6311614137	-0.0999798504	 0.289136
C	 2.0721509893	-3.0342275162	 0.8641473713	-0.416528
H	 0.8857954474	 1.9547852851	 0.0816526037	 0.132842
H	-0.5686055232	 1.9605735363	-0.9213563736	 0.111559
H	-0.7181657133	 1.9064213545	 0.840804559	 0.108948
H	 0.2876775017	-0.3724416651	 0.9039699056	 0.102942
H	-1.1014033638	-0.3790692611	-0.1739042411	 0.091438
H	 0.4110328837	-0.1386857495	-2.1393490157	 0.086183
H	 2.5671258959	-0.4917743078	-0.3918610665	 0.282992
H	-0.2736858934	-2.393076783	-1.2339972626	 0.090528
H	-0.3372069824	-3.1044619007	-3.4241208198	 0.105924
H	 0.3393865562	-1.5219488948	-3.8970262814	 0.113081
H	 1.1701583616	-3.0186607787	-4.3749870894	 0.134741
H	 2.5827777326	-3.4250598397	 1.7099087758	 0.20389
