19
gdb 116021	2.48789	1.4467	0.9527	3.1132	78.96	-0.2334	-0.0559	0.1775	1240.5373	0.158948	-423.056041	-423.047326	-423.046382	-423.08976	32.389	
C	 0.0078586821	 1.5489345557	-0.0121341379	-0.394259
C	 0.0011790542	 0.0214522156	-0.0897692524	-0.181876
C	-1.4005168636	-0.5724218175	-0.0243278691	 0.001216
O	-2.1150461841	-0.1596961583	-1.1854487384	-0.256502
C	-3.4468524437	-0.6115859791	-1.233642482	-0.125438
C	-3.5678412599	-2.090008564	-1.010238298	-0.071319
C	-2.5801218079	-2.7899045667	-0.4420872715	-0.140575
C	-1.3888453837	-2.1049821184	 0.0971560499	 0.360052
O	-0.4959925848	-2.6992180964	 0.6667141118	-0.329604
H	 1.0269675507	 1.9386593283	-0.0913263214	 0.113467
H	-0.5871437257	 1.9829835007	-0.820095377	 0.130135
H	-0.4093389573	 1.8992599952	 0.9389122492	 0.110078
H	 0.4659422905	-0.3134579609	-1.0245060393	 0.10855
H	 0.5811313926	-0.420332832	 0.7249075955	 0.124613
H	-1.9180204864	-0.1934775905	 0.8798647977	 0.084084
H	-4.078105164	-0.0774547944	-0.4961656362	 0.108744
H	-3.8296800385	-0.3445912435	-2.2251684299	 0.128232
H	-4.4931697749	-2.5672666118	-1.3247373703	 0.116177
H	-2.6287284257	-3.863796672	-0.2931648607	 0.114226
