15
gdb 46629	3.11525	1.70578	1.12555	0.9069	68.35	-0.2443	-0.0067	0.2376	1011.7647	0.115847	-454.000284	-453.993224	-453.992279	-454.032312	25.851	
O	-0.0222322546	-0.0367341286	 0.0025472731	-0.362076
C	 0.0047416633	 1.1690184203	 0.0089622011	 0.376633
C	-1.1955049403	 2.13622953	 0.0317924222	-0.224149
O	-0.6415989706	 3.4702105425	 0.0312534375	-0.25855
C	 0.6935293453	 3.3557084819	 0.0113004504	 0.523366
N	 1.5948336434	 4.24046936	 0.0032104052	-0.367851
C	 2.8709633009	 3.4935894628	-0.0193214349	-0.17254
C	 2.529147183	 1.9518708228	-0.0232658451	-0.209559
N	 1.0757534374	 2.0156806817	-0.0017161182	-0.151036
H	-1.826422683	 2.0033457554	-0.8512733007	 0.157946
H	-1.8005968688	 1.9933451871	 0.9312192982	 0.157947
H	 3.4470013235	 3.7735605628	-0.9065362905	 0.125338
H	 3.4721356416	 3.7634713739	 0.8542470604	 0.125336
H	 2.8851967274	 1.4347977485	-0.9180519551	 0.139594
H	 2.9110731414	 1.4244798789	 0.8546612465	 0.139601
