21
gdb 93502	2.74661	1.30887	1.02071	4.562	78.6	-0.2539	0.0184	0.2723	1233.4074	0.182911	-424.284729	-424.27567	-424.274726	-424.318517	34.479	
C	-0.1597562866	 1.5224220485	-0.0035326328	-0.416609
C	 0.0746600962	 0.0088219471	-0.0249413453	 0.010345
C	 0.7344825929	-0.4749308787	-1.3188278075	-0.223859
C	 0.8306599141	-2.0014052442	-1.3033417933	-0.33984
C	 1.2954545401	-2.6155902739	 0.0102103617	 0.399428
O	 1.7280859035	-3.7342987755	 0.0817964704	-0.326344
O	 1.1308436017	-1.9024775647	 1.1509562089	-0.243752
C	 0.8927654938	-0.4730619262	 1.1843890749	 0.131625
C	 2.2371457675	 0.2216532557	 1.4009104925	-0.40221
H	 0.7686996248	 2.0778911439	-0.1685105757	 0.12398
H	-0.8601804085	 1.8085036859	-0.7941950251	 0.120586
H	-0.5837984728	 1.850969702	 0.9514270905	 0.118206
H	-0.9041109892	-0.4858144738	 0.0513694418	 0.08265
H	 0.1589839205	-0.1434299587	-2.1897386927	 0.102733
H	 1.7311245925	-0.0292253751	-1.4222219767	 0.108315
H	-0.1618604224	-2.4345530607	-1.4862808075	 0.138447
H	 1.482186671	-2.3936779532	-2.0873471206	 0.134571
H	 0.2878508546	-0.3377384229	 2.0877768041	 0.095436
H	 2.8798937844	 0.1540396026	 0.5179592952	 0.12382
H	 2.0971687088	 1.2779093676	 1.6460257065	 0.123189
H	 2.758304203	-0.2575096158	 2.2330989908	 0.139284
