18
gdb 86836	2.66433	1.26559	1.07076	2.5254	77.6	-0.2415	-0.021	0.2205	1190.4586	0.146634	-401.937515	-401.928607	-401.927662	-401.97135	33.442	
C	-0.1481263146	 1.5365665474	-0.0259378018	-0.397601
C	 0.066728391	 0.0280983017	 0.0119236977	-0.063074
N	 0.8563980059	-0.4831786622	-1.1133693299	-0.306471
C	 1.4433949214	-1.776753988	-0.7005166072	-0.175546
C	 1.8925930868	-1.4761738787	 0.7447609641	-0.323539
C	 0.8810873251	-0.4352115782	 1.2267195193	 0.426236
O	 0.7435302356	-0.0401176335	 2.3538075642	-0.316379
C	 0.4975966971	-2.8999140153	-0.7653155961	 0.34014
C	-0.3045420749	-3.7932145208	-0.8411100127	-0.487872
H	 0.8055973567	 2.0529400601	-0.1653102431	 0.125556
H	-0.8159711559	 1.8204332562	-0.8447505469	 0.112898
H	-0.5936229089	 1.864483754	 0.9171641951	 0.138378
H	-0.9132859523	-0.4765665163	 0.1074892273	 0.098392
H	 0.301461792	-0.5869170723	-1.9552814263	 0.228695
H	 2.2993849554	-2.000191311	-1.3457301832	 0.112037
H	 1.9225010657	-2.3460493724	 1.4010007037	 0.142918
H	 2.8834427104	-1.0090718186	 0.7428295487	 0.141624
H	-1.0042062864	-4.589769482	-0.9064643328	 0.203608
