19
gdb 90141	3.5102	1.49302	1.30283	1.9981	79.54	-0.228	0.0028	0.2308	1040.8873	0.159697	-385.851852	-385.844297	-385.843353	-385.883386	30.659	
C	-0.0176527101	 1.6060332417	 0.1255517407	-0.403974
C	 0.0335352829	 0.0998849497	-0.0782482055	-0.040721
C	 1.140610869	-0.4997447444	-1.0376838631	-0.322114
C	 1.644359796	-1.3311830984	 0.153683526	 0.283754
O	 2.0136161088	-0.406712169	 1.2001505334	-0.303252
C	 0.6371243047	-0.758165498	 1.0616300353	 0.295208
C	 0.1357072721	-1.8458438264	 1.993158847	-0.371607
C	 0.9884511703	-3.0387430432	 1.5550394349	-0.057276
C	 1.7911369801	-2.7644549322	 0.5154033801	-0.176634
H	 0.9567980717	 1.9750347496	 0.4578048639	 0.133874
H	-0.2808868489	 2.120926524	-0.8046085346	 0.110955
H	-0.762102949	 1.8786359859	 0.8818467981	 0.113099
H	-0.9490673948	-0.2912672088	-0.3614049792	 0.077419
H	 0.7176198269	-1.103173537	-1.8435822593	 0.108828
H	 1.8644064333	 0.2066334746	-1.4518580501	 0.108094
H	 0.2774936051	-1.6092755768	 3.0540371415	 0.126023
H	-0.9347031976	-2.0398878581	 1.8499987687	 0.115559
H	 0.9689346396	-3.9835642601	 2.0892421123	 0.100332
H	 2.4736340999	-3.4612383033	 0.0443845399	 0.102433
