21
gdb 109963	1.9872	1.44578	0.93832	1.8683	82.97	-0.2232	0.0281	0.2513	1335.6759	0.18047	-420.387278	-420.376699	-420.375754	-420.42352	37.003	
C	-0.2461150557	 1.4436384897	 0.3447918158	-0.245816
O	-0.1883315587	 0.1787438785	-0.2970815916	-0.24028
C	-1.3754503018	-0.5461731945	-0.1824358412	-0.004527
C	-1.2882888833	-1.9929490714	-0.7751927672	 0.013994
C	 0.1046982608	-2.4628198122	-1.1649041722	-0.38848
N	-1.7855119644	-2.4755999206	 0.5329839129	-0.359757
C	-1.6580580338	-1.2377311625	 1.160437318	 0.404048
N	-1.7245683357	-0.8157467401	 2.3492930501	-0.33115
C	-1.9479852625	-1.8118314474	 3.3897568963	-0.338392
H	 0.7259002369	 1.9185398493	 0.1934058608	 0.122119
H	-1.0278556225	 2.0775890609	-0.101962123	 0.102391
H	-0.4470666885	 1.3364211194	 1.4163295391	 0.149623
H	-2.2336620196	 0.0331774332	-0.5553588727	 0.081977
H	-2.0008159482	-2.188677009	-1.5839316668	 0.081462
H	 0.8295185289	-2.2362408141	-0.3796097985	 0.132028
H	 0.1052181875	-3.5426379067	-1.3496128209	 0.108961
H	 0.4320805284	-1.9623728117	-2.0807991876	 0.131453
H	-1.5891901062	-3.3800098889	 0.9379870603	 0.240344
H	-2.1831542034	-1.3093367966	 4.3315157468	 0.122928
H	-2.7794830603	-2.4929255521	 3.1522877984	 0.107249
H	-1.0530395177	-2.4288735531	 3.5611819633	 0.109827
