22
gdb 93858	1.94548	1.64619	1.41879	1.5509	80.83	-0.2439	0.0652	0.309	1104.2454	0.195314	-404.336192	-404.327117	-404.326173	-404.369718	35.295	
C	 0.6124361459	 1.6944622038	 0.0027178338	-0.40223
C	 0.1127156986	 0.2464507361	 0.1195239807	-0.073676
C	 0.5278433252	-0.6317750686	-1.0844228745	-0.218626
C	 1.9508291139	-1.1521315702	-0.7481855942	-0.222863
C	 2.1246888705	-1.002999043	 0.7821899875	 0.0696
O	 3.1638327323	-0.0472086099	 1.0013103148	-0.434523
C	 0.7630194363	-0.5102605546	 1.2745483104	 0.341286
C	 0.4634670922	-0.2597200085	 2.7013955844	-0.321447
N	-0.0146155745	-1.4962238327	 2.0502696934	-0.364793
H	 1.7019284704	 1.7287844183	-0.0724305046	 0.142469
H	 0.1850753209	 2.1795929875	-0.8812286606	 0.106622
H	 0.3217029092	 2.2816611098	 0.8802954656	 0.10609
H	-0.9779999772	 0.2610967211	 0.2396369817	 0.055972
H	-0.164512739	-1.4756264305	-1.1729820628	 0.098886
H	 0.4932085045	-0.08663755	-2.0320237035	 0.094893
H	 2.086954281	-2.1865101968	-1.0715909589	 0.103487
H	 2.7276689547	-0.5556847151	-1.2325687487	 0.119189
H	 2.3699240189	-1.9530743348	 1.2730881939	 0.075856
H	 3.2040716362	 0.1300002548	 1.947099151	 0.278848
H	 1.2211118229	-0.4139102412	 3.4674854799	 0.106863
H	-0.2577282462	 0.5173170282	 2.9440338089	 0.1121
H	-1.0046088969	-1.4012607739	 1.8321743317	 0.225999
