22
gdb 56017	3.32606	0.99112	0.90513	2.4284	83.1	-0.2576	0.0367	0.2943	1411.7364	0.195024	-404.380941	-404.371552	-404.370607	-404.416237	34.734	
C	-0.7385087969	 1.3272161046	 0.2279245144	-0.440165
C	-0.1111441566	-0.0349444264	 0.3333105092	 0.405305
N	 1.0645419445	-0.190994443	 0.7869510418	-0.523673
O	-0.9808321226	-0.9780672493	-0.1206229762	-0.258052
C	-0.5772190352	-2.3580267314	-0.1302108036	 0.106398
C	-0.650493443	-2.9824443865	 1.2906252183	-0.223052
C	-1.9508946884	-3.8320369709	 1.3224289863	-0.201245
C	-2.7411703588	-3.4043238298	 0.0715649897	-0.196838
C	-1.6346329807	-3.1068486426	-0.9502424872	-0.222034
H	-0.0405911233	 2.0803567246	 0.59061629	 0.145283
H	-1.0079601664	 1.5403883233	-0.811149358	 0.136007
H	-1.6615937096	 1.3644345406	 0.8149762571	 0.134795
H	 1.3531932278	-1.167646919	 0.808042918	 0.216236
H	 0.421092148	-2.4252240396	-0.5762859254	 0.079622
H	 0.2335594258	-3.5932587203	 1.4962084127	 0.102214
H	-0.664963365	-2.1852296987	 2.0371647105	 0.123107
H	-1.7032629397	-4.8972106307	 1.2557234607	 0.100707
H	-2.5151906323	-3.6949457019	 2.2483158978	 0.100943
H	-3.449998229	-4.1643780768	-0.2673997844	 0.095166
H	-3.3058478219	-2.4874967306	 0.2726179078	 0.11146
H	-1.9594174761	-2.521584044	-1.8133556113	 0.108725
H	-1.1995650005	-4.0437941717	-1.3183813282	 0.099092
