16
gdb 50205	3.98827	1.06974	1.00007	3.6683	71.69	-0.2527	-0.0415	0.2112	1183.1131	0.123914	-437.892807	-437.884905	-437.883961	-437.926602	28.623	
O	-0.0689136566	 0.0058251342	 0.5848483676	-0.324463
C	 0.0038400457	 1.2133668241	 0.4950835567	 0.128122
N	 1.0984778567	 1.8824030182	 0.0660263623	-0.029145
C	 2.40029916	 1.377612125	-0.3752359745	-0.187498
C	 2.8210729695	 2.8537164146	-0.6652680306	-0.182375
C	 1.4063538983	 3.2971857315	-0.1341544321	-0.023122
C	 1.0223968799	 3.8506470262	-1.5361614047	-0.360467
C	 2.3869815081	 3.3462691466	-2.0584927041	 0.408567
O	 2.9227405687	 3.3609533272	-3.1254509335	-0.280244
H	-0.8220861429	 1.9039634966	 0.7650264477	 0.070692
H	 2.9702940038	 0.9034190025	 0.4296452107	 0.136934
H	 2.3648321142	 0.7001630196	-1.2331440046	 0.143021
H	 3.7755052549	 3.1960754766	-0.2702618681	 0.112899
H	 1.2552131696	 3.9451106263	 0.7298050938	 0.101932
H	 0.1265962133	 3.4425704977	-2.0097102451	 0.142631
H	 0.9745445767	 4.945092143	-1.5678916814	 0.142517
