20
gdb 92609	3.88637	1.23221	1.01862	3.6793	80.47	-0.2411	0.0318	0.2729	1214.6217	0.173741	-403.182639	-403.174875	-403.173931	-403.214831	30.578	
C	-0.1351185366	 1.5431114237	 0.0857883175	-0.383152
C	 0.0749945732	 0.034319624	 0.037650715	 0.063737
C	 0.7992048989	-0.4655603563	-1.2605462843	-0.267513
C	 1.5270676898	-1.7131833316	-0.7488043235	-0.096454
C	 2.9743536562	-2.1056718597	-1.0694522724	-0.270499
C	 3.4188222699	-2.6883919944	 0.2934656282	-0.085868
O	 2.6835163636	-1.9612711361	 1.3098079411	-0.255256
C	 1.6629982683	-1.3263573832	 0.7037237949	 0.443498
N	 0.9194089926	-0.4176109756	 1.1741941944	-0.333177
H	 0.8264203086	 2.0656541058	 0.0436962526	 0.114317
H	-0.747955436	 1.8776917616	-0.7583912834	 0.105217
H	-0.6355392798	 1.8332886225	 1.0135260986	 0.125848
H	-0.9069505641	-0.4565211739	 0.118911631	 0.075153
H	 0.1123514768	-0.6512947898	-2.0897875726	 0.099239
H	 1.5237979738	 0.2926225697	-1.5822227519	 0.100819
H	 0.8804851687	-2.5992411611	-0.825228408	 0.09502
H	 3.0886202877	-2.8299111149	-1.8787183804	 0.111189
H	 3.5684531783	-1.2183244235	-1.3130041297	 0.116794
H	 3.1701225067	-3.753078869	 0.3795978486	 0.115715
H	 4.4827577033	-2.5594858081	 0.5031198245	 0.125376
