21
gdb 67035	2.05592	2.02888	1.59624	1.5227	81.5	-0.2305	0.0876	0.3181	1002.6912	0.182891	-387.078883	-387.070638	-387.069694	-387.110941	33.08	
C	 0.0013279436	 1.539537733	-0.0998015235	-0.523641
C	 0.0082631612	 0.0437916252	-0.0126973799	 0.313389
C	 0.4415979801	-1.0490348945	-0.9830763447	-0.130992
C	 1.236691433	-1.7714118649	 0.1032836531	-0.278627
C	 0.5127852332	-0.8625612358	 1.1581911548	 0.357414
C	 1.3154249557	-0.2839045094	 2.2961687672	-0.477875
O	-0.6402227135	-1.5210814581	 1.6839075921	-0.303262
C	-1.5110203379	-1.7957511201	 0.5829514764	-0.108802
C	-1.0135297456	-0.9101656065	-0.5520777813	-0.125044
H	 1.0027592463	 1.9612172166	 0.0450991565	 0.118052
H	-0.3565607401	 1.8715707766	-1.080167219	 0.119402
H	-0.6567457069	 1.981043613	 0.6580717041	 0.124333
H	 0.7240699602	-0.9470389681	-2.0251504532	 0.079537
H	 1.1022167449	-2.851395935	 0.2275694684	 0.092776
H	 2.3056271534	-1.5473388014	 0.0406133957	 0.096011
H	 2.1899510979	 0.2542966128	 1.9197210816	 0.115288
H	 0.7040366335	 0.4078225503	 2.8836254592	 0.124107
H	 1.6616758498	-1.0812132324	 2.9610296635	 0.12741
H	-1.4816949996	-2.8653169314	 0.3302242739	 0.094078
H	-2.5375989549	-1.5461289502	 0.8770075342	 0.100921
H	-1.7140409543	-0.5641531698	-1.3039360191	 0.085525
