20
gdb 117450	5.88406	0.6085	0.56868	4.8163	79.34	-0.2476	-0.0267	0.2209	1967.4212	0.16786	-440.301244	-440.290643	-440.289699	-440.33866	36.247	
C	-0.2049638171	 1.3087513257	-0.0087082418	-0.387524
C	-0.1368358345	-0.1984187873	-0.2640754262	-0.160755
C	 0.9911310172	-0.5840134828	-1.2223215484	-0.289954
C	 1.1250401036	-2.0804907503	-1.4457982618	 0.357765
O	 0.5591513408	-2.9078430529	-0.7734448566	-0.283524
C	 2.0236414096	-2.4939451354	-2.6186441708	-0.194811
O	 2.4359998738	-3.8379383386	-2.5671043368	-0.165866
C	 1.4956783744	-4.7784411894	-2.8241315478	 0.150136
N	 1.8026883463	-5.9975056163	-2.7430735263	-0.444791
H	 0.7256002942	 1.6805518015	 0.4346517027	 0.116483
H	-0.373597203	 1.865992323	-0.9371517429	 0.113907
H	-1.0205718884	 1.5540277307	 0.677891008	 0.1203
H	 0.0024786383	-0.7391093766	 0.6771493102	 0.123836
H	-1.0895173133	-0.5542892295	-0.6725272717	 0.109177
H	 0.8755782096	-0.0893528649	-2.1976547016	 0.11655
H	 1.9610381938	-0.2300503724	-0.8402465301	 0.13224
H	 1.4822435425	-2.2664960309	-3.5518420536	 0.127285
H	 2.9350261984	-1.8887880493	-2.6257033985	 0.141286
H	 0.5231415336	-4.3610542882	-3.1111669943	 0.08849
H	 0.9992465802	-6.5739452161	-2.9835967116	 0.229769
