16
gdb 67414	2.80567	1.54542	1.29996	3.0782	75.05	-0.2326	0.0153	0.2479	1001.1525	0.12602	-396.87083	-396.863045	-396.862101	-396.903289	29.636	
N	-0.1079567363	 1.4259171147	-0.0209198485	-0.64017
C	 0.0401144044	 0.0297454381	-0.0215679039	 0.298956
C	 0.1302605813	-1.0701301727	-1.0294096608	-0.120577
N	 1.3153733109	-1.6469179504	-0.4324133516	-0.293314
C	 0.9328459189	-0.9746065233	 0.8426305278	-0.07447
C	-0.3767983146	-1.6609476122	 1.3253811919	-0.301354
C	-1.0208082331	-1.0655074993	 0.0743917407	 0.162645
C	-2.3886077435	-0.9459489552	-0.2779733305	 0.157571
N	-3.5025887403	-0.8210861805	-0.5747250834	-0.359185
H	 0.433663931	 1.8807912873	-0.7463233519	 0.249166
H	-1.0765147332	 1.7120588213	-0.0978299929	 0.257256
H	-0.1155904682	-1.1008008869	-2.0834132152	 0.118796
H	 1.3090502706	-2.6660431509	-0.3705544748	 0.218473
H	 1.7332298122	-0.7231954482	 1.5342490867	 0.094845
H	-0.3622455853	-2.7504315917	 1.4396804076	 0.103234
H	-0.7717003348	-1.1932556502	 2.2298080289	 0.128128
