16
gdb 26962	3.2134	1.29819	0.99191	3.2595	73.17	-0.1985	0.0111	0.2097	1161.658	0.126496	-434.065542	-434.05753	-434.056586	-434.098757	29.414	
N	 0.2547246999	 1.3327257621	 0.5721522026	-0.600279
C	 0.0113662134	 0.042880429	 0.1305099058	 0.254193
C	-1.094892309	-0.6753347893	-0.2149135509	 0.23124
N	-0.6948087143	-1.9934549115	-0.4575764605	-0.321474
C	 0.5774836372	-1.9971596176	-0.2703324227	 0.055191
O	 1.092461361	-0.7896139353	 0.0963719883	-0.16821
C	-2.5050946398	-0.2650573703	-0.3195304346	-0.118041
C	-3.4100172867	-0.9408197232	-1.2888894989	-0.237781
N	-3.567330043	-1.1775768714	 0.1539313142	-0.323602
H	 1.0903280457	 1.7413921967	 0.1708663879	 0.260737
H	-0.5381151433	 1.9445890359	 0.436644015	 0.26196
H	 1.278599441	-2.8097080988	-0.3691007755	 0.150095
H	-2.6971796775	 0.7790943143	-0.0802805036	 0.071286
H	-4.2183148475	-0.3834411244	-1.7548034706	 0.113022
H	-2.9735126446	-1.7282400373	-1.8961239856	 0.128244
H	-3.1295366926	-2.0680286491	 0.3858236492	 0.243418
