16
gdb 6951	2.68967	2.34305	1.69538	2.9058	66.37	-0.2414	-0.0545	0.1868	823.1189	0.13001	-383.779091	-383.771511	-383.770567	-383.810756	28.848	
C	 0.0568776917	 1.5523473579	 0.0132582588	-0.430577
C	-0.0353816122	 0.0215974711	-0.0384030972	 0.307117
O	-1.3885766169	-0.4012844591	-0.0363914064	-0.475216
C	 0.7268708241	-0.5826682176	-1.2348927615	-0.310779
C	 1.9460589494	-1.2178156348	-0.6140365988	-0.048782
C	 1.9300613138	-1.2113743537	 0.7267944734	-0.179231
C	 0.6840900217	-0.5804458356	 1.1931755784	 0.341229
O	 0.2151652936	-0.5421194506	 2.3101226539	-0.360137
H	 1.0952646851	 1.8959917663	-0.0452796641	 0.115804
H	-0.5049570621	 1.9809867364	-0.8214575009	 0.12594
H	-0.3721678978	 1.9173173284	 0.9514827905	 0.128687
H	-1.6665367936	-0.3846736461	 0.8903532395	 0.286922
H	 0.1020295428	-1.3361839404	-1.727737746	 0.141791
H	 0.9952382338	 0.157845172	-1.9964674026	 0.115919
H	 2.736149652	-1.6473779813	-1.2215396016	 0.120004
H	 2.6690472544	-1.637596913	 1.3927629247	 0.121309
