14
gdb 20630	4.0521	1.87494	1.29216	5.612	70.73	-0.2206	-0.0514	0.1693	897.147	0.108401	-374.885658	-374.87851	-374.877566	-374.917242	26.246	
C	 0.0096939742	 1.5130317249	-0.0218046453	-0.493084
C	-0.0767983296	 0.0187013197	 0.0099615485	 0.441121
C	-1.1950469505	-0.7182768414	-0.1315751501	-0.273033
C	-1.1080356563	-2.1644232016	-0.0762240055	 0.38454
N	-2.1259707876	-2.927547321	-0.2042388756	-0.523183
N	 0.1988553835	-2.7293733233	 0.1338826125	-0.258128
N	 1.2241407447	-2.0139135507	 0.2624814305	-0.037652
N	 1.1072158649	-0.6632234657	 0.2034227935	-0.306067
H	 0.6673991707	 1.8533841724	-0.8300950918	 0.146962
H	-0.9798389991	 1.9446234829	-0.1792300404	 0.155137
H	 0.4118290375	 1.9054380956	 0.9194952034	 0.146947
H	-2.1610515451	-0.2557044291	-0.2863324906	 0.121291
H	-1.8177163295	-3.8998577395	-0.1298147432	 0.220107
H	 1.9870832123	-0.1871048433	 0.3180592942	 0.275042
