21
gdb 41436	2.69336	2.09046	1.62932	0.2548	86.33	-0.2205	0.0851	0.3056	930.3331	0.185639	-349.859213	-349.852594	-349.85165	-349.889578	29.27	
C	 0.0062005329	 1.5156355689	-0.1844093605	-0.330122
C	 1.572921613	 1.4819146515	 0.0743897933	-0.326388
C	 1.3540124891	 0.1605275102	 0.8921899943	 0.294338
C	 1.0457881112	 0.2966641893	 2.3860859742	-0.275128
C	-0.1020360966	-0.7411105471	 2.5334213104	-0.237122
C	-0.2087963397	-1.2161110765	 1.0887944401	-0.083296
C	 1.2737467263	-1.3605162108	 0.499245838	-0.120961
C	 0.7298430956	-0.9776775653	-0.8827428455	-0.269961
C	 0.0334966188	-0.0065191191	 0.1111924569	 0.262581
H	-0.5155882649	 2.1018060604	 0.5768470563	 0.109313
H	-0.3419007475	 1.8302814457	-1.1721307853	 0.099619
H	 2.1451372094	 1.3745859504	-0.8480872765	 0.112364
H	 1.9925758144	 2.3149607355	 0.6429415264	 0.099191
H	 1.9143931337	 0.0596568975	 3.0098163247	 0.09416
H	 0.727080521	 1.3095903322	 2.6543460286	 0.091074
H	 0.1483776379	-1.5651900871	 3.2092470477	 0.09649
H	-1.0326441447	-0.2926019814	 2.8956813675	 0.096765
H	-0.938474053	-1.9939814715	 0.8463617967	 0.059488
H	 1.9621516684	-2.1771994355	 0.7468238425	 0.055979
H	 1.4394205701	-0.5511498161	-1.595113253	 0.088056
H	 0.0823727048	-1.7067688313	-1.3786194566	 0.083559
