12
gdb 21832	6.05267	1.46675	1.18064	0.619	58.36	-0.2557	-0.0243	0.2314	914.9752	0.085389	-414.677178	-414.670753	-414.669809	-414.708264	23.094	
O	-0.3162236169	 0.0385204186	 0.0022922918	-0.299117
C	-0.0927973756	 1.2262876446	 0.0085246634	 0.153558
N	 1.1512823204	 1.8042176823	 0.0014919739	-0.396729
C	 2.3654742961	 1.1306265769	-0.0136088793	 0.496251
N	 3.4730647231	 1.8414488749	-0.0177213146	-0.2365
O	 4.5011043457	 0.9064023245	-0.0332279556	-0.160293
C	 3.9702267727	-0.3238866455	-0.037828201	 0.093084
C	 2.615158095	-0.272290348	-0.0260498246	-0.337576
H	-0.886784507	 1.9958525097	 0.0209618826	 0.095985
H	 1.2127389838	 2.8123495334	 0.0082164658	 0.272404
H	 4.6769474218	-1.1391826893	-0.0497869491	 0.157193
H	 1.8927432709	-1.0665651222	-0.0257569934	 0.16174
