11
gdb 50790	5.37654	0.62588	0.56232	2.8189	76.03	-0.3045	-0.11	0.1945	1760.2264	0.064127	-451.544503	-451.53591	-451.534966	-451.579341	28.268	
N	-0.0469897977	 1.4448072	 0.1422728383	-0.49524
C	 0.0058447601	 0.1789346627	 0.1407684883	 0.215689
O	-1.107761336	-0.6034558918	 0.2551680265	-0.19647
C	-2.3495060338	-0.0528710287	-0.0345035776	 0.17869
O	-3.33809212	-0.6705461993	 0.1835040019	-0.231391
C	 1.1942585074	-0.6177777998	 0.0506169312	 0.078655
C	 2.2280487871	-1.238738873	-0.0258200278	 0.141077
C	 3.3955337882	-1.9401723028	-0.1128927707	 0.211346
N	 4.3908459677	-2.5338192092	-0.1879831518	-0.311919
H	 0.8777976074	 1.8581235794	 0.0426042007	 0.259143
H	-2.2714695405	 0.9467544924	-0.477672719	 0.15042
