21
gdb 78969	2.95644	1.93402	1.69206	0.0719	83.41	-0.2516	0.0954	0.347	920.4484	0.186563	-349.943277	-349.936776	-349.935832	-349.973609	28.761	
C	-0.1285386991	 1.5635369016	 0.0392174479	-0.423182
C	 0.0096826967	 0.0443804206	 0.0012264123	 0.053132
C	 0.9500843126	-0.5044509426	-1.0901849271	-0.060305
C	 2.348931535	 0.0077113205	-0.6888024671	-0.070604
C	 2.752667604	-1.3527229197	-0.1895675937	-0.078885
C	 2.284023989	-0.2959678447	 0.8012429148	-0.057699
C	 0.8000226454	-0.6044209188	 1.1735959726	-0.05455
C	 0.6742128794	-2.1007574235	 0.7989392122	-0.221336
C	 1.3822236916	-1.9523537738	-0.5596744458	-0.057894
H	 0.8453741709	 2.0523197411	 0.1402956783	 0.120256
H	-0.5989093061	 1.9404593981	-0.8758426363	 0.108382
H	-0.7497803983	 1.8794869096	 0.8842848652	 0.108272
H	-0.9883115602	-0.4060201881	-0.0706065836	 0.059146
H	 0.6407709597	-0.4190855669	-2.1309227785	 0.056877
H	 2.9413650421	 0.7964676255	-1.135436204	 0.077052
H	 3.7208828934	-1.8375473324	-0.1652108328	 0.077156
H	 2.9810745494	 0.1627096261	 1.4895867133	 0.078586
H	 0.4994969215	-0.3180063597	 2.1818739366	 0.050689
H	 1.2266819404	-2.7656015959	 1.4708511582	 0.088477
H	-0.3656985169	-2.4381921509	 0.7396429753	 0.086134
H	 1.3472032796	-2.7808047659	-1.2647787676	 0.060296
