17
gdb 49438	3.17737	1.46568	1.30772	3.8864	71.34	-0.2402	-0.0268	0.2134	1001.802	0.136982	-421.798725	-421.791583	-421.790639	-421.83098	27.491	
O	 0.1181760274	-0.0778669305	 0.5786434172	-0.25604
C	 0.0655677495	 0.9780151873	-0.0008980004	 0.157101
C	 1.2174815987	 1.9486638423	-0.0707276464	-0.104619
C	 1.4419363803	 2.8485079237	-1.2930700144	-0.116016
C	 0.5559654521	 4.0878440302	-1.2641896715	-0.068854
C	-0.6679721266	 4.1146566469	-0.3612736993	-0.112278
O	-0.1849950783	 3.7502861747	 0.9391486662	-0.256386
C	 1.1407325807	 3.2802870347	 0.7853542826	 0.065535
C	 1.776693154	 4.0397052451	-0.4021837269	-0.09236
H	-0.8640894263	 1.2911395521	-0.527151204	 0.071781
H	 2.1327456896	 1.4104401976	 0.1930604934	 0.097174
H	 1.9326644495	 2.5437199123	-2.2098306388	 0.096954
H	 0.562879539	 4.6972095612	-2.1600655965	 0.100865
H	-1.1039271491	 5.1194798672	-0.3066354995	 0.111445
H	-1.4555909668	 3.4177027925	-0.6769198756	 0.106186
H	 1.6217869749	 3.2583469376	 1.7609847216	 0.099395
H	 2.6084922014	 4.7294459851	-0.4046386478	 0.100116
