20
gdb 99170	3.36432	0.96205	0.78336	3.9632	77.05	-0.2346	0.037	0.2716	1476.7087	0.170817	-440.302903	-440.293125	-440.292181	-440.339158	33.935	
C	-0.4675302161	 1.1058788329	-0.8692041171	-0.331662
N	-0.0056306615	-0.2484562146	-1.0942296806	-0.297238
C	 1.0916813513	-0.7580012684	-0.4696186422	 0.373879
O	 1.7588996027	-0.142890303	 0.3448798354	-0.378771
C	 1.4159622357	-2.2081501885	-0.8502561711	-0.316024
C	 1.4544946675	-2.4891121787	-2.346752738	 0.141376
C	 1.5382975834	-3.9697078582	-2.7853889056	-0.295944
C	 0.1624870095	-3.7215982202	-3.43374586	-0.06402
O	 0.1505676846	-2.3477147223	-2.983459128	-0.295707
H	 0.1883500693	 1.5578008205	-0.1242599918	 0.165836
H	-0.4272987197	 1.7006731948	-1.7891667194	 0.122255
H	-1.497333974	 1.1185028617	-0.494138613	 0.120657
H	-0.4567675079	-0.8240324454	-1.7920739932	 0.2624
H	 2.3915945073	-2.4352255697	-0.4123108757	 0.129259
H	 0.6763686949	-2.8706643141	-0.382688534	 0.11547
H	 2.1829228542	-1.8312937648	-2.8371691483	 0.091753
H	 2.3478963003	-4.2077102691	-3.4760105467	 0.11846
H	 1.5441562453	-4.6872050678	-1.962794128	 0.116378
H	 0.1331136676	-3.784781995	-4.5274028444	 0.111144
H	-0.6764358644	-4.2939691402	-3.0218982684	 0.1105
