15
gdb 128921	6.90267	0.74047	0.70611	1.9889	70.74	-0.2637	-0.0079	0.2558	1498.7902	0.114553	-413.011392	-413.003409	-413.002464	-413.045461	27.737	
N	 0.0023209007	-1.1761224284	-0.0036260979	-0.286359
C	-0.0275972161	-0.0214061761	 0.0028675565	 0.260146
C	-0.024583143	 1.4386055118	 0.0109828487	-0.334923
C	 1.416061995	 2.0007042298	-0.0017947592	-0.185192
N	 1.4279962452	 3.4504254339	 0.0062745449	-0.006547
C	 1.3874543241	 4.3021507595	-1.065481844	 0.014774
N	 1.356575681	 5.547659848	-0.6720585851	-0.214441
N	 1.3734881109	 5.5397996772	 0.7099595238	-0.214452
C	 1.4138091235	 4.2899055963	 1.088315951	 0.014794
H	-0.5750795189	 1.8060045368	-0.861358866	 0.171573
H	-0.5556019285	 1.7962455931	 0.8993033567	 0.171601
H	 1.9651969279	 1.6391389607	 0.8706773712	 0.157537
H	 1.9457973151	 1.6489435582	-0.8901307688	 0.157541
H	 1.3933353157	 3.9588963201	-2.0889942226	 0.146968
H	 1.4446411772	 3.935006839	 2.1074004306	 0.14698
