18
gdb 6572	3.72198	1.67128	1.46204	2.3762	67.9	-0.243	0.076	0.3191	921.329	0.151613	-384.906779	-384.898559	-384.897615	-384.938519	32.341	
C	-0.1015376704	 1.5644600946	 0.0594525617	-0.449093
C	 0.0486582491	 0.0491665464	 0.0108091904	 0.42314
O	-1.2161134918	-0.5738918534	-0.1614595119	-0.47645
C	 1.1360862883	-0.5533964286	-0.9600269001	-0.362388
C	 1.7658959989	-1.2654241172	 0.2452876144	 0.409389
O	 2.2173762402	-2.5727538303	 0.2289779204	-0.463972
C	 2.1960242315	-0.2713506961	 1.2830477448	-0.356767
C	 0.7351968266	-0.6621387075	 1.1831589195	-0.129025
H	 0.8532240292	 2.0656312463	 0.2408847197	 0.116152
H	-0.4927935091	 1.9424834107	-0.8936828166	 0.104452
H	-0.8009194663	 1.8489454491	 0.8514501418	 0.125245
H	-1.6129745351	-0.2175032816	-0.9640431187	 0.272584
H	 0.6639155332	-1.2585681093	-1.6466987344	 0.109838
H	 1.7751873266	 0.1429808281	-1.5150098995	 0.079802
H	 3.1542592664	-2.5663771769	 0.0039416797	 0.283474
H	 2.7039290089	-0.7123155763	 2.1352247663	 0.114855
H	 2.5427869363	 0.7252572514	 1.0182368338	 0.100582
H	 0.1981486073	-1.1089822094	 2.0104245485	 0.098183
