14
gdb 133153	2.30855	1.84839	1.03298	1.8373	68.07	-0.2428	-0.0603	0.1825	1050.1275	0.101309	-478.018381	-478.010711	-478.009766	-478.050842	28.137	
C	-0.0274901112	 1.5347008799	 0.0037336448	-0.48919
C	-0.0034090643	 0.0400774011	-0.0310072424	-0.000074
C	-0.1072337126	-0.7128914083	-1.1545728587	 0.216978
F	-0.2435081141	-0.146191689	-2.3540594705	-0.064246
C	-0.0775467197	-2.1379224134	-1.123583366	-0.0907
N	 0.0514023809	-2.7988592663	-0.0105444516	-0.179171
N	 0.1543654728	-2.0661587748	 1.1012533303	-0.268451
C	 0.1426215061	-0.671167168	 1.2359844432	 0.384785
O	 0.248138929	-0.1527504916	 2.3340761065	-0.378384
H	 0.8933083156	 1.9154182306	 0.4575946796	 0.155308
H	-0.139602898	 1.955460735	-0.995758598	 0.136125
H	-0.8480903808	 1.8831673872	 0.6393374695	 0.155297
H	-0.1628637271	-2.7109266163	-2.038781029	 0.143579
H	 0.2540384434	-2.5939227761	 1.9585480624	 0.278144
