22
gdb 14795	12.64265	0.54795	0.53575	0.2111	77.41	-0.2495	0.0868	0.3363	2128.0888	0.197579	-387.32419	-387.313471	-387.312527	-387.361213	35.753	
C	-0.2645913426	 1.7695510655	-0.3875972779	-0.382345
C	-0.1390259805	 0.2475711037	-0.4888353477	-0.182807
C	-1.2777626994	-0.4777443137	 0.2143704672	-0.026552
O	-1.0884543026	-1.8699416283	 0.0752238549	-0.250732
C	-2.0953394047	-2.6348469785	 0.6946743778	-0.069065
C	-1.7682106298	-4.1027066721	 0.4674619229	-0.068334
O	-2.7761182271	-4.8669956943	 1.0876510824	-0.232517
C	-2.5794779735	-6.2522123904	 0.9438120652	-0.224271
H	 0.5639709575	 2.2670476801	-0.8997153963	 0.117075
H	-1.1962273019	 2.1250479636	-0.8416320868	 0.11634
H	-0.2572079992	 2.1028864903	 0.656099327	 0.116342
H	-0.1243419233	-0.064044036	-1.539585881	 0.106055
H	 0.8088671089	-0.0860603943	-0.0511255302	 0.10606
H	-1.3072929083	-0.2011396027	 1.283106933	 0.082868
H	-2.2487670997	-0.1790673739	-0.2186687626	 0.082869
H	-2.1447821596	-2.4301793773	 1.776567239	 0.093906
H	-3.0876128359	-2.4073652562	 0.2722290186	 0.093906
H	-1.7194586101	-4.3091701122	-0.6142469739	 0.093711
H	-0.7763918441	-4.3318228685	 0.8904365585	 0.093705
H	-3.4052401071	-6.7555138094	 1.4527554091	 0.126001
H	-2.5755084279	-6.557220774	-0.1148706345	 0.103889
H	-1.6300422792	-6.5799683216	 1.3965851253	 0.103893
