20
gdb 83744	2.65219	1.57373	1.34233	2.1218	78.52	-0.2226	0.075	0.2976	1051.4249	0.171444	-403.104948	-403.096651	-403.095707	-403.138105	31.791	
C	-0.0652799665	 1.638631121	-0.1559789137	-0.318714
N	 0.0726437487	 0.199994714	 0.0109652897	-0.090473
C	 1.3036929115	-0.5280388024	-0.2341995161	-0.034764
C	 2.6392909243	 0.2129597898	-0.2936185676	-0.241955
C	 2.806890771	 0.935732038	 1.0672120795	-0.326925
C	 1.6931140268	 0.4010103339	 1.975768953	 0.468219
C	 1.8741235897	 0.1533505869	 3.4119123856	-0.25176
O	 1.1460132985	 1.295605491	 2.957370162	-0.285298
C	 0.7365625298	-0.4167923604	 1.1504248391	-0.131908
H	 0.8364329407	 2.2361550112	 0.0317439093	 0.108128
H	-0.3917281637	 1.835479447	-1.1823810583	 0.120643
H	-0.8463748567	 1.9927999928	 0.5224499492	 0.136413
H	 1.1970260668	-1.4278662799	-0.8357452605	 0.088485
H	 3.4363313677	-0.5216394446	-0.4459971438	 0.108056
H	 2.687049465	 0.9063610681	-1.1401789013	 0.109049
H	 3.7941761873	 0.7519364018	 1.5001015648	 0.107699
H	 2.7016333332	 2.0205711448	 0.9767758893	 0.12718
H	 1.2820296585	-0.6111348931	 3.9153153789	 0.112161
H	 2.8394844785	 0.3651527523	 3.8718142257	 0.108897
H	 0.180291909	-1.2086728021	 1.6461804551	 0.086867
