21
gdb 82849	2.91253	1.68718	1.66968	1.2612	80.11	-0.2518	0.0729	0.3246	947.3876	0.187166	-387.105797	-387.098989	-387.098045	-387.136467	29.527	
O	-0.0033773942	 1.4755337278	-0.0388733668	-0.43156
C	 0.0004638948	 0.067102818	 0.0513671291	 0.147588
C	 0.226992468	-0.6292352547	 1.4188231031	-0.087938
C	-0.5242126677	 0.1155497208	 2.5512305685	-0.213575
C	-1.9914591242	-0.3161007052	 2.3213017562	-0.015294
C	-2.400870153	 0.1449245339	 0.9034261098	-0.217797
C	-1.3849696405	-0.6002522003	-0.0011262484	-0.05773
C	-0.824494647	-1.7112592172	 0.9669148709	-0.018668
C	-1.8306995277	-1.8363771144	 2.1103110181	-0.219132
H	 0.9033916684	 1.7872752018	 0.044367671	 0.281271
H	 0.6623056121	-0.3699109279	-0.710696032	 0.058092
H	 1.2437283408	-0.9306716171	 1.6800523662	 0.049467
H	-0.1733769906	-0.2174391269	 3.5337212644	 0.086189
H	-0.3833674713	 1.1982368612	 2.4879659211	 0.096901
H	-2.6801141573	-0.009398646	 3.1114069001	 0.05147
H	-3.4223501653	-0.1782528653	 0.6764220248	 0.086517
H	-2.34966912	 1.2278126861	 0.7684321473	 0.113152
H	-1.7808088184	-0.8719883992	-0.9809216064	 0.056929
H	-0.436709501	-2.6194581848	 0.5081980838	 0.057367
H	-1.4237899259	-2.3536872543	 2.9857403739	 0.087892
H	-2.7615295601	-2.3306797564	 1.8121753953	 0.088858
