17
gdb 96815	2.74984	1.37496	0.9271	1.2654	82.01	-0.2462	-0.0409	0.2053	1226.9451	0.137125	-418.069659	-418.061344	-418.0604	-418.103046	30.67	
C	 0.1017592511	 1.4246033748	-0.129471508	-0.348489
N	 0.0395405993	-0.0243915524	-0.0844252149	-0.292009
C	 0.4717081548	-0.6324609583	 0.9528377333	 0.407711
N	 1.0147190874	-0.0005037594	 2.0796504279	-0.412841
C	 1.4996589973	-0.5928835317	 3.2319750923	 0.412391
O	 1.9454003179	 0.0773522901	 4.1373478644	-0.355667
C	 1.4374313442	-2.1115950816	 3.2861225997	-0.403466
C	 0.8554885818	-2.77680176	 2.0768893849	-0.080556
C	 0.4181567501	-2.0933387905	 1.0185786692	-0.102385
H	 1.1325791155	 1.8056462	-0.0545513767	 0.120333
H	-0.3063360641	 1.7720060758	-1.0812351687	 0.1332
H	-0.4860356127	 1.8976815863	 0.6730744083	 0.120357
H	 1.0751130085	 1.0081479454	 2.0861568451	 0.255989
H	 2.4579961584	-2.4678740613	 3.4793426313	 0.155886
H	 0.8754556097	-2.3776276906	 4.1912440035	 0.155891
H	 0.799528004	-3.8613307383	 2.0896404871	 0.112796
H	-0.0029917677	-2.5713486579	 0.1430806633	 0.120857
