12
gdb 4952	3.25911	2.53441	1.42572	5.3296	60.54	-0.2245	-0.0438	0.1806	786.8908	0.085463	-414.695819	-414.689393	-414.688449	-414.726643	24.002	
N	-0.0431919678	 1.2551228798	 0.3566685049	-0.461513
C	-0.0127530738	 0.0516585516	-0.0171210063	 0.283541
O	 1.1648799356	-0.5523945108	-0.4109433321	-0.237861
C	 1.1875202266	-1.8608157883	-0.8155642705	 0.012119
C	 0.0896271192	-2.611994457	-0.8507399969	-0.07408
N	-1.1328907038	-2.0670290331	-0.4669984355	-0.359818
C	-1.2948546248	-0.7684754998	-0.0407482181	 0.372754
O	-2.3653293774	-0.3165180947	 0.2877239391	-0.326333
H	 0.892786326	 1.6639382138	 0.3157562852	 0.234082
H	 2.1758873172	-2.192874475	-1.0925842617	 0.144725
H	 0.0987016098	-3.6438511513	-1.1682504518	 0.143672
H	-1.9752393066	-2.6225523653	-0.4875487265	 0.268712
