16
gdb 79697	2.76655	1.80866	1.41509	3.0859	68.36	-0.227	-0.0174	0.2097	923.245	0.125263	-437.822782	-437.815747	-437.814803	-437.853922	28.272	
O	 0.0123105789	 1.5117675415	 0.0876117314	-0.430478
C	 0.0386663212	 0.1093880287	 0.0255405922	 0.112974
C	-1.3140355404	-0.6541638477	 0.0234406609	-0.201413
C	-1.9489447541	-0.3697481204	-1.3381322514	-0.037811
C	-1.5227963868	 0.7880648855	-2.1607369655	-0.245794
N	-0.759698408	-0.4727522209	-2.284299064	-0.129688
C	 0.3214789143	-0.7055276917	-1.2934620602	-0.173108
C	-0.4017427857	-1.8289998995	-0.481636162	 0.445657
O	-0.2978659097	-2.99829713	-0.3006280993	-0.302151
H	 0.9220158208	 1.8269273245	 0.0942068253	 0.292955
H	 0.6739127557	-0.2944174697	 0.826908174	 0.09861
H	-1.9484009809	-0.7277766895	 0.902515327	 0.094387
H	-2.831730507	-0.9427459472	-1.6042209619	 0.113096
H	-2.1054535565	 0.9792851325	-3.0580099172	 0.119659
H	-1.0789342942	 1.6542075975	-1.6947595253	 0.151968
H	 1.3111237823	-0.8148746135	-1.7304134041	 0.091137
