16
gdb 37666	3.78063	2.10863	2.10141	1.267	67.8	-0.2382	0.079	0.3173	737.8709	0.1287	-400.681656	-400.676757	-400.675813	-400.71063	22.34	
O	-0.0728396075	 1.4629089085	 0.0466782142	-0.305474
C	 1.3773745832	 1.4076082714	-0.0199666455	 0.077916
C	 1.8167488077	 0.7159652183	 1.2889692188	-0.085152
C	 2.8395753236	-0.3754763152	 0.9063155503	-0.0613
C	 1.7937429983	-1.4293067908	 0.9137018373	-0.0613
C	 0.6972278958	-0.4121222768	 1.2968815274	-0.085152
C	-0.0069178467	 0.0127234285	-0.0101854219	 0.077916
C	 1.3046024661	 0.0896668552	-0.8462425572	-0.038897
N	 2.2958515694	-0.8907358464	-0.3734934029	-0.131355
H	 1.8470820922	 2.3341567747	-0.3482376904	 0.084837
H	 1.9655297956	 1.3214998636	 2.1789191471	 0.080636
H	 3.9064040003	-0.4179420207	 1.0921109296	 0.095932
H	 1.8456651254	-2.4944445197	 1.1066587812	 0.095932
H	 0.0991018691	-0.5592041286	 2.1921083244	 0.080636
H	-0.932126082	-0.4663210669	-0.3285959818	 0.084837
H	 1.2252571695	 0.1608255548	-1.9279368406	 0.089985
