14
gdb 131884	2.68808	1.69837	1.04744	5.0146	70.82	-0.2597	-0.0823	0.1774	1057.5641	0.100384	-473.773406	-473.765646	-473.764702	-473.806438	27.652	
C	-0.0394891618	 1.5686145287	 0.1129466814	-0.492158
C	-0.0184503389	 0.0768800031	 0.031855108	 0.185287
C	 0.0673434056	-0.7216432302	-1.0808935107	 0.361204
O	 0.0592756962	-2.0384356037	-0.7704272684	-0.138629
C	-0.0338099115	-2.1009319865	 0.5744038689	 0.004148
C	-0.0845036256	-0.8513612187	 1.1169094032	-0.251901
N	 0.1602089458	-0.3913465625	-2.4622732858	 0.351182
O	 0.1664251581	 0.812380815	-2.7286072679	-0.392796
O	 0.2262539885	-1.3036754606	-3.2758986965	-0.359479
H	 0.8641966143	 1.9977568287	-0.3282778481	 0.158366
H	-0.881150215	 1.9798186268	-0.4509574728	 0.158384
H	-0.1158928684	 1.8943861398	 1.1527740893	 0.124129
H	-0.0528254131	-3.0934562078	 0.9940216427	 0.161101
H	-0.1600931841	-0.6073486521	 2.1652279467	 0.131161
