21
gdb 73895	2.51584	1.15117	0.88115	0.8085	91.91	-0.2243	0.0269	0.2512	1390.2612	0.181477	-349.948631	-349.938962	-349.938017	-349.983527	35.957	
C	 0.2444074349	 1.5440164084	 0.2623200807	-0.499697
C	 0.0711405032	 0.0702986116	 0.0661871354	 0.216113
C	-1.0544622705	-0.6258443324	-0.1377542749	 0.247642
C	-2.4666478671	-0.0955704072	-0.2066762852	-0.466559
C	-3.1291594264	-0.3939760963	-1.4771899417	 0.320735
C	-3.6611930661	-0.6471514982	-2.5248985722	-0.468644
C	-0.792030888	-2.1142368277	-0.2349669693	-0.294384
C	 0.7429932566	-2.1990634866	-0.3962466902	-0.207916
C	 1.2751018585	-0.8494766838	 0.1391063839	-0.284123
H	 0.9292852394	 1.9592370485	-0.4881137972	 0.126836
H	-0.6953339543	 2.0979877752	 0.1980751948	 0.121355
H	 0.6930757464	 1.7583945392	 1.2412814646	 0.124948
H	-3.06117185	-0.5371752231	 0.6076430046	 0.13325
H	-2.4826662441	 0.9865349922	-0.0375455685	 0.131202
H	-4.1356088169	-0.8652442229	-3.4492395431	 0.194284
H	-1.1379698099	-2.6218639333	 0.6784872233	 0.09614
H	-1.3324507093	-2.5796796372	-1.0662909438	 0.112552
H	 1.1788226072	-3.0621417827	 0.113325041	 0.094039
H	 0.99136489	-2.2914022592	-1.4581950768	 0.105743
H	 2.1259996796	-0.4708118046	-0.440582322	 0.097058
H	 1.6289635268	-0.9282391099	 1.1782298666	 0.099426
