19
gdb 69836	3.25349	1.56634	1.26999	2.5182	74.77	-0.2475	0.0843	0.3317	1037.8217	0.159688	-422.999792	-422.992077	-422.991133	-423.031531	30.888	
C	-0.0500536666	 1.5217592014	 0.0441468926	-0.477226
C	-0.0165349067	 0.0149315221	 0.0757177982	 0.372851
C	-1.2386471262	-0.6917583837	-0.4980454543	-0.141472
O	-1.0806441041	-2.095296651	-0.5833489879	-0.247482
C	-0.7714623346	-2.7339757609	 0.6217559307	 0.088706
C	 0.5997915661	-3.3357948418	 0.7307132652	-0.310915
C	 0.2571762967	-2.0847138583	 1.512128055	-0.078909
C	 0.7535529579	-0.7355756103	 1.0801583113	-0.026343
O	 1.2347820112	-0.6003107255	-0.2636520468	-0.284648
H	 0.851269506	 1.9345097483	 0.5039188081	 0.131718
H	-0.1050159226	 1.8875495375	-0.9873330135	 0.128781
H	-0.9230760089	 1.905110655	 0.5835863957	 0.123019
H	-2.1190221293	-0.4175694827	 0.1081003816	 0.090394
H	-1.4223765109	-0.3551375381	-1.5239692149	 0.115317
H	-1.6167317233	-3.2468752006	 1.0779627659	 0.087497
H	 0.722645851	-4.2635805381	 1.2776978357	 0.110589
H	 1.2384085209	-3.2043246139	-0.1345014892	 0.142851
H	 0.1246768322	-2.1835719959	 2.5850530945	 0.088844
H	 1.3358739512	-0.1838642334	 1.8185083519	 0.086429
