17
gdb 8894	2.53124	1.73334	1.08088	3.4859	61.91	-0.2523	0.0227	0.275	1076.5582	0.14141	-438.164538	-438.155401	-438.154457	-438.198696	32.15	
C	-0.1326623983	 1.0603571565	-0.2936907503	-0.335333
N	-0.003155716	-0.3378924698	 0.0719278041	-0.307254
C	 0.6564231732	-0.7446942284	 1.1760209808	 0.382656
O	 1.2434633816	-0.0031740661	 1.955965262	-0.405313
C	 0.6759895897	-2.2649950867	 1.4394028443	 0.021158
O	 1.2209405248	-2.4899821899	 2.7077321442	-0.43536
C	-0.716817578	-2.9125436839	 1.3605403175	-0.113437
O	-1.2325740584	-2.9327734554	 0.0283485402	-0.410277
H	 0.1590856619	 1.2166872449	-1.3371479915	 0.12815
H	-1.1606889657	 1.4167704228	-0.161333894	 0.131005
H	 0.52605355	 1.6386818228	 0.3545771479	 0.169067
H	-0.5461413377	-1.0420951922	-0.4124775658	 0.258999
H	 1.3048726696	-2.7266830535	 0.6543409342	 0.076468
H	 1.5383109523	-1.6119155206	 2.9879383887	 0.296197
H	-0.6528689789	-3.9228112613	 1.7819892753	 0.120485
H	-1.4329904422	-2.3440526033	 1.9605559418	 0.128794
H	-0.7451397179	-3.599498456	-0.4670984995	 0.293995
