22
gdb 59469	3.02529	0.94869	0.79624	2.4747	83.04	-0.2464	0.0722	0.3186	1510.4396	0.192856	-404.303844	-404.293957	-404.293013	-404.339297	36.408	
C	-0.2190008553	 1.3063265222	-0.7479354938	-0.392774
C	 0.4621471475	-0.0563758788	-0.5611799725	 0.036767
C	 1.9350030626	-0.0202842993	-0.9911663269	-0.390994
C	 0.3376530679	-0.5060611819	 0.8833568826	-0.006747
N	-0.9496750302	-1.0670905628	 1.312611665	-0.351253
C	 0.2485032162	-1.9261865432	 1.330297417	-0.056055
C	 0.2485254755	-3.0977747749	 0.4053592433	 0.09192
C	 1.3607706376	-4.0575385595	 0.3869072912	-0.182961
O	 0.1280627693	-4.383557124	 1.0274224816	-0.238833
H	 0.2711066691	 2.0770486909	-0.1402298215	 0.106905
H	-0.1738890839	 1.6304062711	-1.7926806803	 0.109798
H	-1.2700753378	 1.2565430928	-0.4491750588	 0.127456
H	-0.067956702	-0.783746601	-1.1868029436	 0.078567
H	 2.5054798626	 0.6909613055	-0.3816230592	 0.111442
H	 2.405874468	-1.0027562081	-0.8845381068	 0.114506
H	 2.0312248432	 0.2908508553	-2.0362604072	 0.113749
H	 0.8422528061	 0.1611257591	 1.5854533785	 0.07653
H	-1.1913799971	-0.7681075961	 2.2528303602	 0.233604
H	 0.6902784688	-2.1599716457	 2.2981223101	 0.088124
H	-0.3545480362	-2.9832939899	-0.4935990294	 0.105351
H	 1.5818324193	-4.6131808986	-0.52351286	 0.114943
H	 2.2093540787	-3.9095175629	 1.0546543006	 0.109955
