25
gdb 100096	3.0325	0.85436	0.80426	2.3616	85.4	-0.2549	0.0604	0.3153	1598.5647	0.225689	-426.635157	-426.623538	-426.622593	-426.671461	43.476	
C	 1.1252201131	 0.0042710809	-1.1033556166	-0.387077
C	 0.0850719	 0.0800453854	 0.0248834101	 0.023257
C	-1.2668043953	-0.4676361019	-0.4557340176	-0.376666
C	 0.6236051814	-0.6476749932	 1.2729088828	-0.191872
C	-0.1458930992	-0.4909993513	 2.5966938631	 0.351427
C	-0.4345881989	 0.9762851785	 2.9560390126	-0.426833
O	-1.3707785835	-1.217417214	 2.4885644249	-0.469895
C	 0.6802835358	-1.147685417	 3.7182070621	-0.106513
O	-0.1455038392	-1.183956872	 4.8814802901	-0.43651
H	 1.3179413279	-1.0369883132	-1.3892811735	 0.1096
H	 0.7750185724	 0.5318112918	-1.9967591983	 0.107411
H	 2.0805922701	 0.4487244356	-0.8033408932	 0.103416
H	-0.0453805366	 1.1409246173	 0.2761483511	 0.071648
H	-1.1752256291	-1.5233507904	-0.7385931211	 0.10549
H	-2.0279823642	-0.4055618677	 0.3228077326	 0.136896
H	-1.6138835853	 0.0832203047	-1.3370001494	 0.096073
H	 0.6868338551	-1.7219566497	 1.0549956203	 0.094703
H	 1.6514534755	-0.3030747391	 1.4518007666	 0.083408
H	-1.1502372837	 1.4082020984	 2.2535016772	 0.124584
H	-0.8607743903	 1.036920774	 3.9610579518	 0.124375
H	 0.4797964376	 1.5796377566	 2.9376494503	 0.104707
H	-1.6682801052	-1.3538887235	 3.397745757	 0.280813
H	 0.9585882964	-2.1638937591	 3.4074835565	 0.09295
H	 1.5998762443	-0.5743858903	 3.9064480015	 0.089869
H	 0.2175670307	-1.8246620811	 5.4981379794	 0.294738
