23
gdb 114622	2.30952	1.26585	0.96031	0.9322	85.96	-0.2413	0.0836	0.3249	1355.3467	0.204553	-388.255287	-388.245474	-388.24453	-388.290048	36.759	
C	-0.2327912627	 1.659354959	 0.1146616869	-0.377688
C	 0.1475666036	 0.1845306517	-0.0580556248	-0.204713
C	 0.708785051	-0.4376248702	 1.2183744417	-0.033627
C	-0.238669534	-0.6559316494	 2.4542781211	-0.249534
C	 0.1837251742	-2.1290688028	 2.5053471131	-0.138981
C	-0.1852476093	-2.8067662474	 1.2031803982	-0.343696
C	 1.04521803	-1.940382626	 1.2709413774	 0.429523
O	 2.3072178828	-2.4592996608	 1.0626217605	-0.281685
C	 2.6070420582	-2.7237043612	-0.2970021266	-0.256538
H	 0.6360095096	 2.2596951983	 0.4072135104	 0.11357
H	-0.6310060259	 2.0801342368	-0.8139206434	 0.110579
H	-0.9957671202	 1.7850167691	 0.8905364225	 0.118354
H	-0.7310716018	-0.382735672	-0.390473818	 0.0935
H	 0.890442055	 0.0934671349	-0.8613276514	 0.094689
H	 1.5932571886	 0.1227919919	 1.5421036516	 0.076074
H	 0.0593697912	-0.0758479478	 3.329830613	 0.103638
H	-1.3051600022	-0.4861098246	 2.2682047215	 0.092551
H	 0.3954413793	-2.7001067913	 3.400496258	 0.092925
H	 0.0347279825	-3.8692921086	 1.1730442945	 0.113427
H	-1.0797472116	-2.5139646346	 0.6580795172	 0.101544
H	 1.8729650745	-3.4082334485	-0.7443337051	 0.109561
H	 2.6365870239	-1.8035864678	-0.8971251075	 0.11185
H	 3.5947476031	-3.1902817187	-0.3211343806	 0.124677
