21
gdb 77392	2.13615	1.96726	1.24162	1.471	82.78	-0.249	0.0717	0.3207	1087.7842	0.181202	-387.028078	-387.019241	-387.018297	-387.060688	34.955	
C	-0.173810457	 1.6085804861	 0.0144745862	-0.436685
C	-0.044302876	 0.0919973904	 0.004124334	-0.112464
C	 0.8998915807	-0.5918012274	-1.0223545668	 0.356967
C	 0.7802709174	-0.6073950413	-2.5206057973	-0.522453
C	 2.1981144929	-0.2794385489	-0.1859072573	-0.165119
C	 2.655136819	-1.7520261611	-0.2049953712	-0.286901
C	 1.1209396571	-1.8357331343	-0.0815294397	-0.119705
C	 1.0496427715	-0.5931788931	 0.8501784338	 0.401619
O	 1.1610172869	-0.68837647	 2.2260732529	-0.478374
H	 0.8020128691	 2.0997964996	-0.0694790724	 0.111137
H	-0.7933686947	 1.960529632	-0.8176123205	 0.118364
H	-0.6466362234	 1.9591292405	 0.9393173636	 0.112804
H	-1.0291795781	-0.3881720186	 0.0843141666	 0.059317
H	 0.8171765521	 0.407963023	-2.9312043017	 0.119243
H	 1.5924585227	-1.1812439758	-2.9800843935	 0.12202
H	-0.1672920682	-1.0585451006	-2.835935149	 0.119249
H	 2.8038474902	 0.6266287227	-0.2459064178	 0.0628
H	 3.0995397374	-2.1212483693	-1.1345689084	 0.087546
H	 3.231325911	-2.0951888247	 0.6583698747	 0.100646
H	 0.4696198392	-2.7098533578	-0.0226378876	 0.066703
H	 1.2956814602	 0.1961313586	 2.5829821614	 0.283287
