20
gdb 126822	1.90762	1.70406	1.02151	3.3205	80.87	-0.248	0.0154	0.2633	1234.0282	0.172497	-399.372359	-399.363136	-399.362192	-399.407221	33.05	
C	-0.341439565	 1.5681045162	-0.1601427816	-0.379475
C	 0.0863440424	 0.1098951452	 0.0066360769	-0.147117
N	 0.7731257797	-0.4043296252	-1.1684913976	-0.006099
N	 0.0771574778	-0.575975932	-2.3232973966	-0.258756
C	 1.0061734978	-1.0295468647	-3.1463057946	 0.022214
N	 2.244030712	-1.1637721419	-2.6047352161	-0.321395
C	 2.0690125278	-0.7615713276	-1.352479058	 0.357253
C	 3.1475647673	-0.6862701233	-0.3181405792	-0.299875
C	 3.7842120152	 0.7103274764	-0.2044764096	-0.381036
H	 0.5261092655	 2.2193596563	-0.3019872553	 0.128521
H	-0.9945254168	 1.6698416707	-1.0296415904	 0.153498
H	-0.8841023436	 1.903248398	 0.7286625344	 0.121551
H	 0.7602432479	-0.0053358908	 0.8587347414	 0.123079
H	-0.7872544065	-0.524606682	 0.1837233216	 0.135296
H	 0.7794266066	-1.2788419357	-4.1725207104	 0.120629
H	 2.7625613985	-1.0019065204	 0.6582264971	 0.111171
H	 3.909679263	-1.4135681157	-0.6095514899	 0.138702
H	 4.1934811462	 1.0239589296	-1.1686361904	 0.140643
H	 3.0526005149	 1.4609429752	 0.111102768	 0.120848
H	 4.5964226493	 0.7030933417	 0.5283346502	 0.120348
