18
gdb 13096	3.79836	1.24007	1.05018	1.5151	68.6	-0.2501	-0.0224	0.2277	1126.357	0.152647	-384.935005	-384.926579	-384.925635	-384.968765	30.408	
O	 0.4443142149	 0.9906294327	-0.6760470075	-0.425611
C	 0.0885892331	-0.1730091951	 0.0230692943	 0.150575
C	-0.0123436886	-0.1632926665	 1.5690299392	-0.261214
C	-1.2348377411	-1.1167513106	 1.4518600035	-0.232482
C	-1.379053078	-0.716519035	-0.0470188905	-0.047675
C	-2.4246435039	 0.3763988193	-0.3121897335	-0.294917
C	-3.8167349927	-0.2086310391	-0.3269075036	 0.158878
O	-4.6865161151	 0.0555446804	 0.4630083068	-0.240531
H	-0.0298964712	 1.7341987586	-0.2894993371	 0.282918
H	 0.7852141351	-0.9440548037	-0.3191612082	 0.0957
H	 0.8575933929	-0.4988187949	 2.1374234356	 0.10658
H	-0.3048235221	 0.8250586803	 1.940647455	 0.098981
H	-0.9561908138	-2.1661786516	 1.5726085536	 0.108636
H	-2.0911945046	-0.908436786	 2.0966952155	 0.118543
H	-1.531549255	-1.5407206979	-0.751753697	 0.073314
H	-2.3950679744	 1.1662035385	 0.4458875913	 0.109088
H	-2.2224252319	 0.8237115045	-1.2953581555	 0.125051
H	-3.9889421135	-0.9524597739	-1.1404075318	 0.074164
