13
gdb 20346	5.19136	2.13236	1.52573	3.1974	65.89	-0.2292	-0.0242	0.2049	762.2258	0.098213	-361.461549	-361.456082	-361.455138	-361.490936	21.825	
C	-0.061504695	 1.5065160548	 0.0107802087	-0.404606
C	 1.4093004123	 1.9076875192	-0.0011370411	-0.081689
C	 2.2366099832	 0.8437285753	-0.0149166757	-0.2128
C	 1.4340967891	-0.3716171784	-0.0139018644	 0.171434
C	 1.381136506	-1.7259500585	-0.0208441133	-0.090351
O	 0.0866879662	-2.1265324538	-0.0106173271	-0.177691
N	-0.7599536867	-1.003741691	 0.0037207523	-0.240069
C	 0.0583807207	 0.007903893	 0.0013970883	 0.369584
H	-0.5866190944	 1.8817923857	 0.8973268872	 0.14647
H	-0.60350573	 1.8914551149	-0.8613435841	 0.14647
H	 1.7236076736	 2.9437070366	 0.001536556	 0.109629
H	 3.317455321	 0.8842733452	-0.0250696768	 0.112366
H	 2.107765174	-2.5224322629	-0.03221147	 0.151255
