19
gdb 22228	3.88598	0.8254	0.68951	1.3745	78.58	-0.2451	-0.0337	0.2114	1621.552	0.156388	-456.319365	-456.308723	-456.307779	-456.356828	36.74	
C	-1.309229888	 0.6080753756	 0.1548039202	-0.391829
C	-0.0296913347	-0.1759026689	-0.0670584634	-0.034442
O	 0.3105598757	-0.8109753237	 1.1750232572	-0.252196
C	 1.4311599962	-1.5597068004	 1.1767406941	 0.369754
N	 2.1502163071	-1.6999789521	 0.1402039037	-0.543731
C	 1.6563192852	-2.1550727921	 2.5365092211	 0.282035
C	 0.6867820256	-1.8702052267	 3.6469448263	-0.49
N	 2.7064832939	-2.882957551	 2.6185980218	-0.168131
O	 2.9079292967	-3.4271162031	 3.8793385695	-0.380354
H	-1.1732000947	 1.3694864628	 0.9282732168	 0.12613
H	-1.6027769873	 1.1084963688	-0.7727178438	 0.121969
H	-2.1251646547	-0.0523549435	 0.4623868094	 0.126083
H	-0.1438416453	-0.9441119224	-0.8390677798	 0.122104
H	 0.8010602804	 0.4669657321	-0.3764266322	 0.12217
H	 2.9418415412	-2.3018100876	 0.3652167233	 0.23399
H	-0.3218802163	-2.1729713075	 3.3517426023	 0.146285
H	 0.9744135219	-2.3925963295	 4.5573292169	 0.150599
H	 0.6433710794	-0.794286833	 3.8412411223	 0.146238
H	 3.7188401476	-3.9332692776	 3.7584961643	 0.313325
