19
gdb 124702	3.67481	1.0243	0.89578	1.0677	77.65	-0.2374	0.023	0.2603	1326.2072	0.160427	-419.224435	-419.215516	-419.214572	-419.25903	32.711	
C	-0.062195145	 1.5759009595	 0.06406612	-0.411864
C	-0.0384610657	 0.056813258	-0.0699224991	 0.030926
C	-1.4575451798	-0.5480278197	-0.0565360892	-0.072776
O	-2.1437768572	-0.2647573517	 1.1499915486	-0.409108
N	 0.6738404828	-0.3933155937	-1.2629316842	 0.044196
C	 0.8189104825	 0.2178027231	-2.4668843905	-0.028163
C	 1.4919041179	-0.6637355614	-3.2881637676	-0.239828
C	 1.7053850299	-1.7979046525	-2.4815687489	-0.005522
N	 1.2068232477	-1.6346769467	-1.2585230076	-0.265372
H	 0.9480764725	 1.99157655	 0.1007153702	 0.127527
H	-0.6049842883	 2.0458698583	-0.7628484706	 0.122739
H	-0.5884444452	 1.8335090441	 0.985231145	 0.141774
H	 0.5164675187	-0.3740918365	 0.7709349705	 0.099983
H	-2.0514228313	-0.1012762478	-0.8620633804	 0.113528
H	-1.3838139157	-1.6258939143	-0.2487849419	 0.118067
H	-1.7741162776	-0.8248949832	 1.8399995256	 0.289622
H	 0.4531510216	 1.2152909514	-2.6454262567	 0.130552
H	 1.7888909476	-0.5022439375	-4.3115784304	 0.103113
H	 2.2064452047	-2.7209908692	-2.7344258728	 0.110606
