16
gdb 124277	4.38134	1.03476	0.84271	4.9599	74.63	-0.221	-0.0305	0.1904	1314.6419	0.12499	-434.110849	-434.102011	-434.101066	-434.144848	31.779	
C	-0.1210086611	 1.4937207193	 0.0008408325	-0.478537
C	 0.0172017336	-0.0155033672	 0.0108910623	 0.313369
O	 1.0981717561	-0.570775487	-0.0020217467	-0.316112
C	-1.2295198539	-0.8135565568	 0.0372628896	 0.263046
N	-2.4309341509	-0.2333810633	 0.0538700015	-0.294723
N	-3.2917423421	-1.2698702916	 0.0723489697	-0.235512
C	-2.6750003898	-2.4871408573	 0.056120635	 0.398673
N	-3.4136363065	-3.6673888487	 0.1364443095	-0.608621
C	-1.3217447182	-2.227979877	 0.0342913619	-0.367823
H	 0.8717391626	 1.9446408438	-0.0116145681	 0.129712
H	-0.6946062263	 1.8167794436	-0.8733260276	 0.144116
H	-0.6797722556	 1.83025389	 0.8794485942	 0.145143
H	-4.2797584333	-1.0895639834	 0.142875301	 0.272708
H	-4.1497829325	-3.7352133369	-0.5567600651	 0.253143
H	-2.8207270021	-4.4838895778	 0.0730212698	 0.2617
H	-0.50774619	-2.9319907096	 0.0058519803	 0.119719
