17
gdb 128763	3.34661	1.09645	0.84053	4.655	72.35	-0.255	-0.0306	0.2244	1338.4345	0.133783	-455.116993	-455.107655	-455.106711	-455.152858	31.766	
C	-0.1995594599	 1.417151895	 0.3382976867	-0.231213
O	-0.3417236286	 0.0363473071	 0.5951129876	-0.226974
C	-1.0148253848	-0.63725666	-0.4370644903	-0.163092
C	-1.1607486162	-2.0819817068	-0.0855282704	 0.308886
C	-1.0018326799	-2.8254780016	 1.0470766544	 0.166555
C	-0.5901933255	-2.4771105352	 2.4376250687	-0.501281
N	-1.3194696689	-4.1227127362	 0.6861261861	-0.157458
N	-1.6440260586	-4.2022783518	-0.5217942545	-0.019512
O	-1.5545681729	-2.8837570765	-1.0786101133	-0.226182
H	 0.3327800314	 1.849426783	 1.1876115257	 0.138349
H	 0.3801617401	 1.5993081324	-0.5791742795	 0.115711
H	-1.1768040093	 1.9129633192	 0.2361055774	 0.114761
H	-2.0146879135	-0.2002472859	-0.6086297894	 0.121949
H	-0.4693499487	-0.5540288327	-1.3921860515	 0.124146
H	-1.3660868206	-2.7669390202	 3.1534312519	 0.139731
H	 0.3249618274	-3.0094571224	 2.7166636759	 0.141384
H	-0.4112404616	-1.4062220475	 2.5207052146	 0.154241
