23
gdb 100944	2.20819	0.9763	0.80694	2.0946	78.23	-0.2552	0.0584	0.3136	1545.097	0.203896	-462.551843	-462.540635	-462.539691	-462.588456	40.627	
C	-0.1011394911	 1.634033251	 0.2248175479	-0.381368
C	-0.0856376643	 0.1076626553	 0.3268572905	-0.197904
C	-1.3442045679	-0.5461052663	-0.2664865236	 0.132818
O	-1.5400806623	-0.1696989223	-1.6234031893	-0.442638
C	-1.3558345798	-2.0949039973	-0.0774372309	-0.033399
C	-2.7445531839	-2.5696683109	 0.3511643009	-0.103879
O	-2.7034025646	-3.9758178951	 0.5543435916	-0.427343
C	-0.9193274201	-2.8421542401	-1.3463073558	-0.080884
O	 0.2838286184	-2.3203406519	-1.9216215242	-0.432763
H	 0.8263046892	 2.0677722878	 0.6109269258	 0.105923
H	-0.2249673775	 1.9483905661	-0.8144892941	 0.130498
H	-0.9329041849	 2.0574069041	 0.7993705226	 0.111131
H	 0.7938695773	-0.2943876097	-0.193329452	 0.084626
H	 0.0074373214	-0.1993792706	 1.3768125992	 0.09054
H	-2.214113626	-0.1276123299	 0.2587716024	 0.076618
H	-0.7780871018	-0.5201017512	-2.1061710487	 0.29166
H	-0.6597509461	-2.3548232801	 0.7323825008	 0.070971
H	-3.0389344618	-2.0460165819	 1.2744793107	 0.089154
H	-3.4742081685	-2.2976718215	-0.4288128358	 0.10157
H	-3.5933382494	-4.279147775	 0.755391609	 0.288539
H	-0.8250428456	-3.9122839423	-1.1367256087	 0.117832
H	-1.6800825588	-2.7173482668	-2.121844874	 0.121195
H	 1.0085727378	-2.4969065417	-1.3132308442	 0.287104
