17
gdb 50850	5.52919	0.78446	0.72006	5.346	72.58	-0.2507	-0.0042	0.2465	1538.7344	0.134982	-455.15237	-455.143312	-455.142368	-455.187552	32.106	
N	 0.1159566244	 1.4138046688	-0.465017055	-0.521116
C	 0.1197616312	 0.2586287568	 0.0395079196	 0.492487
N	-1.0288075771	-0.4860011187	 0.312186902	-0.359834
C	-2.3512343091	-0.180223677	 0.040515637	 0.164007
O	-2.7750271786	 0.8072247301	-0.4938410048	-0.257953
O	 1.1792211526	-0.5217793755	 0.437173588	-0.268595
C	 2.4565282079	 0.0585183458	 0.3578214054	 0.113618
C	 3.5851170406	-0.9004165333	 0.1668201778	-0.2919
C	 3.1883319843	 0.0325341126	-0.9574096193	-0.281703
H	 1.0618424824	 1.7601639493	-0.6018194513	 0.231509
H	-0.8505877038	-1.3714053762	 0.7611652021	 0.260325
H	-2.9993197918	-1.0074400362	 0.3973258219	 0.078953
H	 2.5868658547	 0.9090079962	 1.0219206558	 0.115721
H	 4.5076479498	-0.7147321574	 0.7040984921	 0.126775
H	 3.3198859542	-1.9458687752	 0.0613972985	 0.132605
H	 2.6633594746	-0.4011480559	-1.800488731	 0.137686
H	 3.8361327336	 0.8665902858	-1.2028361288	 0.127416
