15
gdb 14625	2.69356	1.48509	1.02536	4.1348	60.59	-0.2703	0.0001	0.2704	1097.7905	0.117094	-436.946384	-436.937732	-436.936788	-436.98157	28.444	
N	-0.8841758867	 0.9969864842	-0.4955156253	-0.436143
C	-0.7183325173	-0.2495022039	-0.5676452572	 0.128228
O	-0.9166776694	-1.0131500946	 0.5337555594	-0.185962
C	-0.8772934591	-2.4218305223	 0.3713198101	-0.088338
C	-2.2731261811	-2.988412488	 0.1597084031	-0.083884
O	-2.7630897418	-2.6031165695	-1.1252336188	-0.186387
C	-3.8633267534	-1.8179454581	-1.1898084413	 0.177879
O	-4.3310318152	-1.4614868451	-2.2263272751	-0.266061
H	-0.6775281986	 1.4285275321	-1.3937301367	 0.235678
H	-0.4079378766	-0.8260747625	-1.4482795203	 0.101024
H	-0.2286672262	-2.7041758361	-0.4675970679	 0.125284
H	-0.4531899847	-2.8365286778	 1.2910097154	 0.129331
H	-2.241976213	-4.0827487786	 0.1912125696	 0.127532
H	-2.9438487091	-2.631379411	 0.9504443684	 0.129685
H	-4.2635452479	-1.5590872988	-0.1914770336	 0.092135
