18
gdb 62433	3.63562	1.21139	1.18089	4.5073	82.17	-0.2466	-0.0074	0.2392	1110.8512	0.148707	-364.830791	-364.822802	-364.821858	-364.862995	31.035	
C	-0.0875378679	 1.5599660575	 0.0562194985	-0.468752
C	 0.0366950759	 0.0471387671	-0.0091156755	 0.138197
C	-1.1112770988	-0.6428974748	 0.5287894577	 0.239871
N	-2.0330435854	-1.1898891611	 0.9659253911	-0.349516
C	 0.7115302158	-0.6900003484	-1.1649286239	-0.082059
C	 1.6331401616	 0.1001875035	-2.0960190354	-0.293692
C	 2.7704461583	 0.5302026105	-1.1933774312	-0.075971
C	 2.6224373131	 0.0705105443	 0.0523986616	-0.086882
C	 1.3668973654	-0.7166412198	 0.1987417838	-0.105428
H	 0.8424016253	 2.0454259564	-0.2422192992	 0.134313
H	-0.8891229255	 1.906835128	-0.6032590695	 0.134599
H	-0.3275209621	 1.8798336884	 1.07426068	 0.137434
H	 0.1951842006	-1.5583095503	-1.5544848716	 0.112173
H	 1.987255533	-0.5330314346	-2.9193870373	 0.121488
H	 1.1310202216	 0.956551143	-2.5647579262	 0.12088
H	 3.5827249729	 1.1590850643	-1.5394155423	 0.105305
H	 3.3027031171	 0.2466055425	 0.8769454847	 0.105572
H	 1.3330788192	-1.5845865164	 0.8466563548	 0.11247
