20
gdb 104125	2.40519	1.38919	1.2169	2.289	76.17	-0.2649	0.0246	0.2895	1159.2827	0.16968	-440.319247	-440.309932	-440.308988	-440.353385	34.738	
C	-0.1678678653	 1.5910762699	 0.2787756849	-0.396904
C	 0.0100825979	 0.0855206445	 0.080786499	-0.205842
C	 0.7933762359	-0.6012015795	 1.1976331274	 0.441137
C	 0.9180354163	-2.1102069702	 0.9947266479	-0.418043
O	 2.071351623	 0.0064482651	 1.3173879358	-0.287246
C	 2.3945935757	 0.0834606013	 2.6939079608	-0.181084
C	 1.0568507264	-0.0013120259	 3.3961757694	 0.372171
N	 0.8455222413	 0.2206592106	 4.6184626438	-0.540535
O	 0.1345685936	-0.3593890674	 2.4628137088	-0.261557
H	 0.8017987082	 2.0902184436	 0.3479453457	 0.130862
H	-0.7160675566	 2.0244695339	-0.5623572587	 0.113177
H	-0.728245291	 1.8029906372	 1.1931873686	 0.129441
H	-0.9634339077	-0.4108438548	 0.0020066157	 0.1093
H	 0.5439979496	-0.1155549619	-0.8547768268	 0.112423
H	 1.4329277498	-2.3170862909	 0.0530782414	 0.130501
H	 1.4895994877	-2.5618312613	 1.8103652957	 0.124438
H	-0.0705859802	-2.575700608	 0.9686817766	 0.129847
H	 3.0494702138	-0.7399201055	 3.0129812155	 0.12735
H	 2.9018422373	 1.0287417721	 2.8992103741	 0.144804
H	-0.1385854158	 0.0800909373	 4.8507476345	 0.22576
