16
gdb 16874	4.27883	1.86604	1.41668	4.3118	64.64	-0.2354	0.0262	0.2616	858.8032	0.133246	-379.926024	-379.919328	-379.918384	-379.956881	25.961	
O	 0.0552506192	-0.0837418475	-0.0122474763	-0.370949
C	 0.0033021514	 1.1279067455	-0.0879868629	 0.400679
C	-1.3158918083	 1.9043963433	-0.0884690222	-0.279041
N	-1.3141339913	 3.063421919	-0.9934099738	-0.082525
C	-1.355257691	 4.4026073149	-0.4107550106	-0.248441
C	-0.0877004249	 3.8669596681	-0.9731141821	 0.00645
C	 1.0209450094	 3.3779231153	-0.05276557	-0.206203
N	 1.1092483432	 1.9269499916	-0.1553846818	-0.299531
H	-2.0997455171	 1.2075337114	-0.3905352813	 0.141549
H	-1.5190395339	 2.1957904421	 0.9546021891	 0.115064
H	-1.9398377521	 5.134701557	-0.9607435085	 0.122478
H	-1.4225922549	 4.4897354362	 0.6735750252	 0.110605
H	 0.2399533622	 4.1917079222	-1.9581326489	 0.10148
H	 1.98045731	 3.8083830826	-0.3494585786	 0.123813
H	 0.8347031168	 3.6927499056	 0.9839535182	 0.113417
H	 1.9987883713	 1.4617591028	-0.0578380555	 0.251157
