18
gdb 77051	3.39981	1.06568	0.85799	3.3554	79.41	-0.2418	0.034	0.2757	1321.8868	0.14586	-401.941375	-401.931889	-401.930945	-401.976159	33.967	
C	-0.0836095897	 1.431275286	 0.0359742082	-0.347391
N	-0.0179962897	-0.0042543735	-0.0881859343	-0.067885
C	-1.0415243345	-1.0559878244	-0.0441107701	 0.044491
C	-2.0117020525	-1.093930189	-1.2352654739	-0.36335
C	-2.9724898051	 0.0032457269	-1.2317547774	 0.29104
C	-3.7611251474	 0.9100540157	-1.2016111001	-0.437703
C	 0.1215933315	-2.0902412286	-0.0705956489	-0.416189
C	 1.0572908309	-0.8598082911	-0.0721792736	 0.412521
O	 2.244020091	-0.6615877632	-0.0499583799	-0.372582
H	 0.9437009215	 1.8036441107	 0.0415787815	 0.157943
H	-0.6273575769	 1.8839226998	-0.7985491578	 0.140788
H	-0.5752144526	 1.7290570053	 0.9704273539	 0.12762
H	-1.6114708765	-1.050802113	 0.8930357658	 0.092748
H	-1.4308285674	-1.0831056144	-2.1661624035	 0.135862
H	-2.5495105996	-2.0506386727	-1.2100569629	 0.139278
H	-4.4620504939	 1.7077022364	-1.1874258135	 0.20127
H	 0.2107726174	-2.722775784	 0.814032	 0.133038
H	 0.1785562236	-2.7070168367	-0.9703540335	 0.128501
