16
gdb 44054	2.65019	1.73095	1.58645	3.2248	67.84	-0.234	-0.0429	0.1911	913.1784	0.123969	-437.794647	-437.787369	-437.786425	-437.826328	28.451	
O	-0.0231700496	 0.018473582	-0.4237329225	-0.272791
C	-0.048111223	 1.1711118137	-0.1231320618	 0.34253
C	-1.1823726668	 2.1541839188	 0.3338094475	-0.423215
C	-0.0721154114	 3.2020238302	 0.6201861834	 0.190563
C	 0.7296591449	 3.1624335671	 1.9446296613	-0.124471
O	 1.7495289753	 2.2893578799	 1.3330745795	-0.331
C	 1.0118828648	 2.2909293857	 0.100010387	 0.256356
C	 1.3152687644	 3.353183194	-0.9940856836	-0.25434
N	 0.3114098225	 4.2627730737	-0.3388955325	-0.367954
H	-1.8772322157	 2.4226389268	-0.4678742568	 0.135476
H	-1.7656154476	 1.8002393502	 1.1893284325	 0.1418
H	 1.1568232431	 4.122190604	 2.2463784458	 0.124431
H	 0.2508306606	 2.6697704447	 2.798167479	 0.111025
H	 2.3335697306	 3.7514530235	-0.9702670894	 0.130487
H	 1.078475537	 3.035426863	-2.0159269148	 0.115322
H	-0.4302434291	 4.6022515427	-0.9394505046	 0.225781
