16
gdb 28677	3.54627	1.05604	0.87827	1.8411	77.27	-0.2317	0.004	0.2357	1319.4365	0.123257	-400.757463	-400.748792	-400.747848	-400.79169	31.193	
C	 0.1915750359	 1.3915222312	-0.2794234578	-0.495457
C	-0.0386883181	-0.0514480856	-0.0245710348	 0.326429
C	-1.0778504097	-0.796310857	 0.4236188823	-0.196592
N	-0.7137856122	-2.1389215505	 0.4554250655	-0.30079
C	 0.5085183505	-2.146982133	 0.034202282	 0.385727
C	 1.4181886809	-3.3269151598	-0.1197880558	-0.447671
C	 1.9206198984	-3.5079418554	-1.479939968	 0.306212
C	 2.3368849667	-3.6589395825	-2.5959706237	-0.449679
O	 0.99611226	-0.9194227565	-0.2773252892	-0.199892
H	 1.0152037952	 1.7813459296	 0.3290374126	 0.142632
H	 0.4408830966	 1.5787550108	-1.3297419693	 0.145156
H	-0.7110316915	 1.9563185421	-0.0357031779	 0.141646
H	-2.0602027638	-0.4671955779	 0.723433469	 0.120567
H	 2.2661165485	-3.2280290356	 0.5715943813	 0.152341
H	 0.8481095577	-4.2046472688	 0.1990480745	 0.168063
H	 2.7019389948	-3.7923408911	-3.5840789607	 0.201308
