20
gdb 119023	2.29544	1.11409	0.84357	2.4381	81.42	-0.2405	0.0527	0.2932	1423.8838	0.168701	-403.075135	-403.065044	-403.0641	-403.110698	36.397	
C	-0.0108084539	 1.6442232964	 1.3475821208	-0.227241
O	-0.0032955908	 0.2442913602	 1.5046641925	-0.241632
C	 0.6647824407	-0.4284037912	 0.4593859988	-0.13905
C	 0.5575399665	-1.9266745128	 0.6797174872	 0.297683
C	 1.1720349286	-2.7752904784	-0.431628908	-0.415581
C	 0.6164426816	-2.5093837248	-1.7557794618	 0.318109
C	 0.1604012097	-2.2784387932	-2.8437445336	-0.458877
C	 0.5599116389	-2.4501299231	 2.0665758179	-0.280588
N	-0.6786896399	-2.4617280764	 1.2573446807	-0.343344
H	-0.5057186057	 1.9450009934	 0.4115830447	 0.111633
H	-0.5619146941	 2.0642730614	 2.1921658605	 0.130555
H	 1.0093121094	 2.0579390259	 1.3461092427	 0.109203
H	 0.2164980178	-0.1674009581	-0.5124582423	 0.110089
H	 1.7268940803	-0.1292818271	 0.4211502685	 0.091909
H	 2.258741388	-2.614511096	-0.4530820569	 0.126532
H	 1.0135044154	-3.8280715788	-0.1749610272	 0.142935
H	-0.2461501404	-2.0878567827	-3.8058940869	 0.195388
H	 0.9799541952	-3.4307745085	 2.2756327864	 0.108467
H	 0.6350664741	-1.7299785627	 2.8746487863	 0.124518
H	-1.2570696913	-1.6772080537	 1.5517115397	 0.239292
