17
gdb 96955	3.91962	1.27937	1.22208	3.5888	74.66	-0.2365	0.0305	0.267	1080.086	0.136436	-417.93198	-417.924343	-417.923399	-417.964553	28.92	
C	 0.1313802085	 1.4129234946	 0.0046020485	-0.337272
N	 0.1153715784	-0.0421006391	 0.0534006761	-0.345555
C	 0.5973108025	-0.6907169728	-0.8968900014	 0.496385
O	 1.1511236831	-0.2520382708	-2.1076843837	-0.278496
C	 1.3499576387	-1.6199046433	-2.5507167476	 0.11903
C	 2.7100696174	-2.2720914445	-2.1898489358	-0.083756
N	 3.1213090402	-1.723612751	-0.8789476404	-0.318683
C	 2.12791926	-2.8108606543	-0.9233780115	-0.047263
C	 0.7499292313	-2.1628987691	-1.2372249208	-0.222491
H	 0.752378266	 1.7899748132	 0.8249516254	 0.128578
H	 0.5098363763	 1.8251172543	-0.937785925	 0.126762
H	-0.8840777758	 1.7872923216	 0.1739448445	 0.122144
H	 0.9443174155	-1.8088414912	-3.5435079443	 0.095843
H	 3.4363291255	-2.6927008678	-2.8737597337	 0.099179
H	 4.0238246194	-2.1391645472	-0.6521511408	 0.237498
H	 2.2935245021	-3.7532556296	-0.4182200561	 0.104362
H	-0.1255941291	-2.8062042929	-1.1966034136	 0.103735
