20
gdb 107137	3.52608	1.1548	1.12706	1.2522	79.84	-0.204	0.0813	0.2853	1210.1509	0.169196	-403.052117	-403.04325	-403.042306	-403.085384	34.18	
C	 0.0312992223	 1.3536012342	 0.2868487476	-0.255576
O	 0.0020183745	 0.0108004594	-0.1723750034	-0.276899
C	-1.2525601423	-0.5512979643	-0.1130874077	 0.45037
C	-1.8838728711	-1.0749439656	 1.1477627218	-0.356148
C	-1.5969580559	-2.0158635875	-0.012097387	-0.209429
C	-2.6030687315	-1.8394028686	-1.1982357682	 0.354696
C	-2.8567553077	-2.8730965072	-2.2484508604	-0.508138
N	-3.6208083701	-0.8292000795	-0.7990479612	-0.378482
C	-2.2793906688	-0.4019515322	-1.2857998599	-0.201267
H	 1.0630881269	 1.6998647325	 0.1940865604	 0.124752
H	-0.619318695	 2.0031690635	-0.3157234298	 0.110589
H	-0.2842135194	 1.4234202037	 1.3366063098	 0.114923
H	-1.1741290556	-1.1840478983	 1.9627471501	 0.109033
H	-2.8995908811	-0.8304936974	 1.4304173117	 0.138046
H	-0.9313670865	-2.8644039127	 0.078314131	 0.096023
H	-3.4691745709	-3.6952164304	-1.8587301676	 0.128435
H	-3.3804360828	-2.4388591687	-3.1072679287	 0.115496
H	-1.9160490534	-3.3018653005	-2.610946711	 0.129367
H	-4.2662380044	-0.7316328429	-1.5837767063	 0.222226
H	-2.1577515773	 0.2400127724	-2.1497344414	 0.091981
