19
gdb 63394	3.18769	1.14975	0.98376	3.1684	72.68	-0.2628	-0.0301	0.2327	1238.6967	0.156135	-460.167655	-460.158336	-460.157392	-460.201205	35.875	
C	-0.8225546689	 1.3203111055	-0.1444851112	-0.452133
C	 0.114678474	 0.1385523776	 0.0370469458	 0.396971
O	-0.6041035566	-1.095528352	 0.0124393715	-0.475209
C	 1.3934209565	 0.0700577254	-0.8494074481	-0.33548
C	 2.2168831052	-0.3922933318	 0.4013039427	 0.336296
O	 3.4426791467	 0.2344321097	 0.6023072045	-0.484512
C	 1.0238901664	 0.0990505499	 1.2895501461	-0.304338
C	 2.3890824895	-1.8931943315	 0.4525589074	 0.103396
O	 3.4738703039	-2.3955599093	 0.6384645021	-0.287875
H	-0.2824108363	 2.2689225351	-0.0736334567	 0.12143
H	-1.3068595074	 1.286278901	-1.1286891898	 0.109296
H	-1.6059127857	 1.3053216143	 0.619655795	 0.129706
H	-1.0382869897	-1.1670518353	-0.8450819949	 0.277684
H	 1.355870726	-0.5890940125	-1.7217449181	 0.098427
H	 1.751806932	 1.0565002959	-1.1525751818	 0.120376
H	 4.0867959009	-0.4837787406	 0.7194448666	 0.289387
H	 1.2592137183	 1.0957839723	 1.6673169603	 0.120791
H	 0.6819439164	-0.5391542764	 2.107269766	 0.115431
H	 1.4721989987	-2.4928394172	 0.3116595925	 0.120356
