18
gdb 74109	2.42541	1.63004	1.08268	5.5226	81.58	-0.2155	-0.0176	0.1979	1115.8854	0.149969	-401.985458	-401.977642	-401.976698	-402.017535	31.225	
N	 0.103883347	 1.3363849444	-0.2648240398	-0.558981
C	 0.0046497397	-0.0221053421	-0.0792259155	 0.384736
C	-1.1792603922	-0.6812902489	-0.092151251	-0.320321
C	-1.3028243779	-2.1274118878	 0.0531704837	 0.403449
O	-2.3751577205	-2.6768673948	 0.2563172726	-0.380055
C	-0.0437935136	-2.932197675	-0.0702178774	-0.136068
C	 0.7693051566	-2.7952088624	-1.3496298078	-0.292282
C	 1.2920178459	-2.2187823348	-0.069685012	-0.037725
C	 1.325751117	-0.7190231361	 0.1465016866	-0.335087
H	 0.9260378136	 1.798825549	 0.0902973199	 0.25514
H	-0.7430333521	 1.8779173819	-0.1833594998	 0.259402
H	-2.1139232901	-0.1333175444	-0.1718906501	 0.079398
H	-0.1158590951	-3.9203180964	 0.3689433208	 0.100201
H	 1.2386292359	-3.6917383867	-1.7385993949	 0.118666
H	 0.3903067945	-2.115658478	-2.1054787311	 0.125067
H	 2.1174868374	-2.7494039601	 0.3941852867	 0.091255
H	 2.0840167391	-0.2610249253	-0.5028614307	 0.118743
H	 1.6410641847	-0.5032294525	 1.1778610399	 0.124462
