16
gdb 28308	5.10433	1.28789	1.03649	3.1059	81.04	-0.1739	-0.019	0.1548	1104.8099	0.127864	-396.975461	-396.968301	-396.967357	-397.006799	28.246	
N	 0.0198092618	 1.3713601183	 0.1448250711	-0.596731
C	-0.0292287411	-0.0228646497	 0.0531269122	 0.279119
C	-1.1444951783	-0.8458699429	 0.0415621848	-0.236448
N	-0.6214327259	-2.1240905737	 0.0142667524	 0.003826
C	-1.0457983993	-3.5091940697	-0.0208723739	-0.241053
C	 0.2902083764	-4.2329126527	-0.0392009554	-0.105876
C	 1.3004921895	-3.3448088033	-0.0192623592	-0.189759
C	 0.7351314283	-2.0077354966	 0.0134174463	 0.38259
N	 1.1370922133	-0.7493848311	 0.0337006051	-0.411744
H	 0.9292306372	 1.7109137515	-0.1413821136	 0.248276
H	-0.708470332	 1.8370490829	-0.3798040107	 0.239255
H	-2.2002943501	-0.6384672728	 0.0618604791	 0.116155
H	-1.646667606	-3.7724936713	 0.8585586329	 0.138858
H	-1.6469509866	-3.7272964433	-0.9124368987	 0.137622
H	 0.3629269597	-5.3104297014	-0.0630733524	 0.113279
H	 2.3594788631	-3.5576475043	-0.0249974799	 0.122631
