20
gdb 14123	3.5832	1.65938	1.39388	1.5391	74.73	-0.229	0.0841	0.313	986.8621	0.176162	-348.970026	-348.961714	-348.96077	-349.002529	31.768	
C	-0.1196155514	 1.5385858641	 0.1543075604	-0.389745
C	-0.0274928799	 0.0086849012	 0.0267630912	-0.077128
C	 0.889675254	-0.5962973652	 1.0959726917	-0.401824
C	-1.4072114824	-0.5884867221	 0.0466851793	 0.511055
C	-2.2426941205	-0.9928520328	 1.2242292331	-0.334917
C	-1.9864981061	-1.9881175851	 0.1043090507	-0.201641
C	-2.7966619621	-1.5681464863	-1.1121051958	-0.087698
O	-2.2762985299	-0.2138950269	-1.0408798499	-0.334407
H	 0.8672120002	 1.9975943752	 0.0365438317	 0.106539
H	-0.7848170702	 1.951882222	-0.6083800349	 0.136351
H	-0.5112054379	 1.8233782327	 1.1372069129	 0.11394
H	 0.3958213371	-0.2219300158	-0.9605254828	 0.081712
H	 0.9436245123	-1.6867693601	 1.0132034039	 0.114001
H	 1.9048635746	-0.2020791448	 0.9902277101	 0.116506
H	 0.5436113283	-0.3473352252	 2.1048519748	 0.118773
H	-1.7077532078	-1.2076379121	 2.1435985409	 0.114219
H	-3.2293341992	-0.5560685062	 1.3568158256	 0.110378
H	-1.5139711792	-2.9482012433	 0.2631907722	 0.097348
H	-2.4828878664	-2.0525871583	-2.04417117	 0.105431
H	-3.8903177433	-1.5985283509	-1.0312998853	 0.101107
