14
gdb 35673	4.87597	1.02708	0.96638	3.7225	67.73	-0.2853	-0.0015	0.2838	1181.5282	0.10002	-436.645231	-436.637067	-436.636122	-436.679056	29.055	
C	 0.1375285443	-1.2268902747	-0.049268831	-0.456602
C	 0.0482296788	-0.0299613459	-0.0104267458	 0.347966
C	-0.095073591	 1.4208618502	 0.0357725786	-0.071887
C	-0.6635631335	 1.949490476	 1.3752889678	-0.14063
O	 0.5142965148	 2.2586798993	 2.1152264046	-0.22111
C	 1.4166334178	 2.7492667273	 1.1700866758	 0.060754
O	 1.1975582122	 2.0588171496	-0.0405503018	-0.252548
C	 1.226616874	 4.2160322109	 0.9527245701	 0.277707
N	 1.0835027942	 5.3512553449	 0.795904583	-0.318338
H	 0.2237193894	-2.2852342416	-0.0862058493	 0.212439
H	-0.6958736356	 1.766267999	-0.8118651982	 0.133469
H	-1.269025807	 2.8498761049	 1.2108214199	 0.129623
H	-1.2330431888	 1.2077211986	 1.9328309313	 0.148964
H	 2.4348471804	 2.5659717517	 1.5256586949	 0.150195
