23
gdb 36917	4.28489	0.85518	0.75606	0.2175	91.75	-0.2321	0.0301	0.2622	1577.0035	0.207218	-351.157091	-351.148194	-351.14725	-351.191535	34.13	
C	 0.0011126072	 1.4800537955	-0.1515477857	-0.21619
C	-0.1139071364	-0.0304189753	-0.1449136544	 0.030235
C	-0.3698332564	-0.7908365475	 1.1346419735	-0.250749
C	-1.4476618825	-0.6950976896	 0.0829558532	-0.281975
C	 1.4339148952	 2.0087235253	 0.0425936961	-0.010153
C	 1.5401890221	 3.5534453678	-0.0930190751	-0.229819
C	 2.6079477071	 4.0025894227	 0.9359779567	-0.254395
C	 2.667366161	 2.8324677667	 1.8897168662	-0.06939
C	 2.0425195019	 1.7599170529	 1.4076299781	-0.058945
H	-0.3827070186	 1.8658147005	-1.1064992929	 0.093084
H	-0.6457411159	 1.8996145623	 0.6311444834	 0.088354
H	 0.5375626603	-0.5271553743	-0.8609983101	 0.078183
H	 0.1242247351	-1.7452235915	 1.2817085225	 0.107984
H	-0.5028543404	-0.2163455857	 2.0456805684	 0.111259
H	-2.3008913325	-0.0571591993	 0.2908385216	 0.108789
H	-1.6893045104	-1.5832916465	-0.4904524617	 0.108062
H	 2.0654964699	 1.5233778601	-0.7194301388	 0.070835
H	 1.7698970968	 3.8713231012	-1.1135642091	 0.093167
H	 0.5733683118	 3.9972242008	 0.1716952471	 0.098823
H	 3.5879564662	 4.1655790018	 0.4646356848	 0.102643
H	 2.3473016409	 4.9466213483	 1.428196989	 0.099385
H	 3.2015160462	 2.8741320186	 2.8331677285	 0.08629
H	 1.9912331414	 0.7934180752	 1.8954401284	 0.094522
