19
gdb 45802	2.27849	1.79992	1.24455	2.6341	81.1	-0.2329	-0.0156	0.2173	1056.5339	0.161174	-385.904771	-385.896903	-385.895959	-385.938028	30.499	
O	-0.5980990019	 0.7271614867	 1.2515285792	-0.307695
C	-0.2502926991	 1.3578154626	 0.2797812498	 0.365526
C	-1.2317416666	 1.6970375028	-0.8345218412	-0.340693
C	-1.583904853	 3.1606961795	-0.968081184	-0.08367
C	-0.9072186072	 4.2481540232	-0.5924141673	-0.049276
C	 0.4050110621	 4.4095556556	 0.0814383204	-0.05592
C	 0.6295216025	 4.0016966287	 1.5366038282	-0.289911
C	 1.3848531228	 3.3132152686	 0.4352513499	-0.034788
C	 1.183799538	 1.8386460724	 0.1151125384	-0.302923
H	-0.8161396251	 1.3361742273	-1.7880879025	 0.121962
H	-2.1426024284	 1.1212708622	-0.6450446153	 0.126504
H	-2.546472986	 3.3255955684	-1.446741042	 0.095227
H	-1.3887137337	 5.2012423569	-0.8057722064	 0.089427
H	 0.8812338469	 5.3499954705	-0.1830010649	 0.090573
H	 1.1563521075	 4.6875006116	 2.1909251088	 0.112725
H	-0.1718469242	 3.4488103126	 2.0148108872	 0.138403
H	 2.4254194225	 3.6085996916	 0.3290919764	 0.093033
H	 1.8040000161	 1.2388717665	 0.7880345887	 0.124175
H	 1.5097032967	 1.6496841822	-0.9158073035	 0.10732
