19
gdb 79788	3.84891	1.72406	1.59418	1.6828	77.37	-0.2211	0.0691	0.2902	906.7348	0.162568	-381.983696	-381.977331	-381.976387	-382.014068	27.053	
C	-0.263356214	 1.5152039876	-0.0431173505	-0.329555
N	 0.0284813821	 0.0917132541	 0.0048885191	-0.076955
C	 1.1683827381	-0.4463236324	-0.7750901997	-0.023811
C	 2.4701868492	 0.270875522	-0.3370044312	-0.078935
C	 3.5002781763	-0.874988467	-0.2502452223	-0.180875
N	 2.6942428722	-1.421271934	 0.8943759534	-0.153015
C	 2.2071241343	 0.0003262691	 1.1862883567	-0.021622
C	 0.7001356229	-0.4619222947	 1.1823168315	-0.033449
C	 1.3171027633	-1.5858997472	 0.3236022174	-0.023945
H	 0.5929178862	 2.1620571414	 0.2117366647	 0.099912
H	-0.6045280484	 1.7820834279	-1.0487457484	 0.121359
H	-1.0755329942	 1.7397224364	 0.6564058077	 0.121387
H	 1.0079283808	-0.6318832607	-1.8375083426	 0.071297
H	 2.6965385514	 1.2488136249	-0.7623643991	 0.068418
H	 3.613238197	-1.5464677454	-1.1094752506	 0.098766
H	 4.4869729932	-0.5632419114	 0.1040862136	 0.107397
H	 2.7066961183	 0.570396601	 1.9676295764	 0.07505
H	 0.1497089278	-0.5706103704	 2.1158169486	 0.078666
H	 0.9118080336	-2.5813093112	 0.1616433654	 0.079908
