18
gdb 36251	5.55204	0.965	0.94001	1.44	82.05	-0.2343	0.0522	0.2865	1279.3395	0.147316	-364.675488	-364.667809	-364.666865	-364.708044	30.128	
C	-0.3992742497	-0.5248548502	-1.2657142061	-0.453065
C	-0.1195124921	 0.0675984246	-0.2579515749	 0.303612
C	 0.2531140325	 0.8015016069	 0.9455254853	-0.384966
C	 1.5915859173	 1.5231706478	 0.7845994284	 0.049469
C	 1.6972180349	 2.8461829276	 0.031833012	-0.069874
C	 1.1314040239	 3.6033501424	 1.2733493646	-0.009274
C	 2.3090829716	 4.5769308174	 1.3593257457	-0.257559
C	 2.9010841313	 3.22866565	 0.9462830841	 0.000656
N	 1.9701967973	 2.4625268468	 1.9292524093	-0.18004
H	-0.6584534026	-1.0543380115	-2.1486584247	 0.195728
H	-0.5364187307	 1.5194549632	 1.1981226197	 0.129159
H	 0.3274952479	 0.1137586061	 1.7977757029	 0.140535
H	 2.3852405412	 0.7949523302	 0.5794166294	 0.081101
H	 1.5519298142	 3.0795233992	-1.0277356555	 0.072042
H	 0.0890436183	 3.7612670107	 1.5522581416	 0.085732
H	 2.34178869	 5.3796582082	 0.6186916835	 0.101367
H	 2.5687649156	 4.93293451	 2.3596315875	 0.110653
H	 3.941635169	 2.9198606007	 0.8309996472	 0.084724
