19
gdb 92390	2.21867	1.58623	1.24864	1.1731	82.03	-0.2433	0.032	0.2753	1105.7434	0.157779	-385.83033	-385.821614	-385.820669	-385.863699	33.462	
C	 0.2064308195	 1.5209893279	-0.1381703737	-0.417171
C	 0.065516331	 0.0340672896	 0.1010417284	 0.122357
O	 0.8414455077	-0.776619882	-0.8176406552	-0.314013
C	 1.3687883791	-1.5905218459	 0.2427860144	 0.075861
C	 2.7815412041	-1.1545761739	 0.6736355525	-0.228249
C	 2.1578111279	-0.1666189148	 1.7055962697	-0.297665
C	 0.7190139976	-0.662172725	 1.3331742131	 0.107552
C	-0.1454518662	-1.0892993526	 2.3974731656	 0.18346
C	-0.8736048135	-1.4424429472	 3.2885360342	-0.412663
H	 1.2503804449	 1.8426994049	-0.1068080919	 0.122975
H	-0.1931256596	 1.7736425107	-1.1254494643	 0.131618
H	-0.3613281063	 2.0812227676	 0.6122260034	 0.125672
H	-0.9938225269	-0.2516596599	 0.0421956283	 0.081235
H	 1.1397680119	-2.6520098861	 0.1192274197	 0.082877
H	 3.3605751815	-1.9549436279	 1.1415708522	 0.106432
H	 3.3667276811	-0.7142938552	-0.1360326082	 0.112806
H	 2.4121631179	-0.3967763274	 2.7408498633	 0.120239
H	 2.3413531436	 0.8958104632	 1.5359832411	 0.107648
H	-1.5162670854	-1.7566102559	 4.0731699174	 0.18903
