21
gdb 77698	2.5731	1.33558	1.17494	1.1305	78.61	-0.2542	0.0726	0.3268	1171.0037	0.179538	-424.200963	-424.191311	-424.190366	-424.23487	37.021	
C	-0.7152280649	 1.0430956094	 0.0667438772	-0.42074
C	-0.053060601	-0.324235837	 0.0628204407	-0.083901
C	 0.8682203337	-0.7121554503	-1.1000628546	 0.432225
C	 0.6237164206	-0.8419050864	-2.5325510583	-0.273066
O	 1.3515476797	 0.2793954708	-2.0043838626	-0.273076
C	 1.8256746793	-1.4324010239	-0.152687832	-0.369845
C	 1.1317603705	-0.6637872479	 1.0269407569	 0.393925
C	 1.9396898115	 0.5355846816	 1.5095538468	-0.455725
O	 0.6787900508	-1.4524280377	 2.1108522753	-0.484598
H	 0.0036815616	 1.8390754901	-0.1422777999	 0.12882
H	-1.4943569511	 1.0963532276	-0.7010710644	 0.11606
H	-1.1895395252	 1.2442442801	 1.0325915734	 0.120568
H	-0.8002636088	-1.1138549706	 0.2036403126	 0.090627
H	 1.2133376109	-1.5422520133	-3.1235390612	 0.112594
H	-0.3586323816	-0.6066716303	-2.9417315137	 0.112199
H	 1.6248010068	-2.5051254002	-0.0878143986	 0.106968
H	 2.8918089621	-1.2577324346	-0.3183285694	 0.105533
H	 2.2680639634	 1.158580772	 0.6727108939	 0.139257
H	 1.3500136692	 1.1516663518	 2.1948819791	 0.124112
H	 2.8394387239	 0.1969069001	 2.0390598742	 0.10418
H	 1.4210537187	-1.6031245214	 2.7062300847	 0.273882
