21
gdb 121390	4.04783	0.83856	0.73932	2.2081	81.44	-0.245	0.0194	0.2645	1561.043	0.183142	-424.227852	-424.218702	-424.217758	-424.262281	34.146	
O	 0.100064118	 1.4190204528	-0.0691059038	-0.420672
C	 0.0637979637	-0.0005461507	-0.0224222882	-0.06757
C	-1.3657836096	-0.5465422232	-0.0120587794	-0.215941
C	-1.4257656687	-2.0763046206	-0.0388858089	 0.083117
O	-0.7515437393	-2.5399423293	 1.1247230631	-0.267548
C	-0.9543233051	-3.919793736	 1.3784803914	-0.074336
C	-2.4199742128	-4.2065427156	 1.7113432623	-0.255344
C	-3.3069424856	-3.5349643967	 0.6962910104	-0.07627
C	-2.842432194	-2.5882901418	-0.1154013471	-0.064608
H	-0.2555721641	 1.7467335258	 0.7629036637	 0.279936
H	 0.5833628687	-0.3384444878	-0.9265533236	 0.10553
H	 0.6194210021	-0.3931015143	 0.8390508822	 0.108982
H	-1.8921810577	-0.1964087759	 0.8854869696	 0.095577
H	-1.9026629122	-0.1493459523	-0.8809980416	 0.102919
H	-0.8759883869	-2.4265322878	-0.9355666087	 0.071904
H	-0.6487600591	-4.516687265	 0.5034889677	 0.090613
H	-0.2930486222	-4.1782951897	 2.210345599	 0.104737
H	-2.5946574755	-5.2900849977	 1.7177030394	 0.10335
H	-2.6569672102	-3.8503629002	 2.7232214755	 0.114834
H	-4.3434887728	-3.8552446492	 0.6312430111	 0.089998
H	-3.4761808065	-2.1363316149	-0.8741870343	 0.090794
