21
gdb 103379	3.0078	1.37816	1.25454	2.4537	76.98	-0.2557	0.0581	0.3138	1099.6852	0.184374	-424.211723	-424.203508	-424.202564	-424.244018	33.458	
O	 0.768274999	-0.3716159442	 1.1790102236	-0.427682
C	 0.1084968955	-0.019055365	-0.0223839052	-0.110911
C	-1.3223591641	-0.5524300831	-0.0350628292	 0.426675
O	-1.9071168236	 0.0778755892	 1.0954498003	-0.51332
C	-2.0810234495	-0.5156619087	-1.4035181981	-0.077821
C	-1.3340765243	-1.8395948568	-1.7383877581	-0.242313
C	-1.4923681601	-2.0980212201	-0.2118084857	-0.066843
C	-3.0239748304	-2.2661193102	-0.1107020412	-0.254311
C	-3.4712611317	-1.0539647427	-1.0054974464	-0.232589
H	 0.1569282807	-0.1230069977	 1.8830621196	 0.285995
H	 0.0627461046	 1.0751297205	-0.1469514816	 0.089953
H	 0.7069842962	-0.4221848091	-0.8400155748	 0.107164
H	-2.7073397877	-0.3902362759	 1.3478451633	 0.285814
H	-2.047812813	 0.3573630086	-2.0564638852	 0.061625
H	-1.8472386337	-2.5356899131	-2.4070673499	 0.092509
H	-0.3052382027	-1.7090034307	-2.0689628188	 0.106893
H	-0.8634175325	-2.8017347862	 0.3323257503	 0.073717
H	-3.3526505009	-3.228502255	-0.5111443555	 0.106016
H	-3.4021688817	-2.2121720146	 0.9172626151	 0.089231
H	-4.0653746623	-0.3150360106	-0.4604884487	 0.097608
H	-4.0527492577	-1.3685379444	-1.8757180436	 0.102591
