19
gdb 34280	3.37068	1.43175	1.29362	0.9013	85.66	-0.2395	0.0155	0.255	1046.2593	0.161225	-348.733932	-348.72654	-348.725596	-348.765282	30.938	
C	 0.0148923451	-1.1808064865	 0.0129470807	-0.346447
C	 0.0097439197	 0.0217278293	-0.0042870572	 0.062428
C	-0.0027175912	 1.4691748409	-0.0126671678	 0.207713
C	-0.6813476742	 2.1349379984	 1.2488302997	-0.241019
C	-0.1695277671	 3.6037086804	 1.1891610604	-0.213537
C	 0.7323606221	 3.6092308797	-0.0915362105	-0.083299
C	 1.3688121388	 2.2064625793	 0.0040004183	-0.237347
C	-0.2049323794	 3.4042564919	-1.2709600541	-0.092227
C	-0.6456644998	 2.145137504	-1.2265079129	-0.111648
H	 0.0230666367	-2.2423104048	 0.0232250771	 0.177941
H	-1.7684834994	 2.0511217862	 1.1990976452	 0.106048
H	-0.3474542451	 1.625481912	 2.1564899812	 0.108772
H	-0.9801879251	 4.33231365	 1.1183473389	 0.099672
H	 0.4234397889	 3.8506738689	 2.0750085614	 0.0992
H	 1.412674132	 4.4585173872	-0.1583192351	 0.061699
H	 1.9293257129	 2.0345480392	 0.9281422479	 0.095446
H	 1.9845609546	 1.9496266918	-0.8601759369	 0.105594
H	-0.5345930171	 4.1884169296	-1.9412613708	 0.096843
H	-1.3984224525	 1.6704098623	-1.8420493457	 0.104167
