20
gdb 103444	3.40061	1.22125	1.18839	2.3808	79.74	-0.2202	0.0065	0.2267	1139.8484	0.171381	-403.126178	-403.117689	-403.116744	-403.15901	33.18	
C	-0.2990196415	 1.6461149986	-0.202051278	-0.473171
C	-0.1599764401	 0.141556908	-0.1567131405	 0.294515
C	-1.274971032	-0.5545594983	 0.6147783994	-0.104821
O	-1.14076589	-0.3245000078	 2.0059975419	-0.42276
C	 0.5523689621	-0.6653085755	-1.2024398855	-0.135238
C	 1.4803393805	 0.030895998	-2.1326150424	-0.07771
C	 2.4921660095	 0.5770980064	-1.4571657218	-0.087507
C	 2.3567511031	 0.286688255	 0.0204073178	-0.21493
N	 1.1250002594	-0.5236251231	 0.1668928713	-0.157099
H	 0.5112903098	 2.1361930255	-0.7422323266	 0.123666
H	-1.2406869572	 1.9163176439	-0.6918487753	 0.119711
H	-0.3370624111	 2.0376403559	 0.8197425129	 0.13457
H	-2.2535190563	-0.1575465867	 0.3243641472	 0.101922
H	-1.2629572419	-1.6310633806	 0.387979648	 0.08509
H	-0.2474807749	-0.6219861645	 2.2216276467	 0.28729
H	 0.1561806455	-1.6402558056	-1.4817337684	 0.088597
H	 1.326666601	 0.0688100772	-3.2038792971	 0.104229
H	 3.296647189	 1.1711027333	-1.8753134866	 0.102702
H	 3.2080289971	-0.2886897447	 0.4075003511	 0.115187
H	 2.2951075481	 1.2007521849	 0.626753576	 0.115755
