16
gdb 10043	3.23932	1.35789	1.00081	1.2471	73.09	-0.2605	0.0278	0.2883	1144.5468	0.126368	-346.519534	-346.51022	-346.509276	-346.553678	32.938	
C	-0.217845908	 1.4240251407	-0.1159819545	-0.238609
O	 0.1287491917	 0.0658352062	 0.0633351526	-0.2223
C	 0.6853084643	-0.5416092016	-1.0846529216	-0.068277
C	 1.253978481	-1.9075571437	-0.6393253913	-0.366376
C	 2.3746101292	-1.7764897873	 0.2814425511	 0.312003
C	 3.3132297253	-1.6649374733	 1.0229417525	-0.447012
C	-0.3027710188	-0.7135055118	-2.1595706191	 0.34001
C	-1.115707954	-0.864035642	-3.0321191519	-0.461853
H	 0.6586094221	 2.0289493927	-0.3942071912	 0.108008
H	-0.9902138003	 1.5488870669	-0.8869854476	 0.119533
H	-0.6052958691	 1.7794468731	 0.8410826181	 0.131957
H	 1.516772093	 0.0737829923	-1.4664201816	 0.103745
H	 0.4374911112	-2.4712010936	-0.1745996715	 0.150092
H	 1.5602398115	-2.4629788093	-1.5324294262	 0.14158
H	 4.1362601838	-1.5715747917	 1.6870642326	 0.195746
H	-1.8319442028	-0.9913888276	-3.8062575703	 0.201752
