19
gdb 118938	2.4082	1.34441	1.12209	0.8905	72.83	-0.246	0.0191	0.265	1170.5478	0.159058	-456.318985	-456.309533	-456.308588	-456.353369	34.402	
C	 0.2149933397	 0.7591354615	 0.4570410572	-0.262263
O	-0.4217708152	 0.2257769156	-0.6977115548	-0.240524
C	 0.4039935483	-0.542580305	-1.5377490433	-0.107376
C	 0.5238701795	-2.0191534051	-1.1081210825	 0.139875
N	-0.8012531622	-2.5426539978	-0.8773140975	-0.560164
C	 1.4366096712	-2.826473577	-2.0712587849	-0.106585
O	 2.4573606888	-2.9363543163	-1.0308528621	-0.254633
C	 1.6434175649	-2.3301307702	-0.101389489	 0.377846
N	 1.7958478697	-2.1784367567	 1.1355040685	-0.547699
H	 0.5365818299	-0.0235869475	 1.1523066136	 0.158855
H	 1.089367214	 1.3645018215	 0.1755886221	 0.106014
H	-0.5190149705	 1.406650223	 0.9425450158	 0.124718
H	-0.0774857955	-0.5333982353	-2.5224580856	 0.119502
H	 1.4054124587	-0.0978917081	-1.6355715908	 0.097919
H	-0.7764381583	-3.3486782921	-0.2617459325	 0.236008
H	-1.3550178285	-1.824413918	-0.4188289014	 0.248457
H	 1.0433711112	-3.8080366934	-2.3451013254	 0.124462
H	 1.8231494432	-2.3047082527	-2.9512657037	 0.116827
H	 2.6799019612	-2.5753934661	 1.4587518263	 0.228762
