19
gdb 47845	2.4575	1.54379	1.07962	1.9386	77.26	-0.2373	-0.0247	0.2125	1127.8561	0.160519	-423.034552	-423.026384	-423.02544	-423.067394	31.367	
O	 0.0371670073	-0.1328886612	-0.1230330106	-0.295447
C	 0.0160066481	 1.0685200637	 0.0097039315	 0.381244
C	-1.3088437829	 1.8265149702	 0.0669360285	-0.31648
C	-1.6712673935	 2.634726484	-1.2109573465	-0.067759
O	-1.3837116477	 4.0190124078	-1.1801899661	-0.250691
C	-0.047900933	 4.4070568088	-0.8556102965	-0.108643
C	 1.0101469628	 3.6840295253	-1.6405199197	-0.071252
C	 1.6050687614	 2.5660431611	-1.2192071369	-0.055586
C	 1.3233612409	 1.8710998387	 0.0965898702	-0.348528
H	-2.0751378513	 1.0619451606	 0.2161096601	 0.127671
H	-1.3349007022	 2.5033092348	 0.9290859036	 0.119422
H	-1.2184134264	 2.1520687261	-2.0875448154	 0.106509
H	-2.7563287921	 2.5982052567	-1.3404837056	 0.11885
H	-0.0205476087	 5.4816453179	-1.0564420736	 0.114308
H	 0.125983558	 4.2732362688	 0.2220003982	 0.089979
H	 1.2507291474	 4.0752746683	-2.6256110606	 0.099282
H	 2.3145957941	 2.0637078739	-1.8715348663	 0.110026
H	 1.2453215726	 2.5973479393	 0.9128341928	 0.121717
H	 2.1205446653	 1.164816715	 0.3337649729	 0.125378
