23
gdb 81706	2.04426	1.67844	1.5618	1.626	83.9	-0.2371	0.0755	0.3126	1074.3953	0.208815	-388.294405	-388.286193	-388.285249	-388.326587	33.313	
C	-0.3270223785	 1.6102882203	-0.1475277041	-0.440916
C	-0.0163938096	 0.1274801017	-0.0142913486	 0.012853
C	 1.0655945471	-0.6133854598	-0.8431793542	 0.083792
C	 2.3215542489	 0.1672151902	-1.2642962649	-0.223837
C	 3.3302537946	 0.3940783511	-0.1230904785	-0.176535
C	 2.7736904189	 1.1045089084	 1.1208220769	-0.206041
C	 1.7698349137	 0.2853677858	 1.9581227659	-0.202126
C	 0.713064642	-0.5124539902	 1.1947426329	 0.083914
O	 1.3340097017	-1.4736264524	 0.2960674903	-0.294268
H	 0.5563521205	 2.2486648095	-0.1020649526	 0.125232
H	-0.8278786341	 1.8094277239	-1.1017489063	 0.118104
H	-1.0095953154	 1.9311780824	 0.6473421156	 0.118149
H	-0.9508904025	-0.4277369768	-0.1473634887	 0.08357
H	 0.6787719056	-1.1927923587	-1.6890973163	 0.069967
H	 2.8291589334	-0.3847835796	-2.0639632892	 0.097987
H	 2.0156795468	 1.1251344208	-1.7062444598	 0.095209
H	 3.7398916042	-0.5769310033	 0.1733176978	 0.110869
H	 4.1663306533	 0.9823205184	-0.5196492035	 0.084618
H	 3.6129026522	 1.3683534033	 1.7758104543	 0.093562
H	 2.3301640632	 2.0610589467	 0.8230441479	 0.098101
H	 2.3245624297	-0.4503455218	 2.5551781022	 0.107166
H	 1.2657936158	 0.9436072159	 2.6783046959	 0.090832
H	 0.0608051786	-1.0218296061	 1.914992857	 0.069799
