15
gdb 86930	4.04056	0.93791	0.81885	3.8005	63.81	-0.2636	-0.0566	0.2071	1333.8626	0.109707	-494.909943	-494.900932	-494.899988	-494.944734	30.935	
O	 0.137309686	 1.4789804448	-0.0828557535	-0.41955
C	 0.0851280591	 0.0919166295	-0.0342101336	 0.063769
C	-1.2734976182	-0.6853046146	 0.1502389369	-0.31414
C	-0.7856886844	-1.7703317368	-0.8419314438	 0.013644
O	-1.7544508828	-2.2036049547	-1.7765797078	-0.19293
C	-1.3146501276	-2.9859736238	-2.794803707	 0.179626
O	-2.0466048564	-3.378205582	-3.6494390634	-0.264675
C	 0.2218096987	-0.7060445195	-1.3393885224	 0.31324
O	 0.6081708885	-0.4188665744	-2.4350892488	-0.290636
H	-0.1138312819	 1.7620062338	-0.9702621137	 0.299335
H	 0.8061903518	-0.248025504	 0.7180787749	 0.125681
H	-1.5189792719	-1.0094440792	 1.1603618546	 0.131002
H	-2.1066308121	-0.1287072059	-0.2846075765	 0.142952
H	-0.304275025	-2.6165961013	-0.3390773453	 0.119808
H	-0.2357785838	-3.2143143618	-2.7308852507	 0.092874
