15
gdb 34107	3.55895	1.56172	1.33985	4.625	68.35	-0.2326	-0.0044	0.2282	938.316	0.114454	-416.75697	-416.75025	-416.749306	-416.78801	26.678	
N	 0.0998323052	-1.1050891744	 0.0451110999	-0.330171
C	 0.0306799758	 0.0476355937	 0.0154803862	 0.209082
C	-0.0934746154	 1.4931655959	-0.0241514992	 0.288137
C	-0.9997711105	 2.131985441	 1.0379288338	-0.188102
N	-1.055856988	 3.5504057953	 0.6136905408	-0.312874
C	-0.5893879576	 3.5833024103	-0.7649520634	-0.05677
C	 0.7890197514	 3.0192561063	-1.0334103631	 0.100015
O	 1.1943369191	 2.1846770933	 0.0573795602	-0.320189
C	-0.4305897453	 2.2032456929	-1.3662968119	-0.220794
H	-1.9843565248	 1.6452311712	 1.0514689127	 0.113078
H	-0.5387300797	 2.030158773	 2.0244687698	 0.138264
H	-2.0111514234	 3.8861651402	 0.6511868494	 0.231415
H	-0.9256888841	 4.4115423167	-1.3770299952	 0.111041
H	 1.5638635017	 3.4678365383	-1.6426295866	 0.118961
H	-0.8300692543	 1.7663714762	-2.2702259234	 0.118908
