21
gdb 81454	2.96714	1.53883	1.42604	1.3894	80.86	-0.2285	0.0869	0.3153	1037.5904	0.184735	-387.059143	-387.051694	-387.05075	-387.090441	31.266	
C	-0.0113840212	 1.5812751526	-0.0002003753	-0.42653
C	 0.0082097603	 0.0549993342	-0.0276061741	 0.010293
C	 1.1541507886	-0.5977385363	-0.8551638601	 0.126979
C	 2.0424041438	-0.5047439265	 0.4170283952	-0.252956
C	 0.6958485816	-0.6208034219	 1.2024746152	-0.051195
C	 0.4084043916	-2.1187691755	 1.2555532937	-0.057581
C	-0.796575198	-2.7608792716	 0.5990443985	-0.338177
C	 0.5509929271	-2.7771982753	-0.0894296996	 0.109589
O	 0.8246655393	-1.9455862111	-1.1922848577	-0.279122
H	 0.9628329284	 2.014556826	 0.245163954	 0.116899
H	-0.3155310622	 1.981110977	-0.9737666519	 0.117484
H	-0.7281805484	 1.9427285855	 0.745182591	 0.11771
H	-0.9902186022	-0.3020215981	-0.2898389345	 0.067581
H	 1.4839919375	-0.1307236628	-1.7855208727	 0.070025
H	 2.7874773274	-1.2886307152	 0.5703265421	 0.097015
H	 2.5162800325	 0.4739993004	 0.5031509757	 0.101445
H	 0.5913221151	-0.1350730047	 2.1758637168	 0.059161
H	 0.8381891572	-2.6280194512	 2.114017289	 0.087462
H	-1.1431965611	-3.7009737081	 1.0157945837	 0.107346
H	-1.5841253567	-2.1409692288	 0.1898404494	 0.12291
H	 1.0611320995	-3.7308881284	-0.1834932788	 0.093662
