18
gdb 16574	2.95566	2.61004	2.14205	2.3341	65.63	-0.2492	0.0793	0.3284	744.7924	0.15812	-384.958391	-384.952355	-384.95141	-384.988188	25.045	
C	-0.0365003227	 1.5392289913	-0.109990098	-0.083921
O	 1.3296472553	 1.9746138854	 0.0094590226	-0.26899
C	 2.1684941281	 0.8322640359	 0.0688599125	 0.218544
C	 1.3698313377	-0.2619260204	-0.6430289773	-0.243975
C	 0.0121709275	 0.0087365783	 0.0295296685	-0.039936
C	 0.1303585268	-0.4229398507	 1.5061617155	-0.230367
C	 1.2690912603	 0.3461295807	 2.2009514621	-0.067362
O	 2.4460701705	 0.4484958803	 1.4014656142	-0.263377
H	-0.6357874873	 2.0285924086	 0.6663096932	 0.102854
H	-0.4272586474	 1.8409145203	-1.0908629548	 0.099102
H	 3.1325363972	 1.090063411	-0.373367917	 0.08585
H	 1.3367746508	-0.0793487499	-1.7219170355	 0.100812
H	 1.7729224702	-1.258305663	-0.4543837027	 0.10624
H	-0.8340668821	-0.4769532511	-0.4618922795	 0.070595
H	-0.8045295163	-0.2391473125	 2.0484133665	 0.097347
H	 0.3215600904	-1.5014140845	 1.5457179882	 0.103142
H	 0.9254789184	 1.3553157765	 2.4656277952	 0.107022
H	 1.5755694125	-0.1532990062	 3.1237961562	 0.10642
