21
gdb 80389	2.17915	1.58539	1.35407	0.8455	78.58	-0.2455	0.0729	0.3184	1101.4186	0.180005	-424.199371	-424.189654	-424.18871	-424.232796	37.831	
C	-0.0567530486	 1.5511484738	-0.0527686124	-0.417053
C	 0.0822437077	 0.0500808359	 0.1040712728	-0.077162
C	 1.3308901871	-0.7673361503	-0.1559330158	-0.128714
C	 2.580338285	-0.0308637086	 0.3393591596	-0.300939
C	 1.9908964791	-0.0641659731	 1.79955859	 0.314875
C	 2.7552183579	-1.010908685	 2.7189471001	-0.436489
O	 1.7516028393	 1.1788120578	 2.4467471677	-0.480992
C	 0.7140874043	-0.7055789752	 1.2432485568	 0.356013
O	 0.0406192836	-1.7174643534	 1.9137859755	-0.46545
H	 0.7880736734	 2.0913063897	 0.3741701113	 0.137834
H	-0.1505655326	 1.8205737411	-1.111119765	 0.107272
H	-0.9572602133	 1.9070260383	 0.4600840681	 0.110793
H	-0.7961658159	-0.5006767818	-0.2323171939	 0.08494
H	 1.331474212	-1.5962039803	-0.8528545656	 0.088638
H	 3.5024526999	-0.6092473023	 0.2426902189	 0.096915
H	 2.7433139749	 0.9686296853	-0.0722255105	 0.096727
H	 3.7443393577	-0.5966391223	 2.9515481192	 0.098348
H	 2.2059207865	-1.157138665	 3.6527280599	 0.123453
H	 2.8992038798	-1.989095747	 2.2530945179	 0.128644
H	 2.5749909046	 1.4664828837	 2.8557854842	 0.274186
H	-0.6988403626	-1.3218606813	 2.3876695111	 0.288161
