17
gdb 32007	2.80971	1.32934	0.95628	4.4496	80.29	-0.2296	-0.0533	0.1763	1227.0086	0.136389	-421.900895	-421.89271	-421.891766	-421.934216	30.423	
C	 0.1387751658	 1.5630946406	-0.0972268408	-0.378553
C	-0.0695470167	 0.0483385524	 0.0732270908	-0.272212
C	 0.5682259937	-0.491380278	 1.3167581345	 0.413593
C	-0.0733862442	-1.0670222664	 2.3620807816	-0.263263
C	 0.7003612537	-1.5195272935	 3.4724164314	-0.034739
C	 2.0485701601	-1.3750867282	 3.4843092501	-0.269702
C	 2.7446420971	-0.7586942099	 2.3763236577	 0.420271
O	 3.923192413	-0.5636797017	 2.2527714585	-0.343819
O	 1.90760959	-0.34309071	 1.3150893184	-0.262712
H	 1.2038776361	 1.805449855	-0.1179782856	 0.147559
H	-0.3112199651	 1.9051820551	-1.0331040957	 0.121556
H	-0.3220328468	 2.1171779658	 0.7261657179	 0.124035
H	-1.1362577038	-0.1926334084	 0.0981221249	 0.114207
H	 0.3622607576	-0.4743903231	-0.7894289169	 0.130533
H	-1.1490914361	-1.1758187411	 2.341655405	 0.109596
H	 0.1968231787	-1.9845176151	 4.3146823893	 0.11891
H	 2.6680559069	-1.7053208036	 4.3079050191	 0.124739
