19
gdb 52120	3.85341	0.94789	0.89443	2.7972	76.9	-0.2401	0.03	0.2701	1350.0008	0.160274	-419.187311	-419.178691	-419.177747	-419.22187	31.704	
O	 0.121850913	 0.2219404006	-0.8611182771	-0.324256
C	 0.1290541537	 1.1835457078	-0.1214328169	 0.154639
N	 1.2127194566	 1.6465678212	 0.555601312	-0.272828
C	 2.5310221657	 1.038868127	 0.4720801551	-0.263625
C	 3.5771882732	 2.0396380356	 0.0667353605	 0.341392
C	 4.8880602224	 2.1565060203	 0.7346320653	-0.286112
N	 3.9081566993	 3.2391178803	 0.9549575651	-0.176703
C	 3.9712788677	 4.0813315487	-0.2948337458	-0.149629
C	 3.5346082531	 2.8991396066	-1.197820179	-0.303155
H	-0.771561869	 1.7970455734	 0.0804360289	 0.074898
H	 1.114333195	 2.4604559382	 1.1428351498	 0.257269
H	 2.8026803342	 0.5937086945	 1.437332679	 0.113356
H	 2.4553585864	 0.2302348683	-0.2605954326	 0.15354
H	 5.0592231992	 1.5524250395	 1.6206861295	 0.120971
H	 5.7827133124	 2.3674927184	 0.1513201671	 0.112594
H	 3.2429540974	 4.8925092793	-0.2380485271	 0.110817
H	 4.9630041353	 4.5079277044	-0.4775948625	 0.107981
H	 4.1943669588	 2.596166123	-2.0154456756	 0.107071
H	 2.5229217356	 3.0222897427	-1.5881031556	 0.12178
