19
gdb 120127	2.81005	1.00873	0.87591	3.0846	76.11	-0.2395	-0.0102	0.2293	1371.7645	0.158485	-423.008293	-422.999386	-422.998441	-423.042823	32.887	
O	-0.134337261	 1.3681105655	-0.0724089587	-0.420076
C	-0.1814518184	-0.0261571838	-0.3284433519	-0.06422
C	-1.4574693564	-0.5677487304	 0.3087504423	-0.218553
C	-1.5771086307	-2.072168758	 0.1646695255	-0.011856
C	-2.8409812791	-2.859305082	 0.1336682347	-0.088548
C	-3.9678133805	-2.1012143073	-0.5848267107	-0.364475
C	-3.0557300034	-2.0848136029	-1.8416724779	 0.414707
O	-3.251098366	-1.7881764215	-2.9864372353	-0.316368
C	-1.939791551	-2.7963375064	-1.1356257559	-0.196281
H	 0.6242599638	 1.7346841172	-0.5355801408	 0.287579
H	-0.1922930027	-0.2388074002	-1.4085308576	 0.101492
H	 0.6965871957	-0.5405862699	 0.0975446847	 0.081159
H	-1.4541145882	-0.3029254105	 1.3731573809	 0.111049
H	-2.3094738375	-0.0484681336	-0.1391655023	 0.118846
H	-0.773269415	-2.60776261	 0.6691072077	 0.099308
H	-2.9952238355	-3.7289069565	 0.7592010142	 0.103267
H	-4.8444626627	-2.7241875793	-0.7865095869	 0.132094
H	-4.2991371961	-1.1487297544	-0.1641077053	 0.124549
H	-1.2764911154	-3.533107856	-1.5723728765	 0.106327
