22
gdb 78768	2.47897	1.58334	1.27228	1.6174	86.1	-0.226	0.0865	0.3125	1134.3956	0.1932	-367.167202	-367.158173	-367.157229	-367.200079	35.539	
C	-0.0941140793	 1.594451698	 0.0473538027	-0.424715
C	 0.0960490615	 0.087534191	 0.0680105118	 0.060157
N	 1.1422366443	-0.487544103	-0.8441828159	-0.197486
C	 1.3593323229	-1.5947349647	 0.1322647656	-0.154164
C	 2.4099578367	-0.5591310957	-0.0201856509	 0.351253
C	 3.7084994339	-0.5870750426	-0.762139246	-0.497962
C	 2.1330932892	-0.0087892972	 1.3802221643	-0.338228
C	 0.7330989088	-0.6730264703	 1.2592739162	 0.284508
C	-0.0534460446	-1.0869280955	 2.4751310219	-0.513738
H	 0.8281104023	 2.1371895169	 0.2691688201	 0.119403
H	-0.4334223786	 1.9104885427	-0.9445664408	 0.126496
H	-0.8545618205	 1.8989365025	 0.775263281	 0.113851
H	-0.8465158381	-0.4022464709	-0.2076799894	 0.071999
H	 1.2999203745	-2.6473185434	-0.1162465752	 0.088448
H	 3.605527592	-1.1522514493	-1.6922990839	 0.132229
H	 4.0339142228	 0.4272960578	-1.0200685921	 0.121168
H	 4.4961008165	-1.050203206	-0.1577506679	 0.114713
H	 2.7507066587	-0.5319901882	 2.1170389738	 0.097483
H	 2.1896489068	 1.0696104513	 1.5635707796	 0.088569
H	-0.3475442059	-0.2113680243	 3.0662759699	 0.120667
H	-0.9678222345	-1.6219887225	 2.1952560665	 0.117574
H	 0.5320835807	-1.7431862967	 3.1282588886	 0.117775
