15
gdb 33306	7.92476	0.64617	0.60196	1.0977	100.1	-0.2281	-0.0529	0.1752	1747.3209	0.111459	-383.441469	-383.432932	-383.431988	-383.475518	30.528	
C	 0.1220008339	-3.7450724924	-0.0497373157	-0.578077
C	 0.0642056574	-2.5380489936	-0.0280593468	 0.264853
C	 0.0034117303	-1.1827596148	-0.003610237	-0.066056
C	-0.075370733	 0.0291004133	 0.0175973209	 0.231864
C	-0.0812393261	 1.433889088	 0.044472999	 0.139189
C	-1.1308557352	 2.2664949472	 0.032414335	-0.221111
C	-0.657352831	 3.6866846807	 0.0723212386	-0.108827
O	 0.7641965412	 3.6120424038	 0.1092859172	-0.264663
C	 1.1940084008	 2.2581222546	 0.0943490761	-0.175303
H	 0.1687101193	-4.8056165053	-0.0688906256	 0.194542
H	-2.1730972073	 1.9792797538	-0.0009985906	 0.117819
H	-0.9826048728	 4.2594218177	-0.8113376941	 0.114892
H	-1.0302951251	 4.2256779631	 0.9583460971	 0.114913
H	 1.7865381676	 2.0355082782	 0.9937486197	 0.117994
H	 1.8335884099	 2.0699150658	-0.7803576096	 0.11797
