20
gdb 391	6.53322	1.83734	1.58068	0.067	67.19	-0.303	0.0843	0.3874	855.476	0.188227	-236.916125	-236.907738	-236.906794	-236.948351	30.015	
C	 0.0934382561	 1.5570538216	 0.039466089	-0.391221
C	-0.0245282205	 0.0298707614	-0.0008086718	-0.162917
C	-1.4657205498	-0.5146024779	-0.0404637222	 0.06514
C	-2.2060631188	-0.0845244874	-1.3152919933	-0.389037
C	-1.4546608745	-2.0463010959	 0.1293538766	-0.162932
C	-2.8332738681	-2.6918608681	 0.3040269499	-0.391226
H	 1.138712569	 1.8648001521	 0.1446246573	 0.110233
H	-0.293430572	 2.024853855	-0.8708339913	 0.117151
H	-0.4611738151	 1.9738995118	 0.8880423638	 0.111491
H	 0.526557312	-0.3572443153	-0.8695802529	 0.089652
H	 0.4779536346	-0.3848992014	 0.8825907622	 0.088814
H	-2.0032768688	-0.0902521479	 0.8221018452	 0.063978
H	-1.7082088477	-0.4846969102	-2.2074431417	 0.108237
H	-3.2394926582	-0.4421646232	-1.3232600939	 0.112655
H	-2.2415031127	 1.0039390503	-1.4149791925	 0.11264
H	-0.9461574127	-2.4968551071	-0.7347919274	 0.089655
H	-0.8376456398	-2.2931503385	 1.0030056749	 0.08882
H	-2.7395865804	-3.7654079845	 0.4965888329	 0.110231
H	-3.3722487217	-2.2497917004	 1.1499160004	 0.111482
H	-3.4594701308	-2.5742676543	-0.585458565	 0.117155
