15
gdb 21163	3.27927	1.91697	1.29008	4.0992	64.05	-0.2142	0.0141	0.2283	925.3129	0.12111	-392.14398	-392.136198	-392.135254	-392.176473	28.11	
C	 0.1371998408	 1.1738699535	 0.46662597	-0.320676
N	-0.0251197531	 0.0264089665	-0.4366061191	-0.396044
C	-1.2176236715	-0.7028740613	-0.2515826759	 0.232116
C	-1.2902953649	-2.0439744304	 0.0749494996	 0.305807
N	-0.2897529733	-2.9956959641	 0.2109900108	-0.607175
N	-2.6173300258	-2.2876050928	 0.1464107928	-0.231149
N	-3.3436833638	-1.1586438942	-0.1109659677	-0.136688
N	-2.4893680358	-0.2152997076	-0.3563790042	-0.234922
H	 1.0806229017	 1.6777176422	 0.2360972959	 0.113833
H	-0.6816793815	 1.9027263182	 0.3997263519	 0.130011
H	 0.1871136596	 0.8136247723	 1.4986940394	 0.121509
H	 0.0514009856	 0.3411065712	-1.398499926	 0.234994
H	 0.6131632286	-2.5356335576	 0.1602571748	 0.2618
H	-0.3508242166	-3.5470463912	 1.0587591289	 0.251945
H	-3.09649537	-3.155417525	 0.321830939	 0.274637
