20
gdb 89754	2.45585	1.53684	1.13776	1.2483	79.49	-0.2391	0.0699	0.309	1134.3003	0.170969	-403.091166	-403.082611	-403.081667	-403.12417	33.589	
O	 0.6267431949	 0.6012616318	-0.8506845683	-0.433496
C	 0.0647367071	-0.3178291094	 0.0505055254	 0.076766
C	 0.0486056156	-0.0097922637	 1.5834728474	-0.379475
C	-1.3872941773	-0.5548458246	 1.6299449895	 0.326302
C	-1.8713072747	-1.7234028813	 2.4399677466	-0.312872
C	-2.4708516236	-0.3499051982	 2.6418446022	-0.338429
C	-1.4649409397	-0.476460471	 0.1199521707	 0.245336
C	-2.4296018167	 0.2458258338	-0.7415533722	-0.315157
N	-2.361329746	-1.2319220356	-0.7375224974	-0.377358
H	 0.2255653196	 1.460663434	-0.6799849294	 0.278491
H	 0.5562142538	-1.2740021125	-0.156471543	 0.098893
H	 0.8027333067	-0.5093381455	 2.1958762211	 0.106843
H	 0.0980984585	 1.069524241	 1.7685634023	 0.094868
H	-2.4708942604	-2.465112808	 1.9228762445	 0.128667
H	-1.2190254497	-2.1166096597	 3.2132574081	 0.108478
H	-2.2250816992	 0.189784548	 3.5509678494	 0.11044
H	-3.4800863872	-0.1795356375	 2.2795445483	 0.116009
H	-3.3393342357	 0.6638237736	-0.3187910658	 0.118084
H	-2.0343645067	 0.7784459804	-1.6038144359	 0.112932
H	-1.8677963592	-1.5616423556	-1.5646149236	 0.234679
