20
gdb 119690	4.81805	0.98449	0.92533	0.8061	79.85	-0.2347	0.087	0.3217	1339.6433	0.171176	-403.066414	-403.058103	-403.057159	-403.099858	31.334	
C	 0.6085387135	 1.4435285282	-0.1112942423	-0.2185
O	 0.8374484489	 0.0554157411	-0.1032694727	-0.239063
C	 0.0165308126	-0.6385564484	-1.0218870315	-0.189843
C	 0.2941349891	-2.099949054	-0.8963327858	 0.353118
C	 0.2793507662	-2.9624498374	 0.3649115711	-0.289131
C	 0.8977510757	-4.0732710293	-0.5269227603	-0.087834
C	-0.2287061824	-4.3346175456	-1.5389526446	-0.145555
N	-0.0365045444	-2.9538611138	-2.0965765813	-0.197513
C	 1.3439870143	-2.9363158822	-1.5263822269	-0.090636
H	 0.8194855086	 1.8878157965	-1.0971631259	 0.104187
H	-0.4316169002	 1.6889410799	 0.1571693584	 0.103332
H	 1.2784554083	 1.8903278628	 0.627447968	 0.125989
H	-1.0487859684	-0.4354623173	-0.8123602633	 0.088931
H	 0.2102554019	-0.3131329024	-2.0563258518	 0.100297
H	 0.9911211011	-2.5684348422	 1.0929834154	 0.119647
H	-0.6780961043	-3.1787735805	 0.8530361022	 0.088943
H	 1.5093057388	-4.8657045157	-0.1002454659	 0.074044
H	 0.0365100801	-5.0543698356	-2.317600374	 0.108299
H	-1.2329479028	-4.5531456783	-1.155671866	 0.094402
H	 2.2385698834	-2.7094045058	-2.0912038928	 0.096884
