18
gdb 33747	2.37913	1.6852	1.27387	1.141	83.82	-0.2411	0.0334	0.2745	1049.7347	0.147852	-364.696612	-364.688842	-364.687898	-364.728606	31.272	
C	-0.0069626162	-1.1371925672	-0.0756750903	-0.370745
C	 0.0130843019	 0.0649321016	-0.0172673732	 0.051969
C	 0.0033848455	 1.4966118809	 0.0162216153	 0.168323
C	-0.6625518112	 2.4446744039	 1.0795209575	-0.259942
C	-0.0453478092	 3.4049108192	 0.0164637698	-0.151678
C	 1.2171989688	 2.4895611286	 0.0300966122	-0.255827
C	-0.6112914141	 2.4469770518	-1.0438665963	 0.420043
C	-0.6703658122	 2.3845711331	-2.5065196741	-0.355251
N	-1.9099153443	 2.4335433892	-1.6651366635	-0.408726
H	-0.0146020906	-2.1982479062	-0.1172153897	 0.181911
H	-1.7516991922	 2.4116884065	 1.1403131996	 0.111737
H	-0.1942721173	 2.4456805756	 2.0667435684	 0.097918
H	-0.0739510133	 4.4925555803	 0.0136812659	 0.087299
H	 1.8058269742	 2.4949543721	 0.9501411432	 0.099985
H	 1.8475240533	 2.4934534231	-0.861584296	 0.103772
H	-0.5053090276	 3.2694707458	-3.1150221177	 0.122097
H	-0.4185295464	 1.4436267143	-2.989925231	 0.121028
H	-2.324915689	 1.5049701374	-1.6117475802	 0.236088
