20
gdb 15655	3.37644	1.56841	1.21502	1.3535	76.18	-0.2443	0.0187	0.263	1060.9314	0.177397	-349.018568	-349.010231	-349.009287	-349.051282	31.769	
C	 0.0162283981	 1.5698328576	-0.0992912675	-0.39034
C	 0.0129240625	 0.0383835021	-0.0601028652	-0.169503
C	 0.62963443	-0.5396821455	 1.2215237979	-0.038547
C	-0.1638472759	-0.3422065812	 2.4998335189	-0.071617
C	-0.0803423149	-1.4017603572	 3.3058965423	-0.088854
C	 0.7851596908	-2.4859116939	 2.7038196723	-0.280933
C	 0.8322256337	-2.0859195157	 1.2085545986	 0.102556
O	-0.1769778861	-2.7588135223	 0.4665922523	-0.429392
H	 1.0350313268	 1.966312021	-0.0220306245	 0.113275
H	-0.4136982755	 1.939879337	-1.0353178215	 0.112875
H	-0.566826769	 2.00080258	 0.7217229846	 0.114368
H	-1.0106171457	-0.3340474486	-0.1768782207	 0.090013
H	 0.5698397606	-0.3493983893	-0.9213602256	 0.101453
H	 1.620352554	-0.073241681	 1.3520295887	 0.07736
H	-0.6998206795	 0.5729766245	 2.7264462136	 0.092371
H	-0.5338611415	-1.4824993494	 4.2877028776	 0.091757
H	 1.7883324194	-2.4799317632	 3.1534818151	 0.107068
H	 0.3899563216	-3.5005164481	 2.8217239517	 0.106837
H	 1.7702375619	-2.3690653059	 0.7238333301	 0.079982
H	-1.0197981913	-2.5710574108	 0.8961491215	 0.279271
