19
gdb 68378	2.7928	1.51936	1.18052	1.9584	74.48	-0.2407	-0.0199	0.2208	1070.3426	0.159732	-423.050143	-423.042297	-423.041353	-423.082521	31.59	
O	-0.1020252346	 1.4277748443	-0.0692825054	-0.485834
C	 0.0139230797	 0.0348577829	 0.0700913036	 0.41717
C	 0.1182968493	-0.5957226429	 1.4921991219	-0.289506
C	-0.7360365435	-1.7617975741	 0.9158208824	-0.032779
C	-1.3112608238	-0.7386894938	-0.1060055974	-0.26073
C	 0.1617344765	-2.7744949118	 0.2031124306	-0.311662
C	 1.1738966905	-2.0984129323	-0.7305737226	 0.3902
O	 1.994314475	-2.7293481026	-1.3505845743	-0.313426
C	 1.0898414206	-0.5677196298	-0.8373418907	-0.382758
H	 0.7775177468	 1.8170777682	-0.010281927	 0.275323
H	 1.1110505376	-0.8260184702	 1.8934302769	 0.088993
H	-0.4437647231	 0.0010187839	 2.2139957399	 0.108844
H	-1.4408126374	-2.2511906954	 1.5891986044	 0.074961
H	-2.1410828123	-0.1671196221	 0.3154389245	 0.112836
H	-1.5767716814	-1.0893091767	-1.1083026469	 0.094741
H	 0.7303743663	-3.3852605537	 0.9147364716	 0.129745
H	-0.424554216	-3.477036208	-0.402155896	 0.130683
H	 0.896210644	-0.3083018477	-1.8852319289	 0.135733
H	 2.083566646	-0.1679200481	-0.5926052965	 0.117467
