21
gdb 114774	3.39485	1.28453	1.22241	1.6373	80.42	-0.2217	0.0864	0.3081	1139.3993	0.184148	-387.061477	-387.05369	-387.052746	-387.093749	31.277	
C	-0.1692489424	 1.616243533	-0.0089561786	-0.385429
C	-0.0337652312	 0.0908912084	 0.0100314184	-0.175999
C	 0.7626766965	-0.475777186	-1.1772422669	 0.018422
C	 2.2988174513	-0.1853325332	-1.1215119816	-0.230419
C	 2.9073994406	-1.5450115755	-0.8036859012	 0.09148
O	 2.3627789236	-1.9846841462	 0.4904858882	-0.308744
C	 1.4297548128	-2.8070064388	-0.2128914768	 0.100116
C	 2.0613898607	-2.601226968	-1.5515051505	-0.169185
C	 0.6956445575	-2.0051432678	-1.2726839326	-0.099835
H	 0.807107867	 2.1112612827	 0.0291555392	 0.114937
H	-0.6754390598	 1.9582434341	-0.9192530193	 0.10889
H	-0.7506771116	 1.9719983298	 0.8474787165	 0.110931
H	 0.4469939719	-0.2362098973	 0.9381127467	 0.116376
H	-1.036452635	-0.356236226	 0.0034198087	 0.086133
H	 0.3455952902	-0.0539225477	-2.1003166111	 0.064546
H	 2.6754453079	 0.1806018379	-2.0836603143	 0.094723
H	 2.5607826081	 0.5511545525	-0.3562127909	 0.107488
H	 3.9961718545	-1.6190545662	-0.8205006883	 0.076885
H	 1.0415981933	-3.6832992828	 0.2932486009	 0.100368
H	 2.350572934	-3.2731601075	-2.3470776703	 0.094549
H	-0.1776010299	-2.4781084153	-1.7104546961	 0.083768
