21
gdb 87278	2.64849	1.24618	0.99159	2.6855	83.58	-0.244	-0.021	0.223	1279.9275	0.181038	-387.080344	-387.070911	-387.069967	-387.114766	35.406	
C	-0.0090862003	 1.335718128	-0.2223038584	-0.42458
C	 0.2674113665	-0.1270617158	 0.038069912	-0.017464
C	 1.6512832245	-0.6805350329	 0.0822231972	-0.332524
C	 0.8397631532	-0.6662105807	 1.3694840985	 0.221389
C	 1.2594851989	 0.333050715	 2.3922409939	 0.101454
O	 1.9357518936	 1.315325349	 2.1882966932	-0.276202
C	 0.243538965	-1.9148506896	 1.959298976	-0.087281
C	 0.2190422862	-3.2397606079	 1.2429249339	-0.283892
C	 1.1172557076	-3.0526125414	 2.4386094664	-0.263798
H	 0.748308706	 1.9726916755	 0.237228767	 0.154951
H	-0.0100567381	 1.5276199168	-1.3010955242	 0.117644
H	-0.9894511462	 1.630342939	 0.1676014078	 0.114733
H	-0.481697415	-0.8047516815	-0.3651128322	 0.095916
H	 1.8596751279	-1.637952504	-0.3819832928	 0.116201
H	 2.4708969004	 0.0304009281	 0.0602881978	 0.136528
H	 0.8886102715	 0.1093213159	 3.4181643592	 0.071688
H	-0.6320525121	-1.7165054078	 2.5745051257	 0.090289
H	-0.6674899182	-3.8539480016	 1.3550360673	 0.115561
H	 0.6834872971	-3.3189351353	 0.2663099708	 0.116224
H	 2.1831103551	-2.9728888696	 2.2529553145	 0.118323
H	 0.8599395263	-3.5504774291	 3.3666651662	 0.11484
