18
gdb 66291	1.97529	1.71743	1.37297	2.8111	72.22	-0.248	-0.0359	0.2121	1046.8265	0.147605	-439.148771	-439.139841	-439.138896	-439.182628	32.483	
C	 0.0742916305	 1.683168944	 0.1589016068	-0.449651
C	 0.0709785035	 0.1532612343	 0.0448447619	 0.059582
C	 0.7047708457	-0.4367483436	-1.2243530019	-0.25745
C	 1.3806269299	-1.7459186889	-0.7573410437	-0.176174
N	 1.6217444319	-1.4948193522	 0.6562506167	-0.310521
C	 0.9011884398	-0.474338661	 1.1972952564	 0.390353
O	 0.883112082	-0.1238950676	 2.3573925613	-0.387219
C	-1.354691675	-0.3564735357	 0.2537010559	 0.146537
O	-1.9241222211	-1.1203331646	-0.482867647	-0.257984
H	 1.0889819198	 2.0706742285	 0.0313369484	 0.12998
H	-0.5664735657	 2.13965527	-0.6018649709	 0.123271
H	-0.276406262	 1.9864610983	 1.148831615	 0.147751
H	-0.037618644	-0.6239168674	-2.0010836134	 0.130809
H	 1.4575110251	 0.2539054462	-1.6140504209	 0.108451
H	 0.72003872	-2.6093379619	-0.9027317289	 0.127794
H	 2.3175256238	-1.9405684407	-1.2878352475	 0.115593
H	 2.1395722003	-2.1194354873	 1.2542684272	 0.255786
H	-1.8413304546	 0.0372873098	 1.1716211047	 0.103091
