15
gdb 129958	3.1933	1.38133	0.99751	2.79	71.75	-0.2019	-0.0112	0.1907	1120.3295	0.115084	-450.115233	-450.107485	-450.106541	-450.147641	29.459	
N	 0.744543009	 0.6816698256	-1.0877288972	-0.619788
C	 0.2258066516	-0.3604320417	-0.3282096526	 0.064617
C	-1.0676491579	-0.7354746388	-0.1123785365	 0.009845
O	-1.1398832459	-1.7312276369	 0.8000385467	-0.17109
N	 0.1342054708	-2.061347124	 1.1981480071	-0.227479
C	 0.9392121298	-1.2541504116	 0.5388723392	 0.446807
N	 2.3020369586	-1.3456319676	 0.8377755457	-0.38332
C	 3.3751527124	-1.1267794738	 0.0179037413	 0.095702
N	 3.2966900976	-0.6689563961	-1.1712807505	-0.465149
H	 1.664496987	 0.4347224448	-1.4566343384	 0.268015
H	 0.115905615	 0.9855995128	-1.8190950771	 0.237486
H	-2.0078761921	-0.3832096188	-0.5051621552	 0.136953
H	 2.4838794815	-1.8730257192	 1.6784571946	 0.268451
H	 4.3123859878	-1.3858426419	 0.5217365022	 0.10704
H	 4.2225289848	-0.560823923	-1.5746147993	 0.23191
