21
gdb 88780	3.56141	1.03065	0.88068	1.4873	83.79	-0.2302	0.0344	0.2646	1361.1336	0.183218	-387.082093	-387.073384	-387.07244	-387.116023	33.522	
O	-0.0481016612	 1.5044953289	 0.3487922345	-0.418119
C	 0.0114379118	 0.1218186162	 0.1363930949	 0.092112
C	-0.5613723993	-0.8173645287	 1.1691886382	-0.345992
C	-1.2876638058	-0.5773302456	-0.1433195633	-0.025597
C	-2.5901605578	 0.1874439989	-0.1735698334	 0.038761
C	-2.9061071994	 0.855149994	-1.5422784522	-0.27004
C	-4.4122960957	 0.7867729587	-1.6198617654	-0.063096
C	-4.9222326912	-0.0363621433	-0.704998475	-0.061976
C	-3.8483019222	-0.6680506224	 0.1488102668	-0.273548
H	 0.5752530576	 1.7242627966	 1.0485991799	 0.287462
H	 0.8902381574	-0.2117557451	-0.4157923671	 0.082473
H	-0.0743170583	-1.7707980381	 1.3435901042	 0.107245
H	-0.9920458864	-0.3580972344	 2.0535964842	 0.111286
H	-1.2297234177	-1.3852879676	-0.8700684248	 0.081189
H	-2.5319125312	 0.9894697307	 0.5679413425	 0.082752
H	-2.5061531964	 1.8729450487	-1.599273898	 0.112131
H	-2.4503020537	 0.2996594606	-2.376258664	 0.095972
H	-4.9858296674	 1.3240297615	-2.3677323065	 0.086134
H	-5.9746272516	-0.2743035954	-0.5926029081	 0.085557
H	-3.7024320634	-1.7227245681	-0.1308082487	 0.097467
H	-4.0865037481	-0.6680109461	 1.2186375611	 0.097825
