18
gdb 77951	3.35206	1.35534	1.10768	3.7745	72.45	-0.2412	0.0612	0.3024	1101.0529	0.148414	-438.988803	-438.98115	-438.980206	-439.020426	31.26	
O	-0.0386232961	 1.4553876641	-0.1401965559	-0.45661
C	-0.007728942	 0.0411740277	-0.0304791514	 0.149278
C	-0.0215629773	-0.6332692989	 1.3847634255	-0.283434
C	-1.5209639413	-0.150666349	 1.5260952093	 0.192233
O	-1.8399469103	 1.16492331	 1.8325775367	-0.456311
C	-1.3939332728	-0.6548652395	 0.0368212819	-0.229607
C	-0.6176491256	-1.8349253968	 0.6416397393	 0.463484
C	-0.0506991673	-3.0811551468	 0.1122614684	-0.35754
N	-1.1500813102	-3.0891928706	 1.1250497472	-0.401559
H	 0.8503149562	 1.7893572921	 0.0189249706	 0.292253
H	 0.7046911047	-0.3827741611	-0.7482216839	 0.079382
H	 0.7704172788	-0.6344559446	 2.1361446785	 0.070355
H	-2.1398691441	-0.7897000409	 2.1592984415	 0.095443
H	-1.3272891781	 1.7236631786	 1.2312455485	 0.287139
H	-2.1587634761	-0.6835463199	-0.7382420938	 0.084934
H	-0.340567883	-3.4548929839	-0.8660476555	 0.124253
H	 0.9452974837	-3.3782292141	 0.4321086308	 0.113519
H	-0.7711366795	-3.3131744065	 2.0426942622	 0.232787
