20
gdb 105672	1.84756	1.4618	1.20858	0.5363	75.63	-0.2275	-0.0325	0.195	1187.4873	0.168649	-440.265689	-440.255659	-440.254714	-440.301647	35.946	
C	 0.1382315658	 1.6011843202	 0.3030103972	-0.399508
C	-0.2318406956	 0.1515050596	-0.0260296734	-0.224736
C	 0.6227720912	-0.4604113254	-1.1449909889	 0.204228
N	 2.0823277501	-0.4819942679	-0.8443445621	-0.363027
C	 2.1680233268	-1.9352215516	-1.147994995	-0.172636
C	 0.6320732773	-2.028300697	-1.2507884362	 0.047953
O	 0.0860011382	-2.7441229196	-0.1699030641	-0.423416
C	 0.314894856	 0.1935024956	-2.4791594973	 0.106503
O	-0.4753103241	-0.2284258625	-3.2854381814	-0.256033
H	 1.2052029706	 1.673947197	 0.5342940181	 0.133912
H	-0.0808120195	 2.2845953924	-0.5245351227	 0.112766
H	-0.4208362663	 1.9534196144	 1.1746320073	 0.118615
H	-0.0908115863	-0.4804804056	 0.855708953	 0.121417
H	-1.2898137708	 0.0790455826	-0.3105919374	 0.097749
H	 2.6495552021	 0.1143623964	-1.4398108987	 0.213534
H	 2.6915148051	-2.1899622336	-2.0767564043	 0.102699
H	 2.5887710788	-2.5218625631	-0.3258971396	 0.119145
H	 0.2404883618	-2.3870098979	-2.2073352946	 0.09374
H	-0.8621308973	-2.8297101328	-0.3114823698	 0.290058
H	 0.9004132163	 1.1223022688	-2.6852188599	 0.077035
