20
gdb 90199	3.01517	1.68044	1.52435	2.0505	83.67	-0.2006	0.0493	0.2498	980.2505	0.171112	-365.839685	-365.832244	-365.8313	-365.870955	30.864	
C	-0.2373607856	 1.5116480209	 0.016532271	-0.406488
C	 0.0171983703	 0.0087969971	 0.0057526853	-0.080258
C	 1.1769615511	-0.5207612211	-0.9624143599	-0.349071
C	 2.0567042013	-0.7635073802	 0.3036201815	 0.183039
C	 2.7429932432	 0.302108966	 1.154995996	-0.213763
N	 1.9656726347	-0.4350110109	 2.2450529915	-0.211942
C	 2.2460407064	-1.7849587648	 1.4953062928	-0.04463
C	 0.7727836281	-2.1784018724	 1.5135115695	-0.293566
C	 0.8107248719	-0.6857904369	 1.1687771235	 0.263279
H	 0.6820166635	 2.0942913111	 0.110952098	 0.125098
H	-0.7244728803	 1.8164354304	-0.9163729418	 0.118035
H	-0.8967162062	 1.7885161709	 0.8452533365	 0.127179
H	-0.9366052809	-0.5061086799	-0.1517217767	 0.086379
H	 0.8925169488	-1.4283809794	-1.5004739112	 0.113234
H	 1.5716621643	 0.2018812126	-1.6830023752	 0.107448
H	 3.8296315762	 0.2330104966	 1.2825367884	 0.093982
H	 2.4491329787	 1.3496851492	 1.0472769374	 0.101543
H	 3.1334311216	-2.3590439391	 1.7830766104	 0.077439
H	 0.436688093	-2.8564192399	 0.7241674831	 0.097478
H	 0.3540720397	-2.4528996801	 2.4856052301	 0.105585
