21
gdb 39958	4.60666	1.03036	1.00094	1.4171	83.42	-0.2215	0.0755	0.297	1293.7073	0.182236	-387.052956	-387.044674	-387.04373	-387.086172	32.858	
C	 0.4750750522	 1.5533686103	 0.0561322021	-0.334133
C	 1.4156136761	 0.3777919233	-0.1927176574	-0.334134
C	-0.0365297571	 0.1522818895	 0.0627221902	 0.449553
C	-0.7383292421	-0.6406430138	 1.1560780089	-0.434296
C	-1.6477954083	-1.1239635222	 0.0020154551	 0.460874
C	-1.8448625599	-2.6316740621	-0.266190762	-0.284997
C	-3.2827538672	-2.4969625894	 0.3089300678	-0.215351
C	-3.1808865426	-0.9617277402	 0.0873016434	-0.284996
O	-0.913570157	-0.3339773975	-0.9549821903	-0.333182
H	 0.5460510146	 2.0875503857	 0.9984421827	 0.111591
H	 0.2139482541	 2.1693489918	-0.7978070156	 0.123351
H	 1.7662083983	 0.2291838664	-1.2085081628	 0.123351
H	 2.129398758	 0.108528032	 0.5795152762	 0.111591
H	-0.1371046434	-1.419139315	 1.6317074513	 0.109137
H	-1.2376073383	-0.0435995805	 1.9228968573	 0.109137
H	-1.8554236729	-2.8191656915	-1.3438230723	 0.113548
H	-1.1508881958	-3.3293941481	 0.2098643822	 0.094561
H	-4.0816869598	-3.0254894177	-0.2138032463	 0.102297
H	-3.3286311203	-2.7581529617	 1.3694364768	 0.103989
H	-3.5810861519	-0.2917990574	 0.8528590023	 0.094561
H	-3.5781117766	-0.6659136819	-0.8880250795	 0.113548
