17
gdb 31163	2.0389	1.7949	1.00911	0.5571	71.69	-0.166	0.0664	0.2324	1151.9208	0.135523	-455.149165	-455.139524	-455.13858	-455.18327	35.024	
C	-0.12330015	 1.4511283898	 0.1312672154	-0.25539
O	 0.1496451158	 0.0627238425	-0.0663242498	-0.299486
C	 0.6978721858	-0.554776564	 1.0341111672	 0.113241
C	 2.0079712142	-0.9615900867	 1.1265927899	 0.315042
O	 3.0310847777	-0.8731357887	 0.241762101	-0.443555
N	 2.192069233	-1.5571364353	 2.3332375528	-0.314521
C	 0.9818715261	-1.567434281	 3.0316502057	-0.189561
C	 0.0423097994	-0.9425653367	 2.2473140038	 0.168142
N	-1.2992560931	-0.6272120531	 2.5453616332	-0.61636
H	 0.7982209041	 2.0088296603	 0.3436050506	 0.110265
H	-0.567826893	 1.8208488749	-0.7963939796	 0.118786
H	-0.8237956527	 1.60120956	 0.9607595537	 0.135405
H	 2.6573275986	-0.5085138625	-0.5695646836	 0.307867
H	 3.0360568864	-2.0244890008	 2.6100549793	 0.263779
H	 0.9179661797	-1.9809850915	 4.023541478	 0.104059
H	-1.658955124	-1.1815474423	 3.312717112	 0.237792
H	-1.8939053982	-0.7743835249	 1.7371451903	 0.244495
