15
gdb 26071	3.3129	1.1204	1.04354	5.6096	71.45	-0.2435	0.0101	0.2536	1169.2452	0.115625	-413.028768	-413.020733	-413.019789	-413.0621	29.28	
N	-0.2216672878	 1.3908907332	 0.1152493923	-0.504702
C	 0.0114168115	-0.0485298076	-0.0267005812	-0.234902
C	 0.7947953755	-0.3948638861	-1.2407780418	 0.258749
N	 1.3780630612	-0.6297738916	-2.2112949576	-0.334076
C	 0.6984511107	-0.5714657078	 1.2047981389	 0.343666
C	 0.3700883049	-1.6429599844	 1.9908081022	-0.195719
N	 1.3268776941	-1.6684721231	 2.9801090766	-0.234708
C	 2.1744772485	-0.6263357548	 2.7526750246	 0.02191
N	 1.8247384799	 0.0543322868	 1.6875422586	-0.304423
H	 0.6569985877	 1.824718131	 0.3865598262	 0.25675
H	-0.4944289737	 1.7897690644	-0.7781181327	 0.240271
H	-0.9573339269	-0.5528093682	-0.126405703	 0.128783
H	-0.4266422174	-2.3660385285	 1.9431164303	 0.142731
H	 1.3844563988	-2.3339042321	 3.7328099467	 0.274592
H	 3.0187419531	-0.4169643012	 3.3919580899	 0.141078
