16
gdb 54892	2.83811	1.57306	1.0248	5.1309	73.83	-0.2209	-0.0049	0.2161	1104.3757	0.126191	-434.125981	-434.118037	-434.117093	-434.158623	30.312	
N	-0.0531718332	 1.3936720117	 0.0037914643	-0.565539
C	 0.0640460531	 0.0178947367	-0.1087905239	 0.460231
O	 1.139728738	-0.5352664816	-0.2453055497	-0.382164
N	-1.1427414768	-0.6724855257	-0.0998593141	-0.180601
C	-2.4406810708	-0.1125448526	-0.1467755866	-0.006151
C	-3.3887705839	-1.0417348076	-0.0371921731	-0.164405
C	-2.7486449569	-2.3957744088	 0.1048206124	-0.342936
C	-1.2542238988	-2.1022128912	 0.0081250793	 0.386604
N	-0.3395238325	-2.9698843988	 0.0268769307	-0.529421
H	 0.8461446588	 1.8347631113	 0.1292018869	 0.268092
H	-0.7804669427	 1.7660720304	 0.5948785775	 0.258817
H	-2.5508182492	 0.9483995911	-0.3119762142	 0.135296
H	-4.4516274606	-0.8568190742	-0.0703063755	 0.114946
H	-2.9750739757	-2.883491192	 1.0604851947	 0.145352
H	-3.0464850425	-3.0996103934	-0.679946206	 0.147838
H	 0.5746140937	-2.5248900952	-0.0664380529	 0.254044
