21
gdb 94936	2.3352	1.48615	1.23453	2.3013	77.94	-0.2394	0.0704	0.3098	1126.7684	0.182038	-424.218975	-424.209709	-424.208765	-424.252535	35.811	
C	 0.0259709205	 1.6591070504	-0.165943261	-0.456655
C	 0.070424969	 0.1572382186	-0.0069753648	 0.40801
O	-1.1780251818	-0.4432497966	-0.2905141532	-0.471104
C	 1.2517282374	-0.7316711113	-0.3353898727	-0.121684
C	 2.6676445106	-0.1671584263	-0.4124136598	-0.233757
C	 2.9186118799	 0.560114202	 0.9313523736	-0.271571
C	 1.8436940744	 0.0465040687	 1.9319739359	 0.114624
O	 1.2974232633	 1.073601993	 2.7542744185	-0.436603
C	 0.754430463	-0.599763895	 1.0987430338	-0.089824
H	 0.9718059089	 2.1472437425	 0.0635764353	 0.123912
H	-0.2403755334	 1.9170791514	-1.1996504304	 0.096065
H	-0.7384462464	 2.0765596637	 0.495190756	 0.135532
H	-1.3650463261	-0.2935415111	-1.224206516	 0.275334
H	 1.0214103668	-1.623636023	-0.9085076697	 0.080353
H	 3.3678427597	-1.001036651	-0.532683461	 0.102828
H	 2.8225154093	 0.4952264566	-1.2717684686	 0.098466
H	 3.9329184176	 0.3865223107	 1.3033894657	 0.09345
H	 2.8037807082	 1.6424375757	 0.8321444691	 0.112112
H	 2.2812834708	-0.7382041165	 2.5685833267	 0.066576
H	 1.9960219287	 1.3912135178	 3.3352917452	 0.279692
H	 0.1610684095	-1.3817676903	 1.5576697974	 0.094244
