22
gdb 22048	2.66295	0.99574	0.92514	0.9196	81.46	-0.241	0.0119	0.2529	1398.0046	0.190325	-441.447755	-441.436541	-441.435597	-441.483691	41.35	
C	-0.0699764756	 1.5134757036	 0.0448810101	-0.474189
C	 0.0241028841	 0.007582434	 0.0150915902	 0.339987
N	 0.1463769172	-0.685723001	 1.0829689343	-0.176212
O	 0.1719816339	 0.124604724	 2.231281313	-0.40547
C	-0.0141580023	-0.7536665988	-1.3058808015	 0.152886
C	 0.0278270325	-2.2746441113	-1.0810596192	-0.423151
C	-1.2957247194	-0.3948897095	-2.089422116	-0.416201
C	 1.2346360896	-0.3282648177	-2.1309264968	-0.083502
O	 1.2909515329	-0.9158662071	-3.4199397214	-0.422719
H	 0.7798518363	 1.9306877364	 0.5936175014	 0.14662
H	-0.0997728502	 1.9519504042	-0.9521817362	 0.121841
H	-0.9681130531	 1.8230413464	 0.5896699775	 0.146336
H	 0.2658334973	-0.527350413	 2.9335995003	 0.303973
H	-0.8122378473	-2.6036957388	-0.4658229899	 0.126972
H	-0.0378759502	-2.7953570201	-2.0422352269	 0.096202
H	 0.944057447	-2.5823584961	-0.5699718513	 0.118553
H	-1.4049773811	 0.6837282084	-2.2340983887	 0.112174
H	-1.2563324618	-0.8564737914	-3.0791311537	 0.130975
H	-2.1853070108	-0.7586852425	-1.5663388366	 0.115284
H	 1.2205755638	 0.7514740591	-2.3071078363	 0.107549
H	 2.1404185382	-0.5563353401	-1.5489348656	 0.094744
H	 1.5035855488	-1.8476961991	-3.312973567	 0.287348
