23
gdb 75380	2.52888	1.59485	1.15862	0.2254	90.36	-0.2238	0.0362	0.26	1166.4601	0.20892	-351.198338	-351.190073	-351.189128	-351.231238	33.007	
C	 0.3617103504	 1.3890727306	-0.0258365524	-0.494107
C	 0.0869422484	-0.0834745046	-0.0405074565	 0.338422
C	-0.0457968061	-0.857962891	-1.1184437682	-0.170735
C	-0.3500276993	-2.2943043085	-0.7897377812	-0.268201
C	-0.4060675396	-2.334266888	 0.7671882476	-0.003065
C	 0.6842199284	-3.213903794	 1.4216057901	-0.211335
C	 1.868341843	-2.2598205544	 1.6457208092	-0.195093
C	 1.1823082123	-0.9702361016	 2.1212420206	-0.21341
C	-0.0972467138	-0.8679629929	 1.2444560433	-0.098482
H	 1.2835237153	 1.6259184018	 0.5199727575	 0.124436
H	 0.4589594656	 1.7901140322	-1.0384991609	 0.12026
H	-0.4450346468	 1.9356503316	 0.4802496283	 0.121154
H	 0.0441052197	-0.5036891481	-2.1413040941	 0.077953
H	-1.2961993168	-2.6211172718	-1.2409876701	 0.097862
H	 0.4173375474	-2.9739024125	-1.1866673727	 0.096606
H	-1.3993582258	-2.6549399922	 1.0893739709	 0.064419
H	 0.3311302106	-3.5866766176	 2.3910650957	 0.089731
H	 0.9384554782	-4.0884580086	 0.8146598517	 0.089452
H	 2.6046451222	-2.6442683423	 2.3575855493	 0.089311
H	 2.3910416335	-2.0788519544	 0.6987341651	 0.101595
H	 0.9014694671	-1.0698983416	 3.1765575769	 0.090759
H	 1.8220177756	-0.0861842745	 2.0433147856	 0.089986
H	-0.9175470295	-0.4363471178	 1.8316865246	 0.06248
