20
gdb 121871	2.40767	1.14336	0.90419	5.7567	73.34	-0.2366	0.012	0.2485	1357.866	0.168564	-477.446194	-477.435561	-477.434617	-477.482583	37.725	
C	 0.034907147	 1.7986116275	-0.4361186152	-0.394133
C	-0.0951726793	 0.3914119356	 0.1540820163	 0.029085
O	-1.430775292	 0.2248287512	 0.5350202686	-0.247218
C	-1.7206804162	-0.8770521826	 1.3960033803	-0.098177
C	-3.01877603	-1.5152239522	 0.9232155153	-0.036897
O	-2.8717630617	-2.2120915583	-0.2876736598	-0.435174
C	 0.3085232075	-0.6574783864	-0.9082688685	 0.380259
N	 1.6476582238	-0.8376909948	-1.0547417655	-0.513309
O	-0.5080268135	-1.2492782734	-1.5913282577	-0.354281
H	 1.0584565845	 1.9998358518	-0.7634522635	 0.113506
H	-0.6342496744	 1.8975022866	-1.2948920885	 0.147624
H	-0.2505172982	 2.538308418	 0.3154095047	 0.132684
H	 0.5793454175	 0.2925996726	 1.0220490856	 0.069636
H	-0.9171671228	-1.6248903149	 1.3626881425	 0.100128
H	-1.8150025818	-0.5132635178	 2.4302451414	 0.090835
H	-3.3599872185	-2.2327014681	 1.6805083543	 0.092006
H	-3.7818634617	-0.7205799565	 0.8565091084	 0.08612
H	-2.2728142786	-1.7018046796	-0.8571963068	 0.304343
H	 2.3205976423	-0.3874871245	-0.4596508936	 0.264145
H	 1.974511666	-1.4850098143	-1.7536931581	 0.268816
