16
gdb 130299	3.19773	1.5623	1.07142	3.2835	71.7	-0.2042	0.0097	0.2139	1073.956	0.127828	-434.044804	-434.037463	-434.036519	-434.076545	28.462	
N	 0.0037318469	 1.4023320978	-0.1534492269	-0.596027
C	 0.046070776	 0.0237642772	-0.0289780516	 0.292338
N	-1.063971021	-0.6984134759	 0.0143098237	-0.24251
O	-0.6553750596	-2.056864719	 0.0611781454	-0.24101
C	 0.6775323992	-2.0642719344	 0.0445104758	 0.390185
C	 1.190897371	-0.8204596384	-0.012479168	 0.111699
N	 2.6079211875	-0.7696898088	 0.0252598882	-0.429165
C	 2.9863769203	-2.2014064725	 0.2848829018	-0.165484
C	 1.7307324149	-3.1231156007	 0.0413510796	-0.365201
H	 0.7288472323	 1.8745276907	 0.3695684842	 0.258106
H	-0.9111865994	 1.7833349048	 0.0506867616	 0.25972
H	 2.9905129494	-0.4555839136	-0.8623613615	 0.232611
H	 3.8428126721	-2.4854096631	-0.3301561327	 0.113331
H	 3.2868935947	-2.2834643359	 1.3339816696	 0.126579
H	 1.6285485328	-3.8672864959	 0.8356057075	 0.130642
H	 1.767141953	-3.6636684924	-0.9135312765	 0.124187
