15
gdb 54657	4.29611	1.02428	0.83128	16.6178	72.41	-0.1648	-0.0704	0.0944	1286.911	0.112082	-453.953074	-453.944564	-453.94362	-453.986772	31.147	
O	 0.0582852505	-0.0731017342	 0.0049939626	-0.468584
C	 0.098962299	 1.1642885645	 0.0072430797	 0.296631
O	 1.019561312	 2.0038026705	 0.0025519264	-0.490346
C	-1.2934635846	 1.8411030131	 0.0184617069	 0.178648
C	-2.5137089317	 1.3013026586	 0.0253838268	-0.148758
N	-3.504438972	 2.3531953827	 0.0352552615	-0.296203
C	-2.9319655371	 3.5413586735	 0.0345138159	 0.506304
N	-3.5784386855	 4.7076013085	 0.0421471041	-0.566594
H	-4.5831667778	 4.7760010931	 0.0492558446	 0.286612
H	-3.0535185056	 5.5655406079	 0.040965254	 0.304103
C	-1.4465931904	 3.3419415768	 0.0237452425	-0.423882
H	-2.8319479535	 0.2720378834	 0.0247404238	 0.167325
H	-4.5029241891	 2.1950392643	 0.0417797249	 0.276638
H	-0.9612231342	 3.7945032055	 0.895792522	 0.189055
H	-0.97333565	 3.7995080518	-0.8523399058	 0.189049
