17
gdb 45208	3.22724	1.81151	1.43792	3.7579	72.33	-0.231	0.0178	0.2488	917.5132	0.139495	-417.98149	-417.975044	-417.9741	-418.012239	26.662	
N	-0.107147716	 1.2764485552	-0.4101595742	-0.545668
C	-0.0529221766	 0.0673836796	-0.0555908958	 0.454138
O	 1.0930900114	-0.6000731022	 0.2935360029	-0.252086
C	 0.8371762486	-1.9913890685	 0.5280797743	 0.079857
C	 0.4206573115	-2.3553131724	 1.9851064698	-0.226246
C	-1.060678335	-2.4118153028	 1.5357667663	-0.01879
N	-1.6515392123	-1.0414874419	 1.4912398334	-0.323271
C	-1.228722616	-0.8761660583	 0.0555947516	-0.10471
C	-0.6099052995	-2.2909981754	 0.0457178303	-0.083836
H	 0.8220793321	 1.7011920714	-0.3846180144	 0.221557
H	 1.670455823	-2.5516876682	 0.1036679077	 0.093186
H	 0.805819735	-3.3408000919	 2.2637046531	 0.104318
H	 0.6673506913	-1.6254327344	 2.7579335116	 0.12008
H	-1.7015718544	-3.1960989542	 1.9393868067	 0.075283
H	-2.6622615874	-1.06507569	 1.5636268177	 0.226673
H	-2.02629821	-0.6228808964	-0.6413215046	 0.098983
H	-0.7975023356	-2.9938510496	-0.7625045265	 0.080533
