19
gdb 91676	3.43844	1.23826	1.11482	1.1929	82.08	-0.2351	0.0468	0.2819	1157.6062	0.159195	-385.83773	-385.829686	-385.828741	-385.869924	32.194	
C	-0.070020048	 1.5247043542	-0.0187054438	-0.416116
C	 0.0715522297	 0.0140347702	 0.0585293681	 0.140253
O	 0.944669868	-0.4886979913	-0.993823553	-0.296559
C	 1.8811150786	-1.2795872044	-0.2579444392	 0.110308
C	 1.0102511656	-2.0426163685	 0.7648555158	-0.260729
C	 0.7805683167	-0.5891418429	 1.2834869622	-0.073099
C	 2.2918011632	-0.3163780152	 0.910834045	-0.200697
C	 3.2752396223	-0.7983829739	 1.8540598887	 0.305087
C	 4.1078370826	-1.1829278591	 2.6329548769	-0.441891
H	 0.8754693129	 2.0394748937	 0.1713930171	 0.121906
H	-0.4171838167	 1.8146088042	-1.0147271268	 0.131374
H	-0.8071825897	 1.8720883535	 0.7130062336	 0.115369
H	-0.9194699447	-0.4442550025	-0.0654664773	 0.075935
H	 2.6015784706	-1.7399236158	-0.9312713263	 0.089911
H	 0.1493383673	-2.588576575	 0.3722757802	 0.100085
H	 1.5891749046	-2.6538306906	 1.4559084945	 0.124124
H	 0.3811875623	-0.3641995671	 2.2710761682	 0.081907
H	 2.5353449659	 0.6974411489	 0.5835987118	 0.101159
H	 4.8427739388	-1.5221356583	 3.3200326442	 0.191673
