19
gdb 41345	2.99721	1.83885	1.53199	1.6302	73.22	-0.2465	0.068	0.3145	920.2321	0.162802	-422.995461	-422.989008	-422.988063	-423.025887	27.618	
C	 0.0512584942	 1.4776065999	 0.2471931337	-0.148822
O	 1.465242174	 1.4750063059	-0.1316357502	-0.362083
C	 1.2596671787	 0.2423919644	-0.8229388976	 0.436356
C	 2.1221695777	-1.0087785263	-0.8335826829	-0.142432
O	 1.2379454166	-1.8873832691	-1.578520977	-0.298492
C	 0.1786007898	-1.0844635733	-2.1753201208	 0.120365
C	-0.9232083295	-0.7940155247	-1.1139743061	-0.27188
C	-0.0579771548	-0.033867657	-0.084612468	-0.037814
C	 0.8366395863	 0.2853238014	-2.3118674364	-0.29917
H	-0.0790550743	 1.7697576239	 1.2924745269	 0.113582
H	-0.5323189022	 2.1469248965	-0.3974399021	 0.104097
H	 3.0848360804	-0.9039042131	-1.351570966	 0.097687
H	 2.2906099536	-1.4310183088	 0.1622138519	 0.105385
H	-0.1561913898	-1.6031481196	-3.0739924096	 0.077737
H	-1.7346677014	-0.2021785492	-1.5515755896	 0.099344
H	-1.3525197862	-1.7098763841	-0.7024762878	 0.107934
H	 0.1020830899	-0.6175557661	 0.8239736372	 0.090031
H	 0.1382485654	 1.0897728693	-2.5481129711	 0.103408
H	 1.6812580116	 0.3082756301	-3.0037840843	 0.104765
