14
gdb 42651	3.08541	1.50538	1.25035	4.114	74.24	-0.2556	-0.01	0.2456	994.645	0.100412	-399.47	-399.462899	-399.461955	-399.501589	27.667	
O	-0.0047359091	 0.081416444	 0.0238804334	-0.307107
C	-0.0928219055	 1.2658154659	 0.0437816597	 0.438469
C	-1.2073287279	 2.299116482	-0.0173440867	-0.257914
C	-0.9309367061	 3.1126950203	 1.2803127532	-0.249871
C	 0.4113079561	 3.4711440255	 0.6346454207	-0.094659
N	 0.9771959392	 2.2632964723	-0.0662422525	-0.227944
C	-0.0835134283	 3.1765683766	-0.7257848844	 0.307474
C	 0.0390551904	 3.746944156	-2.0076781008	 0.033375
C	 0.1023123508	 4.242952845	-3.1015618505	-0.333114
H	-2.2074610369	 2.0701966885	-0.3715269372	 0.115396
H	-1.5716441674	 3.9935956333	 1.3572607351	 0.12855
H	-0.928927415	 2.5599365749	 2.2244859809	 0.123192
H	 1.1435080528	 4.2054955582	 0.9434047863	 0.130398
H	 0.1703013069	 4.6768958876	-4.0686956371	 0.193755
