22
gdb 120315	2.89704	1.00877	0.89383	1.8976	83.39	-0.224	0.079	0.303	1439.1817	0.193133	-404.291679	-404.281954	-404.28101	-404.326854	35.65	
C	 0.5763894769	 1.2795666544	 0.1281318816	-0.225135
O	 0.7584281135	-0.099371961	-0.0838765853	-0.232848
C	 0.0190781973	-0.5858400928	-1.186170415	-0.096711
C	 0.2528098859	-2.0762384967	-1.2530254382	-0.045952
N	-0.2485041859	-2.961229176	-2.327896128	-0.206816
C	-0.0679955368	-2.2258283875	-3.6323242946	-0.148764
C	 1.4594016634	-2.0887314652	-3.4300428755	-0.315166
C	 1.25683264	-2.7808065991	-2.0788013265	 0.352888
C	 2.1343825995	-3.8773789763	-1.5522349203	-0.48858
H	 0.9069260139	 1.8753201081	-0.7380525316	 0.10208
H	-0.4782495206	 1.5272694133	 0.3292607705	 0.104513
H	 1.1766223675	 1.559001996	 0.9974222414	 0.127689
H	-1.0580737377	-0.3859414722	-1.0457593789	 0.092243
H	 0.3258473353	-0.0669606597	-2.1062681485	 0.087581
H	 0.0776061606	-2.5384200674	-0.2830657992	 0.097649
H	-0.3401199855	-2.8903358333	-4.454608018	 0.109674
H	-0.6568824501	-1.3077072915	-3.7226770417	 0.102777
H	 2.0317777334	-2.7006612545	-4.1305457262	 0.108178
H	 1.8979002521	-1.0861114596	-3.4117225185	 0.10326
H	 3.0889625206	-3.4704014431	-1.1976773379	 0.124338
H	 1.654779125	-4.3913000227	-0.7143052549	 0.129088
H	 2.3518237215	-4.6195923631	-2.3282493847	 0.118015
