14
gdb 9251	6.15974	0.76425	0.71426	1.0451	66.59	-0.2754	-0.0739	0.2015	1484.8941	0.104458	-419.638604	-419.629604	-419.62866	-419.67342	30.175	
O	 0.2113605485	 1.339128434	-0.2392623517	-0.410899
C	 0.1380131764	-0.051141797	-0.055973805	-0.058474
C	-1.3364141377	-0.4764640987	 0.1288689346	-0.072849
O	-2.1130243664	 0.0279911661	-0.9595553116	-0.4236
C	-1.4620883277	-1.9188455214	 0.2900514956	 0.084953
C	-1.5310557393	-3.1233747091	 0.3633407798	 0.027533
C	-1.6146191812	-4.5570290168	 0.4910522605	 0.026974
O	-2.0249057621	-5.2935415765	-0.3755714065	-0.224856
H	-0.4657255744	 1.555949014	-0.8937744665	 0.291211
H	 0.5612107466	-0.6092827002	-0.9078510337	 0.093089
H	 0.7178627617	-0.3052883195	 0.8362556283	 0.124428
H	-1.7243103496	 0.0353812197	 1.0172340973	 0.138587
H	-2.0105343236	-0.5779589852	-1.7031946011	 0.296636
H	-1.2645764611	-4.9453625395	 1.4684514501	 0.107269
