21
gdb 80384	2.13856	1.61662	1.36724	1.5101	78.68	-0.2352	0.0723	0.3076	1088.9369	0.18014	-424.199207	-424.189536	-424.188592	-424.232513	37.717	
C	-0.0603795932	 1.5301597579	-0.0398035772	-0.497718
C	 0.0159618106	 0.0286616304	-0.0173530258	 0.291466
C	-0.8360942857	-0.8109959612	 0.8802233238	 0.035125
O	-1.6662173938	-1.830660099	 0.3859538141	-0.420115
C	 0.648919704	-0.9482230156	 1.0151811018	-0.170548
C	 1.190799902	-1.8245294349	-0.1196806178	-0.284054
C	 0.6352124575	-0.7976527558	-1.166526608	 0.362442
C	-0.2602970603	-1.2972269803	-2.291925797	-0.470025
O	 1.6933314913	 0.0009117703	-1.6937113175	-0.479095
H	 0.8894247023	 1.9607625503	-0.3652932846	 0.139947
H	-0.8400194433	 1.8757050664	-0.7295701325	 0.118863
H	-0.2996528958	 1.9256303663	 0.9527045908	 0.109032
H	-1.3016567847	-0.2246828347	 1.674451743	 0.08558
H	-1.6873826299	-2.5357412919	 1.0418008969	 0.285643
H	 1.167367233	-0.7272542205	 1.9417395705	 0.079306
H	 2.2807641125	-1.8542308764	-0.1605429161	 0.098769
H	 0.7896793389	-2.841691901	-0.1649407935	 0.08439
H	-1.0902246495	-1.8845703307	-1.8988444538	 0.147293
H	-0.6587088123	-0.4514965021	-2.8616324909	 0.117248
H	 0.3150856177	-1.927449259	-2.9837688969	 0.093988
H	 2.1149493388	-0.5072873085	-2.3948311293	 0.272464
