16
gdb 124880	3.6829	1.23609	1.04357	3.75	70.51	-0.2536	-0.0365	0.2172	1135.7967	0.124239	-434.020012	-434.012162	-434.011217	-434.052892	29.221	
C	-0.2869421679	 1.3334018333	-0.7452431061	-0.47442
C	-0.0336455766	 0.0063201058	-0.0590894523	 0.187738
C	 1.0583894625	-0.8766085405	-0.569631745	-0.259968
N	 1.1978903674	-0.1931804802	 0.7267781926	-0.346848
C	-1.2187269069	-0.6179082358	 0.5752864831	 0.248086
C	-1.3457592568	-1.2740165156	 1.7592476834	-0.048311
O	-2.6083467197	-1.6674054713	 1.9044591217	-0.161821
N	-3.3033379822	-1.2194453077	 0.7389218673	-0.00635
N	-2.474253386	-0.6249806608	 0.0034995243	-0.197894
H	 0.6238425915	 1.6959559998	-1.2316019901	 0.113408
H	-1.0677798342	 1.232477227	-1.5041140279	 0.153494
H	-0.6198091804	 2.0879193087	-0.0245041346	 0.131271
H	 0.9542208012	-1.9556949403	-0.5080786334	 0.125127
H	 1.6386665708	-0.5193612236	-1.4163740744	 0.119103
H	 1.8005535452	 0.6206224759	 0.6320659346	 0.23571
H	-0.6461458779	-1.5082933445	 2.5428752869	 0.181676
