19
gdb 128294	2.27389	1.46029	0.90605	1.1493	81.63	-0.1946	0.0172	0.2119	1309.7294	0.159514	-415.399566	-415.389641	-415.388697	-415.435256	34.252	
C	 0.1721365849	 1.4597442676	-0.0236037733	-0.31572
N	-0.0767775337	 0.0276653003	-0.0943316477	-0.383073
C	 0.5731401192	-0.699463293	-1.0760521237	 0.304409
N	 1.1942138995	-0.1298439078	-2.1099538938	-0.338635
N	 1.6239756288	-1.17835945	-2.8261988073	 0.14437
C	 2.306309189	-1.0106304453	-4.0871131296	-0.308369
N	 1.3281791408	-2.3698221634	-2.3278196653	-0.288127
C	 0.6562345418	-2.1072989544	-1.2051505364	 0.240507
C	 0.1237685101	-3.1730644603	-0.3068018896	-0.514585
H	 1.2317248766	 1.7115362391	 0.131261538	 0.116007
H	-0.1436940148	 1.9283434728	-0.9589632215	 0.147462
H	-0.4187337101	 1.8807400007	 0.7933436684	 0.115939
H	-0.0717041138	-0.4328107851	 0.8040112492	 0.237147
H	 3.1494757378	-0.3259282664	-3.9656991091	 0.145427
H	 2.6637293711	-1.991130532	-4.3992289653	 0.156823
H	 1.6287344925	-0.6065566735	-4.8464008019	 0.141833
H	 0.5932178669	-3.1473500295	 0.6851731676	 0.121405
H	-0.9569636735	-3.0670952085	-0.1559785766	 0.131845
H	 0.3149216768	-4.1564647913	-0.7410794822	 0.145334
