16
gdb 114944	2.93759	1.19357	0.90921	2.9575	68.73	-0.2703	-0.0741	0.1962	1254.9596	0.123351	-475.036934	-475.028398	-475.027454	-475.070914	29.832	
C	 0.160248969	 1.5344813141	 0.3355138619	-0.250395
O	 0.0514354256	 0.1303520087	 0.1366774717	-0.225241
C	 0.7594351519	-0.6294693303	 1.0461986944	 0.18061
C	 0.5365666938	-2.1261292044	 0.7485123147	-0.212208
N	 1.7961763958	-2.5946836828	 0.1612394093	-0.286696
C	 2.6086121377	-1.6194163935	 0.2725945741	 0.310754
O	 2.1935980943	-0.4694519446	 0.8527997046	-0.250214
C	 4.0191877019	-1.7035626742	-0.203226491	 0.099991
O	 4.8155054949	-0.8062152244	-0.1155744277	-0.238218
H	 1.1888624565	 1.8786586597	 0.1844910832	 0.141873
H	-0.4948115632	 2.0071610995	-0.398050904	 0.137631
H	-0.167044522	 1.8152326803	 1.3468245029	 0.114487
H	 0.557781665	-0.3109628713	 2.0767906366	 0.087894
H	 0.3150335655	-2.7057326161	 1.6506227493	 0.131266
H	-0.2921079863	-2.2531316965	 0.0469936954	 0.143783
H	 4.2524628996	-2.6903254941	-0.6472785853	 0.114684
