17
gdb 109028	3.25332	1.31315	1.03566	3.104	74.44	-0.2439	-0.0688	0.1751	1162.8433	0.135529	-421.83255	-421.824367	-421.823422	-421.8657	30.379	
C	-0.2519403875	 1.4988864104	-0.0138532456	-0.381612
C	 0.0969681191	-0.000563817	 0.0273435973	-0.289306
C	 0.8231094278	-0.4597991373	-1.1985854511	 0.199164
C	 2.0954806768	-0.8685994281	-1.33300125	-0.19808
C	 2.3806118193	-1.3275586979	-2.7335985649	 0.002719
O	 1.5778518365	-2.4641420899	-3.1174306205	-0.246697
C	 1.1513309959	-1.1453646833	-3.5060003161	-0.08424
C	 0.1360651098	-0.5506927283	-2.5333657488	 0.356096
O	-0.9897852172	-0.1993699371	-2.7926647897	-0.319794
H	 0.6532813083	 2.1105896359	-0.0804697011	 0.115499
H	-0.8830226535	 1.7215559139	-0.8772469828	 0.147844
H	-0.7926235481	 1.7895711288	 0.8915421598	 0.117085
H	 0.6985163411	-0.2239634975	 0.9148521717	 0.104985
H	-0.8335144546	-0.5749130041	 0.1150561183	 0.125839
H	 2.826175205	-0.9286302484	-0.5344109891	 0.12039
H	 3.3739673174	-1.2845143891	-3.1674585488	 0.112168
H	 1.0925937339	-0.9418775011	-4.5701441186	 0.11794
