15
gdb 66826	2.82316	2.2535	1.8561	2.9393	68.54	-0.2147	-0.0542	0.1605	784.9116	0.113151	-416.665052	-416.658808	-416.657864	-416.69512	26.546	
O	 0.0776455478	 1.445677451	 0.2781148881	-0.488656
C	-0.0103491295	 0.085184105	 0.0678608427	 0.39875
C	-1.2801132965	-0.7544372716	-0.0358617053	-0.203765
C	-0.7386402701	-1.9022391931	-0.8832487049	-0.014742
N	 0.5394412624	-1.6934247965	-1.483282311	-0.127182
C	 1.0051778126	-0.6640884291	-0.8655727108	-0.027012
N	 1.9878875034	-0.9874948244	 0.1930783137	-0.343462
C	 0.6601062156	-0.918370148	 1.012351576	-0.060578
C	-0.5371526456	-1.883539169	 0.6652632855	-0.096378
H	 0.0574697167	 1.8902865843	-0.5770992187	 0.292526
H	-2.3156522224	-0.4492700865	 0.0087280233	 0.107277
H	-1.4069296193	-2.643280125	-1.3059078019	 0.108408
H	 2.4780239726	-0.1413658866	 0.4982495913	 0.232623
H	 0.7979170818	-0.7040466917	 2.0727273331	 0.114484
H	-0.9163665796	-2.6749668789	 1.2954498689	 0.107708
