19
gdb 87426	3.38962	1.38114	1.31366	1.6415	78.79	-0.2312	0.0794	0.3106	1046.3411	0.159856	-385.80961	-385.802148	-385.801204	-385.841282	30.492	
O	-0.0101975987	 1.3640007238	 0.0911378824	-0.425403
C	-0.0230687996	-0.0353155112	 0.0077493117	 0.013272
C	-0.4641959098	-0.7657221307	 1.2553814	-0.397599
C	-1.3337352385	-0.7550452156	 0.0303784743	 0.408516
C	-2.7387282236	-0.2062039054	-0.0369423461	-0.161701
C	-3.2951737404	-0.5948529606	-1.4229347921	-0.076994
C	-2.194878157	-1.360793457	-2.1586999953	-0.230127
C	-1.8375121524	-1.9666030188	-0.7700934596	-0.169244
C	-3.3025353468	-1.5876070214	-0.2882943576	-0.06975
H	-0.3640802109	 1.7090291022	-0.7354148434	 0.286595
H	 0.8006970047	-0.4707899023	-0.56112704	 0.07699
H	 0.0594731869	-1.6768904796	 1.5277548951	 0.108248
H	-0.7642843806	-0.1439795104	 2.0927815989	 0.121399
H	-3.1758882687	 0.5946837602	 0.5444873112	 0.090969
H	-4.1416981435	-0.0682448133	-1.8456464496	 0.084462
H	-2.6195870501	-2.1108674031	-2.8318180318	 0.097608
H	-1.4073563301	-0.8015497149	-2.6786169534	 0.082106
H	-1.3551883221	-2.9380565966	-0.6817361582	 0.070507
H	-4.0933088889	-2.1409809855	 0.1962220635	 0.090146
