20
gdb 35279	3.24579	0.87799	0.7856	4.2743	83.72	-0.2787	0.0319	0.3106	1504.9378	0.171234	-366.004692	-365.99565	-365.994706	-366.039612	33.467	
N	-0.0550418603	-1.151257016	 0.1435782248	-0.34565
C	-0.022414058	 0.0057615641	 0.1500250375	 0.28757
C	 0.0205092278	 1.4406858425	 0.1533151364	-0.190489
C	 0.7730304413	 2.1668653209	 1.261822952	-0.277207
C	 1.3312275731	 2.170827429	-0.1275695123	 0.009788
C	 2.5971156098	 1.4130776429	-0.4771951495	-0.247341
C	 3.851400981	 2.229451811	-0.2346300135	 0.037548
C	 4.5266927152	 2.2286077142	 1.1144331717	-0.254437
C	 5.1824877304	 1.545556932	-0.0610955916	-0.278597
H	-0.8889807759	 1.9052976677	-0.21192555	 0.132098
H	 0.3135574909	 3.0653541732	 1.6570994916	 0.12813
H	 1.2638467098	 1.5456074052	 2.0020482472	 0.138524
H	 1.1932463132	 3.0930737964	-0.6865868389	 0.100302
H	 2.6431063798	 0.4847179186	 0.1043793757	 0.114469
H	 2.5516696569	 1.1092482181	-1.5313185949	 0.111725
H	 3.8758024842	 3.1752618104	-0.771500723	 0.081081
H	 4.956810925	 3.1542207696	 1.4806430974	 0.111838
H	 4.1076236563	 1.5986102202	 1.8923082494	 0.111202
H	 5.1979505817	 0.4604962186	-0.0709719989	 0.11633
H	 6.0604238079	 2.0045138715	-0.5018240509	 0.113116
