18
gdb 73643	2.39956	1.70343	1.45229	2.8722	72.27	-0.2629	0.0259	0.2888	995.9391	0.148718	-439.094657	-439.08682	-439.085876	-439.12682	30.15	
C	-0.0934623162	 1.4770416376	 0.0258135218	-0.480891
C	 0.01952858	-0.0366186237	-0.0196051031	 0.134918
C	-1.316190266	-0.7995887148	-0.0877263003	-0.129884
O	-1.063955675	-2.0896810207	 0.4529871654	-0.249116
C	-0.1483604002	-1.9155616315	 1.5256860779	-0.110357
C	 0.8079143838	-0.8284207117	 1.0650005051	 0.071553
O	 1.7399667266	-1.3072919105	 0.0415401208	-0.276125
C	 1.0749145989	-0.6149256666	-0.9488249475	 0.423053
N	 1.3030039169	-0.511494565	-2.176089904	-0.554618
H	 0.8861601433	 1.946453327	 0.1512596677	 0.131119
H	-0.5201475629	 1.8506982763	-0.9100657624	 0.146198
H	-0.7399284044	 1.7985517765	 0.8489212696	 0.119517
H	-2.0750252105	-0.26414313	 0.5075276941	 0.090243
H	-1.6884558233	-0.9262114989	-1.1066811934	 0.135821
H	-0.663673481	-1.583320683	 2.4431329671	 0.094758
H	 0.3426380568	-2.8722309211	 1.718726761	 0.129024
H	 1.3346838377	-0.2905371261	 1.8543576065	 0.095649
H	 2.1215884356	-1.0544779337	-2.4559191162	 0.22914
