18
gdb 52816	2.96471	1.07313	0.91487	1.4437	81.47	-0.2271	0.0437	0.2709	1345.2532	0.145834	-401.86956	-401.86021	-401.859266	-401.905356	33.987	
C	-0.0032887666	 1.5119537026	-0.0666937007	-0.49993
C	 0.0176283188	 0.0582762391	-0.000717162	 0.012588
C	 0.02851453	-1.1441503608	 0.0742020801	 0.094374
C	 0.0553378207	-2.5989278194	 0.1009072742	 0.250322
O	 1.0217099395	-3.124346623	-0.8015439752	-0.471044
C	 0.2501071448	-3.3318618288	 1.4815079882	-0.263809
C	-1.0855506709	-4.0440603746	 1.2536746761	-0.042954
N	-2.105911549	-2.9705318336	 1.158991021	-0.330292
C	-1.3049187214	-3.3338781672	-0.0304659694	-0.123176
H	 1.0007361336	 1.9179388171	-0.2325738046	 0.148465
H	-0.6445036691	 1.8665618826	-0.8813087902	 0.147006
H	-0.3850639573	 1.9417315782	 0.8659443859	 0.153676
H	 0.9569148696	-2.6143904362	-1.6164872527	 0.278491
H	 1.1194049399	-3.9870478248	 1.4111515922	 0.122223
H	 0.3065422748	-2.6980128453	 2.3674958163	 0.110801
H	-1.3599951224	-5.0489843854	 1.5476906472	 0.093905
H	-3.0149622803	-3.4205201547	 1.0510013268	 0.2291
H	-1.7639796647	-3.6572103258	-0.9571757333	 0.090252
