17
gdb 19822	3.75564	2.15322	1.86417	0.5521	66.77	-0.2288	0.0563	0.2851	781.4365	0.143019	-363.777646	-363.771003	-363.770059	-363.808119	26.429	
C	-0.036938797	 1.5711043803	-0.1405757677	-0.421833
C	 0.1224293341	 0.0658272874	-0.0663966025	 0.146728
O	 1.1776485693	-0.5055872758	-0.9092707956	-0.322181
C	 1.5695762492	-1.4181766205	 0.1476381175	 0.099711
C	 2.787236199	-0.9864542022	 0.9803506422	-0.040163
C	 2.8764311561	 0.4749056796	 1.0552374299	-0.245206
N	 1.890341869	-0.1941541738	 1.9395247955	-0.167147
C	 0.6830545605	-0.6885885486	 1.1532354811	-0.047465
H	-0.1669142861	 1.8770596776	-1.1836445615	 0.132591
H	-0.9372920856	 1.8647791751	 0.4094650885	 0.12433
H	 0.8071180982	 2.1179863642	 0.2806401412	 0.131964
H	-0.8333590223	-0.4010184771	-0.3523233878	 0.079427
H	 1.4838652941	-2.4691256024	-0.1344531646	 0.082736
H	 3.5533338091	-1.6602043591	 1.3510288367	 0.095517
H	 3.6943887713	 0.8944724276	 1.633133928	 0.122751
H	 2.5703636914	 1.0588541722	 0.1977795441	 0.137522
H	-0.0161915603	-1.1726843346	 1.8330538549	 0.090719
