13
gdb 130624	4.76148	1.28567	1.02519	1.585	64.88	-0.2668	-0.0592	0.2077	1045.8966	0.089086	-452.744183	-452.737275	-452.736331	-452.775813	25.73	
O	 0.0061048456	 0.0605638746	 0.0046495644	-0.276142
C	-0.0093208496	 1.2566033802	 0.0109314052	 0.401668
C	-1.3128253737	 2.1216815224	 0.0331480282	-0.466367
C	-0.7371988501	 3.4923837705	 0.032678266	 0.383763
C	 0.6230642361	 3.5173033274	 0.0143263877	 0.227094
C	 1.2564760586	 2.1703508106	-0.00148312	-0.459153
N	 0.9939535499	 4.8348489764	 0.0164021334	-0.179067
N	 0.0088312738	 5.5923525848	 0.0342559726	-0.029951
O	-1.2383756842	 4.6975578459	 0.0457477897	-0.252869
H	-1.9318510556	 1.8942660983	-0.8415324239	 0.167797
H	-1.9081315098	 1.8848641215	 0.9216858744	 0.1678
H	 1.8786677681	 1.9390274344	 0.8703181764	 0.157715
H	 1.854621231	 1.948397173	-0.8923441041	 0.15771
