20
gdb 62619	2.27503	1.84024	1.5885	2.512	77.37	-0.2326	0.0575	0.2901	981.9054	0.169965	-403.084129	-403.075716	-403.074772	-403.116205	33.951	
C	 0.0446308727	 1.5688291902	-0.0667119375	-0.470586
C	 0.061855419	 0.0420486421	 0.0058455875	 0.256916
C	-1.3503798311	-0.4982115227	 0.2572678129	-0.468694
C	 0.7678185811	-0.7530369307	-1.0995577983	-0.06404
C	 1.2734901428	-1.7848317099	-0.1715264353	-0.154898
N	 2.2468971476	-0.8593065774	-0.8134593492	-0.161416
C	 2.4518510502	-0.160569236	 0.5012423946	-0.196635
C	 1.0890886035	-0.6671455064	 0.9627459689	 0.334729
O	 0.8558738722	-0.7952951788	 2.3153339602	-0.475762
H	 0.9994381234	 1.9827454784	-0.3964508958	 0.125936
H	-0.7201429425	 1.9107050615	-0.7730386622	 0.114503
H	-0.1946325046	 2.0020723347	 0.9114322944	 0.119177
H	-2.0299305009	-0.2195244666	-0.554751333	 0.122893
H	-1.3615910418	-1.5907990106	 0.335502954	 0.118568
H	-1.7703767406	-0.078568313	 1.180644283	 0.111925
H	 0.4782252751	-0.8518861954	-2.1386981941	 0.091676
H	 1.3414303271	-2.8643033031	-0.2067134105	 0.097136
H	 3.2735242988	-0.6570944359	 1.0232962025	 0.114037
H	 2.6381460096	 0.916973821	 0.4571321651	 0.097844
H	-0.0671645417	-1.0362381215	 2.453497713	 0.286692
