19
gdb 81923	2.19959	1.98573	1.17833	4.8121	76.01	-0.2426	0.0338	0.2764	1070.7401	0.160243	-419.230468	-419.221948	-419.221004	-419.263448	31.96	
C	-0.1874600049	 1.5684586461	 0.0077269643	-0.402418
C	 0.0256629001	 0.053142044	-0.0076627276	 0.014803
C	 0.8360683151	-0.47460287	-1.1891325493	-0.037089
C	 2.2745573528	-0.1379819546	-1.2914571953	-0.255384
N	 1.8463044299	-1.4262928638	-0.6922271264	-0.158075
C	 1.7995281985	-1.3317261658	 0.7493144206	 0.407739
O	 2.525562535	-1.939119681	 1.496425304	-0.382615
N	 0.8045815372	-0.4517583377	 1.1133325277	-0.085823
C	 0.4159027729	-0.2723478204	 2.4932600972	-0.347604
H	 0.7676137089	 2.1008164609	 0.0278823784	 0.124818
H	-0.7355819915	 1.8754927237	-0.8884063294	 0.126872
H	-0.7748487906	 1.8785503995	 0.8771983818	 0.125319
H	-0.9638955112	-0.4326926949	-0.0193140146	 0.085161
H	 0.291576669	-0.777222928	-2.0774594143	 0.105995
H	 2.7821548009	-0.2335309858	-2.2459873073	 0.131143
H	 2.6899622528	 0.6097879104	-0.6216401823	 0.132345
H	 1.1042364408	-0.859259184	 3.1037113266	 0.168688
H	 0.4748571968	 0.7784040206	 2.7977944184	 0.125635
H	-0.6093825324	-0.626300819	 2.6663938475	 0.120491
