19
gdb 65049	2.32112	1.52594	1.20297	2.6118	81.23	-0.2391	0.0399	0.279	1117.2761	0.158207	-381.982728	-381.973628	-381.972684	-382.016246	35.02	
C	 0.2543992553	 0.51874524	-1.4463865015	-0.476895
C	 0.0113791284	-0.0525756598	-0.0639014882	 0.208236
C	 1.1674377802	-0.508678126	 0.7477693956	-0.267088
N	 0.4434416103	 0.7292265938	 1.1061400311	-0.356202
C	-1.3389900912	-0.7254439208	 0.1188629339	 0.088087
C	-1.9337638266	-0.8229644455	 1.4846066344	-0.27506
N	-2.4927570683	 0.127502931	 0.5152514543	-0.353566
C	-1.6328358396	-1.7590892041	-0.8450600753	 0.318703
C	-1.8426737817	-2.6358600814	-1.6407093377	-0.434979
H	 1.252803712	 0.9622708173	-1.5144005331	 0.109491
H	 0.1714938474	-0.2599549059	-2.209225098	 0.146405
H	-0.4837852297	 1.2935348477	-1.6824951612	 0.128726
H	 1.0451861493	-1.3251113228	 1.4533016165	 0.123711
H	 2.1623076651	-0.420562045	 0.3191717294	 0.115218
H	 0.9712932461	 1.5421653475	 0.7992625339	 0.232144
H	-2.5714675368	-1.6716930289	 1.7107085187	 0.122811
H	-1.3427647945	-0.4288448949	 2.3047931465	 0.138934
H	-2.1167750705	 1.049633002	 0.7362241259	 0.2388
H	-2.044446185	-3.406353574	-2.342951285	 0.192525
