19
gdb 96854	2.49056	1.34009	0.96494	3.0875	80.39	-0.2301	0.0126	0.2426	1273.4019	0.157497	-419.172445	-419.162964	-419.16202	-419.207002	34.268	
C	-0.4196495464	 1.423937285	-0.1495546117	-0.340256
N	-0.39460071	-0.0291350187	-0.2079509055	-0.324281
C	 0.5363412242	-0.5792233962	-0.8527309471	 0.354187
N	 1.6771834242	-0.1480183141	-1.5603748152	-0.388965
C	 1.9800614164	-1.498034328	-2.1070091926	-0.014604
C	 3.4089448798	-1.9719996276	-1.9113421655	-0.401635
C	 0.872627732	-2.0184309213	-1.1629093278	 0.318467
C	 0.777036013	-3.2195884728	-0.3342275487	-0.257096
O	-0.0572388727	-3.0241656901	-1.4854390053	-0.262114
H	 0.5751940221	 1.888999059	-0.2231749602	 0.102249
H	-1.0455005982	 1.8308526821	-0.9554510008	 0.122473
H	-0.8717963706	 1.739080505	 0.7955327904	 0.127866
H	 1.7106759828	 0.6941041668	-2.1166954281	 0.243779
H	 1.6663728245	-1.611585265	-3.1525320718	 0.095062
H	 3.7069966963	-1.8787117761	-0.8631927926	 0.125241
H	 3.5088474064	-3.0195513739	-2.2150327849	 0.12443
H	 4.1039910948	-1.382586407	-2.5183070886	 0.120653
H	 1.5274482162	-4.0030270501	-0.429322457	 0.118707
H	 0.2666969353	-3.1586288668	 0.6248913328	 0.135837
