16
gdb 74822	3.54346	1.29656	1.07639	0.7796	77.51	-0.241	0.0097	0.2508	1130.22	0.12295	-400.720989	-400.712881	-400.711937	-400.753482	31.022	
C	 0.0175363214	 1.43201116	 0.0967156854	-0.480924
C	-0.0137467376	-0.0477822254	-0.0541000296	 0.386325
N	-0.0321439052	-0.7100591394	-1.1449698692	-0.296536
C	-0.0037038633	-2.1004986354	-0.787723031	-0.069053
C	 1.2015250669	-2.5775719717	-0.016558383	-0.3376
C	-0.0197270852	-2.1302585428	 0.7532674584	 0.212935
O	-0.0281518244	-0.7526868367	 1.1189797715	-0.269225
C	-0.7753415735	-2.9902600359	 1.6006451693	 0.221355
C	-1.4060655179	-3.7373194328	 2.3006382098	-0.396568
H	 0.9513238454	 1.7496489234	 0.5716656342	 0.148375
H	-0.065014213	 1.898631597	-0.8843460571	 0.155789
H	-0.8044234244	 1.7645457472	 0.737836871	 0.149989
H	-0.5654017569	-2.7883245455	-1.4073433279	 0.116667
H	 1.3893272175	-3.6447486788	-0.0104399468	 0.134988
H	 2.0811141326	-1.9428240708	 0.0139183974	 0.127486
H	-1.9663950724	-4.3921786725	 2.9211563477	 0.195997
