17
gdb 12129	3.9385	1.69626	1.67863	1.0721	68.17	-0.204	0.0756	0.2797	866.1701	0.141098	-363.773232	-363.76582	-363.764876	-363.8042	29.672	
C	-0.0381243437	 1.52455473	 0.0362868019	-0.508827
C	 0.0998624094	 0.0359584803	 0.0096797635	 0.357987
N	-0.8518498135	-0.8745013822	 0.7036020945	-0.379044
C	 0.6066453578	-0.9284443999	 1.0054799008	-0.197137
C	 1.3207713355	-1.7430123171	-0.123251664	 0.394701
O	 2.6241235897	-2.1830725065	 0.0126873607	-0.457403
C	 0.3677738397	-2.2254222239	-1.1799517093	-0.355383
C	 0.7892282299	-0.7651694116	-1.144210839	-0.166184
H	 0.9004750301	 2.0098179676	-0.2531383767	 0.129342
H	-0.8166147913	 1.8652007583	-0.6571077248	 0.128108
H	-0.3018259405	 1.876439723	 1.0398043903	 0.115508
H	-1.2886631544	-0.3335512381	 1.4509304161	 0.221902
H	 0.9943724585	-0.7725401281	 2.0049724884	 0.091688
H	 2.6011571062	-3.087929164	 0.3448847374	 0.285812
H	 0.8598119423	-2.7860937516	-1.9694536948	 0.107015
H	-0.6475917708	-2.519904981	-0.9471577697	 0.137988
H	 1.308439095	-0.2909340353	-1.9668267355	 0.093927
