25
gdb 120958	4.43199	0.76587	0.71532	0.2777	92.52	-0.2573	0.0812	0.3385	1717.6698	0.230465	-352.365505	-352.356091	-352.355146	-352.400219	36.342	
C	-0.0072473664	 1.6031377094	 0.0084721558	-0.379501
C	-0.0389048217	 0.0729381847	-0.0371493705	-0.167708
C	 0.7053108969	-0.5068558962	-1.24621029	-0.182483
C	 0.7243024607	-2.0362316304	-1.3038458393	 0.060736
C	-0.6641742646	-2.7113627618	-1.4699540193	-0.240144
C	-0.3847131288	-4.0578252129	-2.1399527792	-0.03018
C	-0.2102876667	-4.0665863369	-3.6375217026	-0.276108
C	 1.0045748982	-3.9996238531	-2.7475036425	-0.028107
C	 1.5862590489	-2.6159661669	-2.4563547364	-0.257634
H	 1.0219682376	 1.9761950156	 0.0589143278	 0.11217
H	-0.4695643559	 2.0353662686	-0.8861215737	 0.112556
H	-0.5445327368	 1.9900386404	 0.8801482165	 0.109192
H	 0.4021018257	-0.3300906103	 0.8845729653	 0.092049
H	-1.0812541286	-0.2695437616	-0.0485887765	 0.098482
H	 0.2529170769	-0.1204941621	-2.1716030256	 0.086492
H	 1.7395737741	-0.1348528184	-1.2385461156	 0.087508
H	 1.1523241502	-2.4112150663	-0.3632278844	 0.065914
H	-1.1698480338	-2.8396231395	-0.5086996548	 0.097025
H	-1.3231986514	-2.0886833624	-2.0903948863	 0.091819
H	-0.7472299643	-4.961796874	-1.6632886387	 0.078103
H	-0.4025079542	-4.9956027129	-4.1646713627	 0.103189
H	-0.489999268	-3.1752450309	-4.1935860297	 0.101243
H	 1.6632783507	-4.8603173068	-2.7154619676	 0.078244
H	 1.5300589705	-1.9679926108	-3.3411864524	 0.092319
H	 2.642494401	-2.6694271345	-2.1752444977	 0.094822
