18
gdb 110780	2.72761	1.41508	1.24948	3.6934	72.85	-0.2456	0.0309	0.2765	1087.2357	0.147997	-439.070423	-439.062251	-439.061307	-439.103567	30.576	
C	 0.3676034868	 0.8012473295	-0.1852460876	-0.236049
O	-0.1221426463	-0.2203764701	 0.665768614	-0.229871
C	-1.3920417138	-0.6500387667	 0.3208786225	 0.086482
C	-1.5811154993	-1.7663365374	-0.7004213695	-0.15567
C	-0.3548100411	-2.59609779	-1.0347730038	-0.316984
C	 0.0974390691	-3.1764780859	 0.2961926205	 0.423282
N	 1.1434066486	-3.852478769	 0.4844268298	-0.539256
O	-0.8135590675	-2.8641060603	 1.2771781652	-0.227515
C	-1.8164793783	-2.0130802943	 0.7762024585	 0.026323
H	 1.3806541818	 1.0347210773	 0.1481175098	 0.137666
H	 0.3958568849	 0.4784623721	-1.2349551728	 0.113965
H	-0.2511943405	 1.7081379128	-0.1168023696	 0.110975
H	-2.1624417565	 0.1238616824	 0.3324081519	 0.09237
H	-2.3983128006	-1.7102589147	-1.409115729	 0.099129
H	-0.6074073493	-3.4087032276	-1.7222300341	 0.136956
H	 0.4655308259	-2.0321500795	-1.4842925864	 0.141334
H	 1.2283415974	-4.1183219289	 1.4665627348	 0.224267
H	-2.7807401515	-2.1906382997	 1.2360131957	 0.112596
