15
gdb 54470	3.65344	1.37308	1.13448	3.744	65.73	-0.2297	-0.0002	0.2296	1036.634	0.1121	-453.869587	-453.861953	-453.861009	-453.901834	29.407	
N	 0.0666646434	 1.2516488032	-0.2521148359	-0.541963
C	 0.0133757596	-0.0559951735	 0.1427977643	 0.305584
O	 0.9852648834	-0.6629277507	 0.5622540214	-0.380478
C	-1.3032591555	-0.7203336588	-0.0095619933	 0.207852
N	-1.6139341405	-1.8989598749	 0.8344093904	-0.340428
C	-1.5056495741	-2.0790447021	-0.6075004765	-0.138616
C	-2.8304621332	-1.5701793578	-1.280787882	 0.025117
O	-3.7075216578	-1.0743763684	-0.2695061046	-0.207236
C	-2.6374429944	-0.2427083704	-0.701796691	-0.062788
H	 0.9182045386	 1.7514417301	-0.0493090749	 0.266154
H	-0.774051715	 1.7930261196	-0.3613010842	 0.262116
H	-0.7069366325	-2.166058215	 1.2266827717	 0.256089
H	-0.7541421806	-2.7060652896	-1.0686411421	 0.123151
H	-3.2561412297	-1.8922567157	-2.2225798117	 0.118525
H	-2.8736655719	 0.7457296839	-1.0793269614	 0.10692
