11
gdb 23642	3.93092	1.97423	1.3142	6.016	55.34	-0.2511	-0.0578	0.1933	811.7922	0.073943	-438.757157	-438.751263	-438.750319	-438.787422	22.048	
F	 0.0186415825	 0.0647832698	 0.0037293968	-0.058554
C	-0.016803043	 1.3899280158	 0.0108346894	 0.362455
N	-1.1792364079	 1.9400218392	 0.0293945819	-0.373642
C	-1.2745466177	 3.3210230076	 0.0377033151	 0.452655
O	-2.3026504383	 3.9540449613	 0.0548570191	-0.370955
N	-0.0297208121	 4.0133897737	 0.0243488561	-0.339338
C	 1.1748693118	 3.4035192209	 0.0049513381	 0.073676
C	 1.2450447368	 2.0453582533	-0.0028854718	-0.309555
H	-0.1069647836	 5.020262645	 0.0305075199	 0.276064
H	 2.0476764413	 4.0457539473	-0.0036019584	 0.154627
H	 2.1763826002	 1.5011717362	-0.0182347162	 0.132566
