19
gdb 66551	3.00649	1.9459	1.6343	0.375	81.96	-0.2294	0.0166	0.246	907.5914	0.161481	-348.712016	-348.705358	-348.704414	-348.74252	28.526	
C	 0.0046891339	 1.4765858491	 0.0598688483	-0.514739
C	 0.0008625167	-0.0204338079	-0.0090122724	 0.367901
C	-0.9444537811	-0.8991034727	 0.8130132751	-0.122698
C	 0.5510568075	-1.0440645897	 0.9524222136	-0.170961
C	 0.4475584467	-2.068535674	-0.2327065201	-0.062254
C	-1.0949212728	-2.211975847	-0.0214421333	-0.07142
C	-1.7116123593	-1.997385457	-1.3806206185	-0.090497
C	-0.8836377796	-1.2337380884	-2.1066540472	-0.094871
C	 0.3227721233	-0.9052885853	-1.2650145821	-0.12429
H	 0.9674931423	 1.8896740894	-0.2628665714	 0.115386
H	-0.7741578263	 1.9045580262	-0.5828610508	 0.120273
H	-0.1796734702	 1.8284064995	 1.0808111911	 0.118
H	-1.6551900899	-0.4667388042	 1.5062018954	 0.079946
H	 1.2108202144	-0.9620906208	 1.8039863046	 0.084298
H	 1.0808823274	-2.9342911225	-0.4223820727	 0.06519
H	-1.4340970308	-3.0682311934	 0.5624842322	 0.06106
H	-2.7001201031	-2.3342787297	-1.6704407892	 0.091408
H	-1.0746108061	-0.8366249429	-3.0968045915	 0.091258
H	 1.2361911067	-0.6035994387	-1.7803329611	 0.05701
