16
gdb 42218	3.3402	1.30601	1.10093	3.8981	77.84	-0.242	-0.0332	0.2088	1109.4427	0.123639	-400.661069	-400.653273	-400.652329	-400.69375	29.521	
O	-0.1715535264	 0.0502363251	 0.5521336383	-0.349003
C	-0.1212299187	 1.1902939408	 0.1298300142	 0.220371
C	 1.1010813905	 1.9840594379	 0.154448365	 0.254616
C	 2.1173234762	 2.6243893429	 0.2181122873	-0.425771
N	-1.1710300781	 1.8189727851	-0.5043592578	-0.093784
C	-1.6943977681	 3.2123855403	-0.2221978824	-0.032363
C	-2.9359044119	 2.8080272419	-1.0645914507	-0.218906
C	-2.6159988536	 1.6119888911	-0.1227997428	-0.022158
C	-2.4231251266	 2.6438541038	 1.0322279846	-0.220083
H	 3.0240031329	 3.1757532323	 0.2763394663	 0.209543
H	-1.0545399982	 4.0881496716	-0.3148585167	 0.107535
H	-3.8579004434	 3.3527067613	-0.859832614	 0.107384
H	-2.7613598223	 2.6428976908	-2.1276854455	 0.117378
H	-3.0559904683	 0.6182973866	-0.0917110441	 0.116569
H	-1.7909407254	 2.3245910388	 1.8620319172	 0.125254
H	-3.3134371586	 3.1788038597	 1.372040481	 0.103417
