14
gdb 5037	3.53333	2.40074	1.44224	5.6132	66.91	-0.2335	-0.0535	0.18	814.8629	0.109378	-378.786153	-378.77942	-378.778476	-378.817206	24.775	
C	-0.0313781697	 1.4543069796	 0.000159691	-0.331927
N	-0.0464688112	-0.0045768435	 0.0066269884	-0.108637
C	-1.1865408551	-0.7086984066	-0.1526318612	 0.058092
C	-1.1675248315	-2.0724965057	-0.141582917	-0.201242
C	 0.1004088305	-2.6758699215	 0.0440909648	 0.031225
N	 1.2237101762	-2.0283665736	 0.2012815966	-0.326808
C	 1.2220606472	-0.6470844039	 0.1924702942	 0.447465
O	 2.205058183	 0.0506477143	 0.3290641582	-0.390567
H	 0.6203885671	 1.8144867772	-0.7987952058	 0.163049
H	-1.0475827273	 1.8233328956	-0.1476829503	 0.125666
H	 0.3705003992	 1.8249497833	 0.9456669604	 0.163057
H	-2.0937651218	-0.1288435075	-0.2863289532	 0.136576
H	-2.070559716	-2.6520049321	-0.2676278987	 0.112827
H	 0.1695667192	-3.7642763756	 0.0607635125	 0.121224
