19
gdb 67295	3.04951	1.5728	1.29781	1.8019	79.48	-0.2289	0.0909	0.3198	1036.0516	0.158152	-385.780127	-385.772434	-385.77149	-385.811881	31.063	
C	-0.0403295121	 1.486407794	 0.0050269138	-0.53535
C	-0.0729402104	-0.0125735648	-0.0084931746	 0.199849
C	 0.8547136447	-0.9832409019	-0.8276737493	 0.063945
O	 1.9287728551	-0.980327746	 0.1592640843	-0.343018
C	 0.7000341822	-0.9958784991	 0.9451455537	 0.063941
C	-0.0678879385	-1.9522331491	-0.0218754611	-0.220442
C	-1.247125284	-0.9893696746	-0.1179032403	 0.356592
C	-2.5912525708	-0.9960560315	 0.5303881085	-0.345491
C	-2.4586680209	-0.9852293299	-0.9891976332	-0.34549
H	 0.9929289035	 1.8363956173	 0.0978467489	 0.138924
H	-0.4600529263	 1.9021038134	-0.9175625274	 0.122854
H	-0.6142836682	 1.8895497193	 0.8465702267	 0.122852
H	 1.111741414	-0.9786422785	-1.8868880666	 0.095162
H	 0.7697418547	-1.0065834685	 2.0328244705	 0.095162
H	-0.0395069314	-3.0411519114	-0.0271602542	 0.08276
H	-2.9395551618	-1.9100017574	 1.001458819	 0.112769
H	-2.9436275126	-0.0885228347	 1.0113851693	 0.111106
H	-2.7235411682	-0.0705502623	-1.5110660757	 0.111106
H	-2.7190038487	-1.8919918242	-1.5263437125	 0.112769
