19
gdb 106211	2.83483	1.82159	1.34539	1.0456	79.38	-0.2229	0.0046	0.2275	995.9386	0.159809	-385.82141	-385.813975	-385.813031	-385.85309	30.087	
C	 0.0991617939	 1.3289882223	-0.1233643916	-0.262872
O	-0.1415561782	-0.0428567189	 0.1237151041	-0.311264
C	 0.5762675768	-0.5597655657	 1.1919600726	 0.447975
C	 0.2402572168	-0.1308832955	 2.6214075482	-0.19153
C	 1.0574716135	-0.8740084069	 3.3671030383	-0.10549
C	 1.8340603605	-1.6955730098	 2.3487654809	-0.069615
C	 0.8226591744	-2.1067700891	 1.2143591189	-0.09325
C	 1.9427465163	-1.9510737491	 0.1577275684	-0.26202
C	 2.1501285297	-0.7615188447	 1.1256082485	-0.108453
H	 1.1483032791	 1.5135162324	-0.3947030551	 0.11233
H	-0.5410726804	 1.6213114678	-0.9586293881	 0.128
H	-0.1465626268	 1.9521833695	 0.7482130615	 0.110724
H	-0.5133178849	 0.5880527614	 2.909562264	 0.104531
H	 1.1616523717	-0.920328368	 4.4419990123	 0.104786
H	 2.5862836038	-2.4137202872	 2.6721708159	 0.06859
H	 0.0492390182	-2.8760050241	 1.2818150156	 0.070674
H	 2.7211968844	-2.7186653657	 0.1553144654	 0.086498
H	 1.6197510388	-1.7063962179	-0.8555001161	 0.104453
H	 2.9156022324	 0.0184333192	 1.0947732564	 0.065934
