19
gdb 91776	2.42414	1.81544	1.60578	2.5546	68.87	-0.2492	0.062	0.3111	940.0112	0.162519	-460.173266	-460.166042	-460.165097	-460.204562	29.613	
O	 0.0794222253	 1.42054726	-0.1600739157	-0.430017
C	 0.0583286743	 0.00910839	-0.0209137065	 0.098577
C	 0.6514419467	-0.5404770195	 1.3076040075	-0.300059
C	-0.5341534528	-1.3132649165	 1.9276516017	 0.194027
O	-1.2944464779	-1.7066493405	 0.7943119846	-0.255852
C	-1.4076867962	-0.4913584187	 0.0437011791	 0.061301
C	-2.3409432459	 0.4515316641	 0.8146469542	-0.21534
C	-1.7952817898	 0.6661349305	 2.2346392102	-0.08434
O	-1.3105656135	-0.5482011543	 2.8150332636	-0.258958
H	 0.9933876165	 1.6983375402	-0.2702194614	 0.289171
H	 0.5571574075	-0.4608295552	-0.8780175782	 0.077667
H	 1.478415429	-1.2295882773	 1.1212560467	 0.106766
H	 1.010539063	 0.2625171984	 1.9558032702	 0.113144
H	-0.2543240504	-2.2136706945	 2.4762293835	 0.08767
H	-1.8112193027	-0.7412456128	-0.9394247467	 0.079805
H	-2.4406212507	 1.4137428211	 0.3055386132	 0.114937
H	-3.3249018119	-0.0258926016	 0.8554709215	 0.107634
H	-0.9945435944	 1.4168628897	 2.2073922956	 0.106134
H	-2.574321376	 1.0283949268	 2.9101501469	 0.10773
