21
gdb 71248	2.22316	2.06472	1.58491	1.5117	81.38	-0.2347	0.0891	0.3238	981.8983	0.183102	-387.067985	-387.060097	-387.059153	-387.099605	32.52	
C	-0.1419053006	 1.4788616244	 0.0311955077	-0.50542
C	 0.0313503358	-0.0122279246	 0.0315735989	 0.373394
C	 0.5279956935	-0.7527294367	-1.2299994483	-0.239736
C	 0.7380269561	-2.0883204415	-0.4930642272	-0.09218
C	 1.8664970456	-1.7156435793	 0.5027705474	-0.304346
C	 0.7907325098	-0.8405681512	 1.1737095248	 0.285416
C	 0.8805624331	-0.2595539644	 2.5600273038	-0.515853
C	-0.3067134603	-1.8171166889	 0.6916554904	 0.073724
O	-1.1973873518	-0.7682485568	 0.3080670838	-0.331371
H	 0.8132555815	 1.9737652248	-0.1722254617	 0.12012
H	-0.8517656883	 1.7764706722	-0.7479442243	 0.130324
H	-0.521120227	 1.8371023709	 0.992163638	 0.126918
H	-0.2548287623	-0.7675337155	-1.9917379478	 0.101373
H	 1.4538538498	-0.3567960803	-1.6576536746	 0.090388
H	 0.7549532171	-3.0121115106	-1.0682523624	 0.065186
H	 2.148764484	-2.5448093062	 1.1598212947	 0.094987
H	 2.7697463814	-1.249761947	 0.0955126011	 0.089239
H	 1.6025283667	 0.5643610396	 2.6051994858	 0.116319
H	-0.0917072732	 0.1272058804	 2.8829673494	 0.129346
H	 1.1983339759	-1.0170880791	 3.284570758	 0.115206
H	-0.7511028968	-2.6396384403	 1.2513437722	 0.076965
