18
gdb 44576	3.02348	1.57627	1.41098	3.7265	74.01	-0.2435	0.0286	0.2721	976.8316	0.150751	-401.970038	-401.96301	-401.962066	-402.001547	28.411	
O	-0.2613464145	 0.1095230978	 0.4341102773	-0.363742
C	-0.1273463691	 1.2702387345	 0.1528114426	 0.398502
N	-1.0213628945	 2.2577249081	-0.2031679579	-0.315537
C	-0.0396692087	 3.3578626172	-0.1614996377	-0.00388
C	-0.0038562907	 4.2454344146	 1.0772783656	-0.04509
C	-0.2799371415	 3.5920542116	 2.4114434045	-0.300555
C	 1.1421605037	 3.7909118222	 1.9690573084	-0.023039
C	 1.8663187568	 2.6145012674	 1.3131415829	-0.25574
C	 1.0606838778	 2.2645111961	 0.0484697961	-0.169169
H	-2.0279197091	 2.2739682347	-0.1145813028	 0.245653
H	-0.0067276108	 3.9387144049	-1.0861742804	 0.083137
H	-0.2365732047	 5.297382703	 0.9583043115	 0.08426
H	-0.651927809	 4.230292579	 3.205554319	 0.113163
H	-0.6909636824	 2.5877407237	 2.4256970354	 0.130461
H	 1.7429724287	 4.5175442587	 2.5053721674	 0.086668
H	 2.8814730617	 2.9162604472	 1.0366449738	 0.106104
H	 1.9597290659	 1.7510459797	 1.9806627041	 0.125171
H	 1.6875747205	 2.0526802896	-0.8193916399	 0.103634
