20
gdb 79587	2.16463	1.66647	1.51194	1.66	78.34	-0.2233	0.0706	0.2939	1047.277	0.168547	-403.079647	-403.070583	-403.069639	-403.112653	34.687	
C	-0.1784469702	 1.48085565	-0.1140911154	-0.320854
N	 0.0807674321	 0.0555944388	 0.0441127385	-0.123302
C	 1.3968453121	-0.5281947624	-0.1538537554	-0.142621
C	 2.5193455586	 0.3201599602	 0.4233928625	-0.068916
O	 3.0870486728	-0.3925302982	 1.539670959	-0.291171
C	 1.8656719845	 0.346209878	 1.7466111756	 0.35296
C	 1.8470108623	 1.3620013948	 2.8438295558	-0.509038
C	 0.7211825585	-0.5305647612	 1.2099804959	 0.259929
C	 0.0609146753	-1.6475025934	 1.9629612332	-0.497725
H	 0.625119513	 2.1435099903	 0.2344536271	 0.108691
H	-0.3524659393	 1.6855900942	-1.1753821032	 0.124125
H	-1.0944481139	 1.7339031203	 0.4295796672	 0.122299
H	 1.5065141274	-1.3517518783	-0.8508001906	 0.101208
H	 3.1488457935	 1.0639151595	-0.0513193085	 0.104487
H	 2.7810423648	 1.9298281771	 2.853095311	 0.135747
H	 1.010321475	 2.057043098	 2.7240639803	 0.127245
H	 1.7388681143	 0.8737345228	 3.8188435228	 0.132875
H	-0.614698819	-1.2607047753	 2.7351422694	 0.118517
H	-0.528416829	-2.2682738301	 1.2837104406	 0.13245
H	 0.813759987	-2.272687935	 2.453168494	 0.133096
