21
gdb 58163	2.64125	1.03485	0.89754	2.6066	85.98	-0.2596	-0.0568	0.2028	1413.5322	0.178494	-387.08054	-387.069659	-387.068715	-387.116782	39.346	
C	-0.082871431	 1.5317905953	-0.0272000075	-0.413623
C	 0.0664478101	 0.0051810306	-0.0902000725	 0.049921
C	 0.8408728533	-0.3978100629	-1.3550186219	-0.404002
C	 0.7412807708	-0.5700614984	 1.1743515297	-0.070514
C	 0.1058801304	-0.0986263156	 2.5025639665	-0.417285
C	 0.6998774656	-2.0986719336	 1.1860739565	 0.220037
O	-0.1393703955	-2.7542568272	 0.6066471811	-0.301192
C	 1.7255975829	-2.7446112761	 1.995317254	 0.276354
C	 2.5873656133	-3.2654796085	 2.6555457671	-0.412078
H	 0.8894328284	 2.0214032453	 0.109555309	 0.109744
H	-0.5094898811	 1.9076664905	-0.9626455547	 0.114414
H	-0.7392190294	 1.854940891	 0.78499096	 0.11525
H	-0.9331779122	-0.4415996369	-0.1493891967	 0.094523
H	 1.8549131695	 0.0207266476	-1.3431118906	 0.106929
H	 0.9191224726	-1.483044197	-1.4532555343	 0.130807
H	 0.3396335112	-0.0186024324	-2.2511557587	 0.11192
H	 1.7990395175	-0.2730449318	 1.1882867012	 0.086463
H	-0.9686398291	-0.3089903816	 2.512106419	 0.131593
H	 0.5597553711	-0.6107345121	 3.356202464	 0.128489
H	 0.2502326935	 0.9743615735	 2.6439891482	 0.128642
H	 3.3410450481	-3.7425623194	 3.2338611203	 0.213609
