22
gdb 122830	6.76695	0.51939	0.4897	2.3651	81.65	-0.2473	0.0686	0.3159	2303.9273	0.192363	-441.539527	-441.528054	-441.52711	-441.578205	38.516	
C	-0.1307280024	 1.572947976	 0.0401554557	-0.380526
C	-0.0600276614	 0.0464967079	-0.0535420933	-0.165642
C	-1.4362599353	-0.6197019202	 0.0531745604	-0.185809
C	-1.3519603534	-2.1345773976	-0.0414796192	-0.054141
O	-2.6861632003	-2.6538579792	 0.0687880785	-0.281399
C	-2.7856500822	-4.0070945637	 0.0064375729	 0.517583
O	-1.8451979066	-4.7590066281	-0.1323942081	-0.414366
N	-4.0902456576	-4.374565595	 0.1230270671	-0.357769
C	-4.5108710487	-5.7576067326	 0.0918828154	-0.328383
H	 0.8634454929	 2.0233408859	-0.0385099554	 0.113607
H	-0.7504670593	 1.9899540513	-0.7612752934	 0.115388
H	-0.5666553304	 1.8907462044	 0.9936942587	 0.115388
H	 0.4113870581	-0.2412921815	-1.0023185504	 0.100149
H	 0.594080567	-0.3397252608	 0.7390506842	 0.10016
H	-1.9112666451	-0.3468547663	 1.0038359111	 0.102391
H	-2.0945040758	-0.2479374669	-0.7420257082	 0.1024
H	-0.9159137146	-2.4557548578	-0.993759766	 0.116515
H	-0.7324086104	-2.5551625851	 0.7580988266	 0.116671
H	-4.7674723987	-3.6392969205	 0.2338788384	 0.250916
H	-5.1930027963	-5.9531253252	-0.7437615154	 0.123598
H	-3.6157835807	-6.367835372	-0.0341677672	 0.169673
H	-5.0092355889	-6.0487295231	 1.0239131976	 0.123598
