21
gdb 81014	2.26644	1.73116	1.59065	1.5399	82.18	-0.2368	0.0109	0.2477	1010.5649	0.183984	-387.096755	-387.088743	-387.087798	-387.128433	33.234	
C	 0.007043178	 1.5435647148	 0.0733655335	-0.485096
C	-0.012125688	 0.0281588151	-0.009161514	 0.271067
C	 0.2173948171	-0.6663883847	-1.3863145295	-0.257592
C	-0.7188136659	-1.8068853911	-0.8848893855	-0.122292
C	 0.075326189	-2.7094642008	 0.0319118305	-0.07417
C	 0.8482043052	-2.1383254062	 0.960421474	-0.092984
C	 0.8956153741	-0.6296602753	 1.0533139281	-0.290044
C	-1.397512808	-0.7039357659	-0.0071323168	 0.140163
O	-2.0361635661	-1.0309301604	 1.1925569526	-0.443018
H	 1.019608419	 1.9417111078	-0.0642023438	 0.1102
H	-0.6342975408	 1.987805817	-0.6954705896	 0.109166
H	-0.3545204762	 1.8858030478	 1.0501239178	 0.121113
H	-0.233067042	-0.092628587	-2.2015699726	 0.09462
H	 1.2382310014	-0.9491311524	-1.6528135308	 0.096468
H	-1.3285846528	-2.3515095101	-1.6066040113	 0.060868
H	 0.0016942746	-3.7875640482	-0.072088871	 0.091445
H	 1.4507624502	-2.7230043841	 1.649965006	 0.091898
H	 1.9289181297	-0.2734155504	 0.935721172	 0.106956
H	 0.5821856813	-0.3024935782	 2.0554636197	 0.110284
H	-2.1203079241	-0.1340062711	-0.599123229	 0.081979
H	-1.4974176659	-1.7079201065	 1.6225123497	 0.278969
