17
gdb 49090	3.47949	1.50936	1.26545	2.6995	72.54	-0.2374	-0.0247	0.2126	996.8363	0.136635	-421.805398	-421.79824	-421.797296	-421.837022	27.974	
O	-0.317258363	 0.5942688708	-0.8450744013	-0.281187
C	 0.1701348929	 1.072010691	 0.1573406971	 0.041264
C	 1.333382122	 1.9714869691	 0.1634801115	 0.203534
C	 1.8360430491	 2.6853718925	 1.4191630675	-0.314066
C	 2.5663585222	 3.9448243801	 0.8738038092	-0.210916
C	 2.8436893903	 3.5705810076	-0.5760073454	 0.072123
O	 3.6232797122	 2.3167479521	-0.5727695009	-0.306922
C	 2.4360242189	 1.6127671785	-0.8790794345	 0.100367
C	 1.6056177533	 2.8094271369	-1.0925903638	-0.172301
H	-0.2421383075	 0.8318071812	 1.1634713931	 0.071263
H	 1.0067467731	 2.9471841258	 2.0827436756	 0.107812
H	 2.5247722285	 2.0531594125	 1.9863688513	 0.12071
H	 1.9208870123	 4.8299896777	 0.9088870522	 0.107665
H	 3.4864882654	 4.1710296213	 1.4187223023	 0.11616
H	 3.3090121468	 4.3238013278	-1.2124786655	 0.093414
H	 2.4866390501	 0.6428560989	-1.3574625143	 0.130337
H	 0.8644118936	 3.0667887764	-1.8350378741	 0.120742
