19
gdb 31825	4.75119	0.99357	0.832	2.9657	89.88	-0.1966	-0.0104	0.1863	1406.5463	0.160552	-382.133241	-382.124244	-382.1233	-382.167759	32.991	
C	-0.0026329813	 1.4555396478	-0.0624471491	-0.323914
N	-0.0977083507	 0.0141624753	 0.0562341875	-0.374682
C	 0.5802608572	-0.6773114149	 1.0496218635	 0.306067
C	 1.123582052	-0.04716866	 2.1825866304	-0.079903
N	 1.7386137691	-0.6923429152	 3.1718668373	-0.313271
C	 1.8676208134	-2.0220143266	 3.1053513559	 0.304056
C	 2.5717323354	-2.6990804698	 4.2535811066	-0.466622
C	 1.3686773607	-2.7385822297	 2.0130608705	-0.147739
C	 0.7249582674	-2.0698453162	 0.9855207208	-0.167403
H	 1.0335362858	 1.8225723705	-0.1299492372	 0.118829
H	-0.5401592961	 1.7696517011	-0.9597692367	 0.124974
H	-0.4774038627	 1.9460947471	 0.7943266592	 0.138544
H	-0.1488699651	-0.4755666855	-0.8232455941	 0.235892
H	 1.0543204414	 1.0313547165	 2.2925863126	 0.093436
H	 2.0330589652	-2.5311960456	 5.1923489651	 0.132989
H	 2.6559899868	-3.7773992821	 4.0941564956	 0.11073
H	 3.5781546633	-2.288860844	 4.3865243715	 0.132798
H	 1.4856229273	-3.8165696022	 1.9701149302	 0.089513
H	 0.3293427609	-2.6162842366	 0.1332822902	 0.085707
