15
gdb 66882	2.67968	2.07147	1.45421	2.9229	68.72	-0.2344	-0.0356	0.1988	894.0133	0.112896	-416.781443	-416.774375	-416.77343	-416.812814	27.241	
C	-0.0067318641	 1.550611824	 0.0381309096	-0.500315
C	-0.0377846578	 0.0574103323	 0.0450340069	 0.195275
C	 0.1189906108	-0.9960872395	 1.1364564233	-0.100538
C	-0.6160085471	-2.0667869382	 0.2728224748	-0.16831
N	 0.426210456	-2.7124477198	-0.5511473483	-0.17648
C	 1.3810111039	-1.8784082977	-0.5642878412	 0.033876
N	 1.2493729559	-0.6966549729	 0.2635392923	-0.185315
C	-1.1129529761	-0.82950291	-0.5334263827	 0.411374
O	-2.1194152305	-0.5825215007	-1.1329574473	-0.316637
H	 0.6759796642	 1.925679545	 0.80408471	 0.140499
H	 0.3342931634	 1.9221286753	-0.9333031382	 0.144609
H	-1.0092339078	 1.949957258	 0.2174968284	 0.144319
H	 0.1695998772	-0.8623477918	 2.2103592303	 0.126229
H	-1.3510875412	-2.7516680891	 0.6858294456	 0.106857
H	 2.2967846733	-1.998422665	-1.1319399036	 0.144559
