18
gdb 100513	2.64082	1.10363	0.85229	2.8415	70.14	-0.255	-0.0771	0.1778	1366.7883	0.145312	-476.275101	-476.264919	-476.263974	-476.310682	36.352	
C	-0.0264087794	 1.548017136	 0.069731091	-0.383666
C	-0.0890505955	 0.0263606021	-0.074752446	-0.200319
C	 0.7637334542	-0.461983773	-1.2718426161	 0.0598
O	 2.1068085065	-0.0610705115	-1.1507809665	-0.439848
C	 0.6889597899	-1.9712653616	-1.3814430931	 0.265906
O	 1.6479159107	-2.670083904	-1.1237816228	-0.337355
C	-0.6437291687	-2.6025749855	-1.833944515	 0.345065
N	-0.5939765935	-3.9517358935	-1.8384117593	-0.517375
O	-1.5987367621	-1.9189292245	-2.1507090742	-0.349188
H	 1.0084002572	 1.8813693417	 0.1776579352	 0.138347
H	-0.4536044256	 2.0431863445	-0.8090398707	 0.118654
H	-0.5908849424	 1.8765199278	 0.9474580625	 0.112102
H	 0.2924149276	-0.4530140539	 0.8357412358	 0.098077
H	-1.1205599418	-0.3052497976	-0.2229138654	 0.129341
H	 0.3375396159	-0.0339314615	-2.1898071388	 0.114451
H	 2.60686723	-0.8576637355	-0.9200930637	 0.290581
H	 0.2646439003	-4.4119801411	-1.5828193281	 0.282079
H	-1.3929930633	-4.4817370591	-2.142898085	 0.273347
