16
gdb 48799	2.79577	1.48243	1.15062	2.381	70.76	-0.254	-0.0503	0.2037	1063.5974	0.122779	-437.812585	-437.804692	-437.803748	-437.845256	29.461	
O	-0.2423749005	 0.3284978445	-0.8438209199	-0.248755
C	 0.0201019179	 1.0725762895	 0.066647456	 0.047186
C	 1.2502269077	 1.888209236	 0.1621572758	 0.237804
O	 2.0850317171	 2.0443075077	-0.9922484729	-0.256172
C	 2.6716507448	 1.4172961753	 0.1310161537	-0.017852
C	 3.1119537734	 2.5063927583	 1.1226479529	-0.325889
C	 1.6450973857	 2.9966345237	 1.1371357155	 0.277379
C	 1.0589116257	 4.3440249705	 1.2669821172	-0.294798
N	 0.9628144125	 3.3620568736	 2.372300236	-0.365312
H	-0.6601174345	 1.1821550965	 0.9417197932	 0.071212
H	 3.037884218	 0.4046143852	 0.0059497546	 0.130339
H	 3.4069123279	 2.1131934252	 2.0980678694	 0.130133
H	 3.8725618058	 3.1923566548	 0.7435370044	 0.123727
H	 1.7007726804	 5.195246892	 1.474953261	 0.130666
H	 0.1683841596	 4.5748209934	 0.6880651939	 0.12237
H	 0.0273875285	 2.9647166037	 2.4129774492	 0.237962
