18
gdb 96622	3.25254	1.03361	0.83427	3.2652	78.85	-0.2428	-0.0597	0.1831	1391.1883	0.147225	-435.263299	-435.25375	-435.252806	-435.298136	34.226	
C	-0.0559170374	 1.5531808338	-0.3400067737	-0.342861
N	 0.0605642157	 0.1257740707	-0.1124308676	-0.272771
C	-1.0269904948	-0.5412190102	 0.0013565697	 0.278055
N	-2.3148598889	-0.0945132744	-0.0902509716	-0.552461
C	-0.9382557193	-2.0301413697	 0.2481174377	 0.351449
O	-1.9587452643	-2.680119979	 0.4071668123	-0.364768
C	 0.4089724994	-2.653626362	 0.2958369723	-0.098545
C	 0.6553897962	-3.5880711842	 1.4458533478	-0.21701
N	 0.4697361354	-4.1142153649	 0.1037057746	-0.308252
H	 0.9381497412	 1.9894358806	-0.4595370061	 0.130408
H	-0.6405879281	 1.7794254605	-1.2455880423	 0.121091
H	-0.5462767624	 2.0690326968	 0.5021867581	 0.112374
H	-2.5185866453	 0.8835116136	 0.0171718385	 0.260436
H	-3.0252886861	-0.7593435181	 0.1770721791	 0.27221
H	 1.2270587145	-2.0718898314	-0.10471679	 0.127727
H	 1.6634702254	-3.6549551261	 1.8442607211	 0.1292
H	-0.1482004514	-3.7042621887	 2.167798516	 0.128155
H	-0.49300716	-4.4426617174	 0.0179835242	 0.245562
