19
gdb 69937	3.91365	1.37414	1.20408	1.5751	81.65	-0.2296	0.0008	0.2305	1080.2008	0.160252	-385.842662	-385.835116	-385.834172	-385.874259	30.39	
C	-0.0432005831	 1.5356082577	-0.0159789439	-0.484894
C	 0.0352827136	 0.0280457096	-0.0178745607	 0.330508
C	-0.8069902867	-0.7987584129	 0.9353562536	-0.314313
C	 0.6892761399	-0.7950850062	 1.1176400286	-0.125703
C	 1.5316880346	-1.8425700899	 0.43059356	 0.105067
O	 1.1723238414	-3.2789697626	 0.3558651672	-0.308976
C	 1.2463909042	-3.2541485387	-1.1027810151	-0.143374
C	 1.153862862	-1.7494031481	-1.0171373873	 0.141972
C	 0.3077291771	-0.7540580821	-1.2776238408	-0.266434
H	 0.8927318913	 1.9840454697	-0.3666482087	 0.121235
H	-0.8470550222	 1.8883846562	-0.673035147	 0.119366
H	-0.247233874	 1.9217724573	 0.9874569145	 0.116814
H	-1.3780346661	-0.2613771963	 1.6863803484	 0.110239
H	-1.2787929777	-1.7036468252	 0.5680819726	 0.122667
H	 1.090124182	-0.2836295918	 1.9847291266	 0.082891
H	 2.5934160091	-1.7627307041	 0.6965765332	 0.075484
H	 2.202974872	-3.6619558323	-1.4560371664	 0.103702
H	 0.417030625	-3.7895206105	-1.5757959674	 0.116004
H	-0.2900001122	-0.6248625597	-2.1738762572	 0.097744
