18
gdb 49938	4.63222	0.77112	0.70981	2.8501	79.87	-0.2344	-0.0236	0.2108	1557.7587	0.145287	-401.888389	-401.879156	-401.878211	-401.923319	33.037	
O	-0.2328477721	-0.0165107972	-0.1469673758	-0.256298
C	-0.0995627204	 1.1646264504	 0.0469623256	 0.171301
C	 1.2207796529	 1.8878772173	 0.0476271517	-0.109974
C	 1.1924381695	 3.1993428717	-0.792677957	-0.190281
N	 0.8968725787	 3.9492518923	 0.4392278568	-0.063845
C	 1.4860194688	 5.267971719	 0.5997111686	-0.311873
C	 1.1868624736	 5.8424175541	 1.908148989	 0.304124
C	 0.9587432865	 6.3017651558	 2.9943436711	-0.425886
C	 1.39074409	 2.8379307026	 1.2716652336	-0.184769
H	-0.9757875495	 1.8235310962	 0.246012873	 0.089172
H	 2.028079995	 1.1851380513	-0.153659743	 0.097998
H	 2.1856557912	 3.4154795116	-1.2192916863	 0.097077
H	 0.4389629863	 3.2913752699	-1.5830305352	 0.114722
H	 2.5860914637	 5.2459217556	 0.4601381801	 0.107037
H	 1.0860184626	 5.9181178551	-0.1893717537	 0.138438
H	 0.7496227182	 6.7152132172	 3.949932251	 0.201384
H	 0.7994210563	 2.6354874319	 2.1699882706	 0.121222
H	 2.4510235188	 2.9323353152	 1.5548648098	 0.100452
