17
gdb 14280	3.47766	1.80211	1.73775	2.1309	67.14	-0.2251	-0.0232	0.2019	844.4888	0.142603	-363.86488	-363.857665	-363.856721	-363.896303	27.718	
C	-0.4143457482	 1.3892692107	 0.2247956648	-0.435607
C	-0.0296935524	-0.0601243828	 0.0228008035	 0.015469
C	 0.6162215846	-0.5946304073	-1.2080296691	-0.05181
C	 1.2362500224	 0.3666133312	-2.1968617501	-0.349366
C	 2.3083490102	 1.1207692656	-1.3921795226	 0.381036
O	 2.9546607447	 2.0599911952	-1.7719222567	-0.304255
C	 2.404833681	 0.4496773282	-0.0118959131	-0.273018
N	 1.3569154527	-0.5653538738	 0.0921586446	-0.122003
H	 0.1886603059	 2.0955229296	-0.3503609256	 0.135625
H	-1.4584828567	 1.5348750696	-0.0710486246	 0.129697
H	-0.3310436813	 1.6656768821	 1.2816866844	 0.13194
H	-0.7097388099	-0.7442638829	 0.5284896878	 0.095438
H	 0.3435920597	-1.5843476866	-1.5630948472	 0.094867
H	 1.727369665	-0.164903766	-3.019934684	 0.139137
H	 0.5409614216	 1.080006946	-2.648837582	 0.139229
H	 3.3852349401	-0.0346174601	 0.0764397085	 0.137365
H	 2.3475595707	 1.2027187314	 0.7805760414	 0.136255
