23
gdb 108167	2.42759	1.38207	1.17985	0.2021	90.23	-0.221	0.024	0.245	1216.025	0.206053	-351.164708	-351.155551	-351.154607	-351.198179	35.848	
C	-0.2801339837	 1.4920302991	 0.1180843479	-0.37491
C	 0.142636714	 0.023470244	-0.0215381686	-0.278272
C	 0.8670366458	-0.5129485748	 1.1957937984	 0.349797
C	 2.2680186568	 0.0425135901	 1.5047981884	-0.333526
C	 3.0477654173	-1.1576086233	 1.9981522089	-0.082614
C	 2.3091648334	-2.270312599	 1.9813739376	-0.069474
C	 0.9198835896	-2.0058117871	 1.5173810109	-0.164215
C	 0.062597085	-1.0567738893	 2.3557734591	-0.040879
C	 0.3214649149	-0.7398674421	 3.8109461538	-0.421407
H	 0.5866524507	 2.1433351999	 0.27314203	 0.116722
H	-0.8003678847	 1.8412388744	-0.7794422144	 0.108723
H	-0.952698115	 1.627031288	 0.9718532995	 0.11573
H	-0.745249191	-0.5925251927	-0.2117504742	 0.090753
H	 0.7863605739	-0.0884467307	-0.9049540786	 0.092415
H	 2.7246239964	 0.4763063435	 0.6037397855	 0.101456
H	 2.2463349723	 0.849028687	 2.2500620393	 0.107546
H	 4.0736259483	-1.0858633752	 2.3425995763	 0.089665
H	 2.6494143129	-3.253013959	 2.2891358863	 0.090779
H	 0.408952017	-2.740743785	 0.9024345722	 0.076867
H	-0.9975482053	-1.1429221927	 2.1212021402	 0.076483
H	 1.3861293096	-0.774166138	 4.0530616535	 0.124251
H	-0.0517392543	 0.2587744295	 4.0660262043	 0.111789
H	-0.1897547738	-1.4589553765	 4.4607372036	 0.112322
