15
gdb 29382	5.88889	0.91932	0.8008	2.0929	72.77	-0.1944	0.0193	0.2137	1340.0163	0.114591	-413.042731	-413.034366	-413.033422	-413.076774	30.371	
N	-0.5765008905	 1.2304143554	 0.8517389093	-0.597347
C	-0.1802660048	 0.0351811927	 0.2511014247	 0.289127
C	-0.8480166646	-0.7460665984	-0.664124913	-0.188045
N	-0.0273231157	-1.8482764635	-0.8534200019	-0.278905
C	 1.0611791892	-1.6821174848	-0.0674511765	 0.381013
C	 2.1894962888	-2.6725481524	 0.0294526429	-0.456868
C	 2.0621160314	-3.7557539477	-0.9427904534	 0.266539
N	 1.9164922092	-4.5967290153	-1.7216257417	-0.310739
N	 1.0061095752	-0.5552545411	 0.613021991	-0.363266
H	 0.2184841679	 1.7205567582	 1.2404114622	 0.250123
H	-1.1044130751	 1.8386529503	 0.2410468458	 0.243511
H	-1.7878703624	-0.63702274	-1.1762971102	 0.122582
H	-0.1969066719	-2.6237686861	-1.4736157874	 0.280337
H	 3.1456558227	-2.1598108915	-0.1245881965	 0.181575
H	 2.2310058108	-3.1052029858	 1.0368240448	 0.180364
