19
gdb 6034	3.06876	1.52886	1.32102	2.0521	67.2	-0.241	0.0355	0.2765	1012.1446	0.162554	-402.235099	-402.224737	-402.223793	-402.270679	36.522	
C	-0.0222185321	 1.5483809639	 0.0152445943	-0.415236
C	 0.0001339552	 0.0052164782	 0.0175495691	 0.128595
C	 0.7483516055	-0.517858561	 1.261975588	-0.415025
C	-1.4425724561	-0.5295178444	 0.0229460042	-0.086199
O	-2.0844087343	-0.056681659	 1.2023046272	-0.435108
C	 0.6700319087	-0.5205704224	-1.2667036138	 0.397834
N	 1.9689104105	-0.1462735402	-1.4526887345	-0.522701
O	 0.0904830772	-1.2264568884	-2.07308715	-0.376091
H	 0.9837410363	 1.974120983	 0.0861994701	 0.09597
H	-0.4859139104	 1.9341225152	-0.898510095	 0.121242
H	-0.6035567174	 1.9052160285	 0.8683699592	 0.142301
H	 0.1971954576	-0.2380068121	 2.162536238	 0.142197
H	 0.8338966968	-1.6091692992	 1.2400068803	 0.121294
H	 1.7588242131	-0.1038606774	 1.3379255862	 0.096025
H	-1.9608433741	-0.1848834747	-0.8811382786	 0.099641
H	-1.4232731242	-1.6263955825	-0.0107587137	 0.099781
H	-2.9846470202	-0.3922070862	 1.2030547003	 0.289226
H	 2.468950922	 0.4346811666	-0.8047683013	 0.257272
H	 2.4398232258	-0.4706744378	-2.2808209399	 0.258982
