19
gdb 93568	3.54179	1.02338	0.84075	1.327	80.71	-0.2431	-0.0552	0.1879	1392.318	0.157185	-423.057381	-423.04794	-423.046996	-423.092405	33.719	
C	 0.1392532926	 1.5572449898	-0.0668501331	-0.390011
C	-0.0259997398	 0.0411938716	 0.0543394808	 0.100783
O	 0.5491053973	-0.6076650523	-1.0876168895	-0.283131
C	 1.4666594623	-1.6173573044	-0.6836779742	-0.177559
C	 1.5367973442	-1.5111449262	 0.8226374452	 0.195786
C	 0.6771496524	-0.5732767979	 1.2269261642	-0.182088
C	 2.3985303452	-2.3177512731	 1.727422204	 0.296167
C	 3.2995003933	-3.3497898535	 1.0755450459	-0.492194
O	 2.3783257466	-2.1535895386	 2.9304680064	-0.306298
H	 1.1985518338	 1.829172058	-0.0704042479	 0.123078
H	-0.3135232908	 1.9048531543	-0.9992615249	 0.131429
H	-0.3533532728	 2.0662713524	 0.7678561044	 0.117554
H	-1.1049994339	-0.1906523927	 0.0917092322	 0.09046
H	 1.1106729746	-2.606876727	-1.0144330016	 0.106563
H	 2.4380394978	-1.4469671335	-1.1718449232	 0.109905
H	 0.5039751944	-0.2913111771	 2.2575161614	 0.133665
H	 3.9873938242	-2.8668453269	 0.3715150343	 0.141303
H	 3.8688927194	-3.8770023005	 1.8412428306	 0.143864
H	 2.7058967191	-4.0671526325	 0.4966720051	 0.140726
