23
gdb 116170	2.36534	1.29087	0.88997	1.4954	83.05	-0.246	0.0892	0.3352	1381.9191	0.205875	-425.445654	-425.436145	-425.435201	-425.479768	36.051	
C	-0.0704499656	 1.3882636569	-0.0525446644	-0.240545
O	-0.0316214384	-0.0280949145	-0.0527704805	-0.237394
C	 0.6134583595	-0.5786156843	-1.1499191525	 0.232547
C	 0.7276926963	-2.0853368272	-0.9509332263	-0.217169
C	 1.3261288099	-2.7367343266	-2.2051249913	-0.229539
C	 0.5590341875	-2.2972568847	-3.4598256323	-0.187518
C	 0.4481538424	-0.7685285249	-3.5172633449	 0.151693
C	-0.4065339542	-0.2650115307	-4.6706235975	-0.40133
O	-0.13996256	-0.275578523	-2.3150815472	-0.277614
H	 0.9443557125	 1.8137128746	-0.0862000708	 0.101152
H	-0.6431219328	 1.7757944363	-0.901635513	 0.128242
H	-0.5507893067	 1.6911351866	 0.8803232155	 0.124268
H	 1.6236479306	-0.129695383	-1.2670492192	 0.040685
H	 1.3367031001	-2.289254054	-0.0647921342	 0.100086
H	-0.2809558751	-2.4678091696	-0.758184478	 0.111265
H	 2.3797437551	-2.4405257153	-2.3025308406	 0.095522
H	 1.3191272631	-3.8271833601	-2.1086671448	 0.098036
H	 1.0530871651	-2.6661895036	-4.365927887	 0.091337
H	-0.4549084484	-2.7172486026	-3.4455134186	 0.100215
H	 1.4671515596	-0.3490346164	-3.6113663126	 0.059496
H	-1.4236893764	-0.6611669082	-4.5918730229	 0.124068
H	-0.4629383667	 0.8268121373	-4.6565778643	 0.120155
H	 0.0163785228	-0.580025563	-5.6293609023	 0.112343
