17
gdb 61089	5.58224	0.58609	0.55885	1.3255	78.52	-0.2485	-0.033	0.2155	1895.6513	0.133186	-455.177129	-455.167215	-455.166271	-455.213527	33.218	
C	-0.136536948	 1.4719664638	 0.0995246103	-0.339224
N	-0.0316063605	 0.0187592851	 0.0127513435	-0.089716
C	 0.0272960888	-0.7456313785	 1.1641895771	 0.170396
O	-0.0008551237	-0.3057884679	 2.2869081597	-0.312843
C	 0.0086344491	-0.5933455649	-1.2261653021	 0.12081
N	-0.0400319584	 0.0685625437	-2.3058690164	-0.260676
C	-0.0018761176	-0.6697860661	-3.5476416793	-0.233549
C	-1.1827013958	-0.2919541685	-4.4355868334	 0.157524
O	-1.6382024283	-1.0111719324	-5.2840297952	-0.232565
H	 0.7127368656	 1.9372005872	-0.4060352423	 0.149203
H	-1.0527897731	 1.8095009929	-0.3904887293	 0.148388
H	-0.1469696508	 1.7354546243	 1.1556377236	 0.167427
H	 0.1048540189	-1.8248467085	 0.9375485796	 0.094568
H	 0.0884801681	-1.6865591599	-1.1721440815	 0.110874
H	 0.9008122572	-0.3793691756	-4.1083903052	 0.140888
H	 0.0209405013	-1.7650161856	-3.4379626072	 0.115897
H	-1.5837170228	 0.7266217408	-4.2400168921	 0.092598
