17
gdb 49602	2.94114	1.54969	1.10586	5.003	74.41	-0.2467	-0.0225	0.2242	1075.3857	0.137914	-418.037942	-418.030393	-418.029449	-418.070166	29.003	
N	-0.1527402594	 1.2313233496	 0.50204687	-0.525801
C	-0.0956093986	 0.0270401015	 0.1277701931	 0.371974
C	-1.3003122903	-0.7968710626	-0.3137286886	-0.305135
C	-0.7380489369	-2.114472141	-0.8192110388	-0.063699
C	 0.2364781011	-2.0842190221	-1.9762697386	-0.303674
C	 0.7427097427	-2.0993319069	-0.5545398319	-0.00924
N	 1.0561521748	-0.8136055185	 0.0263670102	-0.099895
C	 2.3383145839	-0.4403712691	 0.3373955366	 0.152773
O	 2.6677093158	 0.6308669769	 0.800330814	-0.317948
H	 0.7737047828	 1.5738148631	 0.7587044987	 0.253679
H	-1.9554330686	-0.9546880189	 0.5489761664	 0.138439
H	-1.878567466	-0.2439926951	-1.0585971712	 0.141096
H	-1.3077749081	-3.0202753742	-0.654820145	 0.105566
H	 0.346839845	-2.9943793033	-2.5552453812	 0.125708
H	 0.3501003809	-1.1650101132	-2.5423790488	 0.13001
H	 1.2874168258	-2.9455054596	-0.1536912806	 0.116425
H	 3.0638582353	-1.2486872567	 0.1253604955	 0.089721
