18
gdb 93438	2.84923	1.33053	0.95781	4.2653	72.8	-0.2445	-0.0265	0.2181	1205.8579	0.147954	-439.155655	-439.146978	-439.146034	-439.189578	32.215	
C	 0.0835409464	 1.5778058092	-0.013236146	-0.403071
C	 0.0838095451	 0.0479668407	-0.0403725462	-0.08794
C	 0.8896862964	-0.5403011493	-1.2076330521	-0.188626
N	 0.9071820211	-1.9925735607	-1.142132775	-0.304785
C	 1.145834709	-2.6960199184	 0.0042406674	 0.381858
O	 1.1799942683	-3.9086963793	 0.0481035815	-0.36273
C	 1.3864686533	-1.8114554202	 1.225264769	-0.429458
C	 0.5441812395	-0.5414047672	 1.2984081602	 0.393334
O	 0.2550861386	-0.0345460096	 2.3550066667	-0.310075
H	 1.1054846214	 1.9703558472	 0.0253504203	 0.12187
H	-0.4040424006	 1.9869237034	-0.9029317551	 0.115952
H	-0.4438095956	 1.9313408846	 0.8742802156	 0.150384
H	-0.9512195029	-0.3089410901	-0.1538528293	 0.121217
H	 0.43530039	-0.2454390425	-2.1569464978	 0.124081
H	 1.9098481998	-0.1253330347	-1.2029020019	 0.113317
H	 0.8038363467	-2.5411128737	-1.9820473023	 0.252849
H	 1.2685714594	-2.3993137068	 2.1353435639	 0.157314
H	 2.4365479541	-1.4822459427	 1.1863447513	 0.15451
