19
gdb 99798	1.80355	1.19758	0.87005	1.7813	86.76	-0.2525	0.0194	0.2719	1450.2357	0.154204	-385.828712	-385.817427	-385.816483	-385.865793	39.664	
C	-0.0018323736	 1.5260378396	 0.1905982067	-0.399215
C	-0.0053666947	 0.008458104	 0.0095047561	-0.171971
C	 0.7017036101	-0.4610320443	-1.2875165235	-0.039782
O	 2.0533396919	 0.0013904438	-1.1812662436	-0.428682
C	 0.6744521401	-1.9349863945	-1.3592224527	 0.330092
C	 0.6731301515	-3.1359170491	-1.4025756885	-0.459406
C	 0.0539682479	 0.0925144434	-2.4900997239	 0.123294
C	-0.4499735081	 0.5469479368	-3.4849051132	 0.009855
C	-1.0631253575	 1.0923460496	-4.6870254756	-0.500663
H	 1.0198977303	 1.911098255	 0.2168163009	 0.136462
H	-0.5325944686	 2.0223202142	-0.6269959681	 0.1233
H	-0.4960916444	 1.7943199041	 1.1290696581	 0.1087
H	 0.5156160268	-0.4791292464	 0.8396618077	 0.115169
H	-1.0274201467	-0.3813352325	-0.0090716424	 0.112076
H	 2.5047440915	-0.2404122546	-1.9975891746	 0.285762
H	 0.6702250156	-4.1971136409	-1.4464563373	 0.196936
H	-1.0442796781	 0.3665454877	-5.5072221009	 0.15237
H	-2.1086942829	 1.3652785801	-4.5076702627	 0.153177
H	-0.538747531	 1.9927354539	-5.0251629325	 0.152528
