15
gdb 17805	4.73872	1.57271	1.35546	2.929	61.8	-0.2387	0.0114	0.2501	897.1036	0.118953	-399.753893	-399.746602	-399.745658	-399.786689	26.853	
N	-0.0404037353	 1.4040441508	 0.3050453823	-0.524178
C	 0.1149733021	 0.1437590199	-0.1955238862	 0.38459
O	 1.193268634	-0.2575239415	-0.5960419871	-0.364787
C	-1.1716925285	-0.6676260732	-0.1933226304	-0.088398
C	-1.7721752877	-1.2987318688	-1.491532978	 0.037842
C	-0.6505969295	-2.3610565542	-1.5252314441	-0.228628
C	-1.1844827878	-2.2193573807	-0.0811144546	 0.045266
O	-2.5668693642	-2.1962345159	-0.6237846945	-0.314477
H	 0.7618498709	 2.0126601517	 0.3183263032	 0.262617
H	-0.9224645557	 1.7540181152	 0.6334778287	 0.262694
H	-1.9528021269	-0.212319932	 0.4199288259	 0.077309
H	-2.2919391557	-0.7938210946	-2.3063756178	 0.09854
H	-0.9356171805	-3.2912914068	-2.0175416769	 0.103074
H	 0.3673986007	-2.0326060608	-1.720872969	 0.14762
H	-0.9986929859	-2.8314497791	 0.8013236883	 0.100916
