16
gdb 35769	3.18225	1.5204	1.36362	5.0264	67.86	-0.2604	0.0157	0.276	966.3905	0.126207	-437.869199	-437.862144	-437.8612	-437.900812	27.262	
N	-0.0234655743	-1.1720070337	-0.2838313987	-0.318597
C	-0.0003392685	-0.0290443776	-0.119303539	 0.285954
C	 0.0035315595	 1.4372711034	 0.0640027079	-0.032301
O	-0.6323395456	 1.8131999963	 1.2784188115	-0.270935
C	 0.2401610976	 1.9038888842	 2.4138964951	-0.084005
C	 1.6126586175	 2.3956395991	 1.9774673013	 0.073767
C	 1.4875432028	 3.338026585	 0.7602612613	-0.257735
C	 1.4408986229	 1.9871580319	 0.0191307044	 0.0623
O	 2.1682524988	 1.3626470007	 1.104481478	-0.288308
H	-0.5985905812	 1.8808828727	-0.7381154419	 0.136117
H	-0.2472616269	 2.6008709005	 3.1027479339	 0.120287
H	 0.3443858109	 0.9263791572	 2.9029596421	 0.127613
H	 2.2723035286	 2.6446915865	 2.8114636804	 0.094606
H	 0.6248951851	 4.0023676303	 0.6987173275	 0.121864
H	 2.4155157105	 3.8725986669	 0.5591241896	 0.124126
H	 1.9162987325	 1.8535500366	-0.9547514435	 0.105246
