20
gdb 62388	2.42797	1.80219	1.34315	3.9596	82.04	-0.295	0.0297	0.3247	1028.7756	0.173327	-366.025219	-366.01731	-366.016366	-366.057168	31.726	
C	-0.1443596401	 1.5366897189	-0.0046542302	-0.469542
C	-0.0175093822	 0.0056340586	 0.0036801111	 0.185001
C	-1.3564644948	-0.5593579776	-0.163579561	 0.234675
N	-2.4204099871	-0.9937075777	-0.2965438604	-0.362356
C	 1.1242115421	-0.6123754803	-0.8951753971	-0.043412
C	 2.1015852705	-0.2614488464	 0.262897526	-0.247392
C	 0.8732538718	-0.622062864	 1.146465163	-0.043417
C	 0.7451317155	-2.1344644688	 0.8780053045	-0.227725
C	 0.9365919446	-2.1270687569	-0.6798865444	-0.227726
H	 0.8196461995	 2.0319230737	 0.1162542398	 0.127113
H	-0.58430513	 1.87632676	-0.9469649868	 0.137372
H	-0.799901961	 1.8680016065	 0.8061174605	 0.137371
H	 1.2727676751	-0.2548848508	-1.9143349635	 0.072597
H	 2.9848313749	-0.8963449775	 0.3684558253	 0.098747
H	 2.3996040423	 0.7843320118	 0.304494425	 0.105916
H	 0.7701587046	-0.2742859274	 2.1745589988	 0.072596
H	 1.5232621562	-2.6997305982	 1.3972069575	 0.099978
H	-0.2252273336	-2.5353998297	 1.1783743198	 0.125112
H	 0.0682919715	-2.524046379	-1.2100116249	 0.125119
H	 1.8179226702	-2.6883638253	-1.000489093	 0.099975
