19
gdb 41378	2.44898	1.8425	1.75447	1.4852	73.07	-0.2476	0.0556	0.3033	920.7977	0.16126	-422.982607	-422.975484	-422.974539	-423.01395	28.805	
C	-0.0365067926	 1.5129233171	-0.3080070228	-0.291001
C	 1.4352244386	 1.6310420826	 0.2190365287	-0.285445
C	 1.3842066407	 0.1301166134	 0.6072876175	 0.39185
C	 1.2831882425	-0.3329957869	 2.0548814617	-0.156607
O	-0.113353746	-0.2197349686	 2.3600238464	-0.262721
C	-0.8618882657	-0.5534085413	 1.1789789951	-0.169386
C	-0.0314333334	-0.005442707	 0.0284914734	 0.206154
C	 0.649603553	-0.941219815	-0.994924009	-0.153009
O	 1.9502398381	-0.7787849099	-0.3615999853	-0.337466
H	-0.755268555	 2.0736660608	 0.2942916121	 0.112668
H	-0.1937774125	 1.7635151357	-1.3600485523	 0.103071
H	 2.1893589164	 1.8459490574	-0.5400619442	 0.114845
H	 1.5647272439	 2.3178514315	 1.0588604091	 0.108268
H	 1.6304927901	-1.3745720008	 2.1272557433	 0.100374
H	 1.8205843792	 0.2796639662	 2.7832423613	 0.108573
H	-0.9821061423	-1.6452926124	 1.0938748537	 0.090859
H	-1.8511594062	-0.1016591336	 1.2926088568	 0.110828
H	 0.318531222	-1.9869268483	-0.9725505489	 0.104692
H	 0.657058349	-0.5877322609	-2.0328741166	 0.103454
