16
gdb 65443	3.22764	0.90773	0.88887	1.9614	71.86	-0.2893	-0.0179	0.2715	1344.6849	0.121904	-437.906016	-437.896716	-437.895771	-437.941293	32.25	
C	-0.0049196561	 1.5033166731	 0.2537741603	-0.466321
C	 0.0581487749	-0.0068764637	 0.0899046815	 0.105302
C	 1.3791745477	-0.6615371983	-0.3209216646	-0.34433
C	 0.8855840903	-0.8431505437	 1.0692427549	 0.093844
O	 1.5975160564	-0.168402516	 2.0743563667	-0.188009
C	 1.0706286313	-0.2028291265	 3.3263255279	 0.173193
O	 1.5826840614	 0.3585874931	 4.2428644622	-0.25664
C	-1.1504019957	-0.631368902	-0.3864780463	 0.241472
N	-2.1226748509	-1.1367695943	-0.7580765247	-0.334238
H	 0.9270093335	 1.8761768752	 0.682282802	 0.149542
H	-0.1645108499	 1.9862381618	-0.7139316161	 0.145804
H	-0.8266666452	 1.7891597577	 0.9166424096	 0.143927
H	 1.3528061585	-1.5106299199	-0.9926056169	 0.150951
H	 2.2131641998	 0.0171867492	-0.458100674	 0.15121
H	 0.4918838245	-1.8104106455	 1.3667122846	 0.137833
H	 0.1450614693	-0.8049786903	 3.3854772629	 0.096459
