19
gdb 61210	1.8265	1.34984	0.94042	6.2233	77.09	-0.2545	0.0173	0.2717	1308.7946	0.157652	-419.249403	-419.239132	-419.238188	-419.285737	35.608	
C	-0.0206871418	 1.5569311373	-0.0371213066	-0.406327
C	 0.0791035043	 0.0266289029	 0.0189395176	 0.00588
C	 0.7457260167	-0.5126464524	-1.2773082961	-0.347285
C	 0.7535687528	-1.9706781816	-1.3427355086	 0.264828
N	 0.7419801694	-3.1252921277	-1.3820132587	-0.297033
N	 0.7427933835	-0.4519376482	 1.2210685945	-0.031214
C	 2.095887003	-0.0230557801	 1.5415445888	-0.357865
C	 0.1028516676	-1.3144531543	 2.0751479042	 0.164365
O	 0.5621462397	-1.7494987909	 3.1068452685	-0.335971
H	 0.9616450437	 2.025058663	-0.1510751588	 0.130246
H	-0.6375618296	 1.8665081931	-0.8858409177	 0.128821
H	-0.4788848741	 1.9396493911	 0.878338096	 0.137566
H	-0.936206229	-0.3824891425	 0.0530687922	 0.114545
H	 0.2049632539	-0.1237653823	-2.1468085782	 0.156828
H	 1.7743118864	-0.144731194	-1.358794608	 0.154949
H	 2.1486211606	 1.0583049744	 1.7054931527	 0.128468
H	 2.3835223949	-0.5362157328	 2.4590545698	 0.178803
H	 2.8016163027	-0.2937396344	 0.7484942949	 0.127594
H	-0.9101251447	-1.5734033207	 1.7120872935	 0.082802
