19
gdb 123730	4.8623	0.94292	0.90213	2.2282	81.76	-0.2294	0.0259	0.2554	1340.3593	0.162763	-382.081801	-382.074051	-382.073107	-382.114933	29.633	
C	-0.100912319	 1.5568994003	-0.0148053717	-0.213876
C	 1.4492362437	 1.543163016	-0.0670010371	-0.22358
C	 1.4228609207	 0.1095545663	 0.5536708478	-0.088096
C	-0.0677158126	 0.0101301474	 0.0959973099	-0.223575
C	 2.4100117788	-0.9145332351	 0.1090184591	 0.224682
C	 3.2589445853	-1.6713041358	 0.894626177	-0.145366
N	 3.9702407152	-2.4639791689	 0.0560059767	-0.177984
N	 3.6497736948	-2.2843412519	-1.2385665675	-0.224928
C	 2.7064376418	-1.3479105831	-1.2093139297	-0.091158
H	-0.4708684071	 2.020708455	 0.9044176847	 0.100132
H	-0.6343380558	 1.9947128234	-0.8614210218	 0.09619
H	 1.8176745041	 1.5156111163	-1.0968463675	 0.103861
H	 1.9960322247	 2.3177819336	 0.4765781998	 0.095566
H	 1.4561697703	 0.1926514205	 1.6452423379	 0.062491
H	-0.7715879284	-0.4791763172	 0.773966552	 0.095564
H	-0.1432347775	-0.4660916326	-0.8861418964	 0.10386
H	 3.4026303125	-1.7000415844	 1.9636900279	 0.129173
H	 4.6772658555	-3.1382254001	 0.2938791448	 0.272606
H	 2.2669317729	-1.0115650197	-2.137604576	 0.104438
