19
gdb 9842	3.33762	1.43511	1.19647	3.5385	67.16	-0.2509	0.0655	0.3164	1061.8833	0.164662	-402.164648	-402.155714	-402.15477	-402.197925	33.433	
C	-0.0755513129	 1.4804594465	 0.1485898304	-0.46842
C	 0.081901096	-0.0256777335	 0.087299542	 0.303159
C	 0.8662925363	-0.6056454966	-1.0419655968	-0.290884
N	 1.4106380836	-0.6100670947	 0.3283847003	-0.342639
C	-1.0930609452	-0.7876813657	 0.6863030473	 0.044168
O	-2.2664393307	-0.6133517679	-0.1245183139	-0.44302
C	-0.8763156456	-2.2811147207	 0.9431901763	-0.075892
O	-2.0592187026	-2.8544712742	 1.4625188232	-0.426199
H	 0.7298741033	 1.9885483784	-0.3914244299	 0.109924
H	-1.0308788107	 1.7829962334	-0.2899088788	 0.13935
H	-0.0627493599	 1.8280182685	 1.1883072226	 0.125409
H	 0.6432300548	-1.59018252	-1.4436627373	 0.119127
H	 1.2819867876	 0.0888374641	-1.7678172344	 0.113849
H	 2.1015581844	 0.129234747	 0.4333419005	 0.231265
H	-1.3638115345	-0.3267377923	 1.6443415479	 0.095042
H	-2.030109752	-0.8725339422	-1.0236568736	 0.282028
H	-0.5689768895	-2.7843668708	 0.0099317649	 0.073321
H	-0.0768641162	-2.4294964243	 1.6718160911	 0.127661
H	-2.7787834862	-2.4661330248	 0.9478637885	 0.28275
