17
gdb 45343	2.35086	1.77081	1.16993	4.6191	73.13	-0.243	-0.0463	0.1967	1046.4451	0.136134	-421.867697	-421.860122	-421.859178	-421.900311	29.071	
O	 0.1310013618	 0.1060779687	-0.7413853287	-0.277445
C	 0.0614357004	 1.160577927	-0.1873722018	 0.406073
C	-1.0519070396	 1.9158908667	 0.550323702	-0.364394
C	-0.1167806261	 3.1671434105	 0.6038543687	-0.022478
C	 0.3577778509	 3.6188471976	 2.0016866683	-0.23574
C	 1.450625149	 2.618606178	 2.4115546106	-0.324649
C	 2.0748998218	 2.131498056	 1.0994054775	 0.401721
O	 3.1738111757	 1.6677072233	 0.9608461275	-0.300035
C	 1.0507998765	 2.3447167295	-0.0274671785	-0.258318
H	-1.9741765575	 2.0215924186	-0.0276568516	 0.138533
H	-1.3093856884	 1.4795423787	 1.5219087753	 0.131617
H	-0.4865454521	 3.995645541	-0.0001425568	 0.087689
H	 0.7872457225	 4.6240206012	 1.9331066216	 0.114197
H	-0.4672215915	 3.6689851563	 2.7181792049	 0.110529
H	 2.2164839323	 3.022530542	 3.0760674094	 0.13535
H	 1.0276793944	 1.7372649719	 2.9128951815	 0.136868
H	 1.5461800598	 2.6572862729	-0.9476740201	 0.120482
