21
gdb 69945	3.44036	1.45496	1.274	1.2475	81.14	-0.2246	0.0744	0.2991	1081.3968	0.183689	-387.075636	-387.067812	-387.066868	-387.10756	31.943	
C	 0.0417656601	 1.5824658488	 0.0702977872	-0.463931
C	 0.1085460872	 0.0836186653	-0.0190863657	 0.445145
C	-0.9277661319	-0.8147409558	 0.605332294	-0.35789
C	 0.5154564325	-0.8488333547	 1.0949750292	-0.125006
C	 1.4712276458	-1.8664043424	 0.4958609234	-0.042458
C	 0.9527897119	-3.3021962078	 0.1803842293	-0.24002
C	 0.760981724	-2.9033057403	-1.3136903571	-0.247754
C	 1.4457789467	-1.5345642011	-1.028665208	 0.113132
O	 0.6810534877	-0.3567023244	-1.2343502717	-0.305983
H	 1.0408208873	 2.0211069624	-0.0194423077	 0.120763
H	-0.5807863782	 1.9903821119	-0.7330041533	 0.127255
H	-0.3916377498	 1.8926922574	 1.0252356796	 0.114275
H	-1.6558127972	-0.3586705664	 1.2689687059	 0.108617
H	-1.3152278133	-1.6460567146	 0.027658411	 0.11486
H	 0.7217901858	-0.4692218984	 2.0893936713	 0.085868
H	 2.4417227396	-1.8172727359	 0.9944158713	 0.068555
H	 1.7128716293	-4.0730652886	 0.3271820175	 0.099541
H	 0.0518876331	-3.6032717037	 0.719698297	 0.102868
H	 1.2741818143	-3.5356922188	-2.0422887144	 0.097042
H	-0.2787747837	-2.7915441253	-1.6293110825	 0.109945
H	 2.4095384987	-1.4073136775	-1.5314201661	 0.075174
