20
gdb 68392	2.5101	1.94057	1.42224	1.3472	77.31	-0.2383	0.0761	0.3144	974.5401	0.173872	-403.122127	-403.114933	-403.113989	-403.15305	30.823	
O	-0.1819199172	 1.3760884875	 0.0085767232	-0.501657
C	 0.0252128292	-0.0131023207	 0.0099457216	 0.421978
C	 0.9425638929	-0.6930751477	-1.0545525697	-0.280376
C	 1.1852306125	-1.7872959662	 0.0296695868	-0.023159
C	 0.9035328942	-0.6881695245	 1.095928467	-0.287648
C	 0.0612326639	-2.8404587246	 0.002890464	-0.212417
C	-1.3096986604	-2.1765185525	-0.0833970368	-0.028071
N	-1.7854765875	-1.4476674729	 1.1140110357	-0.33898
C	-1.3350968559	-0.6927613504	-0.0664842863	-0.058385
H	 0.677337359	 1.8043411163	 0.0798770883	 0.272981
H	 0.4974771995	-0.9852473729	-2.0105679939	 0.088922
H	 1.8480645159	-0.1047358035	-1.2347440599	 0.08466
H	 2.1683377889	-2.2612458064	 0.048510307	 0.06186
H	 1.8009901928	-0.0893193252	 1.284853289	 0.076856
H	 0.4263254865	-0.9688687693	 2.0340541851	 0.124025
H	 0.1949199938	-3.4848945081	-0.8746647662	 0.095215
H	 0.1180705513	-3.4856996968	 0.8875497412	 0.105606
H	-2.0603698848	-2.69664178	-0.6727407673	 0.082431
H	-2.8015125113	-1.4644046993	 1.1446581306	 0.229376
H	-2.0684912233	-0.1536706028	-0.6602156994	 0.086783
