23
gdb 97797	3.4372	0.64374	0.5744	0.1344	97.8	-0.224	0.0541	0.2782	2060.2769	0.204287	-351.130811	-351.119981	-351.119037	-351.168159	38.759	
C	 0.0066861128	 1.6445262564	-0.1378220254	-0.361794
C	 0.0133745943	 0.1125724448	 0.018241974	-0.314056
C	-1.3267413872	-0.4656929063	 0.0381188627	 0.067424
C	-2.4451062771	-0.9179877555	 0.0468102942	 0.074883
C	-3.778255862	-1.4492865026	 0.0723803399	-0.208051
C	-4.3233420937	-2.2374439727	-1.1125495188	-0.287946
C	-4.0359282803	-2.9492391863	 0.1786914786	 0.022149
C	-2.898356142	-3.9411243153	 0.2854919597	-0.196333
C	-3.2926343608	-5.3443885782	-0.189051851	-0.373796
H	 1.0297699744	 2.0326782932	-0.1483040135	 0.111352
H	-0.4839283622	 1.9374845765	-1.0700140908	 0.126794
H	-0.5323507873	 2.1162320643	 0.6883465606	 0.126525
H	 0.5904012239	-0.3338286233	-0.8022870801	 0.124866
H	 0.5464970262	-0.1569745682	 0.9395951198	 0.124431
H	-4.5019129003	-0.8205404115	 0.5842809792	 0.104094
H	-5.3521409226	-2.0589140797	-1.4052907593	 0.111788
H	-3.6398707582	-2.4011842561	-1.9388234605	 0.119786
H	-4.9083051515	-3.2045480638	 0.7764743634	 0.083658
H	-2.0456483154	-3.5741906944	-0.2961309993	 0.107077
H	-2.5553736914	-3.9866173703	 1.3271930495	 0.098637
H	-4.12320048	-5.7455096582	 0.4025555062	 0.111651
H	-3.6104934789	-5.331641524	-1.2369809782	 0.116567
H	-2.4541247709	-6.042150769	-0.0995620609	 0.110295
