20
gdb 79133	2.2923	2.09617	1.38621	1.378	86.62	-0.1953	-0.0298	0.1656	1005.9216	0.170472	-365.901212	-365.893218	-365.892274	-365.933032	32.278	
C	 0.4344842684	 1.3140834847	 0.7224323801	-0.408417
C	 0.1142654165	-0.0598191184	 0.176889786	 0.067965
N	 0.7630922168	-0.4547307887	-1.1625819059	-0.17542
C	 2.0861016839	-1.2884882348	-1.0776192515	-0.019787
C	 3.0084150648	-1.4259468362	 0.1453934489	-0.316196
C	 1.9856801492	-1.2495750463	 1.2634090691	 0.258802
C	 2.3295614823	-0.5322663498	 2.5295280785	-0.471708
C	 0.739007988	-1.3657484749	 0.7311172021	-0.115134
C	 0.7967064142	-1.8696422308	-0.7127322382	-0.065165
H	 1.5081780864	 1.4633932609	 0.8541114039	 0.120742
H	 0.0675790234	 2.0704375098	 0.020970833	 0.127611
H	-0.0605558414	 1.4801468762	 1.6847697052	 0.122094
H	-0.9599608454	-0.1413432436	-0.0260972035	 0.090343
H	 2.4906424126	-1.3641097099	-2.0828259293	 0.096733
H	 3.5545864409	-2.3786230897	 0.0706926501	 0.114084
H	 3.7677538763	-0.6403063137	 0.2471882928	 0.112329
H	 3.0441681263	 0.2859895166	 2.3722370684	 0.119123
H	 1.4374197176	-0.1371602551	 3.0233807999	 0.125462
H	 2.807771689	-1.2232765623	 3.238075052	 0.128551
H	 0.2216479201	-2.6598089537	-1.1836773317	 0.087988
