19
gdb 39296	2.6242	2.10436	1.80918	2.5243	72.71	-0.2516	0.0791	0.3306	864.9111	0.16396	-423.026168	-423.01996	-423.019016	-423.056444	26.549	
C	-0.0341244347	 1.4886617522	 0.091756498	-0.231551
C	 1.5186341719	 1.4097709992	 0.0251845675	-0.068824
C	 2.018008338	 1.1021743272	 1.4383611608	-0.09054
O	 1.119439331	 0.2073461684	 2.0978138047	-0.260213
C	 0.553141261	-0.7370334057	 1.2153480676	 0.218046
O	 1.5122159472	-1.6713968471	 0.7544661817	-0.267941
C	 2.146578521	-1.1601001614	-0.4267722644	-0.111831
C	 1.3506682867	 0.0827269114	-0.8031424588	-0.032264
C	-0.0007585673	-0.0473944962	-0.0594038646	-0.0781
H	-0.4801834218	 1.9070266481	 0.9970934364	 0.106733
H	-0.4625806833	 1.9681914	-0.7915363261	 0.098378
H	 2.0808531678	 2.2301491947	-0.4263632905	 0.067777
H	 3.0333940968	 0.6803647297	 1.4228776685	 0.102593
H	 2.0426172122	 2.0133200668	 2.0452676885	 0.108229
H	-0.1806066772	-1.2880050714	 1.8057607773	 0.091752
H	 3.2063389895	-0.9575398826	-0.2235894279	 0.101534
H	 2.092015033	-1.9259639995	-1.210247991	 0.101982
H	 1.2896795582	 0.2662357779	-1.8766752176	 0.074955
H	-0.8373206	-0.5925423518	-0.4998133802	 0.069283
