21
gdb 90259	3.37559	1.45987	1.21654	1.4359	82.02	-0.2246	0.0785	0.3032	1101.994	0.183295	-387.049041	-387.041122	-387.040177	-387.081314	31.88	
C	-0.1881789323	 1.5005540516	-0.0489869971	-0.403419
C	 0.0670101531	 0.0115956906	 0.065808875	 0.125404
O	 1.1100174311	-0.452249996	-0.8481887117	-0.347685
C	 1.8770634946	-0.9542292664	 0.232290679	 0.500439
C	 2.748252669	-2.1975297582	 0.2205879083	-0.326708
C	 3.6210963931	-1.5129968971	 1.3263775494	-0.23267
C	 2.9363116258	-0.1336027108	 1.0447244674	-0.086628
C	 1.8409865521	 0.3015297277	 2.0552087538	-0.25879
C	 0.8127384478	-0.5852800981	 1.2966841884	-0.16451
H	 0.7214982531	 2.0823653871	 0.1221211477	 0.123824
H	-0.5538818538	 1.737639176	-1.0529259193	 0.127552
H	-0.9481089206	 1.817427713	 0.6739114519	 0.115986
H	-0.860376681	-0.537812369	-0.1419254452	 0.079169
H	 2.2794094322	-3.1608305784	 0.4421229814	 0.095897
H	 3.2972684938	-2.281668659	-0.7229070957	 0.112325
H	 3.4286475444	-1.8941194582	 2.3328181544	 0.101016
H	 4.6971815838	-1.5398418831	 1.1481121961	 0.106477
H	 3.5778996285	 0.6252864451	 0.5946272177	 0.066125
H	 2.0227561412	-0.004320992	 3.0899194072	 0.097221
H	 1.6128644411	 1.3708762408	 2.0571646354	 0.099833
H	 0.2467486731	-1.3227849157	 1.8670440258	 0.069142
