19
gdb 107004	2.95229	1.27103	1.05943	1.2559	70.71	-0.2525	0.0614	0.3139	1175.1132	0.157595	-460.1202	-460.110923	-460.109978	-460.154382	34.468	
C	-0.3405656452	 1.4767175941	-0.0583740045	-0.411691
C	-0.076106823	-0.019459034	-0.1153036948	-0.103893
C	 1.1778403172	-0.5438607738	-0.941605882	 0.118728
O	 2.0318918656	 0.3946842459	-1.5316630529	-0.428503
C	 1.6873265083	-1.2082972857	 0.3474572175	-0.111677
O	 1.8652128639	-0.1228113746	 1.2768057941	-0.314875
C	 0.5410411564	-0.6956324689	 1.119006361	 0.403171
C	-0.1197720918	-1.1898697392	 2.3654468191	-0.185745
O	-0.6208500401	-0.1203653382	 3.1539904537	-0.411499
H	 0.5329943623	 2.0154400683	 0.3190168471	 0.114748
H	-0.5746104701	 1.8696531298	-1.0521821497	 0.124138
H	-1.1809004455	 1.6930976661	 0.6079039812	 0.127892
H	-0.9731427778	-0.5613298579	-0.434108682	 0.078004
H	 0.8918544501	-1.2558890986	-1.7191882379	 0.092954
H	 2.4128456457	 0.9056656184	-0.8063909355	 0.291224
H	 2.313104005	-2.0830422995	 0.4893015174	 0.1058
H	-0.9869205877	-1.8069015691	 2.1074778624	 0.116845
H	 0.5882683045	-1.8161104621	 2.9283282805	 0.100567
H	 0.1318203222	 0.4342376992	 3.3874611854	 0.293813
