19
gdb 106978	4.22637	1.08908	0.96995	1.9039	76.87	-0.2286	0.0178	0.2464	1266.1842	0.159905	-419.211282	-419.202651	-419.201707	-419.244449	33.138	
C	-0.3502507971	 1.4706500489	 0.2172972493	-0.382202
C	 0.1292851388	 0.0421282442	-0.0749644312	-0.283496
C	 0.956007656	-0.5298872459	 1.0467553002	 0.430153
C	 2.3353012278	 0.0211840115	 1.4226846418	-0.221007
N	 3.0778407635	-1.0654755464	 2.075045141	-0.305627
C	 2.3600484142	-2.1266480229	 2.0427139676	 0.398121
N	 2.796664233	-3.3670543721	 2.4419858278	-0.579817
C	 0.9883248857	-1.9430566868	 1.4571972478	-0.179612
O	 0.2340325001	-0.9742433816	 2.211396298	-0.294432
H	 0.4921493775	 2.1586086536	 0.3428347986	 0.12258
H	-0.9694480689	 1.8485496167	-0.6012983952	 0.114867
H	-0.9456143517	 1.4958535024	 1.1348100084	 0.134776
H	-0.7344946842	-0.610531684	-0.2410386202	 0.106582
H	 0.7255457363	 0.0270486921	-0.9958354663	 0.104513
H	 2.8769049497	 0.3612227827	 0.5296128946	 0.104318
H	 2.2558529461	 0.8799177318	 2.0992216023	 0.117672
H	 3.667452726	-3.3512005372	 2.9551299797	 0.257849
H	 2.1010907453	-3.9798306084	 2.840098975	 0.255571
H	 0.4199762718	-2.7478699987	 0.9982401909	 0.099192
