25
gdb 60059	2.73498	0.96526	0.95837	1.3054	88.78	-0.2524	0.0684	0.3208	1465.1496	0.227518	-389.490782	-389.480378	-389.479434	-389.525817	40.179	
C	-0.2920110032	 1.560329242	 0.2141545225	-0.392788
C	-0.0172719497	 0.0572370441	 0.065248126	 0.048681
C	 0.9459134541	-0.4263684334	 1.1573305928	-0.385257
C	-1.3524403015	-0.7118362615	 0.0218848337	-0.204234
C	-1.2684293354	-2.2241796747	-0.2174135577	 0.391797
O	-0.348836484	-2.4178331882	-1.2741627541	-0.477483
C	-1.0763311662	-3.0946597865	 1.0708420691	-0.269503
C	-2.606882695	-3.343559147	 1.0973735809	-0.216726
C	-2.6772387586	-2.8777236094	-0.3802182361	-0.267777
H	 0.6384509084	 2.1365976691	 0.1748321512	 0.106664
H	-0.9486277654	 1.9298523842	-0.5808762585	 0.107039
H	-0.7763790388	 1.7804913347	 1.1737628839	 0.106256
H	 0.473271772	-0.1056107877	-0.9009804383	 0.094066
H	 0.4954700591	-0.3472269811	 2.154828773	 0.102543
H	 1.2449126725	-1.4652948972	 0.9984072594	 0.121297
H	 1.8562125638	 0.1831763104	 1.1614336865	 0.103677
H	-1.9147953185	-0.534923481	 0.9488181411	 0.088448
H	-1.9569475146	-0.2848673328	-0.7890657942	 0.094672
H	-0.3034267223	-3.3608952059	-1.4608001808	 0.272398
H	-0.5216966193	-4.0093013129	 0.8328552415	 0.086151
H	-0.6155628019	-2.6305332659	 1.9440680856	 0.103421
H	-2.9429613255	-4.3586293135	 1.3175342204	 0.097671
H	-3.1254916284	-2.6573005941	 1.7716369473	 0.106355
H	-3.5023011172	-2.2265324296	-0.681719673	 0.09639
H	-2.6306991143	-3.7226332323	-1.0761444121	 0.086241
