16
gdb 113652	3.56783	0.88437	0.82187	1.7628	67.86	-0.2541	-0.1032	0.151	1392.5086	0.122424	-474.997913	-474.988679	-474.987735	-475.033199	32.001	
O	 0.0684545726	 1.3754309955	-0.8834733037	-0.418912
C	 0.2527932603	 0.2236915016	-0.0744916046	-0.086803
C	-1.0869328584	-0.3848624963	 0.2732123465	-0.023874
N	-1.7221400245	-1.1564624565	-0.7868115969	-0.323769
C	-1.3245572642	-1.8646040865	 0.4490257329	-0.169468
C	-0.2365564724	-2.8748722098	 0.3353451762	 0.313499
O	 0.6401432389	-2.8938944896	-0.4991863673	-0.286058
C	-0.236915268	-3.9880257049	 1.394651717	 0.09185
O	-1.0578837641	-4.0853749608	 2.2685802016	-0.219416
H	-0.2956079996	 1.0666239198	-1.7207362082	 0.2922
H	 0.8853845079	-0.5226295984	-0.5660517047	 0.12984
H	 0.7564946544	 0.56446763	 0.8359833438	 0.111318
H	-1.7250253589	 0.2527540152	 0.8838840692	 0.107311
H	-2.7305200579	-1.02500965	-0.7818835658	 0.246723
H	-2.0951619165	-2.1386860334	 1.1625523045	 0.12153
H	 0.6055161305	-4.6983143359	 1.2604373894	 0.114029
