15
gdb 60514	2.59748	1.27362	1.00347	3.5955	69.06	-0.2668	-0.0765	0.1902	1175.6308	0.109282	-457.70681	-457.697861	-457.696917	-457.74121	31.941	
O	-0.1434636318	 1.4563076525	-0.1240402265	-0.426585
C	-0.138596536	 0.0657284965	-0.0212065797	-0.015125
C	 0.370477587	-0.6144089563	-1.2922793472	 0.050242
C	 0.4715683831	 0.1307161142	-2.5499505617	-0.167478
O	 1.6344202174	-0.1679875418	-1.7683964113	-0.232408
C	 0.7307047945	-0.3528495125	 1.1718531426	 0.228358
O	 1.359283632	 0.4850706392	 1.7850450781	-0.308474
C	 0.7523404012	-1.7550129014	 1.5118361203	 0.282928
C	 0.7378747128	-2.9286100822	 1.7785170736	-0.403559
H	 0.5408236222	 1.7667278443	 0.491568996	 0.301942
H	-1.1590700829	-0.3078727717	 0.165850148	 0.106517
H	 0.2210224918	-1.6942915267	-1.3203635866	 0.10432
H	 0.395805442	-0.4040227373	-3.4953374225	 0.115243
H	 0.1818381642	 1.1773249218	-2.556721823	 0.139413
H	 0.7398175823	-3.9626127086	 2.0272451898	 0.224669
