21
gdb 71017	3.59561	1.41259	1.27279	1.317	82.59	-0.2503	0.0763	0.3266	1064.9545	0.1847	-387.04682	-387.039443	-387.038499	-387.077887	31.772	
O	-0.0680348439	 1.4297337599	-0.0171655996	-0.482253
C	-0.0044370123	 0.039074966	-0.006877882	 0.419584
C	 0.3231873447	-0.8006614598	-1.3260329239	-0.39539
C	-0.4043246901	-1.8850818641	-0.5036889617	 0.351824
C	-0.8313842509	-3.3621472443	-0.4076232234	-0.345055
C	-0.3585570026	-3.2996668295	 1.0969043357	-0.274484
C	 0.5601638899	-2.1118362155	 0.6722259924	 0.044312
C	 0.7721516612	-0.6588544938	 1.1592648853	-0.336487
C	-1.325682226	-0.7521027519	 0.0302389504	-0.288961
H	 0.8308973453	 1.7742405318	 0.0122227164	 0.278196
H	-0.2274869917	-0.3840636575	-2.17279721	 0.09915
H	 1.3677760753	-0.9887866191	-1.5931555338	 0.081972
H	-1.876891894	-3.6076008144	-0.6103611992	 0.097223
H	-0.1895258277	-4.0279147557	-0.9926352115	 0.104019
H	-1.1738510341	-3.0054206225	 1.7616165292	 0.107936
H	 0.128649683	-4.1864430997	 1.5085976975	 0.094672
H	 1.5018425415	-2.5365165825	 0.307043237	 0.069715
H	 1.8300304458	-0.3775603311	 1.2045441186	 0.081906
H	 0.3140491962	-0.4075705509	 2.1207457028	 0.105179
H	-1.8232852503	-0.8688549849	 0.9966681233	 0.089277
H	-2.0373043792	-0.4120317406	-0.7260512933	 0.097666
