17
gdb 35571	3.12691	1.36507	1.14748	1.5221	73.33	-0.2535	0.0137	0.2672	1084.1159	0.136414	-421.766741	-421.759002	-421.758057	-421.799556	29.331	
C	-0.1061844176	-1.2099814712	 0.1608409365	-0.437934
C	-0.0310412932	-0.0121636952	 0.0901786672	 0.329582
C	 0.0472440993	 1.4336361908	-0.0198944206	-0.058887
O	-0.3242707467	 2.1427194835	 1.1912157543	-0.302158
C	 0.841419508	 2.9994764293	 1.0949522571	 0.106993
C	 1.8296559996	 2.871965662	 2.2653943788	-0.097121
O	 3.005723605	 2.2908054224	 1.7178154307	-0.248881
C	 2.6109358779	 1.4262243221	 0.6584967404	-0.107307
C	 1.4358459679	 2.1361470512	-0.0365040908	-0.114586
H	-0.1733869161	-2.2680167313	 0.2285762355	 0.205379
H	-0.5811117589	 1.7676780299	-0.8567750241	 0.10677
H	 0.5565665156	 4.0301160522	 0.8620662082	 0.086134
H	 2.1115656747	 3.8306586558	 2.7091064744	 0.108773
H	 1.3782884791	 2.2333330956	 3.0393730503	 0.108239
H	 3.4781297626	 1.2840293431	 0.009625853	 0.112169
H	 2.2978572062	 0.4454342194	 1.0447025384	 0.111759
H	 1.7099887567	 2.6197820803	-0.9729450492	 0.091075
