18
gdb 49422	3.4575	1.49044	1.44431	1.0357	73.94	-0.2409	-0.0278	0.2131	962.2917	0.150467	-401.950672	-401.94388	-401.942936	-401.982073	27.184	
O	-0.6926083048	 0.8079780825	 0.5501261599	-0.242945
C	 0.1411877781	 1.018044323	-0.2948137503	 0.132009
C	 1.3038802924	 1.9726748354	-0.1688648919	-0.093438
C	 1.2114281422	 3.1813223278	-1.116781857	-0.056576
C	 0.559945645	 4.2883930025	-0.3610322848	-0.027197
C	 0.2406132811	 3.7734535696	 1.0373048856	-0.241208
C	 1.4332050658	 2.7939147684	 1.1324925129	-0.070981
C	 2.5806143784	 3.7349064722	 0.7182253005	-0.166093
N	 2.035591631	 4.2787664744	-0.5542794682	-0.125578
H	 0.104392138	 0.4809950203	-1.2716587871	 0.07902
H	 2.2139401572	 1.3946622402	-0.3874562398	 0.095044
H	 1.1857891837	 3.0768466519	-2.1945150443	 0.096962
H	 0.0086918631	 5.0885643032	-0.8390957457	 0.09446
H	 0.2906925677	 4.560318134	 1.7965307642	 0.102049
H	-0.7277134784	 3.2762803425	 1.1028727904	 0.13155
H	 1.5390028534	 2.2315091151	 2.057248723	 0.082318
H	 2.7549618267	 4.5498420099	 1.426710951	 0.106928
H	 3.5288660995	 3.2234533471	 0.5275549816	 0.103679
