20
gdb 78955	2.79809	1.95679	1.46628	1.6648	80.94	-0.2228	0.0799	0.3028	964.9976	0.171549	-365.935597	-365.928096	-365.927151	-365.966904	30.898	
C	-0.1945228731	 1.5079289363	-0.0750393549	-0.417582
C	-0.0058068602	-0.0034179438	-0.0060408172	-0.036261
C	 1.2095651918	-0.5372708057	-0.8087659715	-0.071888
C	 1.3161160899	-2.0284953195	-0.4420661481	-0.059301
C	 2.3935247425	-1.8307090517	 0.5547311092	-0.070812
C	 2.156960031	-0.3056908648	 0.4392595742	-0.134732
C	 0.8085307233	-0.4959771676	 1.2168950171	 0.372363
C	 0.5277726252	-0.1099832564	 2.639945196	-0.506305
N	 0.9847111822	-2.0063483834	 1.0249424112	-0.183121
H	 0.7482866758	 2.0411281772	 0.0920940905	 0.115143
H	-0.5737237016	 1.8091625825	-1.0571127384	 0.115936
H	-0.9104918745	 1.8543884909	 0.6777967291	 0.11813
H	-0.9558027251	-0.5242323616	-0.1736242664	 0.070551
H	 1.4477424671	-0.2130113485	-1.8206541877	 0.067964
H	 1.0270882572	-2.9040455442	-1.0099595928	 0.09275
H	 3.2136007843	-2.4571463943	 0.8840143668	 0.09187
H	 2.8652803016	 0.5117365035	 0.5430286179	 0.070401
H	 0.4859468731	 0.9777380052	 2.7561535054	 0.115156
H	-0.4301055677	-0.5301636402	 2.9668452759	 0.126193
H	 1.3050546271	-0.496109874	 3.3074793539	 0.123545
