17
gdb 6436	4.27167	1.39687	1.27913	4.1955	68.72	-0.2764	0.0335	0.3099	983.5979	0.141618	-363.868959	-363.860787	-363.859843	-363.901183	30.661	
C	 0.3888397415	 1.3002831193	 0.099242571	-0.452043
C	-0.0731533175	-0.1597128681	-0.0052309846	 0.175688
C	 0.8307183321	-1.0287189892	-0.9508224287	-0.258254
C	 1.5613684157	-1.5968050463	 0.2855121033	 0.117237
O	 2.7968541512	-0.9237531297	 0.4449533686	-0.426957
C	 0.4175997402	-1.0538301506	 1.1887179971	-0.287705
C	-1.5036092038	-0.2353201126	-0.2785490959	 0.227037
N	-2.6377218841	-0.3079624069	-0.4942349321	-0.348999
H	 1.4626438417	 1.3223730676	 0.2981923074	 0.143404
H	 0.1920363481	 1.8376173127	-0.8330700063	 0.133018
H	-0.1337776623	 1.816747817	 0.9098831694	 0.130317
H	 0.263503479	-1.7879781679	-1.4911643292	 0.124454
H	 1.4598708615	-0.472718022	-1.6480446642	 0.125686
H	 1.701214978	-2.6844429674	 0.3023397254	 0.077578
H	 3.1698395819	-1.178619105	 1.2955031831	 0.286843
H	 0.7240162672	-0.5126610836	 2.0874014299	 0.10957
H	-0.3079587804	-1.8242326372	 1.4577677058	 0.123126
