18
gdb 114414	3.29903	1.0681	1.05119	3.6636	72.08	-0.244	0.0291	0.2731	1210.4713	0.148285	-439.08208	-439.073703	-439.072759	-439.115552	31.32	
O	-0.1002988409	 1.4609791837	-0.1598592141	-0.419182
C	 0.0364127127	 0.0710416816	 0.0957458071	-0.099706
C	-1.3422635961	-0.5477272701	-0.0155028983	 0.032765
C	-2.0195495618	-0.5944196118	-1.4181790267	-0.252595
C	-2.2390842714	-2.1333141831	-1.2642318125	-0.188024
C	-1.4726192434	-2.0975520369	 0.1005819994	-0.02391
N	-0.4299259801	-2.897535615	-0.5456803239	-0.319781
C	-1.0342686586	-2.9401555828	-1.7908775024	 0.417099
O	-0.6834372982	-3.395694214	-2.8450825153	-0.359133
H	 0.7783041012	 1.8497324693	-0.2004694966	 0.289313
H	 0.7160814746	-0.4012209261	-0.6302711484	 0.086999
H	 0.4480079001	-0.1134709797	 1.1030614728	 0.082945
H	-2.0006236076	-0.0661811679	 0.7141204809	 0.087447
H	-2.9457065611	-0.0217274671	-1.4782856524	 0.115395
H	-1.3855047768	-0.308328288	-2.2603720567	 0.120985
H	-3.2367717847	-2.545344112	-1.3968222977	 0.098726
H	-1.8539395966	-2.5176206192	 1.0322812922	 0.085492
H	 0.5352850088	-3.0606505508	-0.2934047372	 0.245166
