21
gdb 104276	2.38394	1.14886	0.9736	2.2169	79.31	-0.2436	-0.0251	0.2185	1308.0624	0.180308	-424.221401	-424.211381	-424.210437	-424.256838	36.513	
C	-0.1292363216	 1.5515751848	 0.0929968859	-0.458448
C	-0.0393919371	 0.0258139275	 0.0068719105	 0.321922
C	-1.408119239	-0.5842229121	-0.2671570051	-0.133847
O	-1.8720347629	-0.085308801	-1.5133295944	-0.425639
C	 1.1171274334	-0.4526492791	-0.9244002587	-0.245214
C	 1.993693474	-0.707292568	 0.326631136	-0.255398
C	 0.7177476678	-0.6612007918	 1.2152607057	-0.113842
C	 0.791145321	 0.070927132	 2.5253239951	 0.150647
O	 0.2482584845	-0.282073346	 3.5427719023	-0.258549
H	 0.8530410306	 2.0121814217	 0.2365558092	 0.111019
H	-0.5549964092	 1.9394844706	-0.8355093685	 0.141558
H	-0.7751166587	 1.8697450252	 0.9194969955	 0.118209
H	-1.3203937122	-1.6821927754	-0.2903723411	 0.08317
H	-2.0975556569	-0.3247961818	 0.5533873247	 0.09407
H	-2.7501935403	-0.4415908345	-1.6749077905	 0.291021
H	 0.8608862855	-1.3763368685	-1.4497800174	 0.104567
H	 1.4843378698	 0.2698019807	-1.6566351276	 0.10349
H	 2.5762976697	-1.6297239165	 0.3633652449	 0.109216
H	 2.6642906706	 0.1304071383	 0.5435976977	 0.107282
H	 0.3055312834	-1.655996007	 1.4059953572	 0.086199
H	 1.4047654578	 1.0018521708	 2.5034732086	 0.068567
