21
gdb 40924	3.69171	1.27038	1.15387	1.5149	81.62	-0.2334	0.0703	0.3037	1151.7892	0.183572	-387.046974	-387.039004	-387.03806	-387.0801	31.154	
C	 0.1871872028	 1.4691216902	-0.3638380264	-0.076722
C	 1.6304671558	 1.4252539339	 0.1686448642	-0.356377
C	 1.2214178905	 0.0669318292	 0.7747903768	 0.463227
C	 1.9059448659	-1.2887506921	 0.4537274732	-0.304313
C	 1.9100680883	-1.6620614133	 1.9611493363	-0.010605
C	 3.1939557087	-1.2655199134	 2.7330105092	-0.220968
C	 2.602280578	 0.1526451453	 2.9963213271	-0.231286
C	 1.2801757715	-0.2568655349	 2.2864411405	-0.095001
O	-0.1174448323	 0.1945702578	 0.2360696663	-0.319791
H	-0.445940367	 2.2717170079	 0.0338161596	 0.100442
H	 0.0798048978	 1.4434136964	-1.4551183861	 0.100579
H	 2.413273078	 1.3782942471	-0.5912001285	 0.108077
H	 1.885578036	 2.1977184476	 0.8971995131	 0.110502
H	 1.2515561783	-1.9131847956	-0.1596323964	 0.114518
H	 2.8891515353	-1.2292293848	-0.0248218595	 0.091067
H	 1.4372307065	-2.6079129046	 2.2261049739	 0.065477
H	 3.3384171712	-1.8398394931	 3.6516600669	 0.100107
H	 4.1245087158	-1.3080404061	 2.1585643317	 0.092569
H	 2.4757674956	 0.3875466149	 4.0554112932	 0.102625
H	 3.1387709883	 0.9859711123	 2.5323400258	 0.096167
H	 0.343981335	-0.1100985347	 2.8263634993	 0.069707
