10
gdb 131338	3.69884	1.79143	1.2069	2.7214	54.37	-0.2619	-0.0883	0.1736	876.5357	0.054972	-500.839248	-500.833158	-500.832214	-500.869784	22.775	
O	 0.1040761426	 1.3443940059	 0.1667616732	-0.402372
C	 0.0775702198	 0.0222740663	 0.0380514972	 0.478964
N	 0.0748524965	-0.7037250775	-1.0416036268	-0.312631
N	 0.0416577369	-2.0802146256	-0.6952661585	-0.343292
C	 0.0267040244	-2.0705828063	 0.5950842361	 0.557662
O	-0.003574481	-2.9278579912	 1.6282476578	-0.238706
N	 0.000172079	-2.0958023886	 2.8064386052	 0.035484
N	 0.0297264122	-0.8861182069	 2.4873161479	-0.036736
N	 0.0470587358	-0.8129570043	 1.1349042788	-0.071727
H	 0.1224315138	 1.7190973181	-0.7251615808	 0.333354
