16
gdb 20910	3.22238	1.98703	1.3476	2.6705	66.89	-0.2138	0.0406	0.2544	918.052	0.13159	-379.944174	-379.936336	-379.935392	-379.977099	28.392	
C	-0.0063416959	 1.5545206864	 0.1388682811	-0.375705
C	-0.0475421314	 0.0380410695	-0.0551037321	-0.143186
N	-1.40149914	-0.4876050664	-0.0659555313	-0.013937
N	-2.0831605189	-0.6608343404	 1.1002731157	-0.282581
C	-3.2771863109	-1.1016604606	 0.7266326829	 0.019842
C	-3.398518603	-1.2169126585	-0.67534507	-0.382568
C	-2.1634903763	-0.8047126101	-1.137285573	 0.446678
O	-1.6303314938	-0.6735990687	-2.3748998239	-0.434476
H	 1.0307425609	 1.9012222782	 0.1829856888	 0.11657
H	-0.5059529316	 2.0682998878	-0.6876848636	 0.126389
H	-0.505985449	 1.8290018594	 1.0712720186	 0.144269
H	 0.4200216376	-0.2491682533	-1.0000389022	 0.131613
H	 0.4837109275	-0.4670767968	 0.7559545267	 0.130339
H	-4.020092737	-1.3299346889	 1.4774635948	 0.108293
H	-4.2420466176	-1.5484859176	-1.2586298329	 0.095778
H	-2.2712581205	-0.9895466999	-3.0187948594	 0.312683
