16
gdb 55499	3.4028	1.05949	0.81208	11.6833	71.02	-0.211	-0.0716	0.1394	1342.4026	0.122573	-471.254799	-471.245631	-471.244687	-471.289789	32.28	
C	 0.3297068492	 1.358384838	-0.1604979375	-0.486714
C	-0.0108172928	-0.0973890326	-0.0581555853	 0.460461
N	-0.004817539	-0.71479969	 1.110244199	-0.487325
H	-0.2193041473	-1.7293653828	 1.0889265104	 0.317847
H	 0.207794209	-0.2140672734	 1.956090208	 0.282438
N	-0.294225669	-0.7814685833	-1.1466749077	-0.297626
C	-0.5927623859	-2.1517153954	-1.238199465	 0.231291
N	-0.6289987353	-2.9151791508	-0.2227472922	-0.545223
C	-0.8494962552	-2.4973651113	-2.7400167751	 0.384481
O	-1.1227297021	-3.6722406333	-2.9626521687	-0.436926
O	-0.7235375633	-1.4722537162	-3.4635619953	-0.504058
H	 1.4152637102	 1.4746626942	-0.2471852354	 0.182516
H	-0.1323912342	 1.7982338311	-1.0451418427	 0.18034
H	-0.0037106824	 1.900056887	 0.7275795421	 0.157065
H	-0.3480481697	-0.455638744	-2.1516416512	 0.303591
H	-0.8674996923	-3.8511997971	-0.5665788633	 0.257842
