19
gdb 86052	2.81911	1.18669	1.03039	2.8357	71.62	-0.2488	-0.0323	0.2166	1210.2568	0.156984	-460.159962	-460.150891	-460.149946	-460.193672	34.531	
O	-0.948578316	 1.0839156893	 0.6181837017	-0.433142
C	-0.1084446758	 0.0904226275	 0.0443828025	 0.113612
C	 0.5507994212	-0.8505120038	 1.0912151549	-0.307133
C	-0.6207145516	-1.8484429382	 0.9024779889	 0.434642
O	-0.1768869005	-3.1772978019	 0.7797316385	-0.494531
C	-1.70539658	-1.7177687852	 1.9784661928	-0.360857
C	-2.9136149327	-2.5876912688	 1.7413001308	 0.160856
O	-2.9785483631	-3.4705002454	 0.9154541805	-0.260309
C	-0.9809754236	-1.0941504748	-0.4226099632	-0.281499
H	-0.3865144252	 1.7112525687	 1.0848692717	 0.282959
H	 0.561378832	 0.5343846435	-0.7017456175	 0.070644
H	 1.4757211584	-1.2976463656	 0.7188234112	 0.115471
H	 0.7196742126	-0.4402823302	 2.091558981	 0.088354
H	-0.9633818021	-3.7027990696	 0.5736977834	 0.287789
H	-1.3010818339	-2.003558872	 2.9623718296	 0.131231
H	-2.0339818341	-0.6758890201	 2.0745020722	 0.142733
H	-3.7835500807	-2.3800423638	 2.4025466845	 0.093345
H	-2.0286063042	-0.8625716614	-0.6257963689	 0.105278
H	-0.5426211005	-1.613731548	-1.2768721448	 0.110556
