21
gdb 114523	2.34831	1.56947	1.14474	2.957	78.17	-0.2416	0.0629	0.3046	1151.6577	0.182999	-424.186441	-424.177782	-424.176838	-424.219863	33.456	
C	-0.1454905436	 1.4829831096	-0.0917774205	-0.24416
O	-0.1626718478	 0.193581839	 0.4832778941	-0.251406
C	-1.2944804545	-0.5779093496	 0.1190032854	 0.124939
C	-1.2736812982	-1.2136796581	-1.3086783164	-0.264283
C	-1.0987516784	-2.6081612047	-0.6682282739	-0.016519
C	 0.3728522179	-2.9426679184	-0.2846358322	-0.283898
C	 0.0525223042	-2.5901593539	 1.2036020407	 0.174563
O	 0.9486340164	-1.8455315816	 1.9751514106	-0.441389
C	-1.3110033438	-1.9911106472	 0.7678125462	-0.12639
H	 0.7552790991	 1.9875931664	 0.2644568111	 0.132997
H	-0.1193458348	 1.4404260369	-1.1896206078	 0.115356
H	-1.0275339377	 2.0657158441	 0.2132426207	 0.112488
H	-2.2041365512	 0.0045727935	 0.3225562063	 0.072402
H	-2.2281045417	-1.0870065439	-1.8275320764	 0.099841
H	-0.4677750618	-0.8822796233	-1.9709183508	 0.099668
H	-1.7032775924	-3.4298464699	-1.0503278099	 0.065585
H	 0.7027596927	-3.9684391717	-0.4644979182	 0.09714
H	 1.0980972144	-2.2606318676	-0.7376399061	 0.097335
H	-0.1388962542	-3.5142048933	 1.7603367053	 0.084411
H	 0.9455628181	-0.9541369642	 1.602331514	 0.289159
H	-2.1739173625	-2.187673022	 1.4055027079	 0.062164
