20
gdb 52695	3.71722	0.67023	0.61884	3.4892	85.19	-0.2367	0.0297	0.2664	1855.2051	0.167853	-403.171042	-403.159545	-403.158601	-403.210509	38.988	
C	 0.058240995	 1.4722122542	 0.0280827417	-0.498799
C	 0.0165276883	 0.0166037399	-0.0018209867	 0.103195
C	-0.016170584	-1.1875594504	-0.0117409277	 0.028056
C	-0.0687768703	-2.6490874942	-0.0463150605	-0.150559
C	-1.5227045031	-3.1603358212	-0.0045024107	-0.393011
C	 0.6907896289	-3.1866255228	-1.2770737686	-0.310762
C	 0.9481023455	-4.6909654895	-1.1930069266	 0.413646
N	 1.1954250738	-5.2950850193	-2.3920419611	-0.527302
O	 0.9502238887	-5.3071821785	-0.1438797097	-0.359258
H	 0.6334551468	 1.8378845832	 0.8861195226	 0.14633
H	 0.5233503498	 1.878182032	-0.8773589404	 0.143093
H	-0.9485366961	 1.8988055659	 0.1003122333	 0.145743
H	 0.4484952725	-3.0492853236	 0.8338830062	 0.127081
H	-1.5347369963	-4.2524204779	 0.0279043919	 0.135437
H	-2.0362217838	-2.7818891705	 0.8829238175	 0.122695
H	-2.0788245314	-2.8215050058	-0.8848980382	 0.112024
H	 0.1498129791	-2.9387563391	-2.1979063952	 0.109502
H	 1.6667444371	-2.6910807527	-1.3471704343	 0.134764
H	 1.2645569192	-4.7759780552	-3.2494633288	 0.258057
H	 1.4700760806	-6.2638644043	-2.3887811047	 0.260069
