17
gdb 82907	3.1678	1.89274	1.61354	1.9311	65.28	-0.2521	0.0625	0.3145	857.8265	0.139576	-458.94276	-458.936651	-458.935707	-458.972933	26.18	
O	-0.0063072004	 1.445738757	 0.1129660463	-0.440646
C	 0.0120534254	 0.0395540045	-0.0122710511	 0.156975
C	-1.3765617975	-0.5336429354	-0.3832959249	-0.146069
C	-1.6322116843	 0.2783406161	-1.6748694105	-0.206968
C	-0.4936587804	-0.4433735167	-2.4116740147	 0.039018
O	-1.0538107961	-1.7699667976	-2.4111277607	-0.23952
C	-0.9236052707	-1.9504876022	-1.0170574556	 0.167936
O	 0.4945043143	-1.9605102001	-0.8739719456	-0.241305
C	 0.6588898822	-0.5939979366	-1.2729064981	-0.029061
H	 0.8710774692	 1.7266483218	 0.3891092074	 0.28816
H	 0.4483394703	-0.4301787177	 0.8746455917	 0.081896
H	-2.1436228626	-0.5632053817	 0.3872690961	 0.075966
H	-2.5845814568	 0.0703160404	-2.1627779364	 0.104262
H	-1.5041332094	 1.3477794459	-1.5201033846	 0.127619
H	-0.1923898072	-0.1432012308	-3.4121745	 0.085638
H	-1.3768302722	-2.8761148013	-0.671914877	 0.098085
H	 1.6904978362	-0.3722517356	-1.5396275923	 0.078014
