13
gdb 131708	3.07303	1.31531	0.92638	7.0376	64.18	-0.2723	-0.1018	0.1704	1154.6406	0.087664	-489.862656	-489.854708	-489.853763	-489.896134	27.845	
O	 0.0275047577	 1.4266518285	 0.0074065141	-0.384011
C	-0.0101718151	 0.0318141431	 0.002420148	-0.163769
C	-1.432700666	-0.4646803465	 0.012289358	 0.30117
N	-2.4227349644	 0.3577131794	 0.0224227788	-0.337746
C	-3.7126303452	-0.1649730676	 0.0312292427	 0.473701
O	-4.7159336101	 0.4773770046	 0.0408750145	-0.308228
O	-3.8668012151	-1.5723702382	 0.0282023952	-0.243039
N	-2.8042440262	-2.43568231	 0.0174398232	-0.026117
C	-1.6355751811	-1.8998500309	 0.0098861417	-0.006977
H	 0.9479920224	 1.7055654657	-0.0031488689	 0.302213
H	 0.4797883752	-0.4092095354	-0.8856876869	 0.123889
H	 0.4943865089	-0.4158410079	 0.8790031726	 0.123822
H	-0.804895871	-2.5986331348	 0.0014487971	 0.145092
