17
gdb 87071	2.52331	1.38306	1.12405	2.5228	74.03	-0.2542	0.0074	0.2616	1130.8654	0.134395	-417.96168	-417.952698	-417.951754	-417.995567	32.801	
O	-0.084611628	 1.3702389789	-0.465042653	-0.413091
C	 0.0053593403	 0.0238769565	-0.1528064442	 0.112329
C	-0.0653650779	-0.5053022334	 1.244416665	-0.364625
C	-1.2075891773	-0.8095670417	 0.2657991329	 0.16556
C	-2.4295537096	-0.0640008034	 0.4663082075	 0.220503
N	-3.4082107586	 0.54244173	 0.5965642417	-0.364775
N	-1.276463245	-2.1523619319	-0.2393152242	-0.124235
C	-2.3621243222	-3.0265120085	 0.2073214925	-0.239521
C	-2.331874083	-2.5041998041	-1.1881895189	-0.239781
H	-0.817828377	 1.7697041691	 0.0179762625	 0.299863
H	 0.6662670011	-0.486600723	-0.8438354519	 0.136523
H	 0.5537433661	-1.3545000909	 1.5089769812	 0.142292
H	-0.278674389	 0.1905309941	 2.0484928255	 0.136998
H	-2.0714570453	-4.050171092	 0.4222383438	 0.126571
H	-3.1151666454	-2.6091262636	 0.87173546	 0.13713
H	-3.0658788932	-1.7438761893	-1.4446655313	 0.140983
H	-2.018404886	-3.1397881565	-2.0105010191	 0.127275
