12
gdb 131764	2.05855	1.79676	1.00948	3.2584	62.42	-0.3116	-0.0896	0.222	1073.1217	0.077397	-468.759853	-468.752125	-468.751181	-468.793145	26.834	
O	 0.1230778659	 1.2159675822	-0.6560496323	-0.39608
C	-0.0003982934	 0.0226382316	 0.0917510823	-0.191684
C	-1.4097210911	-0.4955507608	 0.0707959186	 0.219856
N	-2.1075101388	-0.7196925199	 1.1484652683	-0.1182
O	-3.3382495729	-1.1503321248	 0.7233042057	-0.137088
N	-3.4182535349	-1.1888702709	-0.6265697827	-0.13144
C	-2.2444950276	-0.7891094583	-1.0569473673	 0.202677
C	-1.931026775	-0.6953136893	-2.4393968444	 0.277975
N	-1.6465618883	-0.6202445621	-3.5570986527	-0.314929
H	-0.3465206664	 1.9166889291	-0.1904605279	 0.299625
H	 0.6628023458	-0.7034378342	-0.3887844712	 0.15055
H	 0.3180885767	 0.1315988574	 1.1356883937	 0.138737
