20
gdb 111262	2.87747	1.23391	0.97137	1.9947	80.56	-0.2361	-0.0186	0.2175	1287.4064	0.169256	-403.134323	-403.124859	-403.123915	-403.168817	34.621	
C	-0.1868409503	 1.6599094857	-0.1330031075	-0.37868
C	-0.0711874643	 0.1409510896	 0.0367451424	-0.210893
C	 0.7858859372	-0.5031303519	-1.0422936085	-0.063684
N	 2.2623848692	-0.1620749185	-1.1123544748	-0.164947
C	 2.8712791069	-0.7502745326	 0.0794561502	-0.285104
C	 2.6158553099	-1.6559842241	-1.0803151127	 0.207236
C	 3.6810488186	-2.3167903353	-1.9006124603	-0.496261
C	 1.1523926296	-2.0044892362	-1.0637906412	 0.339419
O	 0.5366784386	-3.0164329475	-1.2453313502	-0.316517
H	 0.797976611	 2.1351672081	-0.0956852238	 0.134346
H	-0.6409602448	 1.9150246044	-1.0964754243	 0.119719
H	-0.805473426	 2.0966806017	 0.65651401	 0.11564
H	 0.318440418	-0.0938105402	 1.0333779379	 0.101601
H	-1.0629815984	-0.324171702	-0.0153721949	 0.121055
H	 0.3611825989	-0.2694959368	-2.0277698105	 0.113431
H	 3.9054692899	-0.4530839345	 0.229837558	 0.131037
H	 2.2987643588	-0.8505261289	 0.9974923151	 0.123439
H	 4.5803553029	-1.6960965851	-1.9399052949	 0.133757
H	 3.950257682	-3.2838875783	-1.4632022035	 0.139541
H	 3.3370946721	-2.4950642577	-2.9238980066	 0.135865
