23
gdb 113970	3.8473	0.62874	0.57675	0.8807	93.05	-0.2541	0.059	0.3131	1991.1973	0.203682	-351.117185	-351.10653	-351.105586	-351.153836	38.91	
C	-0.1012006216	 1.5605523182	-0.4748155555	-0.372376
C	-0.0353526947	 0.1933927089	 0.2167361349	-0.194956
C	-1.3758814514	-0.5149547717	 0.2194745513	-0.003642
C	-1.816808979	-1.3600858825	-0.9535511826	-0.293257
C	-1.5346174457	-2.0097104711	 0.383688121	-0.010415
C	-0.3667739159	-2.9560275595	 0.5638571702	-0.205317
C	-0.7229880913	-4.3961168874	 0.1309552126	-0.348059
C	 0.3830087107	-5.3308732436	 0.2962538883	 0.291435
C	 1.3140579694	-6.0774808079	 0.4416865475	-0.438243
H	 0.8728503002	 2.0595419192	-0.4634106969	 0.109639
H	-0.4168641381	 1.4571188799	-1.5181910417	 0.117885
H	-0.8198056897	 2.2206975402	 0.0234843598	 0.112954
H	 0.7175251684	-0.4265461527	-0.2826528293	 0.096638
H	 0.3136558113	 0.323353767	 1.2497686788	 0.096612
H	-2.1649552368	 0.0722154398	 0.6858102461	 0.078746
H	-2.840814982	-1.2922797936	-1.304478933	 0.107591
H	-1.0892091479	-1.5217852953	-1.7446346053	 0.107096
H	-2.4174815885	-2.3099369316	 0.9453644782	 0.079145
H	 0.4983846258	-2.6229152982	-0.017434419	 0.109163
H	-0.0471230569	-2.972199286	 1.6127235359	 0.108919
H	-1.5878378479	-4.7468675543	 0.7095537857	 0.126683
H	-1.0456441305	-4.3867901474	-0.9178952689	 0.132474
H	 2.1278880822	-6.7476688404	 0.5660463118	 0.191284
