21
gdb 86083	2.57269	1.35359	1.04237	1.5487	86.89	-0.2189	0.026	0.245	1240.6724	0.182158	-387.097001	-387.087957	-387.087012	-387.130613	35.115	
C	-0.0250527023	 1.5161164361	 0.0452390183	-0.490084
C	 0.031435711	 0.0222906993	 0.0053180565	 0.298402
C	-0.0277209503	-0.7671282904	-1.0729806434	-0.255148
C	 0.0365972945	-2.2091461675	-0.723159444	 0.332778
C	-0.9242057352	-3.2218199395	-1.3183525574	-0.318055
C	 0.5359492886	-3.2724419399	-1.67370233	-0.315637
C	 0.4306962292	-2.2471984738	 0.7649162228	 0.024466
O	 1.7973457551	-2.5987812499	 0.9552321344	-0.427579
C	 0.1229151646	-0.8119314699	 1.2682106051	-0.333279
H	 0.8708435714	 1.9368099775	 0.52019184	 0.123252
H	-0.1114547526	 1.9448378974	-0.9571118372	 0.121406
H	-0.8801766232	 1.8648536261	 0.6390146532	 0.124986
H	-0.1275534718	-0.418725471	-2.0965117354	 0.086306
H	-1.3183746682	-3.9895232152	-0.6600164884	 0.113887
H	-1.6272833419	-2.8728419247	-2.0677330092	 0.109589
H	 0.8332388005	-2.964450516	-2.671017931	 0.108115
H	 1.1436992306	-4.0619806059	-1.2458221611	 0.125842
H	-0.1260148255	-3.0059832809	 1.32076836	 0.08204
H	 2.3207736427	-2.0295032784	 0.379744124	 0.279075
H	 0.9068891562	-0.4808476265	 1.9593924269	 0.104673
H	-0.8230823434	-0.7711293868	 1.8265096158	 0.104963
