18
gdb 54918	4.78417	0.84671	0.80776	4.8439	77.45	-0.2599	-0.0297	0.2302	1430.1269	0.146713	-401.977774	-401.968593	-401.967649	-402.012818	32.655	
C	-0.1921721952	 1.4859910603	-0.2373528202	-0.482148
C	 0.0644308769	 0.0107905302	-0.0029602549	 0.384108
O	 1.1837137793	-0.4466783876	 0.0709629698	-0.302771
C	-1.1656610718	-0.8794634805	 0.0928219949	-0.117251
C	-1.4668881519	-1.5587702493	-1.290274967	-0.243724
C	-0.7489579133	-2.8427347759	-0.7713135609	-0.12102
C	-0.8757306995	-2.2848703689	 0.681202964	-0.242161
C	-1.3586915597	-4.1250280487	-1.0742901672	 0.263493
N	-1.8670085903	-5.1373115664	-1.3074149739	-0.324899
H	 0.7451281185	 2.0037217904	-0.4431477233	 0.147349
H	-0.8934676411	 1.6321366293	-1.0664901973	 0.141212
H	-0.6619071262	 1.9216721676	 0.6525575071	 0.147323
H	-2.0051209416	-0.327578388	 0.5208940632	 0.08895
H	-2.5364338707	-1.7197334593	-1.4338611141	 0.132351
H	-1.0494336259	-1.0964168125	-2.1870609481	 0.124131
H	 0.2986793914	-2.8511277781	-1.0792928778	 0.144477
H	 0.0189033028	-2.3718354957	 1.2968575105	 0.13699
H	-1.7392292816	-2.6985723369	 1.204196915	 0.123589
