19
gdb 110985	2.42219	1.32737	1.15013	2.441	72.89	-0.2327	0.0631	0.2958	1182.5084	0.156066	-460.080113	-460.070661	-460.069717	-460.114321	34.636	
C	-0.2732080934	 1.3408348574	 0.0769361898	-0.24051
O	 0.3855796383	 0.1089013159	-0.1215537147	-0.250425
C	 0.857571177	-0.460481327	 1.0536366086	 0.141741
C	-0.0672953502	-1.3989100901	 1.8841717304	-0.063748
O	-0.029816733	-2.3818884783	 0.7881324105	-0.341127
C	 1.3806034329	-1.9134833002	 0.9061112561	 0.334578
C	 2.4019673134	-2.457057255	-0.0387368672	-0.528064
C	 1.2147816614	-2.0992063169	 2.4354862626	 0.071099
O	 2.1315370465	-1.4396931169	 3.2648156584	-0.430855
H	 0.3785704006	 2.0743346493	 0.5768765989	 0.105182
H	-0.5466705928	 1.7239074392	-0.9087564245	 0.12993
H	-1.1873472627	 1.2252688507	 0.6777984928	 0.107988
H	 1.483913757	 0.2304946767	 1.6314633843	 0.08341
H	-1.0295970209	-1.2152315036	 2.3621273511	 0.087191
H	 2.1834150158	-2.1312561193	-1.0594506623	 0.145548
H	 3.3961549881	-2.093931325	 0.239632898	 0.134493
H	 2.4092281565	-3.5506207383	-0.0098099123	 0.131821
H	 1.0313974906	-3.1419620569	 2.7135101997	 0.089732
H	 1.8838480749	-1.5995080317	 4.1806121798	 0.292017
