15
gdb 6822	3.1328	1.75633	1.45118	3.7986	61.61	-0.2756	-0.0054	0.2702	890.5595	0.117197	-399.787747	-399.779678	-399.778734	-399.820205	29.204	
C	-0.1801072297	 1.5516042928	-0.0585946532	-0.464796
C	-0.0240242459	 0.0405776392	-0.0667167342	 0.318982
O	-1.1811167452	-0.6245832005	-0.4929232249	-0.455748
C	 1.242195891	-0.4867686902	-0.7735604749	-0.095333
O	 1.8910060046	-0.7609485811	 0.4910924373	-0.278445
C	 0.6640314653	-0.5724703641	 1.2138512821	-0.047622
C	 0.8117772956	 0.2587140375	 2.4050086857	 0.275088
N	 0.8875699062	 0.9368308174	 3.3382068663	-0.324983
H	 0.7492830245	 2.0435447904	 0.2389219515	 0.152004
H	-0.4570701685	 1.8976624308	-1.0589784387	 0.133197
H	-0.957034712	 1.8611671424	 0.6501027559	 0.132077
H	-1.9531066585	-0.1451065897	-0.1736236067	 0.289874
H	 1.0511476379	-1.4024851089	-1.3441153311	 0.120888
H	 1.8107903722	 0.2259774836	-1.3781320155	 0.118878
H	 0.1955847425	-1.5266872496	 1.4876110103	 0.125938
