23
gdb 72920	2.44685	1.92172	1.49995	0.1024	87.92	-0.2658	0.0904	0.3562	1016.3194	0.209087	-351.138397	-351.131006	-351.130061	-351.169475	32.045	
C	-0.0971655952	 1.4904286932	 0.0286232204	-0.484998
C	 0.0394141982	-0.0239417005	-0.0181425856	 0.397126
C	-1.2676278546	-0.806654677	 0.3345028832	-0.298912
C	-0.5367075031	-1.5187283614	 1.5123233377	-0.24168
C	 0.7823711827	-0.7818951444	 1.1497823403	-0.03326
C	 1.8514178407	-1.530859211	 0.3307845153	-0.031207
C	 1.0671760009	-2.061952618	-0.9040369159	-0.244283
C	 0.8884954541	-0.5462886942	-1.2023609892	-0.070776
C	 2.3346957746	-0.3941996609	-0.622459564	-0.227875
H	 0.8660791899	 1.9975702348	-0.088686933	 0.112347
H	-0.757760111	 1.8442534826	-0.7727581531	 0.111013
H	-0.5311923167	 1.8202387251	 0.9792053233	 0.109043
H	-2.0855101063	-0.1545148324	 0.6525575535	 0.091299
H	-1.6501241271	-1.4620914181	-0.4527281606	 0.094991
H	-0.9308105858	-1.2516828945	 2.4958270867	 0.094702
H	-0.4924345549	-2.6099919092	 1.4543744923	 0.09584
H	 1.2198863306	-0.1742514854	 1.9464225256	 0.057007
H	 2.5520956067	-2.1660239475	 0.87535276	 0.054173
H	 1.7294806984	-2.5428470503	-1.627678666	 0.092209
H	 0.1852101617	-2.6871872742	-0.7517777317	 0.091968
H	 0.6268096405	-0.1888449572	-2.2004285333	 0.051702
H	 2.622971335	 0.5625099601	-0.178039924	 0.087329
H	 3.1044798307	-0.7275816297	-1.3223330321	 0.092243
