19
gdb 108052	3.66421	1.3798	1.24995	2.4381	74.27	-0.2397	0.0626	0.3023	1054.7031	0.160311	-422.974243	-422.966739	-422.965795	-423.006255	30.061	
O	-0.0882565504	 1.457097797	-0.2924458305	-0.420208
C	 0.038418281	 0.0764956141	 0.0029282832	-0.162779
C	-1.3210392458	-0.5552475009	 0.1525350963	 0.438104
C	-2.223900099	-0.2814701558	 1.380409546	-0.266857
C	-2.8605947109	-1.6875763181	 1.2037431534	-0.055071
C	-3.8426738736	-1.7501194149	 0.0018727619	-0.236901
C	-2.6358777183	-1.7257933239	-0.9623062472	 0.111636
O	-2.0831582149	-0.3930940011	-1.0811197637	-0.359132
C	-1.6853669557	-2.0681078719	 0.2187228716	-0.172134
H	-0.6724045825	 1.513285898	-1.0584092499	 0.296559
H	 0.6016530084	-0.4547052401	-0.7811791241	 0.087737
H	 0.6041419055	-0.0006877066	 0.9376082425	 0.105023
H	-1.6222430625	-0.2357761027	 2.2943142202	 0.101416
H	-2.8750390337	 0.5945100141	 1.3305459522	 0.10519
H	-3.1153346538	-2.2485551767	 2.1020642479	 0.070872
H	-4.3419855776	-2.7240839698	-0.040130444	 0.101678
H	-4.5846975928	-0.954598359	-0.1094649206	 0.102493
H	-2.6960970606	-2.2305324159	-1.9284100067	 0.077951
H	-0.9963898327	-2.905311116	 0.2946897517	 0.074424
