19
gdb 4157	2.67711	1.63885	1.07757	0.7493	75.64	-0.2408	0.0085	0.2493	1123.4515	0.16428	-365.018586	-365.009783	-365.008839	-365.052241	32.218	
C	 0.1243079223	 1.695721793	-0.1620227554	-0.384438
C	 0.0803790312	 0.1755944241	 0.0205183914	-0.185994
C	 0.62225206	-0.5940760478	-1.1834023376	-0.049647
C	 0.559815376	-2.1602353888	-1.1556037862	-0.250369
C	-0.1048699227	-2.1651302368	-2.5678014358	-0.317424
C	-0.220317792	-0.6596073402	-2.4491205299	 0.412855
N	-0.8481402505	 0.2550404867	-3.0602210738	-0.23677
O	-1.5648565583	-0.2696489817	-4.1555216801	-0.394299
H	 1.1529042048	 2.0452906071	-0.3065125411	 0.109186
H	-0.4569336298	 1.9958413879	-1.0380806701	 0.144583
H	-0.281861783	 2.2091984369	 0.7151316517	 0.106922
H	 0.6626323686	-0.113489447	 0.9054930756	 0.09411
H	-0.9518188131	-0.1452259163	 0.2103733335	 0.094921
H	 1.6383543193	-0.2466584154	-1.4132526045	 0.088166
H	 1.5172772201	-2.6767060258	-1.0700011258	 0.103215
H	-0.1099474992	-2.5304259424	-0.3752873473	 0.108271
H	 0.5612164829	-2.4800896184	-3.3774892878	 0.124958
H	-1.0493344854	-2.7038435333	-2.6782259591	 0.127132
H	-1.9904941715	 0.516920298	-4.5127922577	 0.304623
