18
gdb 19615	3.68036	1.95048	1.61255	1.8055	70.41	-0.2415	0.0839	0.3255	856.8114	0.154465	-347.748883	-347.741843	-347.740899	-347.779637	28.399	
C	 0.0187349028	 1.5989252805	 0.0080283798	-0.422626
C	 0.1064558638	 0.0772624178	 0.0017917804	 0.028344
C	 0.8338031765	-0.6786075315	-1.1176978754	-0.079005
C	 2.3130288673	-0.7997147487	-0.7322363175	-0.109051
C	 1.2804552984	-1.7639989919	-0.1729190243	-0.115718
C	 1.0672786846	-0.679519523	 0.9674083079	-0.116847
C	 2.4942759702	-0.1522689935	 0.6398772813	 0.159366
O	 3.5190110614	-0.7391896752	 1.4146848066	-0.449
H	 0.9876432276	 2.072014084	-0.1737809273	 0.121618
H	-0.6669976989	 1.9472862768	-0.772324904	 0.113581
H	-0.3612479081	 1.9661737738	 0.9682038111	 0.1154
H	-0.8982634747	-0.3491257243	 0.1076743664	 0.071548
H	 0.5284909452	-0.7940977239	-2.1510558905	 0.083697
H	 3.0759393863	-0.9930717213	-1.4765474248	 0.086882
H	 1.1762828771	-2.8378089469	-0.2229408389	 0.090688
H	 0.798145504	-0.8686285314	 2.0054815164	 0.068716
H	 2.6688689066	 0.9252465522	 0.7058595718	 0.07652
H	 3.4485506898	-1.6955562636	 1.306124571	 0.275887
