17
gdb 127763	3.27674	1.54922	1.07821	4.3146	74.71	-0.2293	0.0017	0.231	1087.9034	0.139392	-414.170849	-414.163044	-414.1621	-414.20376	28.304	
C	 0.0160349712	 1.4612347702	-0.0172737567	-0.342825
N	 0.0087175331	 0.0180384651	 0.0890356113	-0.092865
N	 0.0372718624	-0.7439464729	-1.0468779386	-0.1623
N	 0.021065835	-2.0032596265	-0.6952523623	-0.292934
C	-0.0014107645	-2.0555757725	 0.6573110303	 0.275259
C	-0.0067949637	-0.7892378472	 1.1671510303	 0.323897
C	-0.1077985002	-0.7813049383	 2.6591458174	-0.292734
N	 0.0063276041	-2.2321736155	 2.9963137082	-0.306866
C	-0.0896368588	-3.0702081426	 1.7578932349	-0.285459
H	 0.8960644248	 1.882926507	 0.4769992943	 0.14464
H	 0.0437331017	 1.7060711505	-1.0790882871	 0.172134
H	-0.8858529155	 1.8878761188	 0.4313223399	 0.146103
H	 0.675730582	-0.2040475288	 3.1637835814	 0.116135
H	-1.071525442	-0.3778212584	 3.0019933096	 0.124586
H	 0.9121010797	-2.3886070555	 3.4179213197	 0.227893
H	-1.042434435	-3.6153662862	 1.7380372695	 0.125575
H	 0.7092466258	-3.8189569574	 1.7411885079	 0.119761
