16
gdb 2315	5.12536	1.76975	1.48037	1.2415	66.36	-0.2271	0.0507	0.2777	846.4976	0.13508	-288.570364	-288.562639	-288.561695	-288.60223	28.123	
C	-0.2865916562	 1.4156384659	 0.2178064232	-0.316367
N	 0.034490409	-0.0004136688	 0.1201838207	-0.06783
C	 1.3874800229	-0.3743802569	-0.2731755328	-0.263014
C	 0.8992597609	-0.6290245181	 1.1126725114	 0.03253
C	 1.5076298559	 0.1237813879	 2.2925360871	-0.384196
C	 0.5737418627	 0.2927033391	 3.4022499065	 0.310139
C	-0.2080361069	 0.4173653718	 4.3065616939	-0.450633
H	 0.5638301305	 2.0634816357	 0.4835607724	 0.096857
H	-0.6687028825	 1.7522485332	-0.7510693678	 0.124284
H	-1.0720352659	 1.5574154872	 0.9657956007	 0.135994
H	 1.4770012617	-1.1811835466	-0.9961933065	 0.115192
H	 2.1207050674	 0.4242711023	-0.3938554295	 0.102159
H	 0.5807912384	-1.6366383295	 1.3747467626	 0.10012
H	 2.3859950682	-0.4369052029	 2.6385631903	 0.136586
H	 1.8843352222	 1.1017203085	 1.9738321227	 0.131013
H	-0.8941853283	 0.5334050312	 5.1084560653	 0.197168
