16
gdb 48622	3.75585	1.44903	1.24385	2.2833	68.3	-0.2513	-0.0389	0.2124	986.1848	0.125394	-437.887231	-437.880102	-437.879158	-437.919235	27.431	
O	-0.3223074858	 0.3554773976	-0.6262080925	-0.26441
C	 0.081362502	 1.0857509636	 0.2442392607	 0.075475
C	 1.3329650668	 1.9108484492	 0.1014383015	 0.225455
C	 2.6530004112	 1.2027725858	-0.3602941318	-0.269306
C	 3.0161525676	 2.5796463569	-0.958908334	 0.099098
C	 1.5033706247	 2.8060520372	-1.173907699	-0.269304
O	 3.4751573409	 3.4481936778	 0.1040533726	-0.235693
C	 2.6611299366	 3.4127170715	 1.1844152556	 0.110219
N	 1.6079554221	 2.7124388664	 1.2925883331	-0.308342
H	-0.4436718876	 1.2015042019	 1.2163234008	 0.093766
H	 3.2960152192	 0.7933253196	 0.4204097335	 0.119016
H	 2.4488572258	 0.4653214005	-1.137290704	 0.134357
H	 3.735587305	 2.6844584151	-1.7688992887	 0.097887
H	 1.1399266063	 2.2907224304	-2.0636123441	 0.134365
H	 1.1210633811	 3.8265552336	-1.118872315	 0.119011
H	 3.0132365743	 4.067319983	 1.9768566315	 0.138404
