20
gdb 81744	2.97272	1.23692	1.04736	4.4845	84.56	-0.2665	0.0224	0.2889	1218.2377	0.170847	-366.012288	-366.00326	-366.002315	-366.045678	34.307	
C	-0.4467224159	 1.5401410189	 0.3594920836	-0.408577
C	-0.1073733915	 0.0618049132	 0.2067397263	 0.003827
C	 0.2898227971	-0.4549599496	-1.1838987593	-0.11265
C	 1.6054405907	 0.0963088595	-1.6311317662	-0.328604
C	 1.6089301243	-1.027162848	-0.6170205643	 0.222775
C	 2.2250433454	-2.2847729629	-0.8827915081	 0.179584
N	 2.7244392163	-3.3120699553	-1.0749964975	-0.356008
C	 1.2449339115	-0.5122377829	 0.7938438172	-0.069007
C	 2.235909132	 0.4003107065	 1.503810161	-0.414039
H	 0.3312169147	 2.1926445016	-0.0477689513	 0.11712
H	-1.3798461831	 1.7742603821	-0.1639990559	 0.121814
H	-0.5834526015	 1.8042020412	 1.4134163303	 0.121129
H	-0.9372016033	-0.5338350669	 0.597485773	 0.086603
H	-0.3772887829	-0.9460405089	-1.8817634482	 0.110296
H	 1.9161593379	-0.1945469653	-2.6285548829	 0.139151
H	 1.9370483561	 1.08614641	-1.3334643877	 0.121656
H	 1.0182524868	-1.3648746117	 1.4390284975	 0.094801
H	 2.5264010189	 1.2593748868	 0.8926358394	 0.117156
H	 1.8090994245	 0.7852651898	 2.4357956749	 0.121655
H	 3.1478354619	-0.1500430581	 1.7576234382	 0.131318
