19
gdb 63139	2.41249	2.03303	1.60534	0.9811	74.18	-0.2307	0.0121	0.2427	925.5296	0.159862	-423.016689	-423.008965	-423.008021	-423.048084	31.754	
C	-0.0857665378	 1.5282970108	 0.0550984456	-0.472412
C	 0.0109837231	 0.0045591274	 0.0202389453	 0.425813
O	-1.269057893	-0.5519311203	-0.2144739527	-0.486482
C	 1.0257811088	-0.6181488914	-0.9900801111	-0.133629
C	 2.344342289	-0.0369054647	-0.4093966577	-0.086262
O	 2.1201294785	-0.0255801811	 1.010179652	-0.277485
C	 0.8061636508	-0.6204115083	 1.2104975601	-0.004668
C	 0.887582695	-2.0740159429	 0.7922078025	-0.068041
C	 1.0113229114	-2.0695027532	-0.5385884485	-0.072858
H	 0.8538490751	 2.0008030664	 0.3418299411	 0.142843
H	-0.4027917485	 1.9120511773	-0.9196514036	 0.122996
H	-0.839958258	 1.8327050481	 0.7922025182	 0.103756
H	-1.8889478459	-0.1264113343	 0.3865010505	 0.274759
H	 0.8522521888	-0.4162392686	-2.0466579637	 0.071908
H	 3.2125078842	-0.6604205158	-0.6510864021	 0.100315
H	 2.5382131222	 0.9854504112	-0.7547530561	 0.097923
H	 0.4875379656	-0.3876072791	 2.2265413605	 0.064789
H	 0.9244182278	-2.9204571138	 1.4647536123	 0.098724
H	 1.1748077627	-2.9155286578	-1.1938074527	 0.098013
