17
gdb 125315	3.73492	1.0233	0.82919	2.0219	81.34	-0.2296	0.0218	0.2514	1370.6259	0.135673	-380.856627	-380.847701	-380.846757	-380.891545	31.872	
C	 0.4523404094	 1.417327087	-0.1014896712	-0.504477
C	 0.0894377012	-0.0320197202	 0.0118282607	 0.181813
C	 0.5015309958	-1.0754903769	-0.7937757208	-0.115179
N	-0.0575482872	-2.2100480065	-0.2987045123	 0.041542
C	-0.0254538952	-3.5566745713	-0.8512391981	-0.279811
C	 1.2598386364	-3.8986488788	-1.4485146756	 0.291906
C	 2.3041614149	-4.1922106425	-1.9632595878	-0.435205
N	-0.8290143282	-1.9735129357	 0.7804430686	-0.263919
C	-0.7378431222	-0.6603085645	 0.9720242707	-0.073837
H	 1.016834135	 1.765348435	 0.7711716727	 0.130429
H	 1.0692271619	 1.6011204405	-0.9855609086	 0.122746
H	-0.4371768834	 2.0519092584	-0.1824814825	 0.129368
H	 1.1515383029	-1.1008918045	-1.6538521905	 0.138873
H	-0.2622714025	-4.2298224599	-0.022347439	 0.167305
H	-0.8220470931	-3.6743549154	-1.5986214276	 0.152238
H	 3.2325616068	-4.4565721085	-2.4065621791	 0.20826
H	-1.2639730028	-0.2055670863	 1.7998082005	 0.107947
