14
gdb 4228	4.90629	1.44595	1.42647	2.1377	46.73	-0.3446	0.086	0.4306	885.3722	0.109275	-456.103432	-456.095918	-456.094973	-456.135756	26.166	
C	-0.0013019553	 1.581352764	 0.0105422119	-0.388089
C	 0.0075649071	 0.0514842078	 0.002224911	-0.175469
C	-1.4063944006	-0.5385772941	 0.0126114547	-0.311159
C	-1.4159430747	-2.0513151468	 0.0045535181	 0.282387
F	-0.7854740896	-2.560901847	 1.0770576517	-0.086507
F	-2.6700648552	-2.5331161747	 0.0139691309	-0.081837
F	-0.8061825988	-2.5492561932	-1.0852545257	-0.086507
H	 1.0178592336	 1.9783383831	 0.0029655819	 0.120829
H	-0.5214866379	 1.9816417602	-0.8665854221	 0.119104
H	-0.5046331849	 1.9721289199	 0.9016813472	 0.119103
H	 0.5392716786	-0.3152273574	-0.8825792691	 0.116749
H	 0.5561156553	-0.324676921	 0.8726626156	 0.116748
H	-1.9588966778	-0.2166790148	 0.901740084	 0.127324
H	-1.9758178597	-0.2071735759	-0.8622347403	 0.127324
