23
gdb 96560	2.25696	1.39567	1.00421	2.6014	80.83	-0.2491	0.0619	0.311	1266.9035	0.207744	-425.440408	-425.431235	-425.43029	-425.473882	36.252	
O	-0.0000148096	 1.4727411324	-0.0567615148	-0.451686
C	 0.0311380023	 0.0561387481	 0.0069759106	 0.154757
C	 0.9159186508	-0.4494990806	 1.1627197716	-0.223068
C	 1.6081178175	-1.7878713604	 0.8599079502	-0.192937
C	 0.6992511596	-3.0230875719	 0.7925551726	-0.176811
C	-0.5066163723	-2.9267766405	-0.158250977	-0.201346
C	-1.6016903849	-1.9630097124	 0.3379683221	-0.214875
C	-1.4186319893	-0.4676028772	 0.0252069947	 0.073256
O	-2.0951599378	 0.3230269883	 1.0166941164	-0.444194
H	-0.7286313946	 1.7377028089	 0.5203572668	 0.284026
H	 0.4898146076	-0.2720260206	-0.9345788852	 0.074515
H	 1.6822476495	 0.3169945971	 1.3155141676	 0.104518
H	 0.336753347	-0.5042653193	 2.0932106633	 0.097627
H	 2.1449002574	-1.6870593968	-0.0941929086	 0.093427
H	 2.3785590404	-1.970096435	 1.6186004354	 0.092593
H	 1.3121744816	-3.885173002	 0.5018009573	 0.090361
H	 0.3202366943	-3.2479699108	 1.7991598243	 0.093354
H	-0.1778956799	-2.6543144699	-1.1700009305	 0.096284
H	-0.9480938825	-3.9257717095	-0.24875571	 0.094422
H	-2.5732752168	-2.2737996905	-0.0659757627	 0.085552
H	-1.6827331287	-2.056082385	 1.4274302104	 0.107683
H	-1.844114461	-0.2382297275	-0.9627011111	 0.073054
H	-3.0429783607	 0.229448445	 0.8872603865	 0.28949
