21
gdb 39922	3.14903	1.4946	1.21114	0.1523	88.63	-0.2177	0.026	0.2437	1102.4465	0.18473	-349.944676	-349.93709	-349.936146	-349.976584	31.173	
C	-0.1277814588	 1.4969594716	 0.0425818929	-0.312701
C	 1.2514406004	 0.8938788289	 0.0011033641	-0.32524
C	 0.0321198161	-0.0070728677	 0.0165013054	 0.360074
C	-0.2735025207	-0.8596316619	 1.1988574517	-0.132893
C	-0.6342365142	-2.0983894204	 0.8546556628	-0.102089
C	-0.6467326146	-2.2995355985	-0.6386703137	-0.065008
C	-2.0496528681	-2.2990575956	-1.3187500696	-0.225101
C	-1.8906381819	-0.7793398531	-1.6049906559	-0.220423
C	-0.3887740509	-0.8509303289	-1.1838004309	-0.111546
H	-0.4586201483	 1.9625899452	 0.9655144075	 0.108964
H	-0.5030782414	 1.9779276863	-0.8550080663	 0.112483
H	 1.8127186137	 0.9633205689	-0.9254775878	 0.11091
H	 1.8629395494	 0.9434120452	 0.8963345806	 0.109282
H	-0.1886470116	-0.4878288652	 2.2153053465	 0.088641
H	-0.8925979001	-2.8880382894	 1.5526017622	 0.088412
H	 0.0245167206	-3.1051748541	-0.9555136237	 0.067827
H	-2.0681599683	-2.9019315153	-2.2310112617	 0.095362
H	-2.8944803952	-2.5965411806	-0.6918947067	 0.094292
H	-2.0863998646	-0.4635367022	-2.6325406809	 0.09345
H	-2.478334407	-0.1477783766	-0.9342740652	 0.103795
H	 0.3010658155	-0.7769038966	-2.0271026212	 0.061509
