15
gdb 52349	8.24853	0.43833	0.4204	3.3001	81.9	-0.2652	-0.0567	0.2085	2362.8391	0.110599	-416.780659	-416.770984	-416.77004	-416.817104	31.981	
O	-0.1179647299	-0.0457540467	 0.2579749471	-0.22882
C	 0.0123257556	 1.0924978836	-0.1045971309	 0.146914
C	 1.3474303815	 1.8198989378	-0.162787465	-0.22029
N	 1.3454566084	 2.8076736114	-1.2319686282	-0.30786
C	 2.4992613725	 3.7055075873	-1.1913021383	-0.299652
C	 2.4739293327	 4.6551095893	-2.2957542836	 0.016272
C	 2.4655343231	 5.4277455866	-3.2234341334	 0.131188
C	 2.4536863357	 6.3042854693	-4.2705502526	 0.20836
N	 2.444422481	 7.0486051577	-5.1621232895	-0.330753
H	-0.8502428025	 1.7211751426	-0.4186582325	 0.096219
H	 1.4493023391	 2.3540963374	 0.7944118005	 0.138879
H	 2.1591574825	 1.0757846201	-0.2020288341	 0.119809
H	 1.3123461332	 2.3480022196	-2.1363877798	 0.237348
H	 2.4682001972	 4.2614069753	-0.2441649398	 0.156719
H	 3.4731039097	 3.1809095387	-1.2062738001	 0.135668
