18
gdb 52881	2.86435	1.00372	0.8152	3.5035	82.02	-0.2322	0.0361	0.2683	1444.0854	0.14592	-401.870223	-401.860666	-401.859722	-401.906696	33.497	
C	-0.5420118843	 1.6365676554	-0.1303024562	-0.502648
C	-0.3252173191	 0.1974225372	-0.1244203518	 0.112076
C	-0.1456624448	-0.994601003	-0.1083562966	 0.001918
C	 0.0691309279	-2.4182481135	-0.1480150534	 0.139615
C	 0.120667942	-3.1893871941	 1.1303375674	-0.277111
N	-1.0457393045	-3.3179434517	 0.2473166473	-0.353499
C	 0.861569095	-2.896890214	-1.3377874198	-0.016892
C	 2.3262692674	-2.9664153025	-1.2988780731	-0.167418
O	 1.5243969653	-4.1487015724	-1.2137289667	-0.223556
H	 0.1086996283	 2.1283892824	-0.8616277247	 0.152995
H	-1.5773097667	 1.8840617524	-0.3898766032	 0.151439
H	-0.3297378582	 2.0766996338	 0.8502814981	 0.150952
H	 0.75340805	-4.0700786077	 1.165513864	 0.142229
H	 0.0246532166	-2.6300239414	 2.0559479397	 0.116599
H	-1.8110714511	-2.7498794898	 0.6035273542	 0.236408
H	 0.3710802135	-2.7375359597	-2.2981746462	 0.103404
H	 2.8992549211	-2.8545735327	-2.2175250794	 0.118284
H	 2.8475438413	-2.6916369486	-0.3833024096	 0.115207
