17
gdb 37813	3.04821	2.00488	1.74658	1.9748	76.44	-0.2243	-0.0061	0.2182	848.7534	0.137427	-384.582831	-384.576642	-384.575698	-384.612932	26.509	
C	-0.1277873071	 1.5832386638	 0.12434027	-0.316312
C	 1.3956174181	 1.3492484823	 0.0434794668	-0.162779
C	 1.3010977791	-0.0280987504	 0.800776123	 0.02179
O	 2.0444045974	-0.7739770988	-0.1944176076	-0.361091
C	 1.2025555958	 0.172138971	-0.9682290841	 0.423241
C	 0.7056344336	-0.1921763129	-2.317662193	-0.230397
C	-0.4809551704	-0.8073598614	-2.1744141149	-0.037045
C	-0.9697362481	-0.923537326	-0.7242280722	-0.409597
C	-0.023481908	 0.0495182543	-0.0340884444	 0.24444
H	-0.5207804942	 1.9593103726	 1.072940124	 0.096145
H	-0.5721769431	 2.1244569316	-0.716049957	 0.102696
H	 2.2207423991	 2.0601336793	 0.0978836637	 0.08207
H	 1.4747764663	-0.2500799261	 1.854804299	 0.089919
H	 1.2338890074	-0.0565341761	-3.2532738198	 0.107911
H	-1.0507090211	-1.2254225935	-2.9998190852	 0.103922
H	-2.0270434286	-0.6603048624	-0.6144752084	 0.114108
H	-0.8577154563	-1.9559942572	-0.3709983198	 0.13098
