17
gdb 27059	3.19303	1.1359	0.86367	4.4593	79.38	-0.2021	0.023	0.2251	1309.6944	0.136209	-418.041161	-418.032292	-418.031347	-418.075565	31.905	
C	 0.0716939295	 1.4625715449	-0.1070657603	-0.511877
C	 0.0176412602	-0.0263549258	-0.0857932341	 0.206531
C	-0.2244416676	-0.9274888	-1.0993265834	 0.259359
O	-0.5209388307	-0.5448889975	-2.3903904314	-0.218676
C	 0.1900664198	-1.1230503668	-3.3881436259	 0.106723
N	-0.1187768842	-0.8908930486	-4.5884381488	-0.439709
C	-0.1856346882	-2.2489267649	-0.5736684259	-0.257972
C	 0.0885787397	-2.1200593645	 0.7677229861	-0.078425
N	 0.2033393145	-0.7831347107	 1.0495870995	-0.293669
H	 1.0434171799	 1.8478415966	 0.2258767583	 0.125813
H	-0.0954035562	 1.8106710497	-1.1285241473	 0.157558
H	-0.698628685	 1.9159892425	 0.5290634201	 0.129526
H	 1.0038159496	-1.7586118077	-3.0184272922	 0.096111
H	 0.5196485365	-1.3843761836	-5.2089291469	 0.229447
H	-0.3575511149	-3.1677509581	-1.1113177571	 0.104969
H	 0.2035436759	-2.8645484525	 1.5383060663	 0.122573
H	 0.3932684712	-0.4010299031	 1.9594925531	 0.261718
