14
gdb 47130	3.19112	1.30886	0.95876	2.0859	72.9	-0.2749	-0.0543	0.2206	1153.2896	0.100365	-436.695949	-436.688181	-436.687237	-436.728549	28.704	
O	 0.0466149751	-0.0273852368	-0.2297132175	-0.293162
C	-0.0399027714	 1.1258515008	 0.0612551735	 0.418577
C	-1.2864419406	 1.9757274813	 0.0513916052	-0.353849
C	-1.2702293762	 2.9679471167	 1.2202754663	-0.181734
N	-0.0190556628	 3.7066686154	 1.2931944118	-0.287305
C	 1.0243324083	 3.1128275149	 0.8946787755	 0.214848
O	 1.1098214932	 1.8068624844	 0.4247371814	-0.243408
C	 2.3136291371	 3.7271110245	 0.9188660212	 0.283626
C	 3.4028994289	 4.233485235	 0.933442236	-0.330949
H	-1.2969184678	 2.5307212576	-0.8956406833	 0.150279
H	-2.1554941069	 1.3162606703	 0.0624330014	 0.144115
H	-2.0921168685	 3.6826873611	 1.1269533638	 0.130788
H	-1.4193712076	 2.4436526648	 2.1750308494	 0.135753
H	 4.3632670893	 4.6881419699	 0.9501278352	 0.212421
