18
gdb 73755	2.47119	1.54923	1.03625	4.6367	85.01	-0.2412	-0.0355	0.2057	1158.6753	0.148643	-364.84346	-364.835312	-364.834367	-364.876073	31.145	
C	 0.0635367201	 1.495375329	 0.0903535694	-0.508942
C	 0.0058179988	 0.0067243361	 0.0157381509	 0.209395
C	-0.0333797476	-0.7578686867	-1.0955654729	 0.136634
C	-0.0633345507	-0.2577783805	-2.4254150484	 0.189971
N	-0.097711859	 0.1351139088	-3.5155412858	-0.354686
C	-0.0034352003	-2.2229318125	-0.7847269267	-0.142753
C	 1.2537501293	-2.7012467974	-0.0894371041	-0.278562
C	 0.0580280686	-2.2931494683	 0.7312765155	-0.044823
C	-0.0027050197	-0.8622873582	 1.2585967797	-0.309282
H	 0.9879898312	 1.8266607949	 0.5797844728	 0.137992
H	 0.0167098757	 1.9534040832	-0.9001179396	 0.15354
H	-0.7649277912	 1.8848335669	 0.6952229279	 0.136146
H	-0.5818122954	-2.9109507639	-1.3893717844	 0.104491
H	 1.4768270719	-3.7616768727	-0.1381273778	 0.118806
H	 2.1247617575	-2.0538748116	-0.1152563557	 0.1171
H	-0.4780715517	-3.0666974285	 1.2671142996	 0.095382
H	 0.8350487045	-0.6168136103	 1.924618652	 0.120338
H	-0.9167910622	-0.6809659281	 1.8409776476	 0.119251
