17
gdb 70506	2.70023	1.57999	1.12403	3.8049	76.13	-0.2516	-0.064	0.1876	1081.1148	0.13476	-421.837074	-421.82896	-421.828016	-421.869668	30.61	
C	-0.139903666	 1.5450574373	 0.0747039832	-0.490086
C	 0.0911954339	 0.0626386428	 0.0102645203	 0.286266
O	-0.6974783736	-0.7583422745	 0.907908976	-0.291542
C	 0.7225135725	-0.7634768704	 1.0615014696	-0.017779
C	 1.4069859478	-1.960826146	 0.4125645126	-0.298005
C	 1.0556528593	-1.7955285178	-1.0446203758	-0.154657
C	 0.357881393	-0.6707140305	-1.2817021558	 0.214845
C	-0.0950299475	-0.2682279084	-2.615347356	 0.071795
O	-0.728612992	 0.7332076636	-2.8669078523	-0.278904
H	 0.6986236129	 2.0861400099	-0.3753524212	 0.124724
H	-1.040617642	 1.8179742385	-0.4785678834	 0.1563
H	-0.2466851239	 1.8590940379	 1.11598602	 0.122897
H	 1.0960024385	-0.3492245196	 1.9945699131	 0.098229
H	 2.4937655994	-1.9428356292	 0.5673358638	 0.125803
H	 1.0448569226	-2.9139301877	 0.8171180528	 0.138264
H	 1.3196836377	-2.5265256639	-1.8025486001	 0.118792
H	 0.1990083475	-0.977097972	-3.4222203667	 0.073056
