22
gdb 111843	2.16685	1.39761	1.11421	2.5271	81.74	-0.2187	0.0691	0.2877	1228.4954	0.194585	-404.327846	-404.318502	-404.317557	-404.362256	35.4	
C	-0.1006992916	 1.4834611392	 0.0785985238	-0.473317
C	-0.1031607232	-0.0257902471	 0.019276951	 0.322174
C	-0.9108935782	-0.687112301	-1.0968062389	-0.274962
C	-1.3579116401	-2.0555705223	-0.5329094514	-0.238511
C	-1.219941503	-1.8931565718	 1.0025783079	-0.156681
N	-0.3160867817	-0.7682028021	 1.2836080645	-0.155624
C	 1.0077112522	-0.8135975178	 0.6266995189	-0.028849
C	 1.6555034203	-2.0552576958	 0.0331635924	-0.120328
O	 3.0596024813	-1.8389689401	 0.1044012078	-0.425479
H	 0.384471094	 1.9084691262	-0.8076380132	 0.115124
H	-1.1234000596	 1.8757329083	 0.1221178383	 0.113065
H	 0.4357341781	 1.8364038147	 0.9628745899	 0.127004
H	-1.7779999744	-0.0552265653	-1.3194259638	 0.102671
H	-0.3439879367	-0.7825140475	-2.0291291025	 0.103487
H	-2.3813177009	-2.3059279146	-0.8245543428	 0.100209
H	-0.7218755852	-2.8635420811	-0.9024579511	 0.104756
H	-2.186186208	-1.6394920097	 1.4520354136	 0.107358
H	-0.8691256752	-2.8052954427	 1.4967143425	 0.103931
H	 1.7506102814	-0.2531977866	 1.1918052504	 0.101205
H	 1.3668093063	-2.9486352206	 0.6107528277	 0.094161
H	 1.3440902372	-2.2211365392	-1.0079082712	 0.092622
H	 3.4977969772	-2.6055208232	-0.2765876439	 0.285985
