22
gdb 108235	2.03429	1.45685	1.3701	2.5796	83.06	-0.2421	0.0828	0.3249	1154.8599	0.193238	-404.309725	-404.300128	-404.299184	-404.343494	36.635	
C	 0.017593985	 1.6283940937	 0.3166177597	-0.328979
N	 0.1434086659	 0.1834514504	 0.4412158477	-0.172204
C	 1.2892179151	-0.5832712886	-0.0345889325	 0.292487
C	 1.08249147	-1.6813123665	-1.0374544191	-0.489264
C	 2.6115577593	 0.1812192543	 0.1973641734	-0.285949
C	 2.2745525335	 0.2706533735	 1.7190310856	-0.308107
C	 0.961783424	-0.4810702308	 1.4436488327	 0.253069
C	 0.2522041652	-1.4400150838	 2.3676566391	-0.155962
O	-0.8720676825	-2.0187853466	 1.7402004195	-0.421214
H	 0.9465555235	 2.1921634172	 0.4748396014	 0.110803
H	-0.3552305079	 1.8645954316	-0.6849168801	 0.125545
H	-0.7206499594	 1.9830706158	 1.0426199195	 0.125313
H	 0.986519971	-1.2775591891	-2.0526934686	 0.116297
H	 1.9320140728	-2.3726536271	-1.0347723206	 0.115764
H	 0.1791445803	-2.2467218358	-0.7997184394	 0.140016
H	 3.4842545107	-0.4464184085	 0.0035535743	 0.107167
H	 2.7379749432	 1.1222185462	-0.3467630878	 0.098399
H	 2.9659538592	-0.3140710721	 2.3304721382	 0.108571
H	 2.1837621849	 1.2677573754	 2.1610693347	 0.099516
H	 0.9308199577	-2.2489960165	 2.666588215	 0.10235
H	-0.0335158431	-0.9048406402	 3.2919657007	 0.083354
H	-1.1818870583	-1.3350443124	 1.1258498765	 0.28303
