15
gdb 2321	5.97716	1.55467	1.37415	3.8932	58.56	-0.2743	0.0028	0.2771	882.5958	0.123587	-345.661705	-345.65419	-345.653246	-345.69383	26.065	
C	 0.0518915992	 1.5593747562	-0.0382620778	-0.400713
C	 0.0673851115	 0.0471567334	-0.0023394741	-0.020834
C	 1.3768269269	-0.710286044	 0.0873147164	-0.320883
C	 0.4218790832	-0.6919587253	 1.2530562009	 0.102545
O	 0.7332442913	 0.0981208268	 2.3855127463	-0.185389
C	 1.6713113986	-0.3948409545	 3.2231847893	 0.173944
O	 1.9924594048	 0.1659375102	 4.226762732	-0.271651
H	 0.8161425633	 1.9792855735	 0.619462504	 0.135343
H	 0.2355599421	 1.9221659346	-1.0545754318	 0.120776
H	-0.9171099928	 1.9488251758	 0.2901646863	 0.126748
H	-0.7093391398	-0.4281524705	-0.5951850772	 0.096295
H	 1.5036072892	-1.6351183455	-0.4643314649	 0.122105
H	 2.2787024971	-0.1153422519	 0.1894730697	 0.128595
H	-0.1288216994	-1.5938473356	 1.5047279304	 0.110025
H	 2.0940301047	-1.3554391331	 2.8735596605	 0.083095
