15
gdb 42556	4.42128	1.22347	1.08679	3.1167	75.52	-0.2418	-0.0048	0.237	1080.7283	0.111978	-383.419348	-383.412136	-383.411191	-383.451021	28.316	
O	 0.0623232052	 0.0729695959	 0.116558849	-0.33481
C	 0.0171055405	 1.2695639715	 0.1012416716	 0.436882
C	-1.0856671767	 2.2818381663	 0.0916248018	-0.216499
C	-0.4679225571	 3.601024394	 0.5829186571	-0.061938
C	-0.191955799	 3.1636824024	-0.812189657	-0.066537
C	 1.0454882478	 2.3756078859	-0.221711349	-0.189706
C	 0.9734630988	 3.3010596229	 1.046292147	-0.212782
C	 1.8482055459	 4.4566622627	 0.9910754651	 0.311313
C	 2.5729506923	 5.4148597761	 0.9452051947	-0.434136
H	-2.1561135048	 2.1380994652	 0.0407125449	 0.117963
H	-1.1096828163	 4.4028749969	 0.9244136075	 0.113058
H	-0.4147531244	 3.5567040398	-1.7911590957	 0.120881
H	 1.990608179	 2.1581768614	-0.7089836423	 0.106385
H	 1.0844272986	 2.7806944316	 2.005631212	 0.111335
H	 3.2156183502	 6.2595322576	 0.9101524833	 0.198592
