14
gdb 29223	3.22122	1.38726	0.97078	5.3826	69.33	-0.2047	-0.0394	0.1653	1114.1139	0.101676	-473.878746	-473.871007	-473.870062	-473.9108	29.753	
N	 0.079410922	 1.4339180197	-0.1413640764	-0.593836
C	 0.0370354008	 0.0376610153	-0.0194193238	 0.114118
C	-1.0906209877	-0.6878391779	 0.1574425222	 0.017564
O	-1.1264925285	-2.0364655285	 0.1866428505	-0.22603
C	 0.024752576	-2.8239123265	 0.0453489152	 0.437867
O	-0.1048357434	-4.0202675031	 0.0842287098	-0.363355
C	 1.2453579167	-2.0766871245	-0.1271289508	-0.437384
C	 1.2575250406	-0.71779888	-0.1595444764	 0.420901
O	 2.3717657181	 0.0330306273	-0.3061364805	-0.430817
H	-0.6983205269	 1.9030949988	 0.302403401	 0.249118
H	 0.9582950958	 1.82348992	 0.1717656102	 0.26057
H	-2.0742816132	-0.2507489316	 0.2816913097	 0.128191
H	 2.1541098826	-2.6590583596	-0.2265341356	 0.110667
H	 3.1423741771	-0.5419398493	-0.3793813251	 0.312426
