20
gdb 22049	2.73365	1.0201	0.95071	2.6905	74.66	-0.249	-0.0029	0.246	1339.5458	0.167066	-477.384238	-477.373462	-477.372518	-477.420012	39.489	
C	 0.1311972272	 1.5260328721	 0.0774402339	-0.487576
C	 0.0345542845	 0.029492437	-0.0181666266	 0.330334
N	-0.0400366948	-0.741690523	 0.9963914182	-0.195009
O	-0.0110338981	-0.0522256776	 2.211567722	-0.401649
C	-0.0111011895	-0.6766597859	-1.365146087	 0.254594
C	 1.210809838	-0.3313110224	-2.2273377465	-0.412527
O	-0.0289958651	-2.0912959927	-1.1954827233	-0.482794
C	-1.3314355169	-0.3173606081	-2.100791536	-0.066966
O	-1.4844896853	-1.1209588592	-3.2475601942	-0.423902
H	 1.1145721311	 1.8174233285	 0.462853425	 0.153184
H	-0.0160866205	 2.0087521762	-0.8888657775	 0.13238
H	-0.608857541	 1.9035447832	 0.7882457441	 0.154168
H	-0.0848635016	-0.7627982976	 2.8577895347	 0.309737
H	 2.1210927564	-0.7054801731	-1.7526248265	 0.122378
H	 1.0956233769	-0.8092790277	-3.2025176926	 0.14061
H	 1.3073998339	 0.7467085348	-2.3839882272	 0.110533
H	-0.1658753748	-2.2485432973	-0.2486981986	 0.286956
H	-2.1674100755	-0.4546575656	-1.3958856106	 0.084481
H	-1.3333620682	 0.7253342722	-2.4341885166	 0.100835
H	-1.3140495165	-2.0223298137	-2.9412487146	 0.290235
