17
gdb 30145	3.92004	1.12597	1.05222	1.4648	75.25	-0.219	-0.0027	0.2163	1173.3822	0.137318	-418.002111	-417.994321	-417.993377	-418.034905	29.051	
C	 0.3152513298	 1.5353501701	-0.4838814664	-0.322895
N	 0.074178574	 0.1443985041	-0.112573263	-0.092781
C	 1.2263519265	-0.7307801553	 0.0257937541	-0.254016
C	 0.4477087637	-0.3252021549	 1.2347013545	-0.115057
C	 1.0455986147	 0.5429226332	 2.266722373	 0.274844
C	 0.6051449831	 0.749707968	 3.5349586806	-0.12617
O	 1.466314707	 1.60995632	 4.1585506323	-0.137778
C	 2.3937606494	 1.8877405688	 3.2181970047	 0.071166
N	 2.2112078439	 1.2937785211	 2.086275005	-0.30682
H	 1.260357614	 1.9477698005	-0.108678735	 0.134043
H	 0.3138722849	 1.5984887635	-1.5767686873	 0.120371
H	-0.5087404822	 2.1517512825	-0.1098599602	 0.11769
H	 1.1187331548	-1.7350031604	-0.377239032	 0.112059
H	 2.2179465656	-0.2928544305	-0.0722889037	 0.130198
H	-0.2762277799	-1.0271614851	 1.6436996096	 0.088346
H	-0.2264566449	 0.393209798	 4.1174389528	 0.152048
H	 3.1855654858	 2.5640095265	 3.4999047712	 0.154751
