18
gdb 46484	4.0779	1.21125	1.04188	3.7847	83.66	-0.2385	-0.0297	0.2087	1164.8577	0.149562	-401.959038	-401.951425	-401.950481	-401.991131	30.089	
N	-0.0413973591	 1.2598386383	 0.3347713725	-0.5242
C	-0.0031234007	 0.0383485457	-0.01781	 0.367749
O	 1.1855917816	-0.6152059902	-0.2040323867	-0.260703
C	 1.1551702572	-1.806834055	-0.9999652238	-0.169376
C	 0.0773311756	-2.7693805564	-0.557456771	 0.305608
C	 0.1039640457	-4.1716262035	-1.1253204024	-0.313492
C	 0.4269471972	-3.9588887916	 0.3250708214	-0.297605
C	-1.2071626299	-2.0718984339	-0.3484253682	-0.141495
C	-1.2340250306	-0.7489860507	-0.1506445977	-0.126803
H	 0.9093563427	 1.6302521078	 0.397075609	 0.218207
H	 0.9892270647	-1.5261205819	-2.0498586273	 0.111301
H	 2.1532721207	-2.2436232097	-0.9140013672	 0.113647
H	-0.8462526491	-4.6268836384	-1.3837184308	 0.121922
H	 0.9147222259	-4.4224656505	-1.8019635195	 0.120407
H	 1.4594350764	-4.0523604465	 0.644668319	 0.125607
H	-0.3011066517	-4.2663643962	 1.0671998171	 0.124648
H	-2.1241293676	-2.655615478	-0.3548105957	 0.10456
H	-2.1531985091	-0.196145799	-0.0039969588	 0.120017
