19
gdb 55806	4.3509	0.93725	0.84982	3.5185	78.12	-0.2371	0.058	0.2951	1384.2195	0.161209	-419.194779	-419.186437	-419.185492	-419.228939	32.1	
N	 0.0194618258	 1.3807260065	 0.0767936556	-0.570787
C	 0.1116105615	-0.0016935046	-0.076361292	 0.446964
O	 1.1668503871	-0.5636082313	-0.3025644979	-0.389314
N	-1.0919666833	-0.6534271213	 0.0834600633	-0.385122
C	-1.1687016928	-2.089150843	 0.0904949379	 0.127206
C	-1.844602553	-2.8538480677	 1.2758491406	-0.073045
C	-3.2257107804	-2.3858942523	 0.7213787004	-0.237751
C	-2.4024419955	-2.8157350153	-0.5315521206	-0.073382
C	-1.9588530268	-4.0564624126	 0.2958806078	-0.211339
H	 0.8486670363	 1.8497295926	-0.2561953301	 0.259192
H	-0.8381191852	 1.8237451467	-0.2193131672	 0.244044
H	-1.8568644984	-0.128883143	 0.4747404679	 0.237952
H	-0.1905021646	-2.4584035136	-0.2158426122	 0.115547
H	-1.5210939758	-2.8777143449	 2.3173786912	 0.074751
H	-4.0844258198	-3.0137699491	 0.9743901862	 0.095073
H	-3.4948370141	-1.330574681	 0.8236084951	 0.076475
H	-2.7237188567	-2.7956424187	-1.5739288733	 0.071872
H	-1.0264143886	-4.5431131178	-0.0019075703	 0.097798
H	-2.7411236156	-4.7840828096	 0.5219873877	 0.093866
