19
gdb 48594	2.48295	1.51847	1.23968	2.7667	81.45	-0.2464	-0.0308	0.2157	1088.8904	0.158826	-385.826947	-385.818921	-385.817976	-385.859808	31.105	
O	 0.0235717784	-0.0694909809	-0.2344892204	-0.245585
C	 0.0693965654	 1.1310679117	-0.1238697341	 0.026939
C	 1.325939425	 1.9253617686	-0.0682645434	 0.174759
C	 1.7585566325	 2.9302278375	 1.0583862465	-0.26425
C	 2.9017356772	 2.9666661758	-0.0017394049	-0.133989
C	 2.7929478462	 1.4107287032	-0.080318786	-0.257204
C	 1.7926869159	 3.02270819	-1.0681767262	 0.414529
C	 1.8199492353	 3.0742388153	-2.5531294392	-0.369828
C	 1.0911091207	 4.1488600989	-1.7405434887	-0.375131
H	-0.8647032325	 1.7372219574	-0.0569281085	 0.069387
H	 1.1571201287	 3.8352268035	 1.1653100514	 0.102826
H	 2.0006317871	 2.4784883931	 2.0237866733	 0.100295
H	 3.8128565269	 3.5645915041	 0.0340118703	 0.079281
H	 3.1115859366	 0.8557925145	 0.8050426763	 0.098444
H	 3.1328905036	 0.9389651266	-1.0034610793	 0.106351
H	 2.7443129126	 3.3555344517	-3.0482784345	 0.117768
H	 1.2124296646	 2.3725465844	-3.1162404315	 0.121762
H	 0.0062117294	 4.1545357766	-1.7775296383	 0.116403
H	 1.5360048265	 5.1383760379	-1.6981175326	 0.117245
