22
gdb 117354	2.34157	0.94496	0.80993	2.9526	80.3	-0.2335	0.0351	0.2686	1566.6363	0.191904	-441.516335	-441.50525	-441.504306	-441.553906	38.903	
C	-0.8337813365	 0.1835853519	 0.9608159629	-0.245796
O	 0.4432694214	 0.0726274001	 1.5636186313	-0.235286
C	 1.435563318	-0.4205807559	 0.6853424784	-0.18424
C	 1.4969330203	-1.9522360989	 0.5772939014	 0.359202
O	 2.1076902112	-2.4905063588	-0.329902838	-0.381557
N	 0.8550195791	-2.6035087064	 1.5801714732	-0.304718
C	 0.8524371962	-4.054705183	 1.7283746325	 0.053755
C	 1.7214924143	-4.4858489522	 2.9165682815	-0.381575
C	-0.5827765665	-4.5783005539	 1.8464583306	-0.385336
H	-1.2137020038	-0.7896555151	 0.619125253	 0.11644
H	-1.5121954268	 0.5850632597	 1.7172153603	 0.131179
H	-0.8090545755	 0.87030911	 0.1026515559	 0.11893
H	 1.3244467745	-0.0196265125	-0.3302177235	 0.121718
H	 2.4021470429	-0.079333526	 1.0724667011	 0.13605
H	 0.4381162731	-2.025968999	 2.2963698968	 0.249971
H	 1.3017070842	-4.4296628045	 0.8044946085	 0.123772
H	 1.323967469	-4.0900590387	 3.8587663178	 0.108749
H	 1.7498386964	-5.5770079083	 2.9984205039	 0.11816
H	 2.7460877877	-4.1231914624	 2.7985130352	 0.128521
H	-1.0746843615	-4.1814002036	 2.7428944796	 0.109013
H	-1.1771866141	-4.2890869187	 0.97532613	 0.122734
H	-0.5899390737	-5.6700300838	 1.9214678178	 0.120314
