20
gdb 126406	3.67818	0.92296	0.80977	5.3965	82.37	-0.2382	0.0249	0.2631	1510.5087	0.17158	-399.370702	-399.36116	-399.360216	-399.40621	34.075	
C	-0.8104066293	 0.9284426842	 0.2148581782	-0.376903
C	 0.4286925124	 0.0585903685	-0.0587181059	-0.302223
C	 1.1532186923	-0.3564690625	 1.1789411465	 0.362768
N	 2.3564838955	 0.0196859382	 1.5330551277	-0.267104
N	 2.6470900694	-0.5763058593	 2.7470297424	-0.267102
C	 1.6121528718	-1.2977287319	 3.0980241425	 0.362805
C	 1.493838945	-2.1256511243	 4.3347733151	-0.302235
C	 1.4179502054	-3.6374036029	 4.0598422333	-0.376981
N	 0.6377149935	-1.1923770918	 2.1374765785	-0.341371
H	-0.5336498526	 1.8388596166	 0.7538120602	 0.138482
H	-1.2912694611	 1.2179363028	-0.7239244839	 0.122933
H	-1.554130237	 0.395849641	 0.8175436809	 0.106659
H	 0.135618669	-0.8291970543	-0.6342107138	 0.110008
H	 1.148374988	 0.6097318672	-0.6691643086	 0.14319
H	 2.3709072518	-1.8974417817	 4.9455301766	 0.143206
H	 0.6134584349	-1.8114533536	 4.910521526	 0.110105
H	 0.540551667	-3.8960427285	 3.4570874236	 0.10661
H	 2.3060215621	-3.9785376785	 3.5204981868	 0.138434
H	 1.3506818453	-4.1954456302	 4.9981426946	 0.122982
H	-0.2657119335	-1.6355961592	 2.1361222792	 0.265736
