17
gdb 68127	3.9707	1.26681	1.12832	4.6061	78.05	-0.2505	-0.0149	0.2357	1098.3986	0.136477	-380.834793	-380.82709	-380.826145	-380.866617	30.558	
C	 0.0397765693	 1.5417374421	 0.0626531386	-0.514386
C	 0.0190256675	 0.0389949297	-0.0149462393	 0.268934
C	 0.6173031663	-0.788662015	-1.2046816031	-0.282413
C	 0.6050717463	-1.8651176461	-0.0667159626	 0.191004
N	 0.9224948536	-0.7582377916	 0.9395039256	-0.358416
C	-0.9099836718	-2.0044848366	 0.1867858544	-0.097511
C	-1.293960504	-0.7310837539	 0.2216961945	-0.09666
C	 1.4384431377	-3.0466255404	-0.0942999287	 0.146853
N	 2.1140449291	-3.9835432437	-0.1353146833	-0.337715
H	 1.0402753327	 1.9375423589	-0.137800266	 0.122811
H	-0.6469633747	 1.9761657508	-0.6711117057	 0.130564
H	-0.2666483053	 1.8775125213	 1.0582847977	 0.140849
H	 0.0021417221	-0.9717360274	-2.0891461083	 0.111642
H	 1.6294492566	-0.4756166891	-1.4805087469	 0.10853
H	 1.8868488627	-0.4596664773	 0.7545538292	 0.21453
H	-1.4475292962	-2.9314334092	 0.3120068228	 0.132248
H	-2.2681640222	-0.2947015025	 0.3869318111	 0.119137
