19
gdb 71799	3.67155	1.67727	1.52812	1.3404	77.23	-0.2387	0.0796	0.3183	922.4333	0.162611	-385.87405	-385.867694	-385.866749	-385.904197	28.1	
O	-0.1016028163	 1.3539629372	-0.0189162507	-0.481655
C	 0.0545763429	-0.0251728392	-0.0508878036	 0.386569
C	 1.1009086493	-0.7102663948	-0.915152827	-0.312083
C	 0.7025260606	-2.1390955797	-0.5847243824	-0.032718
C	 0.4478114688	-2.2750048407	 0.9635868137	-0.053428
C	-0.746263168	-3.2064944073	 0.6060072031	-0.224874
C	-0.8649173718	-2.2662870914	-0.6275711888	-0.051689
C	-1.1785272273	-0.8925913956	-0.0137121755	-0.093849
C	-0.2063917592	-0.9005427752	 1.1673726213	-0.139044
H	 0.6530311888	 1.7289339786	 0.4482601704	 0.2813
H	 0.9849712808	-0.4639225743	-1.9764168438	 0.101496
H	 2.1267266414	-0.4708450612	-0.6077078217	 0.085817
H	 1.2558547589	-2.9570049743	-1.0434530101	 0.067947
H	 1.2344810455	-2.5768735066	 1.6557437457	 0.056836
H	-0.4213053803	-4.2146909997	 0.3313093997	 0.09051
H	-1.5888572476	-3.2573199351	 1.3016741925	 0.088478
H	-1.3989474001	-2.5564052573	-1.5326172825	 0.059716
H	-2.1702642855	-0.4661067372	 0.0500836013	 0.088692
H	-0.4631966809	-0.4841197864	 2.1324121583	 0.081979
