13
gdb 10672	2.86845	2.17304	1.36331	2.6196	59.73	-0.2805	-0.0133	0.2672	854.8996	0.09615	-394.801263	-394.793652	-394.792708	-394.83324	27.508	
N	 0.1737155645	 0.9852760583	-0.7581551649	-0.557467
C	-0.0264188087	 0.0250925843	 0.1701011204	 0.401378
O	 0.7350257245	-0.2154064707	 1.0896126751	-0.376225
C	-1.2991890929	-0.799628069	 0.019755905	 0.058223
C	-1.1277073775	-2.2770586671	 0.2556578258	-0.241716
N	-1.777915572	-1.4492960949	 1.2543688913	-0.320805
C	-2.3009109498	-0.319045658	-0.8996403139	 0.258433
N	-3.0404220757	 0.1082709849	-1.6798672009	-0.348473
H	 0.9918969749	 1.5661184686	-0.6752633661	 0.275477
H	-0.5066098873	 1.1906819464	-1.4710291812	 0.287919
H	-1.777157614	-2.961643744	-0.2803612751	 0.148097
H	-0.107596477	-2.605325343	 0.4302736875	 0.151765
H	-1.0915873391	-1.2049199657	 1.971438237	 0.263395
