16
gdb 75852	3.21834	1.35173	0.96334	3.019	81.39	-0.2122	-0.0349	0.1774	1164.6236	0.123071	-400.76706	-400.758364	-400.75742	-400.800436	31.904	
C	-0.0267498532	 1.4493607022	 0.0413237895	-0.354027
N	-0.0033707961	 0.00311066	 0.0370688315	-0.160819
C	-0.0143813137	-0.7564511027	-1.1222588514	 0.39648
O	-0.0447014745	-0.3169808503	-2.2500334345	-0.385472
C	 0.019018924	-2.2226779401	-0.6697150426	-0.378701
C	 0.0482827809	-2.1315891388	 0.8266229411	-0.251222
C	 0.0339749044	-0.8320089232	 1.1793233865	 0.24138
C	 0.051275412	-0.270876642	 2.4774752209	 0.268674
C	 0.0656140088	 0.2218106301	 3.5760065408	-0.440102
H	 0.86642125	 1.8597726079	 0.5232138984	 0.136972
H	-0.0548417404	 1.7657875219	-1.0025252788	 0.167228
H	-0.9107028964	 1.8307771172	 0.5623823747	 0.137006
H	-0.8590065133	-2.7485774866	-1.0632038571	 0.151055
H	 0.8968771089	-2.7197591391	-1.0993589724	 0.151044
H	 0.0760815097	-2.9620723139	 1.5138100314	 0.116678
H	 0.0786009489	 0.6462293975	 4.5496293119	 0.203826
