15
gdb 101998	3.03556	0.72875	0.60578	3.8882	76.51	-0.2627	-0.0807	0.182	1745.5612	0.107492	-457.719963	-457.709627	-457.708682	-457.757728	32.977	
C	 0.208143761	 1.4228363038	-0.0119621408	-0.244224
O	 0.1727182711	 0.0371768132	 0.2991357044	-0.241383
C	-1.0965806316	-0.5478099214	 0.0846690332	-0.13222
C	-1.3137321522	-0.7648056224	-1.435331954	 0.145245
O	-2.2823069941	-0.3929216106	-2.0342194285	-0.21784
C	-1.1605678639	-1.8393300214	 0.749727551	 0.051126
C	-1.2507730731	-2.93816668	 1.2425691241	 0.096878
C	-1.3125477388	-4.239017209	 1.8639178296	 0.0222
O	-2.2908267932	-4.9483990409	 1.8598161704	-0.220562
H	 1.2240729686	 1.7609475304	 0.1983194302	 0.144191
H	-0.0228904556	 1.6197459292	-1.0678351021	 0.126638
H	-0.4983947235	 1.9888680452	 0.6114585954	 0.123613
H	-1.9123152262	 0.0990807375	 0.4430940791	 0.127525
H	-0.4532038479	-1.272390538	-1.9207767471	 0.109136
H	-0.3692720006	-4.5464541256	 2.3579114653	 0.109676
