17
gdb 29445	3.16607	1.59041	1.07266	0.6117	80.77	-0.1943	0.002	0.1963	1093.464	0.137462	-384.728706	-384.721351	-384.720407	-384.760301	28.928	
C	-0.0204978988	 1.532689965	 0.0020493183	-0.503
C	-0.0073163047	 0.0373546193	 0.0206662961	 0.202543
C	-0.0254358904	-0.798006698	-1.0420615453	-0.189572
C	-0.0027990685	-2.2650569418	-0.6229623195	-0.421696
C	 0.0308400079	-2.0945414991	 0.8568934121	 0.310189
C	 0.0287146869	-0.788910335	 1.2387237852	 0.210395
C	 0.0629235639	-0.8005609156	 2.671662303	-0.379773
C	 0.0821809735	-2.1203835876	 3.0182567146	-0.015212
O	 0.0630344668	-2.9345145847	 1.9099486321	-0.197536
H	 0.8680820958	 1.9425881696	 0.4975850287	 0.128961
H	-0.0486691536	 1.9181609255	-1.0204582299	 0.124447
H	-0.8907422095	 1.9276151645	 0.5404197597	 0.128947
H	-0.0527474875	-0.4939845182	-2.0807041885	 0.091272
H	-0.8875860067	-2.808028276	-0.9804253607	 0.134286
H	 0.8732786831	-2.7928234643	-1.022214532	 0.134294
H	 0.0722783148	 0.0293109587	 3.3611880209	 0.109461
H	 0.1088963771	-2.6355414824	 3.9639825953	 0.131995
