14
gdb 132767	2.42283	1.83313	1.05032	2.2227	66.45	-0.2608	-0.0269	0.2339	1037.4138	0.101771	-478.052338	-478.044768	-478.043823	-478.084858	27.754	
C	-0.0293203881	 1.5655899493	-0.0260178002	-0.503989
C	-0.0047603968	 0.0644359127	-0.0169124862	 0.001894
C	-0.1510441782	-0.731149635	-1.1449773368	 0.306839
F	-0.3254424639	-0.1373089962	-2.3197830378	-0.059962
N	-0.133894531	-2.0521043554	-1.168520484	-0.319152
C	 0.0415227794	-2.632620173	 0.0151026138	 0.065852
N	 0.1966805741	-2.0186629844	 1.1861967188	-0.352973
C	 0.1712657624	-0.6875182046	 1.1520443985	 0.391999
O	 0.3243781384	-0.0323496931	 2.313064947	-0.400212
H	 0.9075022983	 1.974808008	 0.3659841243	 0.145109
H	-0.1776089887	 1.9419531253	-1.0384390297	 0.143496
H	-0.8336285011	 1.9477636867	 0.6109958933	 0.14511
H	 0.0602063536	-3.7188302	 0.0283428835	 0.12992
H	 0.4308633015	-0.7102346903	 2.9959506755	 0.30607
