16
gdb 50966	2.08826	1.30116	0.87479	2.2988	72.23	-0.2576	-0.0475	0.21	1283.805	0.121086	-437.880577	-437.870884	-437.86994	-437.916264	33.499	
O	 0.0352359933	 0.4029633013	-1.1895941775	-0.313625
C	-0.007539306	 1.2839285372	-0.3604061908	 0.162618
N	 1.0748774708	 1.7905397181	 0.3025974757	-0.271028
C	 2.375181729	 1.1738757564	 0.2083921324	-0.077441
C	 3.4021149561	 2.0118928006	-0.6130929359	-0.372698
C	 3.0211993177	 2.171230074	-2.007440857	 0.307145
C	 2.6996464156	 2.2968816847	-3.157515382	-0.416094
C	 2.949252438	 0.9485348426	 1.5975087749	 0.155507
O	 2.4368090376	 1.3565523633	 2.6077909044	-0.245589
H	-0.9445595193	 1.7894027831	-0.0578245535	 0.085124
H	 0.909344343	 2.340330908	 1.1343506995	 0.257484
H	 2.2528925267	 0.2050778862	-0.2909218216	 0.148989
H	 3.509456327	 2.9955169615	-0.138475332	 0.140567
H	 4.384275393	 1.5250387234	-0.5492980072	 0.137264
H	 2.4093445615	 2.3998679264	-4.1737392298	 0.203194
H	 3.914962066	 0.3992187732	 1.6169125203	 0.098584
