15
gdb 131492	3.932	1.2124	1.0608	1.8687	67.49	-0.2474	-0.0353	0.2121	1108.0625	0.11362	-453.926124	-453.918849	-453.917905	-453.958374	27.468	
O	 0.124958742	 1.403219123	 0.1628676385	-0.419075
C	 0.0255522078	 0.0303008362	 0.0497132733	 0.14742
C	-0.4384533372	-0.844791323	 1.1641931953	-0.333063
C	-1.3374693116	-0.6763586371	-0.064437006	-0.199433
C	-2.5482621052	 0.1380951632	 0.0238665594	 0.42027
N	-2.6401817429	 1.2043069442	 0.7883535608	-0.230735
O	-3.9231205128	 1.7002236297	 0.5250740776	-0.151293
C	-4.4564432544	 0.8658671386	-0.3656768579	 0.109345
N	-3.6858939376	-0.10921573	-0.724333566	-0.317567
H	-0.680747208	 1.7454464593	 0.5821993217	 0.305275
H	 0.8004805069	-0.3502391619	-0.6076077989	 0.118622
H	 0.022766376	-1.8158326499	 1.3075744742	 0.124123
H	-0.778241849	-0.3566502617	 2.0716198597	 0.139355
H	-1.4274093758	-1.5070038991	-0.7529329462	 0.115164
H	-5.4633744481	 1.0784738283	-0.6942005755	 0.17159
