18
gdb 78423	3.69828	1.60176	1.45553	1.97	73.87	-0.2248	0.0728	0.2977	941.5527	0.148845	-401.841536	-401.834645	-401.8337	-401.873098	27.883	
C	-0.0576447822	 1.5598649452	 0.0490762527	-0.427072
C	 0.0165916973	 0.0428372083	 0.0026524973	 0.007609
C	 0.5542816509	-0.7851177029	-1.1170690916	-0.084769
C	 1.6260344812	-0.2469690402	-2.0390442797	-0.067482
C	 2.9900568565	-0.8192156015	-1.4910584619	 0.061397
O	 3.7082713639	 0.3862356919	-1.8789016697	-0.317209
C	 2.4417979126	 0.8727115027	-1.324340763	 0.028026
C	 2.5134027288	-0.1690885411	-0.1538628419	-0.018401
N	 1.2359323836	-0.7755470067	 0.2147057576	-0.139932
H	 0.5897158909	 1.9703939124	 0.8310108399	 0.132982
H	 0.2032661863	 2.035796932	-0.8973940285	 0.132829
H	-1.0824584369	 1.8584473605	 0.2867912937	 0.124173
H	-0.8107376304	-0.4285020406	 0.5306611982	 0.1015
H	 0.046551485	-1.7032282562	-1.4034472489	 0.095686
H	 1.4666139358	-0.1892942903	-3.1141345898	 0.084867
H	 3.4603414289	-1.7867814563	-1.6675712677	 0.099167
H	 2.2996285752	 1.9507229927	-1.308961361	 0.096501
H	 3.2196471526	-0.0169208998	 0.6601147043	 0.09013
