22
gdb 84997	2.46032	1.3637	1.10869	2.6012	83.05	-0.2215	-0.0155	0.2061	1227.9893	0.192722	-404.37706	-404.367316	-404.366371	-404.411066	36.804	
C	 0.127149879	 1.3896245051	-0.0778259278	-0.31466
N	 0.0173967699	-0.0371395241	 0.1343040582	-0.068178
C	-1.3355585974	-0.5659536636	 0.069808486	-0.275153
C	-1.234171699	-1.9178816063	 0.7743083233	 0.390698
O	-2.0802201591	-2.7731757727	 0.7945057799	-0.329603
C	 0.1381721503	-1.9876505288	 1.4731521144	 0.174305
C	 0.0032091442	-2.5361480594	 2.8948939359	-0.439106
C	 1.0492593191	-2.8934051848	 0.6176016442	-0.421546
C	 0.5885206538	-0.5173915075	 1.3942896758	-0.201324
H	 1.1791391943	 1.6902888944	-0.0370858499	 0.120386
H	-0.2621373205	 1.65307942	-1.0665556262	 0.122037
H	-0.4272868726	 1.9824773522	 0.6755690508	 0.09249
H	-2.0739354388	 0.047150077	 0.6284431981	 0.102416
H	-1.7044564096	-0.6656385427	-0.9560199182	 0.130355
H	-0.462520153	-3.5251563339	 2.8715969869	 0.137052
H	 0.9844134849	-2.6263744107	 3.3727495167	 0.112348
H	-0.6194743491	-1.8866704407	 3.5185641401	 0.114339
H	 1.1897867159	-2.4732586938	-0.3820017701	 0.130928
H	 2.0318461847	-2.9904718338	 1.0916443991	 0.114223
H	 0.6138196156	-3.8919814852	 0.519751167	 0.130728
H	 1.6773972821	-0.3989234221	 1.3845535281	 0.102879
H	 0.1989678254	 0.0455250413	 2.2661127077	 0.074386
