19
gdb 47792	2.34134	1.81681	1.22186	3.0864	78.18	-0.232	0.0032	0.2352	1055.1159	0.161732	-419.184204	-419.176464	-419.17552	-419.216539	30.37	
N	 0.0650717812	 1.1884729184	 0.6948742957	-0.486841
C	 0.0594666492	 0.0481199682	 0.1422865298	 0.340092
O	 1.2186440786	-0.6566482888	-0.0941027889	-0.262865
C	 1.6101030901	-0.8592028706	-1.4585516665	-0.089163
C	 0.8574704732	-1.9896561083	-2.1452864872	-0.217816
C	-0.6253202315	-1.6926687461	-2.4107704671	-0.145761
N	-1.532193378	-1.4750001193	-1.290089983	-0.09098
C	-1.3704662911	-2.1062150096	-0.0013279187	-0.259466
C	-1.2454317895	-0.6137757942	-0.1469809221	-0.036429
H	 1.0300515832	 1.4774777978	 0.870077621	 0.220977
H	 1.4953060919	 0.0813210534	-2.0162337242	 0.105859
H	 2.6774577452	-1.0900695935	-1.4071246188	 0.118221
H	 1.3358955197	-2.1754958232	-3.1159730696	 0.105273
H	 0.9762392277	-2.9094242816	-1.5611294478	 0.113765
H	-0.7018335714	-0.8034417754	-3.0498674242	 0.112275
H	-1.0484695467	-2.5248599873	-2.9859337375	 0.113053
H	-2.2704249661	-2.526403148	 0.4411855846	 0.120474
H	-0.4521812358	-2.6430518226	 0.2241388048	 0.123981
H	-2.0753729999	 0.0195614309	 0.1504703398	 0.115351
