21
gdb 115060	2.39404	1.18378	0.86648	2.4019	79.88	-0.2308	0.0305	0.2613	1360.3825	0.182653	-424.221111	-424.211622	-424.210678	-424.255446	35.41	
O	-0.1348438722	 1.504961106	-0.1018256927	-0.422909
C	 0.0387402751	 0.0959399885	-0.0096347898	-0.088635
C	-1.3539665393	-0.5387156532	 0.001059173	-0.018904
C	-2.0718173132	-0.2735123683	-1.3531453967	-0.262608
C	-1.8670272084	-1.5628678716	-2.1122963808	-0.080594
C	-1.46071031	-2.5493327649	-1.3161621239	-0.056544
C	-1.3288924239	-2.0945787433	 0.1223036979	-0.0264
C	-0.1454705061	-2.7100319601	 0.8680263559	-0.105368
O	-0.3882031675	-4.1093101737	 0.9464476754	-0.425161
H	 0.7330767817	 1.9086131734	-0.1907426035	 0.284836
H	 0.6174614171	-0.2886344159	-0.8642652677	 0.091504
H	 0.585866077	-0.1631913884	 0.9093032254	 0.083181
H	-1.9006674634	-0.0885990785	 0.8351726763	 0.076343
H	-3.142727453	-0.073791479	-1.2080970076	 0.100829
H	-1.661667231	 0.6082753981	-1.8549575941	 0.115041
H	-2.0706587404	-1.6567881677	-3.1736857633	 0.08668
H	-1.2797847235	-3.5773582301	-1.6057334067	 0.100525
H	-2.2213422964	-2.4229288013	 0.6765862069	 0.090476
H	 0.7959811093	-2.5062726423	 0.3353054179	 0.085785
H	-0.0628190248	-2.2683070201	 1.8742001541	 0.086242
H	 0.3767409928	-4.5250680174	 1.354391354	 0.285682
