16
gdb 15202	2.43105	1.92467	1.47286	0.8815	77.	-0.2387	0.0299	0.2686	936.3468	0.12757	-309.391649	-309.383012	-309.382068	-309.424451	32.06	
C	-0.1276881623	 1.5438935908	-0.0229759223	-0.41036
C	 0.0335893515	 0.0445880196	 0.0346193607	-0.032912
C	 1.3789455094	-0.6170554357	-0.2077459762	-0.228009
C	 2.5550434492	 0.1540211391	-0.4728337756	 0.356381
C	 3.5486217932	 0.7866942535	-0.7159073827	-0.466044
C	 0.7386327855	-0.6320441658	 1.1972020409	-0.228023
C	 1.3040105648	 0.1246823112	 2.2722574492	 0.356382
C	 1.7674033812	 0.7448628117	 3.1926931258	-0.466029
H	 0.7481250711	 2.0536969173	 0.3828130057	 0.145491
H	-0.2655757944	 1.8756612115	-1.0570660711	 0.122263
H	-1.0024802141	 1.8583088152	 0.5552174682	 0.122232
H	-0.8099441287	-0.5182390736	-0.3558193107	 0.098341
H	 1.3489390518	-1.5771121381	-0.7151387293	 0.118632
H	 4.4276368139	 1.3453608942	-0.9211712893	 0.19651
H	 0.3437406259	-1.6006362666	 1.4903669603	 0.118634
H	 2.1846662622	 1.2925063356	 4.0007080464	 0.196512
