19
gdb 29512	3.00144	1.50234	1.02936	0.946	82.47	-0.2013	0.0301	0.2314	1171.3807	0.161567	-385.935407	-385.92746	-385.926516	-385.967924	30.393	
C	-0.008785022	 1.5418822997	-0.0330496904	-0.501647
C	-0.0146662656	 0.0461112726	 0.0271528474	 0.065106
C	-0.0111730578	-0.8163040779	-1.0317339037	-0.1132
O	-0.0175408238	-2.1291668402	-0.6260599554	-0.207405
C	-0.0328199301	-2.0784653826	 0.7245241735	 0.323191
C	-0.031337634	-0.8075502442	 1.1850646444	 0.174627
C	 0.0164240668	-0.7885095034	 2.6862869236	-0.352801
C	-0.2475758256	-2.2957163951	 3.0411913875	-0.194697
C	 0.0191465548	-3.1516262418	 1.7551371245	-0.348524
H	 0.8722595272	 1.9612305721	 0.4666558946	 0.127497
H	-0.0047721298	 1.8970453216	-1.0674660851	 0.123496
H	-0.8890321699	 1.9676496379	 0.4624990288	 0.127703
H	-0.0168643952	-0.6612961214	-2.0987395399	 0.127697
H	 0.9946492231	-0.4551526791	 3.0579616073	 0.10557
H	-0.7297278232	-0.1352159361	 3.1518746783	 0.103812
H	 0.3575913043	-2.6309729745	 3.886868005	 0.101246
H	-1.2957017032	-2.413294919	 3.3303727273	 0.112068
H	-0.7294238161	-3.9402447832	 1.6235642315	 0.11334
H	 0.9993067101	-3.6466230455	 1.7862477408	 0.112923
