18
gdb 61002	2.15979	1.18887	0.84058	5.0139	74.22	-0.2549	-0.0335	0.2214	1361.5944	0.144568	-439.072578	-439.062808	-439.061864	-439.109022	33.811	
C	-0.0396791337	 1.5299747587	 0.0599777034	-0.416044
C	 0.1073981891	 0.0130708203	-0.1654609261	-0.07417
C	 0.9143249035	-0.2368174804	-1.4281092893	 0.168234
O	 0.4866399238	-0.7482917838	-2.4285605144	-0.239724
C	 0.7978805174	-0.6253858806	 1.03023253	-0.022548
N	-0.0209552433	-0.902859702	 2.199450452	-0.335223
C	 0.5902239151	-2.0447292665	 1.483360084	-0.132361
C	-0.363692625	-2.9786172805	 0.8161849289	 0.176098
O	-0.0965507191	-4.1269521971	 0.5693073398	-0.252228
H	 0.9390335611	 2.0164598613	 0.1434503676	 0.12053
H	-0.582034857	 1.9986791272	-0.765608407	 0.136082
H	-0.5908234519	 1.7122113293	 0.9864330879	 0.142867
H	-0.8789883796	-0.4326142559	-0.3112757085	 0.106996
H	 1.9718567259	 0.1183672956	-1.3711410897	 0.071531
H	 1.8079475884	-0.2506887355	 1.2038864558	 0.100255
H	 0.481464151	-0.7215768291	 3.0637246112	 0.247567
H	 1.4524215555	-2.5446077426	 1.9182567847	 0.109895
H	-1.3548212611	-2.5375416783	 0.5783344395	 0.092245
