13
gdb 1590	3.61348	2.32895	1.60109	2.9118	55.81	-0.2622	-0.0365	0.2257	762.1666	0.098122	-344.43314	-344.425204	-344.42426	-344.465792	27.568	
C	-0.08274581	 1.4287802646	-0.0163761343	-0.483255
C	 0.0422027809	-0.0701159542	 0.0443284062	 0.371027
O	 0.1908444892	-0.6933125139	 1.0696549965	-0.305804
C	-0.0048535916	-0.8667835328	-1.2884052436	-0.109394
O	 0.2481729985	-2.2211723395	-1.039470392	-0.413155
C	-1.2980791958	-0.6446735087	-1.9468886071	 0.326572
C	-2.3614888433	-0.4592693253	-2.4752632027	-0.478006
H	 0.7359948749	 1.8449446234	-0.614496659	 0.150439
H	-1.0157569035	 1.7065896941	-0.5149510153	 0.167143
H	-0.0513437187	 1.8464201779	 0.9901535622	 0.152035
H	 0.7891597316	-0.4570219356	-1.9350308936	 0.119076
H	 0.2432978659	-2.29858903	-0.0697562034	 0.296502
H	-3.2987806282	-0.30849978	-2.9519796638	 0.20682
