16
gdb 125820	3.09118	1.27387	0.90723	5.0132	74.67	-0.2157	-0.002	0.2137	1228.1691	0.125006	-434.067449	-434.059035	-434.058091	-434.100803	30.655	
C	-0.0095228363	 1.4971939439	 0.0836306143	-0.517914
C	-0.0071702491	 0.0049378352	 0.0100635708	 0.31993
N	-0.034893777	-0.6135080104	-1.1468663665	-0.195279
O	-0.0237614355	-1.9678136467	-0.8616752393	-0.173342
C	 0.0108401965	-2.1463913612	 0.473535559	 0.021811
C	 0.0229517467	-0.9313931869	 1.0903591679	 0.144521
N	 0.0563742535	-0.5976924918	 2.4412999086	-0.403698
C	 0.0858041252	-1.4869215821	 3.4833978662	 0.07555
N	 0.0851830504	-2.7504015406	 3.3080097299	-0.458752
H	 0.8885947216	 1.8741088319	 0.5869788964	 0.133864
H	-0.0378675786	 1.9159978591	-0.9237965437	 0.161029
H	-0.8814196631	 1.8689499454	 0.63465248	 0.133769
H	 0.023166976	-3.1536466993	 0.8461438277	 0.180475
H	 0.0591155285	 0.3817514015	 2.6681614244	 0.256695
H	 0.109058525	-0.9743629143	 4.4516624046	 0.094636
H	 0.109650786	-3.2316789538	 4.2031706897	 0.226705
