16
gdb 128509	2.17371	1.69548	1.00994	2.5249	67.21	-0.2492	-0.0156	0.2336	1135.1596	0.123397	-474.989099	-474.980348	-474.979403	-475.023429	30.775	
C	-0.7662263695	 0.8133058097	-0.1627789226	-0.262602
O	 0.4091624872	 0.0285950793	 0.074350604	-0.290138
C	 0.9136319313	-0.5737900198	-1.0415744292	 0.11117
C	 0.7485714162	-1.8717490815	-1.4296597947	 0.310839
C	-0.0270517169	-3.0008981318	-0.8250243377	-0.174656
O	-0.9756275074	-2.540944398	 0.1156015434	-0.413281
O	 1.4701911269	-2.0974381557	-2.5379733409	-0.213598
N	 2.1332002385	-0.9231865453	-2.9156750294	-0.137238
C	 1.793548733	-0.0309428772	-2.021094286	-0.038016
H	-0.579511189	 1.5817780221	-0.9219064474	 0.126767
H	-1.5931758128	 0.1708148949	-0.4847087228	 0.139312
H	-1.0146962823	 1.292570988	 0.7859777651	 0.136972
H	-0.5790440383	-3.529565724	-1.6096775954	 0.143065
H	 0.6713032677	-3.730219608	-0.3822450789	 0.122631
H	-0.520287381	-1.9433546396	 0.720822145	 0.299431
H	 2.1894525465	 0.972350437	-2.0912027327	 0.139341
