19
gdb 67820	2.58627	2.25398	1.59873	1.4693	78.7	-0.236	0.0076	0.2435	900.8067	0.161366	-385.871044	-385.864261	-385.863317	-385.901618	29.063	
C	 0.0295673001	 1.5449620931	-0.044169905	-0.503155
C	-0.0094514895	 0.0282918268	-0.0657387017	 0.298246
C	 0.606785312	-0.6466085599	-1.2505324551	-0.132756
C	 0.1500310705	-1.9034216509	-1.3183118201	-0.096451
C	-0.6857740844	-2.1181455989	-0.0817674276	 0.03858
O	 0.3035719775	-2.1022916091	 1.0214807057	-0.278958
C	 0.2721642931	-0.7274497953	 1.355486837	 0.049975
C	-1.219374933	-0.5175163568	 1.6938932515	-0.257835
C	-1.3609563073	-0.7428106538	 0.1735316307	-0.095991
H	 1.0654405193	 1.8999170309	-0.090287488	 0.120233
H	-0.4987208257	 1.9620729776	-0.908841186	 0.121357
H	-0.4186331239	 1.9712051708	 0.8570082866	 0.118113
H	 1.3532453109	-0.1881889164	-1.8893370456	 0.09533
H	 0.4555562498	-2.6839754187	-2.0028923278	 0.101522
H	-1.2890742932	-3.0219802357	-0.007075719	 0.073944
H	 1.1061698586	-0.4643313199	 2.0049679193	 0.077807
H	-1.659129239	-1.2505007734	 2.3731156622	 0.097924
H	-1.4832840666	 0.4957673623	 1.9968352565	 0.101421
H	-2.2564508793	-0.5127539628	-0.4049544837	 0.070692
