18
gdb 43624	5.2768	0.88363	0.80238	1.3138	73.68	-0.2563	0.0234	0.2797	1398.7546	0.14815	-439.058721	-439.050491	-439.049547	-439.092913	29.79	
N	 0.1124645134	 1.096644094	 0.5505472125	-0.536186
C	 0.002124374	-0.0192473496	-0.0075174478	 0.437285
C	-1.1522568985	-0.9465058216	-0.3243941275	-0.389805
C	-0.055499399	-1.836569013	-0.9519130146	 0.119638
O	 0.9591160172	-0.8414068817	-0.571708489	-0.267168
C	 0.2210130238	-3.1830579253	-0.3302211483	-0.046188
C	-0.6532236242	-4.3388496327	-0.8724755228	-0.089162
O	 0.4673677435	-4.921974049	-1.5633387053	-0.268989
C	 1.3829956051	-3.9784781707	-0.9673044715	-0.086663
H	 1.0847272981	 1.4093112991	 0.5680729152	 0.229414
H	-1.6556486676	-1.3630925908	 0.5505368438	 0.136795
H	-1.8941581124	-0.5361642293	-1.0106382337	 0.141485
H	-0.098640518	-1.9107498289	-2.0438602588	 0.101349
H	 0.2603824641	-3.0917509172	 0.7577719111	 0.087126
H	-1.0590703399	-5.0075029376	-0.1028519102	 0.105139
H	-1.462172729	-4.0576018673	-1.5590973005	 0.104682
H	 1.9794018145	-3.4467397801	-1.7178752906	 0.115188
H	 2.058674145	-4.4593488185	-0.249367292	 0.10606
