21
gdb 113777	3.00895	0.98746	0.96223	1.3311	78.55	-0.2453	0.0679	0.3132	1350.2596	0.182712	-420.345449	-420.335914	-420.334969	-420.380489	35.697	
C	-0.4306065725	-0.8593311433	 3.4093538432	-0.454366
C	-0.236344804	-0.8611297204	 1.9070597349	 0.313392
C	 0.8899523374	-0.0793485859	 1.3250151224	-0.264994
N	 0.9546149007	-1.5502672956	 1.3656349173	-0.356463
C	-1.4662306889	-1.0982842342	 1.0540591821	-0.084979
N	-2.7849916726	-1.1215424381	 1.708296574	-0.35797
C	-2.490341019	-0.06947843	 0.7160605576	-0.030651
C	-2.5020048471	 1.3344807142	 1.275401922	-0.069286
O	-3.8049270542	 1.7044665981	 1.6939866975	-0.422451
H	 0.5214695731	-0.6688514756	 3.9160125908	 0.103488
H	-1.1465534592	-0.0981453638	 3.7288586075	 0.13305
H	-0.8202280346	-1.8245042096	 3.7487752149	 0.127039
H	 0.8000977935	 0.3436934698	 0.3277031071	 0.115341
H	 1.5176239036	 0.4944913075	 2.0027244846	 0.109003
H	 1.5578874101	-1.8492261315	 2.1284937051	 0.22745
H	-1.2798865992	-1.8411911337	 0.2814101333	 0.099442
H	-3.3710426534	-1.8475668839	 1.3075111492	 0.236788
H	-2.9710745403	-0.1673777669	-0.2560269102	 0.089715
H	-1.7776042599	 1.4212629172	 2.0974219454	 0.09126
H	-2.2079350003	 2.0520178008	 0.5021626199	 0.106879
H	-4.0925524333	 1.0045212848	 2.2926320516	 0.288313
