17
gdb 7959	3.2915	1.86331	1.38104	5.0233	64.15	-0.2589	0.0541	0.313	923.8426	0.143138	-401.064309	-401.056584	-401.055639	-401.096178	29.057	
C	 0.1035512648	 1.5774797092	-0.2316562565	-0.4032
C	-0.0197961044	 0.0778661832	 0.0536992284	-0.000241
N	 0.5215009644	-0.7497113311	-1.0168860189	-0.363521
C	 1.8294853543	-1.1112777222	-0.7546074009	 0.464991
O	 2.641093159	-1.558686724	-1.515482631	-0.392546
O	 2.0724946844	-0.88302677	 0.5714527114	-0.251656
C	 0.8528201713	-0.4661058805	 1.2172818591	 0.134163
C	 1.177582055	 0.479542045	 2.3565538587	-0.412134
H	 1.147950637	 1.8688706078	-0.3786795517	 0.137751
H	-0.4499432647	 1.8326566924	-1.1412169695	 0.119603
H	-0.3128682941	 2.1723153819	 0.5867320398	 0.125494
H	-1.0699470688	-0.1727101536	 0.238769729	 0.092345
H	 0.2878251989	-0.5784727602	-1.9825410341	 0.25565
H	 0.3704047752	-1.3699956984	 1.6121396699	 0.097096
H	 1.6929975439	 1.374267562	 1.9998041828	 0.133884
H	 0.2604731568	 0.7829408798	 2.871413147	 0.122856
H	 1.8243686969	-0.0219668513	 3.0807643965	 0.139465
