20
gdb 59287	2.56322	1.32247	1.08577	1.2792	82.13	-0.2182	-0.002	0.2162	1217.9547	0.17178	-399.363603	-399.354461	-399.353517	-399.398214	33.824	
C	 0.0044839804	 1.5439516585	-0.0286212426	-0.388965
C	-0.0134722492	 0.0120020719	 0.0378957655	 0.035076
C	 0.7787187221	-0.5305859744	 1.2335629841	-0.389
N	-1.3836331898	-0.5026160966	 0.0324345927	-0.075675
C	-2.3707960228	-0.293116504	 0.9843101919	 0.066899
N	-3.5059369148	-0.8436097975	 0.7756806853	-0.270211
C	-3.3536528586	-1.5600076449	-0.4978495263	-0.271944
C	-1.9197427815	-1.3109377276	-0.9691312187	 0.341711
N	-1.2574608885	-1.6836445109	-1.9900350394	-0.552319
H	 1.0340685589	 1.905686678	-0.1075459997	 0.122884
H	-0.5528116732	 1.9019802693	-0.8983825303	 0.131141
H	-0.436178234	 1.9907243466	 0.8696091867	 0.11556
H	 0.4193628344	-0.3871469767	-0.8836565584	 0.133634
H	 0.7628184337	-1.623665972	 1.2468570462	 0.131121
H	 1.8209615896	-0.2028306002	 1.1750043921	 0.122906
H	 0.3703207793	-0.1693697722	 2.1839997567	 0.115572
H	-2.1500664741	 0.3171611161	 1.8536311662	 0.133433
H	-3.5454297251	-2.6306470418	-0.3610072226	 0.139046
H	-4.0811154243	-1.1953493935	-1.2324264652	 0.139052
H	-1.8293357924	-2.2665879279	-2.5983990241	 0.220081
