17
gdb 45697	3.84386	1.3606	1.05356	3.3665	76.62	-0.2081	0.0076	0.2157	1104.2468	0.139316	-418.043982	-418.036629	-418.035685	-418.075756	29.039	
O	-0.0228137993	-0.1119164108	-0.151279119	-0.404523
C	-0.0189942669	 1.0993560538	-0.0406717682	 0.441068
N	-1.2030332322	 1.8360496345	-0.0126198381	-0.36062
C	-1.2556318134	 3.1860382099	 0.3630059161	-0.142841
C	-0.152820662	 3.912005648	 0.2272774934	 0.251819
C	 0.5098861099	 5.1206723256	 0.8468304672	-0.316829
C	 1.8151806774	 4.2497671663	 0.900587691	-0.235891
C	 1.163242113	 3.2752245242	-0.1389268426	-0.023808
N	 1.1344881687	 1.8466061468	 0.096477229	-0.358548
H	-2.0291477923	 1.2625090769	 0.0206710719	 0.258478
H	-2.1899283578	 3.5322977822	 0.7904681211	 0.117087
H	 0.6146411153	 5.965422818	 0.1564874708	 0.112269
H	 0.1111181586	 5.4931807257	 1.7928951318	 0.114396
H	 2.7520533515	 4.7317116828	 0.6116917143	 0.100987
H	 1.9287579893	 3.7576333819	 1.8683991557	 0.116474
H	 1.5021976854	 3.5168081479	-1.1592879591	 0.081259
H	 1.9684122948	 1.2977397162	-0.0495725552	 0.249222
