21
gdb 105088	2.91438	1.10456	1.04782	2.1756	78.48	-0.2598	0.0831	0.3429	1297.587	0.18012	-424.191924	-424.182183	-424.181239	-424.226831	35.909	
C	 0.5528475084	 1.795555193	 2.78562229	-0.398992
C	 0.6782798535	 0.4979423328	 1.9850015272	-0.252853
C	 0.3972526484	-0.7772915691	 2.7673615055	 0.368182
C	 0.5969379711	-0.8844292347	 4.223338865	-0.224903
O	-0.7140257133	-0.7364246012	 3.6645969961	-0.266204
C	 0.5541092154	-2.0315943477	 1.9438122929	-0.016478
O	 0.2093111939	-3.2767100103	 2.5384878983	-0.262536
C	-0.5414937642	-2.8503835336	 1.3894229569	 0.082223
C	-2.0124076121	-2.5799649792	 1.5718943204	-0.437699
H	 1.3546819776	 1.8974581988	 3.5232737687	 0.117877
H	 0.6090881231	 2.660653458	 2.1192080541	 0.115122
H	-0.4036995127	 1.8292015592	 3.3134283568	 0.140389
H	-0.0206659645	 0.5227040728	 1.1381598853	 0.110901
H	 1.6805951739	 0.4192576756	 1.5447232589	 0.105953
H	 0.801123426	-1.8646600517	 4.6481376824	 0.130878
H	 0.9539033373	-0.0314379374	 4.7955312057	 0.113085
H	 1.5033073662	-2.0456592702	 1.4000927559	 0.085157
H	-0.293927082	-3.4219056829	 0.4913392826	 0.086577
H	-2.1983935191	-2.0377441405	 2.4975631529	 0.164441
H	-2.3948259698	-1.9952888349	 0.7276366752	 0.115507
H	-2.563156997	-3.5265279266	 1.5941367093	 0.123374
