19
gdb 108760	2.78967	1.181	0.92815	5.451	79.2	-0.2604	-0.0353	0.2251	1304.7402	0.158866	-423.093719	-423.084688	-423.083744	-423.127871	33.138	
C	-0.3096484481	 1.4730200543	-0.0948947676	-0.38173
C	 0.1431995031	 0.0069258639	 0.039990482	-0.298763
C	 0.8423798238	-0.5133300032	-1.1768726684	 0.345144
C	 2.1032844809	-0.9354943664	-1.3033787089	-0.393904
C	 2.3530143266	-1.3465429296	-2.7004916929	 0.444811
O	 3.3457681851	-1.7748367008	-3.2180245219	-0.353078
O	 1.1827835237	-1.1519229005	-3.3986589089	-0.242789
C	 0.16947124	-0.6367121308	-2.5288029045	 0.024853
C	-1.0468613183	-1.5609127695	-2.5556104356	-0.399846
H	 0.5435122774	 2.1297393612	-0.2886668164	 0.132456
H	-1.0255851605	 1.6012551333	-0.9123510487	 0.125961
H	-0.7941707532	 1.8067665931	 0.8268150536	 0.126078
H	 0.807806566	-0.0952076445	 0.9035969999	 0.118909
H	-0.7354732361	-0.6187992961	 0.2459627108	 0.120698
H	 2.869053475	-0.9936364513	-0.5430683558	 0.125499
H	-0.1161392193	 0.353702737	-2.9097309052	 0.108555
H	-0.7845694193	-2.5493540337	-2.1680071701	 0.133531
H	-1.8591774582	-1.1481194814	-1.9496523555	 0.122415
H	-1.4051216685	-1.6721555951	-3.5817319659	 0.141202
