19
gdb 87586	2.45588	1.49502	1.24236	1.9724	74.98	-0.2428	0.0555	0.2983	1084.7735	0.158291	-422.968062	-422.95937	-422.958425	-423.0012	33.493	
O	-0.083233784	 1.4105086794	 0.1226594692	-0.424521
C	-0.0515367126	 0.0179623352	-0.0108770359	 0.037013
C	-0.3934460494	-0.7722187594	 1.2215025931	-0.395617
C	-1.3419923936	-0.7496903637	 0.0574653703	 0.295518
C	-2.735518488	-0.1613380042	-0.0080895378	-0.129681
C	-3.0742252317	 0.1200615521	-1.4465212343	-0.307463
C	-3.1706717631	-1.2983274181	-0.9456280082	-0.079531
C	-1.7874796437	-1.949479408	-0.8137179	 0.049044
O	-1.0559664913	-2.2944727096	-1.9655270664	-0.431902
H	-0.573635391	 1.7705756538	-0.623884881	 0.286974
H	 0.732073203	-0.3736630864	-0.660243949	 0.089833
H	 0.1584622877	-1.6851871833	 1.4230480662	 0.116028
H	-0.6637643427	-0.1926858982	 2.0982264781	 0.122258
H	-3.2846140773	 0.271005367	 0.8181266983	 0.097291
H	-4.0292932383	 0.6020169858	-1.6290311973	 0.119219
H	-2.2958575297	 0.4212429493	-2.147053933	 0.08814
H	-4.1108308005	-1.8352177112	-0.9671168893	 0.091559
H	-1.8387608377	-2.8641528615	-0.216020173	 0.097269
H	-1.0847681161	-1.545938859	-2.5709023601	 0.27857
