19
gdb 37008	3.36184	1.20201	1.18443	0.4477	76.25	-0.211	0.0542	0.2651	1151.1884	0.158617	-422.963493	-422.955196	-422.954251	-422.997034	30.957	
C	-0.1355154816	 1.7220222654	 0.0043488525	-0.446233
C	 1.1710780895	 0.9717251617	-0.0480245836	 0.37705
C	 2.230162464	 0.9135855938	-1.1392055465	-0.351331
C	 3.2142615846	 0.883140259	 0.0516053037	-0.072421
O	 2.1311042901	 0.9893164536	 1.0103497526	-0.3096
C	-0.1028260215	 0.2153169057	 0.0448460339	 0.377055
C	-0.5542193417	-0.7506028519	 1.1306433895	-0.351333
C	-1.0045017629	-1.6197049686	-0.0648969868	-0.072421
O	-0.5831901102	-0.6106365131	-1.0177739996	-0.3096
H	-0.3953717877	 2.2385766599	 0.9242303528	 0.124389
H	-0.468624404	 2.2047518713	-0.91027942	 0.124389
H	 2.1965241731	 0.0174989141	-1.7610429476	 0.125527
H	 2.2983012387	 1.798629219	-1.7744730868	 0.114818
H	 3.7757433684	-0.0494096997	 0.1783002443	 0.106656
H	 3.9017580747	 1.7322136577	 0.1285132746	 0.108027
H	 0.2512746263	-1.1552218446	 1.7456613163	 0.125528
H	-1.360772298	-0.3913118329	 1.7724326933	 0.114818
H	-0.4555458841	-2.5583031695	-0.201443124	 0.106655
H	-2.0795090278	-1.8157998008	-0.1383601488	 0.108027
