14
gdb 133094	3.82007	1.12621	0.87452	3.8865	65.86	-0.2642	-0.0469	0.2174	1208.1976	0.101522	-478.02583	-478.018226	-478.017282	-478.058593	27.443	
O	 0.0161932192	 1.4155801398	 0.0060660194	-0.417217
C	-0.0078913146	 0.0038055193	 0.0025066026	-0.154108
C	-1.4354569325	-0.4772704928	 0.0130935423	 0.304191
C	-2.5241733142	 0.3896788295	 0.0236640762	-0.171934
C	-3.7817798324	-0.2004796911	 0.032537099	 0.013398
N	-3.9627330076	-1.5242901139	 0.0312183107	-0.308026
C	-2.8440043304	-2.2280451562	 0.0207571121	 0.33999
F	-2.9992379378	-3.5393216541	 0.0192591549	-0.057972
N	-1.5948875375	-1.8070975595	 0.0115988294	-0.357092
H	 0.9329336685	 1.7032361389	-0.0000958945	 0.29886
H	 0.4854625346	-0.4199311041	-0.8861011633	 0.124008
H	 0.5002181767	-0.424715677	 0.8804156018	 0.124019
H	-2.3846657528	 1.4607557087	 0.0248161746	 0.133996
H	-4.6847940992	 0.4050058325	 0.0410667346	 0.127886
