22
gdb 101575	2.64025	0.84979	0.74623	4.3446	80.15	-0.2529	0.024	0.2769	1639.4447	0.192028	-441.527671	-441.516573	-441.515628	-441.565528	39.175	
C	-0.3339362249	 1.597247866	-0.0215622954	-0.383225
C	-0.1276245217	 0.0813074328	-0.0088885756	-0.170585
C	-1.4324564184	-0.7292182752	 0.0588688247	 0.040814
C	-1.1792379808	-2.2358286638	-0.0659497053	-0.395748
N	-2.1700202685	-0.4350215667	 1.2887851083	-0.314009
C	-3.4364281284	 0.0407970895	 1.3206065902	 0.391774
O	-4.0974428317	 0.3118825181	 0.3270085806	-0.393568
C	-4.0524718235	 0.2451406025	 2.7114196016	-0.147643
O	-5.3490892394	 0.7454562534	 2.5848678769	-0.419752
H	 0.6240643197	 2.1221561943	-0.0810289947	 0.114859
H	-0.9405055831	 1.9054409906	-0.8794304454	 0.127707
H	-0.8463304332	 1.936656341	 0.8835626748	 0.119112
H	 0.412299857	-0.2271846798	-0.9120609061	 0.103998
H	 0.5140251976	-0.2043940722	 0.8372166515	 0.087789
H	-2.097541678	-0.4070512703	-0.7473402928	 0.125918
H	-0.6696839582	-2.4645505451	-1.00690454	 0.123118
H	-0.545236478	-2.5985836965	 0.7521479471	 0.109601
H	-2.1202066014	-2.7919230792	-0.0402975495	 0.128811
H	-1.7226566166	-0.6517943053	 2.1674007891	 0.244388
H	-4.0470145337	-0.7183224127	 3.2473319624	 0.10593
H	-3.4137090355	 0.9347592551	 3.2870996401	 0.106687
H	-5.4836486292	 0.8144818936	 1.6233591674	 0.294024
