17
gdb 84662	2.45102	1.83883	1.40266	2.8415	67.84	-0.257	-0.0244	0.2326	955.3499	0.137535	-458.948268	-458.94091	-458.939966	-458.979676	29.798	
O	 0.1569648358	 1.2491236629	-0.3719814778	-0.44917
C	 0.0443714069	-0.1405846947	-0.0344579763	 0.023855
C	 0.7563577156	-0.4617121073	 1.2590417087	-0.10794
C	 0.1303370338	-0.3885948233	 2.4354650094	-0.044943
C	-1.3019536113	 0.0002845722	 2.5136761857	-0.011936
O	-1.6723246271	 1.2159186065	 1.8051822384	-0.269647
C	-2.1113400886	-0.0490516092	 1.2846837451	 0.010791
C	-1.4537716155	-0.5249876514	 0.0027364015	 0.096028
O	-2.109234964	-0.0169283591	-1.1408799453	-0.444916
H	-0.2093051331	 1.7246730962	 0.3894439019	 0.292079
H	 0.5124192201	-0.6695934509	-0.8694184358	 0.099041
H	 1.8131746208	-0.7037265608	 1.2059864953	 0.108964
H	 0.6507819496	-0.5899598174	 3.3666044755	 0.105774
H	-1.7949272098	-0.0982342805	 3.4775834543	 0.1021
H	-3.1867305309	-0.2082939744	 1.3492846564	 0.109286
H	-1.5458760326	-1.6189541036	-0.0276910234	 0.091984
H	-1.6694818596	 0.8266780746	-1.3249276135	 0.28865
