20
gdb 119692	4.65091	1.0157	0.93967	2.4006	79.58	-0.2197	0.0791	0.2988	1316.9281	0.171199	-403.052965	-403.044649	-403.043705	-403.086398	31.344	
C	 0.7376334049	 1.4114778435	 0.3456841469	-0.220018
O	 0.987924473	 0.0300073601	 0.4478042269	-0.236889
C	-0.1745828805	-0.7210322981	 0.7346488973	-0.207049
C	 0.1965643913	-2.1680525665	 0.8226568337	 0.322088
C	-0.6096669002	-3.3308207539	 1.3777824512	-0.239021
N	 0.6660374195	-4.1455616683	 1.4622060429	-0.174548
C	 1.0048899939	-4.313507678	-0.008585549	-0.181357
C	 1.2560652023	-2.8193314363	-0.0940152371	-0.117511
C	 1.4296724962	-2.7981791572	 1.3990536609	-0.063587
H	 0.333883785	 1.8235312918	 1.2839839338	 0.105751
H	 1.6893514302	 1.9008770934	 0.1256232489	 0.128905
H	 0.0247450145	 1.6386803796	-0.4627262192	 0.105454
H	-0.6224122066	-0.3849686773	 1.6871709853	 0.088716
H	-0.9368363964	-0.5630324809	-0.0497566666	 0.08904
H	-0.9820456185	-3.1367442917	 2.3881390133	 0.104823
H	-1.4041258646	-3.78562407	 0.7735101671	 0.093409
H	 1.9226884075	-4.9005818066	-0.1009439678	 0.108285
H	 0.2113924284	-4.7752281686	-0.6083200802	 0.093916
H	 1.786241649	-2.2287515052	-0.8288947778	 0.099706
H	 2.2106205512	-2.4732580198	 2.0708711495	 0.099886
