20
gdb 114638	2.02256	1.71296	1.10364	2.0186	75.38	-0.2283	0.0593	0.2876	1146.5063	0.171555	-440.231694	-440.222842	-440.221898	-440.26506	33.96	
O	 0.2040354089	 0.3481274958	 1.1058155626	-0.418906
C	-0.0835226918	 0.1405388021	-0.2858676139	-0.11138
C	-1.4826232049	-0.4322747248	-0.3655649459	-0.025608
C	-2.0345479846	-0.9354708862	-1.7477510792	-0.259774
C	-2.204362051	-2.3260141538	-1.1226056542	-0.124774
N	-0.8441246	-2.7319415712	-0.6915888904	-0.369793
C	-1.6651402164	-1.8612075079	 0.1865812294	 0.328036
C	-1.9452699473	-2.2084992957	 1.616024525	-0.18225
O	-0.7970353475	-2.0655184853	 2.4308805813	-0.427013
H	 1.1417281632	 0.5417828048	 1.1973501113	 0.295248
H	-0.0197782207	 1.0935530468	-0.8312582801	 0.092019
H	 0.6241862036	-0.5695749875	-0.7296742201	 0.121002
H	-2.1884745667	 0.2566882688	 0.1089238786	 0.082528
H	-2.9740910732	-0.4524855131	-2.0227398495	 0.105016
H	-1.341972405	-0.8982736524	-2.5930500783	 0.106761
H	-2.9614373043	-3.069050009	-1.3436166061	 0.09422
H	-0.9071738502	-3.6750617859	-0.3081939045	 0.229245
H	-2.7793109415	-1.584447074	 1.9812559447	 0.082693
H	-2.2674116308	-3.2547575937	 1.6961592036	 0.093693
H	-0.3887248	-1.2180195077	 2.1902619357	 0.289036
