16
gdb 45613	3.96567	1.11612	0.92909	3.0834	73.09	-0.2333	-0.0136	0.2196	1226.7136	0.125688	-434.067137	-434.059406	-434.058461	-434.099816	28.898	
N	 0.0585156378	 0.9792042428	-0.7984019709	-0.547006
C	-0.0177263301	-0.1813898132	-0.2930152568	 0.377434
C	-1.0715231279	-0.6722349528	 0.6996448526	-0.238136
N	-0.6841819241	-2.0368191062	 1.081978758	-0.318646
C	 0.3552844816	-2.3081547521	 0.3896410762	 0.382177
N	 0.7900419227	-1.309308346	-0.477097147	-0.383172
C	 1.0876542476	-3.5937204099	 0.4333078777	-0.017049
C	 1.4438057297	-4.3075787212	-0.8065703171	-0.177419
O	 2.4226141103	-3.5582418785	-0.0884914747	-0.239734
H	 0.8473849688	 1.0655564827	-1.4410952187	 0.209609
H	-1.1246789099	-0.0207543441	 1.5777183089	 0.14738
H	-2.0675429969	-0.6703654838	 0.2422856311	 0.145454
H	 1.7120372577	-1.308746155	-0.8841892282	 0.265714
H	 0.9465342502	-4.1630764683	 1.3480918684	 0.129268
H	 1.564189975	-5.388582024	-0.7741981211	 0.1355
H	 1.1461727075	-3.8925157706	-1.7674120482	 0.128625
