16
gdb 32693	4.70672	0.98839	0.85911	3.3074	78.24	-0.2468	-0.0441	0.2027	1334.0441	0.125078	-434.088542	-434.080424	-434.07948	-434.122646	29.004	
C	-0.0750411293	 1.6177808977	-0.1034142001	-0.360663
C	-0.0596265263	 0.0862058941	-0.0601267896	-0.140263
N	-1.4174337793	-0.423585432	-0.1154759058	-0.278226
C	-1.7693679327	-1.2277687443	-1.0294214456	 0.384212
N	-0.9034156021	-1.7074011977	-2.0524653274	-0.28855
C	-1.3739165236	-2.5222144641	-2.8950705022	 0.129896
O	-2.653324932	-3.0009077855	-2.9301835117	-0.186379
C	-3.4574654624	-2.4980409132	-1.9337135581	 0.122004
N	-3.1119019961	-1.6822727332	-1.0356447221	-0.263042
H	 0.9375122642	 2.0130630124	 0.0250474362	 0.108277
H	-0.4621562655	 1.9749367894	-1.0628969469	 0.115975
H	-0.7125855549	 2.019686916	 0.68877272	 0.127642
H	 0.5825661879	-0.3127050882	-0.8540117633	 0.11176
H	 0.3619076843	-0.2343739763	 0.9020535946	 0.106961
H	-0.7844299607	-2.9383497897	-3.7076900939	 0.154421
H	-4.4624811115	-2.9006276553	-2.014772974	 0.155975
