17
gdb 72761	3.20589	1.47653	1.20564	4.6134	76.18	-0.2263	-0.0148	0.2115	1040.7444	0.138036	-418.017542	-418.010027	-418.009083	-418.04918	29.916	
C	-0.1671072867	 1.5615358738	-0.2745393566	-0.444382
C	-0.0665692534	 0.0516684651	-0.0664900267	 0.267906
C	-0.997301106	-0.445109475	 1.120443514	-0.235495
N	 0.2278775604	-0.3630811987	 1.9985543839	-0.370428
C	 1.0074863029	-0.4563132026	 0.8483586422	 0.323905
C	 1.9731341632	-1.1315841986	 0.2104532514	-0.398446
C	 1.5434948027	-1.1948013758	-1.2181627745	 0.398747
O	 2.1245373268	-1.6615297344	-2.1699120913	-0.373705
N	 0.2135601849	-0.6845938796	-1.2722349803	-0.40563
H	 0.7113818265	 1.9337202257	-0.8092518424	 0.135239
H	-1.0595373168	 1.8041737495	-0.8625568229	 0.122743
H	-0.2407359783	 2.08121958	 0.6842746183	 0.137627
H	-1.8154117619	 0.2078275183	 1.434006248	 0.114369
H	-1.341060098	-1.4716124789	 0.9697820775	 0.128345
H	 0.3628836909	-1.0337747705	 2.7455609776	 0.247765
H	 2.7875559567	-1.7249905757	 0.5960661442	 0.11436
H	-0.0773687041	-0.3212424726	-2.1694860025	 0.237077
