25
gdb 118852	2.23412	0.99463	0.78716	0.9341	90.7	-0.2417	0.0878	0.3295	1630.9911	0.226078	-389.484815	-389.473583	-389.472638	-389.521548	41.029	
C	-0.3094294923	 1.5054038813	 0.1785162394	-0.384182
C	-0.1712680748	 0.0002262151	 0.3371051025	-0.046191
O	-1.239234397	-0.6155412127	-0.3667153145	-0.290178
C	-1.3458557346	-2.0049958491	-0.2067768757	 0.42468
C	-0.2798315532	-2.8085285075	-0.9220907196	-0.454597
C	-1.9177984446	-2.5064000545	 1.1020165086	-0.353135
C	-2.7584884008	-2.5220350615	-0.1646584818	-0.049494
C	-3.9543825773	-1.6027326546	-0.3020690908	-0.191428
C	-5.2057058399	-2.1521767372	 0.391946066	-0.372068
H	 0.5054946538	 2.0200621711	 0.6966155997	 0.112595
H	-0.2787387756	 1.7837067804	-0.8788138893	 0.12632
H	-1.2600510007	 1.8514876163	 0.5945320313	 0.12322
H	 0.7995347717	-0.3343611395	-0.0588958606	 0.089263
H	-0.2047318622	-0.2854801814	 1.3996257538	 0.087878
H	 0.7161602453	-2.6303505674	-0.5024092975	 0.116375
H	-0.4843912629	-3.8795829227	-0.8379600025	 0.115577
H	-0.2536515794	-2.5454574717	-1.984885977	 0.122273
H	-1.5543475727	-3.4418434404	 1.5147156939	 0.104532
H	-2.1722021623	-1.7558280664	 1.8440352096	 0.110468
H	-2.8958766219	-3.5013754282	-0.6195588135	 0.07594
H	-3.6962598314	-0.6202228595	 0.1035544371	 0.105696
H	-4.1658602082	-1.443485759	-1.3674692891	 0.094677
H	-6.0546313089	-1.4708284196	 0.2757639435	 0.107845
H	-5.4989284968	-3.1224638592	-0.024646306	 0.109547
H	-5.0310859135	-2.2939225221	 1.4638385625	 0.11439
