19
gdb 94828	3.85625	1.11183	0.96983	1.2541	78.4	-0.2473	-0.0029	0.2444	1235.0975	0.159975	-423.019703	-423.01161	-423.010666	-423.052276	31.967	
O	 0.097937738	 1.4415585262	 0.0901784274	-0.435952
C	 0.0435633684	 0.0194160417	 0.0305302548	 0.096156
C	-1.3948895015	-0.5098559054	 0.0908588715	-0.241651
C	-1.4253071063	-2.0239891531	-0.1521012108	-0.305288
C	-0.8252911045	-2.3673247156	-1.5040772612	 0.412814
C	-1.0260974999	-3.7069118131	-2.079988004	-0.24425
O	-1.7698624421	-2.6003596196	-2.5802946052	-0.281009
C	 0.3557818933	-1.5594609752	-1.8957785242	-0.102381
C	 0.7616666567	-0.5015132564	-1.1918216302	-0.118914
H	-0.3394472828	 1.7792674646	-0.6997998365	 0.277626
H	 0.5841084788	-0.3032118278	 0.9318550546	 0.099329
H	-1.8434145845	-0.2525398532	 1.0545716443	 0.104363
H	-1.9838829048	-0.0062592554	-0.6874767911	 0.100746
H	-0.8468756192	-2.5308502898	 0.6320388006	 0.106878
H	-2.4464412938	-2.4130620141	-0.1077221166	 0.112605
H	-0.2839985625	-4.1237998769	-2.7609645868	 0.111372
H	-1.5991235359	-4.4442345155	-1.5168521254	 0.11117
H	 0.8798094491	-1.8669950206	-2.7967868281	 0.095856
H	 1.6436576235	 0.0600799589	-1.4897839429	 0.100529
