17
gdb 91681	3.28871	1.28465	1.13127	6.5595	72.66	-0.257	0.0352	0.2922	1094.5801	0.13845	-417.989048	-417.981521	-417.980577	-418.020995	29.35	
O	-0.1469232223	 1.4172085852	 0.0167428046	-0.431491
C	-0.0176269031	 0.0092306487	 0.0315904454	 0.10253
C	 0.4899833486	-0.591907492	 1.3890437321	-0.281392
C	-0.7830902521	-1.3786519742	 1.7624490905	-0.000525
N	-1.197462894	-2.0366623619	 0.4822055631	-0.306169
C	-1.4204163534	-0.6382417287	 0.0165081334	-0.010449
C	-1.9093017772	-0.3328286671	 1.4667214397	-0.150909
C	-3.2563954755	-0.7775607093	 1.7715578489	 0.287423
N	-4.337440381	-1.0833177815	 2.0436932544	-0.332325
H	 0.7319132683	 1.8084362421	 0.0143576417	 0.291495
H	 0.5751851111	-0.3383257927	-0.825666538	 0.075226
H	 1.3513981907	-1.2560167364	 1.2746046827	 0.105385
H	 0.7492911651	 0.1973193825	 2.1007767605	 0.110287
H	-0.7897045454	-1.9802802072	 2.6704732655	 0.095107
H	-0.4325704554	-2.5120990187	 0.0015381038	 0.214636
H	-2.0515922636	-0.4720933029	-0.8548337181	 0.09842
H	-1.7492569609	 0.6855722342	 1.8214091296	 0.13275
