21
gdb 22270	2.70299	1.07861	0.91974	1.0828	82.92	-0.2364	0.0045	0.2409	1378.6609	0.179527	-420.352534	-420.341842	-420.340898	-420.388324	38.847	
C	-0.0344276667	 1.449771129	-0.226033122	-0.405347
C	 0.1076162831	-0.0377235153	-0.0094416679	-0.020861
N	 1.4771250456	-0.5967991749	 0.0207317219	-0.380814
C	 0.6223356027	-0.6661961658	 1.2371654067	 0.246153
C	 1.1105292486	 0.1584263362	 2.4140947374	-0.462401
C	 0.0963050802	-2.0231579446	 1.6102308227	 0.279366
C	 0.9979144697	-2.9712647455	 2.3593794373	-0.484585
N	-1.1017383743	-2.3020813467	 1.2588957296	-0.169987
O	-1.4778762941	-3.5974798748	 1.6493511284	-0.395372
H	 0.7595722513	 2.012884175	 0.2681857931	 0.123562
H	 0.0138944278	 1.6804483323	-1.2957043279	 0.120138
H	-1.0003093975	 1.8046270535	 0.1496213491	 0.11902
H	-0.640951852	-0.6315366504	-0.5270941475	 0.096612
H	 1.4867558771	-1.5006238943	-0.4483173668	 0.225976
H	 1.6022248637	 1.0692475617	 2.0700822825	 0.132605
H	 0.2761477389	 0.4323325715	 3.0687742043	 0.121885
H	 1.8383787229	-0.4001929569	 3.0113392751	 0.119578
H	 0.7650881212	-2.9655451127	 3.4305458265	 0.145932
H	 0.8465666105	-3.9937369669	 2.0073524702	 0.15024
H	 2.046514745	-2.6917235075	 2.2373500193	 0.13195
H	-2.3721264638	-3.660609563	 1.2978064679	 0.306349
