23
gdb 36879	4.57333	0.8428	0.80919	0.0705	90.71	-0.268	0.0962	0.3642	1534.2669	0.207611	-351.088577	-351.08031	-351.079365	-351.122273	32.833	
C	-0.2544861027	 1.5838458779	-0.0163574536	-0.283891
C	-0.2426049737	 0.0681605842	-0.0763980235	 0.048325
C	-0.1409848536	-0.7492875896	 1.1880098408	-0.255233
C	-1.4282346952	-0.7306674291	 0.3988895596	-0.279227
C	 1.1510160051	 2.1719906535	 0.0556887914	 0.084937
C	 2.0868701445	 2.2604147251	-1.1988155986	-0.045789
C	 1.2347599368	 3.4630055974	-1.7003832264	-0.221265
C	 1.4324187494	 3.6938580052	-0.1728471314	-0.066065
C	 2.92141497	 3.2983703462	-0.3937614807	-0.216759
H	-0.8125595555	 1.9762113223	-0.8736377278	 0.096266
H	-0.8120040785	 1.8988671534	 0.8769374145	 0.08901
H	 0.2819992193	-0.3372892145	-0.938445177	 0.081143
H	 0.4572489456	-1.6537496666	 1.1785435902	 0.108335
H	-0.1222536255	-0.2174414647	 2.1342364875	 0.107819
H	-2.2691992465	-0.1861476486	 0.8166330842	 0.107801
H	-1.7087770884	-1.6218384945	-0.1518063131	 0.108099
H	 1.6624081284	 1.7673241751	 0.9378545415	 0.060156
H	 2.4732549611	 1.4318314905	-1.7955574058	 0.063938
H	 1.7445049341	 4.1686425404	-2.3625363261	 0.086298
H	 0.2255427744	 3.2599850338	-2.0609979536	 0.091446
H	 1.0556856017	 4.5283689999	 0.4221057718	 0.063205
H	 3.4661580209	 2.9237161177	 0.4775998337	 0.085862
H	 3.5284230283	 3.9943260851	-0.9792729576	 0.085591
