23
gdb 78287	2.71938	1.29218	1.07641	0.2654	90.6	-0.1968	0.0923	0.2891	1277.0358	0.204066	-351.100923	-351.091414	-351.09047	-351.13428	37.366	
C	-0.0645590826	 1.4526828945	-0.0063070447	-0.422174
C	 0.0173393209	-0.0605924018	 0.0188983999	-0.028321
C	 1.3784780627	-0.666663578	-0.2060698805	-0.114417
C	 0.7523118133	-0.6774436784	 1.180767781	-0.114408
C	 0.8100445802	-2.2344456325	 1.1970871564	 0.299206
C	 1.1984550249	-2.9858569416	 2.4374399581	-0.492276
C	 0.0876517257	-2.8621667432	 0.0288424523	-0.414433
C	 1.4380086397	-2.2236330022	-0.1936227736	 0.299216
C	 2.6296375831	-2.9612180626	-0.7320912531	-0.492278
H	 0.8427980384	 1.9064214672	 0.4069497925	 0.113884
H	-0.1857796613	 1.8238015146	-1.0298087278	 0.116791
H	-0.9146357029	 1.8112457358	 0.5842705697	 0.116792
H	-0.8673886527	-0.542962824	-0.3843141618	 0.077036
H	 2.2125646462	-0.0679101456	-0.5540921614	 0.07768
H	 1.0394025077	-0.0881100335	 2.0442436636	 0.07768
H	 0.389242542	-2.9762356675	 3.1789900615	 0.11774
H	 1.427590965	-4.0329077154	 2.2143003982	 0.11424
H	 2.0831211233	-2.5441971888	 2.9122761008	 0.113958
H	 0.1212632745	-3.9491942317	 0.0355563041	 0.100981
H	-0.8370065055	-2.4752350339	-0.3856691406	 0.107163
H	 2.6506775219	-2.9373297694	-1.8292696514	 0.117741
H	 3.568264539	-2.5186120966	-0.3767798258	 0.113959
H	 2.6199068966	-4.0123744157	-0.4261732573	 0.114241
