15
gdb 11105	5.80388	1.15726	1.06515	1.8745	71.46	-0.2533	0.0097	0.2631	1113.0377	0.117007	-362.619302	-362.611101	-362.610157	-362.652453	28.972	
C	-0.1395549701	 1.4460443163	 0.3207073504	-0.339988
N	-0.2467601594	-0.006590989	 0.3199371022	-0.320285
C	 0.6252981325	-0.6878218449	 0.8956009022	 0.468682
C	 0.8595214814	-2.166295559	 1.1045589563	-0.392012
C	 2.1432891003	-1.6938485484	 1.8421548689	-0.046917
O	 1.7706343045	-0.2960843915	 1.584470914	-0.266256
C	 2.2645780376	-1.999701197	 3.2522669858	 0.33881
C	 2.3658573327	-2.2740372762	 4.417569379	-0.450675
H	 0.7400259678	 1.8312297694	 0.8491385321	 0.128173
H	-0.1127898717	 1.8021026415	-0.7149177475	 0.12834
H	-1.0392668517	 1.8692499054	 0.7803782486	 0.129677
H	 0.1234606838	-2.663145323	 1.7369808424	 0.148103
H	 1.0250705877	-2.7475925036	 0.1966732389	 0.141084
H	 3.0724220924	-1.9235931233	 1.3119358153	 0.122625
H	 2.4574534022	-2.5102326869	 5.4492769915	 0.210639
