21
gdb 39151	2.79574	1.96534	1.41579	0.3888	86.88	-0.224	0.0207	0.2447	982.1007	0.186917	-349.960753	-349.954007	-349.953063	-349.991519	28.97	
C	-0.048994862	 1.4993754922	-0.209604754	-0.251294
C	 1.49891902	 1.5998570672	 0.0511146338	 0.010186
C	 2.0240680584	 2.4319727909	 1.2631077397	-0.22532
C	 2.2083675126	 1.412013433	 2.4463968281	-0.29936
C	 1.2684288046	 0.3308591056	 2.0040594506	 0.263577
C	 0.0666385391	-0.0609275931	 2.4311881287	-0.17786
C	-0.7949856565	-0.5743900682	 1.2864478229	-0.264063
C	-0.0243655111	-0.0508853674	 0.0524520804	-0.008652
C	 1.4402739547	 0.1241941969	 0.5145044443	-0.089767
H	-0.6599894996	 2.0626222226	 0.5013448461	 0.095263
H	-0.3548349665	 1.7815372825	-1.2199426485	 0.095668
H	 2.0608005148	 1.8012431956	-0.8634306149	 0.060009
H	 2.965061375	 2.9388243524	 1.0289514109	 0.095479
H	 1.3034196877	 3.2072065172	 1.5431456848	 0.101215
H	 3.2491575624	 1.0670910734	 2.4814578471	 0.100994
H	 1.9647258821	 1.8405751287	 3.4214471044	 0.101212
H	-0.3221984458	 0.0925173568	 3.4327471778	 0.083547
H	-0.8995404738	-1.6691259068	 1.2726253464	 0.097504
H	-1.8138761144	-0.1690554342	 1.3451060373	 0.097774
H	-0.191961424	-0.6385721338	-0.8524014227	 0.057041
H	 2.2249743124	-0.5827468216	 0.226903117	 0.056846
