23
gdb 6935	4.42563	0.97909	0.92081	1.0264	83.6	-0.2187	0.087	0.3057	1409.8826	0.209664	-330.312696	-330.30263	-330.301686	-330.347534	36.845	
C	 0.1897886587	 1.5097556851	 0.1067866531	-0.382011
C	-0.0096814529	-0.0046838938	 0.2016747689	-0.16185
C	-1.4111185711	-0.4449756659	-0.2273648938	-0.119091
N	-1.5296187213	-1.8961625742	-0.1540765541	-0.109851
C	-2.0606767167	-2.4801141417	 1.0758458367	-0.294588
C	-2.8390448789	-2.5585824162	-0.197498477	 0.339247
C	-4.1223311296	-1.7574036571	-0.3290555598	-0.454408
C	-2.8390688235	-3.8542772372	-0.9863185078	-0.434161
H	 1.198515864	 1.7972033283	 0.4183971351	 0.113191
H	 0.045599536	 1.8666434757	-0.9193080787	 0.113452
H	-0.5201106481	 2.0479174568	 0.7451513809	 0.111969
H	 0.7249601292	-0.5266682267	-0.4214266385	 0.105779
H	 0.1665323024	-0.3403113577	 1.23155375	 0.096922
H	-2.1576217537	 0.0838438544	 0.3903831126	 0.076926
H	-1.5882508984	-0.1419519879	-1.2676564547	 0.096135
H	-1.5334825874	-3.3485852895	 1.4649003254	 0.105196
H	-2.4289384299	-1.7971388822	 1.8422548208	 0.097796
H	-4.1273822669	-0.8601197691	 0.2928735976	 0.118336
H	-4.2887877014	-1.4526352886	-1.3691949181	 0.117732
H	-4.9782843323	-2.371598328	-0.029073202	 0.119083
H	-3.6379230531	-4.5223888042	-0.6443200336	 0.108946
H	-2.9998101113	-3.6598537097	-2.0533075149	 0.11251
H	-1.8814170339	-4.3686998904	-0.8786690182	 0.12274
