17
gdb 128782	4.57944	0.88733	0.84727	1.6613	71.05	-0.2189	0.0196	0.2385	1379.2724	0.136849	-455.153802	-455.145064	-455.14412	-455.187903	31.677	
C	 0.769592699	 0.7022509562	-1.50058678	-0.243076
O	-0.2757554441	 0.3911982238	-0.5978975696	-0.232755
C	 0.106081751	-0.5300687498	 0.4078987992	-0.192571
C	 0.2217152111	-1.9324958144	-0.1139238781	 0.382491
C	 1.0753777107	-2.9767980685	 0.1872391453	-0.429371
C	 0.6156842751	-4.0384627624	-0.6238537625	 0.438481
O	 1.1488369706	-5.277191504	-0.6681929297	-0.430166
N	-0.4217895766	-3.6993719743	-1.3749386723	-0.336991
N	-0.6522964471	-2.4051489018	-1.0331098471	-0.245544
H	 1.618857347	 1.1696349871	-0.9799868644	 0.111093
H	 1.1343451124	-0.1869913128	-2.0325123201	 0.12268
H	 0.3642190227	 1.4115488263	-2.2255650514	 0.131548
H	 1.0532988836	-0.2374298184	 0.8848109155	 0.108257
H	-0.6795852228	-0.4683506741	 1.1701143643	 0.128176
H	 1.8979547714	-2.9810404247	 0.8823861619	 0.108615
H	 0.6347736566	-5.7815403346	-1.3112492785	 0.302421
H	-1.3660336207	-1.8788398538	-1.5067429825	 0.276711
