14
gdb 127223	3.13923	1.27282	0.91083	6.2392	73.21	-0.2414	-0.0178	0.2236	1198.474	0.102358	-432.908812	-432.900684	-432.89974	-432.941948	29.08	
C	-0.0024094191	 1.3864960301	 0.1280638863	-0.318371
N	 0.0244496954	-0.0541256684	-0.0007420736	 0.047403
C	-0.1129786502	-0.7902866886	-1.1135018805	-0.103612
C	-0.017120931	-2.1273590572	-0.7398583431	-0.011675
C	-0.100700981	-3.2682549008	-1.5660937185	 0.207286
N	-0.1699107953	-4.2022042316	-2.2481224902	-0.353767
C	 0.1835251606	-2.0639101556	 0.6657931415	 0.377358
O	 0.3323105621	-3.1238621473	 1.4696511004	-0.410502
N	 0.2086246261	-0.8198750806	 1.1111145241	-0.372305
H	 0.9444632667	 1.7444932452	 0.5405835576	 0.15804
H	-0.1578581118	 1.824270129	-0.8589095616	 0.147581
H	-0.8154283229	 1.6890643245	 0.7931804831	 0.158024
H	-0.266592375	-0.3460397095	-2.0839122633	 0.162359
H	 0.4516241753	-2.7950364893	 2.3700920978	 0.312181
