13
gdb 128009	4.11029	1.22605	0.94994	2.4462	67.61	-0.2609	-0.1109	0.15	1151.3027	0.087353	-486.013916	-486.005778	-486.004834	-486.048221	28.388	
C	 0.0107504047	 1.4332620314	-0.0352313312	-0.323011
N	-0.0011340616	-0.0194476846	 0.0104809824	-0.292948
C	 0.5268497356	-0.6823339563	-0.9131435654	 0.477893
O	 1.1383501646	-0.0003349869	-2.0068779011	-0.26448
N	 1.7344076586	-0.6878421449	-3.0550994044	 0.086334
N	 1.7355470092	-1.9257841709	-3.037978956	-0.207997
C	 1.1259836184	-2.6010552552	-1.9439820483	 0.487139
O	 1.2018723861	-3.9205016747	-2.0559629209	-0.368506
N	 0.556629411	-2.0614737438	-0.9424719905	-0.311729
H	 1.0321790905	 1.8341445563	-0.0519282963	 0.130699
H	-0.5038060007	 1.8195794468	-0.9241941537	 0.130644
H	-0.4967692644	 1.8159914806	 0.8522951859	 0.130409
H	 1.667562238	-4.1241928378	-2.8794191806	 0.325554
