20
gdb 39385	2.39407	2.13576	1.4497	0.442	78.47	-0.2377	0.081	0.3187	956.3944	0.174144	-403.084734	-403.077763	-403.076818	-403.115539	29.768	
C	-0.0385032187	 1.5061016433	-0.1317124558	-0.295104
C	 1.4959688641	 1.3337471614	-0.026032031	 0.139425
C	 1.2224035364	 0.0711103495	 0.8692737116	-0.30776
C	-0.0437009466	-0.0152773946	 0.0046243291	 0.336938
N	-1.1423442736	-0.9008600735	-0.3395341281	-0.453366
C	 0.0606032111	-0.8346061701	-1.2151479052	-0.020834
C	 0.1201725836	-0.0812131685	-2.5213040515	-0.27836
C	 1.3421662943	 0.9173054834	-2.467308824	-0.067461
O	 2.0998828468	 0.9262030004	-1.2560303263	-0.275179
H	-0.4321049668	 1.9953138618	 0.7642180158	 0.099889
H	-0.4645354315	 1.9821243651	-1.0142322788	 0.104195
H	 2.0929011064	 2.1435955916	 0.402917497	 0.073434
H	 1.948150287	-0.7423885076	 0.8104822308	 0.103575
H	 1.0449912806	 0.3594558881	 1.9108335948	 0.094703
H	-1.1297955414	-1.7656143658	 0.196612887	 0.231269
H	 0.7438060005	-1.6785695818	-1.1421134082	 0.086926
H	 0.230524819	-0.7548690037	-3.3768774846	 0.098962
H	-0.8124678797	 0.4701960091	-2.6691064448	 0.11772
H	 2.0806910398	 0.6370668952	-3.2226471594	 0.112094
H	 1.0017242288	 1.9320911066	-2.7140246686	 0.098934
