21
gdb 122554	5.19728	0.70334	0.67575	2.5241	79.83	-0.2468	0.0803	0.3271	1743.3601	0.180818	-424.177394	-424.167987	-424.167043	-424.212801	34.08	
C	 0.040750773	 1.4349165297	-0.2047938259	-0.38337
C	-0.0600410469	-0.0349828568	 0.2091910327	-0.181611
C	-1.4381191117	-0.622639388	-0.060781392	-0.038956
O	-1.444628269	-1.974101812	 0.3612233626	-0.254726
C	-2.670790793	-2.6130315688	 0.1905813212	 0.141458
C	-3.1244428821	-3.0894532862	-1.2498504998	-0.297457
C	-3.2063822739	-4.5063367707	-0.6705543707	 0.030362
O	-1.8881844817	-4.842130661	-0.2356539321	-0.234698
C	-2.7066622282	-4.0716954941	 0.6479749122	-0.015265
H	 1.0396559174	 1.8318623525	-0.0027845864	 0.118254
H	-0.1567329545	 1.5642055122	-1.2747893832	 0.116084
H	-0.6789373417	 2.0548202275	 0.3415120302	 0.11534
H	 0.6837060778	-0.6346458873	-0.3274946852	 0.11109
H	 0.1609593551	-0.1467230698	 1.2768135516	 0.107245
H	-2.2130328969	-0.0520130631	 0.4809759474	 0.081808
H	-1.67993191	-0.5536165961	-1.1345374222	 0.088537
H	-3.4858003234	-2.0421176094	 0.6641930684	 0.06842
H	-4.0787701938	-2.6610661508	-1.5633972489	 0.103718
H	-2.3786748131	-2.9785272544	-2.0397250522	 0.116338
H	-3.8749524464	-5.319416864	-0.9263592774	 0.105658
H	-2.8689530671	-4.4656224695	 1.6445055898	 0.101772
