21
gdb 40778	3.66666	1.12208	0.96259	1.4733	81.39	-0.2261	0.0833	0.3093	1278.7125	0.184215	-387.061324	-387.05332	-387.052376	-387.094194	31.681	
C	-0.2227988925	 1.3848182401	-0.1929061482	-0.273341
C	 1.2316575685	 1.1131324337	 0.1028002723	-0.274854
C	 0.2490143293	-0.0288318891	 0.0505385711	 0.029566
C	-0.1478802376	-0.7640854941	 1.3103249128	-0.022699
C	-1.5511846495	-1.4200197362	 1.2195085252	-0.109371
O	-1.5383980825	-2.5696997076	 2.062240133	-0.258121
C	-0.2091619194	-3.0124470676	 2.1690761198	 0.115048
C	 0.5836658151	-3.2323528946	 0.9065984311	-0.333054
C	 0.7347856017	-1.9444773906	 1.7052464865	-0.084732
H	-0.8140861289	 1.8625930443	 0.5818343863	 0.110045
H	-0.5003398661	 1.6722724668	-1.2008917285	 0.111292
H	 1.9495108648	 1.2137449096	-0.7035869001	 0.111583
H	 1.6137659214	 1.4090331265	 1.0745560331	 0.109577
H	 0.3122372905	-0.6659014857	-0.8284836007	 0.081141
H	-0.1402201181	-0.0529174225	 2.1471614862	 0.07089
H	-2.3581416731	-0.7639436854	 1.5562603485	 0.110196
H	-1.7664933921	-1.7077102001	 0.179672598	 0.092424
H	-0.0567818335	-3.6312683275	 3.0452866694	 0.098964
H	 1.4061806458	-3.937957949	 0.9530267764	 0.111992
H	 0.0688663884	-3.214935348	-0.0483165413	 0.115669
H	 1.6737728878	-1.745313953	 2.2079204793	 0.087786
