16
gdb 9511	2.8329	1.74077	1.62541	3.0779	60.91	-0.242	-0.0307	0.2114	882.2763	0.128096	-420.868987	-420.860487	-420.859543	-420.902504	30.272	
O	-0.057943598	 1.2983955092	-0.176061982	-0.433403
C	-0.0885013842	-0.1049273292	-0.0392768968	 0.090663
C	 0.2716608123	-0.749497775	 1.3158921796	-0.279669
C	-0.9719827844	-1.6664502055	 1.1658156505	-0.251785
C	-1.5421623423	-0.7106018029	 0.0797289885	 0.28955
O	-2.4379798471	 0.2375623633	 0.6036901048	-0.493115
C	-2.0905919084	-1.3606347188	-1.1706496236	 0.093508
O	-1.5299550687	-2.2541865304	-1.7560042789	-0.262569
H	 0.1613949423	 1.681447194	 0.6787171246	 0.295869
H	 0.4462130008	-0.5571803338	-0.8789906889	 0.111949
H	 1.2538220988	-1.2175227491	 1.4027096088	 0.114688
H	 0.1441075794	-0.0377541233	 2.1385806438	 0.10384
H	-0.7291405213	-2.6382550171	 0.7322799986	 0.131133
H	-1.6111938953	-1.7913181348	 2.0401667737	 0.120894
H	-2.1188157868	 1.0978572842	 0.2920926347	 0.282729
H	-3.0586441972	-0.9351990206	-1.5182502772	 0.085718
