22
gdb 87997	2.52583	1.3061	1.23881	1.1041	82.78	-0.2217	0.0732	0.2949	1186.0866	0.192153	-404.311903	-404.30216	-404.301215	-404.345753	37.483	
C	-0.0527944295	 1.2050560103	-0.391041458	-0.316068
N	 0.3328125507	-0.1686274666	-0.0980565373	-0.148405
C	 1.7531475045	-0.4125995839	 0.1794123151	-0.314973
C	 0.7402237658	-0.4809755927	 1.2573337919	 0.34343
C	 0.7133513722	 0.3586625522	 2.5436459868	-0.328557
C	 0.705672487	-0.9834908371	 3.3353180491	-0.260124
C	 0.3150699167	-1.7426793678	 2.0381838234	 0.334735
C	-1.173971068	-2.0455364472	 1.9079906524	-0.449661
O	 1.0956256698	-2.9064755698	 1.8447312014	-0.474573
H	 0.5304748562	 1.9586971504	 0.1626130915	 0.101584
H	 0.0754181261	 1.3940963957	-1.4616021699	 0.122413
H	-1.110947628	 1.3456974237	-0.1470346581	 0.119758
H	 2.1720797136	-1.3243812451	-0.2377295541	 0.111204
H	 2.4264502096	 0.4448095016	 0.1818544461	 0.102062
H	 1.5526096321	 1.03290816	 2.7245596282	 0.105417
H	-0.2176732906	 0.9217306308	 2.6634071878	 0.104996
H	 1.7085538174	-1.277022309	 3.6513124814	 0.116863
H	 0.0195148875	-1.066170581	 4.1809041008	 0.09682
H	-1.7831106955	-1.1671986954	 2.14320142	 0.115871
H	-1.4134250627	-2.3387730114	 0.8794790027	 0.121382
H	-1.4557188456	-2.8553210029	 2.5882200153	 0.118365
H	 0.7332446008	-3.3872432948	 1.0926666633	 0.277463
