20
gdb 111327	2.4656	1.40805	1.06045	1.558	78.99	-0.2342	0.0692	0.3034	1206.7361	0.170402	-403.078087	-403.069492	-403.068547	-403.111447	32.898	
C	 0.0866480479	 1.6230152808	 0.0457304519	-0.382685
C	-0.057741646	 0.0978364754	 0.0181650237	-0.197158
C	 0.6373865225	-0.542522219	-1.1768142719	-0.076947
C	 2.1830157605	-0.5807754272	-1.2072435853	-0.057278
N	 2.6083349453	-1.438242958	-0.0753867011	-0.338064
C	 2.1944542681	-2.0623431448	-1.3636645463	-0.177514
C	 0.6798494838	-2.0892290345	-1.3124201047	 0.474242
C	-0.2376721579	-3.1386666697	-0.8803704467	-0.26256
O	-0.1039033372	-2.7754415877	-2.2687985474	-0.287591
H	 1.1397900243	 1.9195206916	 0.1004715528	 0.11709
H	-0.3409309408	 2.0813488245	-0.8533320322	 0.112115
H	-0.4226443406	 2.0536271831	 0.9132733063	 0.113096
H	 0.3576322642	-0.3344355748	 0.9344222216	 0.117916
H	-1.1222146771	-0.169158191	-0.0050386254	 0.09465
H	 0.2565204145	-0.1367361961	-2.1215235186	 0.088045
H	 2.8523639381	 0.1575125236	-1.6302604094	 0.096389
H	 3.6282186374	-1.4377889434	-0.0624862423	 0.231376
H	 2.8546559889	-2.711702069	-1.924630903	 0.10394
H	 0.1485025564	-4.1217217759	-0.6150070532	 0.115193
H	-1.1907069223	-2.8744465679	-0.4247821687	 0.115745
