15
gdb 43019	2.40386	2.03132	1.39283	3.7672	65.31	-0.2504	-0.0464	0.2041	919.7565	0.113229	-457.744711	-457.737886	-457.736942	-457.775946	26.552	
O	 0.0052841692	 0.0505465678	 0.3309157599	-0.313804
C	-0.0139130073	 1.2430836232	 0.119016599	 0.398214
C	-1.312607768	 1.9691674923	-0.0810566096	-0.073443
O	-1.4529819591	 3.30048447	 0.4281515414	-0.226468
C	-1.3338110689	 3.1538981742	-0.9750382447	 0.047354
C	-0.0703431855	 3.6710016822	-1.6325328863	-0.291214
C	 1.2237101405	 3.1890982279	-1.0086426347	 0.047355
O	 1.3756242812	 3.3394146064	 0.390984707	-0.226467
C	 1.2586061537	 2.0045552083	-0.1148410761	-0.073443
H	-2.1901201516	 1.3327130965	 0.0144799952	 0.115649
H	-2.2554373076	 3.3454272497	-1.5262641919	 0.10943
H	-0.0800972563	 3.371846779	-2.6882880894	 0.124002
H	-0.0852818177	 4.7684826725	-1.6197605778	 0.137756
H	 2.1249192348	 3.4057132375	-1.5838196464	 0.10943
H	 2.1555061327	 1.3925224825	-0.0426205855	 0.115649
