23
gdb 53580	4.30784	0.63677	0.60691	0.1178	96.18	-0.2372	0.064	0.3013	1971.6197	0.202774	-351.13095	-351.119717	-351.118773	-351.168926	40.057	
C	-0.0469786713	 1.4543265851	-0.3710866414	-0.496174
C	-0.0205346891	 0.0293335215	-0.0719811345	 0.081697
C	 0.0089422788	-1.1491066912	 0.1736419085	 0.057996
C	 0.014341445	-2.5796287397	 0.4742726987	-0.392912
C	-1.3547276127	-3.2219842015	 0.2840976954	-0.010108
C	-1.7948558346	-3.7437140462	-1.0630757549	-0.31807
C	-1.5612709048	-4.7093315744	 0.0798419695	 0.327971
C	-0.3756642482	-5.654217988	 0.0041943895	-0.452005
C	-2.7825677541	-5.3251989521	 0.739105728	-0.447124
H	 0.6956646802	 1.7168956562	-1.132968304	 0.144312
H	-1.0282460315	 1.7644804711	-0.7476837519	 0.144912
H	 0.1686086686	 2.0548622436	 0.5198627136	 0.143958
H	 0.7574855858	-3.0784015589	-0.1588029258	 0.121336
H	 0.3522794361	-2.7322255441	 1.5088939743	 0.123215
H	-2.1279799982	-2.7299763359	 0.8686321351	 0.085459
H	-2.8121472363	-3.5531203401	-1.3893966161	 0.104509
H	-1.0639991678	-3.7272866205	-1.8663359703	 0.105738
H	 0.4788690566	-5.2153591246	-0.5168147635	 0.113379
H	-0.0404092694	-5.9543920687	 1.0045045372	 0.112777
H	-0.6510680844	-6.5677576087	-0.5358930617	 0.113052
H	-3.1163755139	-6.2166327045	 0.1942971417	 0.112168
H	-2.5651175399	-5.6302060811	 1.7699509382	 0.112013
H	-3.619748825	-4.6209127775	 0.7694916242	 0.111899
