21
gdb 48410	3.10645	0.96444	0.87282	2.7143	83.22	-0.2481	-0.0215	0.2266	1421.2055	0.181359	-387.077654	-387.068337	-387.067393	-387.112483	34.678	
O	-0.0841749365	 0.1663162046	 0.8861243844	-0.27505
C	 0.1775215781	 0.8107567573	-0.1025288058	 0.09574
C	 1.2332619559	 1.8581529385	-0.1831858319	 0.274677
C	 1.3020319537	 2.6450739516	-1.4824513374	-0.340642
C	 0.1232329701	 3.5755348406	-1.7023850311	 0.041275
C	 0.1573922764	 5.0005957249	-1.209061058	-0.252469
C	 0.2237299995	 4.7097327207	-2.6889984669	-0.277316
C	 1.6098505092	 2.5117968948	 1.1383364208	-0.280117
C	 2.5255885874	 1.4934705366	 0.5528052592	-0.30008
H	-0.3711896177	 0.6316431735	-1.0559100593	 0.069687
H	 2.2294318751	 3.2298483701	-1.5024559487	 0.09524
H	 1.3726473469	 1.9395678431	-2.3228756646	 0.104206
H	-0.8476093368	 3.0880241613	-1.650002702	 0.085988
H	-0.7519032599	 5.43313151	-0.8069524643	 0.11428
H	 1.0635358884	 5.3501199204	-0.7248672546	 0.108546
H	 1.1743968922	 4.8596201289	-3.191094819	 0.110162
H	-0.6403959992	 4.9422439725	-3.301284454	 0.11344
H	 1.8981016381	 3.5559307677	 1.1004683067	 0.119081
H	 1.0169222105	 2.2182796993	 1.9969662785	 0.138545
H	 2.5530684247	 0.5133508924	 1.0148863786	 0.137043
H	 3.4525289641	 1.8206528412	 0.0942838194	 0.117765
