18
gdb 62904	3.04266	1.46243	1.12135	0.9682	79.64	-0.2359	0.0432	0.2791	1101.7476	0.145766	-401.834163	-401.825571	-401.824627	-401.866721	33.88	
C	 0.0358923789	 1.6773082184	-0.0002430356	-0.474224
C	-0.0273077755	 0.1580365983	-0.001734531	 0.473142
O	-1.3309962263	-0.2888818969	-0.2513515953	-0.463218
C	 1.1715441924	-0.6369316635	-0.6443837423	-0.126334
N	 1.9877092614	-0.1381034481	 0.5320019717	-0.333458
C	 0.6857733415	-0.6364693204	 1.1291131433	-0.096794
C	 0.7691409874	-1.9023600496	 0.194225773	-0.160468
C	-0.32586295	-2.7956390587	-0.1210289322	 0.308867
C	-1.142792416	-3.6433647545	-0.3681767985	-0.449328
H	 1.0371535434	 2.0370675614	 0.2303121773	 0.152689
H	-0.2547917889	 2.0630662598	-0.9861725723	 0.102106
H	-0.6744462667	 2.0743290159	 0.7317053321	 0.123433
H	-1.6596396044	 0.1581288279	-1.0380019362	 0.281149
H	 1.5527275395	-0.6069347501	-1.6672034929	 0.081552
H	 2.7251769649	-0.8179969958	 0.7350347567	 0.212006
H	 0.4897605559	-0.6107012676	 2.2023798704	 0.087401
H	 1.6534669694	-2.5028259547	 0.4387604502	 0.094831
H	-1.899445367	-4.3545970618	-0.5887535386	 0.18665
