24
gdb 78217	2.20273	1.49658	1.21873	1.0771	89.4	-0.222	0.0777	0.2997	1207.5222	0.215577	-368.369473	-368.359474	-368.35853	-368.403216	38.95	
C	 0.2518635242	 1.5182866187	 1.3042454159	-0.416828
C	 0.2017934515	 0.0485153825	 0.902004027	-0.049656
C	 0.97322286	-0.3083688481	-0.3933186269	-0.059605
C	 1.7421255969	-1.3930258031	 0.3248954426	-0.079865
N	 0.8593204339	-1.6919244084	-0.7749909767	-0.086109
C	-0.3694274305	-2.4669774746	-0.7322195227	-0.316111
C	 1.0982581847	-0.9939841763	 1.6849811755	 0.292629
C	 2.1794148382	-0.3386231256	 2.5531501745	-0.427947
C	 0.3812301051	-2.0700147802	 2.5037410031	-0.456025
H	 1.2670385588	 1.9247778538	 1.2795599131	 0.117475
H	-0.3546832283	 2.1151178028	 0.6139035009	 0.113907
H	-0.1475789156	 1.674625766	 2.3118356578	 0.114833
H	-0.8503873614	-0.2575107028	 0.8660545967	 0.067138
H	 1.3143680548	 0.4156344483	-1.1284182466	 0.083824
H	 2.786010795	-1.6809808882	 0.2230916345	 0.08135
H	-1.1211802028	-2.124865163	-0.0091058079	 0.108273
H	-0.8285355127	-2.434242938	-1.726194847	 0.118808
H	-0.1274634592	-3.5104141648	-0.5085701376	 0.122406
H	 2.779339457	 0.3841139315	 1.9927126753	 0.115215
H	 1.7445449	 0.1757906762	 3.4164127538	 0.111965
H	 2.8644939356	-1.1043770003	 2.9349946381	 0.110229
H	 1.0842321118	-2.8496156326	 2.8198410587	 0.111795
H	-0.0538377738	-1.6360785784	 3.4124560659	 0.109119
H	-0.4251517333	-2.5560186452	 1.9521679422	 0.113178
