18
gdb 126722	3.25525	1.1082	0.89198	1.8897	76.82	-0.1844	0.0332	0.2176	1326.2423	0.148356	-435.284999	-435.275577	-435.274633	-435.319763	34.14	
C	-0.0928562367	 1.5136470256	-0.2232171207	-0.370448
C	-0.0692326008	 0.0355123654	 0.1733979944	-0.137447
N	-1.3707339905	-0.5953175475	 0.0943738937	 0.043223
C	-1.8600595924	-1.3909848082	-0.8961249536	-0.084889
C	-3.1889227091	-1.642634203	-0.6077961187	 0.073217
N	-4.1125948253	-2.4695817948	-1.2813436507	-0.622071
C	-3.3970982294	-0.938186017	 0.5985258281	 0.388875
O	-4.5717545225	-0.9174418353	 1.2748768347	-0.444593
N	-2.3129759117	-0.3085099872	 1.0250505904	-0.380947
H	 0.9054738662	 1.9504018453	-0.1196419081	 0.115376
H	-0.4174814624	 1.6351432939	-1.2610437011	 0.121514
H	-0.7828580281	 2.0643669158	 0.4206350297	 0.142998
H	 0.6042695756	-0.5314752255	-0.4764451912	 0.115177
H	 0.2917440168	-0.0745172397	 1.2008274484	 0.126444
H	-1.2394886715	-1.7197364978	-1.7148521176	 0.121315
H	-4.2144399961	-2.2202450566	-2.2584360623	 0.240213
H	-5.0240561786	-2.402833003	-0.8441810809	 0.249891
H	-4.4337066735	-0.3875065704	 2.0690357156	 0.302153
