21
gdb 37559	3.56624	1.59101	1.36378	0.3012	86.44	-0.2563	0.0887	0.3449	1019.4131	0.185532	-349.876019	-349.869141	-349.868196	-349.907169	29.119	
C	-0.0373135447	 1.5409994902	-0.1807058884	-0.187648
C	 1.4234400736	 2.1023855101	-0.0114460274	-0.26104
C	 2.2871433421	 0.8475483474	-0.1709052121	-0.036862
C	 3.2434129446	 0.2123737254	 0.8692155969	-0.075268
C	 2.1179286629	 0.0618250671	 1.9390383023	-0.081115
C	 2.4083505721	-1.4339700638	 2.1618159206	-0.271031
C	 2.6143466099	-1.2313982931	 0.6490103078	-0.146738
C	 1.4349310304	-0.2009587813	 0.5324286396	 0.415479
C	-0.0244072596	 0.0064369047	 0.1939554697	-0.380048
H	-0.7498071358	 2.0997885071	 0.4322456204	 0.09886
H	-0.3611863325	 1.6589792289	-1.2192831427	 0.102129
H	 1.6366236235	 2.8941372339	-0.7345490451	 0.089505
H	 1.542664343	 2.5360054195	 0.9865924373	 0.099787
H	 2.5290206054	 0.6299707032	-1.218956821	 0.055684
H	 4.2989251733	 0.4084993577	 1.0709573594	 0.063898
H	 1.8193754527	 0.8114690995	 2.6730374732	 0.067472
H	 3.3000405028	-1.6746633747	 2.7501320956	 0.087919
H	 1.5674592891	-2.0660603423	 2.4652573562	 0.089739
H	 2.9203473453	-1.9514348075	-0.1124778419	 0.066942
H	-0.7036956536	-0.2246742289	 1.0197806903	 0.100222
H	-0.3349697245	-0.5999630831	-0.6632193406	 0.102112
