21
gdb 119228	2.05938	1.10884	0.8241	2.5237	80.36	-0.249	-0.0229	0.2261	1475.5066	0.17937	-424.227336	-424.216856	-424.215912	-424.263234	37.529	
C	 0.3646576946	 1.7145229206	-0.2060387603	-0.379224
C	 0.4260883616	 0.1855049925	-0.1689642938	-0.163893
C	 0.442288455	-0.3737734122	 1.2611597279	-0.289686
C	 0.4889020416	-1.8885223101	 1.3209115916	 0.222247
C	 1.7795100806	-2.6351120201	 0.9790370031	-0.355329
C	 1.3296824734	-2.5875994489	 2.3972418261	 0.071733
O	 1.9726327292	-1.7633957114	 3.3182116072	-0.418436
C	-0.7699582227	-2.6131927068	 0.9996768627	 0.094881
O	-0.8597200859	-3.8128245027	 0.8734922704	-0.276277
H	 1.2267970075	 2.1567687436	 0.3055543904	 0.115465
H	 0.3584839578	 2.0889128635	-1.2342775381	 0.113152
H	-0.5384554711	 2.0872942633	 0.2898054637	 0.115658
H	-0.4302970224	-0.2290074531	-0.7173883871	 0.097017
H	 1.3197709189	-0.1629379267	-0.7017365189	 0.098572
H	 1.2961024052	 0.0297275443	 1.8131800611	 0.116669
H	-0.45275462	-0.0263909724	 1.7963055004	 0.098866
H	 1.6690598578	-3.5685154194	 0.4381980711	 0.138981
H	 2.6256429046	-2.0139681864	 0.7040195582	 0.117916
H	 0.8825706375	-3.4904920377	 2.8102601987	 0.113911
H	 2.8692994724	-2.0929091441	 3.4384105648	 0.294733
H	-1.6681960955	-1.962076286	 0.9031226407	 0.073044
