17
gdb 108813	3.25478	1.04585	0.83083	1.7444	70.85	-0.253	-0.0309	0.2221	1336.4168	0.134504	-458.980222	-458.971339	-458.970395	-459.01423	32.581	
O	 0.1389674908	 1.374424687	-0.0926270304	-0.403025
C	 0.0082286773	-0.0172985762	 0.1099089518	-0.156495
C	-1.4099514998	-0.5063173038	 0.0970232292	 0.253462
C	-2.5103138965	 0.2535707314	 0.0461213816	-0.196643
C	-3.7752830475	-0.5589761676	 0.091227047	 0.021264
O	-4.7503110101	-0.1876177226	-0.8557254664	-0.441306
C	-3.2346673008	-1.9761118449	-0.1721500028	 0.361632
O	-3.8968215285	-2.859556347	-0.6511016044	-0.312453
C	-1.7367103456	-1.9849793264	 0.1341953862	-0.426116
H	-0.2225244671	 1.5769242474	-0.9622201566	 0.288457
H	 0.595209549	-0.5953355907	-0.6256971058	 0.100534
H	 0.4657022066	-0.2244999479	 1.0867419983	 0.129279
H	-2.513830318	 1.3358807027	 0.0294235881	 0.115248
H	-4.2070841159	-0.5396438736	 1.1110063449	 0.094987
H	-5.1761521652	-1.0111144651	-1.1327927094	 0.293257
H	-1.1866543902	-2.595500621	-0.5910405668	 0.136617
H	-1.5585337985	-2.4341196518	 1.1218934855	 0.141302
