19
gdb 41990	3.21218	1.49819	1.12093	2.2668	77.6	-0.2445	0.0088	0.2533	1098.762	0.161818	-423.027292	-423.019684	-423.01874	-423.060255	29.048	
C	 0.0009598117	 1.4298183421	 0.1713302713	-0.063884
C	 1.4597445548	 1.9485126451	-0.0167446077	-0.356477
C	 2.2283998679	 0.6588186892	-0.1275524274	 0.340333
C	 3.4459563521	 0.3263007259	 0.2833547629	-0.23128
C	 3.816843272	-1.1363959703	 0.3621010271	-0.125854
O	 2.681117837	-1.9271210234	 0.6758477263	-0.235099
C	 1.6615461	-1.8174859086	-0.2948399213	-0.115152
C	 1.2264794916	-0.3707675244	-0.5778323772	 0.038378
O	 0.0434924576	 0.0004330668	 0.1279100584	-0.270716
H	-0.4270505901	 1.7182548832	 1.1354397345	 0.113147
H	-0.656188678	 1.811906437	-0.6224115721	 0.09432
H	 1.5398423856	 2.5510496503	-0.9288385288	 0.11523
H	 1.7992514759	 2.5667983824	 0.8174095316	 0.119396
H	 4.1473130013	 1.0629933791	 0.6653673272	 0.090828
H	 4.289810859	-1.4968534355	-0.5697749884	 0.093274
H	 4.5318600096	-1.302265017	 1.1734722574	 0.116501
H	 1.9980514144	-2.2715945062	-1.2419966507	 0.084147
H	 0.8058083237	-2.3857960688	 0.0776039376	 0.126177
H	 1.044552754	-0.2726201869	-1.6642209809	 0.066729
