18
gdb 108765	2.52182	1.31355	0.91268	7.2554	77.51	-0.2235	-0.0052	0.2183	1276.0899	0.14718	-439.146466	-439.137129	-439.136185	-439.18082	33.409	
C	-0.0512333944	 1.4262981433	 0.1088810093	-0.327812
N	-0.0088784012	-0.0125614229	-0.055147936	-0.373309
C	 0.629644887	-0.6023558458	-1.0890942297	 0.398651
C	 1.2286496275	-0.0591247369	-2.1724295641	-0.436741
C	 1.7302109803	-1.1350725089	-3.0203873506	 0.451422
O	 2.31635946	-1.1069373567	-4.0668529159	-0.367171
O	 1.4180153889	-2.3477334641	-2.4062698331	-0.251109
C	 0.7331920187	-2.1131591164	-1.1825796682	 0.029675
C	 1.492932719	-2.7658957646	-0.0283968091	-0.398429
H	 0.950940115	 1.8551561972	 0.2423022272	 0.136764
H	-0.508970283	 1.8952868533	-0.7691697391	 0.146926
H	-0.6568194834	 1.6714672475	 0.9830280031	 0.134919
H	-0.2699824043	-0.5836738555	 0.7299385906	 0.251728
H	 1.3496481929	 0.9809095796	-2.4287572002	 0.111141
H	-0.271844428	-2.5521820514	-1.2611691479	 0.106138
H	 2.4894655864	-2.3261357332	 0.0659473569	 0.137487
H	 0.9604771949	-2.6395576778	 0.9207297523	 0.106182
H	 1.5991574837	-3.8369934167	-0.2158215557	 0.143539
