20
gdb 57505	3.01343	0.98909	0.89219	3.5794	83.99	-0.2553	-0.0233	0.232	1402.5348	0.16727	-403.154797	-403.144187	-403.143243	-403.189998	39.304	
C	-0.0853851448	 1.5657666313	 0.086809907	-0.40114
C	 0.0169376879	 0.0301397346	 0.0502041372	 0.282615
C	 0.6851349839	-0.4971302545	 1.3329548648	-0.40116
C	-1.3787759209	-0.5879791796	-0.1101307331	-0.433771
N	 0.7961728839	-0.3936036371	-1.1330857304	-0.348691
C	 2.0911201229	-0.0650187867	-1.3892195865	 0.292253
O	 2.7947511361	 0.6299214213	-0.6743470001	-0.377276
C	 2.5884653981	-0.6354326934	-2.640049859	 0.213931
C	 3.0299514533	-1.0887552242	-3.6625768077	-0.395242
H	 0.9073705348	 2.0120694157	 0.1585541945	 0.154958
H	-0.5736073127	 1.9414977611	-0.8179044614	 0.108714
H	-0.6771924524	 1.8807822464	 0.9519993521	 0.109301
H	 0.1001794505	-0.1997298412	 2.2089703059	 0.109303
H	 0.7451837817	-1.5898948864	 1.3154530774	 0.108689
H	 1.6939500974	-0.0937420515	 1.4303485168	 0.154966
H	-1.8670802383	-0.2310578912	-1.0236631849	 0.117623
H	-1.3253227608	-1.681665549	-0.1473467349	 0.117593
H	-2.0113036363	-0.3121380474	 0.7375794471	 0.128022
H	 0.3354144635	-0.9775946893	-1.8130214994	 0.251382
H	 3.4343601021	-1.4822182189	-4.5631408652	 0.207933
