17
gdb 131339	5.65609	0.92803	0.85102	2.6707	76.25	-0.2126	0.026	0.2385	1342.6501	0.137889	-418.01875	-418.010722	-418.009778	-418.051791	30.629	
O	 0.0535632805	 1.3362125225	 0.0311356892	-0.431491
C	 0.0603782511	-0.0129505029	 0.0714464335	 0.43827
N	 0.0979234873	-0.7405009179	-1.032951835	-0.340271
N	 0.0917508248	-2.0223129875	-0.5681994308	-0.299826
C	 0.0513319011	-2.1025934681	 0.7865355816	 0.442338
C	 0.0297123575	-0.7971325965	 1.2449175988	-0.43379
C	 0.0362313322	-3.3690097799	 1.5394955272	-0.083193
C	-0.6923229681	-4.5943654483	 1.0211758162	-0.271618
C	 0.808876693	-4.5855054013	 1.0661584331	-0.271606
H	 0.0801244565	 1.5885348079	-0.9003730959	 0.300815
H	 0.1156397784	-2.7725118469	-1.2352559159	 0.267487
H	-0.0029776892	-0.4610566116	 2.2674668128	 0.106011
H	 0.0031629671	-3.2155263211	 2.612108788	 0.099278
H	-1.2301357461	-5.2033076113	 1.7390161805	 0.123582
H	-1.1822289935	-4.5139881544	 0.0564765578	 0.11521
H	 1.3546654858	-4.4989708396	 0.1324881393	 0.115224
H	 1.3099137115	-5.1883513031	 1.8150819995	 0.123581
