19
gdb 53653	3.77853	0.61593	0.55321	1.1828	88.66	-0.2447	0.0239	0.2686	2021.5202	0.154199	-385.816362	-385.805125	-385.80418	-385.855172	38.149	
C	-0.0173748938	 1.4788149004	-0.0733020094	-0.498881
C	-0.0227388039	 0.0270945326	 0.0254083499	 0.134114
C	-0.0372718188	-1.1733232348	 0.1038443218	 0.010386
C	-0.0259677411	-2.6248486364	 0.2075925658	-0.21527
O	-1.3376371312	-3.130030216	 0.0008346404	-0.255267
C	-1.4061301583	-4.5543184577	-0.0041962514	-0.025051
C	-1.4433516976	-5.1338995704	 1.4194279811	-0.397001
C	-2.5966586724	-4.9409349756	-0.7612872191	 0.32062
C	-3.5746644198	-5.2923166226	-1.3632952197	-0.436462
H	 0.592578355	 1.8203594535	-0.9167294519	 0.14886
H	-1.0326100456	 1.862628885	-0.221794562	 0.154895
H	 0.3815168205	 1.9403061854	 0.8366531584	 0.148335
H	 0.6635782768	-3.0510609632	-0.5416218461	 0.115288
H	 0.3616654931	-2.9191472551	 1.196258103	 0.115999
H	-0.5211181916	-4.9546574847	-0.5280378489	 0.094438
H	-0.5337726935	-4.875481043	 1.9686901564	 0.118808
H	-2.3070493812	-4.7359763345	 1.9572600632	 0.139429
H	-1.5225609408	-6.223798697	 1.382265518	 0.128849
H	-4.4375825257	-5.591179306	-1.9053724095	 0.19791
