21
gdb 72718	2.52088	2.01512	1.58967	1.5913	82.89	-0.2176	0.0839	0.3015	955.9422	0.18377	-387.000119	-386.99279	-386.991846	-387.03105	31.605	
C	-0.1083734609	 1.5389966948	-0.1435464042	-0.464748
C	-0.0370084531	 0.0194536614	-0.0126018834	 0.337549
C	-1.3011536817	-0.4936512676	 0.7983988141	-0.308678
C	-0.3617026275	-0.456984897	 2.0888659467	-0.321185
C	 0.7926249391	-0.6269146535	 1.0788715096	 0.405756
C	 2.0878346304	-0.2336509215	 0.3289104511	-0.347112
C	 1.1221068459	-0.6053419809	-0.9133600864	-0.153537
C	 0.9577717743	-2.0903025763	-0.6663862865	-0.091484
O	 0.725247637	-2.0570823963	 0.7504068926	-0.312144
H	 0.830574145	 1.9947278191	-0.4666206366	 0.114403
H	-0.8629676787	 1.7914539097	-0.8986272182	 0.119203
H	-0.4178748482	 2.0252348743	 0.7882283685	 0.115531
H	-2.1540109597	 0.1894356196	 0.7967678599	 0.091196
H	-1.6368005188	-1.5035510646	 0.5743597536	 0.124098
H	-0.38306455	 0.5213454487	 2.572000089	 0.107956
H	-0.4820391842	-1.2441418087	 2.8348752092	 0.111245
H	 2.3464377256	 0.8220151345	 0.3696986351	 0.11089
H	 2.9747544047	-0.857060288	 0.4677493455	 0.101953
H	 1.3305394365	-0.2579935786	-1.9265906009	 0.069535
H	 0.0986652921	-2.5307141655	-1.1886150953	 0.093872
H	 1.8531928721	-2.6811309936	-0.8967207135	 0.0957
