18
gdb 103032	2.37385	1.78393	1.20921	3.5413	76.62	-0.2798	0.0226	0.3024	1056.0669	0.147715	-401.897382	-401.889188	-401.888243	-401.930141	31.059	
C	-0.1608727619	 1.364643066	 0.0504676805	-0.270412
O	 0.1936240356	-0.0076993327	-0.0558237926	-0.296861
C	 0.7288672371	-0.5694502652	 1.1058594976	 0.356019
C	 2.0241944986	 0.0613092042	 1.4190015684	 0.236542
N	 3.0274174073	 0.5941942228	 1.6342166351	-0.357239
C	-0.2168162255	-0.8950943627	 2.3227048343	-0.107816
C	-0.8845963553	-1.9588884072	 1.3988483632	-0.247986
C	 0.6500996799	-2.1239781887	 1.1749417915	-0.095231
C	 0.8089625062	-1.9958806288	 2.7178204539	-0.252249
H	 0.7098052782	 1.9884253737	 0.2897574722	 0.139604
H	-0.555223761	 1.6581277053	-0.9237844478	 0.138415
H	-0.9341450778	 1.5218437532	 0.8144781393	 0.116002
H	-0.7001276575	-0.1728099528	 2.9802440107	 0.089109
H	-1.3750907447	-2.7856311802	 1.9159860025	 0.101091
H	-1.4690836351	-1.5944926752	 0.556665246	 0.120193
H	 1.1628249744	-2.8095337949	 0.5011274106	 0.094274
H	 1.7777189921	-1.6722984665	 3.1022708814	 0.129655
H	 0.4027665694	-2.8246879705	 3.2990871332	 0.106889
