18
gdb 97690	2.6792	0.83431	0.69049	2.5436	78.59	-0.2416	0.0217	0.2632	1633.8085	0.14632	-439.011671	-439.001584	-439.00064	-439.048726	35.214	
O	 0.2058090929	 1.2793288639	 0.4585559848	-0.400639
C	 0.0206351837	 0.1088605157	-0.3229924863	-0.190101
C	-1.3465263355	-0.4090476424	-0.2731618809	 0.090264
C	-2.4747990568	-0.8215236589	-0.1663835368	 0.018989
C	-3.8323099458	-1.2814840465	-0.0347441602	 0.087176
C	-4.8348453403	-0.2819165954	 0.5280365898	-0.109757
O	-4.6107455418	-0.0470736962	 1.9012294703	-0.414889
C	-4.3052613125	-2.3849744811	-0.9233569004	-0.26671
N	-4.0690010236	-2.6529549326	 0.5010707158	-0.357978
H	-0.1773081312	 1.1114147833	 1.3261090771	 0.291697
H	 0.2846750605	 0.3898875018	-1.3488995232	 0.140156
H	 0.7193618578	-0.6901287843	-0.0248401302	 0.117223
H	-4.7364104141	 0.6823216916	 0.0214204281	 0.118756
H	-5.8483615056	-0.6685403035	 0.3429950674	 0.090901
H	-4.6517099347	-0.911850875	 2.3274983528	 0.291221
H	-5.3479683494	-2.4057788296	-1.2284285737	 0.125932
H	-3.6043431458	-2.7777031916	-1.6534241974	 0.125855
H	-3.1757767978	-3.1252623594	 0.615981873	 0.241905
