18
gdb 92267	2.31536	1.71753	1.50539	2.6732	71.23	-0.2432	0.0205	0.2637	984.7815	0.147686	-439.085967	-439.077806	-439.076862	-439.118612	31.287	
C	 0.0328326407	 1.5484273489	-0.0114158591	-0.463033
C	 0.0240846193	 0.0302863829	 0.0316085646	 0.281312
N	-1.3586030032	-0.4829088161	 0.0277703448	-0.280749
C	-1.4752864152	-1.2086232661	 1.0601455233	 0.105163
O	-0.4123119984	-1.4113096572	 1.8839866428	-0.228249
C	 0.6844948271	-0.7549543133	 1.2159583184	 0.039536
C	 1.4407624373	-1.6516816558	 0.2100352431	-0.293353
C	 0.9768034735	-0.7159606996	-0.9528213559	 0.092705
O	 0.335977431	-1.2888291862	-2.0608021152	-0.418169
H	 1.0542601811	 1.9391250286	 0.0458401014	 0.107392
H	-0.4213792658	 1.8978962345	-0.9435081329	 0.139097
H	-0.5431591515	 1.9627602597	 0.8217726283	 0.122605
H	-2.3857061911	-1.7043068127	 1.3791123777	 0.139055
H	 1.2748477174	-0.2227714042	 1.9620589626	 0.087321
H	 2.5182020602	-1.7520890083	 0.3592846368	 0.101612
H	 0.9891078019	-2.6440151661	 0.1417767839	 0.118697
H	 1.7881081357	-0.0423310252	-1.2668582798	 0.063779
H	 1.00771319	-1.685336534	-2.6246134451	 0.28528
