23
gdb 63888	2.65426	1.65523	1.48278	0.1516	88.4	-0.2305	0.0225	0.253	1044.6448	0.208108	-351.172726	-351.164742	-351.163798	-351.204282	33.962	
C	-0.0856382074	 1.5487880721	 0.0011435349	-0.443863
C	-0.0012598537	 0.0155912386	-0.0044625716	 0.354126
C	-1.4339691608	-0.5435790848	-0.044051504	-0.441898
C	 0.8718041827	-0.5331365435	-1.1898583673	-0.257732
C	 2.0138365849	-1.3349759958	-0.479366108	-0.050852
C	 1.2335749584	-1.9435468504	 0.7088764952	-0.220625
C	 0.7892709441	-0.5596505466	 1.242719133	-0.070717
C	 2.1411456046	 0.1397341928	 1.2908419842	-0.088361
C	 2.8665363713	-0.316790949	 0.2651678721	-0.078436
H	 0.9050482374	 2.0097771191	-0.0038967626	 0.114121
H	-0.6259128829	 1.9079011176	-0.8822648646	 0.106361
H	-0.6247377303	 1.9112146304	 0.8848027953	 0.10319
H	-1.9565563274	-0.2016769259	-0.9444969259	 0.109943
H	-1.4584467879	-1.6367246421	-0.046309539	 0.110489
H	-2.0104582576	-0.1979726906	 0.8218930162	 0.107508
H	 0.285797299	-1.1953401963	-1.8359013758	 0.089578
H	 1.2692755412	 0.268710627	-1.8178135419	 0.092544
H	 2.5502020253	-2.0242899196	-1.1329282025	 0.054289
H	 0.4104002809	-2.597144764	 0.4069854957	 0.087778
H	 1.8801786189	-2.4755008861	 1.4109363487	 0.092871
H	 0.2083027986	-0.541523083	 2.1669599948	 0.048972
H	 2.4022032696	 0.9341302445	 1.9786743439	 0.091372
H	 3.840351841	 0.0280811454	-0.0601027807	 0.089342
