17
gdb 57856	2.29495	1.26361	0.94138	1.6919	70.57	-0.2697	-0.0485	0.2212	1256.5699	0.131616	-458.934081	-458.923989	-458.923045	-458.969413	36.354	
C	-0.4365574889	 1.4597020665	-0.0425325564	-0.400525
C	 0.1121051418	 0.0300458531	-0.104327944	 0.058615
O	 1.0258198493	-0.0839191877	-1.1617840617	-0.435264
C	 0.7467702204	-0.4580636431	 1.1896839303	 0.347047
O	 1.8544345479	-0.9513092975	 1.1835704325	-0.340195
C	-0.0327566797	-0.4176122355	 2.5245021284	-0.123434
O	 0.4182931481	-1.4501775413	 3.3645239211	-0.402462
C	 0.1356665672	 0.9154710954	 3.1218948591	 0.327404
C	 0.3052294857	 1.9950893129	 3.6220642933	-0.468543
H	 0.3654536023	 2.1671976356	 0.180172478	 0.138272
H	-0.8582702459	 1.7075778709	-1.0195780967	 0.137513
H	-1.2187384514	 1.5648173591	 0.7131571092	 0.126785
H	-0.7433286422	-0.6573828606	-0.261409256	 0.100277
H	 1.7891680118	-0.5661501699	-0.8103464914	 0.296274
H	-1.097587944	-0.5921717851	 2.3243792485	 0.128785
H	 1.3562721559	-1.5691101201	 3.1511814017	 0.298294
H	 0.4455161716	 2.9469985272	 4.0727978341	 0.211158
