14
gdb 17162	4.31211	1.90315	1.54935	2.218	62.26	-0.2378	-0.0365	0.2013	799.5056	0.106316	-382.446498	-382.440143	-382.439199	-382.477252	23.994	
O	-0.0849757734	-0.0123999135	 0.0630217719	-0.249655
C	 0.044034633	 1.1860823569	-0.0046989181	 0.019771
C	 1.3526898513	 1.8844112419	 0.0033503401	 0.231442
C	 2.7910165357	 1.3438454562	 0.0917617649	-0.326161
C	 3.0042910458	 2.8726036546	 0.0069645533	-0.097831
C	 1.7815299342	 3.0716847731	-0.9415140588	 0.051904
O	 1.1557173566	 4.1130983039	-0.1398343011	-0.321131
C	 1.7132542581	 3.1793070443	 0.8276716283	 0.051898
H	-0.8343489211	 1.8642956295	-0.0796744222	 0.09066
H	 3.0695588208	 0.8618811806	 1.0313985585	 0.115637
H	 3.1386403317	 0.7529775293	-0.7584275887	 0.115639
H	 3.9245694462	 3.4554658848	 0.0070176179	 0.095461
H	 1.7262956757	 3.1342696126	-2.028014287	 0.111183
H	 1.5750581054	 3.3726969056	 1.8911341311	 0.11118
