17
gdb 125602	3.28145	1.26297	0.92239	1.3764	86.64	-0.224	-0.0135	0.2106	1242.1926	0.135168	-380.88022	-380.870963	-380.870019	-380.914165	33.63	
C	 0.0092455941	 1.4787280499	-0.0944691834	-0.500812
C	 0.0068922652	-0.0115273524	 0.0295325374	 0.288524
N	-0.0248232903	-0.7863889447	-1.0567358775	-0.271106
N	-0.0167479025	-2.0409997816	-0.5880621207	-0.302527
C	 0.019270265	-2.1014207495	 0.7768836306	 0.191088
C	 0.0336415743	-3.3198489337	 1.484785746	 0.280938
C	 0.045560066	-4.3632710299	 2.0873742394	-0.45134
C	 0.0355908561	-0.7826371803	 1.2182314566	 0.023814
C	 0.07492526	-0.3014378599	 2.6329421197	-0.524231
H	 0.9072020129	 1.9178534021	 0.3553411532	 0.128013
H	-0.0230085582	 1.7643544899	-1.1477587177	 0.142184
H	-0.8544884101	 1.925206326	 0.4115184638	 0.127902
H	-0.0370169312	-2.8163189943	-1.228562412	 0.275394
H	 0.0556745648	-5.2810472196	 2.6214292358	 0.195913
H	 0.9642869091	 0.3095177389	 2.8275758731	 0.130327
H	-0.796633518	 0.3188084767	 2.8733160995	 0.130302
H	 0.0886066028	-1.1434422177	 3.3295635963	 0.135618
