18
gdb 69383	3.48627	1.172	0.99408	4.1238	80.4	-0.242	-0.0633	0.1788	1217.6326	0.147646	-401.954213	-401.946009	-401.945065	-401.986947	31.213	
C	 0.0193548509	 1.515148966	-0.0120522134	-0.465625
C	-0.0382895958	 0.0121200191	 0.0837042194	 0.328287
C	-1.365887615	-0.7016523977	-0.2128918499	-0.337713
C	-1.3123009848	-1.9478062524	 0.633957064	-0.170863
C	-0.2089816605	-1.9805553612	 1.4035311314	 0.251589
C	 0.090088613	-3.0251513126	 2.3877814002	 0.068676
O	 1.0648769987	-3.0285188052	 3.1057746673	-0.267392
C	 0.6731621978	-0.807633499	 1.1211138876	-0.185786
N	 1.1918406129	-0.7089623759	-0.2629102683	-0.360897
H	 1.0141837138	 1.8745941209	 0.2602750878	 0.136148
H	-0.1890530934	 1.8496915256	-1.0350016875	 0.120582
H	-0.7172034583	 1.9811238104	 0.6514994424	 0.116184
H	-2.2253945463	-0.0787286536	 0.0712370976	 0.126465
H	-1.4948507185	-0.9232802245	-1.2809641763	 0.124821
H	-2.0740540821	-2.7204926323	 0.6070764718	 0.116022
H	-0.6704953364	-3.8362710844	 2.4423409853	 0.068788
H	 1.3170051384	-0.4076996299	 1.8956975831	 0.108229
H	 0.9928654556	-1.5696510433	-0.7701207227	 0.222485
