17
gdb 13605	3.33892	1.41452	1.30391	2.5215	65.85	-0.2462	0.0192	0.2654	1032.2108	0.140985	-401.016213	-401.00737	-401.006426	-401.050018	30.903	
C	 0.1020395324	 1.4190768463	-1.085547659	-0.334884
N	 0.2593177494	-0.0060077733	-0.8792323326	-0.303931
C	 0.3539841237	-0.5618171978	 0.3565829147	 0.361195
O	 0.3573921892	 0.0559721442	 1.4072710541	-0.380897
C	 0.4470600541	-2.0709232002	 0.3526617696	-0.047521
O	 0.4269915556	-2.7467815705	-0.9107504904	-0.268154
C	 1.6320562626	-2.8066041362	-0.1329231537	 0.095087
C	 2.8697753718	-2.1581787347	-0.6925889491	-0.42779
H	-0.8648843981	 1.6517359816	-1.5455925781	 0.128947
H	 0.1538105731	 1.898293449	-0.1068475166	 0.169824
H	 0.8972465289	 1.819093271	-1.7238204743	 0.126465
H	 0.1985443127	-0.6475898727	-1.6551913002	 0.260402
H	-0.152203206	-2.5261549648	 1.1394516515	 0.119382
H	 1.7942870042	-3.7874654595	 0.3171510451	 0.102684
H	 2.659697397	-1.1597376497	-1.0797460723	 0.132811
H	 3.6324899442	-2.0762862452	 0.0885961133	 0.135196
H	 3.2820749951	-2.7690841876	-1.5022646323	 0.131184
