20
gdb 71028	3.73024	1.64228	1.34904	1.392	83.06	-0.2145	0.0874	0.3019	1005.8004	0.172729	-365.9154	-365.908307	-365.907363	-365.946328	29.748	
C	-0.0673009385	 1.4790802003	-0.0380112046	-0.519329
C	 0.0559468218	-0.0193812065	-0.0377259878	 0.301636
C	 0.6806474202	-0.9497127113	-1.1432151218	-0.403003
C	 0.2165096798	-1.9345044802	-0.0434793638	 0.324726
C	 0.0221810184	-3.2986114927	 0.5750611778	-0.37672
C	-0.6786572662	-2.7471137291	 1.8970410017	-0.155333
N	-0.7317130572	-1.2502507424	 1.7554246206	-0.167832
C	 0.5898472545	-0.9437068214	 1.0924391306	-0.060156
C	-1.035755788	-1.0775775556	 0.2864855962	-0.060161
H	 0.9159450288	 1.958026051	-0.1040266076	 0.118259
H	-0.6642446351	 1.827907154	-0.8880091359	 0.118258
H	-0.5517957558	 1.823192521	 0.8814296598	 0.134608
H	 0.1534935001	-0.9896841616	-2.1018305013	 0.096678
H	 1.7593143189	-0.8574503536	-1.3056883159	 0.096678
H	-0.6334356221	-3.9613694826	 0.00350072	 0.10212
H	 0.9529898837	-3.8307257536	 0.7900306866	 0.10212
H	-1.6948672843	-3.1343736086	 2.0121054272	 0.105088
H	-0.1124567197	-3.0040607082	 2.7966454166	 0.105089
H	 1.533662226	-0.8863439286	 1.6401856935	 0.068637
H	-2.0400767353	-1.1806469704	-0.1316281818	 0.068638
