16
gdb 133780	2.52793	1.32808	1.08756	2.3359	58.38	-0.2587	0.0716	0.3303	1117.6819	0.119537	-569.368927	-569.360199	-569.359254	-569.402914	31.574	
C	 0.2119501142	 0.9997071928	 0.2408636928	-0.248954
O	-0.1861500607	-0.0380450553	-0.642369363	-0.231297
C	-1.3859394454	-0.6280426924	-0.2877042769	 0.134959
C	-1.6568449223	-1.9936141898	-0.8222083195	-0.337001
C	-1.4363842341	-1.8105541415	 0.6666668793	-0.22495
C	-0.2050537837	-2.3739362767	 1.3091913495	 0.300425
F	 0.8314814667	-2.4757150113	 0.4695305887	-0.074425
F	 0.1968553095	-1.6141119791	 2.3505829149	-0.089003
F	-0.4433194837	-3.6016154109	 1.8047317247	-0.081353
H	 1.1413305831	 1.4119933391	-0.1567706763	 0.133405
H	-0.5439426874	 1.7979098505	 0.2832395	 0.107516
H	 0.3854207171	 0.6196899526	 1.2543900278	 0.12513
H	-2.2246419357	 0.0661384405	-0.2065354567	 0.094258
H	-2.6509649053	-2.243665826	-1.1724440219	 0.125454
H	-0.8413354853	-2.4524341671	-1.3688115152	 0.148504
H	-2.2946970669	-1.8780559854	 1.3265743419	 0.117332
