18
gdb 11589	5.85608	0.86875	0.79892	1.6402	68.96	-0.2457	-0.0109	0.2348	1421.5066	0.150926	-384.942098	-384.932931	-384.931987	-384.977762	31.333	
C	-0.3265626804	 1.4440247776	-0.1166562771	-0.473254
C	 0.0038261696	-0.0272151171	 0.0651555282	 0.375432
O	 0.2252382522	-0.5035913551	 1.1550722602	-0.290765
C	 0.0396598379	-0.8695887061	-1.2036699584	-0.293326
C	 0.264871661	-2.3604346375	-0.9433978698	-0.213291
C	 0.3152212036	-3.15300619	-2.2252898794	 0.088051
C	-0.284398966	-4.4859261375	-2.3532726526	-0.179141
O	-0.9309466447	-3.3383989721	-2.9080685332	-0.240242
H	 0.3426807891	 1.9053346058	-0.8511046544	 0.135489
H	-1.3457670363	 1.5530847036	-0.5051279993	 0.142427
H	-0.2448364884	 1.9639811477	 0.8384807514	 0.142842
H	-0.8952747059	-0.7158170655	-1.7581900691	 0.136366
H	 0.8275496805	-0.4597547562	-1.8528795719	 0.118903
H	 1.1977819606	-2.5006508747	-0.3862648438	 0.117316
H	-0.5382291608	-2.7448075652	-0.3071294041	 0.116368
H	 1.1433973616	-2.9098188329	-2.8953118435	 0.088094
H	 0.1133246269	-5.1953361663	-3.0778532149	 0.113734
H	-0.7823452705	-4.9325124286	-1.4933704881	 0.114999
