19
gdb 86020	2.86883	1.18346	1.12746	3.4102	82.3	-0.2397	-0.007	0.2327	1207.3291	0.159054	-382.092397	-382.083328	-382.082384	-382.125977	34.28	
C	 0.1009545655	 1.6461372348	-0.0157400722	-0.379138
C	 0.0092912552	 0.1189330756	 0.0537992098	-0.007435
N	 0.6924040899	-0.5140722268	-1.0921675746	-0.340462
C	 1.398027916	-1.7319965317	-0.6558113355	 0.102738
C	 2.7632682918	-1.8686703189	-1.3527009311	-0.405954
C	 1.4978309607	-1.5129801245	 0.8460932375	-0.097038
C	 0.7327362571	-0.4972525211	 1.2242869383	-0.059041
C	 0.5947204323	-2.9559810231	-0.9201291657	 0.239689
N	-0.0518696629	-3.8869333014	-1.1517913801	-0.344726
H	 1.1469865091	 1.9634316148	-0.042515747	 0.123959
H	-0.3930881824	 2.0199993779	-0.917861793	 0.117884
H	-0.3887377426	 2.1042591555	 0.8502453179	 0.112779
H	-1.0583246949	-0.1601629859	 0.1060293645	 0.087458
H	 0.0754153494	-0.68493968	-1.8760839315	 0.231464
H	 3.3533405068	-0.9743292547	-1.1416290062	 0.130573
H	 3.2992069086	-2.7539508319	-0.997578323	 0.127021
H	 2.6333085455	-1.9568736992	-2.4347733342	 0.131083
H	 2.1093845853	-2.1492534159	 1.4722737386	 0.116738
H	 0.6112628996	-0.1337083934	 2.2374589775	 0.112409
