25
gdb 101438	2.68568	0.98084	0.818	1.8272	88.49	-0.2392	0.0744	0.3135	1544.8513	0.22755	-389.484335	-389.473603	-389.472659	-389.520448	39.443	
C	-1.0892344938	 1.3677582297	-0.3791424445	-0.393285
C	-0.7470937075	-0.1247446173	-0.4350619209	-0.16786
C	 0.4304738976	-0.4832449697	-1.3652281017	 0.014865
C	 1.7498990283	 0.1359518679	-0.8784448941	-0.40385
C	 0.5554954359	-2.0029211948	-1.4838506854	-0.027089
C	-0.617449686	-2.8125797916	-2.0763708144	-0.103786
O	 0.258815115	-3.519952415	-2.9726824647	-0.29218
C	 1.3866629575	-2.6789818154	-2.6205810232	 0.126611
C	 1.8518730494	-1.8631793059	-3.8157006765	-0.40343
H	-0.2711571583	 1.9624628891	 0.0381678072	 0.119037
H	-1.3090602683	 1.7599852913	-1.3786091812	 0.114092
H	-1.9709507365	 1.5416531048	 0.2455625397	 0.113283
H	-0.5226294575	-0.4890141677	 0.5772357269	 0.092477
H	-1.6377543749	-0.6749884433	-0.7634174608	 0.098232
H	 0.2014412602	-0.0738792813	-2.3595565619	 0.069205
H	 1.9844773295	-0.2047908154	 0.1374682965	 0.112237
H	 2.5882690664	-0.1447975961	-1.522283776	 0.117074
H	 1.7040667856	 1.2282740179	-0.8604940351	 0.116732
H	 0.8545375398	-2.4069664063	-0.5103043228	 0.07344
H	-1.1488191855	-3.4891790572	-1.3970815959	 0.099878
H	-1.3589088083	-2.2109097454	-2.6226236361	 0.090572
H	 2.2183551757	-3.2937709185	-2.2516019126	 0.072881
H	 1.0602054978	-1.2105062252	-4.1946003957	 0.11959
H	 2.7246336675	-1.249701121	-3.5698594944	 0.115323
H	 2.1364688906	-2.5465726636	-4.6220706422	 0.125952
