16
gdb 81209	3.48467	1.38874	1.27783	1.8039	71.29	-0.2552	0.0047	0.26	1009.7933	0.124041	-437.747832	-437.740693	-437.739749	-437.779114	28.89	
O	 0.0204478714	 1.4681979687	 0.1086209123	-0.442335
C	 0.0671671279	 0.0702697102	 0.1158065264	 0.115009
C	-0.0324998041	-0.5838822353	 1.4944398231	-0.117884
C	-1.5948232	-0.1714642899	 1.5181970329	-0.315537
C	-1.2502519321	-0.767873715	 0.1198417236	 0.328084
O	-1.565600109	-1.5433075445	-1.083380427	-0.328347
C	-0.5287315536	-2.4381799368	-0.6778994341	 0.355444
N	 0.0065388918	-3.3653281785	-1.3222866409	-0.538261
C	-0.5196789699	-1.905453305	 0.7679674046	-0.142567
H	-0.0816422546	 1.7632366724	-0.8017633046	 0.293145
H	 0.8551682168	-0.3271722542	-0.5354823568	 0.089658
H	 0.6583829141	-0.4781277677	 2.3304390262	 0.102992
H	-2.2361531564	-0.7766267427	 2.1593082663	 0.115856
H	-1.7974589395	 0.8956014448	 1.58918963	 0.133045
H	-0.3869731161	-3.4450808727	-2.2620758044	 0.237007
H	-1.1281696567	-2.5552480537	 1.3990566124	 0.114692
