15
gdb 128670	7.16497	0.87889	0.78674	1.3236	80.2	-0.2212	-0.0191	0.2021	1387.986	0.112611	-416.790814	-416.782362	-416.781418	-416.823941	30.861	
C	 0.0298769784	 1.4297356432	-0.0675270109	-0.23597
O	 0.0068094012	 0.0058807532	-0.0058575506	-0.274601
C	 0.5909063139	-0.6332033705	-1.0307928536	 0.478765
N	 1.1623472357	 0.0003213771	-2.0514327405	-0.306128
N	 1.6161645409	-0.9965736732	-2.8405089589	-0.313598
C	 1.3462117386	-2.2377460421	-2.3452236157	 0.295777
C	 0.6701434225	-2.0368007731	-1.1510485027	-0.488262
C	 1.7339616474	-3.4169159909	-3.0149707467	 0.278176
C	 2.0710534785	-4.4153663536	-3.597519521	-0.426399
H	 1.0583231452	 1.8050481447	-0.0871298061	 0.132941
H	-0.4896752273	 1.7922814961	-0.9606095374	 0.132909
H	-0.4806006099	 1.7758949618	 0.8320562222	 0.128197
H	 2.0973326473	-0.7756058913	-3.6949429846	 0.277554
H	 0.2951111393	-2.7864186324	-0.4765097281	 0.12139
H	 2.3653142582	-5.3000988688	-4.1058226356	 0.199249
