19
gdb 106272	2.74365	1.3256	1.09285	1.7997	72.06	-0.2522	0.0684	0.3207	1168.8483	0.157299	-460.10176	-460.092733	-460.091789	-460.135212	34.543	
C	 0.1201861532	 1.3932303755	 0.1131472377	-0.512982
C	-0.0248255135	-0.0773704203	-0.1094079418	 0.345751
C	 0.5657641302	-1.0021553813	-1.1940923177	-0.295523
C	-0.0607877654	-1.8996210445	-0.1085842839	 0.324441
C	 0.1006395633	-3.3663067581	 0.1534184502	-0.187684
O	 1.4636783123	-3.7145040963	 0.3126127616	-0.41606
O	 0.5448303505	-1.0011289321	 0.9344409814	-0.42138
C	-1.308438051	-0.9680053604	-0.0795853804	 0.105152
O	-2.0877752409	-0.9473939122	 1.0682984475	-0.448107
H	 1.1713286577	 1.6659473843	 0.2451548229	 0.136202
H	-0.2763095015	 1.9425422982	-0.7465226411	 0.132252
H	-0.4376279374	 1.7003334067	 1.0032420496	 0.135669
H	 0.1001839995	-0.9949368181	-2.1833213554	 0.097993
H	 1.6541613228	-1.0290667471	-1.2340401642	 0.116676
H	-0.4979407647	-3.6376201079	 1.0378803494	 0.100262
H	-0.2841440977	-3.9399717945	-0.6966013399	 0.118647
H	 1.8392867867	-3.0693957594	 0.923692081	 0.294437
H	-1.9616992562	-0.9566805825	-0.9549231451	 0.089067
H	-1.4502723079	-0.95590719	 1.7982802581	 0.285189
