21
gdb 120330	3.14294	1.05717	1.00176	1.109	78.99	-0.2393	0.082	0.3214	1316.1236	0.183356	-424.200695	-424.191802	-424.190858	-424.235159	32.616	
C	-0.2215392149	 1.3373633474	-0.074652767	-0.223794
O	-0.2409938226	-0.0548753447	-0.270743595	-0.237033
C	 0.8889318166	-0.5183450886	-0.9925221146	-0.094177
C	 0.8024730154	-2.0220767119	-1.073626896	-0.036563
C	-0.1188071583	-2.7567287298	-2.0184129568	-0.064139
C	-0.6298526392	-2.0097250128	-3.2358379103	-0.096302
O	 0.5136629609	-1.4235621439	-3.8603631071	-0.25461
C	 1.6714777004	-2.1857440827	-3.5285253027	-0.095408
C	 1.3795746506	-2.8549637687	-2.1975065454	-0.098638
H	 0.6592219622	 1.658209117	 0.5055369738	 0.099356
H	-0.2169648535	 1.887813969	-1.0293330932	 0.10345
H	-1.1242164875	 1.6040078462	 0.4810647258	 0.123283
H	 0.9167724978	-0.0613031611	-1.990535588	 0.114534
H	 1.8150692022	-0.2267046193	-0.4668718919	 0.079112
H	 0.881441337	-2.4939462007	-0.0974351845	 0.091803
H	-0.7081069129	-3.584955606	-1.6430105216	 0.089272
H	-1.1374488989	-2.7087972027	-3.9191923516	 0.091809
H	-1.3210278465	-1.1941843685	-2.9985628797	 0.11822
H	 1.8723432076	-2.9569952962	-4.289793758	 0.094124
H	 2.5206774656	-1.4931899263	-3.5172070435	 0.106459
H	 1.9282619376	-3.7574123355	-1.9535620228	 0.089241
