12
gdb 130784	3.29961	1.24134	0.97314	3.5427	59.92	-0.2786	-0.03	0.2486	1112.8687	0.078133	-468.822682	-468.815226	-468.814282	-468.85602	25.799	
O	-0.0463138839	-0.0072940434	-0.4741845932	-0.391389
C	-0.0454915333	 1.1658692174	-0.2319306375	 0.537965
O	-1.127868254	 1.9923264709	-0.1794823665	-0.233281
N	-0.7228852454	 3.3160091317	 0.1362850412	-0.113732
C	 0.5574157364	 3.2507085574	 0.2573617605	 0.078867
N	 1.0464837572	 1.9889319169	 0.0498381838	-0.150803
C	 2.4068506222	 1.4931569125	 0.0714417823	-0.298251
C	 3.0910402732	 1.7789804943	 1.3366935599	 0.269634
N	 3.6370753151	 2.0319577803	 2.321812098	-0.280069
H	 1.170992666	 4.1033368154	 0.5082667912	 0.189199
H	 2.334002464	 0.411263985	-0.0839818476	 0.2097
H	 2.9928891025	 1.9120985414	-0.7544685521	 0.18216
