17
gdb 49740	4.07372	1.23888	1.16569	3.001	80.	-0.2256	-0.0546	0.171	1075.5775	0.135722	-384.5903	-384.583123	-384.582179	-384.622361	28.156	
O	-0.1637115125	 0.0342715702	-0.1140821365	-0.250355
C	-0.002516862	 1.2260261411	-0.1630538936	 0.160013
C	 1.3432370359	 1.9206416675	-0.055363776	-0.115161
C	 1.4604665787	 3.0077558359	-1.1267153399	-0.130155
C	 1.9049703298	 4.151186325	-0.5685847072	 0.056422
C	 0.8410174364	 5.1577027574	-0.1105948234	-0.260759
C	 1.0057840632	 4.3582799022	 1.2383699697	-0.066164
C	 1.4422173141	 2.832222994	 1.1985507707	-0.072121
C	 2.3940407316	 3.9223479395	 0.8710548487	-0.115599
H	-0.8672368332	 1.9222312607	-0.2617874304	 0.076474
H	 2.1120258023	 1.1388370671	-0.0207816478	 0.100772
H	 0.7694744042	 3.009722082	-1.9662765486	 0.103705
H	 1.1714959151	 6.1891111288	 0.0549745013	 0.112401
H	-0.1137359707	 5.1443741684	-0.6432238115	 0.106454
H	 0.6928983489	 4.7543877634	 2.2015222853	 0.0995
H	 1.4463756637	 2.3734936414	 2.1855837249	 0.09528
H	 3.3533430346	 4.1637052754	 1.3084396543	 0.099295
