20
gdb 91631	2.92664	1.71117	1.52601	1.4827	76.76	-0.2336	0.0795	0.313	965.1157	0.174495	-403.128404	-403.121438	-403.120494	-403.159322	29.54	
C	-0.2018858352	 1.5355737312	-0.0517308666	-0.41039
C	 0.0426079474	 0.0359711163	 0.0366174104	 0.162111
O	 0.8243718614	-0.4078525309	-1.1031362366	-0.303861
C	 1.9007891431	-1.2093051618	-0.5719625993	 0.100677
C	 1.261028398	-1.8697676151	 0.6568187035	-0.243862
C	 0.843073938	-0.5070787335	 1.2548883354	-0.080963
C	 2.1707227604	 0.2576711478	 1.265029845	-0.022689
N	 3.3868418094	-0.5822339963	 1.385146205	-0.356501
C	 2.8808095161	-0.2056329387	 0.0448521394	-0.043768
H	 0.7341231257	 2.0989659633	-0.0440652843	 0.116674
H	-0.7255608385	 1.7707157632	-0.9827782641	 0.125876
H	-0.8259957259	 1.8735797616	 0.7829485389	 0.109185
H	-0.9292990185	-0.4788062732	 0.0015259128	 0.070604
H	 2.276121545	-1.8534455785	-1.3670904007	 0.07179
H	 0.4067631542	-2.4906983933	 0.3803206676	 0.096539
H	 1.9593938787	-2.4265241742	 1.2768289059	 0.130018
H	 0.2776158142	-0.5244847143	 2.1875974249	 0.065184
H	 2.2128097402	 1.2859011968	 1.603739621	 0.090871
H	 4.1681554688	 0.0284856593	 1.6121931237	 0.231121
H	 3.4515711974	 0.4597444803	-0.592513432	 0.091381
