17
gdb 25156	3.45784	1.41365	1.09081	3.385	74.05	-0.1889	0.0422	0.231	1096.4714	0.13779	-418.045347	-418.03753	-418.036586	-418.078022	30.096	
O	-0.0940828368	-0.0224073827	-0.34928895	-0.461323
C	-0.0611931104	 1.1838215841	-0.1582076821	 0.471829
N	-1.1301117304	 2.0491346346	 0.0152926357	-0.360738
C	-0.6943987726	 3.3561401321	 0.2086207339	-0.104336
C	 0.6525376063	 3.3283569904	 0.1592646852	-0.111379
N	 1.0536087038	 2.0120111288	-0.0634209869	-0.098607
C	 2.4220478886	 1.5831875131	-0.1778870095	 0.066828
C	 2.90071171	 0.2626944123	 0.3618560892	-0.283994
C	 2.8507623217	 0.5026625837	-1.1333261448	-0.283964
H	-2.0796449682	 1.7230014541	-0.005256009	 0.268066
H	-1.373378667	 4.1761050487	 0.3618685346	 0.140542
H	 1.3704607083	 4.1238918865	 0.2619894602	 0.137211
H	 3.0876657482	 2.4313377746	-0.0639238288	 0.097058
H	 3.8604079022	 0.2459788803	 0.8665734044	 0.109212
H	 2.1496546148	-0.4085501991	 0.7569204271	 0.152242
H	 2.0685756098	-0.0192516182	-1.6686311996	 0.152123
H	 3.7753161915	 0.6544763167	-1.6793911996	 0.109231
