20
gdb 94656	3.96578	0.76374	0.68681	3.0286	78.36	-0.2504	0.0181	0.2686	1651.7635	0.169554	-440.260034	-440.250129	-440.249185	-440.296954	34.087	
C	-0.3555230167	 1.5062574681	-0.101814607	-0.409542
C	 0.1947759578	 0.0944272754	-0.0478968232	 0.140467
O	 1.5381542682	-0.0045925979	-0.5765977386	-0.291113
C	 1.9508986836	-0.8470855393	 0.5208763234	-0.075799
C	 0.6449025177	-0.5600283733	 1.2884177779	-0.068086
C	 0.8060044431	 0.3603399286	 2.4818572548	-0.09615
O	 1.4353901722	-0.4045377641	 3.5142530543	-0.187279
C	 1.8431545337	 0.2771359674	 4.6020344948	 0.130003
N	 2.3507968642	-0.3384458648	 5.579494795	-0.436275
H	 0.2789695475	 2.2136823465	 0.4387746309	 0.120202
H	-0.409561898	 1.8356397234	-1.1441412757	 0.13383
H	-1.3672029038	 1.5444115051	 0.3162676781	 0.118911
H	-0.478704203	-0.5770873166	-0.6017553819	 0.075852
H	 2.0777020017	-1.8922864555	 0.2117788702	 0.103827
H	 2.8785610779	-0.4975590341	 0.9872513847	 0.111112
H	 0.0726289639	-1.4393084999	 1.5906717896	 0.091973
H	 1.4304552284	 1.2268721218	 2.2277092067	 0.113704
H	-0.1677841887	 0.7290886181	 2.831897284	 0.110592
H	 1.6901089197	 1.3629885022	 4.5232673381	 0.084024
H	 2.6139314605	 0.322717719	 6.3072485339	 0.229746
