13
gdb 69034	2.82162	1.41181	1.17873	4.2761	67.13	-0.256	-0.0205	0.2355	1034.3675	0.086278	-456.5112	-456.503144	-456.502199	-456.543749	30.049	
O	-0.115136826	 1.4573612434	-0.0042668976	-0.430481
C	-0.0205909902	 0.0979594069	 0.0163604326	 0.127884
C	-0.223673662	-0.8008301347	-1.2066282992	-0.392451
C	-1.1180652164	-0.965150272	-0.0137376858	 0.251244
O	-0.3870690202	-1.7623415602	 0.9736714882	-0.288698
C	 0.5633372575	-0.7566008482	 1.1275892153	 0.412223
O	 1.4470105249	-0.7071941249	 1.9148105105	-0.319478
C	-2.5270620071	-0.8881638646	 0.0563371296	 0.234587
C	-3.7261570825	-0.8203515811	 0.1069615014	-0.400817
H	 0.5675001515	 1.8135107501	-0.5843204593	 0.307367
H	-0.6677457795	-0.2737784955	-2.0461489297	 0.148422
H	 0.4785115238	-1.5912573502	-1.4519026869	 0.143639
H	-4.785586934	-0.761313179	 0.1587312409	 0.206559
