25
gdb 96564	2.24849	1.36312	0.99162	0.3137	94.55	-0.2339	0.0254	0.2593	1336.9796	0.231356	-352.375451	-352.366278	-352.365334	-352.408706	36.754	
C	 0.0852947013	 1.681069764	-0.0232699601	-0.406222
C	 0.0212484969	 0.1469013046	-0.0224513743	-0.006958
C	 0.6622816224	-0.4252799335	-1.3105008384	-0.179678
C	 0.7962128344	-1.9558597622	-1.3871868917	-0.191691
C	-0.4920692984	-2.7762013998	-1.1363421842	-0.18271
C	-0.6633374663	-3.3797893002	 0.2717996591	-0.175285
C	-0.9350102481	-2.3914284192	 1.4285473563	-0.246545
C	 0.2484518593	-1.543418238	 1.8322297724	-0.072442
C	 0.6563755742	-0.4353352188	 1.2128807728	-0.023606
H	 1.1249517771	 2.028650824	 0.002580048	 0.11206
H	-0.3804708466	 2.0955922748	-0.9236225111	 0.108511
H	-0.4280395954	 2.1009001588	 0.8474732162	 0.113466
H	-1.0371842455	-0.1420374904	-0.0322438989	 0.073933
H	 0.068474885	-0.0706162073	-2.1641932811	 0.089755
H	 1.6618791874	 0.0137061098	-1.4347188774	 0.08789
H	 1.1740277978	-2.1913635452	-2.389254298	 0.087248
H	 1.5728981942	-2.2894568804	-0.690312097	 0.098366
H	-1.3763119314	-2.1736634263	-1.3861484572	 0.088938
H	-0.5064803241	-3.6166710435	-1.8402767746	 0.091759
H	-1.5026309261	-4.0862837066	 0.2343892211	 0.088109
H	 0.2257866889	-3.9776329536	 0.5125678391	 0.093915
H	-1.7839574844	-1.7541760244	 1.1491678321	 0.103446
H	-1.2655256354	-2.9698563782	 2.2986593424	 0.092871
H	 0.8182177517	-1.89733209	 2.6894859211	 0.081039
H	 1.5435335212	 0.0787423617	 1.5823927134	 0.073831
