18
gdb 121553	3.79156	0.51789	0.46089	2.8463	82.08	-0.2629	0.0172	0.2801	2284.5043	0.145264	-401.921793	-401.911201	-401.910257	-401.961318	34.99	
C	 0.51601322	 1.2034637994	-0.3025240755	-0.231716
O	-0.1508136043	 0.128171175	 0.3170183752	-0.22791
C	 0.7077786362	-0.6796682907	 1.0854414198	-0.043981
C	-0.1441851111	-1.7994121718	 1.6953183901	-0.354531
C	 0.6434602944	-2.706609626	 2.518964816	 0.061119
C	 1.3195944156	-3.4381844171	 3.1922739541	 0.093532
C	 2.127057565	-4.3365977324	 4.0139617294	-0.4728
C	 3.5471857203	-3.9605272861	 4.0498074539	 0.279403
N	 4.6651525702	-3.6743606622	 4.0851672116	-0.30143
H	 1.3004722142	 0.8541806084	-0.9919662543	 0.108395
H	-0.2292101665	 1.7655319176	-0.8701215051	 0.130131
H	 0.9822444702	 1.874251483	 0.4359747998	 0.108373
H	 1.5089847062	-1.1106135382	 0.4636241671	 0.10195
H	 1.1922127014	-0.095673682	 1.8845552746	 0.101883
H	-0.9456404248	-1.3442036038	 2.2890348236	 0.142792
H	-0.6319222393	-2.3493582792	 0.8818608872	 0.142803
H	 1.7544463747	-4.3573215969	 5.0463664506	 0.180985
H	 2.0574012073	-5.367750787	 3.6438264318	 0.181003
