18
gdb 18349	3.29518	2.29101	1.62013	1.5263	72.44	-0.2415	0.0177	0.2592	840.8446	0.155554	-347.798781	-347.791842	-347.790898	-347.829754	27.096	
C	 0.1277749118	 1.592661231	 0.0149260771	-0.390701
C	 0.0410549074	 0.0607085475	-0.0120592079	-0.046704
C	 0.7325664351	-0.5857278741	-1.1970356576	-0.060935
C	 1.5529531253	-1.5793025598	-0.8551622084	-0.093744
C	 1.6099859918	-1.7852830827	 0.6337272397	-0.121139
C	 2.7666025033	-1.0583157108	 1.3594555518	-0.073032
O	 1.9173902461	 0.0697273856	 1.6561112978	-0.289822
C	 0.7372723216	-0.6250427291	 1.1846834428	 0.114122
H	 1.1686591535	 1.9149609772	 0.0855254591	 0.136027
H	-0.3124254967	 2.0193911907	-0.8919227897	 0.107339
H	-0.4124599906	 2.002435247	 0.8743945036	 0.114555
H	-1.0229739102	-0.2211306188	-0.0125708224	 0.075527
H	 0.5520926395	-0.2525993872	-2.2144278512	 0.0919
H	 2.1380963245	-2.1739882447	-1.5486696841	 0.093184
H	 1.4072700986	-2.808987247	 0.9575322765	 0.079093
H	 3.1126892336	-1.5547743108	 2.2760636424	 0.094385
H	 3.6326237015	-0.7759064011	 0.7497198163	 0.101927
H	 0.0570600839	-0.8428611429	 2.0157856842	 0.068019
