17
gdb 93326	2.05217	1.66018	1.14149	3.4907	74.11	-0.239	-0.0277	0.2113	1102.9927	0.134235	-421.815975	-421.807105	-421.80616	-421.849692	33.07	
O	 0.1567865984	 1.3350220059	-0.3566546397	-0.426956
C	 0.0353673883	-0.0347913537	-0.0584037493	 0.129867
C	 0.547372793	-0.4528899257	 1.3355045826	-0.264408
C	-0.1070658203	-1.8214743919	 1.5776862232	-0.321828
C	-1.3894040115	-1.8131477377	 0.734888174	 0.403098
O	-2.1991556075	-2.693579575	 0.6645660328	-0.301703
C	-1.4475431022	-0.4675604003	-0.0508454253	-0.298877
C	-2.3103607413	 0.4542576196	 0.6760010307	 0.359079
C	-3.0350369118	 1.1722016551	 1.311679294	-0.47377
H	 1.0904573234	 1.5674033344	-0.3244274684	 0.286572
H	 0.5444903312	-0.6475263968	-0.8220167938	 0.074482
H	 1.6396183352	-0.4809851414	 1.3852315378	 0.097843
H	 0.1921260296	 0.2838893609	 2.0626432352	 0.130101
H	 0.5136467067	-2.652127424	 1.2209770002	 0.137093
H	-0.3418819933	-2.0330619257	 2.6238791836	 0.142818
H	-1.8435957832	-0.6438745482	-1.0546745033	 0.125875
H	-3.6771437946	 1.8226408444	 1.8522491057	 0.200714
