17
gdb 22334	2.83658	1.31113	1.02535	2.9564	75.02	-0.2498	-0.0422	0.2076	1178.4835	0.135754	-455.122622	-455.114119	-455.113175	-455.156086	31.811	
C	 0.6603069123	 1.3818579657	-0.1123053075	-0.392377
C	-0.0691486051	 0.05106672	 0.0216380648	 0.104375
C	 0.1858796375	-0.9242389085	-1.1430062852	-0.315101
C	 1.3042184415	-1.7781586791	-0.6010918583	 0.303234
N	 2.0712167776	-2.4345859044	-1.382412723	-0.216364
O	 3.0429497659	-3.1724006547	-0.7384453858	-0.345996
C	 1.2876135414	-1.6423870856	 0.880367167	 0.356761
N	 1.9376322906	-2.3198045379	 1.7282089945	-0.522125
O	 0.4045221311	-0.6460010748	 1.2009650646	-0.255391
H	 1.7260039026	 1.2240647666	-0.3087623413	 0.131563
H	 0.2400075875	 1.9630738413	-0.9393545389	 0.12221
H	 0.5612391851	 1.9646942071	 0.807112184	 0.133329
H	-1.1366299475	 0.2224836033	 0.1830275935	 0.096392
H	-0.7015830124	-1.5394964961	-1.3305570169	 0.131405
H	 0.4504616472	-0.4219620195	-2.0748222818	 0.131887
H	 3.5175405703	-3.5719720354	-1.4768434177	 0.312297
H	 1.7149064143	-1.9945773781	 2.6720374682	 0.2239
