17
gdb 60738	3.95973	0.98345	0.82896	4.2504	72.12	-0.2538	-0.0257	0.228	1340.134	0.135143	-455.14337	-455.13424	-455.133296	-455.178162	31.982	
C	 0.3378146336	 1.3700869339	-0.1281288248	-0.357855
N	-0.0242020808	-0.0423086626	-0.0400734338	-0.1334
C	-0.1061923526	-0.6182599816	 1.2239461789	 0.167017
O	 0.1252837456	-0.0166178105	 2.2470006434	-0.325906
C	-0.2621219999	-0.8167479899	-1.1850268577	 0.350658
N	-0.3137096934	-2.0860609118	-1.1277136716	-0.508169
C	-0.4526684901	-0.0352452186	-2.4597951522	-0.030662
C	 0.5399551046	-0.1380263006	-3.5472968702	-0.164058
O	-0.7056924987	-0.8304887887	-3.6087221092	-0.220344
H	 1.1119225029	 1.5263612231	-0.8831890831	 0.136448
H	-0.5261963943	 2.0008276515	-0.3639296419	 0.135943
H	 0.7186023087	 1.6598545109	 0.8508142568	 0.176716
H	-0.4087562351	-1.6715796087	 1.1731741143	 0.142576
H	-0.5523352696	-2.446155847	-2.052539236	 0.241424
H	-1.0525637147	 0.8708735321	-2.3945111343	 0.121064
H	 0.6553688202	 0.6836675669	-4.2515152357	 0.13258
H	 1.4134773136	-0.7701492284	-3.4000621529	 0.135968
