19
gdb 53341	3.54252	0.97129	0.87596	1.4946	84.61	-0.2304	0.0508	0.2811	1407.6481	0.158747	-385.829351	-385.820366	-385.819422	-385.865241	32.04	
C	-0.1562208627	 1.4431578381	 0.1488021663	-0.498322
C	-0.1031259702	-0.0089993275	 0.0649276357	 0.07068
C	-0.067148955	-1.2109829889	-0.0064483709	 0.090403
C	-0.0290134965	-2.6554253881	-0.0742724705	-0.199668
C	 0.456922702	-3.4704941029	 1.1819092079	-0.251552
C	-0.8333427786	-4.3323450498	 1.1311521887	-0.085076
C	-2.0060020819	-3.7462924295	 1.9326933528	-0.07362
O	-2.3656658504	-2.8612415954	 0.8441528262	-0.281221
C	-1.3785396844	-3.4413331847	-0.0202237996	 0.119903
H	 0.4735019843	 1.8191040776	 0.9631378199	 0.144502
H	 0.1904499095	 1.9114116384	-0.7793210225	 0.144496
H	-1.1782370921	 1.7920807744	 0.3342415538	 0.149915
H	 0.5291559894	-2.9796963495	-0.961006784	 0.096168
H	 1.3841400618	-4.0202679205	 1.0099679168	 0.106739
H	 0.5661257939	-2.8749842243	 2.0909671521	 0.109999
H	-0.7282068601	-5.4148916506	 1.0828533419	 0.077612
H	-2.8162071861	-4.454665008	 2.1493406465	 0.099571
H	-1.7515639762	-3.1992726511	 2.849129942	 0.103192
H	-1.8031209368	-3.784464508	-0.9678653632	 0.076279
