14
gdb 21639	6.5728	1.69602	1.38353	2.495	64.8	-0.2067	0.0204	0.2271	854.7875	0.110547	-374.890717	-374.884235	-374.88329	-374.921326	24.419	
N	 0.0617945342	 1.3352181215	 0.2974055066	-0.572168
C	 0.0005203413	-0.0089389759	 0.005433523	 0.390191
N	-1.1467952996	-0.6997798198	 0.0583813629	-0.358489
N	-0.650425117	-1.964167902	-0.1151395811	 0.061753
C	-0.8862049145	-3.2780483863	-0.7534692266	-0.166381
C	 0.6882268012	-3.3578076219	-0.8998080058	-0.355635
C	 0.6575506525	-1.9358817054	-0.3601156494	 0.340401
N	 1.1541635604	-0.7185773287	-0.2905015539	-0.410055
H	 0.8453769402	 1.8015861452	-0.1347915767	 0.259172
H	-0.8147509748	 1.8215772503	 0.179898257	 0.25806
H	-1.374068232	-4.0100376505	-0.1061472877	 0.133154
H	-1.4092520302	-3.2061947596	-1.7103742994	 0.139731
H	 1.1816628824	-4.1060502834	-0.2767815656	 0.138271
H	 1.0352534958	-3.4512307036	-1.9305462833	 0.141994
