18
gdb 66134	2.35523	1.63491	1.43394	1.6077	71.98	-0.2277	-0.0301	0.1977	1006.8407	0.146531	-439.070948	-439.062517	-439.061573	-439.103988	31.772	
C	 0.1546029335	 1.5838478851	-0.2593018531	-0.442246
C	 0.0518390084	 0.0691701916	-0.09550781	 0.165184
N	 0.8288442522	-0.6176679298	-1.1584400656	-0.33879
C	 1.3199017275	-1.9103556579	-0.6576233622	-0.204856
C	 1.4586880042	-1.6703652835	 0.8306356969	 0.059274
O	 2.1091126441	-0.4374643791	 1.1660719683	-0.264989
C	 0.6795306295	-0.4831509046	 1.1754721996	 0.041014
C	-1.3940261096	-0.4092131792	-0.2033643193	 0.124332
O	-1.9271420912	-1.2029720142	 0.5308154957	-0.260947
H	 1.2067335338	 1.8739959275	-0.2239889208	 0.150785
H	-0.2588005889	 1.9011720151	-1.2228069684	 0.114992
H	-0.3921501712	 2.10746478	 0.5323589687	 0.120521
H	 0.3283115477	-0.6853763024	-2.0373180204	 0.225917
H	 0.6245721095	-2.7524842786	-0.8045688608	 0.106058
H	 2.2687717194	-2.162201299	-1.1451143028	 0.118478
H	 1.6229649209	-2.500267207	 1.5108479898	 0.10414
H	 0.1895939938	-0.3347928079	 2.1317613522	 0.109519
H	-1.9270086036	-0.0046461461	-1.0988988879	 0.071612
