22
gdb 61390	2.79511	0.91556	0.83142	3.5937	82.97	-0.2953	0.0132	0.3085	1495.2968	0.191213	-404.36838	-404.357498	-404.356554	-404.404308	40.245	
C	 0.4394879086	 1.37896612	 0.2678857553	-0.415026
C	-0.0704708667	-0.069518045	 0.1554411459	 0.262186
C	 0.2114781909	-0.8210416949	 1.4712734875	-0.41579
C	-1.5933593155	-0.0473814936	-0.0837603325	-0.406785
C	 0.566813806	-0.7897783592	-1.0621352044	-0.222935
C	 2.1014618123	-0.7316819048	-1.1959331128	-0.042931
O	 2.8202413048	-1.3346201781	-0.1339771404	-0.398196
C	 2.5057579406	-1.3234392095	-2.4916512103	 0.261719
N	 2.8092312837	-1.8158959364	-3.4921521169	-0.317214
H	 1.4996303605	 1.4203213165	 0.537165675	 0.124319
H	 0.302473464	 1.9269872107	-0.6714609326	 0.110535
H	-0.112033279	 1.9159657062	 1.0464427793	 0.115941
H	-0.3037363106	-0.3316403295	 2.3048826626	 0.110045
H	-0.1558067051	-1.8529107232	 1.4202524035	 0.101933
H	 1.2788929891	-0.8502720136	 1.6971397246	 0.134371
H	-1.8495182425	 0.5268515778	-0.9808256341	 0.111954
H	-1.9907625522	-1.0606362093	-0.2093941319	 0.112044
H	-2.1107438928	 0.4100864293	 0.7659971845	 0.113628
H	 0.2605216942	-1.8447122645	-1.0651765353	 0.103447
H	 0.1569283951	-0.3552088812	-1.9825896258	 0.118946
H	 2.429355386	 0.3126645528	-1.2014821488	 0.143278
H	 2.5665251587	-2.2639765005	-0.0880905822	 0.294532
