17
gdb 26949	3.11138	1.30328	0.98931	2.4136	76.45	-0.2204	0.0008	0.2211	1189.0363	0.137586	-418.0211	-418.013041	-418.012096	-418.054313	29.446	
C	 0.2389740833	 1.514283434	 0.3515077073	-0.498275
C	-0.0218342502	 0.0751600612	 0.1028621489	 0.245641
C	-1.1164105444	-0.6722823424	-0.2021139238	 0.207076
N	-0.7346979196	-2.0120292475	-0.3115955376	-0.32971
C	 0.5338899676	-2.0038875951	-0.0792495146	 0.06357
O	 1.0517997874	-0.7853199981	 0.1791385104	-0.178003
C	-2.5214158318	-0.2718537141	-0.3889879593	-0.111624
C	-3.3655942481	-0.9886097584	-1.3855982833	-0.236026
N	-3.5927117142	-1.1887671864	 0.0506900666	-0.322422
H	 0.916620237	 1.9379901264	-0.3984839324	 0.144176
H	-0.6978715175	 2.0743749124	 0.3159093144	 0.144831
H	 0.6947490206	 1.6730380336	 1.3350752782	 0.145023
H	 1.2181596141	-2.8378476598	-0.0647125308	 0.151188
H	-2.7310858576	 0.7759299706	-0.1912511659	 0.084803
H	-4.1525230352	-0.4509006727	-1.9074142716	 0.116293
H	-2.8888123303	-1.7852779082	-1.9489672939	 0.128198
H	-3.154640721	-2.0661757955	 0.3280477175	 0.245262
