20
gdb 97683	2.61554	0.83046	0.70802	2.3329	86.08	-0.2333	0.0382	0.2715	1690.6921	0.169699	-403.094625	-403.084253	-403.083309	-403.132652	36.588	
C	-0.7240793296	 1.0667125246	 0.0400465235	-0.36369
C	 0.6722944123	 0.4340989447	 0.1858916444	-0.320199
C	 1.1679622623	-0.1552441702	-1.0533941899	 0.117995
C	 1.5566035268	-0.6318544367	-2.0906485979	 0.010706
C	 2.0217162455	-1.1772180991	-3.3394449782	 0.092029
C	 2.3776857855	-0.1805152924	-4.4346802723	-0.107504
O	 1.2264618177	 0.443693112	-4.9601638888	-0.414937
C	 2.6614256158	-2.5272149166	-3.3383881994	-0.267406
N	 1.3128121879	-2.3661607288	-3.8974530838	-0.358934
H	-0.7141054165	 1.8574080585	-0.714618508	 0.134894
H	-1.4597939613	 0.3182433826	-0.2664842236	 0.126314
H	-1.0474541286	 1.4992378776	 0.9915642496	 0.114408
H	 1.3844784051	 1.193934724	 0.5328625187	 0.132283
H	 0.6488347473	-0.3337640009	 0.9699742467	 0.128127
H	 3.013440763	 0.614140545	-4.0335176714	 0.113211
H	 2.9417005653	-0.712008684	-5.2164517577	 0.087034
H	 0.6444703807	-0.2726130865	-5.242015188	 0.290396
H	 3.4370642243	-2.7469543316	-4.0671972282	 0.12213
H	 2.7745719874	-3.026786884	-2.3812446732	 0.122653
H	 0.6242042791	-2.6864330381	-3.2212637925	 0.24049
