18
gdb 111082	3.97014	1.11151	1.0881	4.1151	72.66	-0.2425	0.021	0.2635	1173.9701	0.148547	-439.079147	-439.071188	-439.070244	-439.111738	30.471	
C	 0.1608399459	 1.3323925526	 0.1330235182	-0.246775
O	-0.2816572881	 0.0435654997	-0.245563977	-0.254407
C	 0.4842984009	-0.5289453583	-1.2621140428	 0.179875
C	 1.7989102393	-1.2757372991	-0.8345525569	-0.064046
C	 0.8739761139	-2.4046861286	-0.2941053201	-0.235385
C	 0.0365130243	-1.9949821783	-1.5622131414	-0.198216
C	 1.0488753991	-2.3750668919	-2.6553508446	 0.412322
O	 0.9213070512	-3.0412580679	-3.6506521297	-0.375254
N	 2.204456308	-1.7657031313	-2.1654869353	-0.316331
H	 1.1713933921	 1.311593068	 0.5658475557	 0.109859
H	 0.1644381244	 2.0227328979	-0.7234350267	 0.114916
H	-0.5382686619	 1.7030215596	 0.8855010844	 0.134369
H	 0.59520792	 0.1513472079	-2.1182064095	 0.079695
H	 2.60349781	-0.8124037378	-0.2660828705	 0.082763
H	 1.2842080523	-3.4168173323	-0.2606435736	 0.10403
H	 0.3688477388	-2.1468274043	 0.6358486176	 0.126009
H	-1.000260077	-2.2739032855	-1.7284823896	 0.095079
H	 3.1112250768	-2.1724893506	-2.3407671682	 0.251496
