21
gdb 66162	3.51227	0.76701	0.71493	1.6113	79.65	-0.2512	-0.0246	0.2267	1617.7742	0.180188	-424.215689	-424.205718	-424.204774	-424.251999	35.204	
C	 0.088814685	 1.6695203448	 0.1287180314	-0.468865
C	 0.0369416725	 0.1474572424	 0.0466245268	 0.293729
C	-1.3935010569	-0.4099590304	 0.0754219181	-0.259748
C	-2.2931188558	 0.0643866056	-1.0808755168	-0.28721
C	-3.6052833845	-0.6868268662	-1.102376398	 0.161144
O	-4.6940484259	-0.177826383	-1.0416264218	-0.234819
C	 0.9330617342	-0.5117578881	-1.0371509046	-0.10779
O	 1.6173400915	-1.3116959012	-0.0548300286	-0.271691
C	 0.9709240863	-0.6128963208	 1.0265101194	-0.117464
H	 1.1236784251	 2.0225455887	 0.1751241108	 0.12113
H	-0.3806458625	 2.139032051	-0.7417806812	 0.124143
H	-0.4305262667	 2.0340508231	 1.0225262772	 0.12074
H	-1.3371764336	-1.5063651604	 0.0590532892	 0.111004
H	-1.8629603184	-0.1378826214	 1.0297755972	 0.111876
H	-2.5114849494	 1.1333091973	-1.0235620694	 0.126115
H	-1.7882035813	-0.1333614946	-2.038334574	 0.119378
H	-3.4947004878	-1.795269495	-1.173669866	 0.072299
H	 0.4277878588	-1.1305222815	-1.7898790921	 0.095492
H	 1.6140603021	 0.1818549356	-1.5490870384	 0.096307
H	 1.6717094738	 0.0287784105	 1.5779293843	 0.094736
H	 0.4860981433	-1.3001116966	 1.7310300266	 0.099494
