16
gdb 48819	2.68952	1.61037	1.16237	3.3368	70.93	-0.2581	-0.0348	0.2233	1038.0693	0.125011	-437.904915	-437.897209	-437.896265	-437.937335	28.753	
N	 0.1028185222	 1.2801416214	 0.2578718764	-0.548612
C	 0.0572438394	 0.0428059023	 0.0119114609	 0.348877
O	 1.1220617598	-0.7222398414	-0.3890767706	-0.249254
C	 0.6820264211	-1.9880832082	-0.9168890778	-0.109916
C	-0.7557207908	-2.1673444276	-0.4653162925	-0.099663
C	-1.0194128835	-2.0482150811	 0.9876147203	-0.311773
C	-1.1594293749	-0.8051708363	 0.1037096966	 0.157249
C	-2.5132451767	-0.2291628383	-0.1009365973	 0.071401
O	-3.5224763025	-0.8937691537	-0.091639075	-0.275776
H	 1.0342156506	 1.6545684514	 0.0720703104	 0.228375
H	 0.7548634184	-1.9623633996	-2.0102079494	 0.124791
H	 1.3590956567	-2.75878665	-0.5362077492	 0.128462
H	-1.4541705327	-2.7032859643	-1.0958184612	 0.128579
H	-1.9657286115	-2.4326590222	 1.3504122983	 0.153624
H	-0.1906512113	-2.0674671985	 1.6875877982	 0.138471
H	-2.5261817442	 0.8658629163	-0.2645163882	 0.115164
