14
gdb 44539	3.67931	1.60973	1.52906	5.2994	61.47	-0.2518	0.0459	0.2977	875.0257	0.102188	-473.78968	-473.78342	-473.782476	-473.820511	24.68	
N	-0.0754064644	 0.9564392202	 0.6671339208	-0.566596
C	-0.0093546463	-0.0959963009	-0.0095236537	 0.508895
O	 1.1348418141	-0.7163774072	-0.4547521147	-0.25192
C	 0.7961826678	-1.9313743461	-1.0906931319	 0.025112
C	 0.788225522	-3.1959210083	-0.2021267767	-0.008433
O	 0.055813523	-2.8597778465	 0.9712618135	-0.213586
C	-0.6956135975	-3.2140643973	-0.1847398561	-0.007199
C	-0.7548232669	-1.9525742528	-1.076126216	 0.036581
O	-1.1245193021	-0.7478702934	-0.4440601237	-0.22655
H	 0.8580108339	 1.299831134	 0.8779062049	 0.234354
H	 1.3070008552	-2.0223781366	-2.0497932387	 0.109704
H	 1.5127974669	-3.9981366981	-0.1375920694	 0.123601
H	-1.3982641754	-4.0338886276	-0.1024773525	 0.124523
H	-1.2791812704	-2.0657795993	-2.0254678057	 0.111514
