20
gdb 61888	5.66642	0.65873	0.62149	3.1531	77.53	-0.2304	-0.0268	0.2036	1760.1134	0.16784	-440.246371	-440.236349	-440.235405	-440.282524	34.984	
C	-0.2333309764	 1.5851480104	 0.0676523323	-0.337681
N	-0.0824054222	 0.1312492615	 0.0939650858	-0.083541
C	 0.6741111294	-0.2996358013	 1.2555450675	-0.231084
C	 2.1489369747	 0.0503680631	 1.1152391792	 0.152831
O	 2.8904389896	 0.2606480906	 2.0379468859	-0.237736
C	-1.3534204215	-0.5687907863	-0.0602066598	-0.163921
C	-1.9228569353	-0.4179007949	-1.4508100618	 0.080677
C	-3.3609753895	-0.5539816783	-1.7091737152	-0.179504
O	-2.7394064519	 0.7305457384	-1.7085574687	-0.230263
H	 0.752622223	 2.0598966627	 0.0960119635	 0.124072
H	-0.7379958084	 1.8970036712	-0.8475128954	 0.154695
H	-0.8174433363	 1.9636606971	 0.9265591573	 0.102027
H	 0.305046219	 0.0960786772	 2.2186891585	 0.108072
H	 0.631453576	-1.3961512118	 1.321304942	 0.124994
H	 2.4972419524	 0.0651917619	 0.0570615595	 0.086017
H	-1.1738639757	-1.6362133302	 0.1178356409	 0.105944
H	-2.1151341645	-0.2369379815	 0.6705707293	 0.089445
H	-1.2255468352	-0.654898703	-2.2550799301	 0.100745
H	-3.7034077553	-0.9109333538	-2.6791025405	 0.118557
H	-4.0408163519	-0.7431373928	-0.8790875103	 0.115654
