21
gdb 80913	2.64035	1.42431	1.26658	1.4212	83.4	-0.2467	0.0726	0.3192	1120.8168	0.18163	-387.023711	-387.01495	-387.014006	-387.056419	34.832	
O	 0.208134583	 1.3783415641	-0.2058579342	-0.45536
C	 0.0485831196	-0.0024836317	-0.0343367426	 0.156994
C	-0.0086096969	-0.6587064751	 1.3832890877	-0.192998
C	-1.4612121433	-0.1033902536	 1.5144078095	-0.295878
C	-1.380025558	-0.6552688964	 0.0481197639	 0.195578
C	-2.4534184896	-0.6550616464	-1.0040596263	-0.521996
C	-0.6429923779	-1.862157842	 0.6686667935	 0.444904
C	-0.0713672878	-3.1012900592	 0.0734782815	-0.37646
C	-1.1356769231	-3.1731844269	 1.1703044345	-0.374563
H	-0.3402421855	 1.8439162593	 0.4334944814	 0.281074
H	 0.7334138844	-0.474567189	-0.7425472705	 0.084397
H	 0.7694345765	-0.6754708666	 2.1473345143	 0.071943
H	-2.1257279334	-0.6417375546	 2.1940116305	 0.098944
H	-1.5877203012	 0.9769286066	 1.6454273166	 0.070225
H	-2.7144338213	 0.3693981457	-1.2905892226	 0.124509
H	-2.1164994192	-1.1755437654	-1.9075942719	 0.121694
H	-3.365308779	-1.1482279947	-0.6494328841	 0.118861
H	-0.368070867	-3.3863258559	-0.9315755399	 0.111714
H	 0.9419036844	-3.3911581329	 0.3342749592	 0.113348
H	-0.82336301	-3.5107476931	 2.1538026638	 0.112266
H	-2.1289024746	-3.5060487222	 0.8835311256	 0.1108
