21
gdb 103354	2.60255	1.59209	1.29298	1.4052	81.95	-0.2246	0.0072	0.2319	1071.2199	0.183131	-387.045615	-387.037195	-387.036251	-387.078222	33.917	
C	-0.1417546959	 1.5578756528	 0.0529434136	-0.471746
C	-0.0457265111	 0.0270441607	 0.0433706167	 0.339703
C	-1.470869756	-0.5158246546	-0.1258046614	-0.137901
O	-2.0220451549	-0.1814769445	-1.3975430213	-0.422441
C	 1.1121976046	-0.5790471265	-0.8739414913	-0.118013
C	 2.0984458407	-0.1842505236	 0.2800293332	-0.221647
C	 0.879843593	-0.6335660273	 1.156973299	-0.117774
C	 0.8271580763	-2.1135082847	 0.7525905936	-0.087619
C	 0.9813433316	-2.0778034927	-0.5754141545	-0.098689
H	 0.8162138916	 2.0730588092	-0.0208832891	 0.111143
H	-0.7630824015	 1.8760323129	-0.7889796704	 0.136014
H	-0.6342175696	 1.8990392858	 0.9714654635	 0.112253
H	-1.5103327326	-1.5959453396	 0.0433419435	 0.091213
H	-2.1273430928	-0.0394950515	 0.6114294818	 0.100728
H	-1.5360916386	-0.6838107687	-2.0594502611	 0.282303
H	 1.263606219	-0.2554892031	-1.9047750314	 0.056896
H	 3.0015903007	-0.7912526324	 0.3659863771	 0.093539
H	 2.3469952225	 0.8753714268	 0.340656194	 0.098263
H	 0.7884182544	-0.3729162198	 2.2120802792	 0.057172
H	 0.6866338566	-2.9566991327	 1.4140616555	 0.099574
H	 1.0023038819	-2.8844320763	-1.2949036799	 0.097028
