21
gdb 81437	2.679	1.73448	1.46799	2.0965	82.35	-0.1915	0.0819	0.2734	1015.4024	0.183692	-383.195168	-383.187047	-383.186103	-383.227472	32.605	
C	 0.0004764431	 1.5299886596	-0.1146007152	-0.305099
N	-0.0434086747	 0.0781354114	 0.0405182563	-0.051022
C	-1.2009211562	-0.6951362538	 0.5418251126	-0.038165
C	-0.1963958057	-1.8929817418	 0.6068882512	-0.213632
C	 0.7331931141	-0.7047183766	 1.0244654968	-0.081565
C	 0.1263606671	-0.3967141188	 2.4346705371	 0.344161
C	 0.7317127286	-0.9813871529	 3.6789914591	-0.495314
N	-0.6270204768	 0.8804728244	 2.4660927044	-0.379887
C	-1.3075811793	-0.3767041084	 2.0636911176	-0.103478
H	 0.770352942	 1.9780245623	 0.5188059403	 0.119873
H	 0.2229191503	 1.7759240781	-1.1622349645	 0.091763
H	-0.9453813727	 2.0019291984	 0.1625410722	 0.122542
H	-2.1116465584	-0.7087853498	-0.0587290146	 0.066665
H	-0.3874972532	-2.6752083992	 1.345899324	 0.087288
H	 0.0470051702	-2.3018305754	-0.3730889845	 0.105449
H	 1.8199391327	-0.7313497301	 0.92228707	 0.062688
H	 1.6596167643	-0.4638375438	 3.9509469457	 0.124312
H	 0.046814248	-0.9073258568	 4.5311152879	 0.113438
H	 0.9762354157	-2.0404339056	 3.5393082816	 0.124887
H	-0.8742552068	 1.0745014397	 3.4360914326	 0.220338
H	-2.0961883023	-0.7939003609	 2.6807593292	 0.084758
