18
gdb 41272	3.50517	1.86501	1.49325	0.8704	74.35	-0.2124	0.0614	0.2737	896.592	0.150423	-401.846512	-401.840284	-401.83934	-401.87675	26.318	
C	 0.0566956314	 1.512196594	-0.1008880986	-0.177171
C	 1.606263609	 1.4646680032	-0.0107036769	-0.10203
C	 1.9650295807	 1.3466585787	 1.4725852653	 0.107964
O	 3.297964213	 0.8732849575	 1.7886985376	-0.307513
C	 2.7859842435	-0.415538678	 2.2388320041	-0.200506
C	 1.4807112778	-0.128326223	 1.5189254721	 0.278527
C	-0.0178816963	-0.4152893744	 1.4974700477	-0.290859
N	-0.0840659171	 0.0178443527	 0.0506969083	-0.148824
C	 1.4325204663	-0.0869944316	-0.0372018485	-0.022605
H	-0.473064746	 2.1064658766	 0.6538485527	 0.099675
H	-0.3021988104	 1.8099058808	-1.0902877071	 0.11525
H	 2.2098901841	 2.072053599	-0.6852086464	 0.077211
H	 1.637274579	 2.1296523375	 2.1674310493	 0.068639
H	 3.3967553548	-1.2521341171	 1.8822258065	 0.109733
H	 2.7173535174	-0.4538621018	 3.3357711836	 0.101178
H	-0.2768357109	-1.4777953792	 1.559491326	 0.112901
H	-0.658625815	 0.1459550256	 2.1864280385	 0.104701
H	 1.8834239786	-0.8104462004	-0.7157517042	 0.073729
