15
gdb 51993	6.39744	0.61687	0.58865	0.9748	67.58	-0.2637	-0.0423	0.2214	1786.8047	0.11037	-491.126226	-491.116689	-491.115745	-491.162655	31.573	
N	-0.2234696495	 1.260241928	 0.1809487044	-0.425838
C	-0.1064614401	 0.0119894615	 0.2706286838	 0.121436
O	-1.1231768672	-0.7635735386	-0.2267494673	-0.232263
C	-0.9810542367	-2.129530801	-0.1246199008	 0.548383
O	-0.0341454852	-2.6957239967	 0.3648652735	-0.394014
N	-2.0785708282	-2.717859734	-0.6639846423	-0.37398
C	-2.2214015893	-4.1534770002	-0.7378010051	-0.248779
C	-3.3085902728	-4.6859065072	 0.1897141743	 0.15309
O	-3.9592090285	-5.6682660347	-0.041520717	-0.222981
H	 0.5947514179	 1.7125239067	 0.5856320866	 0.241057
H	 0.7033055466	-0.5811602919	 0.6959616224	 0.147755
H	-2.7786758374	-2.1133825007	-1.0631908387	 0.27191
H	-2.4226826014	-4.4934585526	-1.7584044146	 0.1435
H	-1.2662224708	-4.5851990705	-0.4159368403	 0.180052
H	-3.4440888175	-4.0854041781	 1.118124311	 0.09067
