22
gdb 120864	3.5032	0.58611	0.53657	0.9086	79.49	-0.2431	0.0707	0.3138	2065.653	0.193225	-441.445454	-441.434702	-441.433758	-441.482644	37.987	
O	 0.201470833	 1.3347932271	 0.3719725392	-0.420214
C	-0.0177038129	-0.0664000727	 0.4106349969	-0.055736
C	-1.2674349684	-0.4955142493	-0.3653131079	-0.210603
C	-1.4461943403	-1.9963310697	-0.3543666421	-0.024681
N	-2.0639883718	-2.5931610024	 0.8459257967	-0.341947
C	-2.7527772999	-2.7035421562	-0.4548284722	-0.024681
C	-4.0988052455	-2.0280403234	-0.5830180713	-0.210601
C	-5.2229153413	-2.8838371559	 0.0103194764	-0.055737
O	-6.5044449643	-2.2949196582	-0.1437341908	-0.420214
H	-0.5283241846	 1.757614599	 0.835513315	 0.280565
H	 0.8750527359	-0.5156091435	-0.0396576345	 0.105888
H	-0.0837683438	-0.4383752601	 1.4443197431	 0.100771
H	-2.14459322	-0.0144221058	 0.0812479398	 0.091479
H	-1.1861061226	-0.1333923916	-1.3974750673	 0.106348
H	-0.6010417269	-2.5371692687	-0.7824328255	 0.081963
H	-1.6090891317	-3.468223762	 1.0897330125	 0.230382
H	-2.7075445488	-3.6773506768	-0.9444004346	 0.081962
H	-4.0791723623	-1.0615696837	-0.067438695	 0.09148
H	-4.322278287	-1.8308484275	-1.6386128153	 0.106349
H	-5.277096974	-3.8455693006	-0.5128461158	 0.105889
H	-4.9996531198	-3.0992577574	 1.0662470605	 0.10077
H	-6.5177987729	-1.4843308705	 0.3749336922	 0.280565
