19
gdb 48979	3.23668	1.44877	1.28753	2.7724	79.58	-0.2457	-0.0217	0.2239	1037.1325	0.161391	-385.911155	-385.903796	-385.902852	-385.942982	29.602	
O	-0.0791220862	-0.0071372476	-0.0587607045	-0.254376
C	 0.0191630737	 1.1886216809	 0.0654863319	 0.056951
C	 1.3064102962	 1.9567929308	 0.0516137514	 0.20728
C	 2.6227564004	 1.1186302935	-0.0069323025	-0.238402
C	 3.6776442603	 2.1598700915	-0.4885321074	-0.215687
C	 2.8331198532	 3.4710667045	-0.6443103187	-0.066522
C	 1.5073088528	 2.8898629071	-1.1839985496	-0.249665
C	 2.4001990007	 3.8698864901	 0.7563945327	-0.085127
C	 1.4879571137	 2.9850972526	 1.1691395514	-0.127009
H	-0.8891694778	 1.8244301542	 0.1893005094	 0.071641
H	 2.8618547521	 0.6846606668	 0.965754896	 0.104935
H	 2.5051240332	 0.2938675078	-0.7133826182	 0.117882
H	 4.5006546614	 2.2888594307	 0.2180558307	 0.100796
H	 4.1106688009	 1.8703012089	-1.4506711274	 0.101311
H	 3.3107123074	 4.2479973933	-1.2422338545	 0.064913
H	 1.6167429147	 2.3324613328	-2.1197947995	 0.102561
H	 0.7177971718	 3.638514989	-1.2825952231	 0.102861
H	 2.8542690578	 4.6603808215	 1.3413721315	 0.101022
H	 1.0450591837	 2.8982806716	 2.1538143805	 0.104635
