18
gdb 115039	1.99257	1.66465	0.97599	1.8015	72.2	-0.2469	-0.035	0.2119	1201.37	0.146783	-439.109998	-439.101032	-439.100087	-439.144958	31.599	
C	-0.2432992416	 1.5680398349	 0.0515937425	-0.394192
C	-0.0737112533	 0.0513287315	-0.0689681583	-0.189087
C	 0.6251035176	-0.5575500477	 1.1400483556	 0.088364
O	-0.1812963701	-0.3131284538	 2.3359718642	-0.225433
C	-0.4579537206	-1.5217890324	 2.8610088598	 0.12195
N	 0.0127848511	-2.5728874587	 2.330825332	-0.282056
C	 0.8061724745	-2.1165952322	 1.1792355344	-0.099603
C	 0.4159863381	-2.8897623408	-0.077268245	 0.139161
O	 0.845825086	-2.6498900735	-1.1759959049	-0.245816
H	 0.7277217685	 2.0682199733	 0.1390533601	 0.116644
H	-0.7473448693	 1.9726080989	-0.8306169124	 0.118847
H	-0.8351324981	 1.8288987005	 0.9330391166	 0.132792
H	-1.0518559377	-0.4295618505	-0.19469866	 0.103902
H	 0.5122631549	-0.2035854525	-0.9568373995	 0.136927
H	 1.581478447	-0.0540076602	 1.3089597788	 0.101861
H	-1.0949319476	-1.4961030473	 3.738608399	 0.147026
H	 1.862760383	-2.3649893144	 1.3504780424	 0.125477
H	-0.2869502527	-3.728492815	 0.1139620947	 0.103237
