19
gdb 12535	3.3607	1.80474	1.2521	2.3096	72.62	-0.2395	0.02	0.2595	989.9919	0.16703	-365.074179	-365.066292	-365.065348	-365.106562	29.501	
C	-0.1854126854	 1.509152099	 0.0368099974	-0.404579
C	 0.0313782729	-0.0106970475	-0.0000635305	 0.011987
C	 0.6962751029	-0.447075105	-1.3091455772	-0.202347
C	 0.7321072537	-1.9629832042	-1.5296914723	-0.157822
N	 1.5146846248	-2.7903600646	-0.6276168503	-0.24313
C	 1.5232963423	-2.6974615361	 0.6279296508	 0.11421
O	 0.9340084476	-1.8244887557	 1.4931834369	-0.233847
C	 0.8679754234	-0.4243724883	 1.2099930068	-0.056736
H	 0.7689087696	 2.046204831	-0.0173251645	 0.118364
H	-0.7953835572	 1.8354365903	-0.8106356007	 0.119894
H	-0.6926462309	 1.8211003556	 0.9556142843	 0.115908
H	-0.9457303582	-0.5071606224	 0.0838564286	 0.080769
H	 0.1579122437	-0.0041945103	-2.1566649718	 0.094788
H	 1.7192285295	-0.0472063367	-1.3478062119	 0.09803
H	-0.3006019205	-2.3445928608	-1.5123914778	 0.110973
H	 1.1050674324	-2.1563793048	-2.5414896788	 0.105352
H	 2.0444717779	-3.4624674561	 1.2063489641	 0.113689
H	 1.8921996341	-0.0404968351	 1.0925623697	 0.102721
H	 0.4503001473	 0.0077532717	 2.1235874174	 0.111776
