21
gdb 108379	2.28039	1.36563	1.08216	1.0239	89.18	-0.2378	0.0518	0.2896	1241.3657	0.181437	-349.902247	-349.892975	-349.892031	-349.936129	35.626	
C	 0.1597938628	 1.5204133969	 0.1648170137	-0.373459
C	-0.0952775551	 0.0226810337	-0.0536452428	-0.297645
C	 0.5968934364	-0.5174032373	-1.2755170588	 0.362658
C	 0.1959058737	-0.2096522271	-2.7292398922	-0.292002
C	 0.5580273326	-1.6794190686	-3.1238790457	-0.232286
C	 0.9614668042	-1.94473872	-1.6712160072	-0.134175
C	 2.0499720145	-0.9738480779	-1.2357067683	-0.261825
C	 3.0717259924	-0.4819949802	-2.1147418825	 0.341533
C	 3.9242831794	-0.0646644173	-2.8551925296	-0.465334
H	 1.2276239192	 1.7215142097	 0.2975302183	 0.12382
H	-0.1832872786	 2.1076180412	-0.693438473	 0.120806
H	-0.3678018343	 1.8852677692	 1.0513397782	 0.111064
H	 0.2333891264	-0.5413367962	 0.8286522624	 0.096247
H	-1.1754842664	-0.1549650817	-0.1453544051	 0.096599
H	-0.8732657602	-0.005118391	-2.8274459055	 0.098839
H	 0.7584577178	 0.5852910854	-3.2257800923	 0.10906
H	-0.3175550354	-2.2551708547	-3.4305277598	 0.101544
H	 1.3478309914	-1.8063333508	-3.8692089715	 0.110891
H	 0.8141601776	-2.8689118528	-1.1229969122	 0.085496
H	 2.3911823674	-1.1635592586	-0.2201502337	 0.10655
H	 4.6813527643	 0.302091418	-3.5027615322	 0.19162
