21
gdb 113957	2.86729	1.02152	0.85402	2.7668	79.09	-0.2451	0.0738	0.3189	1423.4002	0.181576	-424.176617	-424.167236	-424.166292	-424.211826	35.035	
O	 0.2937530499	 0.5133498642	 0.7694409109	-0.428082
C	-0.0526416999	 0.0145626322	-0.5110941472	-0.067551
C	-1.4431078733	-0.5931737239	-0.5302679087	-0.072813
C	-1.6882532558	-1.886331499	-1.2891284388	-0.330858
C	-1.6553960895	-1.8727251722	 0.2169602683	 0.123787
O	-0.5365150502	-2.3616290578	 0.9089119688	-0.262637
C	-0.6243126753	-3.7138305448	 1.2593121045	 0.148932
C	-0.1371221686	-4.769847548	 0.3036771394	-0.283448
C	 0.665083158	-4.4111543534	 1.5403203022	-0.293866
H	 0.2778460324	-0.2509922591	 1.3580540355	 0.290427
H	-0.0037365114	 0.8661658037	-1.1977122873	 0.105639
H	 0.6791134076	-0.7289925913	-0.8586122084	 0.08456
H	-2.2559668533	 0.1253243849	-0.4845768286	 0.093907
H	-2.6395194192	-2.039085772	-1.7871042698	 0.113533
H	-0.8348467458	-2.318134167	-1.800374024	 0.118804
H	-2.5941165147	-2.0157653546	 0.751666155	 0.089008
H	-1.4876143046	-3.9473661521	 1.8824389017	 0.089197
H	-0.657976154	-5.7205026447	 0.2717293269	 0.115434
H	 0.2528418488	-4.432377225	-0.64904365	 0.121095
H	 1.5690532445	-3.8321351943	 1.3890781193	 0.127057
H	 0.7059145244	-5.1114467159	 2.3666407803	 0.117875
