21
gdb 107264	3.11828	1.39272	1.24522	1.5605	80.98	-0.2399	0.0875	0.3274	1117.1819	0.183995	-387.043	-387.035197	-387.034253	-387.075197	31.717	
C	-0.29507041	 1.4802289223	-0.0229667111	-0.376294
C	 0.2008761294	 0.0289079769	 0.0162719926	-0.275442
C	 0.8073597061	-0.434365425	-1.2874206443	 0.388755
C	-0.0387374041	-0.9661979838	-2.418901455	-0.361619
C	 0.9233009106	-1.8909454172	-1.7088490009	-0.111625
C	 2.412462436	-1.8957044752	-2.1031260449	 0.06663
C	 2.6272229652	-0.6355538699	-2.9690427961	-0.246027
C	 2.2696005601	-0.0228177848	-1.598767291	 0.000242
O	 3.0134124109	-1.1393770967	-0.9859196735	-0.3041
H	 0.5188801593	 2.1752617654	-0.2563686164	 0.114487
H	-1.0691276219	 1.6112399576	-0.786575229	 0.115666
H	-0.7180038165	 1.7793107633	 0.941155146	 0.111418
H	 0.9486727799	-0.0909176173	 0.8104252663	 0.110526
H	-0.6335785435	-0.6331110059	 0.279450746	 0.092158
H	-1.0879194697	-1.1183461053	-2.1779015285	 0.108798
H	 0.1184337431	-0.6690115718	-3.448717033	 0.111382
H	 0.5459369343	-2.6963616322	-1.0894370187	 0.092666
H	 2.8993190141	-2.8506739053	-2.2984791886	 0.078532
H	 3.6858674206	-0.4960559179	-3.1846545125	 0.113199
H	 2.0227450977	-0.4438089875	-3.8557957048	 0.095992
H	 2.6093807383	 0.9600189704	-1.2715012225	 0.074657
