18
gdb 98080	3.31235	0.98327	0.81865	3.1634	71.39	-0.2538	-0.0747	0.1791	1420.8075	0.145075	-476.271644	-476.261224	-476.26028	-476.307827	36.015	
C	 0.0557165399	 1.3917918905	 0.0303831076	-0.336303
N	-0.0977289478	-0.0476555263	 0.0656847214	-0.300612
C	-1.2944568169	-0.6651553827	-0.0133671316	 0.334509
O	-2.3816182624	-0.1231775766	-0.1276625925	-0.371244
C	-1.1635245378	-2.1980796915	 0.0724148396	 0.269068
O	-0.080888962	-2.7219713263	 0.2414874304	-0.341246
C	-2.4261636263	-3.0298797972	-0.0493811908	 0.074246
C	-2.9998529548	-2.9340639518	-1.4769180558	-0.413051
O	-2.1554366932	-4.3641332677	 0.3006298168	-0.441743
H	 0.6885301789	 1.6994611053	-0.8087505522	 0.13667
H	-0.936926263	 1.8275192022	-0.09063883	 0.172217
H	 0.5001730718	 1.7646948178	 0.959389656	 0.137293
H	 0.7038216577	-0.6519473198	 0.1761368216	 0.268801
H	-3.1647071264	-2.6067993514	 0.6460577127	 0.116122
H	-2.261045797	-3.2737930679	-2.2096279703	 0.119095
H	-3.869425687	-3.5922741693	-1.540574442	 0.136119
H	-3.3020331159	-1.9106355101	-1.704950955	 0.149494
H	-1.1916785078	-4.441339467	 0.3548393941	 0.290565
