18
gdb 48548	2.92233	1.45853	1.40179	3.0606	76.52	-0.2393	-0.028	0.2113	1014.1304	0.149531	-401.926617	-401.919368	-401.918424	-401.958415	28.425	
O	-0.2651580708	 0.1482779734	-0.3947799955	-0.269738
C	-0.0233714509	 1.2627602877	 0.0059973365	 0.030414
C	 1.3214669187	 1.8417180059	 0.0787591358	 0.274034
C	 1.8413328667	 2.7537029159	 1.1434168911	-0.058464
C	 3.2493723812	 2.3361889925	 1.5610746669	-0.244328
C	 3.6251796358	 1.2017451726	 0.5673544565	-0.215078
C	 2.6442116593	 1.4136400185	-0.5916581236	-0.124405
C	 2.7229945933	 2.8762993054	-1.0932450797	-0.157755
N	 1.5949613115	 3.3215514541	-0.1944048159	-0.187714
H	-0.8256860952	 1.9509053731	 0.35609128	 0.077958
H	 1.1592672323	 3.1586464116	 1.8842687742	 0.107156
H	 3.9396465583	 3.18440008	 1.5030429808	 0.117249
H	 3.2513615021	 1.9963664949	 2.6001275968	 0.113468
H	 4.668976263	 1.2540866069	 0.2422750552	 0.102626
H	 3.4643535351	 0.2197299109	 1.0242900615	 0.113996
H	 2.6106492684	 0.6221087351	-1.3376103314	 0.0956
H	 3.6638334617	 3.4163331181	-0.9395225807	 0.10358
H	 2.3974469497	 3.0051537636	-2.1269349387	 0.121402
