14
gdb 1759	4.65386	1.96309	1.74562	4.5999	58.55	-0.2796	0.0312	0.3108	748.8023	0.112273	-324.575989	-324.568524	-324.567579	-324.60712	26.893	
C	-0.0987883425	 1.545073389	-0.0382761166	-0.455683
C	-0.0101512599	 0.028119411	 0.0148962582	 0.141133
C	 1.3400280083	-0.6539431434	-0.2211271616	-0.351827
C	 0.741035051	-0.642785342	 1.1552348355	 0.087765
O	 1.2471271931	 0.2097881381	 2.1318328021	-0.416026
C	-1.1741305841	-0.6708640137	-0.4708600425	 0.241667
N	-2.1099255578	-1.2279305673	-0.8618060525	-0.344484
H	 0.7786320879	 1.9846288179	 0.4371774924	 0.13969
H	-0.1582424994	 1.8916632375	-1.0737375912	 0.134282
H	-0.9862006654	 1.8984923712	 0.4939354881	 0.141766
H	 1.3589348457	-1.5834671532	-0.7775645049	 0.139246
H	 2.1708411629	 0.0186183247	-0.4056004735	 0.129346
H	 0.3173944218	-1.5747828666	 1.5261412695	 0.115856
H	 2.1014177283	-0.1325433232	 2.415730967	 0.297268
