20
gdb 119937	2.494	0.96563	0.85033	1.2099	82.31	-0.2231	0.0349	0.258	1447.1791	0.168114	-403.072086	-403.061756	-403.060812	-403.107696	37.322	
C	-1.7679820696	 0.8101454891	-0.6672123935	-0.318406
N	-0.7923215207	-0.2588838141	-0.4969301612	-0.105167
C	 0.3868544968	-0.3407681048	-1.3531598944	-0.013555
C	 0.7005829303	 0.6176260393	-2.4812442864	-0.20949
C	-0.0116486283	 0.2433155126	-3.778312661	-0.071816
O	 0.4309254441	 1.1425573016	-4.7822935811	-0.420133
C	 0.5216850476	 0.0593391323	 0.0945153797	-0.227356
C	 0.8860896497	 1.4036119667	 0.4494049991	 0.357272
C	 1.1907341773	 2.5183593562	 0.7855252541	-0.472525
H	-1.3481460483	 1.7926921819	-0.917082328	 0.121518
H	-2.4712031371	 0.5159216247	-1.4525277118	 0.122126
H	-2.328717201	 0.9145148132	 0.266597312	 0.128582
H	 0.6584516909	-1.3736911738	-1.5765062357	 0.092952
H	 0.4547881561	 1.6482698093	-2.2161178408	 0.122675
H	 1.7813905211	 0.5969704412	-2.6665650947	 0.116315
H	 0.2244824468	-0.8007326785	-4.0427910438	 0.086197
H	-1.1027967989	 0.3031269438	-3.6400582211	 0.091384
H	-0.0166411295	 0.9212543222	-5.6040169645	 0.286659
H	 0.8697621185	-0.6922320569	 0.8008794279	 0.112949
H	 1.466772414	 3.501468624	 1.0770155052	 0.19982
