20
gdb 112411	1.9472	1.50194	0.94235	4.5393	75.35	-0.2332	0.0373	0.2705	1270.9393	0.171531	-440.333231	-440.32397	-440.323026	-440.367324	34.614	
C	-0.7696450621	 1.3136198443	-0.0427656209	-0.413104
C	 0.0468883363	 0.0226115289	-0.0789063357	 0.005994
C	 1.2749038685	 0.049511334	-1.0066124937	-0.346499
C	 2.2594690744	-0.9456673697	-0.3835342479	 0.402021
O	 3.2805904947	-1.3747651218	-0.8728930598	-0.380718
N	 1.7680180589	-1.2537921826	 0.8600847005	-0.291905
C	 0.6294647823	-0.4557115357	 1.2838515194	 0.005703
C	 1.0598439194	 0.6482695095	 2.2524587246	-0.082312
O	 1.6597035521	-0.0098953576	 3.3598978859	-0.426098
H	-0.1628293044	 2.1720147067	 0.2642565534	 0.11969
H	-1.1705832432	 1.5364395021	-1.0365129042	 0.122042
H	-1.6185132644	 1.2358403511	 0.6450456113	 0.118775
H	-0.6078607773	-0.7858192429	-0.4240159875	 0.092755
H	 1.0559651326	-0.2175291206	-2.0423204293	 0.127976
H	 1.7569252055	 1.0350802238	-1.0227926944	 0.122111
H	 2.357386187	-1.7128574934	 1.5377677678	 0.256145
H	-0.0936503878	-1.0857410691	 1.815750293	 0.090848
H	 1.7716762448	 1.3273723417	 1.7579708039	 0.091865
H	 0.1854509587	 1.238173964	 2.5648717582	 0.091845
H	 2.0288965338	 0.6543154574	 3.9485745453	 0.292864
