18
gdb 112294	2.8703	1.31407	1.00374	4.2256	72.28	-0.2425	0.0072	0.2497	1200.4642	0.148156	-439.109114	-439.100789	-439.099845	-439.14234	31.233	
C	-0.0758386154	 1.5517414433	 0.0893686797	-0.397233
C	-0.0879465843	 0.0251716784	-0.027118532	-0.174397
C	 0.7026185976	-0.5101856428	-1.2284795103	 0.005645
N	 2.1285703807	-0.1973230853	-1.1854361595	-0.336161
C	 2.9915066986	-1.2520316696	-1.3378708795	 0.435653
O	 4.1970797744	-1.1977301934	-1.4292981403	-0.379007
C	 2.1138097341	-2.4907246294	-1.3822688589	-0.100323
O	 1.3432645384	-2.6442822295	-0.1740740905	-0.244725
C	 0.721952075	-2.036076098	-1.3039972516	 0.026089
H	 0.9347939462	 1.9375072193	 0.2619727161	 0.117415
H	-0.4674752244	 2.0267463039	-0.8172411704	 0.118173
H	-0.6925480184	 1.8818155193	 0.9301137443	 0.126168
H	 0.3208444998	-0.4336023257	 0.8785818104	 0.126297
H	-1.1229176319	-0.3253244578	-0.1262404982	 0.102566
H	 0.2581312624	-0.1200748746	-2.1573241022	 0.086783
H	 2.4852475828	 0.7355559163	-1.0571333767	 0.255306
H	 2.4639570141	-3.3994421995	-1.8582218224	 0.121943
H	-0.1167254998	-2.571564635	-1.7383321481	 0.109807
