21
gdb 106599	4.54815	0.94674	0.93886	1.0552	79.89	-0.2432	0.0911	0.3342	1360.0565	0.181194	-424.160163	-424.150934	-424.14999	-424.194274	34.612	
C	 0.011377889	 1.3391768505	-0.0034532936	-0.262714
O	 0.0563303559	-0.0735188927	-0.0731710988	-0.288157
C	 0.6747053162	-0.5621155609	-1.1974017332	 0.451775
C	 2.163525476	-0.3754807246	-1.6511981248	-0.355594
C	 1.4964676952	-1.3233235082	-2.6716551331	 0.451775
C	 0.8256610293	-2.0745278694	-1.4703557147	-0.355591
C	 0.254719117	-0.3692947018	-2.6937713912	-0.368619
O	 2.1769675824	-1.854795027	-3.7391143585	-0.288159
C	 1.3939765538	-2.6947277727	-4.5661748655	-0.262713
H	 1.0194576634	 1.7766495359	 0.0060536147	 0.114705
H	-0.5487249306	 1.767842169	-0.8462713741	 0.113836
H	-0.4964153221	 1.5952341774	 0.9286894142	 0.129494
H	 2.4553869054	 0.6081877593	-2.0274551958	 0.092476
H	 2.9289711519	-0.8153644199	-1.0073450393	 0.09656
H	 1.4943730426	-2.6244397464	-0.8037437198	 0.096556
H	-0.0986070423	-2.6217326185	-1.6719750903	 0.092476
H	-0.7061997923	-0.8021045896	-2.9833555966	 0.091932
H	 0.4136159407	 0.6170357012	-3.1370047704	 0.091925
H	 2.046440858	-3.0503446977	-5.3662600697	 0.129494
H	 1.0034548712	-3.5594099986	-4.0116201549	 0.114688
H	 0.5476654596	-2.1509579653	-5.0087427647	 0.113854
