23
gdb 121227	2.12737	1.08074	0.77266	1.4547	82.47	-0.2436	0.0697	0.3133	1563.6312	0.204218	-425.397806	-425.387263	-425.386319	-425.434817	36.948	
C	-0.043381781	 1.3400655294	 0.5196318837	-0.389042
C	-0.0771499246	-0.1897022707	 0.4392028143	-0.195317
C	-1.4300892339	-0.7167448058	-0.0285170357	-0.026034
C	-1.7556710981	-0.6109086209	-1.5366974172	-0.080436
O	-1.872098331	-2.0444246923	-1.664759449	-0.297821
C	-1.6178644831	-2.242170346	-0.2567907391	 0.096752
C	-0.452521999	-3.1930944422	-0.0441477139	-0.076387
O	-0.280522564	-3.3677200338	 1.345458762	-0.236004
C	 0.7609447831	-4.2603304989	 1.6623633064	-0.22452
H	 0.9378917134	 1.6993237077	 0.8441570785	 0.113983
H	-0.2570907628	 1.7963904922	-0.453663002	 0.11631
H	-0.7881936263	 1.7152836658	 1.2302801758	 0.116144
H	 0.7099276815	-0.5327926789	-0.2440387402	 0.095429
H	 0.1536816093	-0.6245849452	 1.4180259659	 0.114916
H	-2.2185719032	-0.3014970594	 0.6058981701	 0.07562
H	-2.6924055726	-0.1020628114	-1.7950647855	 0.098922
H	-0.9507060768	-0.2100088242	-2.167602187	 0.096116
H	-2.4974983516	-2.6540126104	 0.2560155993	 0.079767
H	-0.6857225386	-4.1507168923	-0.5400166565	 0.095479
H	 0.4648626348	-2.8022355358	-0.5118771779	 0.088092
H	 0.8149006835	-4.3285953173	 2.7516414526	 0.126821
H	 0.5752173472	-5.2650165439	 1.2510747445	 0.106406
H	 1.7318148635	-3.9083093258	 1.2791815208	 0.104801
