23
gdb 121804	3.12526	0.74444	0.70141	4.2931	87.34	-0.2374	0.0367	0.274	1754.854	0.203656	-384.48448	-384.47318	-384.472236	-384.521379	40.587	
C	 0.1806805756	 1.5315925861	 0.0438140547	-0.382285
C	 0.0299496885	 0.0096930256	-0.0112453355	-0.180277
C	-1.4321789297	-0.4401191803	 0.0126136636	-0.123059
N	-1.5062511753	-1.900747849	 0.0018906926	-0.317224
C	-2.8454705916	-2.5149837186	-0.0144627031	 0.108102
C	-3.6108344807	-2.1632443448	 1.2785869076	-0.395837
C	-3.7015026068	-2.1638491223	-1.2578457355	-0.406891
C	-2.6149216495	-3.9768869533	-0.0254994209	 0.275717
N	-2.4478545503	-5.1196515767	-0.0597708697	-0.3411
H	 1.2344072492	 1.8240529826	 0.0190203056	 0.118777
H	-0.3180022757	 2.0141710937	-0.8039514532	 0.116146
H	-0.255696875	 1.9407794837	 0.961620289	 0.11761
H	 0.5087916256	-0.3732226592	-0.9230468464	 0.094891
H	 0.552599223	-0.4576765722	 0.8306157302	 0.114285
H	-1.9014086239	-0.0724530809	 0.9322115336	 0.108343
H	-1.9683299868	 0.0371137241	-0.8270954719	 0.081735
H	-0.973715099	-2.257604976	-0.7856409236	 0.222861
H	-3.8858195826	-1.1056864495	 1.280519449	 0.124493
H	-4.5290329637	-2.7510447206	 1.3470509839	 0.134504
H	-2.9902661244	-2.3705413176	 2.1528223554	 0.142718
H	-3.1726004433	-2.4265721121	-2.1784274693	 0.126118
H	-4.6515723474	-2.7052297613	-1.2437744243	 0.134314
H	-3.9196279062	-1.0929004313	-1.2726938118	 0.126057
