20
gdb 54265	2.36125	1.42451	1.34982	2.7865	74.29	-0.2276	0.0363	0.2639	1099.2805	0.171231	-440.339632	-440.330395	-440.329451	-440.373825	34.792	
C	-0.2440069129	 1.6870141042	 0.0113554728	-0.429475
C	 0.031664917	 0.183795943	-0.0319921184	 0.299472
C	 0.9301352686	-0.2546455054	-1.2024259796	-0.255238
C	 1.6857825458	-1.4519137606	-0.6111906891	-0.235573
C	 1.8761462894	-1.0078408817	 0.8416959512	-0.074706
O	 0.7380150353	-0.1998978752	 1.1652482914	-0.319854
C	-1.3293733476	-0.5519493644	-0.1089505235	 0.357948
N	-1.6628975321	-1.2335047234	 1.0142755665	-0.520866
O	-2.0272129514	-0.4865137741	-1.1051778649	-0.387978
H	 0.698113763	 2.2419238363	 0.0288023309	 0.113723
H	-0.823278413	 1.981413509	-0.8669922112	 0.14309
H	-0.8151152775	 1.9479571744	 0.9072624877	 0.122737
H	 0.3360701918	-0.4905086692	-2.0855828444	 0.13585
H	 1.6257733726	 0.5526712503	-1.455701294	 0.096974
H	 1.0687572481	-2.3552294639	-0.6580406433	 0.116635
H	 2.6323568168	-1.6623090555	-1.1141571283	 0.105235
H	 1.9271213484	-1.8408365285	 1.5505272489	 0.103466
H	 2.7895687326	-0.40693076	 0.9576578768	 0.099702
H	-1.0478436885	-1.1974746388	 1.8093937087	 0.270051
H	-2.5673881866	-1.6699807366	 1.0719025217	 0.258808
