12
gdb 133507	3.88577	0.65827	0.62707	2.7844	60.8	-0.2811	0.0007	0.2818	1671.0314	0.071325	-529.780879	-529.771918	-529.770974	-529.81719	30.659	
F	 0.1315196396	 0.0245233166	 0.0544829694	-0.071255
C	-0.0079690518	 1.3568718472	 0.005060538	 0.265281
F	 1.2167778166	 1.8870148575	-0.1115898329	-0.068977
F	-0.6833835287	 1.6503875755	-1.1142447009	-0.069411
C	-0.6962196194	 1.8606989824	 1.1898206797	-0.161407
C	-1.2631689175	 2.2750176822	 2.1626807661	 0.162429
C	-1.9578453666	 2.7679017334	 3.3524365857	-0.504893
C	-1.9760879944	 4.227325359	 3.4495687871	 0.311466
C	-1.9971629855	 5.4235691562	 3.5392480996	-0.425917
H	-2.9866125943	 2.3828996948	 3.3495047509	 0.176384
H	-1.4810669468	 2.3420274872	 4.2456976414	 0.17635
H	-2.0142403411	 6.482881548	 3.6151321957	 0.209949
