14
gdb 28846	3.29295	1.42501	1.09509	6.4198	74.67	-0.2415	-0.0682	0.1733	1052.9599	0.102821	-432.912868	-432.905349	-432.904405	-432.944916	28.285	
N	 0.0335040319	 1.2954097981	 0.2745832004	-0.529578
C	-0.0189579281	-0.0341131809	-0.0010206391	 0.384117
N	-1.1987736619	-0.5927316016	 0.0030836887	-0.331488
C	-1.4148555371	-1.9086825828	-0.2829610173	 0.074377
N	-0.6985505628	-2.9653391718	-0.1027208974	-0.260578
C	 0.6091467487	-2.9533666002	 0.3536959262	 0.339172
O	 1.0413119307	-3.7550938484	 1.1539926038	-0.329115
C	 1.5302972155	-1.9588094763	-0.2688909189	-0.152664
C	 1.257464593	-0.6492054354	-0.3723988678	-0.111563
H	 0.9082473742	 1.7451896506	 0.4800506945	 0.27036
H	-0.8163837575	 1.7328820075	 0.5931895785	 0.273202
H	-2.4185909935	-2.084876071	-0.6753191643	 0.122788
H	 2.5176713081	-2.3298127733	-0.529415889	 0.138232
H	 2.0339414589	 0.0316393055	-0.7133874684	 0.112738
