19
gdb 105065	2.74271	1.27677	1.12096	1.2492	70.41	-0.2604	0.0607	0.3211	1161.0216	0.157204	-460.115922	-460.106721	-460.105776	-460.149792	35.013	
O	 0.0397291512	 1.3486388618	 0.4298923609	-0.419486
C	-0.0954421906	-0.0335379834	 0.6651451959	-0.146438
C	-1.3979334759	-0.5880075652	 0.0979723432	 0.323319
C	-2.583075388	 0.273529324	 0.0523813321	-0.220323
O	-1.7859699263	 0.0451416607	-1.1305639494	-0.290882
C	-1.5398182052	-2.0882335758	 0.1347042304	 0.304367
O	-1.5178295558	-2.6083029574	 1.4413947863	-0.460009
C	-2.4542170828	-2.7822238624	-0.8244391792	-0.303212
C	-0.9521938788	-2.9200638545	-0.9776530426	-0.326689
H	-0.2144510376	 1.4806478526	-0.4934655666	 0.291921
H	 0.7433048232	-0.603037688	 0.228529269	 0.090078
H	-0.0725417272	-0.1850320964	 1.7494022271	 0.118836
H	-3.5702722114	-0.1815431698	 0.0304042226	 0.123345
H	-2.5209318397	 1.2831458199	 0.448878787	 0.13185
H	-0.5988250468	-2.7179826473	 1.707774023	 0.287972
H	-2.9984364657	-3.6322901105	-0.4307954213	 0.123252
H	-2.9776661408	-2.1779786128	-1.555401527	 0.131636
H	-0.4797848419	-2.4064370615	-1.8076563189	 0.126106
H	-0.5029852201	-3.867808304	-0.7012529423	 0.114355
