21
gdb 89227	3.0262	1.61136	1.27293	1.2571	81.93	-0.2034	0.0849	0.2883	1071.6108	0.18385	-383.222233	-383.214238	-383.213294	-383.254088	32.281	
C	 0.0271339124	 1.4717639492	-0.0777965266	-0.325115
N	-0.026496778	 0.0286958611	 0.0500836016	-0.046832
C	-1.3844186131	-0.537832487	 0.0917524355	-0.246404
C	-1.224467937	-1.8288086203	 0.8905164039	 0.337932
C	-2.1442344857	-2.9873786946	 0.6131284068	-0.482153
C	 0.1978539392	-2.0022977743	 1.2405612783	-0.091935
C	 0.6497780138	-0.5306456291	 1.2163977427	-0.039878
C	-0.1693425744	-0.3809141095	 2.5335075406	-0.176332
N	-0.8090359963	-1.725283362	 2.3324339659	-0.192085
H	 1.0708167895	 1.8004687466	-0.1162699945	 0.117906
H	-0.4536055902	 1.775405333	-1.0135115372	 0.121305
H	-0.4730760961	 2.0147111242	 0.7465661124	 0.093783
H	-2.1130728847	 0.1395759653	 0.5718119707	 0.087766
H	-1.7554314879	-0.7411411701	-0.9205342908	 0.102593
H	-2.0666813461	-3.3073745667	-0.4315943577	 0.117464
H	-1.8969954229	-3.832616073	 1.2597602713	 0.131999
H	-3.1870149351	-2.7126916641	 0.8075622245	 0.122165
H	 0.7864185441	-2.9100454139	 1.1798130476	 0.088936
H	 1.7098866696	-0.2747039869	 1.2341992783	 0.074652
H	 0.4460859147	-0.4280737679	 3.4355865484	 0.107595
H	-0.8636180158	 0.46293357	 2.6176552284	 0.096639
