18
gdb 5603	3.27473	1.82901	1.29082	3.9891	74.12	-0.211	0.0346	0.2456	980.1498	0.155304	-344.029734	-344.021548	-344.020603	-344.062641	29.449	
C	-0.2333696718	 1.4861136135	 0.0024400469	-0.371113
C	 0.0730059019	-0.0234261176	 0.0224723281	-0.301175
C	 0.7803940338	-0.5250338344	-1.1957215768	 0.268404
C	 2.1050284286	-0.8063368793	-1.4262192585	-0.165247
N	 2.3117594942	-1.226138574	-2.7186339913	-0.273582
C	 1.1227955271	-1.2020498274	-3.2714069775	-0.005799
N	 0.1515305684	-0.785590274	-2.4042204926	-0.04014
C	-1.2610201711	-0.6776848928	-2.7026786154	-0.344732
H	 0.6887684116	 2.0639292507	-0.107904907	 0.129095
H	-0.8932380429	 1.7555965916	-0.8284928345	 0.115457
H	-0.7242138202	 1.7949033608	 0.9309090626	 0.114378
H	 0.7065301087	-0.2468990023	 0.8871742721	 0.119738
H	-0.8589827071	-0.5820472472	 0.1817360339	 0.10201
H	 2.9198065014	-0.7316157042	-0.7205873066	 0.10132
H	 0.8877172074	-1.4757924732	-4.2902640342	 0.119722
H	-1.8573347818	-1.2714245785	-2.0029313376	 0.143244
H	-1.6038901649	 0.3608955186	-2.6588747145	 0.143202
H	-1.4365916336	-1.0574381004	-3.7110100971	 0.145216
