15
gdb 34468	3.735	1.50956	1.27066	4.0738	69.56	-0.2329	0.0087	0.2415	960.7935	0.114653	-416.761171	-416.754479	-416.753535	-416.792218	26.513	
N	 0.0590993728	-1.071681898	 0.0072974437	-0.335919
C	 0.0084042302	 0.0844886294	-0.0063160662	 0.188291
C	-0.0519060475	 1.5132173225	-0.0225166528	 0.209554
N	-1.1437418168	 2.1623729395	 0.6989352302	-0.362232
C	-1.3545855565	 3.4667443872	 0.0243542962	-0.163673
C	-0.0491247239	 3.6768442834	-0.7304477482	 0.052494
O	 1.0316736251	 3.6467129242	 0.2641455428	-0.296239
C	 1.2762726424	 2.2956478325	-0.0750272765	 0.084902
C	 0.373848048	 2.2890038647	-1.2667141263	-0.210432
H	-1.9749070356	 1.5847219458	 0.6477527139	 0.238429
H	-2.2048852211	 3.4582522353	-0.6731757921	 0.103198
H	-1.5098238898	 4.2599596473	 0.7616454341	 0.131147
H	 0.0108672373	 4.5506775651	-1.3779151342	 0.104136
H	 2.248088772	 1.8632790771	 0.129895286	 0.132694
H	 0.4639342535	 1.9281655639	-2.2814116906	 0.123651
