17
gdb 85648	2.00396	1.67489	1.17986	5.7729	72.71	-0.2618	0.0017	0.2635	1095.921	0.137457	-418.073859	-418.06542	-418.064476	-418.107285	31.153	
C	 0.6728270477	 1.4256416969	-0.2085570851	-0.397185
C	 0.0139493293	 0.0549278657	-0.0236066261	 0.026233
C	 0.3071930959	-0.9457732937	-1.1727343776	-0.242816
C	 1.4982404569	-1.7955809679	-0.6678386858	-0.266889
C	 2.794776854	-1.3042945263	-1.125514753	 0.290948
N	 3.8072232893	-0.8905475696	-1.5002250852	-0.328698
C	 1.4015391785	-1.6809073757	 0.8855423971	 0.410715
O	 1.9869123258	-2.3629695984	 1.6892470218	-0.360495
N	 0.526924995	-0.666986054	 1.1348681317	-0.298374
H	 1.7498950146	 1.3265543707	-0.3733232704	 0.151524
H	 0.2367848944	 1.9435307461	-1.068715284	 0.126229
H	 0.5184371064	 2.0535711602	 0.6748205765	 0.12074
H	-1.0682608377	 0.1895318592	 0.0827767486	 0.095975
H	-0.552752001	-1.6032310496	-1.3198217899	 0.125598
H	 0.5146156571	-0.4390474124	-2.1157361267	 0.135084
H	 1.4125431872	-2.8494031607	-0.9432416369	 0.151545
H	 0.3900672966	-0.3510192804	 2.0828125552	 0.259865
