16
gdb 7662	3.22902	2.25246	1.57321	2.9749	60.67	-0.2456	0.0479	0.2935	818.9776	0.129163	-420.802313	-420.795071	-420.794126	-420.833122	29.006	
C	-0.0640544639	 1.5433903961	-0.0737068161	-0.477365
C	-0.0191346756	 0.0283373562	-0.0767537988	 0.424577
O	-1.2352566435	-0.5214547481	-0.5685704603	-0.489036
C	 1.2568015558	-0.6840175126	-0.6116991703	-0.060172
O	 1.9699400738	-0.1875207384	 0.5811911341	-0.300066
C	 0.693881894	-0.6958264505	 1.120201445	-0.086319
C	 0.9206018617	-1.966715897	 0.2292229545	 0.165629
O	-0.0633344101	-2.8815672686	-0.0935137543	-0.435152
H	 0.8874240951	 1.9526635195	 0.2656128943	 0.15322
H	-0.2823642702	 1.917373545	-1.0788357784	 0.128327
H	-0.8538693186	 1.9033784435	 0.5982413546	 0.108427
H	-1.969102375	-0.0725923493	-0.1354608101	 0.289903
H	 1.75135101	-0.5737683961	-1.5778675379	 0.09275
H	 0.5286208015	-0.5988525809	 2.1948279818	 0.087166
H	 1.825150297	-2.5036812738	 0.518406585	 0.104726
H	-0.8396490819	-2.371992675	-0.3668265733	 0.293386
