18
gdb 22360	2.30561	1.32783	0.88778	1.4391	82.31	-0.221	-0.0288	0.1922	1301.7406	0.146506	-439.06722	-439.057998	-439.057053	-439.101759	33.989	
C	-0.0175788227	 1.4862465455	 0.0687617906	-0.487514
C	-0.0012357465	-0.0031825514	-0.0245045659	 0.307618
C	-0.0404914972	-0.7452234319	-1.1466028405	-0.258375
C	 0.0031504325	-2.1602982384	-0.8221104994	 0.363859
N	 0.036609257	-3.2055364411	-1.5573380426	-0.261403
O	 0.0401762265	-2.8839528147	-2.9257876341	-0.393795
C	 0.0612009282	-2.3216798524	 0.6952191271	 0.049886
O	 1.2363223231	-2.9949177775	 1.1177734083	-0.434486
C	 0.0760937922	-0.8677433158	 1.2152667759	-0.322587
H	 0.8854280203	 1.854284698	 0.5723973364	 0.137347
H	-0.0792501596	 1.9563583896	-0.91568131	 0.131447
H	-0.8678292734	 1.8307496549	 0.6712230858	 0.133983
H	-0.084143769	-0.367812146	-2.1589381244	 0.115982
H	 0.0440766684	-3.7529409818	-3.3402898575	 0.305254
H	-0.831403388	-2.8588855225	 1.0474319767	 0.081976
H	 1.3451666653	-3.7465693673	 0.522757585	 0.288064
H	 1.0035871515	-0.6915286154	 1.7729853829	 0.131537
H	-0.7518963188	-0.6572991219	 1.9026954257	 0.111207
