19
gdb 81842	2.26946	1.59844	1.21009	3.3134	76.	-0.2325	-0.0245	0.208	1095.1439	0.157345	-423.001461	-422.992432	-422.991488	-423.035149	33.91	
C	-0.1936716563	 1.5196428923	 0.1430483005	-0.402848
C	 0.0771437195	 0.0225563962	 0.0504331203	 0.012447
C	 0.6732322969	-0.5537580982	-1.2414520974	-0.158552
C	 2.1222828107	-0.1356756757	-1.4070649413	-0.316823
C	 1.7947005108	-1.2314013542	-0.4526843021	 0.392147
O	 2.4000914395	-2.4630288435	-0.5766971845	-0.451161
C	 1.2385688738	-0.6533932935	 0.8831903314	-0.188874
C	 2.2452326733	 0.1403551263	 1.6672323848	 0.14094
O	 2.5270543678	 1.299153509	 1.4726663801	-0.255666
H	 0.6869542188	 2.1148112552	-0.100128594	 0.142147
H	-1.0008390583	 1.7899700492	-0.5472251034	 0.107388
H	-0.5098479643	 1.8008574501	 1.1528573519	 0.113793
H	-0.8440945299	-0.5175365038	 0.2940264938	 0.077213
H	 0.1000070445	-0.9297503141	-2.0806129816	 0.0899
H	 2.5830147896	-0.4938415035	-2.3217555047	 0.12218
H	 2.4804500527	 0.8289661406	-1.0608422409	 0.136929
H	 1.7754521376	-3.1419258902	-0.2963791491	 0.28538
H	 0.8542265625	-1.4613420643	 1.5155506036	 0.073825
H	 2.7883742109	-0.445687568	 2.4449396126	 0.079635
