21
gdb 52768	3.35793	1.05437	0.89529	0.2774	93.04	-0.2353	0.0552	0.2905	1396.648	0.181832	-349.882003	-349.872673	-349.871728	-349.917249	34.87	
C	 0.173629515	 1.473419343	 0.0618548708	-0.504945
C	 0.1099949308	 0.0183639795	 0.0579421023	 0.14268
C	 0.0467589044	-1.1856561699	 0.0641380539	-0.0632
C	 0.0423924064	-2.6450244118	 0.007625691	 0.202403
C	 1.1323535836	-3.0901038168	-0.9773773779	-0.482019
C	-0.1280154615	-3.4065903026	 1.3843016708	-0.067005
C	-1.5818963875	-2.8526173914	 1.4394961377	-0.230184
C	-1.3748492004	-3.3484770813	-0.0216439533	-0.067022
C	-0.717613847	-4.613974443	 0.6002329017	-0.250401
H	 0.9947437935	 1.8387775965	-0.5651022805	 0.145615
H	-0.7539815838	 1.914983585	-0.3197061579	 0.145882
H	 0.3323815336	 1.863793691	 1.0734905292	 0.145881
H	 2.1067911227	-2.7167221395	-0.647544555	 0.124491
H	 1.2044214378	-4.1730007639	-1.0861491125	 0.1151
H	 0.9378896153	-2.6620943888	-1.9656677937	 0.124508
H	 0.6023042339	-3.4314961628	 2.195231338	 0.070309
H	-2.2878440941	-3.4292142828	 2.041719054	 0.085111
H	-1.6995361228	-1.7796022109	 1.5881108386	 0.109847
H	-2.0923176256	-3.3059139044	-0.8432410011	 0.070305
H	-0.049838258	-5.2135041616	-0.0167507846	 0.092194
H	-1.3914151261	-5.2571340036	 1.1711992584	 0.090451
