18
gdb 62128	4.28407	0.81268	0.75502	1.9378	70.69	-0.2614	0.0204	0.2818	1503.0801	0.145864	-476.180639	-476.171099	-476.170155	-476.216669	33.379	
O	 0.8732440174	 1.3841351575	-0.7119241616	-0.440224
C	 0.0207102311	 0.4417829313	-0.0764634837	 0.070419
C	-0.051846297	-0.8461138476	-0.9053375052	-0.108549
O	-0.5170262666	-0.525682679	-2.2140184973	-0.192626
C	 0.4140782083	-0.3820757757	-3.1813950446	 0.111787
N	 0.103445445	 0.1736055066	-4.2710190012	-0.443235
C	 0.576590007	 0.2184631771	 1.3156239006	 0.081716
C	 0.1346927961	-0.8630250864	 2.2027500577	-0.188395
O	 1.3999460757	-0.9300043615	 1.5406997688	-0.223952
H	 0.4231461773	 1.7020956067	-1.5022921857	 0.305288
H	-0.9951413609	 0.856278681	 0.0204179926	 0.090294
H	 0.9364152117	-1.3149193537	-0.9409169046	 0.134651
H	-0.7665524972	-1.5567932424	-0.4819282328	 0.1167
H	 1.3920690373	-0.8004430468	-2.9105047867	 0.099057
H	 0.9005847345	 0.1635618151	-4.9039530147	 0.231573
H	 0.9545064975	 1.1352280513	 1.767545042	 0.113267
H	 0.1768498665	-0.7192329449	 3.2811455209	 0.124034
H	-0.6094444738	-1.5825283485	 1.8649427153	 0.118196
