17
gdb 95934	2.2455	1.52751	1.21266	2.6644	68.44	-0.2394	0.0023	0.2417	1073.4386	0.136407	-455.144465	-455.13561	-455.134666	-455.178098	32.901	
O	 0.1965437699	 1.3221133955	-0.2135350106	-0.431403
C	 0.0772653583	-0.0506319579	 0.0060561446	 0.123347
C	 0.6043492945	-0.592969003	 1.3531780232	-0.222847
N	 0.0240170666	-1.9308671437	 1.4792158115	-0.285663
C	-1.3395758448	-1.8313022611	 0.94449436	-0.212711
C	-1.405748674	-0.5557009051	 0.029924312	 0.197019
O	-2.1471753024	 0.4994595037	 0.6400526413	-0.470506
C	-1.9392718349	-0.8414534028	-1.3051215038	 0.217915
N	-2.389311337	-1.0848586007	-2.3422750149	-0.335456
H	-0.5560518366	 1.7404311538	 0.2254719789	 0.297233
H	 0.603431034	-0.5600380983	-0.8091235434	 0.105555
H	 1.6944441643	-0.626904217	 1.3962544045	 0.117617
H	 0.2488223203	 0.049581525	 2.1687720671	 0.117298
H	 0.5603173514	-2.580232092	 0.9140022715	 0.228381
H	-1.6240973637	-2.7449377418	 0.4190945719	 0.128994
H	-2.0561699033	-1.6662871052	 1.7576795406	 0.121454
H	-3.0887928325	 0.3494857906	 0.5069112256	 0.303771
