18
gdb 66651	3.99103	1.57615	1.43243	0.4525	73.47	-0.2116	0.0754	0.287	941.7653	0.150306	-401.881164	-401.874562	-401.873618	-401.91173	27.864	
O	-0.0957663869	 1.4223959047	 0.0321185724	-0.459028
C	 0.0127338805	 0.0601124035	 0.025761651	 0.37919
C	-1.0521738437	-0.9935190817	 0.1525476809	-0.14855
C	-0.0365872211	-0.9852986786	-1.0406197487	-0.133674
N	 1.1819115203	-1.6707343603	-0.5757268658	-0.098433
C	 0.9663070163	-3.1152276998	-0.3413564877	-0.163211
C	-0.0280698304	-3.2443600343	 0.8612960573	-0.244503
C	-0.2858022409	-1.7795923705	 1.2233990858	-0.013751
C	 0.9670184459	-0.9740228295	 0.7392115401	-0.140088
H	 0.6225175029	 1.7874136685	-0.4980303665	 0.293369
H	-2.1186851264	-0.9069907543	-0.0103485019	 0.088519
H	-0.3431461456	-0.9418382834	-2.078286661	 0.092596
H	 0.5961372193	-3.5791887647	-1.259795198	 0.104059
H	 1.9295349069	-3.5792185062	-0.1055482169	 0.101352
H	-0.9510748301	-3.7665310374	 0.5924601993	 0.101142
H	 0.4265401318	-3.7922596567	 1.693033797	 0.096084
H	-0.6083810487	-1.5769568256	 2.2450904965	 0.073149
H	 1.8378414501	-0.7956061937	 1.3687062262	 0.071777
