19
gdb 73839	2.61996	1.79017	1.28789	1.4931	81.	-0.2128	0.0135	0.2263	1039.8159	0.158895	-385.856873	-385.848863	-385.847919	-385.889118	31.386	
C	 0.0749376788	 1.4929610459	 0.1286689309	-0.50411
C	-0.0741993585	 0.0097533331	 0.0044228821	 0.247517
C	-0.1336183657	-0.7443377269	-1.1123264756	 0.205758
C	-0.0547502727	-0.337256671	-2.5490138544	-0.507161
C	-0.0277768433	-2.1882758236	-0.6816024717	-0.009818
O	 1.3768790378	-2.3513765759	-0.1869714137	-0.300849
C	 0.9031059062	-2.1284091614	 1.1204078222	 0.099399
C	-0.5377064322	-2.2546053868	 0.7850365297	-0.160514
C	-0.056966083	-0.8843079397	 1.197078926	-0.187793
H	 1.0488509546	 1.7544631265	 0.5620767992	 0.132868
H	-0.0051480552	 1.9974503696	-0.8372773528	 0.124056
H	-0.6878872241	 1.915757167	 0.7944773728	 0.123064
H	-0.1032743261	 0.7477833743	-2.6721491191	 0.122357
H	 0.881236279	-0.6810404074	-3.0081379109	 0.135399
H	-0.872569245	-0.7764097597	-3.134770522	 0.120181
H	-0.2687568012	-2.9719920118	-1.3994464682	 0.074785
H	 1.522471921	-2.4489212299	 1.9495322216	 0.107781
H	-1.3634414895	-2.8165075321	 1.2020884652	 0.096406
H	-0.274504171	-0.5128832502	 2.1924651786	 0.080673
