14
gdb 791	7.73481	1.18757	1.0428	0.9081	69.69	-0.2248	-0.0214	0.2034	1093.1501	0.110277	-324.519277	-324.510558	-324.509614	-324.554872	28.751	
C	-0.0356216492	 1.4440093885	 0.0440400339	-0.504533
C	 0.0190242765	-0.0085128955	 0.0191885288	 0.159947
C	 0.0846415962	-1.2131277592	-0.0022398147	-0.023635
C	 0.0784706456	-2.6360698601	-0.0245430332	 0.200838
C	-1.2403179115	-3.3711035497	 0.0126050963	-0.475223
N	 1.224328151	-3.2238475245	-0.0765777992	-0.160234
O	 1.0686885534	-4.6127445307	-0.092733169	-0.394473
H	 0.9700311393	 1.8773809491	 0.0243937678	 0.156104
H	-0.5848624991	 1.8355149667	-0.8196531404	 0.152608
H	-0.5381899418	 1.8070877505	 0.9476319663	 0.152561
H	-1.3412937507	-4.0074687644	-0.8721613408	 0.148472
H	-1.2770364286	-4.0339255749	 0.8828375348	 0.148459
H	-2.0744739623	-2.6711579386	 0.0537551705	 0.128817
H	 1.9815552313	-4.9173866571	-0.1317380713	 0.31029
