14
gdb 130641	3.17369	1.82041	1.17356	3.6202	68.28	-0.2799	-0.0505	0.2294	961.8112	0.104609	-432.930079	-432.923562	-432.922618	-432.961459	24.335	
O	 0.0261252159	-0.0495121602	 0.0023443927	-0.300767
C	-0.0067606448	 1.1446498593	 0.0088778619	 0.424359
C	-1.2262723907	 2.08080426	 0.0316974194	-0.343342
C	-0.692837236	 3.542199238	 0.0314196045	-0.366478
C	 0.7888648992	 3.3423335123	 0.0082819098	 0.410501
N	 1.8757301351	 4.0711316843	-0.0042058638	-0.358793
C	 2.860918092	 3.1044393944	-0.0238545434	 0.039826
N	 2.451502518	 1.8479864427	-0.0241034692	-0.241189
N	 1.1042908068	 2.0188445739	-0.0031700407	-0.026931
H	-1.8486351866	 1.8563487433	-0.8381280732	 0.158474
H	-1.8228764974	 1.8472243907	 0.9170248861	 0.158468
H	-1.0299609886	 4.1102245661	-0.8399106865	 0.152533
H	-1.003712433	 4.1009270828	 0.9183869225	 0.152536
H	 3.9123692601	 3.3522064924	-0.0382711801	 0.140801
