23
gdb 64201	2.492	1.36202	1.29871	1.3135	85.26	-0.2487	0.0733	0.3219	1164.4337	0.204911	-388.276426	-388.267082	-388.266137	-388.309876	36.893	
C	-0.0995704141	 1.5444621027	-0.0121209167	-0.447522
C	-0.0193774651	 0.0200004608	-0.016403123	 0.335992
O	-1.3027095811	-0.5506788125	-0.1952663245	-0.478563
C	 1.1329192772	-0.5308143551	-0.9105769264	-0.278943
C	 2.0094216543	-0.6481932422	 0.3648502789	-0.296718
C	 0.7151435128	-0.5705409408	 1.2186663156	 0.362718
C	 0.7241500186	 0.035064965	 2.6433163654	-0.30137
C	 0.6946879474	-1.4059376206	 3.2213704848	-0.215097
C	 0.2256302759	-1.9125735955	 1.8315078867	-0.272529
H	 0.8791451021	 2.0002351425	 0.1662435172	 0.119571
H	-0.4595381736	 1.9114722687	-0.982066375	 0.102161
H	-0.7888491932	 1.8927867564	 0.7629650111	 0.122716
H	-1.7282240667	-0.1106187966	-0.9387720382	 0.272894
H	 0.8606740752	-1.5109600673	-1.3096715552	 0.106067
H	 1.494165845	 0.1035742463	-1.7251517446	 0.085395
H	 2.6179375797	-1.5496119263	 0.472002687	 0.097319
H	 2.6547045388	 0.2243445848	 0.5079631666	 0.096072
H	 1.5708781076	 0.6753678991	 2.9077514535	 0.088961
H	-0.2024900495	 0.5767836045	 2.8592642856	 0.10072
H	 1.6964940365	-1.7640894605	 3.4742838044	 0.099056
H	 0.0363627866	-1.5937020147	 4.0728191536	 0.093702
H	-0.8611343511	-1.9988836531	 1.7675020347	 0.118578
H	 0.674460757	-2.8315064358	 1.4438589883	 0.088821
