17
gdb 44380	3.49444	1.62288	1.37213	4.0421	71.09	-0.2294	0.0613	0.2907	945.3989	0.140012	-418.027498	-418.020722	-418.019778	-418.058559	27.833	
O	 0.0386070788	-0.0844587495	-0.0360050768	-0.414417
C	 0.0346564769	 1.1329669102	-0.0306224011	 0.424049
N	-1.1063062093	 1.8766025035	 0.1889677637	-0.345815
C	-1.2048505761	 3.3032936714	 0.0767322088	 0.032386
C	-0.5489346179	 4.2696258991	 1.0445280696	-0.091777
C	 0.7016474037	 3.6242261817	 1.6399539698	-0.252655
C	 1.1907918868	 3.28698441	 0.1762973662	-0.01935
N	 1.1695381655	 1.9005516846	-0.2426047674	-0.336701
C	-0.0089756198	 4.064164048	-0.3803064721	-0.087742
H	-1.9226640007	 1.3290492749	 0.4045990439	 0.250009
H	-2.1543420454	 3.6384487771	-0.3287375553	 0.105232
H	-1.082165729	 5.1233266457	 1.4448378262	 0.089793
H	 1.3581128782	 4.3470282435	 2.1299608289	 0.106068
H	 0.547898334	 2.7685614481	 2.3040937325	 0.109319
H	 2.1641963406	 3.7160590279	-0.0602616581	 0.090726
H	 2.0175445929	 1.3575986547	-0.1898489633	 0.247754
H	-0.005384929	 4.7093074991	-1.2495860455	 0.09312
