21
gdb 83778	2.64134	1.78413	1.59665	1.6694	79.91	-0.2496	0.0618	0.3115	962.0804	0.186181	-387.070982	-387.063769	-387.062825	-387.10209	30.457	
O	 0.1075128182	 1.4831588284	-0.1081568055	-0.446906
C	-0.0443117906	 0.08902776	 0.0081615566	 0.171749
C	 0.2196846342	-0.6626751645	 1.3497032504	-0.086807
C	-0.3687971579	 0.1230452583	 2.529832649	-0.223417
C	-1.8249587441	 0.5470397547	 2.1985869931	-0.232661
C	-2.3935368773	-0.421273971	 1.1539354799	-0.020983
C	-2.1006444349	-1.8796233653	 1.6131258626	-0.237133
C	-0.7805023921	-1.7719607979	 0.8337504328	-0.017656
C	-1.396996339	-0.6395324803	-0.0575035711	-0.090544
H	-0.4914732414	 1.9124284147	 0.5081206503	 0.280682
H	 0.5988220364	-0.3295575503	-0.7734693494	 0.08589
H	 1.2461569205	-0.9786541729	 1.5489109642	 0.060503
H	-0.3509630541	-0.5012726367	 3.4288967606	 0.104215
H	 0.255817314	 0.99565898	 2.7483426829	 0.100581
H	-2.4470626449	 0.5301197309	 3.1007287227	 0.099043
H	-1.8735040138	 1.5799464324	 1.8303344249	 0.084722
H	-3.4239306264	-0.1770132007	 0.8873160223	 0.062211
H	-2.0780400411	-2.0809040575	 2.6897584275	 0.087769
H	-2.7691720032	-2.6018769808	 1.1355170723	 0.097313
H	-0.3042949622	-2.660781014	 0.418249163	 0.061906
H	-1.8778861604	-0.8243212774	-1.019679829	 0.059521
