20
gdb 55796	4.27546	0.92969	0.86143	1.8878	80.05	-0.2278	-0.014	0.2138	1408.5107	0.170258	-403.085292	-403.076473	-403.075529	-403.120704	32.383	
C	 0.563609503	 1.5936942894	-0.131598701	-0.473558
C	 0.3346021739	 0.0928835122	-0.1318999294	 0.384515
O	-0.4739338832	-0.4316135072	 0.599820149	-0.291167
C	 1.1796127361	-0.7175713487	-1.1106980559	-0.376069
C	 0.9654298102	-2.2119776797	-0.9563037057	 0.106481
C	-0.1516601152	-3.0091013311	-1.675599549	-0.0652
C	 0.7105721237	-2.8508693552	-2.9457065172	-0.177307
N	 1.777695045	-3.1592642537	-1.8753890974	-0.173102
C	 0.763929677	-4.2218665257	-1.4043006751	-0.165951
H	 1.6009525408	 1.8185925056	 0.1411896274	 0.141127
H	 0.403336189	 2.0077429123	-1.1333568971	 0.137953
H	-0.1132333553	 2.0716471559	 0.5774202567	 0.143709
H	 0.9622520831	-0.3467184108	-2.1190610215	 0.121584
H	 2.2391947323	-0.4802134544	-0.9409324602	 0.133447
H	 1.1023030834	-2.4769115536	 0.0960433849	 0.082992
H	-1.2364557858	-2.9232352285	-1.5568293359	 0.072897
H	 0.6357271695	-3.6280767373	-3.7111687418	 0.100692
H	 0.8093413853	-1.8699964069	-3.4134183563	 0.095849
H	 0.9119967149	-4.5373736332	-0.3679177799	 0.102563
H	 0.6955057124	-5.0793292894	-2.0787289745	 0.098545
