20
gdb 113171	3.04502	1.00213	0.88272	2.4134	76.3	-0.2413	0.0226	0.2639	1405.6124	0.168595	-440.31692	-440.306595	-440.305651	-440.352522	37.35	
C	-0.299426469	 1.418412175	-0.6203223933	-0.377551
C	-0.1439309171	 0.1719447835	 0.2608886407	-0.218192
C	-1.3902365577	-0.67792629	 0.2472369552	 0.045466
O	-1.633976472	-1.479080134	-0.9215874345	-0.308252
C	-1.4253522143	-2.1569462202	 0.3331206919	 0.261787
C	-0.1998886197	-3.0261458739	 0.4711916561	-0.470372
C	-2.6825485343	-2.7730102068	 0.9348744731	 0.335569
N	-3.8201471024	-2.4810343119	 0.2506412226	-0.525853
O	-2.640960719	-3.4406223677	 1.9513645973	-0.371478
H	 0.6073989805	 2.029336031	-0.5969300868	 0.118106
H	-0.4923049328	 1.1341997867	-1.6590924915	 0.133596
H	-1.1329481137	 2.0434701656	-0.2820836948	 0.117831
H	 0.7136574109	-0.4144180394	-0.0785581838	 0.110066
H	 0.0577416109	 0.4675901069	 1.2983562052	 0.110931
H	-2.2852814409	-0.1588289449	 0.5986505465	 0.09403
H	 0.7054400396	-2.5129269293	 0.1468332125	 0.122224
H	-0.0969856673	-3.3330998594	 1.5140136824	 0.155093
H	-0.3155675162	-3.9319125561	-0.1327019564	 0.131976
H	-3.7464814248	-2.0595148972	-0.6608301944	 0.27328
H	-4.6817820409	-2.9069182679	 0.5480969719	 0.261744
