21
gdb 101889	5.15958	0.52354	0.5028	3.9417	77.36	-0.2752	0.0098	0.285	2138.0039	0.179665	-461.38215	-461.371148	-461.370204	-461.420071	37.585	
C	-0.1661233728	 1.5561068293	-0.0232583537	-0.395826
C	-0.0409172993	 0.0259518294	 0.0000388367	 0.029617
C	 0.8542496041	-0.4621928582	-1.1417043787	-0.078636
O	 0.2620010576	-0.0717475069	-2.3709059373	-0.422621
C	 0.4869657503	-0.515567923	 1.3388740276	-0.199042
C	-0.4439257488	-0.24771331	 2.5169200079	-0.097902
O	 0.0291474342	-0.9339599551	 3.6854540092	-0.172683
C	 0.556593695	-0.2017786948	 4.6820387369	 0.16966
O	 1.0060291912	-0.6866773935	 5.6763887831	-0.275253
H	 0.789617605	 2.0287044507	 0.2355771772	 0.109097
H	-0.4493880433	 1.8924468901	-1.0225458791	 0.141801
H	-0.9205549149	 1.9180902334	 0.6816111268	 0.110158
H	-1.0356443616	-0.405712254	-0.1808910371	 0.086752
H	 1.8623039089	-0.0286659918	-1.028955282	 0.085475
H	 0.958912215	-1.5573127425	-1.0842290696	 0.087159
H	 0.8580916334	-0.3136270854	-3.0851654179	 0.289353
H	 0.6327191398	-1.6001298463	 1.2711827787	 0.115495
H	 1.4711650664	-0.0797457814	 1.5576094426	 0.102954
H	-0.5316118204	 0.8242514329	 2.7301133886	 0.113915
H	-1.4481734471	-0.6350482803	 2.3175352149	 0.126172
H	 0.5199904572	 0.8875969976	 4.4789901752	 0.074355
