13
gdb 816	7.07707	1.99273	1.57507	2.4693	61.8	-0.1873	-0.0122	0.1751	733.962	0.103108	-340.601771	-340.595453	-340.594509	-340.631769	23.572	
O	-0.1010814625	 1.3387719356	-0.013667357	-0.402927
N	 0.0266609507	-0.068748559	-0.0424511221	-0.261854
C	-1.1250688645	-0.6254344291	 0.0199425343	 0.393792
C	-1.2637241285	-2.1435042952	-0.0012262089	-0.244743
N	-2.7150200084	-2.3406747047	-0.1638680546	-0.303457
C	-3.3326367281	-1.1163906975	 0.0261987546	 0.001027
C	-2.468570676	-0.0794104662	 0.0945479092	-0.236945
H	 0.8165125349	 1.6215378564	-0.0768666417	 0.301088
H	-0.7035688525	-2.6028210598	-0.8203289029	 0.137253
H	-0.9105271415	-2.5827117549	 0.9406833576	 0.128261
H	-3.1254878047	-3.1491072264	 0.2790695075	 0.24465
H	-4.4147113197	-1.0794386563	 0.0580821835	 0.125544
H	-2.7116725192	 0.9684187671	 0.1367780704	 0.118313
