22
gdb 118882	2.85933	1.1515	0.99109	1.694	82.26	-0.2288	0.0796	0.3084	1321.4207	0.192701	-404.298942	-404.289459	-404.288515	-404.333327	35.872	
C	-0.2101094813	 1.5257363713	 0.1512559219	-0.38162
C	-0.0395239398	 0.0204269557	 0.0240828494	-0.054198
O	-1.3235129657	-0.552418881	-0.159000679	-0.298676
C	-1.3967914081	-1.9619739388	-0.0555477477	 0.418104
C	-0.5908732624	-2.6771208821	-1.1367979062	-0.460888
C	-1.2270318474	-2.5811304725	 1.3705594719	-0.230253
N	-2.6229858502	-3.1453681429	 1.3480543103	-0.130369
C	-3.5095869161	-1.9724001131	 1.2440031015	-0.2441
C	-2.8441848457	-2.4394402496	 0.0158944818	-0.072689
H	 0.7622146837	 2.0116984458	 0.2767925904	 0.113658
H	-0.6883720337	 1.9321244275	-0.7445010837	 0.128044
H	-0.8370017104	 1.7709832386	 1.0132777033	 0.123289
H	 0.6202491555	-0.2145780703	-0.8246497684	 0.092125
H	 0.4380191802	-0.3887037996	 0.9289801831	 0.087878
H	 0.4848703501	-2.5236957308	-1.0089863209	 0.118929
H	-0.7806892976	-3.7536462801	-1.1006829021	 0.129818
H	-0.8784038173	-2.3067637446	-2.1262537092	 0.123164
H	-0.4907972983	-3.3858062708	 1.4264455644	 0.107395
H	-1.0564957183	-1.8717678118	 2.186916829	 0.102235
H	-4.5587036614	-2.2236121646	 1.3659668577	 0.119311
H	-3.2030347	-1.0313032417	 1.6931005998	 0.119578
H	-3.3772933958	-2.9157542946	-0.8012473374	 0.089264
