10
gdb 130573	3.84145	1.22714	0.93004	2.7766	60.04	-0.3298	-0.1329	0.1969	1100.1624	0.053793	-467.568095	-467.561024	-467.56008	-467.600608	24.086	
O	 0.0043512403	-0.0388141901	 0.0027304461	-0.261385
C	-0.039976067	 1.1678081505	 0.0063983125	 0.225873
C	 1.1869039075	 1.9778342385	 0.0006894571	 0.275522
N	 2.1734783708	 2.5795247913	-0.0040424681	-0.300483
C	-1.3145464063	 1.9081644652	 0.0168384307	 0.268675
N	-1.3903741258	 3.2172205864	 0.0210673526	-0.130318
O	-2.7052224036	 3.5075624721	 0.0304469671	-0.127723
N	-3.480653235	 2.3672917794	 0.0322682478	-0.047488
C	-2.6366615682	 1.3773230044	 0.0239763326	-0.0903
H	-2.9613996428	 0.3493128223	 0.0231750018	 0.187626
