13
gdb 130745	3.50667	1.61503	1.11353	5.1937	64.77	-0.2693	-0.0213	0.248	979.3521	0.093159	-452.793891	-452.787571	-452.786627	-452.824746	24.066	
O	-0.1016621212	-0.0387323797	 0.0059478757	-0.338028
C	 0.021711371	 1.1493851787	 0.0103579272	 0.399159
O	-1.0948810016	 1.9937256855	 0.0285819873	-0.253421
C	-0.7327314365	 3.3817616507	 0.0297026577	-0.18654
C	 0.7597463902	 3.3284167491	 0.0092213868	 0.341871
C	 1.1931253172	 2.0287177799	-0.0022906275	 0.014225
C	 2.604857278	 2.1109274381	-0.0217986265	-0.155248
N	 2.997574168	 3.3789476312	-0.0211445814	-0.204336
N	 1.845697342	 4.1148522338	-0.0020245712	-0.332484
H	-1.1683957113	 3.8662980837	-0.8518870258	 0.144826
H	-1.1443022875	 3.8585482035	 0.9269536272	 0.144796
H	 3.3411861203	 1.3222599702	-0.0355523121	 0.141574
H	 1.9178722814	 5.1185438453	 0.0014397826	 0.283606
