21
gdb 121199	2.27691	1.01801	0.76734	1.9442	85.02	-0.2537	0.0478	0.3015	1517.355	0.181099	-387.04043	-387.030496	-387.029552	-387.075742	36.598	
O	-0.0848887954	 1.4137044513	 0.4647057666	-0.421174
C	-0.0230094852	 0.0518722246	 0.0677027866	-0.077708
C	-1.4110948073	-0.5508532482	 0.2464439752	-0.178455
C	-1.4573851273	-2.0310849779	-0.121813967	-0.011377
C	-0.8794567762	-2.9954831016	 0.9588005325	-0.233067
C	-2.3213347294	-3.3147284451	 1.4288291816	-0.223679
C	-2.8566349057	-2.7284072374	 0.0834733024	-0.175388
C	-4.0646710196	-1.9308699387	 0.0937734551	 0.32007
C	-5.0629706517	-1.2593483097	 0.1147612497	-0.458613
H	 0.7902514095	 1.7975642042	 0.3586205408	 0.284404
H	 0.2873396705	-0.0427877408	-0.9864001794	 0.082444
H	 0.7128320832	-0.5038838376	 0.6716017243	 0.084269
H	-1.7259447924	-0.4007297431	 1.2862397182	 0.106897
H	-2.119966963	 0.0093575323	-0.3731035515	 0.116524
H	-1.0513208438	-2.1685971261	-1.1294586025	 0.06859
H	-0.3836791243	-3.8645644232	 0.5179346348	 0.100942
H	-0.2070875398	-2.5539038857	 1.6984355188	 0.101401
H	-2.572675762	-4.3558462109	 1.6412444347	 0.103501
H	-2.6288281216	-2.7005260014	 2.2775837018	 0.116634
H	-2.9600062134	-3.5351224918	-0.6504117666	 0.100865
H	-5.9452174451	-0.6689574234	 0.131988674	 0.192922
