13
gdb 21247	3.59072	1.93209	1.26766	4.0974	58.78	-0.2047	-0.0189	0.1859	894.6749	0.094639	-431.879635	-431.871933	-431.870989	-431.912364	27.065	
C	-0.0104377026	 1.4082295803	-0.0277641018	-0.245334
O	 0.0356704427	-0.0156813264	 0.019542343	-0.284744
C	 0.6266072933	-0.6100062326	-1.0383870952	 0.277795
C	 0.7639369999	-1.9653267939	-1.2331420875	 0.351876
N	 0.4344738877	-3.0359360695	-0.4455672006	-0.591936
O	 1.3908239895	-2.1546495282	-2.3828317383	-0.21223
N	 1.6563020518	-0.8247487811	-2.9339951103	-0.060817
N	 1.1890395154	 0.0075514674	-2.1022682432	-0.191961
H	 0.9985041684	 1.8332442642	-0.0598513704	 0.13939
H	-0.5658385029	 1.7556707104	-0.9058244087	 0.136749
H	-0.518885143	 1.7216388535	 0.8845992811	 0.133568
H	-0.2764668931	-2.8335866533	 0.2426182002	 0.274922
H	 0.2753444229	-3.8999384608	-0.9437759783	 0.272721
