15
gdb 54060	1.92525	1.5701	0.93849	4.4297	69.24	-0.2629	-0.0136	0.2493	1196.062	0.111384	-453.970542	-453.961474	-453.96053	-454.004765	32.708	
N	 1.0662361927	-0.7938032056	 0.2898784257	-0.569196
C	-0.0019357844	 0.0096284941	-0.0145549456	 0.47547
O	 0.0918618063	 1.1968291315	-0.2423650531	-0.375701
N	-1.2401635353	-0.6740679459	-0.0977157733	-0.151191
C	-1.3617865702	-2.1347816431	-0.0623845656	-0.333468
C	-1.0760585589	-2.7233659425	 1.2450771296	 0.296356
C	-0.8045442204	-3.209859769	 2.3103074994	-0.442595
C	-2.3991748644	 0.068091918	-0.3075819812	 0.177004
O	-3.4928958675	-0.4283164885	-0.4388666866	-0.325336
H	 1.9130906337	-0.2750145822	 0.4651359601	 0.270033
H	 0.9268800533	-1.6176445511	 0.8576960933	 0.269764
H	-2.3966812876	-2.3436353983	-0.3499388202	 0.189081
H	-0.7027099088	-2.5726496487	-0.8200792742	 0.158046
H	-0.5979105624	-3.6449617872	 3.2575823012	 0.21526
H	-2.1884975361	 1.1439422487	-0.3402406095	 0.146475
