21
gdb 36978	4.74567	0.67733	0.66148	2.0004	79.65	-0.2435	0.0873	0.3308	1760.9848	0.182023	-424.184295	-424.175028	-424.174084	-424.220043	33.07	
C	-0.0695560899	 1.5477435587	-0.2892839333	-0.221118
C	 0.0065642985	 0.0170712905	-0.2047788633	-0.19896
C	-1.3658064113	-0.6315408513	-0.2331864397	 0.160579
C	-1.4831752273	-2.1182291892	 0.1726610905	-0.301506
C	-2.4347927965	-1.59634883	 1.2670886022	-0.056618
O	-2.1924516415	-0.2256941763	 0.8884151174	-0.293085
C	 1.2912894503	 2.1959705842	-0.2303785762	 0.096095
C	 1.5369758818	 3.452289109	 0.4874612228	-0.180478
O	 1.9428591815	 2.2010398895	 1.0447492355	-0.236629
H	-0.564271595	 1.8474304164	-1.2234840347	 0.095935
H	-0.6855812412	 1.9171778083	 0.5368106439	 0.125822
H	 0.5992855248	-0.383278333	-1.0394150068	 0.092097
H	 0.5201407603	-0.2642378675	 0.7220638504	 0.11505
H	-1.8734563985	-0.3949658715	-1.1809191555	 0.067302
H	-1.9212828239	-2.7874138171	-0.5690828338	 0.108734
H	-0.5528049255	-2.5525126476	 0.5448632086	 0.110894
H	-3.4888505772	-1.8741894878	 1.1380663422	 0.099569
H	-2.143315375	-1.792769334	 2.305396373	 0.105592
H	 1.9620206501	 1.9513273471	-1.0576607261	 0.08575
H	 2.346405066	 4.1108877776	 0.1745868819	 0.111265
H	 0.7105588294	 3.9446400041	 0.9988704712	 0.113711
