15
gdb 52186	3.87043	0.87628	0.75344	5.1474	63.23	-0.2861	-0.0081	0.278	1416.5132	0.111224	-494.942794	-494.934405	-494.933461	-494.977307	29.019	
O	 0.3300474199	 0.1907505754	 0.6429297735	-0.262555
C	 0.3613919011	 1.3746060191	 0.5163379682	 0.18182
O	 0.8813097266	 1.9677108509	-0.5870741586	-0.182604
C	 0.9294650254	 3.3914336752	-0.6122812901	-0.108873
C	 2.2723210775	 3.8941389751	-0.1272454503	 0.127209
C	 2.4243755525	 5.4123270442	 0.0740521289	-0.44267
C	 2.5727931811	 5.034724965	 1.5497423159	 0.455917
O	 2.7478140547	 5.5782302394	 2.5884494041	-0.30072
O	 2.4288819586	 3.6837753297	 1.3186839502	-0.251378
H	-0.0284316443	 2.1021274524	 1.2515623108	 0.092552
H	 0.7727374044	 3.6907016833	-1.6528856784	 0.138551
H	 0.1250373754	 3.8214635688	-0.0012948444	 0.122572
H	 3.0886789844	 3.4008324791	-0.6591688674	 0.123797
H	 3.3082244873	 5.8752584358	-0.365889225	 0.157511
H	 1.5439897153	 6.0205689065	-0.1453872972	 0.14887
