18
gdb 128332	2.72797	1.21279	0.85035	1.7407	75.63	-0.1893	0.0423	0.2317	1332.056	0.148556	-435.270873	-435.261382	-435.260438	-435.306251	33.656	
C	 0.0663268417	 1.4268530059	-0.0370991594	-0.311035
N	-0.1210425073	-0.0162415864	-0.0829096412	-0.380617
C	 0.5543404434	-0.7213251907	-1.0733330798	 0.327725
N	 1.1538646151	-0.1030951393	-2.0877229356	-0.31976
N	 1.6242816338	-1.118299209	-2.857343911	-0.213123
C	 1.3501825605	-2.3405195833	-2.348034188	-0.096034
C	 0.6484892905	-2.1375856387	-1.1809693248	 0.136187
C	 0.0864687267	-3.1692670728	-0.2603893241	-0.212093
O	 0.526308237	-4.4480627393	-0.6939711275	-0.419008
H	 1.1171386368	 1.7283247827	 0.0848532633	 0.114373
H	-0.2928660883	 1.8663610439	-0.9707601408	 0.14527
H	-0.5221098829	 1.8326613686	 0.7896959468	 0.110057
H	-0.0436989762	-0.4547718392	 0.8242225299	 0.230607
H	 2.1261807622	-0.8958666999	-3.6977985712	 0.267985
H	 1.6572567169	-3.2540828832	-2.8295517939	 0.144537
H	 0.413078844	-2.9742865075	 0.7781632551	 0.083458
H	-1.0156246573	-3.1111701707	-0.2525205242	 0.102258
H	 0.0857133434	-5.1124035013	-0.1569362537	 0.289214
