21
gdb 81037	2.46777	1.70326	1.2823	0.7254	77.65	-0.2448	0.0703	0.3152	1064.7684	0.183373	-424.217021	-424.20862	-424.207676	-424.249275	33.577	
C	-0.1098299093	 1.5164872644	-0.0014417975	-0.429594
C	 0.0295953613	-0.0016377658	 0.0259511772	 0.0058
C	 1.1979358811	-0.5953868721	-0.8201360004	-0.047961
C	 2.1191305378	-0.4299084587	 0.424466351	-0.305473
C	 0.7991004797	-0.5936675243	 1.2326822853	 0.378753
O	 0.5913111117	 0.0571222639	 2.4581548013	-0.487337
C	 0.4768011883	-2.0990054509	 1.3092334929	-0.12143
O	 0.974996867	-2.809052729	 0.1854064058	-0.260429
C	 0.9416525525	-2.089793821	-1.0437813186	-0.076746
H	 0.8466972182	 2.0265447808	 0.1432478749	 0.11753
H	-0.5204830708	 1.8425049688	-0.9632805763	 0.109305
H	-0.7848059437	 1.8555690432	 0.7895154287	 0.129312
H	-0.9512366582	-0.459944761	-0.1540716877	 0.059884
H	 1.4645186046	-0.0857929964	-1.7490527422	 0.068169
H	 2.9088863623	-1.1690476456	 0.5776047458	 0.099811
H	 2.5230904119	 0.5791039298	 0.5131853388	 0.104742
H	 1.1575428126	-0.350553757	 3.1229174944	 0.277342
H	 0.9664183703	-2.5442151935	 2.1858786794	 0.089333
H	-0.610786012	-2.2330887095	 1.4252604381	 0.094886
H	-0.0247572867	-2.2330687258	-1.5548200395	 0.088986
H	 1.7219323212	-2.5403615004	-1.6670860016	 0.105117
