18
gdb 71224	2.94272	1.88282	1.6808	1.4969	75.53	-0.2271	-0.0029	0.2242	893.9156	0.14949	-401.903157	-401.896383	-401.895439	-401.933739	28.68	
C	 0.0451435143	 1.5118736404	-0.0582397616	-0.500392
C	-0.0148058721	 0.0099795468	 0.0314869228	 0.370019
O	 0.957689476	-0.6423357138	-0.8806768054	-0.315126
C	 1.2106498077	-1.6054116877	 0.1155233914	 0.117238
C	-0.0643977863	-2.5080317996	 0.538241282	-0.107151
N	 0.0509150754	-1.8603852044	 1.8928431189	-0.30082
C	 0.7253810977	-0.7345817603	 1.2724205134	-0.100902
C	-1.3042330762	-1.9845050967	-0.1277687216	-0.075479
C	-1.3254764936	-0.6532347343	-0.2782465637	-0.107492
H	 1.0560143725	 1.8721690382	 0.1503950456	 0.126039
H	-0.2399110912	 1.8524175421	-1.0593571708	 0.130962
H	-0.6429366786	 1.9618989571	 0.6657588941	 0.120937
H	 2.1668082764	-2.1190261377	 0.0160642136	 0.08991
H	 0.0402287185	-3.5936922081	 0.5476306709	 0.069054
H	-0.8518512834	-1.6547128434	 2.3202600484	 0.207249
H	 1.3299446853	-0.0815359513	 1.9059004868	 0.078785
H	-2.1216656418	-2.6423483287	-0.4031766877	 0.10053
H	-2.1683367107	-0.0875092585	-0.6612786072	 0.096638
