23
gdb 70995	2.87298	1.52859	1.38609	0.102	90.71	-0.227	0.0819	0.3089	1085.6042	0.208121	-351.083011	-351.075324	-351.07438	-351.114337	33.069	
C	-0.0896465351	 1.5818811691	-0.0080939682	-0.493286
C	-0.0376150376	 0.071554803	 0.0006632925	 0.281708
C	 1.0613398007	-0.7395961938	-0.8604248998	-0.358917
C	 0.7007190203	-1.8601916845	 0.1708665629	 0.315559
C	 1.2074419709	-2.8061564903	 1.3033907634	-0.32767
C	 0.3853984176	-1.8654096807	 2.2959649654	-0.302811
C	 0.5837276714	-0.759667178	 1.1974295644	 0.009359
C	-0.7660644175	-2.150319429	-0.2546716683	-0.24074
C	-1.3162144928	-0.7001336966	-0.3558423607	-0.239638
H	 0.8726020491	 2.0187582558	 0.2789190652	 0.110908
H	-0.345977484	 1.9639966506	-1.0033216747	 0.113491
H	-0.8484589469	 1.9501069241	 0.6922685053	 0.115952
H	 0.8398485277	-0.8967486066	-1.9227391472	 0.083242
H	 2.0645118364	-0.3263873536	-0.7369870215	 0.096231
H	 0.9314610702	-3.8637335416	 1.2527541412	 0.09384
H	 2.2804556408	-2.7243192699	 1.4956580641	 0.104302
H	-0.6384405854	-2.2130364544	 2.4409588938	 0.110758
H	 0.8304927081	-1.6661305397	 3.2737610207	 0.094926
H	 1.5793512699	-0.3384127278	 1.382757659	 0.068941
H	-0.7888323885	-2.6795643155	-1.2127011516	 0.090951
H	-1.315800249	-2.7631487553	 0.4630869127	 0.091339
H	-2.124487144	-0.5016902083	 0.3556322988	 0.091894
H	-1.6841997124	-0.444295277	-1.3547988473	 0.089661
