17
gdb 116766	5.60583	0.59073	0.55133	7.334	75.72	-0.2716	-0.0119	0.2596	1930.68	0.133619	-455.139904	-455.129752	-455.128807	-455.176675	34.112	
C	 0.0156801218	 1.2875899176	-0.1801951155	-0.252947
O	-0.0429689009	-0.1317253058	-0.0440883257	-0.189146
C	 0.6036793441	-0.6461391358	 1.0087285196	 0.138451
N	 0.599864683	-1.8894323133	 1.218928636	-0.246221
C	 1.3063296598	-2.3969447769	 2.3754856495	-0.172986
C	 0.350166334	-3.3789308175	 3.0930856919	 0.00393
O	-0.1387507743	-4.3441093302	 2.1931985969	-0.423635
C	 1.0461984727	-4.0563916589	 4.1977465429	 0.281344
N	 1.6085971586	-4.5416798227	 5.0819407228	-0.316701
H	 1.050522633	 1.6355897699	-0.2744880138	 0.136261
H	-0.528590065	 1.5275786162	-1.0934724935	 0.156362
H	-0.4640729266	 1.7882475811	 0.6683985151	 0.136047
H	 1.1234473955	 0.0893716903	 1.6411888506	 0.089927
H	 2.1819145827	-2.9660206338	 2.0419229614	 0.136261
H	 1.6443988493	-1.6177685915	 3.0753345509	 0.106933
H	-0.4738476688	-2.7936796266	 3.535015777	 0.111878
H	-0.294238249	-3.853236912	 1.3715374837	 0.304244
