17
gdb 35090	3.07968	1.53495	1.18877	2.6523	78.23	-0.2297	0.0083	0.238	1043.7051	0.137574	-380.819821	-380.812268	-380.811324	-380.852063	29.139	
C	-0.0461405548	-1.2283536588	 0.1136707679	-0.462008
C	-0.0572094989	-0.0270893631	 0.0765245948	 0.351772
C	-0.0296299119	 1.4302904539	 0.019230428	-0.18064
N	-0.6773997202	 2.0466156699	 1.2088063175	-0.23005
C	 0.1403012325	 2.9098405716	 1.6711895915	 0.03535
N	 1.3368382946	 3.1528251972	 0.9897789443	-0.105871
C	 2.6050841784	 2.6766432443	 1.6396241118	-0.176771
C	 2.5843451391	 1.4062439558	 0.7446718369	-0.252948
C	 1.4037319361	 2.0521949561	-0.0227082705	 0.00723
H	-0.0575962702	-2.2897829866	 0.1472399548	 0.198762
H	-0.5849520721	 1.7509846384	-0.8717251317	 0.117293
H	-0.0692772575	 3.486220146	 2.569367365	 0.126888
H	 3.4327688135	 3.3609114137	 1.4370595145	 0.118649
H	 2.5236172779	 2.5219947031	 2.7190445337	 0.117698
H	 3.4863842241	 1.2096165158	 0.1631375828	 0.111573
H	 2.2975107305	 0.497986403	 1.2780081629	 0.13144
H	 1.6603560389	 2.4121837397	-1.0207557043	 0.091633
