16
gdb 34104	3.46212	1.54968	1.31597	3.7814	71.96	-0.2382	0.0134	0.2517	962.5613	0.127213	-396.884272	-396.877482	-396.876538	-396.915334	27.114	
N	 0.104414521	-1.1166034288	 0.0308388281	-0.332982
C	 0.066649884	 0.0378980111	 0.0022908485	 0.209576
C	-0.0123302447	 1.4881545239	 0.0037841055	 0.151339
C	-1.0260074667	 2.1588762157	 0.9932740863	-0.192831
N	-1.536333091	 3.0642875948	-0.0859804594	-0.149285
C	-0.3501497729	 3.6002378772	-0.8271537427	-0.026128
C	 1.0247076105	 3.5773180806	-0.1782308531	-0.207119
N	 1.3016571589	 2.1327814112	-0.0086345607	-0.335942
C	-0.8095903993	 2.2308416921	-1.1027382514	-0.059702
H	-1.8358216043	 1.4950838778	 1.3015037429	 0.136437
H	-0.5960061567	 2.6536547114	 1.870744064	 0.107898
H	-0.6147162298	 4.4160912321	-1.4891993702	 0.1167
H	 1.7725361281	 4.0358903352	-0.8342563744	 0.123727
H	 1.0279460354	 4.1368036945	 0.7681347958	 0.109462
H	 1.8120360142	 1.9391131031	 0.8478513899	 0.230442
H	-1.2544419966	 1.8225380981	-2.0005048589	 0.118408
