19
gdb 75059	2.27833	1.83328	1.11849	2.8406	82.76	-0.2298	-0.0129	0.2168	1109.7534	0.158848	-385.924524	-385.916081	-385.915136	-385.957408	32.573	
C	-0.0287193932	 1.5159452501	 0.0084520652	-0.505149
C	-0.0094265529	 0.0204282196	-0.0067789135	 0.24876
C	-0.0244901348	-0.7664265285	-1.0915119831	-0.20095
C	 0.0027318585	-2.2336838883	-0.7583735832	-0.386625
C	 0.0392994463	-2.2404096536	 0.7765984583	 0.340192
O	 0.0688218955	-3.2112273513	 1.4933046235	-0.333276
C	 0.030633094	-0.8069868873	 1.2320873182	 0.167385
C	 0.8007026181	-0.4610212807	 2.501863015	-0.298862
C	-0.688621716	-0.4811394161	 2.5365532869	-0.298842
H	 0.858953407	 1.9248184643	 0.5068752631	 0.12996
H	-0.0590391187	 1.9182843292	-1.0074650118	 0.129742
H	-0.9011316111	 1.9017578122	 0.5502933977	 0.129924
H	-0.0533950214	-0.3971214131	-2.1103851992	 0.092234
H	-0.8758465615	-2.7879943567	-1.1136757469	 0.13535
H	 0.8777192649	-2.7649238387	-1.1553226936	 0.13532
H	 1.3295158028	-1.2879223991	 2.9635287379	 0.138222
H	 1.3104745712	 0.4955362282	 2.5294861917	 0.119185
H	-1.2222286403	 0.4613010401	 2.5885111123	 0.119197
H	-1.1728352084	-1.3217585204	 3.0217742816	 0.138235
