15
gdb 45460	2.84681	1.66098	1.2029	6.5335	66.4	-0.2263	-0.0631	0.1633	996.4002	0.114788	-453.962422	-453.955185	-453.954241	-453.994389	27.465	
O	 0.0178014161	-0.0476430699	-0.2573428858	-0.346662
C	-0.0084519344	 1.1466086186	-0.0880052195	 0.306494
N	-1.1163501014	 1.9467854693	 0.0238410586	-0.309209
C	-0.8917845147	 3.3565009266	 0.2643388818	-0.015928
C	-0.9721263635	 3.8246615238	 1.7433258363	-0.174898
N	 0.4712851959	 3.5373009932	 1.883658381	-0.307731
C	 0.6511070877	 3.4638952158	 0.4092569031	-0.132088
C	 1.2080966882	 2.1031748003	 0.0170514917	 0.355
O	 2.3499454587	 1.7888290587	-0.1659102201	-0.28669
H	-2.0382664668	 1.5370704149	 0.0096369754	 0.259319
H	-1.3956734432	 3.9828048998	-0.473964349	 0.100564
H	-1.237573975	 4.8881993767	 1.8106233195	 0.104021
H	-1.618166042	 3.2474461273	 2.4129154289	 0.113871
H	 1.0369115408	 4.2260707963	 2.3629088521	 0.237071
H	 1.1466404136	 4.3082315087	-0.076826104	 0.096867
