15
gdb 15333	3.41236	1.43371	1.12341	2.4044	70.77	-0.2565	-0.0079	0.2485	1059.3181	0.118146	-358.82137	-358.813287	-358.812343	-358.854283	28.273	
C	-0.2431093873	 1.0481317875	 0.5463751093	-0.312642
N	-0.1035426537	-0.3451948303	 0.1730427989	-0.171524
C	-1.1167667895	-0.9343897525	-0.2944068834	 0.055375
N	-1.0533950492	-2.2505425277	-0.7831581211	-0.08356
C	-0.2010306457	-3.2170394296	-0.1379874186	-0.223362
C	-1.7004382905	-3.3533501755	-0.0611881737	-0.162298
C	-2.3649232055	-3.1060743922	 1.1959072505	 0.295646
N	-2.9275975227	-2.9082529969	 2.1867335117	-0.324715
H	 0.4560038255	 1.6542347542	-0.0408383894	 0.132677
H	-1.2586468192	 1.448751593	 0.4045070083	 0.105973
H	 0.0365828849	 1.1690385815	 1.5985232235	 0.135969
H	-2.1062605364	-0.4788375442	-0.4258660593	 0.106051
H	 0.3428742755	-3.8892094749	-0.7942182118	 0.140395
H	 0.3203989955	-2.8942699643	 0.7580779634	 0.159515
H	-2.2040770918	-4.0789415481	-0.6934071082	 0.146499
