16
gdb 38827	3.15276	1.85447	1.30999	1.4137	68.77	-0.2347	0.0163	0.2511	933.1971	0.125941	-437.841189	-437.834433	-437.833489	-437.872639	26.596	
C	-0.0108211414	 1.4713174146	 0.1102970721	-0.372771
C	 1.2912434704	 0.7146123122	-0.0410545267	 0.017565
O	 1.696648591	 0.1305090192	 1.2006566332	-0.296193
C	 0.4995184281	-0.7087260674	 1.2233272906	 0.013884
C	 0.8051573958	-2.183670877	 0.9252588185	-0.177828
N	 0.050280901	-2.7681282892	-0.1798432965	-0.262948
C	-0.6143345224	-2.0453771051	-0.9691291429	 0.109825
O	-0.7682270915	-0.6850098123	-0.984520149	-0.251077
C	-0.0310282462	-0.0156495809	-0.0211312791	 0.368341
H	-0.2647589391	 1.9620237019	 1.0466174012	 0.121136
H	-0.3212297645	 1.9913136046	-0.7917454009	 0.13031
H	 2.0442661849	 0.9091443425	-0.7947031232	 0.11952
H	-0.0631648975	-0.5721246105	 2.1525676739	 0.092957
H	 1.8745429039	-2.2748617644	 0.7034116587	 0.136833
H	 0.6177065982	-2.8003978947	 1.8102014747	 0.121345
H	-1.1891380407	-2.4800045636	-1.7831694647	 0.129101
