22
gdb 89107	4.14618	0.61023	0.59706	3.6532	84.78	-0.2475	0.0344	0.2819	1941.2147	0.193662	-404.367127	-404.356768	-404.355824	-404.4046	36.784	
C	-0.2213965116	 1.5121620247	 0.0474378078	-0.403657
C	-0.0233764686	 0.0129385197	 0.1078495251	-0.007077
C	 1.3291611605	-0.6106009704	-0.1413753455	-0.293168
C	 0.7064762365	-0.6810817357	 1.2366178537	 0.017247
C	 1.3177609115	 0.0534707398	 2.4115832565	-0.215514
C	 2.4320973147	-0.7703940876	 3.0752062483	-0.156438
N	 3.0432406302	-0.1001052033	 4.2130312139	-0.273482
C	 2.7407030801	-0.4035205956	 5.503411931	 0.152315
O	 1.9772505785	-1.2766103546	 5.8588097402	-0.323722
H	 0.6621112234	 2.05880108	 0.3896166448	 0.112894
H	-0.4224842533	 1.8331177638	-0.9806308655	 0.117601
H	-1.0684565793	 1.8301053732	 0.6657488946	 0.118304
H	-0.8676965454	-0.5479098346	-0.2856923186	 0.084303
H	 1.3964879466	-1.5129611749	-0.7392925898	 0.109546
H	 2.1675028013	 0.0685536629	-0.2720875873	 0.102271
H	 0.2974315276	-1.6517455943	 1.5096640296	 0.086448
H	 1.7276957619	 1.0185019245	 2.090544482	 0.085565
H	 0.5523073261	 0.2728756468	 3.1661503418	 0.115126
H	 2.028240134	-1.7117712534	 3.4554150804	 0.146643
H	 3.2083216876	-1.010492273	 2.3396700018	 0.109932
H	 3.6602022948	 0.6786811375	 4.0451551115	 0.244393
H	 3.2906732629	 0.2443958845	 6.2156070336	 0.070469
