21
gdb 113177	2.52048	1.10436	1.03748	2.6212	80.75	-0.235	-0.0077	0.2273	1316.1193	0.179015	-424.230079	-424.219656	-424.218712	-424.265565	37.688	
C	 0.6249977991	 1.0103975815	-0.2737406948	-0.240872
O	-0.19324	 0.0318390796	 0.3426898059	-0.230447
C	 0.4564839674	-0.668228942	 1.3432910015	 0.121637
C	-0.1514063491	-1.9319628826	 1.8010005288	-0.349285
C	 1.1549489045	-2.0124845824	 1.0019365559	 0.169344
C	 1.0778527103	-2.5189153128	-0.4239127032	-0.493801
C	 2.3765217901	-2.2592255722	 1.8296563371	 0.324647
C	 3.5801440619	-2.9020527778	 1.1632762102	-0.490914
O	 2.4128508487	-1.9327390798	 3.0018080162	-0.329506
H	 1.4892068529	 0.558511709	-0.779896997	 0.111294
H	 0.0065430592	 1.5261007713	-1.0112855067	 0.131757
H	 0.9933726274	 1.7414925636	 0.4601387143	 0.117072
H	 0.9789724713	-0.0587546039	 2.0802259746	 0.109431
H	-0.0857974212	-2.1678332228	 2.8564445326	 0.138876
H	-1.0440345545	-2.2644491404	 1.2827635561	 0.123568
H	 0.1925152576	-2.1110316474	-0.916797036	 0.13586
H	 1.9493293301	-2.2206288387	-1.0157426395	 0.11514
H	 1.0097703523	-3.6118019735	-0.4599302382	 0.120515
H	 3.3192690064	-3.878753187	 0.7415253289	 0.138445
H	 3.9398884597	-2.2851793648	 0.3321169643	 0.137075
H	 4.3753681758	-3.018920287	 1.8999899789	 0.140163
