17
gdb 9613	3.16534	1.51519	1.21468	4.028	69.46	-0.2921	-0.0003	0.2918	1038.2404	0.140011	-363.865771	-363.856954	-363.856009	-363.899276	31.442	
C	 0.2395498515	 1.3868835359	 0.3158757653	-0.386424
C	-0.3331524966	 0.0874539271	-0.2655132435	-0.257885
C	 0.5211312574	-0.4831145544	-1.3832351732	 0.40397
C	 0.5709022104	 0.2915187232	-2.6826422346	-0.463159
O	 1.7841693854	-1.0243453929	-0.9613260106	-0.267885
C	 0.80181999	-1.9416901804	-1.4442157135	-0.166114
C	 0.2484889573	-2.8737031099	-0.4850583366	 0.308301
N	-0.2060343325	-3.6347280395	 0.257047958	-0.333928
H	 1.2583503128	 1.2269703052	 0.6805441584	 0.138805
H	 0.2645936659	 2.1931669474	-0.4233989073	 0.119443
H	-0.3716628375	 1.7284687653	 1.1555563195	 0.124006
H	-0.422631605	-0.6577041962	 0.5299646673	 0.132487
H	-1.344523966	 0.2588639224	-0.6538297871	 0.109003
H	 0.9503677533	 1.3030199487	-2.5115768466	 0.14088
H	 1.2296855875	-0.1984691115	-3.4032884311	 0.133515
H	-0.4296311447	 0.3749560147	-3.1186980814	 0.132791
H	 1.0248315908	-2.3920418451	-2.410532653	 0.132193
