20
gdb 57261	2.2208	1.43552	1.28604	3.0029	78.91	-0.2379	0.0365	0.2744	1124.1078	0.170451	-399.317541	-399.30762	-399.306676	-399.351475	38.014	
C	 0.2642333575	 1.4409947527	 0.2515338834	-0.408262
C	-0.0026207567	-0.058095632	 0.0334073492	 0.06344
N	 0.4661350486	-0.8004047636	 1.2097712366	-0.53077
C	-1.4612982889	-0.2674858277	-0.1721480457	 0.254477
N	-2.5907014195	-0.4794029522	-0.3056132125	-0.357395
C	 0.719594829	-0.54183301	-1.2448427403	 0.345183
N	 0.1644882758	 0.0878696847	-2.4222174774	-0.574699
C	 2.204136197	-0.7409779936	-1.1890674854	-0.306393
C	 1.2916426996	-1.9433971074	-1.3152820379	-0.319989
H	 1.3198711144	 1.5757246388	 0.5002162601	 0.129793
H	 0.0325851553	 1.9932925531	-0.6590496433	 0.157848
H	-0.3459450953	 1.8311014723	 1.0716829739	 0.119771
H	 0.1438242432	-0.3346671665	 2.0525306468	 0.240999
H	 0.0633099673	-1.7322445516	 1.2249098003	 0.244556
H	 0.8240150114	 0.070582903	-3.1906512713	 0.232352
H	-0.677830161	-0.3906732324	-2.7281022743	 0.244564
H	 2.7878140063	-0.4322868048	-2.050695077	 0.108878
H	 2.692727203	-0.6002723842	-0.2325116436	 0.135032
H	 1.2305908556	-2.6070093922	-0.4608471894	 0.112535
H	 1.2264714173	-2.4414382065	-2.2767519523	 0.108082
