20
gdb 116230	2.30226	1.62185	1.08494	0.9231	74.26	-0.2372	0.0511	0.2883	1142.6976	0.172196	-440.252733	-440.244027	-440.243083	-440.286352	32.906	
O	 0.3090292261	 0.4886838483	 1.0381116517	-0.413816
C	-0.2683319357	 0.3952738458	-0.2619204989	-0.118983
C	-1.551357917	-0.4324620757	-0.2423008118	 0.052289
O	-2.1377141024	-0.4140906814	-1.5418428944	-0.283551
C	-2.4980234306	-1.7418445373	-1.9477459024	-0.069983
C	-2.5060562689	-2.5874362944	-0.6729668583	-0.293356
C	-1.4118728416	-1.9081756536	 0.1341169327	 0.320099
C	-0.1164114326	-2.565386774	 0.441838877	-0.291287
N	-1.1322848899	-2.3530197845	 1.497685797	-0.37727
H	-0.2110260242	 1.1163906928	 1.5497501752	 0.291531
H	-0.4812795145	 1.3853061345	-0.686011613	 0.107002
H	 0.4762780338	-0.0861756797	-0.9019267542	 0.118902
H	-2.2524337553	 0.0439966712	 0.4686755166	 0.062725
H	-3.4695451403	-1.6945346695	-2.4491218696	 0.10708
H	-1.7589564334	-2.1191420851	-2.6694244187	 0.096506
H	-3.4648090315	-2.4980457046	-0.149880648	 0.11201
H	-2.3134015186	-3.646886071	-0.8543616343	 0.109112
H	 0.0340045544	-3.6032291077	 0.155284934	 0.110943
H	 0.7862564237	-1.9657512235	 0.4858218626	 0.131361
H	-0.8359019516	-1.5471016503	 2.0461971468	 0.228684
