11
gdb 2644	38.60765	0.77693	0.76525	4.6751	78.37	-0.2579	-0.0807	0.1772	1390.2566	0.075774	-306.081547	-306.07355	-306.072606	-306.117159	24.939	
C	-0.0009788048	 1.4821512704	 0.0099200466	-0.520244
C	 0.0047363339	 0.0325864473	 0.0020943923	 0.275907
C	 0.0066564181	-1.1787812712	-0.0044089569	-0.186263
C	 0.0068768503	-2.533080967	-0.0116728154	-0.153092
C	 0.0032331526	-3.7481948062	-0.0181630545	 0.237573
C	 0.0396013907	-5.1846854602	-0.0261302663	-0.034724
O	-0.9403396282	-5.8959500583	-0.0228420739	-0.223182
H	 1.0178408204	 1.884355541	 0.000825106	 0.165205
H	-0.5278318428	 1.8745702789	-0.866990059	 0.168105
H	-0.5082251476	 1.865031666	 0.9024714028	 0.168115
H	 1.0639023076	-5.6095389707	-0.0358330717	 0.102599
