18
gdb 37152	3.87122	1.91459	1.65527	1.3435	78.56	-0.2293	0.0814	0.3108	853.6819	0.150657	-364.682293	-364.676578	-364.675634	-364.71187	25.695	
C	 0.012211952	 1.484329245	 0.0887981971	-0.251718
C	 1.3019933177	 0.7445623123	 0.0059765173	-0.039548
C	 2.0271705896	 0.322893319	 1.3145672205	-0.113032
C	 1.6171419683	-1.1747095387	 1.4522425924	-0.037186
C	 1.0769354821	-1.1420558502	 2.9089512271	-0.114615
C	-0.3731665911	-1.5335631675	 2.4448526191	-0.345009
C	 0.1780681419	-0.5938614384	 1.3550540999	 0.353878
C	 0.9263129092	 0.3178077208	 2.3943776331	-0.072652
N	-0.0096617785	 0.0091429214	 0.0369116073	-0.200865
H	-0.2572195931	 1.9743986239	 1.0195316914	 0.115712
H	-0.3811793178	 1.9664594333	-0.8020119423	 0.115294
H	 1.8499586399	 0.7102194915	-0.9313002604	 0.096057
H	 3.0389930567	 0.7002980651	 1.4690054004	 0.063831
H	 1.9703899604	-2.041052897	 0.8918070791	 0.075988
H	 1.5845851157	-1.4666230415	 3.8154078685	 0.078433
H	-0.5356293363	-2.579488278	 2.1674053284	 0.103035
H	-1.2007393533	-1.1577372051	 3.0539284305	 0.099061
H	 0.4903966566	 1.1496474743	 2.9475319305	 0.073334
