13
gdb 6640	8.56442	0.77939	0.7207	6.8055	72.88	-0.2715	-0.042	0.2295	1462.8207	0.092745	-361.470717	-361.461993	-361.461049	-361.506098	28.791	
C	-0.1074585719	 1.5378650358	 0.0121768587	-0.480425
C	 0.1135194929	 0.0387387916	 0.0014023983	 0.392651
O	 1.2024997205	-0.4697911468	-0.0119164816	-0.254856
C	-1.1859950151	-0.803240445	 0.0088469468	-0.507831
C	-0.9654586375	-2.2342485333	-0.0009086313	 0.09874
C	-0.7844186572	-3.427347684	-0.0090163671	 0.088876
C	-0.5855258251	-4.7780045042	-0.0181388814	 0.21179
N	-0.4227046171	-5.9280945036	-0.0258438947	-0.335808
H	 0.8553530488	 2.0487817426	 0.005757862	 0.156188
H	-0.6940489465	 1.8449063079	-0.8609916654	 0.146935
H	-0.6769051858	 1.8347277201	 0.9000922326	 0.14695
H	-1.7761640286	-0.5148756611	 0.8895960041	 0.168382
H	-1.7921396074	-0.5054619098	-0.8578114111	 0.168408
