21
gdb 113799	3.24919	1.08068	0.98558	2.3535	80.22	-0.2321	0.0746	0.3067	1315.9741	0.18103	-424.182383	-424.173045	-424.1721	-424.216464	35.786	
C	 0.3176935278	 1.1957538478	 0.3140883459	-0.237581
O	-0.3708731207	 0.1470959111	-0.3459033769	-0.250007
C	 0.4235348291	-0.5168878714	-1.2911479382	 0.104992
C	 1.3772415281	-1.5982701094	-0.8429422682	-0.340031
C	 0.1018217813	-1.9532330133	-1.5835838482	-0.121918
C	-1.0181692285	-2.6590172012	-0.8660658542	 0.435423
O	-1.1057403687	-2.4020386526	 0.5070779044	-0.477952
C	-2.3082434574	-2.9179415114	-1.6121167527	-0.321247
C	-1.3757760565	-4.0610268182	-1.2546407795	-0.306937
H	 1.1900788279	 0.8207695626	 0.8659361629	 0.118929
H	 0.6572228498	 1.957128077	-0.4026144885	 0.113718
H	-0.3854367766	 1.6539760872	 1.0129818626	 0.130766
H	 0.7272445895	 0.1239484637	-2.1198630397	 0.089402
H	 2.3348323571	-1.6998444125	-1.3414444814	 0.109504
H	 1.3726399039	-1.8330866645	 0.2157077073	 0.133079
H	 0.2000750675	-2.2450018823	-2.6253383357	 0.087239
H	-1.1817110532	-1.4405758938	 0.5909439075	 0.284488
H	-3.2242920972	-2.8269557763	-1.0399220121	 0.114762
H	-2.3849350269	-2.6154730911	-2.651433264	 0.104524
H	-0.8132276825	-4.5428474482	-2.0470857373	 0.107446
H	-1.6791601838	-4.7173890829	-0.4471690041	 0.121402
