11
gdb 4733	6.85909	1.38347	1.15256	5.5698	62.84	-0.2308	-0.06	0.1709	934.526	0.073831	-393.615452	-393.608849	-393.607905	-393.646206	24.063	
N	-0.0000278242	 1.3924704225	 0.1549486538	-0.601453
C	-0.0365021	 0.0153863756	 0.0474022493	 0.276674
C	-1.0953346717	-0.8512427584	 0.0046999286	-0.10604
O	-0.5929385634	-2.1238563489	-0.0288632202	-0.157696
C	 0.7431775261	-1.9564167594	-0.0035138157	 0.303201
N	 1.1334986929	-0.7140251294	 0.0399335607	-0.333967
C	 1.5590368778	-3.1158471797	-0.0302547277	 0.266008
N	 2.2233744107	-4.0629072074	-0.0536541155	-0.324193
H	 0.8863332879	 1.7795499269	-0.1373964011	 0.266509
H	-0.7815688634	 1.8771180965	-0.2610217111	 0.257703
H	-2.1660168626	-0.7539632383	-0.003245271	 0.153254
