20
gdb 90229	2.62565	1.68056	1.52947	1.2293	78.44	-0.2098	0.0498	0.2596	1000.0889	0.170777	-403.050251	-403.042239	-403.041294	-403.082407	31.654	
C	-0.0838675206	 1.6203741828	 0.0944844539	-0.332455
N	 0.0091692109	 0.1791355759	 0.1215474635	-0.115083
C	-1.2188544644	-0.6557856641	 0.3169172804	-0.252292
C	-0.3975561669	-1.5377860668	 1.2907560023	 0.370665
C	 0.5338139925	-2.7042298215	 0.8706214311	-0.295941
C	 1.7235012794	-1.6643592841	 0.7824845901	-0.279798
C	 0.7224109962	-0.540461393	 1.1898688375	 0.196802
C	 0.4294359993	-0.2747428961	 2.6873983941	-0.151274
O	-0.6098342414	-1.30851477	 2.6979766931	-0.332144
H	 0.9209755292	 2.051036059	 0.027827252	 0.121852
H	-0.6431746395	 1.9376734653	-0.7926403984	 0.121695
H	-0.585975849	 2.0561680862	 0.9784261441	 0.09446
H	-2.0429092283	-0.1467397443	 0.8377266235	 0.101143
H	-1.5990630497	-1.1046963008	-0.6079734824	 0.101844
H	 0.6416007009	-3.4664865905	 1.6444240873	 0.116746
H	 0.2738583003	-3.1904165406	-0.0726020628	 0.10836
H	 2.5449600903	-1.8410861368	 1.4818036558	 0.101349
H	 2.1291865248	-1.529291982	-0.2209677393	 0.112939
H	 1.2391696659	-0.5109712771	 3.3878388474	 0.105671
H	 0.0210138101	 0.7137638187	 2.9295810569	 0.105463
