16
gdb 35999	6.07166	0.53392	0.52275	3.4544	78.34	-0.2683	0.0179	0.2861	2037.5717	0.122678	-400.705245	-400.695894	-400.69495	-400.741955	31.813	
N	-0.3173647195	-0.6630107652	 1.0371589895	-0.301032
C	-0.1152770296	 0.2193636424	 0.3205521718	 0.278078
C	 0.1277792177	 1.3415483551	-0.5965476816	-0.471909
C	 1.4901082369	 1.8621315243	-0.5169638624	 0.093397
C	 2.6109159905	 2.2930193389	-0.4641571472	 0.08613
C	 3.9627663944	 2.8348330781	-0.3727068754	-0.38175
C	 4.0209742169	 4.1407237239	 0.4025870905	 0.106252
C	 5.032413586	 5.1598121385	 0.1038530412	-0.180297
O	 3.6744128105	 5.3213298107	-0.3138937006	-0.224134
H	-0.0968159956	 1.003967136	-1.6166059382	 0.182372
H	-0.5995442142	 2.131922425	-0.3702278103	 0.184113
H	 4.6174192254	 2.1011301315	 0.1164801799	 0.142646
H	 4.3686524809	 3.0045104662	-1.3769785534	 0.141131
H	 3.6137649776	 4.0922576251	 1.4127576664	 0.107313
H	 5.3676901831	 5.8371075362	 0.8874781008	 0.12127
H	 5.7495498091	 4.9860529735	-0.697719841	 0.11642
