10
gdb 1382	9.27822	1.42431	1.23476	2.0651	48.04	-0.2804	-0.1056	0.1748	862.1107	0.064543	-396.470299	-396.463344	-396.4624	-396.502059	22.343	
N	-0.2394464701	 1.3135332116	 0.0116252253	-0.405534
C	-0.0272003202	 0.0768215529	 0.0026392525	 0.11992
O	-1.1279069625	-0.7572494093	 0.007798871	-0.198242
C	-0.9144904676	-2.1049085258	-0.0014291469	 0.369553
O	 0.1477372784	-2.6530627382	-0.0138396153	-0.305669
C	-2.2808324483	-2.8092979253	 0.0067291262	 0.083707
O	-2.3652897627	-4.0030212931	 0.0008206446	-0.192779
H	 0.6449027883	 1.8203476331	 0.0065447538	 0.249263
H	 0.9158006551	-0.4693387844	-0.0089695184	 0.153842
H	-3.1514188103	-2.1256688515	 0.0181804273	 0.125937
