17
gdb 74678	3.20607	1.73651	1.54168	2.2517	76.4	-0.2361	-0.0061	0.23	921.2557	0.138233	-380.856146	-380.849303	-380.848359	-380.887091	27.586	
C	 0.0898202263	 1.4659956375	 0.0584683515	-0.503541
C	-0.0661280593	-0.0216922424	-0.0025288436	 0.340835
C	-0.0700636522	-0.8039722075	-1.0977531236	-0.168019
C	 0.0048586776	-2.2724040243	-0.7076656401	-0.082026
N	 1.4846367558	-2.4827439764	-0.713881724	-0.202735
C	 1.8653725106	-2.2080054472	 0.4759650582	 0.048327
N	 0.8970223714	-2.0173275241	 1.4863075651	-0.172122
C	-0.3729982061	-2.2604599231	 0.7912945044	-0.049855
C	-0.1754484131	-0.8628014135	 1.2098110881	-0.124149
H	 1.0371606274	 1.7422997963	 0.5384059395	 0.136651
H	 0.0770761595	 1.9072678986	-0.9411516955	 0.130538
H	-0.7097593464	 1.9311642934	 0.6474057839	 0.128127
H	 0.0859244296	-0.4644795632	-2.1147844528	 0.109245
H	-0.5138690892	-2.9837757494	-1.3492404676	 0.080936
H	 2.9119681906	-2.1243545499	 0.7541881651	 0.122102
H	-1.0788601357	-2.9501280699	 1.2430298197	 0.098619
H	-0.5304896868	-0.462695575	 2.1517526117	 0.107068
