17
gdb 53596	5.93119	0.59891	0.5678	2.913	80.18	-0.2559	-0.0443	0.2116	1913.6469	0.13209	-421.786056	-421.77599	-421.775046	-421.824164	33.675	
C	-0.1853929002	 1.4483246122	-0.3523281647	-0.496843
C	-0.0451334789	 0.0033847373	-0.2451262086	 0.103995
C	 0.077199108	-1.1912689797	-0.1657294288	 0.036205
C	 0.1953006796	-2.6411779844	-0.0499318571	-0.391681
C	-1.0683387524	-3.2678552813	 0.5210153178	 0.082859
O	-2.1132041149	-3.6032356408	-0.3722690077	-0.232719
C	-1.4659206425	-4.6837153117	 0.3135935517	-0.059387
C	-0.6640791781	-5.6143142478	-0.5365302285	 0.139964
O	-0.3835968005	-6.7361210255	-0.1991721386	-0.24404
H	 0.5934053783	 1.9682588268	 0.2161641717	 0.149435
H	-0.112474066	 1.777592044	-1.3945488972	 0.151687
H	-1.1555562831	 1.7810679081	 0.032498743	 0.151698
H	 0.4155641236	-3.0829354374	-1.0274726195	 0.137806
H	 1.0360186987	-2.8983277872	 0.6087838643	 0.141856
H	-1.407576409	-2.8122531591	 1.4525051668	 0.115818
H	-2.0482036781	-5.1741187183	 1.0926030719	 0.119804
H	-0.3569092946	-5.1942684151	-1.5184402464	 0.093543
