22
gdb 52792	2.75542	0.99061	0.83094	1.4805	93.31	-0.2248	0.0516	0.2764	1520.6422	0.190513	-367.178802	-367.167488	-367.166544	-367.21608	40.389	
C	 0.0624762227	 1.4642130741	 0.0004200735	-0.502694
C	 0.023936124	 0.0088084774	-0.0036015864	 0.099438
C	-0.0182985995	-1.1952954452	 0.0103473883	 0.087797
C	-0.0112895375	-2.6416608377	-0.0307687112	 0.023713
C	 1.2491504963	-3.1911929796	-0.6845164945	-0.468962
N	-0.5495271817	-3.3155453779	 1.1886203684	-0.390065
C	-1.3225610381	-3.3908489719	-0.0651785418	 0.297195
C	-2.6223502742	-2.610133828	-0.0369889538	-0.439639
C	-1.443249017	-4.7193670409	-0.7878829238	-0.463512
H	 1.0358737903	 1.8377277062	-0.3366731422	 0.146162
H	-0.7013880082	 1.8875709246	-0.661531218	 0.145928
H	-0.1136188196	 1.8621677621	 1.0060190442	 0.150243
H	 2.1307404796	-2.8336187205	-0.143134027	 0.132265
H	 1.2747669791	-4.2828447323	-0.6871584583	 0.110823
H	 1.3325188576	-2.8427954587	-1.7187554195	 0.130252
H	-0.0318830217	-4.182532811	 1.3271804825	 0.219747
H	-2.5056706425	-1.6765423797	 0.5136094929	 0.137997
H	-2.9573028334	-2.3754103968	-1.053531936	 0.110561
H	-3.4054397205	-3.2031538669	 0.4487042789	 0.111345
H	-2.2180622988	-5.3293470746	-0.308719612	 0.12357
H	-1.7428352625	-4.5722664262	-1.8314546061	 0.1244
H	-0.5178904144	-5.2985550362	-0.7817892281	 0.113436
