20
gdb 52115	3.88425	0.89721	0.81799	3.5606	81.06	-0.2433	0.0336	0.2769	1444.0661	0.171727	-403.147189	-403.138327	-403.137383	-403.182303	32.722	
O	 0.0037791431	 0.4474115491	 0.9432679455	-0.324495
C	 0.0825924812	 1.2160970362	 0.0079751332	 0.155949
N	 1.2198861228	 1.5181167445	-0.6724993709	-0.268139
C	 2.5327726341	 0.9892102761	-0.3178250833	-0.280987
C	 3.5268870358	 2.0807336965	-0.044659221	 0.369366
C	 4.3094146583	 2.7662389495	-1.1376779083	-0.329766
C	 5.0576159537	 2.0337545786	-0.056711866	-0.101973
C	 5.1155693036	 2.8892667905	 1.2141929666	-0.217495
C	 3.5520253171	 2.9529060026	 1.2219190213	-0.286111
H	-0.7925424491	 1.7617661382	-0.398974851	 0.07128
H	 1.1656711718	 2.201605061	-1.4113586681	 0.246427
H	 2.3720580962	 0.3653475246	 0.5654585839	 0.146822
H	 2.9046545837	 0.3379607306	-1.1206687696	 0.104924
H	 4.2937284687	 2.2704026557	-2.104176544	 0.106984
H	 4.3504860959	 3.8524125758	-1.1945623198	 0.104441
H	 5.7084653745	 1.1985946389	-0.2885367573	 0.087497
H	 5.5101533324	 2.350729213	 2.0782498124	 0.107705
H	 5.6496860139	 3.840800829	 1.1235848923	 0.097155
H	 3.0949535468	 3.9435043697	 1.1326502896	 0.094043
H	 3.1192402254	 2.4483251699	 2.0888368345	 0.116372
