17
gdb 61080	3.38332	1.17575	1.09831	1.6734	65.29	-0.2505	-0.0383	0.2123	1141.3851	0.134982	-496.099656	-496.091097	-496.090153	-496.133672	30.52	
O	 0.0106532554	 1.4351398284	 0.4115442565	-0.430104
C	-0.0021795647	 0.0651987885	 0.1374399647	 0.009588
C	 0.682341421	-0.2187818248	-1.1836751851	 0.143918
O	 1.153403661	 0.6703823541	-1.8502654165	-0.260187
C	 0.6779783599	-0.7467620262	 1.2669927756	 0.205609
O	 2.0417635474	-0.3838979489	 1.3353386655	-0.2736
C	 2.3130987374	 0.105375764	 2.6470887072	-0.085032
C	 0.9255621195	 0.459120916	 3.1822675863	-0.103628
O	 0.0927222895	-0.4920182736	 2.517670727	-0.260385
H	 0.5310310157	 1.8347963543	-0.3041499728	 0.297
H	-1.0384327697	-0.3089303539	 0.0655196543	 0.103808
H	 0.7290117806	-1.278356966	-1.5055804269	 0.101818
H	 0.571469635	-1.8238032504	 1.0618871296	 0.084016
H	 2.7943207711	-0.6759133949	 3.250652421	 0.104885
H	 2.983617164	 0.9651253189	 2.569897424	 0.119784
H	 0.8192679526	 0.3073435282	 4.2586715536	 0.114551
H	 0.6352612042	 1.4793787964	 2.913377226	 0.127957
