18
gdb 128789	3.4156	1.03851	0.80857	5.7617	75.43	-0.2451	0.0064	0.2515	1400.9247	0.147365	-435.251	-435.241733	-435.240789	-435.286265	31.684	
C	 0.0291063819	 1.4080106828	 0.0097929542	-0.227791
O	 0.0207863041	-0.0013632237	-0.0092746237	-0.223598
C	 0.6780260031	-0.5647351317	 1.0963813598	-0.174526
C	 0.6067247859	-2.0505904482	 0.9721690702	 0.30762
C	 0.045567082	-2.8715068914	 0.0218464459	-0.142519
N	 0.2598854731	-4.166817929	 0.3804649098	-0.191064
N	 0.9216579047	-4.1954256473	 1.498399814	-0.152632
N	 1.1417765935	-2.9117085907	 1.8739660374	-0.018154
C	 1.8650474689	-2.6311022873	 3.0951321525	-0.337341
H	 1.0543901067	 1.8092625983	-0.0094925291	 0.109801
H	-0.5008026464	 1.745664622	-0.8830499111	 0.137538
H	-0.4812376548	 1.8059875102	 0.9007150905	 0.10981
H	 1.7311537683	-0.2288517473	 1.1389735741	 0.104127
H	 0.2103039021	-0.2313792905	 2.0418137254	 0.10406
H	-0.4853486235	-2.5989203867	-0.874098434	 0.133104
H	 2.7810443645	-2.0692371359	 2.8874459126	 0.14435
H	 1.246013448	-2.05997643	 3.7939739144	 0.144257
H	 2.1233369779	-3.5909015336	 3.5421592771	 0.17296
