21
gdb 61560	3.3215	0.94315	0.77532	2.6509	79.79	-0.2404	-0.0123	0.228	1500.5751	0.17866	-424.224369	-424.213984	-424.213039	-424.26119	37.198	
C	 1.0602942011	 1.5029582577	-0.6147453437	-0.397813
C	 0.2436461497	 0.3324267806	-0.0664879094	 0.02812
O	 0.2882507289	-0.8314547727	-0.8798609474	-0.262585
C	-0.4927466846	-0.7778488949	-2.0355692635	 0.150784
C	 0.1255042997	-0.3767218787	-3.3512710797	-0.283243
C	-0.2201069517	-1.8251976636	-3.0646616475	-0.297883
C	 0.6981357219	-0.054847623	 1.3532447367	 0.362641
C	 0.6996084765	-1.5244412895	 1.7101431605	-0.467925
O	 1.0068554478	 0.80877154	 2.1414807575	-0.304982
H	 2.0891966009	 1.1856160609	-0.8098468899	 0.122074
H	 0.6291106961	 1.8820481843	-1.5435314837	 0.120987
H	 1.079201679	 2.3032821516	 0.1273257358	 0.144469
H	-0.8085953495	 0.6520048369	 0.0469739568	 0.094278
H	-1.5294163738	-0.492118776	-1.8515774926	 0.085519
H	-0.4772945838	 0.1764484141	-4.0634753369	 0.114
H	 1.1763832925	-0.1127953546	-3.3391397806	 0.12277
H	 0.6055840905	-2.4968844019	-2.8591653236	 0.126251
H	-1.0598623451	-2.279689817	-3.5777111631	 0.116853
H	-0.2822183977	-1.9676392986	 1.5155388039	 0.14084
H	 1.4056102614	-2.0625198148	 1.0704179681	 0.152094
H	 0.9705272501	-1.6405255807	 2.7600210424	 0.132751
