19
gdb 100703	2.80809	1.02463	0.80758	2.6851	68.82	-0.2626	-0.0227	0.2399	1407.3735	0.155803	-497.311007	-497.300517	-497.299572	-497.347079	37.423	
C	 0.0662597285	 1.4623334009	 0.0312897743	-0.478668
C	 0.0517704407	-0.0387173686	-0.0582625209	 0.360424
O	 1.0616981974	-0.7015425352	-0.1876537681	-0.322896
C	-1.2909095396	-0.7903351617	-0.0071438772	 0.023909
O	-1.0703804416	-2.1406381609	-0.316148438	-0.438337
C	-1.9632912189	-0.6737095484	 1.3775848938	 0.106397
O	-2.3860396153	 0.6651914092	 1.5689017423	-0.44617
C	-3.1667941675	-1.6087833155	 1.4808688053	-0.101926
O	-3.7823837871	-1.2965498228	 2.7307321657	-0.438136
H	 1.0947572871	 1.8247592591	 0.0197246831	 0.137494
H	-0.484177396	 1.8834541286	-0.8179903354	 0.145162
H	-0.4627918111	 1.7880503622	 0.9304291862	 0.176902
H	-1.9741149813	-0.3325283916	-0.7402452355	 0.091082
H	-0.1015190114	-2.2257863237	-0.3595721562	 0.294002
H	-1.2358489996	-0.9676554427	 2.1528107438	 0.08158
H	-3.0368156272	 0.6259880753	 2.2826594407	 0.295798
H	-3.8528374103	-1.4118135526	 0.6437328325	 0.095256
H	-2.8398616086	-2.6522847735	 1.4328139607	 0.121309
H	-4.6458605582	-1.716809728	 2.7625051329	 0.296817
