17
gdb 4766	6.06009	1.18299	1.0403	0.7733	72.73	-0.1986	0.0358	0.2344	1136.9757	0.143052	-363.901216	-363.892974	-363.89203	-363.934265	30.037	
C	 0.254016725	 1.5524926606	-0.2458192856	-0.498668
C	 0.1078065364	 0.082774639	 0.0119956665	 0.29104
C	-0.5323816982	-0.8319974823	-0.7951900923	-0.178425
N	-0.4329921727	-2.0692875372	-0.2098571489	-0.2841
C	 0.2504376824	-1.9701308406	 0.9779672498	 0.286122
C	 0.5071131869	-3.1807337529	 1.8121781754	-0.179018
O	-0.6586840209	-3.9903280987	 1.9756754804	-0.419594
C	 0.5969054473	-0.646167575	 1.1381738718	-0.339749
H	 1.3060418432	 1.8487402597	-0.3349529874	 0.122811
H	-0.2479226524	 1.8420787716	-1.1739018801	 0.116393
H	-0.1780968886	 2.152816166	 0.5635617632	 0.121491
H	-1.0552363513	-0.6957578102	-1.7291416799	 0.111264
H	-0.8625950303	-2.9180330591	-0.5356730972	 0.262372
H	 1.2385503528	-3.8488221846	 1.3404153415	 0.117312
H	 0.9313695923	-2.8680626788	 2.7769107505	 0.103104
H	-1.337944446	-3.4294588233	 2.3664404267	 0.281898
H	 1.1536469539	-0.2416582142	 1.9714628357	 0.085747
