13
gdb 130471	4.1155	1.65444	1.18005	1.6536	73.02	-0.2433	-0.0781	0.1651	936.3662	0.093183	-415.631424	-415.625669	-415.624725	-415.661515	22.961	
O	-0.023895237	 1.2874814742	 0.0092157415	-0.143024
C	 1.2203575276	 1.7501679498	-0.000237176	-0.032477
C	 2.1030260907	 0.6981400905	-0.0143170959	 0.07931
C	 3.511778771	 0.5034256724	-0.0288663358	-0.070072
N	 4.0383503249	-0.6903083295	-0.040287375	-0.28423
C	 3.1974150304	-1.7836652435	-0.0380584731	 0.01413
C	 1.8326636424	-1.7414687064	-0.0247436733	-0.225164
C	 1.2391560777	-0.44937483	-0.0121565975	 0.368891
N	-0.0411074109	-0.1089101276	 0.0019413287	-0.246399
H	 1.3290394865	 2.8236970505	 0.0044472816	 0.171551
H	 4.1918160179	 1.3532939601	-0.0308498991	 0.122989
H	 3.7098777107	-2.7408891881	-0.0480806814	 0.120711
H	 1.230543518	-2.6412910522	-0.0237674447	 0.123781
