14
gdb 54777	4.28377	1.1249	0.99173	2.3845	63.84	-0.2579	-0.0314	0.2264	1130.0504	0.099893	-473.787295	-473.779472	-473.778528	-473.820633	28.775	
N	 0.5643266936	 0.4433142745	-0.8374197626	-0.529364
C	 0.0406085234	 0.0005342031	 0.3335357284	 0.371962
O	 0.4209794044	 0.3744011426	 1.4257205951	-0.353071
C	-1.0937696667	-1.0272093042	 0.2457300769	-0.080978
C	-2.2425099939	-0.8492636699	-0.7931229842	-0.107373
O	-1.3127000127	-1.3023673397	-1.8696053611	-0.308969
C	-0.9944050266	-2.2286118844	-0.7430435119	-0.107046
C	-2.5377530089	-2.3651734222	-0.6138887449	 0.492381
O	-3.4139646204	-3.1549209572	-0.5284475712	-0.294697
H	 1.3133992339	 1.1145024098	-0.7950941429	 0.261532
H	 0.2178622268	 0.0951662938	-1.7166450427	 0.271815
H	-1.3968537635	-1.2647274708	 1.2667559147	 0.123768
H	-2.8729278338	 0.0127971674	-0.9967053076	 0.129992
H	-0.1931113756	-2.9487918629	-0.8889938759	 0.130049
