17
gdb 23503	4.99005	1.1814	1.07957	1.7569	77.3	-0.2313	0.0034	0.2347	1114.4681	0.137707	-417.900047	-417.893119	-417.892175	-417.931308	28.044	
O	-0.1324004295	 1.3178269593	 0.0335710293	-0.389517
N	 0.0142043971	-0.0800993318	 0.0108785909	-0.266353
C	-1.1174830443	-0.6546705984	 0.0097086188	 0.468595
C	-2.5329577789	-0.1166954131	 0.0196777858	-0.343201
C	-3.2417660999	-1.4674595864	 0.0374443918	 0.014166
C	-2.5028810045	-2.4824906256	 0.9534628528	-0.073652
C	-2.8910468495	-3.5470105323	-0.0759744488	-0.175515
N	-2.5072893852	-2.3759724508	-0.9862640438	-0.162014
C	-1.320154496	-2.1293723139	-0.0004366177	-0.089344
H	 0.7824816476	 1.618944056	 0.0231572622	 0.307617
H	-2.7435771385	 0.5044795244	 0.8958995445	 0.128128
H	-2.7554140708	 0.4714149988	-0.8761065884	 0.137751
H	-4.3299911043	-1.4922105067	-0.0360037854	 0.079613
H	-2.4896403182	-2.5347623437	 2.0482103343	 0.07003
H	-2.2419590254	-4.419356682	-0.1912406037	 0.104176
H	-3.9449046231	-3.8296888209	-0.1550876347	 0.102179
H	-0.4595128268	-2.7864848228	-0.1121324478	 0.087342
