19
gdb 110686	4.94774	1.11262	1.06647	1.5413	75.34	-0.2344	0.0935	0.328	1181.0468	0.160359	-422.966005	-422.958521	-422.957577	-422.998128	29.205	
C	-0.2595910465	 1.2768513213	 0.1051018438	-0.241149
O	 0.3761793584	 0.0409948514	-0.136185059	-0.251621
C	 0.8704852983	-0.5624997866	 1.0278593542	 0.151234
C	-0.0959272169	-1.3890449079	 1.9154032914	-0.142307
C	-0.1354628235	-2.4921721803	 0.7962903527	-0.054474
C	-0.1714997834	-3.8316971113	 1.5177541879	-0.109894
O	 0.7365764923	-3.5787971553	 2.6045465313	-0.282776
C	 1.1266785513	-2.2405507132	 2.3657486349	 0.141428
C	 1.358630479	-2.0040313869	 0.8442396346	-0.140808
H	 0.4206970718	 1.9951829977	 0.5888639289	 0.105481
H	-0.5654973376	 1.6796094662	-0.8633113074	 0.127923
H	-1.1504438273	 1.1655248585	 0.7411139872	 0.107313
H	 1.5438914314	 0.1256737862	 1.5617419466	 0.06039
H	-0.9254272343	-1.0501961195	 2.5368274188	 0.071972
H	-0.7290260667	-2.3421601427	-0.1014621682	 0.089269
H	-1.1634534267	-4.090100559	 1.9090796323	 0.102149
H	 0.1956617717	-4.6661937577	 0.9074638491	 0.103364
H	 1.830153424	-1.9013460821	 3.1247388628	 0.086174
H	 2.1886551147	-2.3592568489	 0.2334407783	 0.076332
