18
gdb 10330	2.50201	1.57742	1.04199	3.4201	64.54	-0.2476	-0.0174	0.2302	1121.8239	0.150107	-422.075441	-422.065505	-422.064561	-422.110794	34.319	
C	 0.0341938789	 1.5420985534	-0.1734856449	-0.4082
C	-0.0162602505	 0.0285342039	 0.0328698337	 0.124145
O	 0.4955637423	-0.6660683075	-1.1006208355	-0.425022
C	 0.6989783745	-0.4417002019	 1.3186836111	-0.144372
C	-0.0147253882	 0.0125181324	 2.6050126144	-0.078978
O	 0.5072144369	-0.6086044906	 3.7659073354	-0.409718
C	 0.7937106689	-1.9602372618	 1.3120663234	 0.186009
O	 1.8254046295	-2.5767879183	 1.3476255452	-0.259821
H	 1.0717013969	 1.8964034004	-0.2025577209	 0.113012
H	-0.4407925459	 1.797266433	-1.1243660423	 0.133317
H	-0.4834018609	 2.0814781993	 0.6255679096	 0.123739
H	-1.0653977457	-0.2897764026	 0.0860845434	 0.097041
H	 1.4399014104	-0.4825500298	-1.1663231735	 0.284837
H	 1.7303541935	-0.0599594867	 1.3189723124	 0.076074
H	 0.0158656858	 1.1086813354	 2.6845456655	 0.102017
H	-1.0704310066	-0.2807559683	 2.5666348363	 0.11883
H	 1.4534443423	-0.4332841454	 3.8053457551	 0.290257
H	-0.1921142421	-2.4780692151	 1.2788807117	 0.076835
