17
gdb 61061	3.03474	1.23402	1.05638	1.5864	65.13	-0.258	-0.0455	0.2125	1146.3464	0.134412	-496.079986	-496.071342	-496.070398	-496.113736	31.64	
O	 0.1210116743	 1.5157450058	 0.2276118453	-0.443765
C	 0.0183437386	 0.1194419283	 0.0795107827	 0.01176
C	 0.7738063704	-0.3127407454	-1.162341361	 0.152992
O	 1.3670735777	 0.487215798	-1.8429717131	-0.257374
C	 0.5554864263	-0.6257968746	 1.3081451321	 0.05229
O	 1.949374439	-0.3562302535	 1.5337959981	-0.292575
C	 1.6740289719	 0.4022578381	 2.7354965466	-0.106297
C	 0.1788420011	 0.0009732308	 2.6885786142	 0.086224
O	-0.8085819482	 0.9794946699	 2.7586196082	-0.429653
H	 0.7301447332	 1.812089526	-0.469196246	 0.304326
H	-1.0380305452	-0.1726498285	-0.0515108073	 0.111711
H	 0.7543359468	-1.3929736915	-1.405224283	 0.107929
H	 0.3593680438	-1.7015804903	 1.1955386881	 0.079932
H	 2.2617787076	 0.0455872019	 3.5880878767	 0.107578
H	 1.8435673811	 1.4756058695	 2.5894567679	 0.107354
H	-0.0800443221	-0.75983443	 3.428420548	 0.104127
H	-0.6172579462	 1.6279691555	 2.0658518724	 0.303439
