22
gdb 58199	2.14286	1.11378	1.0221	3.0082	82.15	-0.2803	0.0295	0.3098	1365.5258	0.191758	-404.377	-404.366042	-404.365098	-404.412998	39.862	
C	 0.1517574413	 1.6090995268	 0.0331011944	-0.391033
C	 0.0063268262	 0.1017293001	 0.2887508332	-0.000188
C	 0.5836060164	-0.270221122	 1.6630037416	-0.405455
C	-1.4692837109	-0.3205238972	 0.1296382847	 0.129943
O	-1.9922735923	 0.0514139478	-1.1361227859	-0.433249
C	-1.7455786218	-1.8312107854	 0.3940901212	-0.153527
C	-3.2533962809	-2.1453029768	 0.362131628	-0.397091
C	-1.0269915533	-2.6339510279	-0.6013321587	 0.265162
N	-0.461790314	-3.2264821082	-1.4182049603	-0.335265
H	 1.2065512541	 1.900059895	 0.0343276317	 0.11258
H	-0.2878719048	 1.8920512574	-0.9251171307	 0.128416
H	-0.3536556519	 2.1864018371	 0.8168273087	 0.111832
H	 0.5813566258	-0.4356943807	-0.4797584281	 0.090134
H	 1.5896082441	 0.1452678993	 1.7744486899	 0.121907
H	-0.0308999972	 0.1396331647	 2.4739737869	 0.114844
H	 0.6643787347	-1.35094825	 1.8095192591	 0.121884
H	-2.0730752979	 0.2349942867	 0.8589397628	 0.091913
H	-1.4603034157	-0.3831358094	-1.8149257141	 0.292857
H	-1.3488297961	-2.0948261857	 1.3799474096	 0.126389
H	-3.7557272531	-1.6024398687	 1.1680205558	 0.124254
H	-3.6845139302	-1.827778923	-0.5887180128	 0.151485
H	-3.4362741823	-3.2136760701	 0.4981583532	 0.13221
