12
gdb 21377	5.54234	2.38776	1.6688	2.9309	60.57	-0.213	0.0031	0.216	694.9952	0.088427	-373.726007	-373.720669	-373.719725	-373.755213	20.968	
N	-0.0326263729	 1.3482778166	 0.0100566231	-0.404809
C	 1.2836129781	 1.7473007595	-0.0005389757	 0.051375
N	 2.1316426073	 0.7507812625	-0.0143861698	-0.253327
N	 1.3112265998	-0.348297269	-0.0125812511	 0.04433
C	 1.3889833479	-1.7278240391	-0.0211380758	-0.147104
C	 0.0686042656	-2.124344306	-0.0105671057	-0.085624
N	-0.8226203497	-1.0597101305	 0.0042198711	-0.402829
C	-0.0144114181	-0.0294916695	 0.0021526487	 0.500535
H	-0.8466183907	 1.9360745418	 0.0215890469	 0.289656
H	 1.5788583577	 2.783950529	 0.0024106723	 0.158165
H	 2.3223810881	-2.2608590949	-0.0332357727	 0.138505
H	-0.2977681631	-3.1398373204	-0.0127659112	 0.111126
