23
gdb 104979	2.40223	1.27963	1.11064	2.0158	80.45	-0.2594	0.0758	0.3352	1250.0202	0.203393	-425.410044	-425.399787	-425.398843	-425.444389	39.719	
C	-0.3481753845	 1.4817247143	-0.1570276051	-0.427319
C	-0.0201020339	-0.0162908996	-0.0180891603	 0.181883
C	 0.9535811556	-0.1874895511	 1.1685314615	-0.412573
C	-1.3241958341	-0.7926662947	 0.2538923046	-0.419579
C	 0.6495160551	-0.564106525	-1.2921054246	 0.369002
C	 0.8545676352	-2.0821405391	-1.3813966431	-0.137875
O	 1.7390931579	-2.4291538569	-2.4231732964	-0.421385
C	 0.6525920794	 0.1655015174	-2.5692046668	-0.238181
O	 1.8227163247	 0.1528519092	-1.7286010495	-0.299088
H	 0.5354017226	 2.0512954615	-0.4586448307	 0.132151
H	-1.1446173716	 1.6584249881	-0.8864402298	 0.110227
H	-0.6918223978	 1.8762893771	 0.8043462627	 0.110526
H	 0.5126417123	 0.2293957526	 2.0796594512	 0.110747
H	 1.1857962211	-1.2374461273	 1.3685127605	 0.113872
H	 1.8932373851	 0.3372571521	 0.9732481201	 0.131402
H	-2.0113581683	-0.7283125024	-0.596855897	 0.115072
H	-1.1392552944	-1.8505550428	 0.4624597176	 0.120173
H	-1.8347930769	-0.3721019115	 1.1263232495	 0.115266
H	 1.2155706939	-2.4639306366	-0.414253753	 0.094705
H	-0.1012099155	-2.5736934216	-1.5899882058	 0.115859
H	 2.4492257313	-1.7732545144	-2.3831835509	 0.291208
H	 0.754758899	-0.4011134378	-3.4913938221	 0.12702
H	 0.1677051838	 1.1325238084	-2.6582317524	 0.116888
