17
gdb 9933	3.04041	1.51514	1.42484	4.7865	69.57	-0.2718	0.0326	0.3044	975.4018	0.140298	-363.866392	-363.857327	-363.856383	-363.899613	32.482	
C	-0.068655382	 1.5452825305	-0.0292925853	-0.429046
C	 0.0610473136	 0.0393176781	 0.0136321452	-0.085408
C	 1.3886848585	-0.64895016	-0.1717796863	 0.058117
O	 2.559838762	 0.1015957638	-0.2551966947	-0.415155
C	 0.7311911234	-0.6725469314	 1.2033010834	 0.109367
C	 1.3434955491	 0.1117009135	 2.3549972366	-0.461664
C	 0.1335491005	-1.9269366298	 1.5885754924	 0.242333
N	-0.3511591363	-2.9313160301	 1.8982332008	-0.349308
H	 0.8673982158	 2.04225657	 0.2321284931	 0.133214
H	-0.3477974433	 1.8683118596	-1.0380655635	 0.124768
H	-0.8466710906	 1.8964408884	 0.65542744	 0.133435
H	-0.7896351716	-0.4983123199	-0.3950150098	 0.110471
H	 1.4051959099	-1.5894464043	-0.7201993142	 0.112276
H	 2.610172481	 0.4834844571	-1.1381780879	 0.297685
H	 1.9377215811	 0.9444276964	 1.9810552064	 0.145282
H	 0.5654646959	 0.4956080578	 3.0210649467	 0.132404
H	 2.003264603	-0.5342720097	 2.9405016771	 0.141228
