14
gdb 2790	4.26696	2.44037	1.66658	4.2483	54.09	-0.2583	0.0221	0.2804	721.9585	0.114409	-361.728609	-361.721789	-361.720845	-361.759518	24.474	
O	 0.0413761902	 1.3786408241	 0.1976050694	-0.422144
C	 0.058196253	 0.0067701467	-0.133528742	-0.068121
C	-1.3620030631	-0.5583397642	-0.1244970001	-0.160605
C	-1.5748555346	-2.1004102253	-0.0513672257	-0.189508
N	-2.2053079511	-1.8827895612	 1.2598147176	-0.322098
C	-1.9691827533	-0.5336375292	 1.2941036305	 0.438066
O	-2.1038677571	 0.3156457348	 2.141410163	-0.378846
H	-0.4643933762	 1.4662000002	 1.0177008913	 0.300333
H	 0.5084435818	-0.0763184587	-1.1284521129	 0.110662
H	 0.6875555085	-0.5760479388	 0.5612417899	 0.086889
H	-1.9802443351	-0.0515462714	-0.8687117926	 0.112867
H	-2.2426580326	-2.5264655728	-0.8048546058	 0.120261
H	-0.6492291621	-2.6840761167	-0.0053338583	 0.118487
H	-2.4667483282	-2.5271546576	 1.9920636558	 0.253757
