16
gdb 23415	3.73287	1.2559	0.99406	2.1876	74.09	-0.2349	-0.0054	0.2295	1142.4465	0.125876	-433.994638	-433.987127	-433.986183	-434.026742	28.924	
O	-0.2505159811	 1.4359032855	-0.010168143	-0.387433
N	 0.0343628956	 0.0602376831	 0.0048081318	-0.218806
C	-1.0317337442	-0.6285909772	 0.0189618997	 0.350203
C	-2.5036396224	-0.162280923	-0.0397878172	-0.246651
N	-3.2754201524	-1.3260149907	-0.549129018	-0.310968
C	-2.4938983844	-2.314929568	-0.4008849137	 0.361809
N	-2.2604732218	-3.5591444221	-0.9877022497	-0.355043
C	-0.7868926737	-3.2281629454	-0.9948766773	-0.201062
C	-1.0879864777	-2.1327654141	 0.0924177342	-0.191868
H	 0.6286973473	 1.8262843002	-0.0586790647	 0.308989
H	-2.855775298	 0.1797014409	 0.9430063278	 0.127572
H	-2.6161178723	 0.682489024	-0.725457091	 0.140114
H	-2.7408736405	-3.7885871595	-1.8511049904	 0.244866
H	-0.1494957393	-4.0576834838	-0.6852146572	 0.125509
H	-0.4460100582	-2.8079668241	-1.9454197734	 0.128754
H	-0.8801014368	-2.5106716858	 1.096650372	 0.124015
