20
gdb 6291	4.23721	0.97502	0.93439	2.1541	72.88	-0.2721	-0.0357	0.2364	1325.4837	0.174054	-386.159311	-386.149581	-386.148637	-386.194272	34.776	
C	-0.0813772938	 1.5530039611	-0.1188765299	-0.390927
C	 0.0426221809	 0.0257791579	-0.0378656543	 0.047658
C	 0.7961932457	-0.5241543343	-1.2560601215	-0.394829
C	 0.727260838	-0.4409405323	 1.2605020023	-0.20027
C	-0.0837896519	-0.137207814	 2.5347374828	 0.038663
O	-1.3617456246	-0.7125235915	 2.4813861541	-0.432326
C	 0.662226889	-0.6293216389	 3.7557099916	 0.138878
O	 0.173930606	-1.4200400221	 4.5272924737	-0.263606
H	 0.9057836576	 2.0311119657	-0.0927812208	 0.107546
H	-0.5673781926	 1.8515322147	-1.0533227552	 0.115165
H	-0.6772458216	 1.9648768014	 0.7012340987	 0.120188
H	-0.9670054591	-0.4015972743	-0.0354437643	 0.10177
H	 1.8205985194	-0.1339105576	-1.2965393292	 0.109408
H	 0.8569472023	-1.6171509666	-1.2285795826	 0.112352
H	 0.2974253315	-0.2392539833	-2.1880816287	 0.11288
H	 0.884385001	-1.5258842291	 1.212977734	 0.103572
H	 1.7190829398	 0.0258317668	 1.3460708443	 0.090311
H	-0.1639860493	 0.9594621802	 2.6489948777	 0.093167
H	-1.4228947301	-1.2854717481	 3.2622105886	 0.293871
H	 1.6861217019	-0.2277670456	 3.9019992189	 0.096528
