18
gdb 20095	4.33142	1.65563	1.48012	1.5101	72.28	-0.2239	0.0785	0.3024	916.5813	0.154275	-347.746061	-347.738921	-347.737977	-347.777515	27.902	
C	-0.1546264794	 1.4461543782	-0.0763768216	-0.268972
C	 1.2340173193	 0.9174361755	 0.1766316205	-0.26544
C	 0.0743382286	-0.0416995677	 0.0270770776	-0.107184
C	-0.39735558	-0.7898786772	 1.2138782138	 0.492275
C	-0.387422059	-2.2734478914	 1.4170642922	-0.338977
C	-1.683656827	-1.5028109994	 1.5998944418	-0.188401
C	-1.5932425138	-0.6932507449	 2.8834924787	-0.087427
O	-0.3139953041	-0.1251114925	 2.4863517687	-0.324525
H	-0.6575981151	 1.925576779	 0.7554138344	 0.122477
H	-0.3849047498	 1.8596455538	-1.0519009392	 0.106855
H	 1.9647969314	 0.961024703	-0.623025781	 0.109215
H	 1.6394201028	 1.0480643827	 1.1730650363	 0.133102
H	 0.0315797731	-0.614160117	-0.8944506875	 0.083843
H	-0.3441138377	-2.8690484821	 0.5100313823	 0.112621
H	 0.129963374	-2.6996443217	 2.2733473597	 0.111062
H	-2.5813593097	-1.7034898793	 1.0310103811	 0.098699
H	-2.3524650272	 0.0925297991	 2.9663557619	 0.107884
H	-1.5229434965	-1.2410173479	 3.8312390202	 0.102892
