14
gdb 33917	4.13396	1.33035	1.20048	4.93	66.97	-0.2705	-0.0175	0.253	1003.0912	0.101124	-436.613721	-436.606907	-436.605963	-436.645066	26.096	
N	-0.0090225601	-1.1415881871	-0.137745154	-0.331973
C	 0.0363527374	 0.0110343291	-0.0509763887	 0.188783
C	 0.0626448048	 1.4263081164	 0.133074952	 0.336784
O	 0.2678977982	 2.2729188923	-0.998666533	-0.251377
C	 1.1771680079	 2.4140285184	 0.0846595484	-0.067794
C	 0.5134496557	 3.2972555021	 1.1683566192	-0.129033
C	-0.5871967915	 4.2673353794	 0.6776660201	-0.084041
O	-1.5999484985	 3.2257673039	 0.7804455924	-0.272361
C	-0.6464394449	 2.280011768	 1.2476830588	 0.01442
H	 2.2292388943	 2.257016725	-0.1222711126	 0.13762
H	 1.1247994929	 3.5610136882	 2.0277690176	 0.105988
H	-0.8038613863	 5.0886603511	 1.3680858743	 0.115302
H	-0.487044304	 4.6419045738	-0.3438395954	 0.129305
H	-0.941249056	 1.7258918695	 2.1408655008	 0.108376
