17
gdb 74989	2.93606	1.53523	1.1422	1.8338	74.87	-0.2444	-0.0522	0.1922	1074.8611	0.136416	-421.84581	-421.837893	-421.836948	-421.878689	29.269	
C	-0.2605878773	 1.5314733118	 0.0152593156	-0.490424
C	-0.0799546478	 0.0512903665	-0.0532963174	 0.203023
C	-0.0789850816	-0.7604012567	-1.1226800979	-0.175145
C	 0.1551832834	-2.2021888965	-0.7615380494	 0.080297
O	 1.5262841946	-2.630907474	-1.0066547919	-0.291244
C	 1.8177072595	-2.6200244433	 0.4052846432	-0.083396
C	 0.3664051403	-2.1961645424	 0.76121074	-0.204548
C	 0.1730102784	-0.7457707765	 1.186133355	 0.330024
O	 0.2303314253	-0.3052074359	 2.3115543054	-0.329738
H	 0.6215487498	 2.0040437396	 0.4608544653	 0.147352
H	-0.4345529956	 1.9678821974	-0.9708499747	 0.124838
H	-1.1032024338	 1.7827063581	 0.6684447934	 0.146789
H	-0.1917534049	-0.438288945	-2.1529340452	 0.116137
H	-0.562573385	-2.8981223083	-1.207483294	 0.088961
H	 2.0976366017	-3.6153249991	 0.7664253685	 0.115929
H	 2.605476571	-1.9045550955	 0.6688099146	 0.11501
H	-0.189331828	-2.8946660903	 1.3845977795	 0.106134
