21
gdb 118160	3.93454	0.77759	0.6852	3.2692	75.75	-0.2431	0.0749	0.318	1662.6224	0.181014	-461.321444	-461.311336	-461.310392	-461.357888	35.272	
C	 0.0286547329	 1.329662457	-0.1108689982	-0.230242
O	 0.0621235297	-0.0769728078	-0.0286127142	-0.24891
C	 0.5927511631	-0.559519808	 1.1909385771	-0.087017
C	 0.6841027089	-2.0770971713	 1.0579951743	 0.099285
O	 1.4723956652	-2.414614167	-0.071826487	-0.449321
C	 1.3215915352	-2.733436542	 2.2692478616	-0.026334
C	 0.4563104189	-2.8532484372	 3.5439828064	-0.091068
O	 0.4541714871	-4.2905347563	 3.4689111084	-0.273622
C	 1.2845091779	-4.2768766175	 2.286091367	-0.085684
H	 1.0348646232	 1.7662506435	-0.0174836839	 0.110494
H	-0.3828891673	 1.5904217531	-1.0887364338	 0.131765
H	-0.6105319453	 1.7654584277	 0.6719261644	 0.1105
H	 1.5974957514	-0.1393833857	 1.3639103558	 0.092068
H	-0.0510585234	-0.2721935076	 2.0382463388	 0.091939
H	-0.3418122316	-2.4675453967	 0.9374770314	 0.074137
H	 1.1667277917	-1.8416661763	-0.7859313807	 0.290593
H	 2.3169392903	-2.3127620463	 2.4327608749	 0.082355
H	 0.9200221146	-2.488816916	 4.4692888603	 0.098946
H	-0.5579617075	-2.4362241932	 3.4719053222	 0.096576
H	 0.789161726	-4.7401421541	 1.4248771715	 0.112222
H	 2.2464556291	-4.7744846785	 2.4554971435	 0.101318
