14
gdb 4272	3.88552	1.86029	1.26096	6.9905	68.16	-0.2073	-0.0043	0.203	896.7107	0.110101	-378.780318	-378.773503	-378.772559	-378.811015	26.525	
N	 0.0977210845	 1.4054946608	 0.1433722993	-0.587539
C	-0.0092531198	 0.0167649967	 0.0370756546	 0.434989
C	-1.1734693888	-0.6865677881	 0.0112026377	-0.33791
C	-1.2039996848	-2.1453208494	-0.0108023005	 0.392258
O	-2.2419996812	-2.8011734517	-0.0287825862	-0.410508
C	 0.130870843	-2.7646013626	-0.0328271779	-0.246865
C	 1.2522232313	-2.0180866096	-0.0118165976	 0.021466
N	 1.1973913671	-0.6423156195	 0.0136317715	-0.369529
H	 0.7362083704	 1.8200029168	-0.5257978054	 0.250743
H	-0.8020413304	 1.863155749	 0.0907820151	 0.262403
H	-2.1214029454	-0.1613659398	-0.0087314904	 0.09208
H	 0.1893245978	-3.8451689976	-0.0670227733	 0.109183
H	 2.252289656	-2.4351059899	-0.0185551035	 0.128885
H	 2.0341957104	-0.114690885	 0.2003306466	 0.260344
