19
gdb 81177	3.23985	1.04875	0.94286	3.1374	76.59	-0.2414	-0.0248	0.2166	1302.6995	0.15685	-422.969689	-422.960768	-422.959824	-423.004316	32.783	
C	-0.2312031797	 1.6016354208	-0.1769164097	-0.444179
C	-0.0057271605	 0.1115673342	 0.0158633267	 0.000855
C	 1.1647939927	-0.6754638635	-0.6404268559	 0.033911
C	 2.1781119018	-0.0402944044	 0.3352985266	-0.272863
C	 0.9158637341	-0.4852024671	 1.1268761608	 0.388882
C	 0.6907444648	-0.5844488013	 2.6128722043	-0.417298
C	 1.7652433869	-1.405430007	 3.3033479664	 0.157453
O	 2.3755731839	-1.0411691204	 4.2749161386	-0.240063
O	 0.9378820233	-1.7553063154	 0.3496986372	-0.343953
H	 0.6865976363	 2.1911806835	-0.1119129213	 0.12243
H	-0.680733812	 1.7934834991	-1.1570554358	 0.127153
H	-0.9263139364	 1.9836199912	 0.5785694	 0.126224
H	-0.9402433545	-0.4528676678	-0.0528528351	 0.083398
H	 1.3006934871	-0.9742397324	-1.6797376232	 0.09635
H	 3.069668946	-0.6408584217	 0.520497851	 0.112748
H	 2.40274689	 1.0242547529	 0.2541836441	 0.101886
H	 0.652596346	 0.409033246	 3.0689929003	 0.129905
H	-0.2748215751	-1.0824333552	 2.7799335025	 0.134572
H	 1.9514594254	-2.3963085217	 2.8372212624	 0.102588
