21
gdb 89007	3.91188	0.78898	0.74469	2.5933	78.45	-0.239	0.0748	0.3138	1573.6881	0.182072	-424.178978	-424.169649	-424.168705	-424.214365	34.077	
O	-0.158773276	 1.4597187526	 0.2985219072	-0.416627
C	-0.0554464767	 0.0716023819	 0.1569306458	 0.085997
C	-0.6903816589	-0.8298052482	 1.1870890648	-0.32616
C	-1.3148027701	-0.6668108952	-0.1899027188	-0.014218
C	-2.6273172109	 0.0694667963	-0.3719123225	-0.235421
C	-3.848150672	-0.8208195903	-0.1675805295	-0.009344
C	-4.2724456695	-1.1981817329	 1.2714732115	-0.073517
O	-5.6057990362	-0.691094692	 1.059847639	-0.273461
C	-5.2446532175	-0.1619563824	-0.2322857513	-0.09366
H	 0.4123017354	 1.7273808817	 1.0257724214	 0.288881
H	 0.8688598997	-0.2676742614	-0.3109675378	 0.085197
H	-0.2040559184	-1.7644880212	 1.4447246793	 0.110412
H	-1.1891338754	-0.3333707857	 2.0131768848	 0.114946
H	-1.1808432684	-1.5088584467	-0.865323668	 0.085253
H	-2.6666311459	 0.9243522264	 0.3114383865	 0.110019
H	-2.6628636731	 0.4911310544	-1.3860135686	 0.101672
H	-3.7844142816	-1.7011985632	-0.8147916059	 0.075706
H	-4.2736862276	-2.2636275236	 1.5293591058	 0.098893
H	-3.7469052425	-0.6432476043	 2.0609634803	 0.092308
H	-5.2263344944	 0.9375451326	-0.2344238652	 0.09444
H	-5.9224423802	-0.5060016588	-1.0225671889	 0.098685
