19
gdb 62070	4.01113	0.81923	0.74336	3.9893	72.93	-0.247	-0.0253	0.2217	1525.0375	0.155569	-460.133662	-460.123746	-460.122802	-460.170025	34.423	
C	-0.0123976397	 1.0715175437	 1.1936082837	-0.408014
C	 0.2572415359	-0.1358640127	 0.298384919	 0.034326
O	 0.5149775628	-1.3320008383	 1.0256284338	-0.264887
C	 1.8690674776	-1.7151012936	 1.1555735605	-0.105981
C	 2.6422373136	-0.8806797227	 2.1473145734	 0.075416
C	 4.090891103	-0.6854926428	 2.0146110612	-0.177821
O	 3.1794989422	 0.3550890562	 1.6601780305	-0.228033
C	-0.9259649202	-0.4426795951	-0.6199488616	 0.151512
O	-1.636381087	 0.3911749233	-1.115523349	-0.243987
H	 0.9003075773	 1.396087573	 1.6957650757	 0.14402
H	-0.3974049086	 1.8907734079	 0.5812432499	 0.139627
H	-0.7668083851	 0.8172730321	 1.9437235069	 0.124798
H	 1.1078310506	 0.0852771508	-0.3677162559	 0.109785
H	 1.8497609874	-2.7565572614	 1.4974206647	 0.115934
H	 2.3844870257	-1.681907564	 0.1830669404	 0.098736
H	 2.1962903257	-0.8115234981	 3.1399749671	 0.10622
H	 4.6921168943	-0.5017327623	 2.9031697946	 0.123244
H	 4.6229057458	-1.1425366774	 1.1809907589	 0.11849
H	-1.0650967011	-1.5315844985	-0.8032703139	 0.086614
