17
gdb 82007	2.5762	1.43928	1.30366	3.2135	72.61	-0.2541	0.0028	0.2569	1052.2589	0.134941	-417.967673	-417.959036	-417.958091	-418.000615	32.446	
C	-0.2209503801	 1.542076894	 0.033296144	-0.41713
C	 0.040508992	 0.052193376	-0.0580358782	-0.005698
N	 0.712571601	-0.4728758578	-1.3012181571	-0.133119
C	 2.0905339274	 0.0473248222	-1.3116858838	-0.256249
C	 1.7886911984	-1.0909128154	-0.4254208868	-0.046319
C	 1.1521214713	-0.5891280483	 0.8685321757	 0.223807
O	 2.0037363584	 0.2665669066	 1.5972538422	-0.457729
C	 0.6230053207	-1.6532508433	 1.7291559475	 0.227776
N	 0.1912344428	-2.4580804697	 2.4378952556	-0.333374
H	 0.6991642434	 2.1287255397	 0.0721892437	 0.133716
H	-0.8049494536	 1.8644130548	-0.8343932393	 0.140156
H	-0.8020216191	 1.770788635	 0.9328944492	 0.125529
H	-0.8945359625	-0.5022782417	 0.0487548234	 0.112512
H	 2.6106516183	-0.1838685185	-2.235685186	 0.133147
H	 2.3223074433	 1.0180951124	-0.887953144	 0.1375
H	 2.1581882751	-2.0977467164	-0.5786728558	 0.119096
H	 1.5655251833	 0.5177587204	 2.4188398898	 0.296378
