17
gdb 18912	3.89613	2.37806	2.12557	1.6429	70.21	-0.2192	0.0833	0.3025	732.93	0.144128	-326.677797	-326.671679	-326.670735	-326.707568	25.283	
C	-0.0486311577	 1.4927943425	 0.086481151	-0.504969
C	 0.0216335741	 0.0039156995	 0.0076329613	 0.377646
C	 1.1331568313	-0.8492298691	-0.5465049408	-0.121529
C	 0.5546306076	-1.8923039602	-1.4803398864	-0.243622
C	-0.7789152581	-2.0730557378	-0.7908129786	-0.047369
C	-0.655871602	-1.8712744757	 0.6752182622	-0.043809
C	 0.630807615	-1.0634089002	 0.8814237252	-0.166236
N	-1.262645588	-0.7959991789	-0.177016627	-0.196192
H	 0.9347630982	 1.914763492	 0.3170356685	 0.117168
H	-0.386283294	 1.9168490354	-0.8664950707	 0.124751
H	-0.7506103122	 1.8141757352	 0.8627010828	 0.128395
H	 2.1127688457	-0.4117333058	-0.6947890645	 0.087933
H	 0.4452846838	-1.5211110741	-2.505218391	 0.107423
H	 1.1333182885	-2.8222824334	-1.5047801946	 0.105512
H	-1.5611089193	-2.698353548	-1.2069963971	 0.093634
H	-1.230656749	-2.3859800969	 1.4362218817	 0.092093
H	 1.2404097561	-0.9938394047	 1.771353928	 0.089171
