19
gdb 73457	2.21626	1.96707	1.55375	2.3238	74.52	-0.2107	0.0739	0.2847	976.2075	0.158647	-422.98804	-422.979976	-422.979032	-423.020088	31.556	
C	 0.0430328239	 1.4482617226	 0.0519522786	-0.484549
C	-0.0304130494	-0.0483615916	-0.0017822165	 0.390892
O	 0.9672825818	-0.6338453833	-0.818429953	-0.305866
C	 0.4845107296	-1.9119340909	-1.2466574936	-0.085527
C	-0.6582672548	-2.20624651	-0.2906153936	 0.012514
O	-0.0886645398	-2.2243556915	 1.0554123187	-0.306326
C	-0.4761104679	-0.86001139	 1.2123467375	-0.023564
C	-1.3223975558	-0.8245476258	-0.0442252095	 0.17164
C	-2.711748896	-0.3818814822	-0.3876059612	-0.521687
H	 1.0354659872	 1.765855438	 0.3860555677	 0.137063
H	-0.1420758563	 1.8875123905	-0.9336572846	 0.126941
H	-0.6947484131	 1.8493703747	 0.7533074712	 0.120048
H	 0.1423044206	-1.8716012108	-2.2935269655	 0.088653
H	 1.2935532327	-2.643152479	-1.1587744123	 0.118416
H	-1.2723066157	-3.0841056484	-0.499806924	 0.084903
H	-0.6261060805	-0.4807756748	 2.2184588255	 0.098579
H	-2.8969766088	 0.6374461609	-0.0343752831	 0.126829
H	-2.8742643606	-0.3857797079	-1.4721091948	 0.12423
H	-3.4661968172	-1.0335468806	 0.0670161726	 0.126811
