19
gdb 121580	3.30222	0.84521	0.69077	3.386	76.03	-0.2309	-0.0441	0.1869	1619.7515	0.157309	-456.365773	-456.355246	-456.354302	-456.402715	36.415	
C	 0.094924669	 1.3620297521	-0.263980703	-0.467706
C	-0.020112057	-0.1212023769	-0.0262863506	 0.379646
O	 0.9329959567	-0.8336837186	 0.2079679697	-0.31915
C	-1.4187259973	-0.7291393716	-0.0783020339	 0.257917
N	-2.4143231584	 0.06583646	-0.2393442504	-0.53669
N	-1.3924524144	-2.0822063878	 0.049299697	-0.314348
C	-2.5649004943	-2.9086060685	 0.2021251286	-0.137621
C	-2.1968714755	-4.3703118136	-0.0056371258	-0.093012
O	-1.1966789932	-4.6924798612	 0.9496557522	-0.415237
H	 1.1397869154	 1.6624701082	-0.1807863127	 0.130623
H	-0.3006122309	 1.6129409608	-1.2525461553	 0.154664
H	-0.5250823045	 1.9053199116	 0.4539329898	 0.15976
H	-3.3058250843	-0.4319821101	-0.2322465557	 0.208424
H	-0.5057392378	-2.4747840144	 0.3374873406	 0.265004
H	-3.0226054203	-2.7858626562	 1.1962383942	 0.117598
H	-3.3190467455	-2.6271164127	-0.5433955425	 0.112203
H	-3.0957711859	-4.9915525455	 0.1228921766	 0.098042
H	-1.8265750994	-4.509146611	-1.0319190243	 0.103533
H	-0.8286732426	-5.5535420344	 0.7324587056	 0.29635
