20
gdb 78328	2.85474	1.47424	1.25592	0.7901	79.25	-0.213	0.074	0.287	1093.9592	0.170256	-403.071849	-403.063642	-403.062697	-403.103918	33.159	
C	-0.1364354605	 1.2904852086	-0.0449884045	-0.317517
N	 0.1171934109	-0.1437727514	 0.0569251095	-0.105902
C	 1.5378205739	-0.4985936462	-0.1266840526	-0.037767
C	 0.9172530716	-0.507188038	 1.2338976764	-0.072129
C	 1.011039768	-2.0486509788	 1.3026105647	 0.40366
O	 1.6779271945	-2.4371690205	 2.4651505374	-0.487876
C	-0.1886672169	-2.8836885546	 0.7658565261	-0.287265
C	 0.428743014	-2.8455772684	-0.6691260282	-0.222895
C	 1.6514415663	-2.0412986892	-0.1349932385	-0.135449
H	 0.6883607423	 1.9177656949	 0.3333293273	 0.099356
H	-0.309595574	 1.5492673275	-1.094305613	 0.123167
H	-1.0394095993	 1.5357762634	 0.5228450026	 0.124258
H	 2.2138451147	 0.2186614519	-0.578291956	 0.087311
H	 1.0232299522	 0.1729462821	 2.0714728245	 0.090308
H	 1.857757429	-3.3815567201	 2.4092463923	 0.27843
H	-0.2066528398	-3.8875671175	 1.2043017364	 0.081982
H	-1.1746054718	-2.4299567568	 0.8788001468	 0.109709
H	 0.6963779715	-3.8297610647	-1.0609607729	 0.088667
H	-0.1742631378	-2.3161741877	-1.4064941396	 0.112594
H	 2.6561974811	-2.4297009347	-0.3046785585	 0.067359
