16
gdb 13971	5.70456	1.11452	1.03032	1.8227	76.78	-0.2199	0.0248	0.2447	1179.2062	0.129139	-346.535435	-346.527391	-346.526447	-346.569475	28.651	
C	 0.0215604378	 1.4453325213	 0.0379604391	-0.507341
C	-0.0129601844	-0.0080457147	 0.0033846621	 0.18246
C	-0.0399909579	-1.2130751746	-0.0199168626	-0.076813
C	-0.0510843531	-2.6322054234	-0.0482602566	 0.298675
C	-0.3990456294	-3.4963568414	-1.2311965139	-0.33066
C	-1.1631079595	-3.6774818883	 0.0576972978	-0.183368
C	-0.2588258387	-4.3379283574	 1.0867320655	-0.091227
O	 0.7984795232	-3.370083439	 0.8514032013	-0.318764
H	 0.8038900614	 1.797132096	 0.7195324157	 0.156332
H	 0.2295585392	 1.8671641715	-0.951613739	 0.149865
H	-0.9307076178	 1.8606760907	 0.3865561371	 0.149796
H	-0.9490396214	-2.9981907431	-2.0223571827	 0.125735
H	 0.3219766698	-4.2415150951	-1.5571667517	 0.118403
H	-2.2318217003	-3.5366420564	 0.1394276874	 0.109841
H	-0.6304786368	-4.2570789035	 2.1143611112	 0.112415
H	 0.0681429778	-5.3657452128	 0.8892282293	 0.104652
