14
gdb 56452	2.64541	1.22263	0.92049	2.0986	63.27	-0.2945	-0.0746	0.22	1208.0872	0.098485	-473.806874	-473.798137	-473.797193	-473.841499	30.22	
O	 0.3052100215	 1.5235367615	-0.038929522	-0.406216
C	-0.0507058391	 0.1812084983	 0.0057772415	-0.081254
C	 0.0626518554	-0.4736307984	-1.3143039053	 0.257329
N	 0.1507547611	-1.0147033149	-2.3314188512	-0.311044
C	 0.8388634919	-0.5805495901	 1.0244113292	 0.357862
O	 1.6682108217	 0.047118596	 1.6357513857	-0.311277
C	 0.6146232396	-2.0493181081	 1.1858709854	-0.029405
C	 1.7955024832	-2.9299803931	 1.3442186057	-0.15137
O	 0.9785031245	-2.5944314414	 2.4491312247	-0.200295
H	 1.0721954179	 1.6032161762	 0.5554535222	 0.308074
H	-1.0963325325	 0.0651676916	 0.3374168918	 0.150372
H	-0.2891167826	-2.4572053103	 0.7368244633	 0.127696
H	 1.7240511047	-3.9553604774	 0.9872210556	 0.141725
H	 2.7833393127	-2.47470815	 1.3401429335	 0.147802
