21
gdb 126561	2.94268	1.01877	0.80972	1.9702	85.44	-0.2271	0.0312	0.2583	1482.5134	0.1832	-383.310741	-383.300965	-383.30002	-383.346522	35.188	
C	-0.0079721579	 1.561174738	 0.0685298388	-0.37877
C	-0.0555973676	 0.0334487412	-0.0071038339	-0.158018
C	 0.7509100466	-0.5305044921	-1.1925785251	-0.288951
C	 0.7131183613	-2.0266127011	-1.2809450445	 0.269795
N	 1.6927545694	-2.7586305585	-0.7507046213	-0.292337
N	 1.3288411933	-4.0339280684	-0.982398965	-0.191981
C	 0.1526607343	-4.1346072867	-1.648201128	-0.113566
C	-0.2925797441	-2.8472208341	-1.8653814773	 0.15024
C	-1.5454262368	-2.4175587332	-2.5657509407	-0.516682
H	 1.0211809288	 1.91958847	 0.1827220431	 0.115417
H	-0.4159936141	 2.0168727183	-0.8409987334	 0.110826
H	-0.5875132819	 1.9372001467	 0.9175555133	 0.1098
H	 0.3365461773	-0.400871704	 0.9199379457	 0.107796
H	-1.0980520672	-0.3005802312	-0.0836274521	 0.095671
H	 0.3676758386	-0.0963384931	-2.1253442578	 0.094092
H	 1.7956725117	-0.2144591386	-1.1006879759	 0.112805
H	 1.9334561463	-4.7772431027	-0.6788163614	 0.270114
H	-0.2696888127	-5.0904916238	-1.917916304	 0.126102
H	-2.2571971534	-1.9388950241	-1.8827832193	 0.129267
H	-1.3352155021	-1.6954881566	-3.3633348562	 0.127909
H	-2.05487359	-3.2709768362	-3.0223754047	 0.120471
