17
gdb 79654	2.61536	1.53173	1.18018	4.2517	77.89	-0.2425	0.0042	0.2467	1073.9802	0.136313	-380.789221	-380.781309	-380.780365	-380.821563	30.382	
C	-0.0377007961	 1.5773960684	-0.037072492	-0.447388
C	 0.1567458491	 0.0643631436	 0.0025715537	-0.067004
C	 1.3047767934	-0.8466821192	-0.3449429844	-0.068675
N	 2.7228710201	-0.5508498591	 0.065336231	-0.130904
C	 2.8167893408	 0.760528554	 0.7411861855	-0.256165
C	 2.2302288905	-0.3801504585	 1.4740688723	-0.083298
C	 0.781214266	-0.7786316053	 1.1011481116	 0.141356
C	 0.052560951	-1.7467183156	 1.8463893408	 0.201364
N	-0.5388985533	-2.5286898698	 2.4635175627	-0.350085
H	 0.4624237614	 2.0312432967	-0.8982364898	 0.139528
H	-1.1050280929	 1.7970664017	-0.1271745784	 0.13073
H	 0.3153023111	 2.0707014203	 0.8702431647	 0.142383
H	-0.7399455411	-0.4551353274	-0.3337950714	 0.125407
H	 1.1832275861	-1.6544370109	-1.0555858383	 0.130072
H	 3.8476348262	 0.9970227735	 0.9914663894	 0.136167
H	 2.2399030439	 1.6042775177	 0.3987249643	 0.13357
H	 2.7346264039	-0.8770461601	 2.2953467583	 0.122941
