19
gdb 51025	1.97866	1.43576	1.0027	2.4917	81.79	-0.245	-0.0247	0.2202	1241.5313	0.156764	-385.854569	-385.845103	-385.844159	-385.889797	34.563	
O	-0.551859878	 1.4063364742	 1.0192824151	-0.247623
C	 0.0989290925	 1.2177519363	 0.0221806872	 0.159618
C	 1.4006858797	 1.9259238608	-0.2856860594	-0.331237
C	 1.2622609377	 2.9050354823	-1.4796387707	 0.124353
C	 0.4079062209	 4.1713653948	-1.1060651074	-0.25602
C	 1.718644533	 4.9533716149	-0.8312346625	-0.220017
C	 2.5096712649	 3.85443853	-1.5872893271	-0.255214
C	 0.888861392	 2.2044101204	-2.6972784601	 0.259832
C	 0.5900944099	 1.6386366946	-3.7164607934	-0.444722
H	-0.2420102482	 0.5062681463	-0.7606088724	 0.093897
H	 1.714254002	 2.4711018744	 0.6088796816	 0.119637
H	 2.1629671019	 1.1767497213	-0.5343353393	 0.120805
H	-0.1327599128	 4.5519562531	-1.9744712361	 0.116173
H	-0.2927908815	 4.0439015031	-0.2781111819	 0.124483
H	 1.7795413638	 5.9649728647	-1.2360444211	 0.10677
H	 1.9676267187	 4.9960123756	 0.2318609479	 0.111973
H	 3.4327453083	 3.4830456964	-1.1352409165	 0.105324
H	 2.7083046378	 4.1216515327	-2.6270983913	 0.116466
H	 0.3209835474	 1.141085104	-4.6152879226	 0.195503
