19
gdb 108937	3.47129	1.17198	0.95754	1.5065	78.34	-0.202	0.0601	0.2621	1266.1734	0.160412	-419.209031	-419.200461	-419.199517	-419.242377	32.22	
C	 0.0104715382	 1.3633035765	 0.0335262635	-0.232265
O	-0.0694031251	-0.0564928729	-0.1164883856	-0.262422
C	 0.573616287	-0.5505491451	-1.1757429295	 0.464748
N	 1.2409035864	 0.1135382868	-2.0417444104	-0.413718
C	 1.7430227841	-0.8758515082	-2.9737609655	 0.378891
C	 1.6191202422	-0.6029508118	-4.4515296417	-0.306863
C	 2.9749504591	-0.5815642197	-3.7773821349	-0.319079
C	 1.460428024	-2.2668902767	-2.3706696101	-0.252633
N	 0.4604631214	-1.9233080877	-1.3517168375	-0.370331
H	 1.0522231418	 1.6827818405	 0.1232109296	 0.139544
H	-0.4362917854	 1.8657188727	-0.8285506195	 0.14097
H	-0.5435477387	 1.5970820947	 0.9432387971	 0.128103
H	 1.3842866585	-1.4339850446	-5.1094565072	 0.105092
H	 1.1830565255	 0.3468363622	-4.7388119957	 0.118937
H	 3.4461462929	 0.3813782916	-3.6169479481	 0.119579
H	 3.662351303	-1.39771774	-3.9786839704	 0.104841
H	 1.0616716625	-2.9788691575	-3.0998389911	 0.112092
H	 2.3638037448	-2.703839997	-1.9200893801	 0.10132
H	 0.4071522377	-2.4846625037	-0.514083583	 0.243193
