17
gdb 80348	2.2153	1.52469	1.37377	1.2724	73.89	-0.2419	0.0341	0.276	1040.3018	0.133666	-421.750806	-421.741937	-421.740993	-421.783822	33.98	
O	 0.1302695715	 1.3515130686	 0.1882728689	-0.429589
C	-0.0440779969	-0.0299641623	 0.0822283235	 0.03464
C	-0.4561486976	-0.8919100245	 1.254822583	-0.151225
C	-1.4668423688	-0.1207384421	 2.1074447045	-0.24897
C	-2.4358457815	-0.0343081463	 0.8669008458	-0.232519
C	-2.909647747	 1.2612254374	 0.4064974951	 0.282649
C	-3.2679326151	 2.3354783157	-0.0048527888	-0.454395
C	-1.3575792724	-0.7464304683	 0.0198980395	 0.312947
O	-1.6680158311	-1.6942467526	-0.9348596989	-0.454431
H	-0.6854351177	 1.7918099542	-0.0792916084	 0.294015
H	 0.7116714997	-0.5024809134	-0.5438260277	 0.100564
H	 0.1362361566	-1.7370139029	 1.5817711195	 0.09922
H	-1.9000345591	-0.6981288163	 2.9246415321	 0.112472
H	-1.1117669668	 0.8413406394	 2.4806671714	 0.121855
H	-3.2801538101	-0.714260793	 1.010273161	 0.118427
H	-3.6084521826	 3.2802902091	-0.3509261905	 0.202909
H	-1.6776534911	-1.2697922528	-1.8001961499	 0.291433
