16
gdb 48043	5.87061	0.50197	0.47843	3.7675	83.78	-0.2522	-0.0612	0.1911	2167.1369	0.121226	-400.67045	-400.660333	-400.659389	-400.707507	33.982	
O	-0.2038917673	 0.2685595351	-0.6329510677	-0.228692
C	 0.2002717369	 1.0478223967	 0.199424808	 0.018279
C	 1.257603057	 2.000002493	-0.0175508529	 0.082232
C	 2.1453264501	 2.8056114416	-0.1657792318	 0.050731
C	 3.1981029682	 3.7885522607	-0.3689700218	-0.292368
N	 3.5589770918	 4.4642699972	 0.8810174948	-0.278316
C	 4.5636055272	 5.515338248	 0.6946925509	-0.307644
C	 4.1674854878	 6.6123060963	-0.1984229703	 0.302255
C	 3.7936004481	 7.48988442	-0.9311166996	-0.456865
H	-0.2327413912	 1.0805997433	 1.2201454953	 0.099608
H	 4.0929917188	 3.279481516	-0.7535227265	 0.148098
H	 2.8778735263	 4.484714216	-1.1648259749	 0.141734
H	 2.7215099919	 4.8698451152	 1.2875941791	 0.231846
H	 4.8128561991	 5.9182988999	 1.6825063585	 0.142563
H	 5.4802003042	 5.0466142808	 0.3141981595	 0.141454
H	 3.4786647712	 8.2734920502	-1.5754511404	 0.205085
