18
gdb 115109	2.91369	1.39405	1.10174	3.4041	69.22	-0.2508	0.0238	0.2746	1129.5558	0.147945	-476.223317	-476.214654	-476.21371	-476.256823	31.698	
C	 0.0301466414	 1.2790542192	-0.2207858876	-0.246362
O	-0.0492540172	-0.1352701884	-0.0985745208	-0.254824
C	-1.3312136547	-0.6416239491	 0.0438920597	 0.210013
O	-2.0727838027	-0.3393031958	-1.1462092394	-0.250449
C	-3.0909213384	-1.1848000574	-1.4683163365	 0.1397
N	-3.4286188031	-2.2698721216	-0.9236069462	-0.260423
C	-2.6143955178	-2.7672814078	 0.1795943905	-0.16745
C	-1.2178525106	-2.1515041326	 0.2505817645	 0.062694
O	-0.4294111853	-2.725048095	-0.771693668	-0.439512
H	 1.0914649338	 1.5317048544	-0.2475923727	 0.136226
H	-0.4544235501	 1.6273008137	-1.1380398611	 0.14021
H	-0.4365498677	 1.7723739183	 0.643221307	 0.115893
H	-1.8530850461	-0.1608554583	 0.8880912785	 0.077042
H	-3.638051598	-0.787750185	-2.3208107945	 0.126029
H	-3.1515254182	-2.600791109	 1.1222548062	 0.109978
H	-2.5057402435	-3.8504843926	 0.0661282826	 0.130474
H	-0.772239202	-2.3251059432	 1.2428160166	 0.077281
H	 0.3120196703	-2.1243603	-0.9174211587	 0.293479
