21
gdb 110030	2.09567	1.66093	1.07265	3.8534	79.22	-0.2253	0.0634	0.2887	1197.1593	0.183883	-420.467801	-420.458327	-420.457383	-420.502365	34.9	
C	 0.0584728295	 1.4728434951	 0.2135268509	-0.381845
C	 0.001752198	-0.0371469272	-0.0468160757	-0.149695
N	 0.6577927754	-0.4650406162	-1.2686235945	-0.091987
C	 0.0012964561	-0.7062065435	-2.5475628206	 0.026811
C	-0.5215498665	 0.5656840066	-3.2274322921	-0.39396
C	 1.1451026898	-1.3870423574	-3.3478268705	-0.183963
N	 2.3331795744	-0.8765707415	-2.6780400224	-0.363094
C	 2.0291018221	-0.545610092	-1.3569771502	 0.449384
O	 2.8230419678	-0.3491224603	-0.4588026944	-0.434996
H	 1.1000711133	 1.7985744957	 0.2693430719	 0.149696
H	-0.443384203	 2.0426892819	-0.5738157591	 0.1133
H	-0.4268905924	 1.708843255	 1.1664177577	 0.111605
H	 0.4893279896	-0.5575060043	 0.7840884389	 0.130883
H	-1.0362783019	-0.3858378513	-0.0878018255	 0.098166
H	-0.8335821195	-1.4047325405	-2.4122017046	 0.083617
H	 0.2954571313	 1.2711940118	-3.4068682056	 0.134279
H	-0.9860282402	 0.3180565155	-4.1880749429	 0.115097
H	-1.2765007525	 1.060666472	-2.6100073756	 0.122563
H	 1.0672365898	-2.4817378092	-3.2822045546	 0.103894
H	 1.1199778607	-1.1037663873	-4.4043007366	 0.111718
H	 3.2221602081	-1.332147833	-2.8137407845	 0.248527
