17
gdb 86498	3.89974	0.82257	0.76316	6.0614	76.65	-0.2723	0.0044	0.2767	1512.5721	0.13523	-418.02095	-418.011972	-418.011028	-418.056612	31.684	
C	-0.6916924906	 0.1405486121	 0.6132086374	-0.400673
C	 0.2582981836	-0.304079486	-0.4735677018	 0.145155
C	 1.1830417381	 0.7499034414	-1.1279798636	-0.400015
C	 2.2892670314	-0.0650575245	-0.5039339531	 0.480886
O	 1.4475035194	-0.9833548424	 0.0794865108	-0.271823
N	 3.5426351602	 0.0101657533	-0.4950676828	-0.330435
C	 4.2720501784	-1.0179881046	 0.2456945197	-0.302585
C	 4.9324007217	-0.4436416062	 1.4250902017	 0.273771
N	 5.4500423976	-0.0037295995	 2.3593176522	-0.30925
H	-0.1892192451	 0.8035231562	 1.3238170107	 0.135898
H	-1.5375593679	 0.6782135723	 0.1722456865	 0.131169
H	-1.0825392541	-0.7221419691	 1.1602104695	 0.14015
H	-0.2278501547	-0.9753049108	-1.1872256185	 0.103081
H	 1.1918493544	 0.7810946357	-2.2183059169	 0.143401
H	 1.0898457539	 1.7636253569	-0.7333552231	 0.145016
H	 3.6418499425	-1.852585763	 0.5793785163	 0.15921
H	 5.0510919411	-1.4308389918	-0.4056784149	 0.157045
