18
gdb 52161	4.29759	0.79781	0.76912	3.274	72.63	-0.2279	-0.0254	0.2025	1488.032	0.1466	-439.022306	-439.013687	-439.012743	-439.057048	30.993	
O	-0.3122002157	 0.1107023053	-0.4400896285	-0.237348
C	 0.1184343198	 1.1739305792	-0.0778553626	 0.149453
C	 1.3233774191	 1.8668663466	-0.6915738841	-0.219917
N	 1.18390237	 3.3115617072	-0.6098623552	-0.32143
C	 2.3743970566	 4.0657040574	-0.8579068263	 0.011661
C	 3.1033500202	 4.1877515844	-2.202916619	-0.159483
C	 2.0763656201	 4.2559967436	-3.3256521019	-0.10153
O	 1.3237534437	 5.2939869611	-2.6338193089	-0.290375
C	 2.3234511804	 5.3505248814	-1.6087666773	 0.056178
H	-0.336503598	 1.7425116908	 0.7644095223	 0.08654
H	 2.1891802165	 1.5722975905	-0.0788079716	 0.131517
H	 1.49703948	 1.4566818027	-1.6986216205	 0.112591
H	 0.4433664274	 3.654172169	-1.2134938245	 0.238748
H	 3.0719419672	 4.079298004	-0.0214072602	 0.103028
H	 4.168360258	 4.0389256698	-2.319835157	 0.101095
H	 2.476999496	 4.6454268018	-4.2672037578	 0.11979
H	 1.4693678712	 3.364638518	-3.5236677549	 0.109472
H	 2.6020817875	 6.3298128371	-1.2360079919	 0.110009
