21
gdb 41912	2.14053	2.12943	1.798	1.284	79.25	-0.216	0.0725	0.2884	934.7816	0.187741	-387.097911	-387.091055	-387.090111	-387.12881	29.112	
C	-0.0064632252	 1.5339199759	-0.1814862192	-0.229883
C	 1.4078813961	 2.138402849	-0.0166709953	-0.206293
C	 2.3113096046	 1.3186866338	 0.9149345273	 0.0768
C	 1.8654718805	 1.2243101411	 2.3809112039	-0.206128
C	 0.5170043467	 0.4880402	 2.5615393015	-0.229719
C	 0.2318660071	-0.5104120798	 1.4474911932	-0.083506
C	-0.0369323413	 0.027116852	 0.0376554574	-0.083667
C	 1.2445196145	-0.7017585976	 0.3482883871	 0.098272
O	 2.4570342476	-0.0032632149	 0.3840781051	-0.264052
H	-0.708926388	 2.018188127	 0.508688965	 0.100103
H	-0.3747557846	 1.760660967	-1.1867515259	 0.09949
H	 1.9080488966	 2.1629258262	-0.9904564862	 0.107133
H	 1.3467722421	 3.1734063976	 0.3365191834	 0.092472
H	 3.3207983487	 1.7405694174	 0.8831016501	 0.079378
H	 2.6524976144	 0.6757109281	 2.9087544085	 0.107135
H	 1.8214641228	 2.224773218	 2.8245458802	 0.092377
H	 0.5237233092	-0.0349710868	 3.5228057376	 0.099478
H	-0.3051436383	 1.2121897917	 2.6229873737	 0.10005
H	-0.342259534	-1.3840393928	 1.740440572	 0.07859
H	-0.777425531	-0.5135554652	-0.5437461238	 0.078618
H	 1.4091828815	-1.6925804475	-0.0609189855	 0.093349
