20
gdb 69964	2.48693	1.85721	1.3801	2.4227	78.03	-0.209	0.0711	0.2801	1008.9233	0.170497	-403.078379	-403.07017	-403.069226	-403.110327	33.325	
C	 0.0562060121	 1.4797917542	-0.0006433299	-0.453695
C	 0.0306469124	-0.0306516917	-0.041231833	 0.287422
C	-1.3527562034	-0.7477963849	-0.082765142	-0.317542
C	-0.9132136912	-1.5009899603	 1.2030997094	-0.170743
N	 0.3931492212	-0.7553252613	 1.2382923526	-0.147601
C	 1.5462789961	-1.3863734607	 0.5656650812	-0.069975
C	 1.2074237124	-2.1795681303	-0.6866370354	-0.378224
C	 1.2481953977	-0.6795501173	-0.7442252987	 0.32736
O	 2.1184816376	 0.0203699918	-1.5614732195	-0.456312
H	 1.0552032639	 1.8454352605	 0.2515747382	 0.132775
H	-0.2175797042	 1.8954019115	-0.9772423193	 0.110168
H	-0.651296692	 1.8535476979	 0.745612829	 0.113857
H	-2.2007663562	-0.0729919474	 0.0550949225	 0.102462
H	-1.5425804089	-1.3673854506	-0.9630409242	 0.100332
H	-1.5145804585	-1.2857623464	 2.0903466353	 0.104714
H	-0.811598738	-2.5865257585	 1.1127087675	 0.104288
H	 2.4772130223	-1.5456956599	 1.0983765447	 0.099231
H	 2.0787443708	-2.6482347486	-1.1349456526	 0.115178
H	 0.2906494263	-2.7510008012	-0.7917083983	 0.109346
H	 1.9093989694	-0.1883701867	-2.4784037774	 0.286959
