17
gdb 96954	3.95488	1.28256	1.21591	2.0124	74.74	-0.2435	0.0067	0.2502	1077.1669	0.136337	-417.931633	-417.923982	-417.923038	-417.96417	28.843	
C	-0.0507735212	 1.4249334653	 0.0854883207	-0.343807
N	-0.0309546247	-0.0302160045	 0.1399172988	-0.33223
C	-1.0971527024	-0.6671710172	 0.0127171286	 0.454223
O	-2.4122313975	-0.210196594	-0.180016797	-0.286433
C	-2.9186928784	-1.5789673595	-0.1438371522	 0.094161
C	-2.983223529	-2.3011793239	-1.4951271537	-0.044328
C	-1.8648001133	-1.9319245225	-2.3805613132	-0.246177
N	-1.5836277986	-2.8907324501	-1.297405079	-0.146807
C	-1.5029781215	-2.1263132072	 0.0282917503	-0.140264
H	 0.5913517088	 1.7583895928	-0.7371015471	 0.131802
H	-1.0495336241	 1.8560093614	-0.0479333182	 0.128927
H	 0.3857204145	 1.8196510856	 1.0091818952	 0.132554
H	-3.7411711007	-1.7003416792	 0.5577929309	 0.103934
H	-3.8133025995	-2.9221065295	-1.814907091	 0.104684
H	-1.8402719554	-2.408058317	-3.3558469824	 0.13131
H	-1.4452335258	-0.9317856159	-2.354098481	 0.144158
H	-1.1545638211	-2.7652754247	 0.8353388101	 0.114292
