25
gdb 120491	2.54231	0.93584	0.85543	0.9393	89.57	-0.2493	0.0745	0.3238	1558.7863	0.227553	-389.474882	-389.464152	-389.463208	-389.510852	39.366	
C	-0.4966324661	 1.2351346332	-0.4011555096	-0.225435
O	-0.1337216778	-0.1090799233	-0.2084143032	-0.23154
C	 0.5693923937	-0.6542991147	-1.3066929443	-0.070749
C	 0.8812010592	-2.1063083418	-0.9860987146	-0.012639
C	-0.3529576375	-3.052011468	-1.0103456123	-0.235742
C	 0.1553604667	-3.6983551288	-2.3346030205	 0.018139
C	-0.6535548058	-3.3399918024	-3.5789517724	-0.400301
C	 1.5255626291	-2.9611739547	-2.1284003486	 0.010955
C	 2.2222425564	-2.2878054761	-3.3061301393	-0.414303
H	 0.3839980951	 1.8821372385	-0.5448437506	 0.100505
H	-1.1565592419	 1.361461616	-1.2748903406	 0.100118
H	-1.0315994621	 1.5633222052	 0.4937395411	 0.12463
H	-0.0401727365	-0.5663097405	-2.2224344962	 0.081594
H	 1.4988714036	-0.0857754301	-1.4850060535	 0.081601
H	 1.4437866838	-2.1178862282	-0.0478318335	 0.070606
H	-0.3787411601	-3.7480964436	-0.168514734	 0.09434
H	-1.3226155139	-2.5487779017	-1.0641556456	 0.098584
H	 0.2500217536	-4.7881099107	-2.2874442446	 0.062053
H	-0.8103894088	-2.2603949381	-3.6756479233	 0.114091
H	-0.163172483	-3.6873987903	-4.4950318431	 0.110942
H	-1.6433187667	-3.8080799392	-3.5343800098	 0.112661
H	 2.2330221936	-3.6626702034	-1.6732571181	 0.070521
H	 1.5756299746	-1.5772143062	-3.8292706702	 0.114421
H	 3.1142044817	-1.74362748	-2.976235309	 0.112989
H	 2.548410409	-3.0333765812	-4.0399426544	 0.111959
