21
gdb 103172	2.1135	1.40909	1.14183	3.3075	74.79	-0.2409	0.0523	0.2932	1206.3288	0.179795	-461.349949	-461.33969	-461.338746	-461.38518	37.877	
C	 0.304707169	 1.5200731809	-0.1773502028	-0.406593
C	 0.0327056219	 0.0509662223	 0.0631315633	 0.113013
O	 0.789203026	-0.813263871	-0.8218054635	-0.319573
C	 1.3951731581	-1.5295919959	 0.2782568265	 0.106929
C	 2.9097743097	-1.5148263982	 0.232699202	-0.397252
C	 0.6814221418	-0.6258778231	 1.3125688038	 0.325751
O	 1.5744472705	 0.1726159298	 2.0514026293	-0.474507
C	-0.2746707431	-1.3333443244	 2.2590705125	-0.15319
O	-0.8902793148	-0.3108031569	 3.0399171736	-0.437023
H	 1.3534717513	 1.7577231328	 0.0118065653	 0.130562
H	 0.06159669	 1.7765960621	-1.2131762013	 0.120635
H	-0.3168636267	 2.1346746419	 0.4828993323	 0.113903
H	-1.0426044918	-0.1584512227	-0.0271939558	 0.063671
H	 1.0304050439	-2.5682671022	 0.3045221973	 0.061034
H	 3.2930898363	-0.49407405	 0.2777347935	 0.135286
H	 3.3249623938	-2.0779520568	 1.0747998242	 0.113699
H	 3.2495888058	-1.9823797341	-0.696655873	 0.119887
H	 1.046325801	 0.5745719045	 2.7540886885	 0.288499
H	-1.0190998757	-1.9109408553	 1.6931851019	 0.099913
H	 0.2950498065	-2.0277008194	 2.8947221077	 0.097751
H	-1.3514604737	-0.7168749543	 3.7788942348	 0.297604
