17
gdb 84618	2.42921	1.64225	1.26427	2.2859	73.97	-0.256	-0.0389	0.2171	1038.4356	0.13483	-421.827292	-421.819226	-421.818281	-421.85989	30.473	
C	-0.389355626	 1.3580784799	-0.1172795132	-0.407434
C	-0.0108051602	-0.1213275277	 0.0480420538	-0.109251
C	 0.8244504743	-0.6794112889	-1.0887185615	-0.080276
C	 1.9645111887	-1.2378448	-0.6748454819	-0.094053
C	 2.1053703501	-1.09276651	 0.8040090349	-0.066379
O	 2.146173327	 0.2664166509	 1.261836446	-0.289598
C	 0.8713377583	-0.3928439224	 1.2650956683	 0.297003
C	 0.2956307052	-0.6441003988	 2.610774399	 0.094285
O	-0.8782032918	-0.8340792244	 2.8149904741	-0.264358
H	 0.5091734385	 1.9800020261	-0.1491592984	 0.136301
H	-0.9513196115	 1.5136802875	-1.0430359644	 0.117342
H	-1.01530253	 1.689404001	 0.716229821	 0.132753
H	-0.9311738448	-0.7074086033	 0.1691114826	 0.113458
H	 0.5120195591	-0.5858982705	-2.1233796188	 0.109398
H	 2.713642453	-1.7140859243	-1.2946859479	 0.111933
H	 2.6613098904	-1.7982124026	 1.4153452753	 0.10958
H	 1.0516657598	-0.6394548225	 3.4257724511	 0.089296
