17
gdb 71684	2.85303	2.24653	1.69771	1.0606	69.1	-0.2257	0.0705	0.2963	837.4187	0.137374	-421.759013	-421.752762	-421.751818	-421.789268	26.448	
C	-0.0344311787	 1.4357722966	 0.0037119394	-0.519618
C	 0.0432914913	-0.0591275377	-0.0504531152	 0.448178
O	-1.2325225816	-0.758758233	-0.1469299171	-0.336907
C	-0.4618124294	-1.8449897899	-0.6917926111	 0.075205
C	 0.6006644842	-2.2418108098	 0.3856708048	-0.122076
C	 1.7770270059	-1.6679636835	-0.4519105656	 0.077119
O	 2.2170159486	-0.7976276246	 0.6120498772	-0.300475
C	 0.8312335046	-0.838883725	 1.0417546993	 0.033741
C	 0.6525969051	-0.9109167347	-1.229450278	-0.175665
H	 0.9741434692	 1.8505109683	 0.0920456023	 0.139548
H	-0.5058769952	 1.8419584545	-0.8952407852	 0.128403
H	-0.6197137828	 1.7549507169	 0.8729834692	 0.130354
H	-1.0324213285	-2.5915814454	-1.2400325871	 0.08609
H	 0.6163646841	-3.1544273319	 0.9748872768	 0.083846
H	 2.5677063455	-2.2145082145	-0.9618453129	 0.08697
H	 0.6751790823	-0.5963467923	 2.0918295273	 0.084882
H	 0.7223429354	-0.5021990141	-2.234125234	 0.080405
