13
gdb 4517	3.66402	1.82278	1.22372	1.1873	56.41	-0.1691	0.0576	0.2267	902.8649	0.096397	-431.946686	-431.938945	-431.938001	-431.978235	28.682	
N	 0.0882413017	 1.4034864899	-0.1661350611	-0.605262
C	-0.0007053218	 0.0078773585	-0.0817127832	 0.203328
C	-1.1160789015	-0.7743155821	-0.021473884	 0.218969
O	-2.4436405141	-0.4892813869	 0.0995812084	-0.437592
N	-0.6441943467	-2.1021205593	-0.0387808982	-0.355041
C	 0.7009339128	-2.0119603361	-0.0973815342	 0.440874
O	 1.4544579887	-3.126806567	-0.1079659308	-0.427548
N	 1.1390361189	-0.7804458548	-0.1351281432	-0.4118
H	 0.9959251433	 1.7173973884	 0.1548997443	 0.246742
H	-0.6394519369	 1.8621934814	 0.3685318232	 0.243267
H	-2.8143973068	-0.3099377607	-0.7735977745	 0.302194
H	-1.1945372377	-2.936187127	 0.0699761939	 0.270879
H	 2.3712394302	-2.8268088343	-0.1492041705	 0.310991
