15
gdb 106260	2.7382	1.32696	1.06895	4.1782	61.94	-0.2762	-0.0025	0.2737	1113.6761	0.110715	-494.877366	-494.868877	-494.867932	-494.910839	30.898	
O	 0.6461818837	 0.2251832179	-0.7224880261	-0.402334
C	-0.1791059603	 0.2648573755	 0.4267242356	-0.191529
C	-1.4854134085	-0.4440737156	 0.1978811557	 0.403044
O	-2.4176789468	-0.4614276831	 1.3103339667	-0.284719
C	-2.6990114608	-1.8026874395	 1.0698241545	 0.471068
O	-3.3707060486	-2.5247831189	 1.7285308355	-0.322959
C	-1.8408073239	-1.8851577789	-0.1637988135	-0.401908
C	-2.2060877719	-0.6937067989	-1.0709116576	 0.035948
O	-3.497645484	-0.2300784196	-1.2496798167	-0.405584
H	 0.3456777305	 0.9084471197	-1.3296891735	 0.296609
H	 0.3679587444	-0.2317462519	 1.2344931285	 0.136184
H	-0.3869080271	 1.2927815479	 0.7571477844	 0.122578
H	-1.2493744726	-2.7270476844	-0.4937794209	 0.132809
H	-1.5594171344	-0.6648245641	-1.9500864916	 0.11138
H	-3.9808133395	-0.8663741161	-1.7882209808	 0.299414
