21
gdb 64237	3.0034	0.92482	0.86088	3.7411	79.78	-0.2453	-0.0207	0.2245	1448.2852	0.179554	-424.223189	-424.21308	-424.212136	-424.259306	36.117	
C	-0.0986041683	 1.558587643	-0.1417701011	-0.445074
C	-0.0640811849	 0.0357005447	-0.0211607079	 0.250512
C	-1.4368493682	-0.5737554883	-0.2869771651	-0.456547
C	 1.1301578192	-0.6017208518	-0.7806414465	-0.102883
O	 1.8414409098	-0.8546599506	 0.4481406101	-0.29838
C	 0.6784476545	-0.5210807158	 1.2366355176	 0.107421
C	 1.0173202101	 0.374222796	 2.4262228773	-0.304651
C	 1.9482580177	-0.3311271615	 3.3923455766	 0.155263
O	 1.7055443131	-0.5177173544	 4.5576152898	-0.242041
H	 0.891068072	 2.0022664201	 0.0014953888	 0.123689
H	-0.4473585264	 1.8483835802	-1.1391522034	 0.117888
H	-0.7811519119	 2.0048434524	 0.5894167758	 0.119968
H	-1.7946391542	-0.3122499419	-1.2891076973	 0.119138
H	-1.4113418749	-1.6656628256	-0.2139051715	 0.119521
H	-2.176829688	-0.2056946674	 0.432787139	 0.120867
H	 0.8870487134	-1.5331734523	-1.3097048782	 0.09713
H	 1.694915265	 0.0552997291	-1.4522647124	 0.102728
H	 0.1931689557	-1.4375940789	 1.6070270951	 0.077711
H	 1.5259324947	 1.2768215374	 2.0664316876	 0.118718
H	 0.1098417428	 0.6635498749	 2.9650236082	 0.119821
H	 2.8997900386	-0.6807745895	 2.9373406676	 0.099202
