18
gdb 4132	4.00606	1.20241	1.1415	1.2258	72.86	-0.2303	0.0098	0.2401	1120.3946	0.152324	-381.060489	-381.05156	-381.050616	-381.094008	32.667	
C	 0.953794118	 1.0588070671	-0.7640284586	-0.403746
C	 0.0561547687	 0.1019429504	-0.0174575514	 0.014412
N	 0.6243232055	-1.1668903283	 0.4485260166	-0.345166
C	 0.1374084615	-0.2008170377	 1.4498327475	-0.098425
C	 1.118015402	 0.3861153334	 2.4083665365	 0.381401
C	 2.5984666886	 0.3471117029	 2.1550801458	-0.490526
N	 0.578274327	 0.8801842814	 3.4605968673	-0.183687
O	 1.5337649769	 1.4370007177	 4.3248315498	-0.398396
H	 1.9711491617	 1.052405527	-0.3713496008	 0.131598
H	 1.0024319338	 0.785058521	-1.8236913954	 0.121119
H	 0.5635477269	 2.0800905333	-0.6988859042	 0.121693
H	-0.959924299	 0.0623920511	-0.411343606	 0.086657
H	-0.0326224917	-1.9341093627	 0.3427005435	 0.235751
H	-0.8203674825	-0.3950764154	 1.9263427457	 0.092783
H	 2.82926136	-0.369681686	 1.3672677041	 0.1487
H	 2.9728776723	 1.3362702205	 1.8673654277	 0.138367
H	 3.1199720494	 0.0723496325	 3.0755591506	 0.142682
H	 0.990904681	 1.7184417918	 5.0685301812	 0.304782
