14
gdb 52756	1.91736	0.99094	0.67728	5.1156	74.08	-0.2898	-0.0265	0.2633	1588.3154	0.097237	-436.676651	-436.666704	-436.66576	-436.71466	32.032	
C	-0.0935377113	 1.3404030343	 0.1124418649	-0.501064
C	-0.0314363774	-0.10320048	-0.043159582	 0.0954
C	 0.0125405875	-1.2971527364	-0.1789958415	 0.115386
C	 0.07464724	-2.7440812619	-0.3297850777	-0.229468
O	-1.2352266762	-3.3310513051	-0.2387422571	-0.165939
C	-1.4807853923	-4.143678684	 0.8217706769	 0.183055
O	-2.5408501327	-4.6522336043	 0.9969296205	-0.250235
C	 0.6626013444	-3.1347154365	-1.6260867342	 0.31538
N	 1.1499513623	-3.4426545109	-2.6259386311	-0.308126
H	 0.4228587998	 1.663352758	 1.0220977211	 0.161624
H	 0.372220698	 1.8444078841	-0.7405445742	 0.167593
H	-1.1333002121	 1.677662109	 0.1756371404	 0.168194
H	 0.7139741746	-3.1724939677	 0.4578231169	 0.155791
H	-0.5990986646	-4.2690243286	 1.4799359971	 0.092409
