19
gdb 61623	3.56854	0.88125	0.87313	6.7209	76.52	-0.2682	0.0297	0.2979	1403.4528	0.159393	-419.193772	-419.184531	-419.183587	-419.228475	34.023	
C	 0.6191964253	 1.3731583608	-0.1365562787	-0.409397
C	 0.1275970359	-0.0330478203	 0.1031783257	 0.012456
N	 1.1535882307	-1.0548812857	 0.375045755	-0.351264
C	 0.1756837003	-0.7002934086	 1.4365910486	-0.045701
C	 0.7051152463	-0.0293598284	 2.7013924791	-0.237434
C	 2.1508072221	-0.4604065078	 3.0453227738	-0.013773
O	 3.0771592488	-0.0359552262	 2.072165895	-0.427759
C	 2.5490217082	 0.1078715662	 4.3451197114	 0.287861
N	 2.8192907225	 0.5419359807	 5.3806403208	-0.319521
H	 1.4888575363	 1.5940680431	 0.4866986155	 0.146562
H	 0.9143779009	 1.4999223645	-1.1829828671	 0.127977
H	-0.1670579773	 2.1031756197	 0.0832798865	 0.12493
H	-0.6931782668	-0.345323411	-0.5401987827	 0.094505
H	 0.9250385407	-1.9476296651	-0.0499325727	 0.243279
H	-0.59928263	-1.4414635894	 1.6160568669	 0.09863
H	 0.6982352798	 1.059981654	 2.6055028258	 0.133076
H	 0.0460289271	-0.27993964	 3.5384094958	 0.122332
H	 2.1713205862	-1.5573457673	 3.1616118343	 0.109115
H	 2.744325123	-0.4270606493	 1.2402432569	 0.304126
