19
gdb 74435	3.12203	1.56852	1.28628	1.4956	80.59	-0.2202	0.0114	0.2316	1055.3385	0.158453	-385.861296	-385.853381	-385.852436	-385.893138	31.888	
C	 0.1093325885	 1.4938824057	 0.0803733021	-0.498657
C	-0.0787528445	 0.0129144055	-0.000019199	 0.355407
C	-0.2039313435	-0.7485201006	-1.1004467876	-0.258592
C	-0.1221892106	-2.1987684585	-0.7026037039	 0.399911
C	-0.5226666436	-3.2778067689	-1.6684630894	-0.494269
O	 1.3088705591	-2.3827206093	-0.2500939581	-0.325762
C	 0.8903406819	-2.14969802	 1.0674555436	 0.095068
C	-0.0371614983	-0.8770588041	 1.1912085656	-0.202349
C	-0.5635695203	-2.2362007971	 0.7983889575	-0.207312
H	 1.0941968432	 1.7423434553	 0.4954554257	 0.133304
H	 0.0304702984	 1.9609291164	-0.9048132496	 0.125153
H	-0.6348656141	 1.9577836419	 0.7397242819	 0.123696
H	-0.1528694456	-0.406823078	-2.1272102008	 0.091073
H	 0.0787424482	-3.2130508293	-2.5808207039	 0.130947
H	-0.3755082243	-4.2681512238	-1.2298176621	 0.126879
H	-1.5767229784	-3.16513942	-1.9432678378	 0.122855
H	 1.5338865676	-2.4759307205	 1.8756793384	 0.107058
H	-0.1977662296	-0.5033437052	 2.196359877	 0.081514
H	-1.3841640741	-2.7799537094	 1.2500505305	 0.094076
