13
gdb 49833	2.26871	1.51822	0.99573	3.7058	64.78	-0.2841	-0.0689	0.2151	1113.2593	0.087737	-452.747303	-452.739105	-452.738161	-452.781269	28.274	
N	-0.3819221929	 1.2447667498	-0.6801922182	-0.513342
C	-0.1059053749	 0.1453310269	-0.1664076288	 0.453847
O	 1.0681343381	-0.3762017816	 0.3395173035	-0.253483
C	 0.4373747126	-1.6373247021	 0.7070468553	 0.028785
C	 0.4874768661	-1.8759671562	 2.2070031179	 0.144077
O	 0.5815169673	-2.9740915684	 2.6814989997	-0.215345
C	-0.9190021539	-1.1199610034	 0.1191078483	-0.32092
C	-2.053460615	-0.9909319148	 1.0174074121	 0.305956
N	-2.9445875964	-0.8959774316	 1.746180323	-0.306902
H	 0.4209566461	 1.8731651934	-0.7251559406	 0.250057
H	 0.8729369554	-2.4824104299	 0.1715621977	 0.136765
H	 0.4283378271	-0.9524914181	 2.8203627192	 0.116858
H	-1.2167610896	-1.646143444	-0.7906917492	 0.173646
