18
gdb 55217	2.92492	1.27745	1.02142	1.457	72.91	-0.2485	-0.0292	0.2193	1187.5872	0.147052	-439.131348	-439.122546	-439.121602	-439.166071	31.932	
C	 0.6187927939	 0.0742675715	 0.717571341	-0.476091
C	-0.2734376991	 0.1461545727	-0.5011834051	 0.355911
O	 0.0500076447	 0.7026024851	-1.5242767893	-0.29196
C	-1.6741759374	-0.4873164024	-0.3881922538	-0.00538
C	-2.1442573781	-1.1763335041	-1.6785044433	-0.244191
C	-1.7332501699	-2.6341627478	-1.4295085999	-0.303513
C	-1.7506090284	-2.7533972991	 0.0788466545	 0.414444
N	-1.7895590023	-3.8226151369	 0.7452411834	-0.534882
O	-1.7135132831	-1.495860634	 0.6353086242	-0.245547
H	 0.9131265319	-0.9637023127	 0.9047452231	 0.156964
H	 1.5057022672	 0.6873532913	 0.5556048351	 0.142962
H	 0.0803184671	 0.4043845157	 1.6118012801	 0.146981
H	-2.3507092936	 0.3169132598	-0.0739773333	 0.120481
H	-3.2295491776	-1.0900355793	-1.7752438982	 0.116709
H	-1.6777847723	-0.7190828572	-2.5508380883	 0.142374
H	-2.3872184752	-3.3766171003	-1.8864000985	 0.142194
H	-0.7153715983	-2.8275787002	-1.787484282	 0.139866
H	-1.7785564896	-3.6249596922	 1.7473779003	 0.222678
