18
gdb 28273	4.92355	1.18557	0.96686	1.3879	88.73	-0.1816	0.0162	0.1978	1209.6648	0.150123	-364.865841	-364.858225	-364.857281	-364.897528	30.366	
C	-0.020442309	 1.477314972	 0.0468472661	-0.485298
C	-0.0001357508	-0.0159268138	-0.0168541927	 0.301636
C	-0.0329626717	-0.7893324305	-1.1228300014	-0.328644
C	 0.0042779468	-2.1945423653	-0.742703718	 0.303138
C	 0.0043197939	-3.4773358977	-1.2359608504	-0.251192
N	 0.0613667583	-4.3174665951	-0.1413570918	-0.242808
C	 0.0978000144	-3.5914048399	 1.0342704411	-0.235416
C	 0.0631373453	-2.2693438092	 0.6833845998	 0.243031
C	 0.0643673306	-0.8756990633	 1.2474605489	-0.471279
H	 0.8744407355	 1.8732084363	 0.5455499606	 0.120669
H	-0.0696174047	 1.9178944473	-0.9529892982	 0.12094
H	-0.88159973	 1.8461403835	 0.6200710818	 0.120625
H	-0.0799271719	-0.413748264	-2.1383519819	 0.085811
H	-0.0298781868	-3.8763216815	-2.2367025877	 0.11523
H	 0.0748287997	-5.3205391448	-0.1920783047	 0.256088
H	 0.1440799097	-4.0943031895	 1.9871341653	 0.115128
H	 0.9628957411	-0.6445239919	 1.8365168244	 0.11617
H	-0.7904123003	-0.6716805227	 1.9073912188	 0.116172
