19
gdb 57947	2.61348	1.16009	0.91545	2.0763	74.25	-0.245	0.0055	0.2505	1316.1695	0.158521	-456.411072	-456.400741	-456.399797	-456.447375	36.075	
C	-0.0352468822	 1.2152716717	 0.4964595489	-0.347167
N	-0.1680930153	-0.1771008086	 0.0944328749	-0.072521
C	 0.5784104494	-0.5833319538	-1.0889624593	-0.358193
C	-0.9728231553	-1.0020471717	 0.8215881238	 0.395637
O	-1.678940476	-0.6045395598	 1.742754717	-0.401891
C	-1.025001957	-2.4780760591	 0.4282729592	-0.410537
C	-2.1976939618	-2.7143234281	-0.5344675866	 0.386709
N	-3.4107242858	-2.4377280031	 0.0196751456	-0.501629
O	-2.0381976271	-3.112873098	-1.6721141991	-0.362106
H	-0.4147481608	 1.8828145354	-0.28671432	 0.126376
H	-0.6092098519	 1.3666934904	 1.4087027488	 0.170169
H	 1.0181054083	 1.4613112127	 0.6767877772	 0.124969
H	 1.6182241894	-0.8460282184	-0.8515609564	 0.126743
H	 0.0984353534	-1.4218818884	-1.5927576191	 0.175386
H	 0.5973706901	 0.2541571792	-1.7931630403	 0.133604
H	-0.120548568	-2.8564287561	-0.0423234843	 0.132316
H	-1.2013069674	-3.0232259549	 1.3580662752	 0.146475
H	-3.4414497299	-1.8975417131	 0.8730930348	 0.27643
H	-4.210532082	-2.4218856563	-0.5929775604	 0.25923
