23
gdb 58527	2.73524	1.22976	1.10228	1.3554	85.52	-0.2356	0.0303	0.2659	1242.8755	0.205058	-388.307498	-388.29782	-388.296875	-388.341363	37.783	
C	 0.0233423552	 1.6674364229	 0.1930553015	-0.421569
C	 0.0613430096	 0.1374420699	 0.1737289083	 0.084189
O	 0.67965612	-0.3637154572	 1.3590897033	-0.440022
C	-1.3009570109	-0.5479639964	-0.0853648188	 0.329275
C	-2.3375064632	-0.1937933516	 0.9949765076	-0.456588
C	-1.8729814963	-0.1887151214	-1.4947947543	-0.305436
C	-2.3966383171	-1.5001945897	-2.0250461688	-0.065898
C	-1.992878997	-2.5326882163	-1.2881061992	-0.064348
C	-1.1310043339	-2.1021802679	-0.1296200695	-0.2924
H	 1.0357847138	 2.0580871759	 0.3268519922	 0.123488
H	-0.3841474403	 2.0769828695	-0.736062174	 0.121148
H	-0.5924071943	 2.0410122909	 1.0193857896	 0.109592
H	 0.7358934157	-0.1798115446	-0.6321030782	 0.082832
H	 0.2251260434	 0.0246662673	 2.113858108	 0.277181
H	-2.5794481638	 0.873784313	 1.0023009713	 0.111212
H	-3.2678336641	-0.7412750908	 0.8131413833	 0.124134
H	-1.9864231981	-0.4752733643	 1.9943844525	 0.102578
H	-2.6453382982	 0.588318425	-1.4377805569	 0.096881
H	-1.0918738265	 0.2090893418	-2.1597460473	 0.099675
H	-3.0020929504	-1.5655101256	-2.9226950612	 0.08819
H	-2.2199216491	-3.5736961043	-1.4922948548	 0.088216
H	-0.0822772659	-2.3864198544	-0.2879743745	 0.110047
H	-1.4238024986	-2.5703283017	 0.8172821196	 0.097624
