15
gdb 35652	4.4618	0.97724	0.84547	2.9398	82.29	-0.2328	-0.0295	0.2033	1313.993	0.111923	-379.606992	-379.598604	-379.597659	-379.640145	31.361	
C	-0.2332200598	-1.256262262	-0.1417048216	-0.450826
C	-0.0685976955	-0.0700839488	-0.0476599977	 0.331062
C	 0.0917812793	 1.3713342868	 0.0908034779	-0.1518
C	-0.5222202107	 1.9399215946	 1.4095937246	-0.198401
N	 0.4264182605	 3.0179153633	 1.7053574101	-0.358326
C	 1.5975015358	 2.6933092322	 1.0197346681	 0.220463
N	 1.5125607513	 1.7998784075	 0.1016002514	-0.303044
C	 2.7993279854	 3.3938588484	 1.3398273757	 0.260643
C	 3.7923777525	 3.9948301564	 1.651465299	-0.367019
H	-0.3641240483	-2.3058567539	-0.2358059653	 0.198773
H	-0.3849869169	 1.8606499256	-0.7715096099	 0.121338
H	-1.5366941359	 2.318894276	 1.2696678997	 0.123202
H	-0.5323988795	 1.1739221048	 2.195257904	 0.119012
H	 0.5256322055	 3.3202881976	 2.6641523176	 0.248702
H	 4.6813406662	 4.5182640714	 1.9056809663	 0.206222
