19
gdb 126307	2.90174	1.19062	0.91045	2.5599	79.52	-0.2082	0.0276	0.2358	1310.8899	0.159541	-419.240599	-419.231133	-419.230189	-419.275752	34.057	
C	 0.0118307226	 1.5860190063	 0.1799756669	-0.370382
C	 0.0004457919	 0.0606997843	-0.0321632291	-0.303082
C	-1.3774733662	-0.5248784262	-0.1001053136	 0.399089
C	-2.1613505454	-0.8163121822	-1.2039023531	-0.426522
C	-3.3601508326	-1.3125504137	-0.6575245543	 0.445578
O	-4.4369133571	-1.7253289619	-1.3605817833	-0.432886
N	-3.3452157694	-1.3372714996	 0.6659774028	-0.384776
N	-2.12039278	-0.8355371162	 0.9962535054	-0.028569
C	-1.7284654836	-0.8421392654	 2.3869246309	-0.325226
H	 1.037565752	 1.9673340657	 0.1941696631	 0.115861
H	-0.5316662339	 2.0907101386	-0.6238039149	 0.130289
H	-0.4648036046	 1.8644377731	 1.1252141263	 0.121142
H	 0.5110874927	-0.1756765926	-0.9708976125	 0.120496
H	 0.5815442697	-0.4261532617	 0.7599181544	 0.108908
H	-1.9086993747	-0.6834797361	-2.2426085778	 0.104426
H	-5.0975603229	-2.0104613345	-0.716949179	 0.29991
H	-1.3055428076	-1.8092680886	 2.6851448027	 0.135173
H	-0.9905521679	-0.0600889035	 2.573753133	 0.137059
H	-2.6144860731	-0.6476761657	 2.9930407623	 0.153511
