16
gdb 8835	2.77274	1.54475	1.11479	3.2568	62.55	-0.2685	-0.0613	0.2071	1063.7167	0.126591	-420.900013	-420.890719	-420.889775	-420.934912	31.457	
C	 0.3326693725	 1.6985977954	-0.1879536041	-0.415148
C	-0.0477251465	 0.2714163355	 0.2048606423	-0.164645
C	 0.3599229962	-0.7414423658	-0.8762847043	 0.147067
O	-0.0438059705	-1.8719093138	-0.9307243512	-0.230755
C	 0.6137718076	-0.1657917228	 1.5162491053	 0.346339
O	 1.6303978839	 0.3473797569	 1.9293398972	-0.317329
C	-0.0468054797	-1.2897781963	 2.2908851574	-0.138448
O	 0.7132834364	-1.6740275847	 3.3966104434	-0.419213
H	 1.419077239	 1.8017923015	-0.2440311617	 0.149136
H	-0.0978250883	 1.9621038028	-1.1584993841	 0.124049
H	-0.028598609	 2.4156578707	 0.5527515999	 0.136619
H	-1.1310104041	 0.1519389893	 0.3258779647	 0.122946
H	 1.0847625631	-0.3457092224	-1.6211502456	 0.101491
H	-1.0496454753	-0.9321032641	 2.588151305	 0.113891
H	-0.2162810939	-2.1309864863	 1.601658853	 0.149077
H	 1.4416378386	-1.0361438857	 3.4450827327	 0.294923
