19
gdb 74410	2.92325	1.55314	1.3026	1.662	79.9	-0.2167	-0.0015	0.2152	1047.1963	0.159674	-385.884616	-385.876829	-385.875884	-385.916215	32.131	
C	-0.0367756432	 1.5036507475	 0.0484462607	-0.509369
C	-0.0527725177	 0.0155377683	-0.0354249289	 0.363364
C	-0.0723116337	-0.7925264456	-1.0966212322	-0.291133
C	 0.0115816082	-2.2456840921	-0.5790832212	 0.365046
O	-0.2899926332	-3.2752089876	-1.4808087848	-0.512486
C	-0.8482748347	-2.0775407309	 0.7140001101	-0.252831
C	 0.0511754589	-0.9044862515	 1.2083427853	-0.171791
C	 1.4139587689	-1.6267565549	 1.151270737	-0.092914
C	 1.3876211241	-2.4222776159	 0.0835643415	-0.084638
H	 0.8938990203	 1.8616629964	 0.5091260884	 0.127683
H	-0.1242436004	 1.9660100323	-0.9387560389	 0.124619
H	-0.8561470594	 1.8783290064	 0.6754480011	 0.124501
H	-0.0613080924	-0.529213274	-2.1471483484	 0.093811
H	-1.1370992606	-3.0707619649	-1.8899792863	 0.275293
H	-1.8804603204	-1.7771872795	 0.5072742714	 0.082057
H	-0.8174238892	-2.957164567	 1.361936397	 0.097713
H	-0.2004656162	-0.4336075981	 2.1592207404	 0.058581
H	 2.2308684311	-1.4510248604	 1.8379402405	 0.098048
H	 2.1613635796	-3.0578609386	-0.3246649028	 0.104446
