20
gdb 95635	2.1199	1.80128	1.06886	5.1088	76.04	-0.2377	0.0547	0.2923	1156.3026	0.172079	-440.339346	-440.3304	-440.329456	-440.373193	33.231	
C	 0.1620292412	 1.5977215635	-0.0297388891	-0.399998
C	 0.0496887839	 0.0680532539	 0.004631271	 0.055248
C	 0.6405345453	-0.5481580742	-1.2629758919	-0.227567
C	 0.8982307644	-2.0221401872	-1.029446623	-0.089909
O	 1.8414795373	-2.1812516822	 0.0298226698	-0.243256
C	 1.6221446595	-1.5258044853	 1.2027009237	 0.470348
O	 2.2383798525	-1.8621529461	 2.1860900848	-0.398419
N	 0.6965653051	-0.5057774275	 1.1926649164	-0.154149
C	 0.3118398942	 0.0414559799	 2.4867616568	-0.338605
H	 1.2124018305	 1.9064338301	-0.0249968094	 0.129155
H	-0.3050508618	 1.9782046873	-0.9436122477	 0.120637
H	-0.3391248261	 2.0687456136	 0.8189530146	 0.125213
H	-1.0210299542	-0.1918156383	 0.0502908548	 0.080872
H	-0.0447456047	-0.3938236507	-2.1019074452	 0.110882
H	 1.5897611836	-0.060060479	-1.5127098549	 0.118374
H	-0.0310780247	-2.5536978756	-0.7805096904	 0.109809
H	 1.3471950918	-2.5092013727	-1.8979411025	 0.122593
H	 0.6252756539	-0.6553078082	 3.2616961103	 0.167617
H	 0.7820641185	 1.0115053401	 2.6849143771	 0.126379
H	-0.7765583601	 0.1703625986	 2.5238960647	 0.114777
