14
gdb 44697	3.41917	1.42265	1.196	3.582	63.44	-0.2541	-0.0611	0.193	1004.7087	0.101004	-473.83883	-473.831729	-473.830785	-473.871341	26.426	
N	-0.2036329681	 1.3186375659	 0.3365953026	-0.5598
C	-0.0628756294	 0.0951360946	 0.1050616764	 0.488109
O	-1.0865174755	-0.7900884595	 0.2244487379	-0.232663
C	-0.6649739976	-2.1028846839	-0.1174855439	 0.06421
C	-1.0607926509	-2.5294959324	-1.5552161108	-0.37966
C	 0.3877837858	-2.2350549631	-2.0024841838	 0.374953
O	 0.9622498252	-2.2440129237	-3.0458565611	-0.261725
C	 0.819268107	-1.9075456224	-0.5338839011	-0.035338
O	 1.0924357651	-0.5412243924	-0.2790106457	-0.249635
H	 0.6723878935	 1.8126866323	 0.1872377536	 0.239916
H	-0.9106559699	-2.7857137177	 0.6950847135	 0.114403
H	-1.3270852169	-3.5860668154	-1.659292534	 0.148986
H	-1.8374277655	-1.9196702099	-2.023274759	 0.162493
H	 1.6007277373	-2.5356806323	-0.1018188845	 0.125753
