17
gdb 20037	4.37171	1.29333	1.17003	2.0307	64.15	-0.2504	0.0637	0.3141	1050.9724	0.142378	-400.937147	-400.92913	-400.928186	-400.970111	29.042	
O	 0.0280124228	 1.1099316289	-0.7705757707	-0.417183
C	 0.0797375138	 0.0000179884	 0.1118945393	-0.106494
C	-1.2940496314	-0.5849850972	 0.3266411238	 0.04051
O	-1.840777182	-1.3555078686	-0.7673175019	-0.270421
C	-1.583629722	-2.0213125326	 0.4731877503	 0.021312
C	-0.5421692959	-3.1031480464	 0.449373334	-0.03352
C	-0.7220125705	-4.2596504358	-0.4638303491	-0.240009
N	 0.3300724285	-3.2589683991	-0.7201145899	-0.312349
H	-0.3290416271	 0.7895433264	-1.6062154772	 0.291118
H	 0.7789644298	-0.7702830446	-0.2364681217	 0.120533
H	 0.4580068091	 0.3871239275	 1.0646307671	 0.116763
H	-2.0145317789	 0.1186470841	 0.7463883659	 0.103777
H	-2.4862660713	-2.2799934992	 1.0310283151	 0.101246
H	-0.0491575093	-3.2693060621	 1.4055562727	 0.102024
H	-0.3651234212	-5.2433960036	-0.1736932738	 0.121819
H	-1.5958156476	-4.2588134427	-1.1103108398	 0.122899
H	-0.0111987268	-2.6245611835	-1.4409102942	 0.237975
