18
gdb 46387	3.92179	0.86804	0.7708	1.9427	73.6	-0.2453	-0.0268	0.2186	1466.9287	0.146777	-439.049477	-439.040798	-439.039854	-439.08412	31.245	
O	 0.0187069686	-0.0059265832	-0.0730242282	-0.287233
C	 0.0038010821	 1.185612918	-0.0022463179	 0.38371
C	-1.0841312461	 2.2715262892	 0.0041817697	-0.284194
N	-0.0387908056	 3.247890746	 0.4169715023	-0.332812
C	 1.0729296904	 2.2761012848	 0.1881570129	-0.088199
C	 2.058596962	 2.1132379037	 1.3437597792	-0.226906
C	 2.89184825	 3.3567618444	 1.5380242732	 0.089158
C	 4.3258652565	 3.3061718746	 1.8433556459	-0.175884
O	 3.8709576568	 3.6211008878	 0.5253508594	-0.241529
H	-1.5178794584	 2.4270207405	-0.9933108024	 0.126062
H	-1.8997662343	 2.1401213638	 0.7234809555	 0.135331
H	 0.0086303845	 4.0650414417	-0.1797478366	 0.229251
H	 1.6312283428	 2.4463275079	-0.7441750688	 0.113015
H	 1.504464187	 1.9002946684	 2.265265439	 0.108711
H	 2.7082835221	 1.2569968424	 1.1324634516	 0.117339
H	 2.3338783821	 4.2399569659	 1.8515088508	 0.102793
H	 4.7969592743	 4.1258538287	 2.3840843423	 0.115869
H	 4.8158307851	 2.3389249155	 1.9493876123	 0.115518
