19
gdb 85533	2.38733	1.7505	1.18618	3.088	77.01	-0.2374	0.0238	0.2612	1080.2408	0.160702	-419.19787	-419.189826	-419.188882	-419.230358	31.307	
C	-0.3705138119	 1.4095662499	 0.0260710845	-0.397123
C	-0.0050751852	-0.0569931992	 0.2040745802	 0.095239
O	 0.4637411186	-0.5227332193	-1.0739622291	-0.256859
C	 1.1004694245	-1.728164613	-1.1525879434	 0.368667
N	 1.4470709643	-2.2281923499	-2.2621926612	-0.516256
C	 1.4035043562	-2.42742059	 0.1571799981	-0.235637
N	 1.7522775922	-1.5532187492	 1.2800899509	-0.108199
C	 2.47724514	-0.315129789	 0.9656421933	-0.260588
C	 1.0258422127	-0.2868925008	 1.2923942463	-0.016109
H	 0.5173563581	 1.9948950506	-0.2284820452	 0.132128
H	-1.1051380968	 1.5226932068	-0.7751981488	 0.131705
H	-0.7997253538	 1.8081501194	 0.9499223601	 0.123388
H	-0.9110855065	-0.6267849353	 0.4624829645	 0.092632
H	 1.1378199292	-1.6286934225	-3.0310617092	 0.216987
H	 0.5249378797	-3.0108501472	 0.4619952933	 0.129869
H	 2.2131584537	-3.1355902916	-0.0264785763	 0.146176
H	 3.2063380133	-0.0124201935	 1.7110175811	 0.121004
H	 2.7716588383	-0.1277446752	-0.063599888	 0.136046
H	 0.7031750836	 0.047972909	 2.2772222189	 0.096931
