17
gdb 86759	3.26101	1.15938	0.93902	6.5682	75.4	-0.2255	0.0292	0.2547	1238.9436	0.137713	-414.215991	-414.207178	-414.206234	-414.249884	31.947	
C	-0.0823149834	 1.3564812927	 0.1519795172	-0.332223
N	 0.0226729783	-0.0319129666	-0.2615071563	-0.114605
C	-1.13480896	-0.8927713319	-0.0075242815	-0.199635
C	-0.4755870689	-2.3074658619	-0.004740787	-0.116456
N	 0.9652561993	-2.0805110655	 0.1582893555	-0.335429
C	 1.1406481356	-0.8128134047	 0.021210929	 0.430737
N	 2.3693501305	-0.2061838548	 0.1502794566	-0.579269
C	-1.0279187466	-3.1739237149	 1.0446004144	 0.282802
N	-1.4901164691	-3.8445330192	 1.864068804	-0.329214
H	 0.8360275689	 1.8988135939	-0.0792786642	 0.129031
H	-0.8975028679	 1.8373543812	-0.3964381735	 0.136715
H	-0.2812098391	 1.4601132335	 1.230163643	 0.128054
H	-1.5858545237	-0.6611718785	 0.9680405868	 0.121803
H	-1.9017814957	-0.7812152862	-0.7784331886	 0.124453
H	-0.6569532204	-2.8114654202	-0.9645189354	 0.125942
H	 3.1210677373	-0.8812946253	 0.1584515468	 0.269988
H	 2.5448212749	 0.5656996082	-0.4763458067	 0.257307
