20
gdb 26654	2.20796	1.54805	0.92568	0.5492	84.35	-0.1669	0.0592	0.2262	1285.1258	0.168642	-403.201734	-403.190966	-403.190021	-403.237537	37.953	
C	-0.0507716226	 1.5181177243	 0.1219890189	-0.505352
C	 0.002117107	 0.0348482035	-0.0312287708	 0.209373
C	 0.0124363147	-0.7824539336	-1.13744255	 0.137981
C	-0.0296814594	-0.3656742673	-2.5760843151	-0.508911
C	 0.0716139263	-2.1516959777	-0.6843996229	 0.063787
C	 0.101587515	-3.381456045	-1.5390181288	-0.512715
C	 0.0945075898	-2.0946745024	 0.6868382218	 0.291684
O	 0.1476338589	-3.0455194599	 1.6590732238	-0.4396
N	 0.0529351058	-0.7905755237	 1.0855522055	-0.361765
H	 0.8260836471	 1.9143719267	 0.6517340099	 0.120004
H	-0.0821694156	 2.0006700446	-0.8571301396	 0.133583
H	-0.9393898497	 1.8492327448	 0.676318633	 0.120147
H	 0.853022554	-0.7132028787	-3.1283140054	 0.118158
H	-0.9055844873	-0.7759882826	-3.0950999656	 0.118183
H	-0.0705741111	 0.7218396254	-2.6824883292	 0.115867
H	 0.9739566043	-3.4059010663	-2.2045377869	 0.125131
H	 0.1428379156	-4.2979819894	-0.9369908476	 0.090154
H	-0.7872259478	-3.4674292349	-2.1770571415	 0.125214
H	 0.1751828158	-3.9072168553	 1.2321932327	 0.302199
H	 0.0610373493	-0.4933517123	 2.0454178878	 0.256879
