20
gdb 32815	3.18832	1.06641	0.83902	1.3987	84.16	-0.1918	0.0427	0.2345	1407.241	0.170821	-403.178744	-403.169133	-403.168189	-403.213766	34.618	
C	-0.7184268002	 1.3967345856	 0.4369260441	-0.218298
O	-0.8497858094	 0.0067324563	 0.6062351443	-0.229046
C	-0.673908429	-0.7067584974	-0.6128053207	-0.19812
C	-0.8354268221	-2.1753439591	-0.3825624154	 0.207151
C	-1.9385670068	-2.804221897	 0.1665679541	 0.233638
C	-3.2258678692	-2.2489676515	 0.6826425308	-0.514886
N	-1.6715672136	-4.1514800303	 0.1718474676	-0.286498
C	-0.4288722084	-4.399119113	-0.359437851	-0.093271
C	 0.1136090332	-3.1880891806	-0.7106330796	-0.24651
H	-0.876973655	 1.8634725696	 1.4124677927	 0.122941
H	 0.2842073301	 1.6719372284	 0.0712638116	 0.100958
H	-1.4594056044	 1.7979831069	-0.2740650965	 0.098204
H	-1.4011087797	-0.3301586233	-1.3543810198	 0.084918
H	 0.3281065764	-0.5052381379	-1.0259492274	 0.088757
H	-4.0594426048	-2.4017923507	-0.0157258215	 0.121467
H	-3.5118108075	-2.7086918682	 1.6364630226	 0.118581
H	-3.1136819746	-1.1774353978	 0.8547979311	 0.154798
H	-2.2926492105	-4.852306013	 0.5378189248	 0.254191
H	-0.0432297746	-5.4029937732	-0.4321280445	 0.113268
H	 1.08622699	-3.0307858536	-1.1527998775	 0.087758
