23
gdb 83809	1.93374	1.80377	1.1959	0.2214	91.53	-0.2189	0.0285	0.2474	1178.8993	0.207193	-351.169996	-351.161046	-351.160101	-351.203163	35.278	
C	-0.1612240523	 1.5908272939	-0.0096988939	-0.411455
C	-0.0008819932	 0.0874231954	-0.0124554578	-0.014848
C	 0.6862110897	-0.6684532993	-1.1350117261	-0.055113
C	 1.3684199604	 0.0579936317	-2.2921599673	-0.23126
C	 2.9013247592	 0.1010929399	-2.1365370985	-0.245666
C	 3.3203109766	 0.4881127197	-0.7383106174	-0.155717
C	 2.6077764402	 0.1823202797	 0.3514081549	 0.326134
C	 3.0387265022	 0.5580516918	 1.7434085106	-0.480409
C	 1.3404164273	-0.5929885915	 0.2264529438	-0.139839
H	 0.7593438336	 2.1001111535	-0.305919067	 0.123564
H	-0.9574736261	 1.9084224554	-0.6929918716	 0.112787
H	-0.4257597955	 1.9477009798	 0.9918472404	 0.112155
H	-0.8479739232	-0.4374025004	 0.4233208242	 0.077795
H	 0.2383833099	-1.6228291065	-1.3944978979	 0.076638
H	 1.1042833295	-0.4284876631	-3.2369121381	 0.092318
H	 0.998609407	 1.0862484587	-2.3679884606	 0.102312
H	 3.3288943583	-0.881391	-2.387705346	 0.105694
H	 3.3275350856	 0.8020450431	-2.8635740201	 0.094905
H	 4.2592250609	 1.0270349972	-0.6281456222	 0.073447
H	 3.9888645562	 1.0997213019	 1.7405112222	 0.115476
H	 2.2857351541	 1.1870685361	 2.234863886	 0.123516
H	 3.1566147891	-0.3323418954	 2.3749130514	 0.118615
H	 1.3025441204	-1.4855974116	 0.8482604611	 0.078952
