19
gdb 87373	2.20289	1.59594	1.08467	1.9347	78.15	-0.2522	0.0162	0.2683	1167.2275	0.158831	-419.191471	-419.182498	-419.181554	-419.224971	33.612	
C	-0.0598158266	 1.4667748818	-0.3229416501	-0.396246
C	-0.0118970648	-0.0159867146	-0.0472065219	-0.069027
N	 1.2974497221	-0.6721755881	-0.188744066	-0.383223
C	 0.6772385104	-0.6090184292	 1.1268993213	 0.179304
C	 1.2835057728	-0.0658231239	 2.4270247555	 0.07688
C	 0.7530188978	 1.2079121795	 3.0434853527	-0.406653
O	 0.7479220027	-1.2639217776	 3.115309389	-0.288107
C	 0.2357697832	-1.7757637412	 1.9428279914	 0.386126
N	-0.3474606434	-2.8563108053	 1.6827066891	-0.568733
H	 0.8604729839	 1.9542467502	 0.0078116063	 0.127476
H	-0.1663572954	 1.6467183723	-1.3977727917	 0.127799
H	-0.9095293903	 1.9354764493	 0.1837043108	 0.122515
H	-0.8808705613	-0.5814064199	-0.3813580756	 0.112317
H	 1.1961939215	-1.6164165354	-0.5572997161	 0.250276
H	 2.3767514186	-0.105928004	 2.4388740081	 0.106195
H	-0.3385349909	 1.2444934292	 2.9891381946	 0.128431
H	 1.0513632543	 1.2687473165	 4.094264525	 0.134547
H	 1.1597092308	 2.0807565955	 2.5239646598	 0.130008
H	-0.4518315953	-3.443891735	 2.5105184976	 0.230114
