18
gdb 15549	2.78484	2.04677	1.39686	0.6802	78.12	-0.2446	0.017	0.2616	939.4181	0.15352	-310.649626	-310.641641	-310.640696	-310.68178	30.598	
C	-0.7168129932	 1.2910850569	-0.054194602	-0.41088
C	 0.0811927906	-0.0084916388	-0.0766453163	 0.028324
C	 1.3015065781	-0.0119276512	-1.0315170721	-0.258248
C	 2.2486900294	-0.9883810445	-0.3795245917	-0.059285
C	 1.9059206428	-1.2570628522	 0.8774769423	-0.068228
C	 0.6616796579	-0.4872802848	 1.3041146211	-0.225115
C	 1.0070070862	 0.5876551788	 2.2349821301	 0.359713
C	 1.3047011926	 1.4627024436	 3.0049556842	-0.504758
H	-0.1002415984	 2.1269116988	 0.2889162249	 0.129686
H	-1.0897012216	 1.529170564	-1.0560282751	 0.108938
H	-1.580583348	 1.2195120545	 0.6148669173	 0.114567
H	-0.579314852	-0.8204651943	-0.4033649317	 0.081658
H	 1.0205638717	-0.2956105573	-2.0520997601	 0.102058
H	 1.7616289441	 0.9847090482	-1.1021423335	 0.110447
H	 3.1224563049	-1.3867730151	-0.8836969324	 0.094801
H	 2.450169767	-1.888732166	 1.5694048797	 0.100601
H	-0.0653004446	-1.1398991747	 1.8048640852	 0.101658
H	 1.5671007825	 2.233558204	 3.6863403302	 0.194062
