19
gdb 51621	5.29966	0.76257	0.7515	2.8464	78.91	-0.245	0.0287	0.2736	1535.9279	0.159942	-419.192942	-419.184231	-419.183287	-419.227462	32.327	
O	 0.540659783	-0.6392100105	 0.4165507758	-0.320618
C	 0.1098691216	 0.4905897004	 0.3295746197	 0.151313
N	 0.8413298469	 1.590835761	-0.0021725114	-0.287961
C	 2.2527549925	 1.5535539078	-0.291886753	 0.07051
C	 2.74899234	 2.0733277437	-1.6764792665	-0.33921
C	 3.9116089541	 2.7387632083	-0.9305302157	 0.376224
C	 5.352146549	 2.5584604364	-1.2076124031	-0.301489
N	 4.7108554283	 3.8880833211	-1.3266420132	-0.368528
C	 3.1800298233	 2.5909012193	 0.4068986628	-0.321057
H	-0.9514420426	 0.748757463	 0.5178518464	 0.073389
H	 0.3652783163	 2.4792024349	-0.0396820227	 0.243801
H	 2.5757000257	 0.5286268882	-0.1112073826	 0.130128
H	 2.9761669735	 1.329438028	-2.4441671857	 0.114446
H	 2.0562792604	 2.8148883628	-2.09260197	 0.097364
H	 6.0603812031	 2.4687453751	-0.3879248736	 0.121553
H	 5.6393363018	 2.0322798185	-2.1149730048	 0.113603
H	 4.5483678732	 4.1087895565	-2.3068622067	 0.229463
H	 2.6412446851	 3.5086212917	 0.6683793552	 0.101879
H	 3.7485384451	 2.2533852637	 1.2761061392	 0.115191
