21
gdb 96574	2.46699	1.48168	1.07087	1.9879	80.98	-0.2467	0.0048	0.2515	1194.5459	0.183767	-424.222633	-424.214079	-424.213135	-424.255397	33.467	
C	 0.1939827356	 1.6456209887	-0.1282531712	-0.408002
C	 0.0051062345	 0.1402888041	 0.000271703	 0.110468
O	 0.6104655024	-0.4334097214	-1.1739406201	-0.257981
C	 0.6530891125	-1.8307912486	-1.2369717806	 0.029311
O	-0.5958749034	-2.4410344584	-1.0048946544	-0.241385
C	-0.7341212498	-3.1967460201	 0.1872146589	-0.069197
C	-1.0261988077	-2.3483870482	 1.4423856954	-0.26364
C	 0.1431252637	-1.5055855533	 1.8936940698	-0.072274
C	 0.596392102	-0.4163696414	 1.2697729956	-0.061347
H	 1.2574397153	 1.903134046	-0.0977409085	 0.120768
H	-0.2165752073	 1.9978149987	-1.0779728037	 0.125123
H	-0.3143338645	 2.1650566691	 0.6895570134	 0.116233
H	-1.0662603684	-0.0943015857	-0.031033974	 0.081141
H	 0.9519674556	-2.0457339855	-2.2686982798	 0.105941
H	 1.3971174569	-2.2456101278	-0.5400235827	 0.079494
H	-1.5761381393	-3.8734621047	 0.0086352103	 0.108716
H	 0.1603411814	-3.8145465807	 0.3540977306	 0.096921
H	-1.9023592879	-1.7263476133	 1.2267541959	 0.123395
H	-1.3185512912	-3.0345289239	 2.245169055	 0.099908
H	 0.6716398373	-1.8526119989	 2.7793566961	 0.091804
H	 1.4792840824	 0.0907005956	 1.654696291	 0.084603
