14
gdb 75707	2.21481	2.09986	1.19286	2.4117	62.22	-0.259	-0.0561	0.2029	968.7105	0.100246	-473.826817	-473.819317	-473.818373	-473.858975	28.013	
O	 0.3202560055	 1.2461607053	 0.61192241	-0.417747
C	 0.0088018376	 0.0036858584	 0.0881493168	-0.029693
C	-1.4788412822	-0.342548643	-0.1212708395	 0.34458
O	-2.4231124945	 0.0290756396	 0.5143482847	-0.28325
C	-1.4726085245	-1.3396321322	-1.2670955874	-0.147721
C	-1.3060966569	-0.7916647771	-2.6459510246	-0.24043
N	-0.139535036	-1.3126266905	-1.9160025905	-0.119405
C	 0.5996881467	-0.2714753146	-1.2890061367	 0.326051
O	 1.5086354855	 0.3463654235	-1.7751199492	-0.320132
H	 1.0479157226	 1.589480223	 0.0714571852	 0.30329
H	 0.360313642	-0.8272519574	 0.7371531687	 0.13908
H	-1.9430906831	-2.3061542163	-1.1224461944	 0.138995
H	-1.6225905974	-1.3961851732	-3.4892400029	 0.15287
H	-1.3732211455	 0.2827065244	-2.7969640001	 0.153512
