25
gdb 104853	1.90727	1.29558	1.13927	1.3872	88.46	-0.2606	0.0749	0.3355	1315.2221	0.22772	-389.481061	-389.470368	-389.469424	-389.516123	40.391	
C	-2.0754438121	-1.4234034903	 0.1423593816	-0.406227
C	-0.8278260982	-0.5308998484	 0.1519348147	-0.232536
C	 0.0989777724	-0.5709005069	 1.385312511	 0.327713
C	 1.0540739603	 0.6183090171	 1.321937862	-0.139179
O	 0.2985768914	 1.820942565	 1.4033713166	-0.42452
C	-0.619837354	-0.7465159147	 2.7617314122	-0.250403
C	-0.2114950305	-2.2427212534	 2.7702928791	-0.240861
C	 0.8364153864	-1.9340821739	 1.6664811562	 0.01214
C	 1.1017228015	-2.9469737288	 0.560095013	-0.425657
H	-2.7476441686	-1.1921689236	 0.9740306429	 0.119065
H	-2.6389896825	-1.2611434835	-0.7823321641	 0.110423
H	-1.8394945391	-2.4897715072	 0.1950190956	 0.117117
H	-0.2194079008	-0.7604646865	-0.7336733784	 0.087448
H	-1.1508631232	 0.5087133798	 0.033460482	 0.117663
H	 1.7689546287	 0.5539311281	 2.1576368278	 0.076815
H	 1.6365284129	 0.5786689549	 0.3851786443	 0.078834
H	 0.9045622305	 2.5636795773	 1.3311669007	 0.28651
H	-0.118089208	-0.1739149296	 3.5468305304	 0.094865
H	-1.6852941131	-0.5139685588	 2.8075047435	 0.098125
H	 0.1624203783	-2.6591920163	 3.7095317477	 0.088333
H	-1.0123744238	-2.8913991348	 2.4038417814	 0.098774
H	 1.7940000247	-1.701022144	 2.1502985616	 0.062326
H	 0.1871420733	-3.2493620326	 0.0426907013	 0.119209
H	 1.7931738211	-2.5498724841	-0.1919301647	 0.111565
H	 1.5579627024	-3.8526992049	 0.9759724317	 0.112458
