17
gdb 114987	2.64461	1.34389	0.92448	4.5068	71.19	-0.2672	-0.052	0.2152	1217.8207	0.136649	-459.005344	-458.997191	-458.996247	-459.038389	30.515	
O	 0.0082543366	 1.413677011	-0.0086248901	-0.421587
C	 0.039339336	 0.0075211094	 0.0653593118	-0.064737
C	-1.3536666694	-0.5973162225	-0.0639906268	 0.09985
C	-1.385386562	-2.1207258102	-0.0194647906	-0.291263
C	-2.7994485417	-2.5931877318	 0.16041805	-0.064247
C	-3.7166458984	-1.8031517325	 0.7227184253	-0.182196
C	-3.3666291605	-0.4809525877	 1.2875654607	 0.414641
O	-4.0950883474	 0.1560599761	 2.0020379555	-0.33297
O	-2.1128064555	-0.0166371766	 1.0210468275	-0.269335
H	-0.6278296158	 1.7087363836	 0.6541597066	 0.298547
H	 0.6662397705	-0.3451706267	-0.7606152032	 0.112377
H	 0.490544677	-0.3449316948	 1.0074224059	 0.095754
H	-1.8061131571	-0.2494869217	-1.0024309256	 0.10105
H	-0.9597910014	-2.5178631412	-0.947671427	 0.127198
H	-0.7561759069	-2.5014471239	 0.7986017114	 0.131918
H	-3.0561442003	-3.5985588765	-0.1621522958	 0.119147
H	-4.7436252839	-2.1086182339	 0.8814989445	 0.125853
