17
gdb 48547	2.90751	1.47373	1.41527	3.7047	73.48	-0.2474	-0.0232	0.2241	992.3965	0.137227	-421.809103	-421.80197	-421.801026	-421.840879	27.64	
O	-0.1616421388	 0.0286734839	-0.0987435491	-0.27029
C	-0.0040684355	 1.2192063885	 0.0407346473	 0.018603
C	 1.2826877003	 1.9046667699	-0.0422003213	 0.288356
C	 1.8743496589	 3.0252936664	 0.8500089788	-0.129332
C	 3.1915174815	 2.2494710464	 0.9553947399	-0.250706
C	 2.7132851889	 1.3602927367	-0.2399996012	 0.010694
O	 3.1750844048	 1.8597519705	-1.4838794827	-0.260221
C	 2.6383154122	 3.1785829007	-1.6313991644	-0.099672
C	 1.5324570898	 3.298309351	-0.5852306481	-0.137255
H	-0.8636589684	 1.8944887481	 0.2640195414	 0.062913
H	 1.3655020917	 3.5422920213	 1.655455392	 0.103383
H	 4.1275204074	 2.7957404813	 0.8037413779	 0.107041
H	 3.2448108572	 1.6818775101	 1.8875785821	 0.115642
H	 2.8892889333	 0.2881637577	-0.1972032155	 0.110221
H	 3.4248022334	 3.9305539913	-1.4820605366	 0.106962
H	 2.2471971903	 3.287587939	-2.6488935662	 0.116082
H	 0.6809024029	 3.9404297271	-0.7800345042	 0.107579
