16
gdb 55228	3.2672	1.22135	1.01417	6.0587	64.95	-0.2616	-0.0401	0.2215	1165.5183	0.124182	-475.090375	-475.081864	-475.08092	-475.124627	30.098	
C	 0.0602855923	 1.3795342044	-0.3114215506	-0.48813
C	-0.016338241	-0.0447309598	 0.1998241525	 0.381808
O	 0.9204718508	-0.6041524902	 0.7173083211	-0.291821
C	-1.3747749939	-0.7618645927	 0.0807134344	-0.121144
C	-1.9451302777	-0.8944570063	-1.3556749187	-0.10027
O	-1.6051551411	-2.2166052815	-1.7617405308	-0.232495
C	-1.2341576986	-2.962277616	-0.6710404529	 0.477153
O	-0.9339061511	-4.1171592796	-0.7352208302	-0.37392
N	-1.2971849908	-2.1534726994	 0.4566201776	-0.352122
H	 0.2376805435	 1.3702339762	-1.3933436099	 0.160844
H	-0.87195467	 1.9261478092	-0.1385978167	 0.136921
H	 0.8950549861	 1.8945309799	 0.1656118441	 0.158415
H	-2.0801981299	-0.2027037557	 0.710553178	 0.116415
H	-3.0344284906	-0.7830421759	-1.356770018	 0.130502
H	-1.5163473072	-0.185486995	-2.0669997698	 0.127551
H	-0.6436916711	-2.3992633977	 1.1876314999	 0.270294
