17
gdb 50705	3.12359	1.39269	1.06918	3.8292	68.19	-0.2561	-0.0311	0.225	1107.0855	0.135642	-458.949874	-458.941981	-458.941037	-458.982991	29.121	
O	-0.8987566983	 1.1645115887	 0.1057825433	-0.250376
C	 0.2253014154	 0.7646995997	-0.0386327356	 0.145776
C	 1.4433980279	 1.6845815659	-0.0377882081	 0.00122
O	 2.5821409123	 0.8686546058	-0.1827869496	-0.258583
C	 3.7832416677	 1.6183275613	-0.2846541405	-0.078399
C	 3.8497007811	 2.4110693027	-1.5947700397	-0.239184
C	 2.5315304041	 3.1079754	-1.8863426864	 0.042614
O	 1.5066252906	 2.2837430079	-2.4582995579	-0.246629
C	 1.326856551	 2.7435741023	-1.1233759902	 0.022567
H	 0.474210111	-0.3078439718	-0.1845266972	 0.102941
H	 1.4569064428	 2.2113643684	 0.9349366299	 0.097461
H	 3.8647926975	 2.3037558521	 0.5751158917	 0.093825
H	 4.6008186298	 0.8962738727	-0.2170156042	 0.116762
H	 4.6576227283	 3.1482473796	-1.5325271612	 0.105906
H	 4.0783696242	 1.7433868009	-2.4320115129	 0.129574
H	 2.5867678918	 4.10312324	-2.3260732096	 0.100563
H	 0.5175827828	 3.4568471237	-0.9747629618	 0.113962
