23
gdb 119914	2.65472	0.91324	0.83928	1.75	83.68	-0.241	0.073	0.3141	1538.5355	0.20224	-425.401413	-425.390216	-425.389272	-425.437891	40.314	
C	-2.4819127819	 0.2026446157	-2.3985925884	-0.223602
O	-1.8551096185	-0.9970479611	-2.018117321	-0.230292
C	-0.4526090229	-0.964279241	-2.2089730844	-0.085879
C	 0.1234379516	-2.2590102851	-1.7031596051	-0.074104
C	 0.0904928855	-3.5495328708	-2.5151020154	-0.072592
C	-0.5373334956	-3.6418903391	-3.8891435877	-0.413563
C	 1.405170735	-2.8567356985	-2.2199010938	 0.356746
C	 2.2474042228	-2.2067389629	-3.2961969983	-0.451579
O	 2.1850794599	-3.4165178364	-1.1861491766	-0.464211
H	-2.1115480784	 1.062378778	-1.8167717917	 0.10158
H	-2.3290975509	 0.4258395084	-3.4673639266	 0.09912
H	-3.5528240771	 0.0875478463	-2.2134158758	 0.125363
H	-0.2234708199	-0.796935692	-3.2733220205	 0.078353
H	-0.0162552191	-0.1145326622	-1.6553596765	 0.088522
H	-0.0165527659	-2.396980071	-0.6353286996	 0.100818
H	-0.0662403361	-4.4324978485	-1.9005378913	 0.085335
H	-0.3402457141	-2.760081293	-4.5040248725	 0.112069
H	-0.157962273	-4.5117265725	-4.4371806939	 0.110745
H	-1.6245584224	-3.7434559268	-3.808629724	 0.129631
H	 1.649180317	-1.7449660584	-4.0841910005	 0.118485
H	 2.8921081332	-1.4386994444	-2.85726263	 0.126926
H	 2.895192745	-2.9531537104	-3.7733293748	 0.106398
H	 2.6668681359	-4.1645307245	-1.5573980316	 0.275732
