14
gdb 47997	3.09459	0.81932	0.68077	3.9478	81.98	-0.2636	-0.0661	0.1975	1563.8219	0.098205	-399.453142	-399.444054	-399.44311	-399.488542	31.304	
O	-0.0764335297	-0.0429405025	 0.4258128202	-0.230458
C	 0.1132721309	 0.9470471278	-0.2436491916	 0.019195
C	 1.2974677122	 1.7621723368	-0.177463231	 0.073064
C	 2.2725847415	 2.4751403483	-0.1582979459	 0.178563
C	 3.4404057732	 3.2972994181	-0.0837947578	-0.274562
N	 3.7440599308	 4.1627895488	-1.2410328609	-0.306679
C	 3.3441986888	 4.8074561932	 0.0175003078	-0.242402
C	 2.0865023461	 5.4962963142	 0.0552500386	 0.382374
C	 1.043967602	 6.0891386521	 0.1242147326	-0.414337
H	-0.637393619	 1.3044530054	-0.9772436094	 0.103756
H	 4.2783065081	 2.857216501	 0.4525871945	 0.128879
H	 4.7527901303	 4.2285146563	-1.3569178722	 0.248823
H	 4.1285025953	 5.2609223422	 0.620809851	 0.126579
H	 0.1187315297	 6.6084286884	 0.1736914141	 0.207204
