20
gdb 69477	4.77	0.83545	0.78257	3.1619	80.91	-0.2205	-0.0232	0.1974	1494.9251	0.168863	-403.109409	-403.100219	-403.099275	-403.144041	33.791	
C	-0.002412086	 1.5850886436	-0.0226706561	-0.498988
C	-0.0198180448	 0.0852214473	-0.0096796481	 0.337875
C	-0.9473070757	-0.7518330041	 0.8395943034	-0.344346
C	 0.5470298281	-0.9098253692	 0.9918353893	-0.051065
N	 1.1556627404	-1.7053817082	-0.0721833917	-0.090541
C	 0.8925604221	-3.1291840102	-0.1287528509	-0.24087
C	 1.8158594542	-3.8092432067	-1.1269799705	 0.159385
O	 1.5111194255	-4.7550128905	-1.8053153071	-0.23853
C	 0.5621940187	-0.8109608924	-1.1121053595	-0.242472
H	 0.9799518139	 1.9700674188	-0.318530569	 0.122159
H	-0.7425550244	 1.9851076901	-0.726171409	 0.123322
H	-0.2378613629	 1.9917267209	 0.9660697661	 0.121132
H	-1.4332092898	-0.2154501929	 1.6494637154	 0.112468
H	-1.5533243041	-1.5401292071	 0.3999248445	 0.108185
H	 1.0696546607	-0.7502193674	 1.9298595545	 0.093307
H	 1.1350073877	-3.5550920536	 0.8565499469	 0.129267
H	-0.1468426975	-3.4141955618	-0.3604917399	 0.106366
H	 2.8303294538	-3.3520043584	-1.1701857142	 0.08253
H	-0.1707906298	-1.2921680856	-1.7741712141	 0.101842
H	 1.33429219	-0.3324963625	-1.72419453	 0.108972
