19
gdb 99598	1.91611	1.51258	1.04033	2.8716	77.	-0.2538	0.042	0.2959	1213.7848	0.15622	-422.968736	-422.958937	-422.957993	-423.00335	36.472	
C	 0.0928489228	 1.4615163714	-0.78450247	-0.465231
C	-0.011259945	 0.0999811533	-0.1373708002	 0.406016
C	 1.1977708582	-0.713606387	 0.0539659197	-0.227533
O	 0.6260589413	 0.0036642053	 1.1571685128	-0.288611
C	-1.377093939	-0.6088183937	-0.1818092755	-0.283411
C	-2.3451131309	-0.0327388977	 0.8908275229	-0.055236
O	-1.970118984	-0.4139775798	 2.192050783	-0.426137
C	-1.9676667686	-0.5630294087	-1.5145904171	 0.313563
C	-2.481869125	-0.5126945712	-2.6002133062	-0.448542
H	 1.0823281856	 1.8866016785	-0.6019053365	 0.128039
H	-0.0735024783	 1.3871127991	-1.8619500355	 0.143185
H	-0.6543026829	 2.1494477689	-0.3764449191	 0.134026
H	 1.1186484271	-1.7978525887	 0.1104734483	 0.123227
H	 2.1612664083	-0.3348049391	-0.2822924898	 0.121533
H	-1.2215210761	-1.6576724476	 0.1006145884	 0.115614
H	-2.4071255638	 1.0613116306	 0.7763701031	 0.094164
H	-3.3465798438	-0.4345257376	 0.7124957554	 0.117172
H	-1.0232451498	-0.2419041744	 2.2788531994	 0.299013
H	-2.9337097262	-0.4804269015	-3.5607540731	 0.199146
