14
gdb 129553	3.26479	1.23329	0.93867	2.3167	67.63	-0.2647	-0.0501	0.2145	1170.2637	0.100354	-432.77473	-432.766533	-432.765589	-432.808484	29.489	
N	-0.238112077	 1.5965360526	-0.1141341206	-0.493338
C	-0.0188501276	 0.1507302646	-0.0516327455	-0.278862
C	-1.2735042064	-0.5533290582	 0.2290470342	 0.347528
C	-2.2965318594	-1.1459578205	 0.4387619429	-0.452295
C	 0.6472439191	-0.4563908836	-1.2780512721	 0.336648
N	 1.2576892632	 0.2786348743	-2.1664866104	-0.160196
O	 1.7626993571	-0.5897484723	-3.0940172309	-0.148305
N	 1.4597188181	-1.8836364958	-2.7777077327	-0.059963
C	 0.777907519	-1.8211608693	-1.6693846697	-0.099803
H	 0.637832164	 2.0480518686	-0.36440109	 0.250562
H	-0.8841867966	 1.8013848324	-0.8718209103	 0.24285
H	 0.6593151227	-0.0303778275	 0.7959730519	 0.144429
H	-3.205823299	-1.6589083406	 0.6358894807	 0.210987
H	 0.3968181029	-2.7101828748	-1.1925574373	 0.159758
