12
gdb 3729	7.25191	1.97193	1.70332	2.8572	51.43	-0.3167	-0.0687	0.248	717.4002	0.089852	-356.649302	-356.643036	-356.642092	-356.680079	21.552	
C	-0.0066849283	 1.5413737349	-0.1067879397	-0.384743
C	-0.025731896	 0.0155498839	 0.0841526513	-0.281168
C	-1.4086874847	-0.5390277654	 0.0987625894	 0.41725
N	-1.9892469163	-1.1084648022	 1.1162649557	-0.147916
O	-3.2253886399	-1.4382266189	 0.6711207529	-0.138756
N	-3.3458088813	-1.0361716557	-0.6558363001	 0.049143
N	-2.2626257544	-0.4996179994	-0.9953201655	-0.2022
H	 1.0243321817	 1.9022662718	-0.1455379278	 0.128631
H	-0.504731412	 1.8240192235	-1.0379977154	 0.146055
H	-0.5152279237	 2.0458853299	 0.7196738786	 0.134781
H	 0.5271003905	-0.465143335	-0.7306266949	 0.138653
H	 0.4616570644	-0.2653121975	 1.0211484456	 0.14027
