15
gdb 36299	3.68928	1.18315	1.11839	3.0846	68.07	-0.2629	-0.0054	0.2575	1089.5214	0.114267	-416.810968	-416.803615	-416.802671	-416.844006	27.04	
N	-0.0938116212	-0.9125183763	-0.677480058	-0.306964
C	-0.0578598338	 0.1526200925	-0.2313618952	 0.269895
C	 0.0094531193	 1.497828884	 0.3407204596	-0.370574
C	 1.3816214523	 2.1257776752	 0.1660803003	-0.068776
C	 1.8720900495	 2.7145337795	-1.1256365557	 0.053332
O	 0.8858624323	 3.075717908	-2.0830222559	-0.19749
C	 0.150019604	 4.0520038174	-1.4907542277	 0.089486
N	 0.4714569076	 4.4407137443	-0.3221989866	-0.247315
C	 1.6016964457	 3.6290568684	 0.0658573138	-0.06903
H	-0.7683891021	 2.1148995229	-0.1175440356	 0.167278
H	-0.2345913158	 1.4368990125	 1.4072512609	 0.160842
H	 2.1696899003	 1.6174549194	 0.7139442207	 0.12208
H	 2.8196722803	 2.4512425485	-1.5760823233	 0.126542
H	-0.6726145872	 4.4267691084	-2.0872990904	 0.155691
H	 2.3514398188	 4.1049254851	 0.6856574329	 0.115004
