18
gdb 47143	3.31508	1.32913	1.03159	3.5213	80.88	-0.2383	-0.0177	0.2207	1168.1829	0.149372	-401.990575	-401.982507	-401.981563	-402.023491	30.659	
O	-0.067555693	-0.0083360518	-0.3459913343	-0.400927
C	-0.0210147279	 1.194870779	-0.1644495002	 0.356377
N	-1.0987500779	 2.030282069	-0.0075107521	-0.326297
C	-0.7269303502	 3.411144517	 0.1901253746	-0.205719
C	 0.775100813	 3.337112957	 0.1368367488	-0.226325
C	 1.1925784382	 2.0798101999	-0.0648401917	 0.263584
C	 2.5716433864	 1.5843323567	-0.1785026708	-0.113208
C	 2.9785157175	 0.2212299819	 0.3613093153	-0.26913
C	 2.9369404153	 0.4452077237	-1.1187068658	-0.269125
H	-2.0428547472	 1.6858194612	-0.0351018195	 0.254093
H	-1.1332217645	 4.0663354526	-0.5947689246	 0.123985
H	-1.0842231813	 3.8028039434	 1.1541450126	 0.123986
H	 1.397566526	 4.2152663667	 0.2521097102	 0.107246
H	 3.3199911932	 2.3654278512	-0.0813139656	 0.079763
H	 3.9404857552	 0.1600769933	 0.8580989764	 0.107561
H	 2.19519819	-0.3955865134	 0.7824926747	 0.143277
H	 2.126564721	-0.0259692637	-1.6597513835	 0.143302
H	 3.8696406662	 0.5416582865	-1.6634013846	 0.107556
