11
gdb 2812	4.14382	2.33903	1.62932	1.6949	58.71	-0.2591	0.0014	0.2605	721.8745	0.075398	-306.015194	-306.008361	-306.007417	-306.045901	24.719	
C	-0.1836783911	-1.2099363854	 0.0087485673	-0.403334
C	-0.0646700247	-0.014496283	 0.0175336712	 0.344602
C	 0.0319053856	 1.4178336642	-0.0015582189	-0.157548
O	 0.5301933927	 2.0751179862	 1.1683658995	-0.226019
C	 1.341226667	 2.1300472319	-0.0098714122	-0.157633
C	 2.5962982565	 1.4329502807	 0.0006603023	 0.344833
C	 3.664453059	 0.8833200085	-0.0157858307	-0.403486
H	-0.2773661528	-2.2680189137	 0.0101642477	 0.205835
H	-0.8034987681	 1.933146896	-0.4757754139	 0.123454
H	 1.3578599608	 3.108835024	-0.4894828613	 0.12346
H	 4.6038952551	 0.3876198705	-0.022729831	 0.205839
