22
gdb 123071	7.98321	0.39195	0.38924	2.5041	85.51	-0.2477	0.0234	0.271	2779.6414	0.191335	-441.472133	-441.460579	-441.459635	-441.511027	38.57	
C	-0.0779414905	 1.3979397683	-0.0250646014	-0.248663
O	-0.0009338946	-0.0191191897	 0.0605180481	-0.192368
C	 0.5858878121	-0.6334539842	-0.9864073524	 0.127685
N	 0.6996716231	-1.8851714588	-1.0168462908	-0.208931
C	 1.3525638807	-2.4718954286	-2.1718679842	-0.1588
C	 2.5859532617	-3.2798431734	-1.7513471656	-0.171444
C	 3.258225856	-3.9874543213	-2.9301237266	-0.165664
C	 4.4776845414	-4.7992290379	-2.5145860763	-0.073488
O	 5.0241094609	-5.3997995415	-3.6800205398	-0.422401
H	 0.9182851022	 1.8531392681	-0.0871155355	 0.125957
H	-0.6745344283	 1.7176206495	-0.888332905	 0.126711
H	-0.566723079	 1.7351077085	 0.889719504	 0.146153
H	 0.9363852621	 0.0494582698	-1.7777666614	 0.07011
H	 0.6381163578	-3.1475557105	-2.6610669732	 0.105993
H	 1.6434441532	-1.715528533	-2.92341212	 0.077389
H	 3.298626031	-2.6048664399	-1.2596350006	 0.093053
H	 2.2783710241	-4.0087521545	-0.9920461945	 0.109918
H	 2.5468125941	-4.6606110512	-3.4245423321	 0.104957
H	 3.571803617	-3.2569819306	-3.6864964108	 0.102059
H	 5.2132123702	-4.140235093	-2.0240238002	 0.082376
H	 4.1816475356	-5.5610987008	-1.7748528934	 0.085105
H	 5.7880608692	-5.9217523752	-3.4185687585	 0.284294
