19
gdb 114718	2.4926	1.543	1.24255	2.1244	75.82	-0.2252	-0.0203	0.2049	1089.5042	0.159656	-423.033377	-423.024976	-423.024032	-423.066509	31.661	
C	 0.2664079369	 0.7437163098	-0.6224704439	-0.244542
O	 0.1204220179	-0.5071808193	 0.028806243	-0.246453
C	 0.588093125	-0.5143214727	 1.3726314488	-0.008596
C	 0.1575877889	-1.8192065397	 2.0599851522	-0.2533
C	 1.3505635699	-2.7713285792	 1.9563428368	-0.044097
C	 1.9339797059	-2.969604009	 0.5994748377	-0.283171
C	 2.5790879879	-1.9636280189	 1.5559581358	-0.147486
C	 2.1431802739	-0.549504338	 1.3948175355	 0.417703
O	 2.8515769358	 0.4266812988	 1.3222338613	-0.343041
H	 1.3154516763	 1.0531061718	-0.6963092928	 0.136816
H	-0.1504403885	 0.6251687214	-1.6252664385	 0.125628
H	-0.2902455449	 1.5306242286	-0.0915054807	 0.108712
H	 0.2327123925	 0.3835979911	 1.8965712826	 0.085596
H	-0.0622220685	-1.6191830027	 3.1136651524	 0.110161
H	-0.7493135745	-2.2171234286	 1.5959743267	 0.118894
H	 1.4439263792	-3.5631701279	 2.6904025195	 0.094627
H	 2.5163238497	-3.8669004537	 0.4220455937	 0.121411
H	 1.3992178475	-2.5879012954	-0.2619806768	 0.146085
H	 3.578822009	-2.1569642264	 1.9228700566	 0.105053
