16
gdb 44460	4.19056	1.45363	1.32989	5.3066	69.33	-0.2527	0.0118	0.2646	958.3403	0.126561	-437.83353	-437.827186	-437.826242	-437.864178	26.117	
O	 0.0447282305	 0.0327091431	 0.1597729513	-0.316058
C	-0.0195072036	 1.2174946244	 0.0675304562	 0.442314
C	-1.3105695833	 2.0998027608	 0.1226326343	-0.493734
C	-0.6656953929	 3.4253004654	 0.3850814984	 0.29775
C	-0.5906841691	 4.9684140445	 0.2252885898	-0.330667
C	 0.7965723136	 4.4618306959	 0.7925846096	-0.079976
N	 0.0762242882	 3.5295517303	 1.7256009627	-0.341177
C	 0.7054389713	 3.3461614928	-0.2867698523	 0.145937
O	 1.1055783566	 1.9994618659	-0.1338777181	-0.233698
H	-1.8207434798	 2.0415174426	-0.844588075	 0.141424
H	-1.9728421161	 1.7188482573	 0.9002122176	 0.147844
H	-0.631384513	 5.3841064036	-0.7870454843	 0.108105
H	-1.1763272504	 5.5629377084	 0.9301056818	 0.110948
H	 1.6495476241	 5.0638348649	 1.1074688604	 0.098033
H	-0.4969727556	 4.0761383375	 2.3746572793	 0.210707
H	 0.8106801395	 3.6615417028	-1.3264373117	 0.092248
