17
gdb 71999	1.87946	1.8639	1.7208	0.8786	68.17	-0.212	0.0553	0.2672	960.9661	0.133855	-458.884887	-458.876476	-458.875532	-458.917239	32.569	
C	 0.0188212282	 1.4115885219	-0.0366500354	-0.522585
C	 0.0007343509	-0.076869576	-0.0329370246	 0.28893
O	 0.9373750292	-0.8239405971	-0.8131093616	-0.315856
C	 0.1818386686	-2.0182989103	-0.47409231	-0.01572
C	 0.471695198	-2.2425268398	 1.0338012279	-0.30097
C	-0.3316384531	-0.9582265937	 1.2301480853	 0.253319
O	-0.8439209705	-0.4161349383	 2.3872554363	-0.455427
C	-1.077971972	-1.1237884481	-0.0735530744	 0.224011
O	-2.4211375045	-1.1656685348	-0.3175312643	-0.439708
H	 0.9982830104	 1.7884081151	 0.2795331101	 0.130457
H	-0.1921914382	 1.8171073436	-1.0314381186	 0.128532
H	-0.7360600815	 1.7881383894	 0.6595071851	 0.140513
H	 0.2537235417	-2.8132292859	-1.2128365663	 0.089533
H	-0.0638458189	-3.1099261419	 1.4282159131	 0.112908
H	 1.5285039871	-2.2691534634	 1.3176691508	 0.096273
H	-0.1376502726	 0.0544593065	 2.8448663221	 0.290058
H	-2.580428923	-0.8590039572	-1.2180307555	 0.29573
