15
gdb 62292	3.44676	1.54084	1.34408	3.7749	68.59	-0.2703	0.0033	0.2737	947.1878	0.113295	-416.750895	-416.743667	-416.742723	-416.782369	28.053	
O	-0.0117517181	 1.4162509301	-0.0450075641	-0.470788
C	-0.0105222205	 0.0117990205	-0.0773835438	 0.297008
C	 0.8006131084	-0.5384978624	 1.0188847436	 0.233871
N	 1.4801385526	-0.9097312393	 1.8768207327	-0.330604
C	-1.3708640682	-0.6505386308	-0.1681141979	-0.08933
C	-1.7605005352	-0.7091621567	-1.6064109065	-0.04281
C	-0.662638722	-0.0796826064	-2.4460777836	-0.253144
C	 0.2697523621	-0.7392809263	-1.4185666786	-0.070489
N	-0.845905569	-1.7625627255	-1.0454250744	-0.153008
H	 0.8731101939	 1.7308789451	 0.1734270394	 0.298148
H	-2.0574360396	-0.8412482574	 0.6467785393	 0.118412
H	-2.7776641307	-0.9489036247	-1.893545224	 0.112461
H	-0.5823485769	-0.5745514869	-3.4163416803	 0.121271
H	-0.6235468213	 1.0059317087	-2.5585982543	 0.12245
H	 1.2697669247	-1.0911143682	-1.6597546575	 0.106553
