14
gdb 54393	2.71525	1.39058	1.29924	3.1561	63.7	-0.257	-0.0227	0.2343	1015.8792	0.099308	-473.792662	-473.784519	-473.783575	-473.826014	29.592	
N	-0.1111738555	 1.2689074392	 0.2884255768	-0.536806
C	 0.0704499129	-0.0497495238	 0.0264105119	 0.265937
O	 1.1405436281	-0.5871759169	-0.1772798196	-0.359217
C	-1.2071371774	-0.833858808	-0.0361454285	 0.210575
C	-1.5628783646	-2.2051911687	 0.5767743569	-0.253917
C	-2.8968761464	-1.6126298312	 0.0608535358	-0.080782
O	-2.4589058874	-0.2819831026	 0.5666037032	-0.342554
C	-2.1573859899	-1.1996575465	-1.2384724507	 0.444646
O	-2.2818936738	-1.0819798131	-2.4074440766	-0.290548
H	 0.6918690219	 1.8751363566	 0.3191139208	 0.270144
H	-1.0291604634	 1.6432450975	 0.4596415784	 0.280558
H	-1.1631186802	-3.1043733223	 0.1053079752	 0.135173
H	-1.4931818003	-2.2137086327	 1.6653290922	 0.131468
H	-3.9238360242	-1.9091373074	 0.2591113743	 0.125323
