14
gdb 60515	2.62422	1.266	1.00921	2.673	63.96	-0.284	-0.1053	0.1787	1151.9907	0.098394	-473.803992	-473.795199	-473.794254	-473.83841	30.443	
O	-0.2028369493	 1.4302560157	-0.1238582317	-0.419929
C	-0.1307800411	 0.0425901165	-0.0291659884	-0.011811
C	 0.4061599226	-0.6168219635	-1.3045815919	 0.036553
C	 0.4460777819	 0.1319043456	-2.5635640521	-0.166069
O	 1.6321715105	-0.0867705867	-1.7889759562	-0.229885
C	 0.7671924088	-0.3451684768	 1.1423626141	 0.290742
O	 1.4092926551	 0.4717157946	 1.7544091373	-0.281964
C	 0.817739544	-1.7746587736	 1.4778037779	 0.253193
N	 0.8188626755	-2.9049299118	 1.7216579951	-0.295442
H	 0.5308164309	 1.7861586686	 0.39987584	 0.307552
H	-1.1327602975	-0.3734104641	 0.1640668573	 0.125712
H	 0.3242879918	-1.7042734354	-1.328178921	 0.122856
H	 0.399441344	-0.4109165787	-3.5056061994	 0.125254
H	 0.0862569028	 1.1563785798	-2.5704082911	 0.143238
