20
gdb 100278	1.86819	1.39984	1.15442	3.0641	71.06	-0.2385	0.0336	0.2721	1209.3378	0.168537	-477.459183	-477.448407	-477.447463	-477.494898	39.303	
C	 0.2732788287	 1.5242902843	-0.0897675334	-0.395738
C	 0.0967990422	 0.0186562128	 0.1168494572	-0.19965
C	-1.3757247997	-0.4380772934	 0.0721775116	 0.276624
O	-2.0228431065	 0.0120302835	-1.11711052	-0.491805
C	-1.4779483972	-1.9726635255	 0.1270500798	-0.123656
O	-0.974752627	-2.4502206308	-1.1200380009	-0.438158
C	-2.1297809786	 0.1097016714	 1.2972382832	 0.367631
N	-3.2411199315	 0.8253665633	 1.0063096704	-0.525198
O	-1.7369057681	-0.1248857626	 2.4271175608	-0.392841
H	 1.3343627066	 1.7903072247	-0.0980503441	 0.109299
H	-0.167495994	 1.8407400228	-1.0387073536	 0.122646
H	-0.2049494673	 2.0955537267	 0.7128253045	 0.123328
H	 0.641519658	-0.5366933573	-0.6542023292	 0.102416
H	 0.5026603691	-0.2812049352	 1.0879027587	 0.11992
H	-1.8061817937	-0.6458507863	-1.7915429553	 0.290178
H	-0.9016412575	-2.3542134135	 0.9772803465	 0.122107
H	-2.530149854	-2.2619847993	 0.256365002	 0.099198
H	-1.2167154381	-3.3752074408	-1.2158377592	 0.298195
H	-3.4970076305	 0.9754812511	 0.045258323	 0.276506
H	-3.7837519308	 1.2130658843	 1.7593647577	 0.258999
