19
gdb 63298	2.17458	1.4929	1.10335	5.5668	80.14	-0.2469	-0.0183	0.2287	1180.7072	0.157693	-419.241666	-419.232228	-419.231284	-419.275828	34.683	
C	-0.0215780976	 1.5294068976	 0.0587748846	-0.43236
C	-0.0085927608	 0.0028438524	 0.0021788961	 0.306472
C	-1.3804442187	-0.5976057549	 0.3041906777	-0.432354
C	 0.7041929795	-0.5968881138	-1.2502374114	-0.441934
C	 1.759011771	-1.1585195885	-0.2804238504	 0.441545
O	 2.7578069344	-1.8069536258	-0.3763880265	-0.326906
N	 1.0852919095	-0.6018961916	 0.8179027964	-0.110237
C	 1.2897280397	-0.5722465965	 2.1841812921	 0.064871
N	 2.2770545789	-1.134936752	 2.7509687422	-0.41608
H	 0.9707229396	 1.9379153275	-0.1522969077	 0.130274
H	-0.7248276545	 1.9296919022	-0.6783318966	 0.128131
H	-0.3359948237	 1.887325137	 1.0450375307	 0.121173
H	-2.1161204558	-0.248059176	-0.4270533601	 0.128118
H	-1.3470441861	-1.6900964183	 0.2663254767	 0.130255
H	-1.7337168006	-0.3005380811	 1.2974828345	 0.12117
H	 0.1420025477	-1.3630532168	-1.787897227	 0.133472
H	 1.0974731596	 0.1331379235	-1.960546441	 0.133496
H	 0.4968407726	-0.0076486777	 2.693179298	 0.092211
H	 2.2295520055	-0.9869840573	 3.7579270717	 0.228685
