21
gdb 119183	1.88701	1.18186	0.83883	0.9765	86.07	-0.2379	0.0537	0.2916	1455.3455	0.17956	-387.042467	-387.031864	-387.03092	-387.078181	38.795	
C	-0.0260675056	 1.5010567485	-0.0887604737	-0.416362
C	 0.0994350196	-0.0027771549	 0.0119196694	-0.03615
C	 1.4281009595	-0.6989895258	-0.0502591758	-0.319232
C	 0.637415873	-0.7138736221	 1.257854268	 0.123056
C	 1.1643511794	 0.0835585856	 2.4457424985	-0.260282
C	 2.2193606621	-0.67366242	 3.2465052262	-0.073692
O	 2.6545614952	 0.1846853922	 4.2916595795	-0.422455
C	-0.0212509575	-1.947931674	 1.6049214227	 0.295421
C	-0.5786208161	-2.9718022554	 1.9055619471	-0.472546
H	 0.8374040855	 2.0201351631	 0.3347906064	 0.122214
H	-0.1025548818	 1.8012133868	-1.1397047802	 0.121256
H	-0.9223076704	 1.8631990035	 0.4263212792	 0.124588
H	-0.718073284	-0.5410677664	-0.4590432918	 0.098894
H	 1.5145963448	-1.6256403696	-0.6051554681	 0.121849
H	 2.3203328747	-0.0798524281	-0.0609148857	 0.114032
H	 1.6098104724	 1.0213803734	 2.1026261731	 0.105577
H	 0.3387815525	 0.3473212038	 3.1162175548	 0.112422
H	 1.7874355012	-1.6041876457	 3.6419593358	 0.101984
H	 3.0546492351	-0.9539190482	 2.5843699033	 0.084394
H	 3.2691008086	-0.3055285059	 4.8450288221	 0.285421
H	-1.0698507482	-3.8757998609	 2.1671593092	 0.189612
