19
gdb 9290	3.90603	1.03224	0.87673	3.9342	70.26	-0.2468	0.0366	0.2834	1330.716	0.163729	-402.220914	-402.211168	-402.210224	-402.256543	33.393	
C	-0.3219114641	 1.4683904216	 0.1253655191	-0.238779
O	-0.0804239962	 0.0796131158	 0.1698106548	-0.256473
C	-1.2415975253	-0.7388035647	 0.0440262103	 0.127284
C	-1.759469029	-0.8006567821	-1.3927865835	-0.404648
C	-0.8268702815	-2.1197262498	 0.5522655354	-0.160164
N	-0.304780414	-2.0497514492	 1.9023954627	-0.27409
C	-0.7879273542	-2.7924061261	 2.9304990579	 0.153342
O	-1.6625860095	-3.6298874365	 2.8442388399	-0.328341
H	 0.627405916	 1.9665107512	 0.3377960172	 0.129003
H	-0.6757708304	 1.803652096	-0.8595348963	 0.11264
H	-1.0612442331	 1.7755706013	 0.8811659185	 0.108432
H	-2.0290629412	-0.343153892	 0.7067075341	 0.075607
H	-2.0705506997	 0.1840734436	-1.7512205511	 0.120708
H	-0.9817367365	-1.1798965453	-2.0630604293	 0.126945
H	-2.6272108044	-1.4647840017	-1.4553982872	 0.126373
H	-1.6811858562	-2.798903875	 0.5710647372	 0.145997
H	-0.0718417188	-2.5351453724	-0.1284352548	 0.112625
H	 0.3879969007	-1.3403956908	 2.082791955	 0.252642
H	-0.2790980625	-2.548545464	 3.8845648901	 0.070897
