18
gdb 125441	4.57538	0.80197	0.71921	3.7873	74.77	-0.2449	0.012	0.2569	1569.3213	0.148392	-435.301537	-435.292092	-435.291148	-435.338219	32.61	
C	 0.0579916332	 1.4522639423	-0.0606317136	-0.503484
C	 0.0335449166	-0.038983254	-0.0689281211	 0.349824
N	 0.1326117882	-0.8238944448	-1.1272152586	-0.340048
C	 0.0454998861	-2.0871328874	-0.6041081279	 0.321145
C	 0.138640443	-3.3176222794	-1.4448682508	-0.312128
C	 1.5469332245	-3.5147443802	-2.0322067152	-0.059264
O	 1.636773254	-4.6728529859	-2.8441634132	-0.416651
N	-0.0983676453	-2.1250417592	 0.7117040383	-0.264751
N	-0.1044048671	-0.8061925894	 1.0350790311	-0.232939
H	 0.8526364969	 1.8393514972	 0.585811172	 0.14061
H	 0.2333272128	 1.8056168593	-1.0770880124	 0.163666
H	-0.8916873541	 1.8687368019	 0.2923091098	 0.142714
H	-0.1316844013	-4.1902734229	-0.8454053675	 0.125984
H	-0.5788132194	-3.2394108311	-2.2718700931	 0.104606
H	 1.8455743326	-2.6080904134	-2.577720956	 0.10679
H	 2.2657481154	-3.6613836695	-1.2196058225	 0.117352
H	 1.0852609502	-4.5305781098	-3.6200590509	 0.281339
H	-0.2109019165	-0.5291926639	 1.9970064916	 0.275236
