21
gdb 37388	2.71523	2.09802	1.69006	0.1725	84.17	-0.2449	0.0857	0.3306	910.7166	0.187396	-349.908517	-349.902298	-349.901354	-349.93853	28.2	
C	-0.0360216838	 1.4995465309	 0.1819759172	-0.328707
C	 1.294414505	 0.8032911777	-0.0464624462	-0.027768
C	 0.0052301264	 0.0141444918	-0.0373937229	 0.005486
C	-0.1927717379	-0.7222232657	-1.3526835407	-0.069978
C	 1.0155307396	-1.717344706	-1.4042041355	-0.227337
C	 1.7718317336	-0.6153736502	-2.1607187742	-0.011037
C	 1.9548832483	 0.7966820593	-1.4274955605	-0.050647
C	 1.0140158793	 1.3905955369	-2.5150778904	-0.246672
C	 0.4176274164	-0.0171596445	-2.6429271324	-0.016145
H	-0.2422577086	 1.8185438232	 1.1987301526	 0.103332
H	-0.4491449836	 2.1621190201	-0.5660033587	 0.114062
H	 1.9664421192	 0.7324297589	 0.8025077956	 0.077679
H	-0.2127677572	-0.6046586393	 0.8300213694	 0.081063
H	-1.1989248868	-1.1315799444	-1.467568153	 0.060667
H	 1.3960095662	-2.0896846907	-0.4477022626	 0.085825
H	 0.8321295474	-2.5642999501	-2.0732262109	 0.090913
H	 2.5816097226	-0.8624196959	-2.8495111323	 0.058098
H	 2.9719895984	 1.1913455517	-1.3877315671	 0.058281
H	 0.4010598308	 2.2632635334	-2.2844370989	 0.091522
H	 1.5800674176	 1.6081893286	-3.4275506686	 0.092846
H	-0.0676800831	-0.3336370056	-3.56853841	 0.058515
