25
gdb 96359	2.18331	1.62491	1.09374	0.2119	91.94	-0.2576	0.0851	0.3427	1234.8355	0.231513	-352.374106	-352.365321	-352.364377	-352.406871	36.161	
C	-0.1754321576	 1.5463702695	-0.0638458886	-0.426903
C	 0.0333528074	 0.030534155	 0.0205725283	-0.037309
C	 0.757488332	-0.4866625817	-1.2402414822	-0.177404
C	 0.912418835	-2.0125989675	-1.2447212476	-0.198624
C	 1.6213410898	-2.5029381363	 0.0240052333	-0.188157
C	 0.9053569482	-1.9913173132	 1.2818413278	-0.265349
C	 0.7619828256	-0.4734484287	 1.27360524	 0.40379
C	 1.9049950791	 0.3146003418	 1.8743942861	-0.300644
C	 0.5899222372	 0.1977870295	 2.611698126	-0.341828
H	 0.775429088	 2.0864384085	-0.1271015653	 0.115915
H	-0.7463771055	 1.7929192241	-0.9650837692	 0.111641
H	-0.7328171217	 1.9387520199	 0.7913396476	 0.113711
H	-0.9656128231	-0.4345219514	 0.035745667	 0.066608
H	 0.2124645379	-0.1603352093	-2.1343736577	 0.083597
H	 1.75068768	-0.0184281197	-1.2918031058	 0.090664
H	-0.0823620346	-2.4762989808	-1.3054876265	 0.089403
H	 1.4595219719	-2.3349953955	-2.138104848	 0.086864
H	 1.6736396427	-3.5976411529	 0.0361237958	 0.085716
H	 2.6569126116	-2.1371094215	 0.025318349	 0.093326
H	-0.094224379	-2.4468680399	 1.3390435401	 0.088479
H	 1.4427869585	-2.3088107569	 2.1830497952	 0.084014
H	 2.7581507959	-0.2383124488	 2.2545297474	 0.103965
H	 2.1619605057	 1.2797932838	 1.4527980573	 0.107306
H	-0.0274843174	 1.0855757858	 2.6852434491	 0.107454
H	 0.5504693822	-0.4371414338	 3.4913294209	 0.103764
