20
gdb 35053	2.3717	1.48461	1.43073	1.1759	84.4	-0.218	0.0333	0.2513	1067.2459	0.172561	-365.963104	-365.954975	-365.954031	-365.995483	32.435	
C	-0.5043590978	-1.1557349198	-0.2457819819	-0.478496
C	-0.2853357153	 0.0211606598	-0.1162306338	 0.362824
C	-0.0704668016	 1.4366668365	-0.0098863697	-0.208823
C	 0.4905800349	 2.0568222289	 1.2485308743	-0.019406
C	 0.8990257694	 1.1989903982	 2.4416398522	-0.237006
C	 2.4011890372	 0.8772515225	 2.4175050353	-0.188054
C	 2.7689929206	 0.2532490676	 1.0683745246	-0.21029
C	 2.4871156533	 1.2392709661	-0.0817219553	-0.141027
N	 1.2657180708	 2.0499407405	 0.0102108845	-0.109627
H	-0.6939390705	-2.1944048989	-0.3598539814	 0.199844
H	-0.7893060581	 2.0222590576	-0.581520581	 0.11048
H	 0.1035328672	 3.0433136215	 1.4993187555	 0.09369
H	 0.6320992241	 1.7254553686	 3.3626806687	 0.097482
H	 0.3354340211	 0.2587785027	 2.4374507163	 0.116699
H	 2.9837784004	 1.7951097773	 2.5750055284	 0.095785
H	 2.6494141969	 0.1979351174	 3.2393393877	 0.093826
H	 3.8303963221	-0.0171303905	 1.0365592643	 0.091742
H	 2.1971713248	-0.6697904584	 0.9302682649	 0.11307
H	 3.3098732315	 1.9642151173	-0.1247002577	 0.106506
H	 2.4727354791	 0.7184551353	-1.0446352759	 0.110779
