18
gdb 81665	3.67133	1.33225	1.26107	4.8605	73.13	-0.241	0.05	0.2911	1064.2578	0.149015	-439.086429	-439.078899	-439.077955	-439.118366	29.766	
C	-0.2523154749	 1.3913868863	-0.0369683223	-0.434218
C	 0.0609024293	-0.0988424092	 0.0124090268	-0.013404
C	 1.3019035923	-0.5768476087	-0.7938063661	 0.106822
C	 2.1791536333	-0.2662518172	 0.4415289847	-0.280531
C	 0.8898795786	-0.5947871569	 1.232443555	 0.114825
O	 0.7571889089	-2.0194151722	 1.3288941328	-0.252736
C	 0.9393118558	-2.7258109582	 0.1853892089	 0.461831
N	 0.8446697283	-3.9822689379	 0.2084379487	-0.560579
O	 1.2192926135	-2.0050142125	-0.9433194655	-0.283245
H	 0.6254577137	 2.0178236976	 0.1474465391	 0.12236
H	-0.6541286033	 1.6662345247	-1.0175833579	 0.129852
H	-1.0054225518	 1.6487818075	 0.7147472092	 0.131261
H	-0.8434634281	-0.6845208874	-0.1764628753	 0.098728
H	 1.5320131445	-0.1771951479	-1.7814271008	 0.091909
H	 3.0515112052	-0.8987971106	 0.6132312605	 0.125863
H	 2.4543356123	 0.7864227487	 0.5071481412	 0.120055
H	 0.7160121335	-0.2045103879	 2.2348863933	 0.09521
H	 1.006621149	-4.353661558	-0.7248857822	 0.225997
