19
gdb 109316	2.42386	1.46057	0.99571	2.2416	79.17	-0.2062	0.0248	0.231	1205.2961	0.158081	-423.005527	-422.996604	-422.99566	-423.039722	33.084	
O	-0.0267092272	 1.4169730915	 0.0274420318	-0.414937
C	-0.0157774207	 0.0040681696	 0.1122482471	-0.186693
C	-1.4174955297	-0.5049175429	 0.0429828913	 0.244778
C	-2.5355823486	 0.2070183602	-0.0783205787	-0.215992
C	-3.7217642955	-0.7121883142	-0.1080636227	-0.134677
O	-3.177744382	-2.0279921059	 0.0083852265	-0.315797
C	-1.7702326477	-1.9478583746	 0.1032464505	 0.389599
C	-0.979072255	-3.0603720659	-0.5373097155	-0.32978
C	-1.086048504	-2.9711062723	 0.974317584	-0.329782
H	 0.8823908687	 1.7256866369	 0.0746204265	 0.291161
H	 0.5764153539	-0.4411675119	-0.7063975356	 0.101057
H	 0.4514777445	-0.3365545983	 1.0528577043	 0.101066
H	-2.5981604537	 1.283514912	-0.146389394	 0.118535
H	-4.4234690724	-0.5281064158	 0.7209621227	 0.105092
H	-4.2983286394	-0.6324773084	-1.0433641462	 0.105089
H	-1.5603189149	-3.8291333811	-1.0338835309	 0.126126
H	-0.0285289194	-2.8323804181	-1.0082878346	 0.109519
H	-0.2091545332	-2.6816508677	 1.544060555	 0.10951
H	-1.7375724035	-3.681221433	 1.4709871484	 0.126127
