18
gdb 17464	4.27179	1.95452	1.66006	2.9788	70.31	-0.227	0.0706	0.2976	833.734	0.156533	-343.948448	-343.941747	-343.940802	-343.978799	27.382	
C	-0.0241855552	 1.5208921352	 0.0013956838	-0.459003
C	-0.0222629437	 0.014372707	 0.0873435139	 0.327561
C	-1.3188629079	-0.7358514107	-0.261630041	-0.293007
C	-1.3103831486	-2.0199585628	 0.5617773743	-0.030778
N	-0.1945732566	-2.9395772564	 0.2583385531	-0.34609
C	-0.0985818935	-2.0295876279	 1.4230179663	-0.047245
C	 0.7055724232	-0.7746969616	 1.1324143688	-0.072186
N	 1.2576172006	-0.6423048619	-0.2222517863	-0.373989
H	 0.9502822258	 1.9165839112	 0.2977662362	 0.12776
H	-0.2205135509	 1.8550026699	-1.0243271006	 0.116883
H	-0.794041826	 1.9560245909	 0.6488547654	 0.107615
H	-2.1819789862	-0.1266567719	 0.0310373141	 0.102017
H	-1.4085252398	-0.9309277712	-1.3364686915	 0.111602
H	-2.2536830922	-2.4489532552	 0.8852569349	 0.088147
H	-0.4263332573	-3.8789880172	 0.570624893	 0.233347
H	-0.0903846744	-2.4511672725	 2.42167763	 0.085027
H	 1.281198761	-0.3265300396	 1.9367158537	 0.080807
H	 1.1023746518	-1.5267922254	-0.7069447181	 0.241531
