14
gdb 16716	6.24423	1.41577	1.26156	1.7049	72.32	-0.2333	-0.0354	0.1979	930.7946	0.106933	-345.361167	-345.354504	-345.35356	-345.391849	25.897	
C	 0.0723120167	-1.173142901	 0.0751146362	-0.412997
C	-0.0154233233	 0.0283975761	 0.0359429082	 0.223058
C	-0.0590970559	 1.4399443754	-0.0227962986	 0.178207
C	-1.16041383	 2.2146871062	-0.0451562822	-0.197649
C	-0.7850905726	 3.6543202424	-0.0090335517	 0.010346
O	-0.0534715613	 4.0211393821	 1.1869187472	-0.253185
C	 0.6884241024	 3.7099200109	 0.0086144242	 0.029962
C	 1.2162376726	 2.2834345233	-0.0385104811	-0.344402
H	 0.1325142858	-2.232463371	 0.1134173291	 0.195835
H	-2.1791326032	 1.8505736517	-0.0498097229	 0.110826
H	-1.4227299962	 4.4325998714	-0.4156438638	 0.100541
H	 1.2602644464	 4.5294900789	-0.4178753474	 0.099585
H	 1.8608520248	 2.0552214725	 0.8169471685	 0.137232
H	 1.801327574	 2.0980088511	-0.9468576457	 0.122643
