16
gdb 56608	2.63874	1.18189	0.89927	4.2415	65.08	-0.2846	0.0074	0.2921	1251.5408	0.123027	-474.996949	-474.988129	-474.987185	-475.030966	32.038	
O	 1.3979983787	 1.1019671703	-0.9966154199	-0.429015
C	 0.5241384098	 0.4519529198	-0.1072722316	-0.016804
C	-0.0696324395	-0.7140480948	-0.7757036965	 0.283298
N	-0.5488828906	-1.6578261013	-1.2381822836	-0.318225
C	 1.2934731566	 0.0121695174	 1.1729673762	 0.05588
O	 2.0330943563	 1.1255831419	 1.6338266747	-0.441749
C	 0.3557007863	-0.4985574346	 2.2519667886	 0.040018
C	 0.745876526	-0.4787283742	 3.6633192998	-0.184643
O	-0.1237161811	 0.5349616019	 3.1256864665	-0.249235
H	 1.9823506444	 1.6249609595	-0.4281156079	 0.300843
H	-0.3019380064	 1.1153569342	 0.2021438738	 0.122457
H	 2.0131148775	-0.7627125725	 0.8877865891	 0.126938
H	 1.4297337698	 1.6142617008	 2.2172208024	 0.301977
H	-0.4025062693	-1.2085734165	 1.9251340879	 0.134297
H	 0.2706253619	-1.1660181931	 4.3589589008	 0.136867
H	 1.7395066397	-0.1323740288	 3.9360572396	 0.137095
