20
gdb 64707	3.71577	1.08268	1.01669	1.7678	84.26	-0.23	0.0527	0.2827	1243.2667	0.169612	-365.935325	-365.926374	-365.92543	-365.968639	34.946	
C	 0.0147318895	 1.6165826842	 0.2064322216	-0.456198
C	 0.0216860058	 0.1001012289	 0.0632072934	 0.344002
C	-1.392100903	-0.470738533	-0.1753616835	-0.424278
C	-1.9915476388	-0.044797884	-1.4348339601	 0.311218
C	-2.4645631354	 0.3077319413	-2.4824683021	-0.445877
C	 1.0709351225	-0.5212738141	-0.942955017	-0.272974
C	 1.6781116816	-1.3012798148	 0.2253845469	-0.040056
N	 2.1435568443	-0.2817946517	 1.1993971793	-0.342037
C	 0.721710838	-0.6950992452	 1.1886466536	-0.096888
H	 1.0210301899	 1.9753796395	 0.432660217	 0.13665
H	-0.332655248	 2.0937011488	-0.7152542889	 0.124995
H	-0.6531743422	 1.930574194	 1.0177936512	 0.103453
H	-1.3460192638	-1.5678423265	-0.1507449947	 0.124039
H	-2.0428890475	-0.1734691596	 0.6585466485	 0.124765
H	-2.8927913719	 0.6172344567	-3.4033694747	 0.193795
H	 0.5972205073	-1.1463959071	-1.7026532675	 0.109151
H	 1.7502252857	 0.1861544081	-1.4241426643	 0.106025
H	 2.1191875448	-2.2903486118	 0.2112709481	 0.090815
H	 2.590681252	-0.7807492547	 1.9684062183	 0.226928
H	 0.2573386091	-1.109826329	 2.0770973348	 0.08247
