22
gdb 89888	4.54377	0.99908	0.96498	1.7519	86.08	-0.2265	0.0775	0.304	1334.7258	0.194884	-367.158297	-367.14992	-367.148976	-367.191249	33.288	
C	 0.0208006135	 1.6009405204	 0.0063130232	-0.408508
C	 0.0764924433	 0.0818118767	-0.0018409305	 0.059498
C	 1.1050018655	-0.6316691249	-0.9251001369	-0.311522
C	 1.3671780416	-1.6556114813	 0.2095664621	 0.377576
C	 0.7262092629	-0.655707652	 1.2039026301	-0.308646
C	 0.782920972	-3.0947610822	 0.1694244773	-0.235419
N	 2.0993183461	-3.7121046095	 0.5652997291	-0.125722
C	 3.0365139925	-3.3425661254	-0.5092144356	-0.24286
C	 2.7050924867	-2.3169255402	 0.5004551221	-0.117953
H	 1.0143432279	 2.0279109333	 0.1861337211	 0.110108
H	-0.3409007406	 1.9920345094	-0.9513759528	 0.114058
H	-0.6482699101	 1.9721196335	 0.7909023927	 0.114282
H	-0.9246306995	-0.3251123464	-0.1844478782	 0.072224
H	 0.75111365	-1.0186142772	-1.884952652	 0.092647
H	 1.9848988603	-0.0035589223	-1.1057954972	 0.096125
H	 1.4884531056	-0.0308533957	 1.6842951903	 0.095079
H	 0.0706715628	-1.0611906407	 1.9801542417	 0.097749
H	 0.0324444297	-3.2865744106	 0.9404457684	 0.109317
H	 0.4070062567	-3.4546754901	-0.7957200493	 0.097207
H	 3.9972517912	-3.8413455601	-0.4230480335	 0.118763
H	 2.6641215501	-3.2459973561	-1.5277248457	 0.108012
H	 3.4239955317	-1.9734775286	 1.2396742235	 0.087985
