20
gdb 90488	4.02918	1.12494	1.06247	1.1174	79.51	-0.2114	0.0769	0.2883	1225.1169	0.170365	-403.065309	-403.056848	-403.055904	-403.099345	32.225	
C	-0.0242799772	 1.3542624081	-0.2197673164	-0.400156
C	 0.0610226895	-0.1376606228	 0.0214003302	 0.141356
O	 1.1354903375	-0.7376421024	-0.7724726662	-0.301067
C	 1.8340443359	-1.1062324086	 0.4153995088	 0.045691
C	 0.736502356	-0.5689711928	 1.3243637893	-0.183821
C	 1.0323375535	-2.0467284138	 1.2797754556	 0.013472
N	 0.0715751506	-3.0301202429	 0.8403260049	-0.09922
C	 0.1966778923	-3.5673477555	-0.5214667777	-0.207933
C	 0.5886447725	-4.3886436463	 0.6487810246	-0.22488
H	 0.9287471019	 1.841021014	 0.0082263222	 0.121831
H	-0.2762492864	 1.5559851765	-1.2651984643	 0.126525
H	-0.8028483233	 1.795288001	 0.4127911625	 0.116366
H	-0.8957255533	-0.6298574941	-0.1894772107	 0.093529
H	 2.914592586	-1.0032809847	 0.4123713115	 0.096737
H	 0.7790073305	 0.0245764491	 2.2289472523	 0.093632
H	 1.5813789014	-2.3692687164	 2.163005507	 0.096402
H	-0.7467249291	-3.7499980606	-1.0283063161	 0.113636
H	 0.9850463199	-3.1717399605	-1.1516527673	 0.136861
H	 1.6537192321	-4.5528093336	 0.8044644081	 0.107647
H	-0.0533023704	-5.1858482538	 1.0130527916	 0.113391
