20
gdb 96684	4.14403	0.72327	0.64675	1.5782	79.8	-0.2458	0.0324	0.2782	1766.042	0.167783	-440.264167	-440.253634	-440.252689	-440.301825	35.715	
C	-0.0320595038	 1.4692998582	 0.0461295298	-0.326012
N	 0.0358202556	 0.0241308419	 0.068459179	-0.288434
C	 0.5562779651	-0.6109530236	-0.8945367058	 0.414501
C	 1.1712870597	-0.0857946445	-2.1724664729	-0.48791
O	 0.6179214653	-1.9652618427	-0.8695250188	-0.257943
C	 0.0634354063	-2.6090549745	 0.2800250926	-0.074614
C	 0.2679806063	-4.0861750113	 0.1092396542	 0.075913
C	-0.6393625472	-5.0498779236	 0.7424650182	-0.180915
O	-0.708037707	-4.7926965842	-0.6588803172	-0.227922
H	 0.4021310243	 1.9481169641	-0.8423143587	 0.100686
H	-1.0793675691	 1.7861273462	 0.1209797781	 0.125608
H	 0.4795682651	 1.8714579698	 0.9288768367	 0.124485
H	 2.0159375818	 0.574601411	-1.9556791485	 0.14318
H	 1.521427293	-0.9172986209	-2.7836116024	 0.144729
H	 0.4404169555	 0.4905830595	-2.7468863553	 0.145368
H	 0.5639744488	-2.2429061271	 1.1842021654	 0.116487
H	-1.0013370554	-2.3708945693	 0.3686016001	 0.120405
H	 1.2963154644	-4.3919971105	-0.0860581357	 0.09927
H	-0.2663542367	-6.0327568636	 1.0263466004	 0.116827
H	-1.4861312719	-4.6899592349	 1.3261648008	 0.11629
