20
gdb 121175	2.24147	1.23917	0.83993	1.4631	78.76	-0.2472	0.0257	0.273	1394.4721	0.169482	-440.26316	-440.253093	-440.252148	-440.299298	34.562	
C	 0.2669072089	 0.6824991815	-0.6716365917	-0.254861
O	-0.4641324733	 0.3229746354	 0.4902173152	-0.233583
C	-1.5823800672	-0.4925558375	 0.2538549247	-0.086079
C	-1.2494872735	-1.9842805295	 0.102742576	-0.173225
C	-2.4503166116	-2.9561502516	 0.0432850822	-0.101218
O	-2.0244976929	-3.4301450726	-1.2677262794	-0.263318
C	-0.9465348271	-2.5570865917	-1.2719984587	 0.46446
N	-0.0715016139	-2.3611714115	-2.1437067319	-0.323099
C	-0.1087743307	-3.1269469846	-3.3820884834	-0.341927
H	 1.0701907073	 1.3450825496	-0.3402582137	 0.12047
H	 0.6907144026	-0.1889213166	-1.1841238307	 0.150945
H	-0.3703997566	 1.2285971378	-1.3846941317	 0.09923
H	-2.2254051313	-0.383368365	 1.1360481163	 0.108123
H	-2.1553995613	-0.1439684136	-0.6210671295	 0.091913
H	-0.498035054	-2.2535673877	 0.8495981362	 0.116373
H	-2.4610929968	-3.768859172	 0.7732027891	 0.12304
H	-3.4372234083	-2.4864967306	-0.0139811199	 0.118267
H	 0.8239434198	-3.6931109092	-3.4808575479	 0.129198
H	-0.9518278175	-3.8237726725	-3.4513006183	 0.127832
H	-0.1531397825	-2.4346430079	-4.2299477729	 0.127457
