13
gdb 42750	2.81222	1.65167	1.33018	2.1053	71.14	-0.2549	-0.0204	0.2345	948.9275	0.087265	-419.356256	-419.348964	-419.348019	-419.387971	28.026	
O	-0.0677016462	-0.0387164306	-0.0916915143	-0.273514
C	-0.0549648344	 1.1367876589	-0.0767621335	 0.387921
C	-1.017386173	 2.3936100958	 0.0942606093	-0.107151
O	 0.0303574144	 2.9144087148	 0.9512154467	-0.292018
C	 1.0004741009	 2.3811377098	-0.0063264254	 0.199443
C	 0.5934994828	 3.0557962748	-1.3012047312	-0.129497
C	-0.7497509645	 3.065315603	-1.2308685025	-0.091365
C	 2.3604836556	 2.2837747202	 0.4202060405	 0.03585
C	 3.5065906916	 2.1566903996	 0.757912856	-0.307924
H	-2.0054093113	 2.3598981273	 0.5435763118	 0.114555
H	 1.2634774951	 3.3525946847	-2.0934226713	 0.136009
H	-1.4818159965	 3.3704096567	-1.9631398704	 0.132249
H	 4.5181181956	 2.048893455	 1.0639421144	 0.195442
