20
gdb 105307	2.35987	1.46168	1.12899	3.9353	82.54	-0.2737	0.0373	0.311	1170.5216	0.171135	-366.004111	-365.995328	-365.994384	-366.037349	33.615	
C	 0.0702048995	 1.5559496538	-0.0683567041	-0.395916
C	 0.0223398722	 0.0373013164	 0.1246903872	-0.241696
C	-1.3923212126	-0.5599260874	 0.0181417782	 0.146375
C	-2.1207936456	-0.5334968741	-1.3894446441	-0.287137
C	-2.2717443884	-2.0568233402	-1.3287663626	-0.025043
C	-0.9226234684	-2.7034822802	-1.2299432041	-0.303289
C	-1.5312851215	-2.1040955498	 0.007313869	-0.07638
C	-2.2574562672	 0.0129584934	 1.0490648148	 0.262294
N	-2.9318925005	 0.4655247317	 1.8726101919	-0.357632
H	 1.0985351245	 1.9203905512	 0.0085373209	 0.11954
H	-0.3124840278	 1.8456000218	-1.052876266	 0.12002
H	-0.5278464019	 2.0719128422	 0.688648591	 0.144694
H	 0.6530288448	-0.4516849718	-0.624733345	 0.103509
H	 0.4373131484	-0.2288559403	 1.1040705686	 0.114866
H	-3.0648755155	 0.0103628478	-1.357264766	 0.132698
H	-1.5136720524	-0.1454848237	-2.2135727853	 0.106178
H	-3.1556840544	-2.603542926	-1.6300159101	 0.097581
H	-0.9219336936	-3.788633499	-1.2412404247	 0.121881
H	-0.0574071415	-2.2579558703	-1.7135498125	 0.11195
H	-1.7412420782	-2.6932953154	 0.8909105828	 0.105508
