17
gdb 108550	2.78489	1.73289	1.28169	2.7752	67.14	-0.2403	0.0637	0.304	985.6264	0.136367	-458.885552	-458.878313	-458.877369	-458.917257	28.639	
O	 0.0345497349	 1.3953091957	 0.1073103167	-0.419615
C	 0.0300944063	-0.0105001432	-0.0708184025	-0.171518
C	-1.3647672455	-0.5625691194	-0.0031725159	 0.442682
O	-2.1965087743	-0.0053305956	-0.9980592838	-0.332546
C	-3.4788001766	-0.6250150479	-0.7464079239	-0.119244
C	-3.14959031	-1.5142455001	 0.4391334793	-0.094753
C	-1.7061269251	-2.0702485861	 0.2221086298	-0.022996
O	-1.3992602951	-1.9487141783	 1.6491702901	-0.316383
C	-2.1492456927	-0.7276956684	 1.3397447017	-0.007298
H	-0.585262538	 1.7535835187	-0.5383078542	 0.292466
H	 0.4920393835	-0.2991563315	-1.0280966388	 0.094652
H	 0.617828047	-0.447221178	 0.7405650897	 0.13185
H	-4.2254849834	 0.144949862	-0.5200884922	 0.114815
H	-3.800774032	-1.178324523	-1.6360055523	 0.114958
H	-3.9117345107	-2.145505551	 0.8911970685	 0.093726
H	-1.3738354476	-2.9643495066	-0.3054047205	 0.096466
H	-2.3364922606	-0.0163382674	 2.1428344784	 0.102737
