18
gdb 16988	3.78024	2.19175	2.08034	1.8325	71.5	-0.2427	0.0586	0.3013	756.7523	0.156425	-347.696427	-347.69046	-347.689515	-347.726028	25.461	
C	 0.0547919059	 1.5781944673	-0.1503515452	-0.201987
O	 1.5113839038	 1.5328459687	 0.1350649826	-0.32616
C	 1.1984911614	 0.3408585724	 0.9505370521	 0.157534
C	 1.3804777693	-1.218281541	 1.0247819511	-0.095291
C	-0.2365660841	-1.1456626915	 1.1045311184	-0.327095
C	 0.0099493777	 0.0445940333	 0.1060018938	 0.233648
C	 0.5924538227	-0.7222445384	-1.1155854582	-0.221428
C	 1.607501474	-1.6710967001	-0.4154252069	-0.206444
H	-0.460652309	 2.1978808334	 0.5922754389	 0.107248
H	-0.1430060767	 1.9392011567	-1.1631547437	 0.112547
H	 0.9504439425	 0.7082248672	 1.9542626886	 0.077256
H	 1.9563906598	-1.6967772623	 1.8191027189	 0.068633
H	-0.7725572503	-2.0273022853	 0.7413174567	 0.102751
H	-0.6004812295	-0.851410374	 2.0891397373	 0.112005
H	-0.1991458163	-1.2611598996	-1.6450814697	 0.091974
H	 1.082663985	-0.0506162392	-1.8213884156	 0.11206
H	 2.6361630167	-1.5012789558	-0.7441716365	 0.107276
H	 1.3795349373	-2.7316468918	-0.5548337126	 0.095472
