23
gdb 95831	2.75549	1.23066	0.96795	0.7507	82.45	-0.2365	0.0832	0.3197	1323.3493	0.205772	-425.432303	-425.422883	-425.421939	-425.466137	36.304	
C	 0.8668710716	 1.3818071566	 0.21583527	-0.395352
C	-0.1082853494	 0.267642417	-0.1704404531	 0.136316
C	 0.3500425252	-0.4928680789	-1.4292668622	-0.231125
C	-0.2757928543	-1.8824219987	-1.6002140871	-0.07626
O	 0.406317672	-2.885691463	-0.866820655	-0.259632
C	 0.1521455344	-2.9250405133	 0.5293406603	 0.129944
C	 0.9438485591	-4.1072308721	 1.0766158591	-0.401717
C	 0.5197860682	-1.6157027191	 1.2409611856	-0.09591
O	-0.3960727384	-0.577101395	 0.9440560524	-0.266918
H	 1.8525899229	 0.9754394586	 0.4672918637	 0.116347
H	 0.9999765109	 2.0843455681	-0.6139043001	 0.112833
H	 0.4909809704	 1.9334857671	 1.0816056259	 0.121336
H	-1.0831702658	 0.7222508538	-0.3868490935	 0.082727
H	 0.1098960243	 0.1266496136	-2.3020774073	 0.0984
H	 1.4391268374	-0.6213594643	-1.4321235868	 0.105072
H	-1.3445533564	-1.8643866457	-1.3353757715	 0.09427
H	-0.1951395837	-2.1914384375	-2.6473637825	 0.101385
H	-0.9267037123	-3.0846796858	 0.6979279508	 0.070193
H	 2.0194553521	-3.9371948156	 0.9626633889	 0.120615
H	 0.7263087813	-4.2657683265	 2.1368167507	 0.113952
H	 0.6857047074	-5.0157690061	 0.5273618241	 0.126884
H	 0.461315498	-1.7746531163	 2.3243863407	 0.101669
H	 1.5571336853	-1.3415637168	 1.0021392468	 0.094971
