19
gdb 54966	2.70024	1.13402	0.97159	0.9	78.48	-0.2526	-0.0461	0.2066	1286.3734	0.155681	-423.057037	-423.047049	-423.046105	-423.092302	35.5	
C	-0.3346230812	 1.4116033378	 0.167736428	-0.482949
C	-0.0252778707	-0.0461806076	-0.1100071943	 0.382395
O	 1.1031737099	-0.4307665558	-0.3395192114	-0.321723
C	-1.2002374523	-0.9725863741	-0.088970183	-0.142397
C	-1.11800171	-2.2891391589	-0.8011284317	-0.310438
C	-1.1224830285	-2.3028834747	 0.7088594388	 0.220634
C	 0.1132329064	-2.7040703276	 1.4859479878	-0.499757
C	-2.4300754739	-2.6809743013	 1.3297916875	 0.103742
O	-3.5150845969	-2.4115449684	 0.8730076636	-0.267506
H	 0.5848574335	 1.9973529943	 0.1540325064	 0.142888
H	-1.0310610277	 1.7984655736	-0.5852561601	 0.146076
H	-0.8312940589	 1.5161465379	 1.1391519921	 0.143105
H	-2.1798767114	-0.5094913796	-0.0428202033	 0.111859
H	-2.0148573863	-2.6357463122	-1.3012583154	 0.138438
H	-0.1700980583	-2.5101118123	-1.2794247736	 0.142846
H	 1.0177568439	-2.3556005293	 0.9880072618	 0.167117
H	 0.0987671076	-2.2877721664	 2.4994770394	 0.120459
H	 0.1658547298	-3.7948448781	 1.5746699332	 0.123788
H	-2.336702145	-3.2560313073	 2.2779420542	 0.081424
