16
gdb 133781	3.00803	0.96204	0.89288	3.5734	60.91	-0.2483	0.0029	0.2512	1335.8286	0.119556	-565.576678	-565.567106	-565.566162	-565.612357	34.004	
C	-0.1636799323	 1.6567734018	 0.2569496376	-0.367586
C	 0.1848685379	 0.1775563911	 0.0442160969	-0.16017
N	 0.7965114553	-0.3989063674	 1.2323616332	-0.264192
C	 0.0651036688	-0.9672063664	 2.0986293939	 0.196945
N	-1.2926904341	-1.2040204309	 2.0965605461	-0.561508
C	 0.773068592	-1.6008763346	 3.3003449988	 0.27023
F	 1.9130275192	-0.9941582207	 3.5874892633	-0.043159
F	-0.0175749308	-1.545076934	 4.3980685971	-0.098038
F	 1.0289364882	-2.8964467551	 3.0741455952	-0.069428
H	 0.7248275576	 2.2124826613	 0.5681827208	 0.137757
H	-0.546751373	 2.1000627073	-0.6673708968	 0.116513
H	-0.9236135948	 1.7807493553	 1.0359566821	 0.10928
H	-0.7071684044	-0.3764660681	-0.292211955	 0.083369
H	 0.9150587473	 0.0980036221	-0.7681242473	 0.115504
H	-1.8612469286	-0.6639010821	 1.4662178625	 0.266335
H	-1.7188449082	-1.4075621795	 2.9860108614	 0.268149
