22
gdb 64411	2.32451	1.71795	1.33701	1.2469	81.34	-0.2173	0.077	0.2943	1080.2793	0.194727	-404.324491	-404.315834	-404.31489	-404.357024	34.651	
C	 0.0192801744	 1.5376835551	-0.0390222222	-0.413583
C	-0.0190852109	 0.0080702413	-0.0387597856	 0.261403
C	-1.4638465494	-0.4972282809	 0.099235764	-0.398125
C	 0.586678775	-0.5464336416	-1.3441129279	-0.114
O	 0.7353513688	-1.9523316506	-1.2745607231	-0.241245
C	 1.7428167247	-2.3173142852	-0.3465630184	-0.108396
C	 1.5585347697	-1.6671384807	 1.0265138376	-0.032424
C	 2.1428271526	-0.3175524421	 1.2786011617	-0.257841
N	 0.7006323822	-0.4830605424	 1.1589858472	-0.096345
H	 1.0423638759	 1.9143354776	-0.138990144	 0.110004
H	-0.5710744641	 1.9392765934	-0.8690166795	 0.113314
H	-0.3948207069	 1.9251928238	 0.8963141871	 0.125866
H	-2.0921751125	-0.1061632637	-0.7080738259	 0.102846
H	-1.4887820548	-1.5887211191	 0.0522983055	 0.125741
H	-1.8833295656	-0.1797050469	 1.0569058196	 0.117398
H	-0.0833010273	-0.3432485661	-2.1850515614	 0.107834
H	 1.5567845215	-0.0691482024	-1.5667162774	 0.079756
H	 1.687018656	-3.4048449681	-0.2534943806	 0.113593
H	 2.7329992554	-2.0666590517	-0.7627729127	 0.091704
H	 1.4745975161	-2.363154569	 1.8587315888	 0.092946
H	 2.496597425	-0.0373706406	 2.2677850269	 0.112833
H	 2.7022411942	 0.13239331	 0.4597547002	 0.106721
