20
gdb 121079	5.46331	0.71048	0.64988	3.777	77.14	-0.2552	0.0315	0.2868	1685.7716	0.171653	-440.303153	-440.293921	-440.292977	-440.337908	33.579	
O	 0.043780481	 1.3983358419	-0.1911484139	-0.417413
C	 0.0719526553	-0.0092167332	-0.0241323608	-0.07918
C	-1.3707772461	-0.5032543659	-0.0374918275	-0.197843
C	-1.5000883378	-2.0208236511	 0.0843441443	-0.010989
C	-1.0218718952	-2.6071761797	 1.4250588614	-0.091371
O	-1.7318011951	-3.8441890232	 1.5860278857	-0.238432
C	-2.861084924	-3.8512082761	 0.8107070654	 0.408217
N	-3.6901787944	-4.8011982959	 0.7619651223	-0.541031
C	-2.9408579821	-2.5547717321	 0.0364371539	-0.320755
H	 0.94848668	 1.7238061593	-0.1769761018	 0.288111
H	 0.637703152	-0.49844643	-0.8345672918	 0.088221
H	 0.5604299204	-0.2859946795	 0.924760114	 0.088375
H	-1.9180892413	-0.0154551885	 0.7790818106	 0.108458
H	-1.8365133552	-0.1662482613	-0.9705686782	 0.115231
H	-0.9258324352	-2.5000338006	-0.7193949206	 0.087586
H	 0.0468825166	-2.8307961265	 1.4614600453	 0.118409
H	-1.2684629047	-1.9383301699	 2.2618091426	 0.108311
H	-3.4087446664	-5.5527216662	 1.3944331609	 0.220097
H	-3.6244962193	-1.8704809229	 0.5553100375	 0.128729
H	-3.3345640486	-2.7162921287	-0.9672491492	 0.137266
