15
gdb 33643	3.37527	1.50289	1.42691	4.5743	74.79	-0.2559	-0.0309	0.225	942.2992	0.114927	-379.63424	-379.627693	-379.626748	-379.6651	26.241	
N	-0.1015758084	-1.1234804333	-0.1945715652	-0.344377
C	-0.0688988014	 0.0257473185	-0.0645267171	 0.162503
C	 0.0135328353	 1.4405558191	 0.1054530586	 0.257453
C	-0.8995836241	 2.3233321072	 0.8787034456	-0.105594
C	-0.0711117348	 3.2000956558	 1.7468267355	-0.07701
C	 1.1996100759	 3.1718687278	 1.3268128654	-0.092413
C	 1.2804875332	 2.3585177024	 0.060297139	-0.178052
C	 0.4493785817	 3.1507718329	-1.0098989401	-0.144842
N	-0.8170122669	 2.4486022746	-0.6443444464	-0.183372
H	-1.8797951804	 1.971072244	 1.1735085224	 0.125055
H	-0.4821790124	 3.7925032959	 2.5530432286	 0.1162
H	 2.0193244729	 3.7722573632	 1.7006186994	 0.116339
H	 2.2437462796	 1.9467052295	-0.2297732366	 0.100929
H	 0.4260364591	 4.2403513584	-0.9233116609	 0.114464
H	 0.6975176307	 2.850926664	-2.0296677683	 0.132717
