20
gdb 31709	4.61838	0.84789	0.77279	1.4314	84.78	-0.1754	0.0439	0.2193	1557.219	0.170874	-403.177017	-403.167366	-403.166422	-403.212367	34.864	
C	-0.0800821222	 1.5898188943	-0.1262384588	-0.363828
C	-0.0300773585	 0.0775470965	 0.1483628889	-0.299631
C	-1.3717600008	-0.587067336	 0.060980301	 0.293393
C	-2.0629619679	-1.1684731953	 1.0718840403	-0.145669
O	-3.2662145329	-1.6620648121	 0.6144497197	-0.184624
C	-3.326208611	-1.3793368807	-0.708052332	 0.44596
N	-4.4290411894	-1.8679244434	-1.3846191135	-0.385109
C	-5.7160434512	-1.9049621871	-0.6963810455	-0.32885
C	-2.2033529988	-0.7157821167	-1.1112569733	-0.422819
H	 0.9191766048	 2.0326007917	-0.0641275734	 0.108132
H	-0.4789342232	 1.7975659912	-1.1241932589	 0.117008
H	-0.7246600877	 2.0957251824	 0.5992353193	 0.118867
H	 0.6591157694	-0.3920332952	-0.5658127093	 0.104683
H	 0.3943871135	-0.0985489152	 1.1433544162	 0.09962
H	-1.8732450784	-1.3105887316	 2.1221230312	 0.123163
H	-4.4852835889	-1.4849358083	-2.3171509799	 0.241816
H	-5.6300407379	-2.5234746241	 0.1987960487	 0.151671
H	-6.0827822062	-0.9125626984	-0.3928670524	 0.113811
H	-6.4524311538	-2.3648020382	-1.3594872842	 0.123317
H	-1.9878057688	-0.3651754639	-2.1085177541	 0.08909
