17
gdb 36702	3.76663	1.05369	0.91763	4.3546	72.55	-0.2379	0.0127	0.2505	1259.4475	0.136116	-417.950726	-417.942503	-417.941559	-417.984634	30.1	
N	 0.2708138013	-0.1372181599	 1.3953138382	-0.310732
C	 0.1362707009	 0.5714352312	 0.4927775143	 0.265502
C	-0.0469886854	 1.4809714456	-0.658424466	-0.202734
O	 1.0839199682	 2.2489428923	-0.9653305261	-0.231551
C	 1.3864958396	 3.2637776172	-0.0305578092	 0.158656
C	 2.2609596871	 2.9373382887	 1.2414930305	-0.257702
C	 3.2350651542	 4.0169193852	 0.7608942139	-0.051522
N	 3.743811957	 3.529673525	-0.5384328576	-0.3168
C	 2.4487316936	 4.2516530534	-0.487372683	-0.098709
H	-0.2702918667	 0.8751705757	-1.5419315779	 0.161412
H	-0.9272200126	 2.1110801174	-0.451908574	 0.136607
H	 0.4663974966	 3.7899270373	 0.2617656573	 0.07707
H	 1.7454424097	 3.1596377202	 2.1769328537	 0.109673
H	 2.6831467307	 1.9323211425	 1.2714452911	 0.13352
H	 3.793492475	 4.7258809774	 1.3579118205	 0.100607
H	 4.4317209976	 4.2056750473	-0.8705181506	 0.231398
H	 2.2925384532	 5.1526097534	-1.067476345	 0.095303
