17
gdb 19830	3.57109	2.23422	1.88043	1.4105	66.89	-0.2146	0.0562	0.2707	768.6908	0.143555	-363.777006	-363.77046	-363.769516	-363.80729	26.575	
O	 0.0923114868	 1.4632333558	-0.1411917898	-0.419748
C	 0.0455551099	 0.0603344561	-0.0178377382	 0.087144
C	 0.2800640312	-0.5820977964	 1.3885685291	-0.225953
N	-1.0736775659	-1.2331618412	 1.3418306964	-0.127312
C	-2.1952305851	-0.5123640525	 1.9908192372	-0.012954
C	-2.1426331631	 0.9878489598	 1.9039583988	-0.294412
C	-2.5624686444	 0.2072372092	 0.6886225644	-0.071089
C	-1.3874441453	-0.5374111962	 0.0446534409	 0.007583
H	 1.0146700036	 1.727967712	-0.2144339155	 0.286784
H	 0.6506027748	-0.4197290413	-0.7985676094	 0.074028
H	 1.0838995472	-1.3230368469	 1.4346572555	 0.099442
H	 0.4155086588	 0.1434006142	 2.1964472552	 0.106717
H	-2.8183051875	-1.0285650026	 2.713087485	 0.090192
H	-2.9660923196	 1.4774945273	 2.4158839557	 0.10943
H	-1.2181058982	 1.5507453567	 1.9097967299	 0.127099
H	-3.5298541064	 0.3366496189	 0.2205437092	 0.088811
H	-1.6757571168	-1.185328183	-0.7880453144	 0.074238
