18
gdb 22073	2.30754	1.3612	1.06618	1.9301	71.73	-0.2479	-0.0121	0.2358	1183.8373	0.144308	-476.162019	-476.152266	-476.151322	-476.196294	36.386	
C	-0.5892818301	 1.4817125562	 0.3376317222	-0.450813
C	-0.0388733754	 0.1061288504	 0.0008031227	 0.295954
O	-1.07562053	-0.8584064198	-0.1609812024	-0.467276
C	 0.9319710595	-0.0398244492	-1.2120293743	-0.268428
C	 1.8985784508	-0.902725827	-0.3459825864	 0.049113
O	 3.2479304444	-0.5134156527	-0.3921407506	-0.438066
C	 1.0977856777	-0.4453159689	 0.8613955519	 0.34542
N	 1.3196901692	-0.3370135867	 2.1018557318	-0.2567
O	 2.5611370468	-0.9422511957	 2.4299523404	-0.404508
H	 0.2123288841	 2.2220308157	 0.4080583345	 0.12521
H	-1.2974393614	 1.7961178617	-0.4349562673	 0.127141
H	-1.1112207186	 1.4627647432	 1.3008613972	 0.120261
H	-1.5213421437	-0.9518395224	 0.688839275	 0.28246
H	 0.4947892411	-0.5166353895	-2.089103267	 0.117126
H	 1.4047773842	 0.9062143826	-1.4813543476	 0.119647
H	 1.7706947697	-1.9781222544	-0.5384279803	 0.095332
H	 3.6317818117	-0.752283708	 0.4605264825	 0.297005
H	 2.6510384201	-0.7384372456	 3.3669755079	 0.311122
