17
gdb 7779	3.68625	1.75352	1.25508	2.2109	66.16	-0.2622	0.0163	0.2785	960.6181	0.143364	-401.019411	-401.011933	-401.010989	-401.051212	28.057	
C	 0.003980752	 1.5335146978	 0.0646195136	-0.408006
C	 0.0292874588	 0.0163799928	 0.0254663696	 0.109903
C	 0.6613609665	-0.5531086365	-1.2492471683	-0.261133
C	 0.9217798704	-2.0378018212	-1.1422999293	 0.364508
N	 0.8646357846	-2.8006092607	-2.148974305	-0.50144
O	 1.322113547	-2.4844631781	 0.0896851363	-0.250811
C	 0.7741658456	-1.8204195731	 1.2342217328	 0.012155
O	 0.8011329255	-0.4391728683	 1.1416936259	-0.233871
H	 1.0203622837	 1.932668788	-0.0057924868	 0.13071
H	-0.5828659992	 1.9258856593	-0.7709741395	 0.124139
H	-0.4409327855	 1.8843604622	 0.9993566259	 0.128933
H	-0.9966944193	-0.376149094	 0.1305947256	 0.077626
H	 0.046510191	-0.3682661242	-2.1317717471	 0.131854
H	 1.6283561617	-0.0563290809	-1.4004841131	 0.131935
H	 1.1104873697	-3.7552006314	-1.8765981102	 0.219824
H	-0.2579335057	-2.1847073115	 1.3745167353	 0.09472
H	 1.3994327432	-2.1153787203	 2.0781854144	 0.128955
