17
gdb 48778	3.51226	1.39517	1.23562	4.4895	72.7	-0.2336	-0.0327	0.201	1029.8074	0.136967	-417.960398	-417.953048	-417.952104	-417.992274	28.648	
O	 0.0445301888	-0.084008221	-0.2059191955	-0.253788
C	 0.1170535679	 1.028710434	 0.2500162371	 0.082123
C	 1.2986994855	 1.9240814144	 0.0936547266	 0.248928
C	 2.2331042482	 1.7266554342	-1.0616329604	-0.268956
N	 2.6589683501	 1.3008795252	 0.2608113365	-0.128822
C	 3.4927897018	 2.2612298877	 1.0272298895	-0.173288
C	 2.6482393267	 3.4861557076	 1.3586005214	-0.03513
N	 2.2180646031	 4.26001232	 0.1781900515	-0.338266
C	 1.2992420057	 3.2696631778	 0.7766013469	-0.146002
H	-0.7336053162	 1.4727011649	 0.8179240251	 0.065955
H	 2.0165211047	 0.9047186147	-1.7383087159	 0.133769
H	 2.6554630121	 2.6272826518	-1.4953547296	 0.145268
H	 3.7990835416	 1.7654056052	 1.9539503404	 0.117442
H	 4.394052299	 2.5131137148	 0.4597542848	 0.123119
H	 2.800166407	 4.0012571258	 2.3025311154	 0.097653
H	 1.9436698804	 5.1968480476	 0.4650942182	 0.23686
H	 0.3907479636	 3.6074586652	 1.2643255379	 0.093135
