17
gdb 76167	2.16243	1.47406	1.19868	0.6145	72.49	-0.2287	0.0198	0.2485	1111.2138	0.130805	-458.896078	-458.885922	-458.884978	-458.930235	37.889	
C	-0.0446494777	 1.5825513526	 0.0709747328	-0.435787
C	-0.0002863382	 0.0760023002	-0.0124515588	 0.264378
O	-1.174522506	-0.5318214936	-0.4744690732	-0.450586
C	 1.2924137339	-0.6558949179	-0.3171686855	-0.005894
O	 2.4957459947	 0.0234955313	-0.4410845951	-0.428201
C	 0.6766797834	-0.7295912937	 1.0905604926	 0.093576
O	 1.3753349365	 0.0594343425	 2.0365680603	-0.477592
C	 0.1096765265	-1.9406496534	 1.5984301347	 0.328778
C	-0.307784202	-2.9648645184	 2.071872165	-0.450872
H	 0.8960948452	 1.9983135029	 0.4319568721	 0.131309
H	-0.2367613381	 1.9980129911	-0.9249598894	 0.112997
H	-0.8503068832	 1.901362621	 0.7380464474	 0.132118
H	-1.2108985248	-0.407050165	-1.4299483324	 0.285182
H	 1.2236266905	-1.5426389648	-0.9409626856	 0.113615
H	 2.7125265959	 0.3445367166	 0.4471458098	 0.29083
H	 1.8078391319	-0.5504706538	 2.6450481086	 0.297668
H	-0.7032818885	-3.8627543377	 2.4781765766	 0.19848
