19
gdb 69930	3.36826	1.55074	1.33564	1.6585	79.71	-0.2338	0.0278	0.2616	1021.9423	0.15997	-385.86867	-385.861161	-385.860217	-385.900294	30.183	
C	-0.0901239325	 1.5506678645	 0.0854438767	-0.505821
C	 0.1344648551	 0.076180655	 0.0088205027	 0.416203
O	-0.75315315	-0.7858725034	 0.7311466763	-0.278053
C	 0.6553723853	-0.9154600692	 0.9681822588	-0.063581
C	 1.2385384224	-1.8032850971	-0.1483187516	-0.050187
C	 0.5307807312	-3.1403258371	-0.462955905	-0.2747
C	-0.3553754346	-2.8003981383	-1.6435921191	-0.048311
C	-0.2540144045	-1.5321970942	-2.0449842408	-0.07083
C	 0.7008673416	-0.7547802422	-1.1910130141	-0.144148
H	 0.7940817076	 2.0967709442	-0.2593215467	 0.122473
H	-0.9357575435	 1.8490375699	-0.5449315448	 0.130866
H	-0.3111740591	 1.851900893	 1.1131326869	 0.133224
H	 0.9912501603	-0.8027797663	 1.9942158748	 0.094111
H	 2.326474955	-1.8754022707	-0.1030307596	 0.073816
H	 1.2409683579	-3.9397034758	-0.7090555427	 0.098909
H	-0.0623562232	-3.4990638618	 0.3875538628	 0.114232
H	-1.0067995834	-3.5407897942	-2.0973702927	 0.089547
H	-0.8104239496	-1.095697888	-2.8672604298	 0.090341
H	 1.4692818639	-0.1998487583	-1.738333902	 0.071909
