19
gdb 34046	3.12061	1.30772	1.08651	5.5173	79.54	-0.2627	0.0232	0.2859	1150.5904	0.162477	-382.080708	-382.072877	-382.071932	-382.112965	30.714	
N	 0.0192617218	-1.1477191975	 0.0703390931	-0.344877
C	 0.0179888364	 0.0086497481	 0.0713079	 0.266577
C	 0.004781909	 1.4563714108	 0.0201957329	 0.139199
C	-1.21848712	 2.0630024902	-0.6811054558	-0.292953
C	-0.871014876	 3.2118630702	-1.6409510941	-0.189882
C	 0.1404632625	 4.1885202089	-1.0333555058	-0.224143
C	 1.4742031196	 3.479084008	-0.7575750202	-0.227575
C	 1.3251723381	 2.1807602343	 0.0101512571	-0.028171
N	 0.5458356432	 2.0982668346	 1.2446810123	-0.344547
H	-1.7426142311	 1.2726712837	-1.2249674915	 0.1308
H	-1.9168449717	 2.412568813	 0.0903083422	 0.11746
H	-0.4477744493	 2.7959149752	-2.5642675506	 0.109188
H	-1.7911141115	 3.7325265663	-1.9250831668	 0.105281
H	 0.314670561	 5.0302653871	-1.7106408458	 0.108873
H	-0.2656378191	 4.6242573637	-0.1101441287	 0.098668
H	 1.9625306754	 3.2490825754	-1.713168304	 0.116041
H	 2.160391379	 4.1377916005	-0.2112839148	 0.113662
H	 2.2220360834	 1.5660002232	 0.041443726	 0.11365
H	 0.0341229894	 2.9636773642	 1.4079086344	 0.232748
