16
gdb 17949	3.25492	2.29631	2.09968	1.0367	62.99	-0.2213	0.0703	0.2916	737.2545	0.131864	-383.69861	-383.692257	-383.691313	-383.72868	25.67	
O	-0.0739307869	 1.414059318	-0.0536602901	-0.463903
C	 0.0333917263	 0.040781051	-0.027587316	 0.342267
C	-1.053419795	-1.0217104994	 0.0698206749	-0.1453
C	-0.4664034724	-1.7818157278	-1.1187171733	-0.225966
C	 0.815942345	-0.8912415679	-1.0119608447	-0.138691
C	 1.8392737812	-1.555979637	-0.0934629167	-0.083839
O	 1.1226962452	-1.7833308136	 1.1326051803	-0.268894
C	 0.0390346417	-0.8788902211	 1.1377178891	 0.02136
H	 0.6423009777	 1.7894847226	 0.4706523041	 0.287873
H	-2.1010892725	-0.9129886941	 0.3262568794	 0.08926
H	-0.3170977435	-2.8598081124	-0.9989362045	 0.101087
H	-1.0223829379	-1.5898362357	-2.0391285243	 0.106617
H	 1.2118327324	-0.4628757178	-1.9315947998	 0.080355
H	 2.1991465309	-2.5234849042	-0.4579015556	 0.109071
H	 2.7077105618	-0.9012047451	 0.086250571	 0.084776
H	-0.2587037041	-0.5464794055	 2.1251639762	 0.103928
