18
gdb 13665	5.3589	0.9142	0.83431	4.2449	73.52	-0.2423	0.0369	0.2792	1360.2664	0.153195	-343.972321	-343.963579	-343.962635	-344.006301	30.988	
C	-0.0317545931	 1.5155518894	-0.3723189914	-0.414441
C	-0.002576568	 0.0407393332	-0.0348760522	 0.028136
C	 1.2735899337	-0.7293523484	-0.0102684783	-0.259864
N	 0.5290169679	-0.4850467453	 1.2258902401	-0.085251
C	 1.11109708	 0.4228502435	 2.2003131456	-0.138763
C	 1.869952818	-0.4139214099	 3.2488058552	-0.330564
C	 2.471458732	 0.4143146756	 4.2897145802	 0.252042
N	 2.9395089653	 1.0882466264	 5.1034724944	-0.30573
H	 0.9076717721	 2.0208542285	-0.1357965813	 0.124114
H	-0.2144263864	 1.6440031728	-1.4441667496	 0.128595
H	-0.8390642635	 2.02782642	 0.162483258	 0.128257
H	-0.8978773991	-0.4939738811	-0.3498096609	 0.096622
H	 1.3175499574	-1.761209713	-0.3480751338	 0.118823
H	 2.1902222293	-0.1604339379	-0.1678828409	 0.109313
H	 1.8008808864	 1.1649708679	 1.7702366105	 0.10639
H	 0.3047874419	 0.9743047511	 2.6953617467	 0.125975
H	 1.1826044141	-1.1334071891	 3.7046410729	 0.162486
H	 2.658804652	-0.9944660939	 2.7574126449	 0.153861
