15
gdb 125487	3.01885	1.32419	1.0442	3.108	70.61	-0.2698	-0.012	0.2578	1120.1117	0.11399	-413.026892	-413.018644	-413.0177	-413.06096	28.602	
C	 0.1545071741	 1.4622412	 0.0983340634	-0.515317
C	 0.0435806318	-0.0200112959	-0.0078372263	 0.362973
N	-0.0309581617	-0.7271695545	-1.1215441007	-0.305592
C	-0.1063200627	-2.0114139514	-0.6742845547	 0.030665
N	-0.0844170182	-2.15493268	 0.6370222202	-0.248766
N	 0.0079274258	-0.8629578981	 1.0586362519	-0.004406
C	 0.069939685	-0.5745810075	 2.4758014844	-0.281802
C	 1.3922114357	-0.1012745224	 2.9089567821	 0.276989
N	 2.4219619238	 0.295762517	 3.2482756375	-0.293883
H	 1.0796037081	 1.7612838351	 0.6024929478	 0.164675
H	 0.1507290167	 1.8833711141	-0.907089978	 0.169076
H	-0.6838243059	 1.8924697909	 0.6581654808	 0.140378
H	-0.1825160435	-2.8624073989	-1.3344539793	 0.13392
H	-0.6782116085	 0.1786166816	 2.7455725444	 0.17471
H	-0.1787635506	-1.5015873801	 2.9965850863	 0.196378
