21
gdb 38061	3.32155	1.41137	1.2439	0.19	87.75	-0.2226	0.0193	0.2419	1099.9607	0.184761	-349.94187	-349.934351	-349.933407	-349.973636	31.123	
C	-0.1179224762	 1.4149456745	 0.0611958069	-0.291428
C	 1.212008261	 0.7193922201	-0.1740605303	-0.088169
C	 2.0751218911	 0.5995454062	 1.0360951619	-0.086451
C	 1.4927147697	-0.147235581	 1.9785131097	-0.178578
C	 0.1717805466	-0.7214508495	 1.5356489594	 0.351089
C	-0.0047686686	-2.27857801	 1.5485994255	-0.2725
C	-1.4455476591	-2.0925808454	 2.0889966782	-0.211341
C	-1.0641490035	-0.6447258535	 2.4940430265	-0.260837
C	-0.0323266837	-0.0866577695	 0.1563298198	-0.101532
H	-0.226265928	 1.9963348024	 0.9714275716	 0.111043
H	-0.631697453	 1.8234029499	-0.8033861667	 0.105972
H	 1.6503050063	 0.7430795242	-1.1657190443	 0.083861
H	 3.0314733347	 1.1019910456	 1.1305724389	 0.093265
H	 1.8884367195	-0.3305564453	 2.9723594562	 0.086175
H	 0.1284546151	-2.7930706638	 0.5927409928	 0.095583
H	 0.6533573228	-2.7461288642	 2.2871427243	 0.095843
H	-2.1911672171	-2.1102615217	 1.2891991568	 0.10175
H	-1.7765703161	-2.7675507452	 2.8815394526	 0.094042
H	-0.7546529823	-0.5836552732	 3.5419782282	 0.0949
H	-1.7849465351	 0.152806158	 2.2958998051	 0.096657
H	-0.5343415939	-0.6681530985	-0.6092987128	 0.080655
