18
gdb 78796	2.15492	1.89198	1.65898	2.6317	75.38	-0.2104	0.006	0.2164	955.5702	0.146307	-401.903355	-401.895153	-401.894208	-401.935681	31.627	
C	 0.0195152268	 1.5191964944	 0.0586255353	-0.344894
N	 0.0779017956	 0.0619920654	-0.0007057726	-0.118009
C	 0.7790489407	-0.5566772205	-1.1256017576	-0.01583
C	 2.3036824206	-0.5295846641	-0.8755901579	-0.22051
C	 1.3601265506	-1.6287249255	-0.2949107126	-0.16187
C	 1.0563454577	-0.6324583082	 0.896965582	 0.199041
C	 0.6704937493	-0.9293668179	 2.3143412827	-0.512738
C	 2.451774871	-0.0394748443	 0.5264676563	 0.406498
O	 3.3661285521	 0.3730664451	 1.1860597645	-0.347722
H	 0.9962316269	 2.0144912484	-0.0681085988	 0.115002
H	-0.6537634517	 1.8791233939	-0.7256465813	 0.123968
H	-0.3979916427	 1.8246866694	 1.0226561949	 0.127853
H	 0.3806912277	-0.5882566547	-2.1330492742	 0.109794
H	 3.0456959623	-0.6343347314	-1.6545060787	 0.112177
H	 1.4412249078	-2.7015219219	-0.3667216096	 0.124679
H	 1.4691839344	-1.477985136	 2.8220281365	 0.1358
H	 0.5112119073	 0.0029483831	 2.8660449174	 0.1362
H	-0.2517902563	-1.5148041652	 2.356460574	 0.130559
