20
gdb 6503	3.55919	1.31309	1.10731	2.8061	71.29	-0.2588	0.0659	0.3247	1146.2479	0.174503	-386.126427	-386.117097	-386.116153	-386.160315	34.575	
C	-0.0491554371	 1.5688038583	 0.2024319804	-0.404598
C	-0.0931743882	 0.042550732	 0.1199927503	 0.141248
O	-0.044451956	-0.3920305081	-1.2398218839	-0.425993
C	 0.9996479956	-0.6111872228	 0.9845213839	-0.281775
C	 0.8205445296	-2.1087028379	 1.1874174314	 0.433797
C	 1.0820573612	-3.0178754585	 0.0055127605	-0.468602
C	 0.9371338095	-2.6544861954	 2.5496673584	-0.230356
O	-0.3476919485	-2.440683096	 1.9607626644	-0.277075
H	 0.9279922612	 1.9502036292	-0.1219102502	 0.103772
H	-0.8160220497	 2.001412445	-0.4456594019	 0.125665
H	-0.219589898	 1.918971764	 1.2253064689	 0.119239
H	-1.0642678172	-0.3106171544	 0.4838344869	 0.112286
H	 0.7699545637	-0.0502729787	-1.6260195	 0.274365
H	 1.9840849569	-0.4104301276	 0.5376653206	 0.085464
H	 0.9934982202	-0.1241037251	 1.9657884335	 0.099597
H	 2.1293613127	-2.9427722057	-0.3094202266	 0.108679
H	 0.8761052294	-4.0571086651	 0.2741617572	 0.11843
H	 0.4550152203	-2.7337218761	-0.8417191974	 0.153018
H	 1.2172966349	-3.6983112852	 2.6902768623	 0.107823
H	 1.1866530295	-1.9964836921	 3.3819736413	 0.105016
