16
gdb 66909	2.769	1.98718	1.35054	4.231	77.32	-0.2363	-0.083	0.1533	931.8775	0.123391	-400.640456	-400.633094	-400.63215	-400.671998	29.032	
C	 0.0532871592	 1.4923223498	-0.0544376378	-0.48785
C	-0.0650572153	 0.0029998946	 0.147186375	 0.20118
C	-0.8504298081	-0.8057143186	-0.9834683884	-0.057954
N	-0.7012234892	-2.3462446552	-0.9652399203	-0.356372
C	-0.749496863	-2.0985647476	 0.4896092676	 0.094498
C	 0.4207582756	-2.1073504316	 1.167022148	-0.219903
C	 0.923008817	-0.6893677525	 1.0801933729	 0.340819
O	 1.9693141782	-0.2297053371	 1.464823775	-0.328164
C	-1.3872901326	-0.7178181973	 0.3842152217	-0.187696
H	 0.9901802572	 1.7288725529	-0.5676805169	 0.146844
H	-0.7749587494	 1.8946571813	-0.6446836661	 0.116553
H	 0.0708520986	 2.0085135755	 0.9103816977	 0.139505
H	-1.1295177643	-0.3127890538	-1.910538872	 0.115897
H	-1.6183878416	-2.6479715875	-1.3103129297	 0.233013
H	 1.1470753468	-2.9098886133	 1.099923991	 0.132753
H	-2.284346319	-0.3033547697	 0.8257598922	 0.116879
