17
gdb 66675	4.37421	1.19146	1.16333	3.4732	78.68	-0.2306	-0.0227	0.2079	1106.3486	0.133967	-384.59721	-384.58934	-384.588395	-384.629586	29.979	
C	-0.0465066182	 1.5155892917	-0.0655328571	-0.523565
C	-0.0072768798	 0.025319912	 0.0014767622	 0.354571
C	-0.0367469721	-1.0208049057	-1.1060605297	-0.1473
C	 0.8232312948	-1.9715166629	-0.2243105481	-0.117986
C	 0.8573589401	-0.9518807253	 0.8668597879	-0.187392
C	-0.3059832899	-1.9716592384	 0.8344067232	 0.292221
C	-0.5771042232	-3.0119038079	 1.8173343098	 0.00269
O	 0.2856484351	-3.6464137392	 2.3877073129	-0.283961
C	-1.1340420928	-1.0007876992	-0.0463104383	-0.244357
H	 0.9291775291	 1.9307109032	-0.3433982505	 0.126683
H	-0.7744241427	 1.8459903025	-0.8145275072	 0.125932
H	-0.3367751492	 1.9537292773	 0.8963935724	 0.126834
H	-0.1077773909	-0.8907348283	-2.177381258	 0.095133
H	 1.4916173054	-2.7951089835	-0.4344866479	 0.112681
H	 1.5565764377	-0.8179184945	 1.6814240164	 0.110294
H	-1.6566780658	-3.1966617371	 2.0201449089	 0.065518
H	-2.2000148975	-0.8493906347	-0.157628007	 0.092003
