16
gdb 10568	2.58672	1.88538	1.31209	1.1487	78.35	-0.2349	0.0298	0.2647	978.8897	0.127118	-309.389892	-309.381211	-309.380267	-309.422473	32.653	
C	-0.0945779821	 1.5203672528	-0.0307522794	-0.414117
C	 0.0276647717	 0.0164633849	 0.0032972623	-0.022525
C	 1.3319657315	-0.6707550614	-0.2264728837	-0.311373
C	 0.722182581	-0.6970631046	 1.1871450741	-0.010236
C	 1.3532769952	 0.1029333302	 2.2058295373	 0.271639
C	 1.8797003924	 0.7714351632	 3.0554562157	-0.467
C	 0.1414544821	-1.936809432	 1.6373693892	 0.259197
C	-0.3521712531	-2.9723325105	 1.9972792134	-0.450529
H	 0.7911040074	 2.0011335474	 0.391660016	 0.133436
H	-0.2136470715	 1.8674912093	-1.062852867	 0.121398
H	-0.9640318595	 1.8581085875	 0.5420813472	 0.12846
H	-0.8490136812	-0.5233884707	-0.3414462398	 0.108997
H	 1.349266767	-1.6144533218	-0.7583400756	 0.132923
H	 2.2193052674	-0.0580058573	-0.3401900161	 0.131312
H	 2.3437485693	 1.3532148795	 3.8127948624	 0.194637
H	-0.7841171774	-3.8847044465	 2.326185934	 0.193781
