13
gdb 10445	2.93044	1.77313	1.29021	3.7904	63.76	-0.2796	-0.0027	0.277	929.3516	0.09314	-361.409611	-361.401738	-361.400794	-361.442234	27.989	
C	-0.0907097831	-1.1420897719	 0.3727996819	-0.421669
C	-0.0495608162	 0.0232550179	 0.0877551808	 0.307881
C	 0.0195556459	 1.4366132539	-0.2601729618	-0.433794
C	 1.4262982508	 2.0146492503	-0.1304651399	 0.251665
C	 1.6293451291	 3.4191414955	 0.2784000334	-0.209207
O	 1.8542235715	 2.3453909101	 1.188444239	-0.2362
C	 2.4413046589	 1.3942501223	-0.9677274875	 0.273934
N	 3.2314694495	 0.910937223	-1.658108048	-0.323489
H	-0.1267129439	-2.1736376342	 0.6233205432	 0.209496
H	-0.3290437005	 1.5892265701	-1.2894392947	 0.153941
H	-0.6367275764	 2.0220583223	 0.3932074438	 0.149661
H	 2.51847588	 3.9497636646	-0.0540411911	 0.145606
H	 0.7527270645	 4.0328551161	 0.4793691708	 0.132177
