20
gdb 120268	3.22627	1.09954	0.97613	2.3607	75.67	-0.2278	0.0711	0.2989	1300.3364	0.170488	-440.227135	-440.218129	-440.217185	-440.261302	33.697	
C	-0.0171386197	 1.4805687083	-0.012958893	-0.384862
C	 0.2357440296	-0.0160887535	 0.0375437887	-0.041854
O	 0.4073178062	-0.4834465389	-1.2948287825	-0.254243
C	 0.6225132531	-1.8571617525	-1.3790682432	 0.127961
C	 0.8126989758	-2.3982213692	-2.787077561	-0.10964
N	 2.0792721346	-1.822289444	-3.3046715694	-0.348911
C	 2.1248066709	-3.014524707	-2.4267284032	-0.074169
C	 2.0746767495	-2.4144683381	-1.0126358912	 0.092712
O	 3.0485065013	-1.4606945155	-0.7090544571	-0.433201
H	 0.8325991066	 1.9968328253	-0.4684963848	 0.127646
H	-0.9094480148	 1.7011074272	-0.6059861067	 0.122855
H	-0.1627877493	 1.8765249267	 0.9966185341	 0.112805
H	 1.132302314	-0.2407061218	 0.630166839	 0.112838
H	-0.616585259	-0.5366644436	 0.5067430495	 0.079634
H	-0.1516886964	-2.4230186474	-0.8370854352	 0.061295
H	 0.0491868347	-2.749912319	-3.4694994348	 0.096762
H	 2.1881842139	-2.1374390325	-4.2667735434	 0.235804
H	 2.5709939398	-3.9428075188	-2.7607442042	 0.09483
H	 2.0611891737	-3.1517799537	-0.2078420105	 0.08535
H	 3.0784492255	-0.8814212018	-1.484508821	 0.296389
