19
gdb 113990	3.04764	0.94873	0.85439	2.6691	76.95	-0.2541	0.0231	0.2772	1407.7802	0.156946	-422.952547	-422.942822	-422.941878	-422.988204	35.422	
O	-0.2358230395	 0.7712807825	 1.0283324431	-0.427652
C	-0.0142494131	 0.1518184553	-0.227764988	-0.069928
C	-1.1951980911	-0.6942656544	-0.6645761864	-0.07168
C	-0.9540317989	-2.0312721828	-1.3406885053	-0.325302
C	-1.462557274	-1.9688529513	 0.0758695585	 0.118295
O	-0.6024355083	-2.232728252	 1.1528656101	-0.245716
C	-0.5635376669	-3.592245039	 1.5627906406	-0.225738
C	 0.1702508253	-4.4786585692	 0.6574504362	 0.325589
C	 0.7837279888	-5.2209777431	-0.0612961221	-0.464169
H	-0.3346410967	 0.050411335	 1.6612290348	 0.289406
H	 0.151649818	 0.9623009874	-0.9450898926	 0.10628
H	 0.8955701345	-0.4645590925	-0.21146952	 0.091447
H	-2.0733577056	-0.1298842073	-0.9637164311	 0.094092
H	-1.631440611	-2.3651239774	-2.1188682554	 0.113567
H	 0.0780841828	-2.333439366	-1.4747334844	 0.130325
H	-2.4965065973	-2.2564237928	 0.268195378	 0.088541
H	-0.0792226572	-3.5894085067	 2.5449235758	 0.142462
H	-1.5864489953	-3.9744922351	 1.7032394294	 0.12492
H	 1.3219994256	-5.8764022906	-0.7007393011	 0.205261
