19
gdb 97465	12.36878	0.42603	0.4161	4.9974	82.7	-0.2587	0.0152	0.2739	2517.3876	0.157074	-419.217363	-419.206743	-419.205799	-419.25533	35.19	
C	-0.0086799826	 1.3841174199	 0.0382957759	-0.316352
N	 0.0687318691	-0.0602614487	 0.0950617599	-0.199303
C	 0.5239740026	-0.6571092487	-0.9115619189	 0.131687
O	 0.6225959017	-2.0049544901	-0.9251838355	-0.206048
C	 1.1555242379	-2.578807357	-2.1133897512	-0.079235
C	 1.1701085445	-4.0888900355	-1.9211272317	-0.196248
C	 1.7351077636	-4.8046295226	-3.1624122567	-0.345165
C	 1.7607264151	-6.2567635812	-3.0048187103	 0.260702
N	 1.7765674671	-7.4040035525	-2.8698065639	-0.296723
H	 0.5775023751	 1.8152416191	 0.8576648682	 0.131178
H	 0.3513079916	 1.8166649047	-0.9098020166	 0.095886
H	-1.0464671411	 1.7019696026	 0.1893505722	 0.131191
H	 0.8695030266	-0.1651176596	-1.8351865795	 0.072743
H	 0.5359348974	-2.304980783	-2.9799969266	 0.110175
H	 2.1727856475	-2.2020410014	-2.295351875	 0.110251
H	 1.772426028	-4.3344446635	-1.0417188048	 0.141749
H	 0.1526762557	-4.436520967	-1.7200499	 0.141649
H	 1.1365304668	-4.5648845311	-4.0494592723	 0.155915
H	 2.7559374336	-4.4626870043	-3.3712319234	 0.155947
