20
gdb 80098	2.17529	1.79923	1.36954	2.5552	79.97	-0.2136	0.0073	0.2208	1038.7613	0.172049	-403.120867	-403.112476	-403.111532	-403.153443	32.946	
C	-0.1656258561	 1.4535823176	 0.0020652835	-0.322403
N	 0.0146269613	 0.0080375865	 0.0209619089	-0.097191
C	 1.3186184097	-0.6328441912	-0.2672704293	-0.08362
C	 2.5668347347	 0.1543246381	-0.4147741004	-0.049941
C	 3.0613353231	 0.9308587886	 0.5522511158	-0.074192
C	 2.3905856681	 1.0941171424	 1.8884194274	-0.316447
C	 1.4203370633	-0.0490871122	 2.2560869617	 0.106872
O	 0.4236906898	 0.3943799759	 3.1771947817	-0.436331
C	 0.6928688235	-0.6925719245	 1.092121045	-0.029118
H	 0.7657620477	 2.0299316473	-0.0683137037	 0.111121
H	-0.7818005358	 1.7128464712	-0.8655144054	 0.116084
H	-0.6988407817	 1.7561479764	 0.9074723515	 0.136637
H	 1.2321477419	-1.4927015767	-0.9278935335	 0.0857
H	 3.0797151554	 0.0849478508	-1.3701012596	 0.090293
H	 3.9723826319	 1.4983026148	 0.3811830388	 0.092458
H	 3.1461729834	 1.1970248826	 2.6783772953	 0.097695
H	 1.816367539	 2.0297668721	 1.9043343761	 0.125185
H	 2.0092882593	-0.8618521082	 2.7132569195	 0.072767
H	 0.8696892016	 0.6969225441	 3.9751592044	 0.281378
H	 0.1845310697	-1.6088006554	 1.3917333621	 0.093055
