15
gdb 48292	2.12831	1.11173	0.88105	3.0481	72.14	-0.271	-0.0617	0.2093	1325.3508	0.109739	-416.765726	-416.75601	-416.755066	-416.80246	32.943	
O	-0.2637351255	 0.2625795075	-0.6614743691	-0.224113
C	 0.0419917078	 1.2109302377	 0.0035338324	 0.163043
C	 1.2352337861	 2.124893212	-0.3536309924	-0.190021
N	 0.6496324704	 3.3675908697	-0.8678320168	-0.296004
C	 1.6292737502	 4.4029760404	-1.2405449907	-0.325014
C	 2.5697019321	 4.0028357532	-2.2908058146	 0.304648
C	 3.3143652586	 3.625001534	-3.1559289795	-0.450632
C	 2.0184392925	 2.3866813592	 0.8591680189	 0.293999
N	 2.6238803052	 2.5631555212	 1.8272184645	-0.312163
H	-0.5327116059	 1.5422896464	 0.8908954401	 0.121418
H	 1.8729026619	 1.5925482939	-1.0752949491	 0.141015
H	 0.1033379861	 3.124886301	-1.6898692593	 0.245173
H	 1.0619916725	 5.2838144602	-1.5595016065	 0.149265
H	 2.1765613326	 4.6952103338	-0.3374868403	 0.169109
H	 3.9825790753	 3.3091394997	-3.9191153777	 0.210278
