20
gdb 11898	4.53551	1.43698	1.22793	0.3092	81.31	-0.2241	0.0362	0.2603	1060.7103	0.177501	-311.879055	-311.87116	-311.870215	-311.911507	30.646	
C	-0.3416297023	 1.4523101887	 0.0889501671	-0.490352
C	-0.0064982912	-0.0027798641	-0.003225496	 0.340625
C	-0.1156242383	-0.7922007331	-1.0739963163	-0.162478
C	 0.344264866	-2.2046112765	-0.8189977185	-0.338211
C	 0.5960993882	-2.2168641896	 0.6984130498	 0.381995
C	 0.0102083764	-3.3132997851	 1.5527265443	-0.303361
C	 1.5027065032	-3.2335366057	 1.3366787981	-0.31244
C	 0.5560998972	-0.7597962088	 1.1815275036	-0.383515
H	 0.5373304816	 2.0449405127	 0.374654253	 0.122299
H	-0.7182681699	 1.8415271853	-0.861041435	 0.120957
H	-1.1020691615	 1.6375057908	 0.8586616753	 0.122446
H	-0.4722123008	-0.4635147684	-2.0451017329	 0.07986
H	-0.4003338424	-2.9526543932	-1.121698225	 0.09981
H	 1.2565924826	-2.4339081197	-1.3899737139	 0.101236
H	-0.3790300764	-3.0475151868	 2.5308947892	 0.105728
H	-0.5355954629	-4.1110249225	 1.058210744	 0.106397
H	 1.9671045239	-3.9780468997	 0.6972541712	 0.106086
H	 2.1234574648	-2.915923541	 2.1689202193	 0.105604
H	 1.5560752667	-0.3801632753	 1.4420938487	 0.099785
H	-0.0593613449	-0.6345423779	 2.0828820539	 0.097528
