21
gdb 59395	2.86349	0.95324	0.93736	1.8112	86.15	-0.2564	0.0291	0.2855	1426.407	0.178171	-387.049644	-387.038992	-387.038048	-387.085195	39.161	
C	 1.1613965536	 0.7939477133	-0.952105504	-0.38847
C	 1.824522974	-0.5104782314	-0.4836614013	-0.013653
C	 3.3551195259	-0.4402069248	-0.5831726356	-0.391661
C	 1.4086333509	-0.8054739396	 0.9426730891	 0.041971
O	 0.06743391	-1.2321434626	 1.1818741481	-0.290433
C	 1.132749211	-2.1529459781	 1.5037536612	 0.170926
C	 1.1831811231	-3.4252951683	 0.6820821954	-0.473338
C	 1.3559924007	-2.3492680248	 2.9208017735	 0.290867
C	 1.5546347736	-2.5426462856	 4.0905731663	-0.430671
H	 1.4955386186	 1.6437115106	-0.3454023027	 0.11454
H	 1.4167194554	 1.007334156	-1.9948310231	 0.112128
H	 0.072842551	 0.7274508066	-0.8705571663	 0.132922
H	 1.4658710122	-1.3208051733	-1.1269188463	 0.078728
H	 3.7555233413	 0.3468599023	 0.0663844403	 0.118675
H	 3.8220697	-1.3854451353	-0.2886379854	 0.118151
H	 3.6667075238	-0.2134040866	-1.6074148526	 0.117381
H	 1.7582877494	-0.0604938115	 1.6629926581	 0.091049
H	 0.4352717097	-4.1326029949	 1.0521859597	 0.138891
H	 0.9747398253	-3.2251509291	-0.3694579846	 0.132283
H	 2.1660686	-3.898051655	 0.7701927337	 0.132113
H	 1.7248106605	-2.7024209279	 5.1266281065	 0.197601
