19
gdb 7514	4.69746	1.16221	1.09408	4.1128	75.93	-0.2817	0.0336	0.3152	1145.9408	0.164265	-327.941205	-327.932187	-327.931243	-327.974667	32.941	
C	-0.0259168243	 1.452300499	-0.2652642234	-0.414962
C	 0.0750718305	-0.0261645978	 0.0414303341	-0.044972
C	 1.3971810863	-0.7588946302	-0.0040139811	-0.320436
C	 0.6854753822	-0.5748039147	 1.3166670204	 0.351873
C	 1.2788777945	 0.346546279	 2.3646681816	-0.471634
C	-0.0094000337	-1.8054594355	 1.9023058082	-0.408562
C	 0.9077958111	-2.6850828424	 2.6320051796	 0.272484
N	 1.6441705281	-3.3668243712	 3.2052691802	-0.315961
H	 0.8604297148	 2.0031020364	 0.0602274302	 0.120138
H	-0.1285875831	 1.610517725	-1.3442759761	 0.123989
H	-0.8973922515	 1.9051430048	 0.2205096825	 0.119683
H	-0.7751559163	-0.5965702855	-0.3274882626	 0.082244
H	 1.4354057386	-1.7493959653	-0.4456205405	 0.115911
H	 2.2931642097	-0.1691381963	-0.170332985	 0.11501
H	 1.8095483217	 1.1870830453	 1.9131242077	 0.121971
H	 0.5017385272	 0.7550513132	 3.0218762088	 0.116676
H	 1.9944996468	-0.1955432805	 2.9920520759	 0.14323
H	-0.8103649563	-1.5013551362	 2.5882689938	 0.147478
H	-0.4818446664	-2.3919477273	 1.1068209755	 0.145842
