16
gdb 29733	3.40651	1.34353	0.97188	4.322	84.68	-0.193	-0.0044	0.1886	1161.7658	0.124571	-396.932312	-396.923414	-396.92247	-396.965749	32.586	
C	-0.0698554549	 1.4297960062	 0.0257315112	-0.351932
N	-0.0056184355	-0.0170987195	 0.0035502956	-0.081741
C	 0.0145116837	-0.8045964294	-1.1203626663	 0.271087
N	-0.0873257575	-0.2334135252	-2.3945773909	-0.617416
C	 0.0418782308	-2.107320542	-0.6675941756	-0.168738
N	 0.0408905832	-2.1410205768	 0.6974980681	-0.310909
C	 0.0242820672	-0.8780944226	 1.0888436521	 0.181718
C	 0.0362621145	-0.4066304649	 2.4190102179	 0.260317
C	 0.0411027306	 0.0217542674	 3.5456027717	-0.428982
H	 0.9114468814	 1.8803591713	-0.1634842	 0.13433
H	-0.7694862451	 1.7727161861	-0.7406162381	 0.154411
H	-0.4133208926	 1.7500237349	 1.0098186981	 0.160775
H	 0.709277219	 0.3462250131	-2.6407347532	 0.249991
H	-0.195011227	-0.9476057887	-3.1035136395	 0.255987
H	 0.0560019869	-3.0102910693	-1.2597283106	 0.099031
H	 0.0484925653	 0.3792539594	 4.5452655295	 0.192071
