20
gdb 17963	2.51559	2.37847	1.4357	0.4863	83.06	-0.2151	-0.0093	0.2059	936.9867	0.180062	-311.882786	-311.875478	-311.874534	-311.913902	29.347	
C	 0.0246383164	 1.519224075	 0.1139551158	-0.188595
C	 1.4309025657	 2.132595074	 0.0540204505	-0.184025
C	 2.2232042051	 1.752593254	-1.2145085507	-0.248359
C	 1.4728266444	 2.0632634823	-2.47769614	-0.053257
C	 0.5886582232	 1.242075374	-3.0583354042	-0.080456
C	 0.2329379249	-0.1153658662	-2.6322151107	-0.087511
C	 0.0351673965	-0.632490256	-1.4102587493	-0.042639
C	-0.0301064979	-0.0104173543	-0.0352718114	-0.245192
H	-0.4167248847	 1.7803198073	 1.0831345753	 0.08932
H	-0.6156702634	 1.9781349551	-0.6457613703	 0.109977
H	 1.3426653779	 3.2243272213	 0.1183536258	 0.091907
H	 2.0062267049	 1.8174776604	 0.9340662348	 0.090599
H	 3.1848962886	 2.2780200877	-1.2072004187	 0.091737
H	 2.4432497377	 0.6789234677	-1.1845281762	 0.111381
H	 1.6498725485	 3.0356903009	-2.93274741	 0.082802
H	 0.1308143364	 1.5627275111	-3.9932523722	 0.083253
H	 0.1083926044	-0.8112372675	-3.462648901	 0.084064
H	-0.1769328241	-1.7017144953	-1.383651478	 0.082951
H	 0.7479122264	-0.473065928	 0.5926843381	 0.105244
H	-0.9735021808	-0.3620992936	 0.4070031825	 0.1068
