20
gdb 19478	3.78396	1.5604	1.50773	1.811	73.47	-0.2406	0.0815	0.3221	966.2494	0.178959	-348.989956	-348.982569	-348.981625	-349.021717	28.988	
C	 0.0289214768	 1.6182768955	 0.0678426925	-0.37756
C	-0.1953008533	 0.1043259346	-0.0374290897	-0.227813
C	 0.6186369169	-0.5257388986	-1.1577465927	 0.053854
C	 2.1541314393	-0.7570419696	-1.089098204	 0.061511
C	 2.3730620614	-1.592250095	 0.1906075254	-0.219115
C	 1.2331065584	-2.6319130283	-0.0544501811	-0.217222
C	 0.7281911385	-2.0547601467	-1.394136737	 0.043348
O	 1.985177573	-1.8019720344	-2.0978871859	-0.300631
H	 1.0769391326	 1.850434027	 0.2867222858	 0.118109
H	-0.2308641807	 2.1222870718	-0.8693874462	 0.117816
H	-0.5814354905	 2.0566330445	 0.8631109724	 0.113816
H	 0.0362182277	-0.3654244091	 0.9247313784	 0.099172
H	-1.2591596475	-0.0944581387	-0.2227634273	 0.098945
H	 0.3918599528	-0.049809348	-2.1165170529	 0.081213
H	 2.8894177083	 0.0026864666	-1.3552969727	 0.073852
H	 3.365076113	-2.0479389192	 0.1940164033	 0.106958
H	 2.2544252659	-1.0156162897	 1.1120669901	 0.097158
H	 1.6109607814	-3.6477495343	-0.1850217552	 0.106524
H	 0.469757745	-2.6435590397	 0.728147392	 0.097098
H	-0.0008896589	-2.6233438487	-1.9724580552	 0.072966
