22
gdb 102292	2.5563	0.84972	0.75943	3.2018	82.68	-0.2817	0.0269	0.3085	1627.3384	0.192241	-404.372056	-404.361062	-404.360118	-404.408914	39.147	
C	-0.040719695	 1.5531218244	-0.0096475745	-0.391805
C	 0.0313353714	 0.0208434769	 0.0404074918	 0.023883
C	 0.8688839236	-0.443925246	 1.2402012124	-0.388619
C	-1.3908198456	-0.5691163261	 0.0526302933	-0.191132
C	-1.4804719561	-2.1068425551	-0.046235406	-0.166535
C	-2.9481069815	-2.6014426503	-0.003264476	-0.068881
O	-3.0551976326	-4.0050692405	-0.0277976997	-0.417405
C	-0.8525821076	-2.6131248387	-1.2707019584	 0.268897
N	-0.4057744317	-3.0354517944	-2.2505129589	-0.338744
H	 0.9610498741	 1.9908089293	-0.061302237	 0.116915
H	-0.6036998768	 1.8997811892	-0.8824189676	 0.114898
H	-0.5314732518	 1.9533059557	 0.8857722192	 0.113121
H	 0.5276410345	-0.3237703424	-0.8767427908	 0.100174
H	 1.0107127353	-1.5287981746	 1.2543768205	 0.11864
H	 1.863672805	 0.0116607606	 1.2159142984	 0.119738
H	 0.3947901524	-0.1532720526	 2.1857421087	 0.112499
H	-1.8994670681	-0.2704467781	 0.9788023063	 0.103806
H	-1.9664152644	-0.1360406057	-0.7743890565	 0.10993
H	-0.9607462864	-2.5702497743	 0.7998946089	 0.135616
H	-3.3907807875	-2.2732577639	 0.9420500262	 0.120918
H	-3.5120516066	-2.1283098037	-0.8211718131	 0.105704
H	-2.7478390147	-4.3152019298	-0.8874461872	 0.298383
