18
gdb 20882	6.46988	1.10757	1.01978	2.2172	74.43	-0.2359	0.0264	0.2623	1191.503	0.155716	-344.013451	-344.005543	-344.004599	-344.046823	28.472	
C	-0.0015546024	 1.5308070739	-0.0255983817	-0.381397
C	 0.1530730429	 0.0090719689	-0.0670375627	-0.168344
C	 0.6180800191	-0.5593180999	 1.2780208174	-0.143283
N	 0.7410335173	-2.0065382824	 1.2662773804	 0.064599
C	 1.8728369471	-2.7495554925	 1.1864168314	-0.034247
C	 1.4837603342	-4.0729318687	 1.1454214871	-0.234689
C	 0.077024807	-4.0215214227	 1.2037624483	-0.000128
N	-0.3703983758	-2.7694347908	 1.2747380272	-0.269969
H	 0.9464207501	 2.0240228021	 0.2177687871	 0.114416
H	-0.3375386043	 1.9173477265	-0.9919131981	 0.120838
H	-0.7363284048	 1.8355848325	 0.7276933616	 0.120984
H	-0.7979762011	-0.4662193001	-0.3275827077	 0.129518
H	 0.8732277044	-0.2785960299	-0.8423608368	 0.10335
H	 1.5944257695	-0.1491679979	 1.555288456	 0.113861
H	-0.0925765652	-0.2923496001	 2.0665370387	 0.128945
H	 2.8468994327	-2.2860249228	 1.1712830399	 0.125215
H	 2.1215380184	-4.9399825794	 1.0908640564	 0.101774
H	-0.6274454592	-4.8405676164	 1.2040289356	 0.108558
