23
gdb 82834	2.53632	1.54729	1.49158	0.3039	88.8	-0.247	0.0835	0.3306	1084.0807	0.207158	-351.129276	-351.120986	-351.120041	-351.161364	33.893	
C	-0.1523166258	 1.5996540189	-0.0047798503	-0.421484
C	 0.0630170588	 0.0929913719	 0.0195535281	 0.051045
C	 1.0791145813	-0.5876739982	-0.9390245248	-0.11345
C	 2.5053562764	 0.0167495028	-0.9045301668	-0.230954
C	 2.7870553022	-0.690189913	 0.4430414893	-0.0843
C	 2.1039317061	 0.0006269736	 1.6476971234	-0.230956
C	 0.7371405546	-0.6014202094	 1.235276643	-0.113446
C	 1.4876205586	-1.563289003	 0.2331436473	 0.401956
C	 1.4110317911	-3.062062696	 0.2116244885	-0.536918
H	 0.7802559372	 2.151847221	 0.1453061648	 0.11602
H	-0.5734333316	 1.9202876876	-0.9645911598	 0.111059
H	-0.8482104466	 1.9092372101	 0.783429462	 0.11106
H	-0.9027056833	-0.4050181751	-0.1354797802	 0.067037
H	 0.7009183547	-0.9169936878	-1.9092761895	 0.053631
H	 3.1190566181	-0.4110599858	-1.7034190099	 0.094897
H	 2.6099420566	 1.1064266854	-0.9416053374	 0.087109
H	 3.7854164712	-1.1041070184	 0.5974556086	 0.055917
H	 2.4436149192	-0.4381827	 2.5910599362	 0.094896
H	 2.1899578751	 1.0895613617	 1.7285157185	 0.08711
H	 0.0800133504	-0.9419533799	 2.0384537903	 0.05363
H	 0.3832812548	-3.4075761061	 0.0467148678	 0.115557
H	 2.0323629887	-3.4827545497	-0.588269098	 0.115292
H	 1.7556602721	-3.4937066205	 1.1591362389	 0.115292
