21
gdb 20082	3.09716	1.57615	1.28435	0.9936	79.99	-0.2292	0.0849	0.3141	1065.6312	0.188007	-329.083865	-329.07496	-329.074015	-329.117223	33.072	
C	 0.0147172229	 0.9563023173	-2.1013625747	-0.404672
C	-0.0116966565	-0.1997352856	-1.1242426298	-0.04616
C	 1.1810532294	-0.5709221875	-0.2605771803	-0.046156
C	 2.4915865094	 0.1854921593	-0.307904745	-0.404685
C	-0.0589620769	 0.0241360368	 0.3724626926	 0.028373
N	 0.0079568157	 1.3741296094	 0.8603460516	-0.05702
C	-1.2076608303	 1.9124897903	 1.4612855181	-0.221502
C	-0.0376290934	 1.5484321327	 2.3081968926	-0.221498
H	 0.496722061	 1.8361598325	-1.6728730954	 0.134554
H	 0.5463710929	 0.6833500119	-3.0198435825	 0.110146
H	-1.0038279385	 1.2452571558	-2.3839307217	 0.110413
H	-0.5995517926	-1.0469535646	-1.4698503071	 0.077012
H	 1.3018869329	-1.6386807976	-0.0929896981	 0.07701
H	 2.3339855971	 1.2644194212	-0.3420291246	 0.134562
H	 3.0931870081	-0.0300913545	 0.5822478609	 0.110409
H	 3.0828082838	-0.1056819424	-1.1833715388	 0.110151
H	-0.6916191985	-0.6532413867	 0.955043244	 0.061311
H	-1.4278315358	 2.9527240188	 1.238270077	 0.114761
H	-2.0798705318	 1.2625731006	 1.5121021619	 0.109114
H	-0.1284707047	 0.6553852184	 2.9245858728	 0.109115
H	 0.6124749758	 2.3178856439	 2.7151404465	 0.114763
