19
gdb 77473	1.95398	1.48666	1.40322	1.07	71.99	-0.2205	0.0678	0.2883	1093.5618	0.156435	-460.119116	-460.109336	-460.108391	-460.152966	36.736	
C	-0.0569358577	 1.5595843869	-0.0529399979	-0.420342
C	 0.1416126895	 0.0588012237	 0.0446111142	-0.156276
C	 1.4063992316	-0.7180184318	-0.2047253442	 0.352592
O	 1.5797894456	-1.6958986012	-1.1663623777	-0.460341
C	 2.6302072719	 0.0118668161	 0.3282798015	-0.327525
C	 2.0042159483	-0.0629609636	 1.7705234904	 0.047225
O	 1.7693357107	 1.1304798113	 2.4935529165	-0.435128
C	 0.7653913604	-0.726528455	 1.1962057315	 0.27778
O	 0.0809645545	-1.748385012	 1.8348562217	-0.466441
H	 0.7631552392	 2.106166947	 0.4136693144	 0.137296
H	-0.1390464741	 1.8748289498	-1.0994747246	 0.11087
H	-0.9777767239	 1.862381312	 0.4580419965	 0.111608
H	-0.7141431329	-0.5156620877	-0.3183662727	 0.074712
H	 0.7309887812	-2.1214013008	-1.3281050469	 0.287083
H	 3.5397082719	-0.5855135611	 0.2350518004	 0.11106
H	 2.810099754	 1.0166458257	-0.0638067689	 0.100513
H	 2.5537526458	-0.789936733	 2.3829250027	 0.083034
H	 2.6080344396	 1.4348363155	 2.8547833243	 0.284361
H	-0.6326350855	-1.3588150319	 2.352726249	 0.287919
