18
gdb 66846	2.65261	2.0744	1.82071	1.9717	73.2	-0.2211	0.0651	0.2862	865.0468	0.149582	-401.889555	-401.882993	-401.882049	-401.920047	27.505	
C	-0.0077214207	 1.5432845445	-0.0025548056	-0.528139
C	 0.0038905583	 0.0385927412	-0.0290415861	 0.306238
C	 0.6255773929	-0.7858931438	-1.1960884823	-0.138743
C	 1.1736632863	-1.7731609366	-0.1980579479	-0.073162
C	 0.7490166823	-0.8602692111	 0.9821377183	 0.053791
O	-0.4541238775	-1.2640518108	 1.6578979197	-0.31065
C	-1.2136022875	-0.8110428722	 0.4975656816	 0.022224
C	-1.3098989982	-1.9775044835	-0.4750878462	-0.160544
N	 0.0355952568	-2.1065746122	-1.0726081559	-0.116968
H	 0.9894792821	 1.9493164612	-0.2047337206	 0.12341
H	-0.688864951	 1.9472981549	-0.7607376421	 0.122291
H	-0.3302056572	 1.918623641	 0.9739817258	 0.131088
H	 1.0109134508	-0.428082634	-2.1439364795	 0.093268
H	 2.0404015334	-2.4229261542	-0.244136864	 0.09447
H	 1.5467426303	-0.5194483672	 1.6460711242	 0.080465
H	-2.1505464088	-0.3254272355	 0.7820681907	 0.077775
H	-1.5961617918	-2.8995155396	 0.0369825362	 0.1204
H	-2.0175617306	-1.7830071821	-1.2893658465	 0.102786
