19
gdb 115495	3.97897	0.86363	0.75165	4.0968	74.79	-0.2306	0.016	0.2466	1499.4751	0.158275	-460.152164	-460.142673	-460.141729	-460.18726	33.884	
O	 0.0337431172	 1.3742813021	-0.2775055302	-0.42375
C	 0.0630685616	-0.0207306535	-0.0579671494	-0.052604
C	-1.34132062	-0.5572458856	 0.2393756457	 0.060518
O	-2.2009739611	-0.1746183829	-0.8510244133	-0.294804
C	-2.7631266453	-1.3300028003	-1.4652630685	-0.160565
C	-2.237720312	-2.498511423	-0.6704018009	 0.284706
C	-2.6058541763	-3.9085041912	-0.9893333423	-0.179554
O	-1.9577385972	-4.7809374175	-0.0839871282	-0.411121
C	-1.4470771144	-2.0522462037	 0.300631471	-0.210478
H	-0.6698480857	 1.5185315573	-0.9223246789	 0.289579
H	 0.4726581498	-0.5629416291	-0.9259041008	 0.081263
H	 0.7247865234	-0.201116997	 0.7965713181	 0.103052
H	-1.7099088036	-0.0656332294	 1.1533156727	 0.089315
H	-3.8628802743	-1.2647498762	-1.4387556705	 0.105004
H	-2.4703080999	-1.3783631491	-2.5267020116	 0.103445
H	-3.7042059729	-4.0164157789	-0.9394521908	 0.100909
H	-2.3247035875	-4.1284796459	-2.034990502	 0.100576
H	-2.2176159308	-5.6816582604	-0.2966026796	 0.292694
H	-0.9349490411	-2.6634954558	 1.0304241996	 0.121816
