17
gdb 92897	2.35277	1.79063	1.05654	2.9741	70.71	-0.2537	-0.0303	0.2235	1097.1893	0.136915	-455.189109	-455.180585	-455.179641	-455.222763	30.991	
C	 0.1542977606	 1.4636134212	-0.0516222109	-0.354173
N	-0.0994140585	 0.0265655106	-0.0100708691	-0.126906
C	-0.6953696469	-0.6182130983	-1.1092336582	 0.099562
N	-0.7354867295	-1.8650372959	-1.3295306283	-0.252471
C	-0.0727089177	-2.7228734708	-0.3491699555	-0.1856
C	-0.1749067575	-2.1622300453	 1.0703211201	 0.01355
O	 0.5705055167	-2.9186842638	 1.9825842233	-0.433202
C	 0.2922849038	-0.7099945267	 1.0856074131	 0.399984
O	 0.9250794614	-0.2516613441	 2.0186715896	-0.389349
H	 1.0620527053	 1.6940405419	-0.6189390426	 0.145685
H	-0.6943709859	 1.9720772268	-0.5165346272	 0.139336
H	 0.2822212775	 1.8185532298	 0.9703420721	 0.170903
H	-1.1381841519	 0.0758022859	-1.8233379949	 0.122901
H	-0.5121383864	-3.7224724116	-0.3898452443	 0.127813
H	 0.9874676697	-2.8297599861	-0.621713663	 0.124625
H	-1.2446016717	-2.1397824173	 1.3529994835	 0.100699
H	 0.9911945211	-2.2734991363	 2.5717321524	 0.296644
