18
gdb 91567	2.8162	1.24385	1.01871	2.8403	75.5	-0.2475	0.0254	0.2729	1193.6927	0.14663	-401.924412	-401.915726	-401.914782	-401.958288	32.163	
C	-0.088357827	 1.5223793661	-0.1621724765	-0.411053
C	 0.1178604802	 0.0267007638	-0.0674870955	 0.105628
O	 1.2680237462	-0.4675445182	-0.8237914361	-0.303322
C	 1.7380384571	-1.1763702206	 0.3202125912	 0.041968
C	 2.1010851968	-0.2302694122	 1.4231581367	-0.344771
C	 0.6526072339	-0.6279420948	 1.2149743764	 0.265085
C	-0.2044933179	-1.2797098994	 2.2712403721	-0.459923
C	-0.8658666911	-0.2954268433	 3.1350329121	 0.268475
N	-1.3859251441	 0.4970908445	 3.7958100851	-0.307621
H	 0.7788903732	 2.0731647511	 0.2101389126	 0.126395
H	-0.2582839205	 1.8129885778	-1.2035207851	 0.131918
H	-0.9650436553	 1.8166913326	 0.4240672251	 0.137159
H	-0.7786218265	-0.5060727892	-0.4146017023	 0.08363
H	 2.1412082065	-2.1726547528	 0.1776405957	 0.110817
H	 2.564096173	-0.6846523125	 2.2944605702	 0.119139
H	 2.4570456467	 0.7665427456	 1.1831439017	 0.126353
H	-0.9785928479	-1.9058220073	 1.8101876521	 0.155018
H	 0.401014587	-1.9414921513	 2.9008673446	 0.155104
