20
gdb 17578	2.61975	2.37269	1.80242	0.0798	78.76	-0.2432	0.093	0.3361	869.92	0.177133	-311.836694	-311.828933	-311.827989	-311.86797	31.028	
C	-0.001462851	 1.5288118592	 0.0427992182	-0.491889
C	-0.0367752981	 0.0252425763	 0.0411901606	 0.308623
C	 1.151815607	-0.8280146009	-0.3396064299	-0.38614
C	 0.5757501022	-0.9750337161	 1.0504635587	 0.308582
C	 1.3683864847	-0.70869563	 2.3005565465	-0.491873
C	-0.6875848724	-1.8059745658	 0.9827312603	-0.105924
C	-1.8946844229	-0.9837586086	 1.3548614192	-0.296934
C	-1.2944720296	-0.8148895577	-0.017292328	-0.10597
H	 0.9735990548	 1.9066611285	 0.3684129555	 0.114106
H	-0.1880862421	 1.9318873958	-0.9601890708	 0.118129
H	-0.7625946304	 1.9449600498	 0.7124251717	 0.115495
H	 1.0465410566	-1.628070327	-1.0686423978	 0.098077
H	 2.1021944968	-0.3026324106	-0.3956880159	 0.100789
H	 2.065036955	 0.1252455548	 2.1636592058	 0.114099
H	 0.7129697527	-0.4627489699	 3.1436754726	 0.115493
H	 1.9623363279	-1.5847521628	 2.588717631	 0.118137
H	-0.7273248669	-2.889326115	 0.9364531854	 0.079049
H	-2.8365835614	-1.5238514403	 1.3911976344	 0.105361
H	-1.8105052688	-0.1887098708	 2.0917011852	 0.103739
H	-1.8522703242	-1.0522167388	-0.9172421525	 0.07905
