18
gdb 18323	3.16383	2.18627	1.54362	2.9172	70.49	-0.2316	-0.0156	0.216	860.8032	0.155638	-347.829227	-347.822261	-347.821317	-347.860972	26.938	
O	-0.1493917853	 0.1370646964	 0.3418887405	-0.320488
C	-0.0919733298	 1.3127258349	 0.0849433025	 0.400092
C	-1.2913943011	 2.2655802566	-0.0227301758	-0.321201
C	-0.7977520943	 3.4391728536	-0.8861764367	-0.233776
C	 0.7194336184	 3.5209892645	-0.6252795554	-0.001284
C	 1.1705857532	 4.0817240377	 0.7587272312	-0.229436
C	 1.8267286081	 2.7144377359	 1.0991164646	-0.224132
C	 1.1879842071	 2.1006389289	-0.1885093613	-0.122029
H	-2.1687809	 1.7435158998	-0.4096742831	 0.126345
H	-1.5403897176	 2.5922292	 0.9960082725	 0.129293
H	-0.9768844431	 3.2182732563	-1.9448784475	 0.105754
H	-1.3075241322	 4.3814304903	-0.6626256568	 0.10268
H	 1.2612279647	 3.9613172257	-1.4641155166	 0.070704
H	 1.8499226185	 4.9360605475	 0.7232109547	 0.103702
H	 0.3347973716	 4.3462505897	 1.4134252331	 0.10009
H	 2.9170348966	 2.7351047575	 1.0406524364	 0.111858
H	 1.5456258533	 2.2471908394	 2.0463886381	 0.111439
H	 1.8577923419	 1.5228949053	-0.8277147304	 0.090388
