24
gdb 9420	5.65526	0.68269	0.64085	1.3384	82.6	-0.2624	0.0787	0.341	1827.3067	0.221402	-351.415262	-351.40434	-351.403396	-351.451798	38.567	
C	-0.0200025807	 1.5628917975	-0.1122596385	-0.379996
C	 0.0322234176	 0.0344619425	-0.0398985832	-0.161599
C	 0.6876612101	-0.4869811474	 1.2440571697	-0.168134
C	 0.7385170472	-2.0178085724	 1.3147540089	-0.186854
C	 1.4672126913	-2.5841713167	 2.5458333822	 0.036897
C	 0.768411672	-2.2412225305	 3.8682316871	-0.38964
C	 1.6348287391	-4.0982027919	 2.4018177506	-0.078555
O	 2.4391653815	-4.5717766322	 3.4736681189	-0.424238
H	 0.9857687384	 1.9957140126	-0.0691539137	 0.112923
H	-0.4895345351	 1.904683628	-1.0400925084	 0.10961
H	-0.5930906023	 1.9797148085	 0.7235771402	 0.112898
H	-0.9854668647	-0.3711617209	-0.1168702627	 0.092917
H	 0.5785600498	-0.3556065802	-0.9091064937	 0.092481
H	 1.7086719937	-0.0864827645	 1.3175276939	 0.090971
H	 0.1428813263	-0.0883834815	 2.1090057673	 0.096921
H	-0.2868463294	-2.4150770022	 1.2882655413	 0.088503
H	 1.2313967568	-2.3925723491	 0.4066550388	 0.086581
H	 2.4813763764	-2.1603049772	 2.5714936534	 0.078726
H	-0.2736689965	-2.5854970179	 3.8571918197	 0.102508
H	 1.2763993669	-2.7312270515	 4.7017280091	 0.132129
H	 0.761645159	-1.1642837761	 4.0574908416	 0.110258
H	 0.6421010261	-4.5797672538	 2.4085557778	 0.079646
H	 2.1030944524	-4.3258989838	 1.4305993194	 0.079821
H	 2.476291584	-5.5308087395	 3.4214530202	 0.285227
