18
gdb 133574	2.71755	1.1406	1.0884	2.2714	65.03	-0.2858	0.0788	0.3646	1193.3505	0.142676	-533.461126	-533.451949	-533.451005	-533.495207	34.263	
C	-0.0792943009	 1.5456948364	-0.1348258329	-0.464069
C	-0.0043576373	 0.0326740597	-0.0312743488	 0.331365
C	-1.2547800641	-0.674444581	-0.524657413	-0.447895
C	 1.3191269167	-0.6591716984	-0.25239898	-0.332733
C	 0.7099102638	-0.6314789538	 1.1301123342	-0.211368
C	 1.361035109	 0.1314956022	 2.2452297517	 0.286627
F	 2.2176642108	 1.0778337512	 1.8164488647	-0.085048
F	 0.4531907081	 0.7482815901	 3.0237233417	-0.083989
F	 2.0601494111	-0.6952970581	 3.0424578301	-0.078214
H	 0.8370352779	 2.0315526968	 0.2010629858	 0.133119
H	-0.258887268	 1.8397205003	-1.1749134218	 0.114723
H	-0.9070202515	 1.9357115175	 0.467863032	 0.123598
H	-1.4430938066	-0.4343125331	-1.5772126703	 0.120521
H	-1.1648848243	-1.7619957647	-0.4410926298	 0.114489
H	-2.1347303304	-0.3642587557	 0.0500602272	 0.123076
H	 1.3375135988	-1.6094569018	-0.7747449712	 0.116316
H	 2.1934831885	-0.0386023023	-0.4118257027	 0.129376
H	 0.2699965083	-1.5496227856	 1.5054824432	 0.110106
