17
gdb 83719	2.63456	1.75268	1.25288	4.3504	67.34	-0.2328	0.011	0.2438	1001.6698	0.139037	-455.155482	-455.14799	-455.147046	-455.187542	28.945	
N	-0.0778156553	 1.5261384998	 0.0565093069	-0.524231
C	-0.0283670337	 0.0763023669	-0.0141252292	-0.108157
C	-1.4001300427	-0.5814061927	-0.0774472531	-0.025366
N	-2.3140088421	 0.0573727875	-1.0597844784	-0.32184
C	-2.4480003813	-1.2121011671	-1.8215373206	-0.184235
C	-1.2356006407	-1.775695581	-1.0540965157	 0.08899
O	 0.0039662943	-1.5808286473	-1.7396700208	-0.230034
C	 0.6734476784	-0.4881968995	-1.2655732116	 0.409842
O	 1.6672058921	-0.0707750607	-1.7836428821	-0.339216
H	 0.8471461997	 1.8890022138	-0.1624639967	 0.242793
H	-0.6929182356	 1.8415652132	-0.6914138796	 0.238267
H	 0.5256253794	-0.3088620074	 0.8534155706	 0.110029
H	-1.837905527	-0.8069314737	 0.898050503	 0.081634
H	-3.1726767352	 0.4305005059	-0.6747318893	 0.231585
H	-3.3640896712	-1.7782176596	-1.6100191568	 0.103871
H	-2.3254982922	-1.1098596238	-2.9037257421	 0.12541
H	-1.279439087	-2.8027914344	-0.6933016645	 0.100658
