21
gdb 80359	2.22675	1.66502	1.16696	0.7249	88.33	-0.2495	0.0517	0.3012	1148.1308	0.180965	-349.896542	-349.887316	-349.886372	-349.929722	36.319	
C	-0.0887878117	 1.5126219528	-0.1826155083	-0.420905
C	 0.0705533753	 0.0203750707	 0.0206375136	-0.006425
C	 1.3343038079	-0.7714350876	-0.1803444921	-0.072291
C	 2.5654134957	-0.0151285578	 0.3330974512	-0.290932
C	 1.9466048719	-0.01301853	 1.7854479626	 0.139105
C	 2.6964607304	-0.9885155397	 2.7082976663	-0.437522
C	 1.7952590366	 1.2739718091	 2.4539949925	 0.292262
C	 1.6988463829	 2.322226812	 3.037200049	-0.472287
C	 0.6773087828	-0.6849392515	 1.204729566	-0.101275
H	 0.775702573	 2.0821258343	 0.1610511721	 0.133177
H	-0.2427261417	 1.7350075032	-1.2446847158	 0.108953
H	-0.9593665896	 1.8864445299	 0.3667090618	 0.118076
H	-0.7935015809	-0.5396599747	-0.3365379565	 0.08498
H	 1.3766465212	-1.61903875	-0.8540014356	 0.082625
H	 3.4887968031	-0.5969148378	 0.2948799613	 0.105316
H	 2.7518970686	 0.9650548127	-0.1127787889	 0.104717
H	 3.6899006333	-0.6018223699	 2.9539338076	 0.122972
H	 2.1470923245	-1.1354544512	 3.6432891174	 0.123329
H	 2.8089509179	-1.9606061411	 2.2177972784	 0.114571
H	 1.5989378266	 3.2521799273	 3.5399751497	 0.189574
H	 0.1300547021	-1.445820231	 1.7513508378	 0.081983
