21
gdb 63202	2.66663	1.57449	1.51509	1.1694	82.82	-0.2376	0.013	0.2506	1022.5873	0.183619	-387.088031	-387.079919	-387.078975	-387.119836	33.521	
C	-0.1392963437	 1.5655613631	 0.0003308308	-0.435395
C	 0.0226512383	 0.0394396867	-0.0061906457	 0.365651
O	-1.2794886378	-0.5685070002	 0.070547889	-0.476422
C	 0.7552268991	-0.4378935691	-1.2496877491	-0.121059
C	 1.8449099459	-1.1957462508	-1.1267390889	-0.073989
C	 2.3229449261	-1.5397019879	 0.2666681211	-0.060132
C	 1.0820641833	-1.9801391354	 1.1057616909	-0.226176
C	 0.7739364199	-0.4624427973	 1.2442080398	-0.023417
C	 2.3061646768	-0.2269568129	 1.1117117683	-0.233619
H	 0.8265886259	 2.0780259325	 0.0227555568	 0.120423
H	-0.6689077247	 1.8991559435	-0.9001553263	 0.10039
H	-0.7247108123	 1.8730930734	 0.8722217841	 0.120343
H	-1.7605209216	-0.3370602208	-0.7312591163	 0.271688
H	 0.3540422316	-0.1450191336	-2.2179636951	 0.076097
H	 2.3900299899	-1.5627991212	-1.9913627831	 0.088701
H	 3.2189012078	-2.1621345456	 0.2721503569	 0.056541
H	 0.3334478417	-2.6058216576	 0.6191744861	 0.109427
H	 1.3749835777	-2.4140744223	 2.0656375756	 0.089444
H	 0.2646939497	-0.11507542	 2.1463793533	 0.062854
H	 2.8059006581	-0.354393711	 2.0760685186	 0.095014
H	 2.6635949283	 0.6863565165	 0.6301792935	 0.093637
