20
gdb 90198	3.0475	1.67668	1.50423	2.1371	83.5	-0.1998	0.0539	0.2538	982.4607	0.171055	-365.840486	-365.833064	-365.832119	-365.871723	30.87	
C	-0.2683468112	 1.5040667324	-0.0195934576	-0.405287
C	-0.0120171106	 0.001974469	-0.006307987	-0.068958
C	 1.183752906	-0.5188585225	-0.9353966731	-0.360625
C	 2.0292478761	-0.6941709241	 0.354500716	 0.28565
C	 2.810069924	 0.3470701129	 1.1615463461	-0.295208
C	 2.0035530473	-0.4628651451	 2.1763163478	-0.053542
N	 2.3398183373	-1.8103419096	 1.4494127994	-0.204777
C	 0.8538506307	-2.1546200425	 1.4281537694	-0.212667
C	 0.7668093158	-0.6476201938	 1.1995951491	 0.163559
H	 0.6448811943	 2.0852655983	 0.135223465	 0.121892
H	-0.6930479107	 1.8118233118	-0.981649547	 0.117737
H	-0.9788466026	 1.7834511088	 0.7651354932	 0.12248
H	-0.9551970418	-0.5221595177	-0.1932820539	 0.081667
H	 0.9423096832	-1.4505485234	-1.4517483599	 0.12096
H	 1.5831695825	 0.190911294	-1.6657333416	 0.110132
H	 3.8954736079	 0.2168650111	 1.2022232531	 0.106256
H	 2.5382185418	 1.3963604655	 1.0339063328	 0.103199
H	 2.0286276285	-0.4439861031	 3.2711550822	 0.078191
H	 0.579386159	-2.8256033702	 0.6060276723	 0.095406
H	 0.4882081126	-2.5594957115	 2.3783539836	 0.093935
