19
gdb 6953	2.55811	2.22683	1.63107	3.5571	71.04	-0.235	0.0382	0.2732	893.0905	0.16634	-365.123932	-365.115647	-365.114703	-365.156135	31.363	
C	-0.0350279939	 1.5832213654	-0.0452891782	-0.430405
C	 0.0335945064	 0.0545637356	-0.03788096	 0.177143
C	-1.3837388413	-0.5460982826	 0.0548101343	-0.422967
C	 0.8315107705	-0.5448542473	-1.2181356175	-0.247167
C	 1.5282772179	-1.7919780945	-0.6312507549	-0.174499
N	 1.6640119349	-1.4345050945	 0.769729814	-0.311011
C	 0.8221253838	-0.4430170942	 1.1927355579	 0.408167
O	 0.7011674905	-0.0474872647	 2.3330595323	-0.399597
H	 0.9622790279	 2.0258257836	-0.1350877337	 0.113742
H	-0.6443914371	 1.9442524982	-0.8806951717	 0.106762
H	-0.4757442449	 1.940460654	 0.8894307011	 0.138187
H	-1.9967427976	-0.2076821209	-0.7872995396	 0.112509
H	-1.3626582445	-1.6412035851	 0.0374740454	 0.113175
H	-1.8683008939	-0.2348733695	 0.9844139981	 0.137342
H	 0.2042996032	-0.7907131964	-2.0786753011	 0.103424
H	 1.5910165076	 0.1693332709	-1.5515410693	 0.107726
H	 0.919349762	-2.6981373964	-0.7622154502	 0.106273
H	 2.5029525977	-1.9788493069	-1.0928648541	 0.112463
H	 2.1639751807	-1.9943015547	 1.4423347773	 0.248732
