22
gdb 75892	2.36433	1.47324	1.22031	3.0494	82.61	-0.253	0.031	0.284	1160.7686	0.194094	-404.384947	-404.375504	-404.37456	-404.418517	36.526	
C	 0.3165185204	 1.6585766157	-0.2134198747	-0.4206
C	 0.0481127298	 0.168593967	 0.0563499127	-0.093177
C	 0.5923648146	-0.6684300086	-1.0890701505	 0.40584
N	 0.0714136529	-0.7683971176	-2.2349393438	-0.549242
O	 1.7495294529	-1.2888682402	-0.7070297996	-0.24316
C	 2.083094844	-0.9199303803	 0.6389591932	-0.109274
C	 0.7651782642	-0.4526881637	 1.2900711895	 0.264564
C	 1.0141859974	 0.5014666423	 2.4605610741	-0.454643
C	-0.0330714682	-1.6776110681	 1.7742808487	-0.430338
H	 1.3870206325	 1.8762858804	-0.2927710306	 0.117931
H	-0.1504891552	 1.9408507101	-1.1600792557	 0.144158
H	-0.0996588192	 2.286273459	 0.5794719043	 0.117232
H	-1.0331672618	 0.0202602183	 0.1167960447	 0.09821
H	 0.6431706183	-1.3618346181	-2.838939321	 0.218511
H	 2.5226554413	-1.7940706436	 1.1274111365	 0.113423
H	 2.8335200978	-0.1189035199	 0.6161298685	 0.103178
H	 1.6021198807	 1.3744841275	 2.1649810373	 0.119042
H	 0.0699728614	 0.8578364406	 2.8855128294	 0.120787
H	 1.5590242028	-0.0107706277	 3.2615305029	 0.115895
H	 0.4960004788	-2.1961959895	 2.5810304978	 0.111913
H	-1.0133770063	-1.3745577194	 2.156345642	 0.117683
H	-0.1976931293	-2.3948634541	 0.9639042444	 0.132067
