15
gdb 124358	5.06506	1.01051	0.8469	6.1896	72.12	-0.2323	-0.0201	0.2122	1300.9901	0.112104	-453.96852	-453.960064	-453.95912	-454.003759	29.467	
C	-0.1104969173	 1.5144672898	 0.0114295644	-0.506271
C	 0.1700841465	 0.0199206077	 0.0007942163	 0.399851
O	 1.2756645904	-0.4593988334	-0.011098796	-0.307383
N	-0.9988788164	-0.745206392	 0.0063805422	-0.446726
C	-1.1271920658	-2.119684615	-0.0001620568	 0.565674
C	-2.2598493589	-2.8882091186	 0.003884561	-0.390286
C	-1.7389129384	-4.2043232566	-0.0067259662	 0.049322
N	-0.4299443523	-4.2353986004	-0.0164965287	-0.142759
O	-0.0343732185	-2.8836918384	-0.0120891046	-0.18436
H	 0.8418629948	 2.042461393	 0.0057729933	 0.162731
H	-0.6932049648	 1.8113394573	-0.8671171955	 0.144062
H	-0.6772637748	 1.801620233	 0.903532736	 0.144122
H	-1.874680624	-0.2466053132	 0.016133305	 0.264328
H	-3.2869275046	-2.5654906891	 0.0129232686	 0.113214
H	-2.2805424959	-5.140083704	-0.007766579	 0.134481
