18
gdb 124648	4.31034	0.93298	0.84104	4.0011	74.21	-0.2293	-0.0077	0.2216	1392.433	0.146568	-439.072493	-439.063757	-439.062813	-439.106458	32.118	
C	-0.0238312564	 1.4979923832	-0.0816325723	-0.396619
C	 0.0426860597	-0.0229335738	 0.0465368705	 0.130611
C	 0.6409103747	-0.4776234652	 1.37019971	-0.393934
O	-1.2776935767	-0.5966378267	-0.0102394893	-0.280436
C	-1.850163069	-0.7110325746	-1.2229505377	 0.21656
C	-1.4259491536	-0.4176643832	-2.4859509335	-0.056564
O	-2.3886504342	-0.7532307231	-3.3744767206	-0.170761
N	-3.4751746503	-1.2766550661	-2.6976937041	-0.124737
C	-3.1540327365	-1.248590694	-1.4293898604	-0.053971
H	 0.9848738807	 1.9222612588	-0.077632905	 0.122019
H	-0.5170468506	 1.8014861646	-1.0085089633	 0.129274
H	-0.5815902864	 1.9232924581	 0.7582716319	 0.130294
H	 0.6305066446	-0.4443029018	-0.781911175	 0.085287
H	 0.0401361356	-0.1047636063	 2.2054279186	 0.130614
H	 0.669884429	-1.5686349883	 1.4259371189	 0.129306
H	 1.6594868372	-0.0945056019	 1.478767686	 0.12096
H	-0.5292550086	 0.0092637492	-2.9010070274	 0.145036
H	-3.847090149	-1.6103852489	-0.6840721572	 0.13706
