20
gdb 97721	4.91028	0.70636	0.66627	1.58	92.22	-0.2221	0.0281	0.2502	1774.7914	0.170545	-365.946518	-365.937203	-365.936259	-365.982639	33.975	
C	-0.6803644929	 1.2045766761	-0.0693021825	-0.364288
C	 0.5352923178	 0.2830109744	 0.1399054564	-0.326819
C	 1.0922681637	-0.2295313932	-1.1064843444	 0.25735
C	 1.5295861835	-0.6492463875	-2.1497901557	-0.161582
C	 2.0922671073	-1.1232474183	-3.3694522669	 0.172515
C	 1.3275562192	-1.2562904573	-4.6347323003	-0.265955
N	 1.7737165713	-2.5020988065	-4.0008880551	-0.1615
C	 3.2344206941	-2.618167617	-4.3487443396	-0.149945
C	 3.5925775592	-1.2857236887	-3.646436846	-0.310774
H	-0.4100228753	 2.0724909213	-0.6767785397	 0.127596
H	-1.4866151867	 0.6725366682	-0.5813783869	 0.129592
H	-1.0589102894	 1.5608253578	 0.8934421085	 0.114382
H	 1.3173225875	 0.8249427273	 0.6875727164	 0.129896
H	 0.2504699826	-0.5602690469	 0.7826691468	 0.1327
H	 0.2538972806	-1.1101357585	-4.5748075773	 0.126734
H	 1.7822888065	-0.9426804352	-5.5743497045	 0.106572
H	 3.6619677513	-3.4986211307	-3.8664576959	 0.114489
H	 3.4162955328	-2.6783252594	-5.4273018582	 0.104038
H	 4.0587820239	-0.4927487621	-4.2383155072	 0.103158
H	 4.170203053	-1.4338556439	-2.7333227877	 0.121839
