16
gdb 30437	3.80582	1.17329	0.90189	1.4155	78.8	-0.2053	-0.027	0.1783	1242.6713	0.126498	-434.122886	-434.114898	-434.113953	-434.155604	29.846	
C	-0.0837382992	 1.3809619438	 0.1312710379	-0.320457
N	-0.009488949	-0.063864838	 0.019958541	-0.338295
C	 0.573935863	-0.5570262341	-1.0038530377	 0.393761
N	 0.6265296549	-1.9686670599	-1.0774183978	-0.387763
C	 1.2064404177	-2.6333159069	-2.0926109805	 0.525063
O	 1.1496762163	-3.9653304205	-1.9741548948	-0.401492
N	 1.7832879619	-2.0842060346	-3.1191260049	-0.403101
C	 1.7703289983	-0.7085199459	-3.1151385372	 0.002013
C	 1.21584764	 0.0635856536	-2.1462773511	-0.217071
H	 0.9080717039	 1.8567474592	 0.1725319862	 0.109268
H	-0.635066709	 1.8447446532	-0.7010172628	 0.109268
H	-0.6085442498	 1.6398026835	 1.0547905198	 0.118765
H	 0.1982195016	-2.4746477805	-0.3138948901	 0.271886
H	 1.5958146866	-4.3174999565	-2.7574176927	 0.316073
H	 2.2527791593	-0.2499486909	-3.9736373749	 0.11588
H	 1.2446958333	 1.1417697743	-2.2120347303	 0.106202
