21
gdb 115378	2.86424	1.138	1.02302	1.275	74.4	-0.2576	0.0706	0.3282	1274.7745	0.182802	-461.366886	-461.357668	-461.356723	-461.400963	34.629	
C	-0.0042208534	 1.5045640216	 0.0557770546	-0.409667
C	 0.0476116147	-0.0068170432	 0.0312446558	 0.230104
O	 0.687699576	-0.4104702341	-1.1584682431	-0.253618
C	 0.7841213135	-1.8274577121	-1.2575517125	-0.105545
C	 1.5236292847	-2.4077336349	-0.0439379584	-0.022015
C	 3.0169461462	-2.041943507	-0.0913908713	-0.070635
O	 3.7313797295	-2.4884594729	 1.0531735273	-0.427752
C	 0.8319377683	-1.8695764961	 1.213835922	-0.105068
O	 0.7460409739	-0.4493638347	 1.1742685612	-0.257852
H	 1.0124915373	 1.9047200544	 0.0355070089	 0.132818
H	-0.5488199131	 1.8734245284	-0.8161181409	 0.126948
H	-0.5035441437	 1.8461452408	 0.9651471746	 0.1262
H	-0.9694963058	-0.4481191867	 0.0505450564	 0.052725
H	-0.2242004502	-2.2676075788	-1.331152492	 0.089858
H	 1.311503365	-2.0338155382	-2.1940007066	 0.109394
H	 1.4309070997	-3.5009619404	-0.0499546317	 0.079536
H	 3.4763020703	-2.5349343341	-0.9561830854	 0.104265
H	 3.1236901706	-0.960630031	-0.2345429566	 0.113605
H	 3.6835032601	-1.7975540608	 1.7193421256	 0.291261
H	-0.1774896992	-2.3040342751	 1.3038753015	 0.088848
H	 1.3908233856	-2.1299816953	 2.1160680609	 0.106592
