19
gdb 70103	2.46666	1.86697	1.34528	1.1679	81.3	-0.2163	0.0174	0.2338	1006.4216	0.15988	-385.869661	-385.861971	-385.861027	-385.901221	31.884	
O	-0.1008728339	 1.3652622549	 0.0410251626	-0.463783
C	 0.0462799405	-0.0200018303	-0.0037066795	 0.325633
C	-0.5383270349	-0.7839343836	 1.1393840793	-0.31256
C	 0.9766507404	-0.7993052596	 0.9203789764	-0.180101
C	 1.5082565715	-1.9158961231	 0.0886503311	-0.09703
C	 1.0115268315	-1.8822022217	-1.1540595955	-0.160956
C	 0.1074415249	-0.7171952244	-1.3544419593	 0.274359
C	-1.0923611143	-0.7622097204	-2.2753553845	-0.306302
C	 0.0960858134	 0.0789529933	-2.6467110039	-0.329963
H	 0.6947354466	 1.7567293296	-0.3374051238	 0.281895
H	-0.8931699064	-0.1770537659	 1.9653319367	 0.117364
H	-1.0993361409	-1.6926320749	 0.9473637929	 0.112824
H	 1.5972698238	-0.3020468709	 1.6579044199	 0.087663
H	 2.1922757846	-2.6651984968	 0.4697804812	 0.094877
H	 1.209454214	-2.6045280027	-1.9381052753	 0.094279
H	-1.2745656735	-1.6768187215	-2.8296420177	 0.11177
H	-1.9884439181	-0.25014331	-1.9400739745	 0.123119
H	-0.0119202812	 1.1548829015	-2.5641512695	 0.114309
H	 0.7422806618	-0.2535033733	-3.4518933164	 0.112603
