16
gdb 8503	3.92507	2.07192	1.624	2.8171	64.56	-0.2281	0.0727	0.3008	812.3408	0.128944	-383.648051	-383.64094	-383.639996	-383.678789	27.975	
C	-0.0142305299	 1.4607347249	-0.0309344074	-0.520051
C	 0.0478316781	-0.0365415323	-0.0861535537	 0.310923
C	 0.5754318694	-0.9758772429	-1.1964881195	-0.388462
C	 0.0828942476	-1.9534053915	-0.1033165296	 0.365691
O	 0.0149398111	-3.3252819504	-0.1200661866	-0.460336
C	 0.5209871494	-0.9887927248	 1.0629054205	-0.031785
O	-0.7744000796	-1.0166416592	 1.7289043317	-0.326225
C	-1.0983540936	-1.0324878166	 0.3082791561	 0.003217
H	 0.9849846302	 1.9035738801	-0.10222561	 0.12116
H	-0.6175958842	 1.8651498617	-0.8505328389	 0.122507
H	-0.4637079331	 1.7784082235	 0.9155088097	 0.137565
H	 0.0199417043	-0.9795412117	-2.1390326947	 0.101944
H	 1.6536287146	-0.9482348269	-1.3857768406	 0.091853
H	 0.9003937799	-3.6786535169	-0.2588372831	 0.288213
H	 1.4271272523	-0.9600910173	 1.669146683	 0.089079
H	-2.1443294364	-1.0551867597	 0.0024554431	 0.094707
