23
gdb 104204	2.4957	1.25318	1.18047	1.251	85.45	-0.2603	0.0743	0.3346	1223.5938	0.204574	-388.264881	-388.255118	-388.254173	-388.299	37.688	
C	-0.4566999577	 1.5187752235	 0.2696582099	-0.46469
C	-0.0544267925	 0.0645639974	 0.0530004316	 0.264935
C	-1.2435919883	-0.7690769229	-0.4229205624	-0.115334
O	-1.6822618084	-0.2560649932	-1.6748111864	-0.4269
C	 1.2056146132	-0.1837728226	-0.8397852379	-0.250398
C	 1.7709164705	-1.162174167	 0.2294883916	-0.307939
C	 0.698510166	-0.6541673781	 1.2012692973	 0.341266
C	 0.9724624247	-0.0969914877	 2.5678512993	-0.326489
C	 0.1397859072	-1.3488534961	 2.4102037114	-0.334366
H	 0.4003764367	 2.1209663759	 0.5856302047	 0.107891
H	-0.8595214481	 1.9431006502	-0.6541129532	 0.133052
H	-1.2326535463	 1.6073719507	 1.0404980119	 0.102604
H	-0.9436358161	-1.8248013798	-0.5132040838	 0.082024
H	-2.0497301769	-0.7212801743	 0.3275439561	 0.07947
H	-2.4287035852	-0.7838553517	-1.9719319486	 0.286432
H	 1.005826581	-0.5882725732	-1.8336958732	 0.105503
H	 1.8153766592	 0.7169663285	-0.945993754	 0.095903
H	 1.6448225117	-2.2151691498	-0.0421391911	 0.097556
H	 2.8112141933	-1.0093158722	 0.5298969983	 0.095556
H	 1.9790682139	-0.1964645886	 2.9626094025	 0.107408
H	 0.4657356609	 0.8144965082	 2.8685080635	 0.111163
H	-0.9249870668	-1.2750052019	 2.6091068368	 0.107499
H	 0.5782538881	-2.2994989155	 2.6984045756	 0.107856
