16
gdb 72372	2.61061	1.66977	1.41787	2.6725	69.39	-0.2482	0.0018	0.2499	960.6934	0.124758	-437.911297	-437.903408	-437.902464	-437.94375	29.848	
O	 0.0423879265	 1.3919309485	-0.0701760833	-0.479092
C	 0.0344840789	-0.0112184596	-0.0778353162	 0.266305
C	 0.7719692409	-0.6425973224	-1.2794875627	-0.343546
C	-0.1878413622	-1.684609258	-1.8004540304	-0.054312
C	-1.3437895298	-1.7205029211	-1.1352493102	-0.090217
C	-1.3648455942	-0.7245969296	-0.0101573485	-0.051693
N	-0.9466769104	-1.2324390194	 1.3186785214	-0.336474
C	 0.2888215707	-0.6480804894	 1.3162865497	 0.357855
O	 1.1931234792	-0.5963530041	 2.1108973403	-0.375733
H	 0.6687460748	 1.6730152639	 0.6070925867	 0.298492
H	 0.9686652116	 0.1410448145	-2.0214695743	 0.126243
H	 1.7440553066	-1.0662068106	-1.0003978985	 0.127135
H	 0.0625506581	-2.3244239238	-2.6402531134	 0.104794
H	-2.1740594645	-2.3822088251	-1.3544596072	 0.100358
H	-2.2418251463	-0.074682606	 0.0391421236	 0.099373
H	-1.3644067199	-1.9012114977	 1.949801643	 0.250512
