20
gdb 110770	2.6154	1.33736	1.14924	2.9157	79.58	-0.2455	0.0271	0.2726	1178.3074	0.172001	-403.159837	-403.151353	-403.150409	-403.19364	32.263	
C	 0.3692491344	 1.2631079377	-0.3819867447	-0.373879
C	-0.1131303578	-0.1405262389	 0.0027713574	-0.215366
C	 0.5426494456	-0.6435564174	 1.2733895464	-0.038807
C	 0.6999113317	-2.1134794452	 1.6442985711	-0.122633
C	 0.6151877747	-3.1572813209	 0.5463264702	-0.318307
C	 1.7211533865	-2.7773336135	-0.4274833252	 0.400258
N	 1.9449089089	-3.3310187102	-1.5384290022	-0.53744
O	 2.4450030233	-1.721933789	 0.0721995494	-0.231585
C	 1.9068411917	-1.279569416	 1.3048349013	 0.06859
H	 1.4463602487	 1.2631728694	-0.5758446226	 0.128222
H	-0.1372587892	 1.6198073348	-1.2838705147	 0.114419
H	 0.1730092692	 1.9844205402	 0.418979591	 0.112178
H	-1.2008099071	-0.133504724	 0.1480195658	 0.101597
H	 0.075670549	-0.825985651	-0.8288814357	 0.120335
H	 0.3542896539	-0.00903299	 2.1380430965	 0.090289
H	 0.4937378505	-2.4155803006	 2.6637161273	 0.097122
H	 0.8073620951	-4.1597186593	 0.9409217787	 0.136982
H	-0.3435363035	-3.1962047862	 0.0226597951	 0.139309
H	 2.737075331	-2.8884613351	-2.0072419915	 0.222869
H	 2.6787632535	-0.9828494847	 2.0041094666	 0.105846
