19
gdb 113741	2.49086	1.24929	0.9834	2.8147	76.04	-0.2578	0.0343	0.2921	1265.4312	0.158538	-419.180839	-419.171014	-419.17007	-419.216092	35.118	
C	 0.3565426931	 1.0926253879	 0.3581647687	-0.231289
O	-0.3405620515	 0.0821390983	-0.3474368421	-0.235447
C	 0.3980403969	-0.4935802502	-1.3728799733	 0.114085
C	 1.4354209307	-1.5451362992	-1.0557993567	-0.348395
C	 0.1015126408	-1.9297746512	-1.6693810007	-0.0514
C	-0.9639900474	-2.7009021292	-0.8925890189	-0.11733
N	-1.0169278902	-4.0796505808	-1.3988120697	-0.503662
C	-0.7629481117	-2.6585580735	 0.5723227467	 0.274281
N	-0.6100780259	-2.7281168092	 1.7165635793	-0.353137
H	 1.2675846611	 0.700167009	 0.8290835679	 0.117978
H	 0.6341878514	 1.9250297384	-0.305349385	 0.106816
H	-0.3176921889	 1.462516267	 1.13301863	 0.135725
H	 0.5906795461	 0.1712315039	-2.2169254745	 0.090975
H	 2.3268916931	-1.6068302534	-1.6697990326	 0.116378
H	 1.5799921889	-1.7843245063	-0.0075187001	 0.147113
H	 0.0950319568	-2.2237763497	-2.7135655101	 0.112417
H	-1.9386866816	-2.2409462172	-1.0952461544	 0.140344
H	-0.1376086566	-4.5467006516	-1.1915059518	 0.241497
H	-1.7386850551	-4.5989388129	-0.9068812428	 0.243051
