20
gdb 68297	2.71539	1.52414	1.39599	1.5254	79.17	-0.2404	0.0704	0.3108	1044.924	0.171548	-403.062643	-403.054659	-403.053714	-403.094915	32.012	
O	-0.3769136768	 1.3485587607	 0.0634461392	-0.469925
C	-0.0617552432	 0.0005977854	 0.031775005	 0.2769
C	 0.6157652399	-0.8567346401	-1.0675985342	-0.242718
N	 0.2321167232	-1.8951543616	-0.0032292214	-0.183119
C	 0.7491033494	-0.8746397456	 1.0212977771	-0.242714
C	-1.1013272739	-1.1268508927	 0.0884608431	 0.40363
C	-2.0933492763	-1.3556452448	 1.2465532338	-0.326123
C	-3.2559545842	-1.2051792275	 0.225302514	-0.225804
C	-2.2327640355	-1.3369214199	-0.9378694139	-0.326121
H	 0.4374521373	 1.8614253992	 0.0156929484	 0.282532
H	 0.0998596547	-0.9885176113	-2.0202561611	 0.108065
H	 1.6967237739	-0.7621313402	-1.2043968725	 0.093048
H	 1.838784849	-0.7812102132	 1.021154302	 0.093049
H	 0.3583563943	-1.0232265513	 2.0294244946	 0.108065
H	-2.0111656874	-2.3711321364	 1.6455221804	 0.113378
H	-2.0663096539	-0.6459558752	 2.0769177307	 0.106182
H	-4.0467298154	-1.9562762166	 0.2693334554	 0.100632
H	-3.7130956757	-0.2138369264	 0.2629754488	 0.111482
H	-2.3107227964	-0.6131282167	-1.752695456	 0.10618
H	-2.203071253	-2.3453580462	-1.3613284731	 0.113378
