21
gdb 79012	3.59742	1.68136	1.52433	0.0112	84.19	-0.2536	0.0958	0.3495	964.5084	0.186618	-349.950101	-349.943505	-349.942561	-349.980569	28.837	
C	-0.1889981386	 1.5970193157	 0.0197427345	-0.426603
C	 0.0354306879	 0.0930558174	 0.0201660323	 0.048651
C	 1.1718039683	-0.5626526303	-0.8290819783	-0.066543
C	 2.4661855667	 0.0737467116	-0.2887582374	-0.058542
C	 3.1919576137	-0.9237469232	 0.5957730401	-0.076248
C	 2.5285526265	-2.2774432126	 0.4304589168	-0.249599
C	 1.1179265634	-1.7668177234	 0.1748156499	-0.031992
C	 0.7848736881	-0.6198220375	 1.1917735222	-0.066543
C	 2.1805735506	 0.0315396725	 1.2029508426	-0.058543
H	 0.7375280156	 2.145394283	 0.2126512572	 0.115839
H	-0.5832839973	 1.9334403628	-0.9459771848	 0.109883
H	-0.9153784279	 1.8843707513	 0.7885449108	 0.109883
H	-0.9117372844	-0.4243249093	-0.1758247383	 0.061768
H	 1.083264631	-0.6996673186	-1.9078414711	 0.051848
H	 2.968634385	 0.8987773682	-0.7753260005	 0.078764
H	 4.2502185561	-0.8140356148	 0.8014972745	 0.076125
H	 2.9304917345	-2.8478969819	-0.4149711717	 0.093986
H	 2.5959884504	-2.8973223894	 1.3320835685	 0.093986
H	 0.3239265897	-2.4916991579	 0.0022840944	 0.063269
H	 0.30583932	-0.8145330224	 2.1524753061	 0.051848
H	 2.4593092708	 0.8235085988	 1.8848380123	 0.078764
