20
gdb 82920	2.91936	1.42521	1.17793	1.1696	78.77	-0.2212	0.074	0.2952	1139.9897	0.170608	-403.121655	-403.113328	-403.112384	-403.154017	32.749	
C	-0.1030743937	 1.4741657314	-0.0299166939	-0.41984
C	-0.0287300648	-0.028719099	-0.1467733161	 0.022093
C	 0.8719199713	-0.7042539518	-1.1209943757	-0.130757
N	 1.2192087949	-0.6495235503	 0.3198650408	-0.130574
C	 1.1252585667	-2.0269148269	 0.8581762139	-0.198967
C	 0.713158738	-2.9469079591	-0.2786358788	-0.029934
O	-0.5894512408	-2.6680585264	-0.8138917211	-0.295361
C	 0.5610456771	-2.138012369	-1.5022184472	 0.421137
C	 0.7860910218	-2.6158714794	-2.9094315897	-0.49761
H	 0.8658279448	 1.9291599978	-0.2529127928	 0.122668
H	-0.8485630597	 1.8811394125	-0.7216881342	 0.115306
H	-0.3881714153	 1.7692308311	 0.9857655497	 0.120189
H	-0.9497334375	-0.5662999124	 0.0633958425	 0.107141
H	 1.4969551568	-0.1314447952	-1.8021125252	 0.081851
H	 2.1154660406	-2.3200939079	 1.2270052724	 0.109947
H	 0.4276568064	-2.0689964676	 1.701579923	 0.117304
H	 1.0056742768	-3.9959884068	-0.2813431584	 0.093455
H	 0.1206416294	-2.0955529883	-3.6066756593	 0.13264
H	 1.81755228	-2.4241722856	-3.2230856905	 0.127228
H	 0.588894017	-3.6876014672	-2.9861675295	 0.132084
