22
gdb 88846	3.5518	1.07136	0.9001	1.1922	88.9	-0.2193	0.0289	0.2482	1367.8682	0.1948	-367.194291	-367.185394	-367.18445	-367.228295	33.989	
C	-1.5145154106	-0.1166017995	 2.4573498898	-0.414237
C	-0.7388992142	-0.7376950506	 1.3150429318	 0.032925
C	-0.4037641318	 0.0421001326	 0.0899140157	-0.258003
N	 0.654182649	-0.4066390002	 0.9919971374	-0.09174
C	 1.3703758864	 0.6118432853	 1.7619778345	 0.02823
C	 2.0406823383	 0.0075507723	 3.0223815692	-0.226341
C	 3.4363733284	 0.6739297683	 3.1226231988	-0.257141
C	 3.6579782222	 1.2038757752	 1.7257878949	-0.068136
C	 2.5495094219	 1.1660218113	 0.991363695	-0.061497
H	-1.3775651615	 0.9652130848	 2.521339221	 0.122012
H	-2.5848624074	-0.3039516093	 2.3190612128	 0.12074
H	-1.2251365531	-0.5547108314	 3.4190219709	 0.123744
H	-0.9413779909	-1.8006018766	 1.1867934239	 0.087355
H	-0.4215593363	-0.4148806569	-0.8964671444	 0.109835
H	-0.6660054391	 1.1007265184	 0.1007826892	 0.101469
H	 0.7040820003	 1.4489069205	 2.0400447467	 0.056327
H	 1.4392907658	 0.1377912572	 3.9256736059	 0.091456
H	 2.1531771588	-1.0663117219	 2.8465626352	 0.115391
H	 3.4463169722	 1.4933311124	 3.8552014916	 0.103414
H	 4.2157981348	-0.0275897021	 3.4415850762	 0.103153
H	 4.613633692	 1.5964602192	 1.3947903144	 0.090116
H	 2.4511990848	 1.5137605309	-0.0309356207	 0.090928
