20
gdb 92158	2.54268	1.9026	1.31815	2.4246	77.83	-0.2237	0.0711	0.2948	1012.6862	0.172048	-403.112165	-403.104203	-403.103259	-403.144087	32.047	
C	-0.0052556249	 1.4764284249	-0.0049451473	-0.476584
C	-0.0821537364	-0.026519929	 0.0478277304	 0.349349
C	 0.2747399523	-0.8025811615	 1.2538966888	-0.094325
C	-0.1091322153	-2.2400743382	 0.8207767008	-0.067936
C	 1.1120937787	-2.1540801991	-0.1234890305	-0.157122
N	 1.2660308065	-0.678922446	 0.1192205412	-0.196625
C	-1.3983751401	-2.071620198	 0.0120289129	-0.25364
C	-1.1792487558	-0.7399114368	-0.7520806411	 0.055079
O	-2.3306934511	 0.0951446453	-0.7685476301	-0.441289
H	 0.8180261016	 1.8314453934	 0.6197729125	 0.121562
H	 0.1779315989	 1.8170359345	-1.0297088538	 0.118157
H	-0.9411184789	 1.9233064706	 0.3376059729	 0.132186
H	 0.4650453227	-0.4128622394	 2.247576576	 0.08806
H	-0.1233966312	-3.0386888915	 1.56202232	 0.071341
H	 2.0021892372	-2.6507955659	 0.2705784014	 0.109016
H	 0.9750667203	-2.450792586	-1.1706667243	 0.093271
H	-1.5951334144	-2.9224252934	-0.649987205	 0.08937
H	-2.2592844364	-1.9382360589	 0.6767326442	 0.105968
H	-0.8399764221	-0.9170352965	-1.7842663008	 0.071168
H	-3.0001436714	-0.3372281284	-1.3075149381	 0.282993
