20
gdb 53967	3.05576	1.04947	0.94578	3.4411	80.59	-0.2457	0.0296	0.2753	1314.4322	0.167016	-403.159307	-403.148246	-403.147302	-403.195952	40.009	
C	 0.0410277939	 1.5642550707	 0.002382375	-0.416353
C	 0.0373750112	 0.0222752397	 0.0226393272	 0.117054
C	 0.8113228396	-0.5011068563	 1.2495737105	-0.416147
C	-1.4244965382	-0.5050125175	 0.05231342	-0.374167
C	-2.1798091939	-0.079652812	 1.2239961626	 0.301616
C	-2.799143647	 0.2740177187	 2.1926395594	-0.443723
C	 0.6786928022	-0.5227583017	-1.2744495672	 0.405194
N	 1.977584423	-0.1636446954	-1.4865739964	-0.527055
O	 0.0781692605	-1.2280290324	-2.0640983561	-0.369838
H	 1.0563628705	 1.972271986	 0.0234637883	 0.100275
H	-0.4557178235	 1.9487685381	-0.8941683682	 0.126516
H	-0.4917305468	 1.9483083577	 0.8767199814	 0.138392
H	 0.3067625961	-0.1885447992	 2.1680021323	 0.138332
H	 0.8641908143	-1.5945473599	 1.2461542848	 0.126584
H	 1.8354876322	-0.1166627062	 1.2826709882	 0.100324
H	-1.9349119949	-0.1785302384	-0.859516934	 0.141674
H	-1.405333186	-1.5981936941	-0.0029355266	 0.141879
H	-3.3610350446	 0.5765994924	 3.0411440482	 0.191133
H	 2.4978859841	 0.4160573467	-0.8539373665	 0.257682
H	 2.4286075173	-0.5005821472	-2.3208362629	 0.260629
