17
gdb 8695	2.72675	1.69317	1.322	4.9797	64.6	-0.2433	0.0354	0.2786	987.1203	0.142431	-397.175057	-397.165942	-397.164998	-397.208373	33.146	
N	-0.1892381795	 1.4113472648	 0.1668037455	-0.53001
C	 0.077843718	-0.0097852171	-0.0585024644	-0.204563
C	 0.8612681247	-0.5500351233	 1.1629794961	 0.231964
O	 0.1917591601	-0.1676044275	 2.3445662896	-0.452244
C	 0.9544941428	-2.0796324027	 1.1565306078	-0.175708
N	 1.7147582802	-2.532284203	 2.3124226053	-0.50612
C	 2.2223028667	 0.0570929226	 1.1299532985	 0.281786
N	 3.2371906804	 0.6037904332	 1.045307919	-0.352464
H	 0.629367475	 1.9692451265	-0.0561078844	 0.255369
H	-0.9513571617	 1.7382692609	-0.4145370867	 0.245532
H	-0.8800267635	-0.5379662965	-0.0890220812	 0.118241
H	 0.6258509345	-0.234296816	-0.9842884533	 0.110868
H	-0.153309874	 0.7219112576	 2.1520210279	 0.293399
H	-0.0832349045	-2.451267135	 1.1083672832	 0.091432
H	 1.4686241061	-2.4019000974	 0.2440542745	 0.113698
H	 1.224518777	-2.2668804632	 3.1605079036	 0.246463
H	 1.7953206776	-3.542874494	 2.3101548591	 0.232357
