13
gdb 13061	4.1866	1.42775	1.12524	5.3138	56.44	-0.2655	-0.0058	0.2597	984.0532	0.094773	-435.766685	-435.759042	-435.758098	-435.799852	25.718	
O	-0.0312263692	 0.0579192299	-0.1534769846	-0.264455
C	 0.0550685506	 1.2417682545	-0.2619869106	 0.171804
O	 1.034528441	 1.9457455731	 0.3641101677	-0.196745
C	 1.0285919514	 3.3484739752	 0.1666558068	-0.037186
C	 2.3300761401	 4.0364946379	 0.6504817744	-0.182895
N	 2.5049132841	 4.5122799979	-0.7284629525	-0.327853
C	 1.4344980957	 3.8417433495	-1.2585388354	 0.421497
O	 1.0058081838	 3.687045156	-2.3686445304	-0.348504
H	-0.6199979249	 1.8771589845	-0.8608255379	 0.109357
H	 0.1074459229	 3.8007298238	 0.5461582286	 0.122482
H	 2.2032831969	 4.8298320153	 1.3915185189	 0.12705
H	 3.0868088572	 3.3206447636	 0.9814066447	 0.141913
H	 3.2515829704	 5.0284607187	-1.1698898198	 0.263535
