23
gdb 90291	3.00862	1.21638	1.08751	0.4396	92.69	-0.2204	0.0249	0.2453	1265.3471	0.206635	-351.150336	-351.14157	-351.140626	-351.183435	34.935	
C	-0.2245022753	 1.4874167936	-0.2068797692	-0.392641
C	-0.0422059904	-0.0179416311	-0.0738396311	-0.004317
C	 1.2213336392	-0.5759946789	-0.8471901757	-0.339061
C	 1.9130751778	-0.5638246386	 0.4943881477	 0.314829
C	 2.9627763723	-0.1210974647	 1.1768528169	-0.253368
C	 2.5510084441	 0.1642350256	 2.6248585365	 0.012966
C	 3.2311564405	 1.399604163	 3.2222751229	-0.394746
C	 0.9905367999	 0.2999984745	 2.5221826117	-0.262338
C	 0.629111142	-0.5240562636	 1.2720844214	-0.049045
H	 0.7093408324	 2.0217043755	-0.0001293067	 0.119186
H	-0.5393637964	 1.7511975902	-1.2222459765	 0.112151
H	-0.9857698931	 1.8611304834	 0.4863692924	 0.114772
H	-0.9756955334	-0.5325380294	-0.3197728873	 0.066118
H	 1.039058557	-1.5821372057	-1.2393428365	 0.106134
H	 1.6434629442	 0.0423206671	-1.6446162099	 0.104586
H	 3.9562179329	 0.0960328268	 0.7987982178	 0.084544
H	 2.7981607151	-0.6963530364	 3.26593817	 0.07376
H	 3.036825507	 2.2871478733	 2.6091956337	 0.111299
H	 2.8611606794	 1.601981421	 4.2333257101	 0.110548
H	 4.3166544974	 1.2672931276	 3.2861238663	 0.109898
H	 0.4824507829	-0.0306584244	 3.4333107704	 0.088488
H	 0.7397770943	 1.3575339429	 2.37593937	 0.097326
H	 0.2319175403	-1.5145575118	 1.5262126951	 0.068909
