19
gdb 35567	2.82811	1.45919	1.2339	1.0753	79.66	-0.2449	0.0457	0.2906	1073.1939	0.16037	-385.853452	-385.845574	-385.84463	-385.886063	31.082	
C	-0.3823997498	-1.2299925936	-0.5503032606	-0.475199
C	-0.2422790422	-0.0689343446	-0.2655537186	 0.338359
C	-0.0484062844	 1.3197109296	 0.0960822457	-0.184769
C	 0.0218077964	 1.6679702057	 1.622706158	-0.269302
C	 1.3870833633	 2.3805884297	 1.4027505572	 0.11929
O	 2.5059719849	 1.7873174265	 2.0267314572	-0.254795
C	 2.8622744522	 0.6307285035	 1.2713433378	-0.094358
C	 2.5804948134	 0.993072584	-0.1970303562	-0.238614
C	 1.3852810556	 1.9481365097	-0.0982327949	-0.055569
H	-0.5228651586	-2.2508388969	-0.8067017183	 0.196216
H	-0.7992209349	 1.9324154036	-0.411822726	 0.103416
H	-0.7902302124	 2.3045389494	 1.9799327455	 0.106237
H	 0.0977897477	 0.7951963951	 2.2733694696	 0.120244
H	 1.4020135437	 3.4470649521	 1.636005739	 0.079488
H	 3.91212902	 0.4099115245	 1.4796543118	 0.10888
H	 2.260216573	-0.2379028088	 1.5772215704	 0.101406
H	 3.4362704509	 1.5229805815	-0.6253831464	 0.104692
H	 2.3730796165	 0.1140448791	-0.81180425	 0.118159
H	 1.4146553446	 2.7371274899	-0.8500826611	 0.076219
