19
gdb 37523	3.58035	1.90662	1.66528	1.6267	76.91	-0.2326	0.0965	0.3291	868.6805	0.164014	-385.864346	-385.858554	-385.857609	-385.894158	25.598	
C	-0.066066323	 1.6162035592	-0.0639641168	-0.249829
C	 1.4671200128	 1.5122548899	 0.0126991401	-0.039443
C	 1.3489386666	 0.1947724789	 0.8423881058	-0.044498
C	 2.451153046	-0.4810158672	-0.0078222126	-0.053342
C	 2.1233878672	-1.8800364531	-0.5101462742	-0.09931
O	 1.0153254916	-1.6834024212	-1.4002713967	-0.286664
C	 0.6519008626	-0.3109328524	-1.3348291684	 0.144462
C	-0.0018739369	 0.0703489304	 0.0092755172	-0.070619
C	 1.9496259333	 0.5108429951	-1.1003571402	-0.087422
H	-0.4853588303	 2.0640976668	 0.8418744256	 0.098118
H	-0.53073272	 2.0698848046	-0.946531459	 0.089613
H	 2.1252682488	 2.3383548944	 0.2786381351	 0.065321
H	 1.2982621134	 0.1552190414	 1.9296222294	 0.064404
H	 3.4643548761	-0.3294002257	 0.3663115541	 0.070026
H	 2.9514015967	-2.3398242956	-1.0661992591	 0.096619
H	 1.8377044478	-2.5611862423	 0.3032463926	 0.095954
H	 0.0586099517	-0.0797767745	-2.2208518369	 0.075366
H	-0.8430522108	-0.538533163	 0.338201748	 0.066884
H	 2.5491205864	 0.8019229542	-1.961168314	 0.06436
