18
gdb 16571	3.00823	2.54166	2.12906	0.7044	65.89	-0.2319	0.0826	0.3145	749.9238	0.157844	-384.952365	-384.946194	-384.94525	-384.982406	25.184	
C	-0.031148528	 1.5743561958	-0.0207083292	-0.216695
C	 1.4717263795	 1.9648425343	-0.0336527395	-0.216681
C	 2.1814050621	 0.5921985198	 0.0164229286	 0.076662
C	 2.3841613682	 0.1025216891	 1.4526308602	-0.081803
O	 1.1580486807	 0.1572043044	 2.1729786689	-0.257741
C	 0.1022718739	-0.490415906	 1.472142737	-0.081806
C	 0.0179851689	 0.0300681654	 0.0349306169	 0.076669
O	 1.2526609916	-0.2987106249	-0.6166310505	-0.272197
H	-0.5646240857	 1.9980152707	 0.8330971716	 0.107853
H	-0.5343980342	 1.9038339074	-0.9323738328	 0.103228
H	 1.7361858699	 2.4936592634	-0.9520035444	 0.103231
H	 1.7452059643	 2.5982945374	 0.8131144952	 0.107847
H	 3.119305111	 0.553077897	-0.5442183877	 0.077127
H	 2.7719175815	-0.928148541	 1.4263344597	 0.09386
H	 3.092755398	 0.732663413	 1.9996181179	 0.104728
H	 0.2649146228	-1.5795804561	 1.4477643033	 0.093861
H	-0.8145765253	-0.2826421004	 2.0330329851	 0.104729
H	-0.7910989093	-0.4629538292	-0.5107933903	 0.077128
