21
gdb 103828	2.49782	1.11901	0.96007	2.8537	75.44	-0.2454	0.0563	0.3017	1336.7907	0.180118	-461.342052	-461.331735	-461.330791	-461.377287	38.64	
C	 0.2272604375	 1.2116591031	 0.0097547725	-0.409359
C	-0.0350350007	-0.2882582753	 0.1154195372	 0.118489
O	 0.5694527235	-0.8410933257	 1.2965367444	-0.444471
C	-1.5022124664	-0.6480675025	 0.1007671182	-0.088935
C	-2.3043503742	-0.8624379242	-1.1715846111	-0.369894
C	-1.913444882	-2.0423719016	-0.3436887342	 0.399706
O	-0.9303083764	-2.8543461396	-0.9235717557	-0.464
C	-2.8547998176	-2.8143325491	 0.5429744837	-0.13055
O	-2.0980185076	-3.4576521662	 1.567528072	-0.428374
H	 1.3008854614	 1.4170909114	 0.0477736866	 0.124471
H	-0.1728822374	 1.6128457057	-0.9262165723	 0.124954
H	-0.2563837754	 1.7527769876	 0.8337659624	 0.103589
H	 0.4553372189	-0.8099277466	-0.7114567954	 0.105915
H	 0.3595981013	-0.2521789625	 2.0298863675	 0.27408
H	-2.0639632945	-0.2296120696	 0.9363928908	 0.069166
H	-3.338428858	-0.5355253487	-1.1899827249	 0.113474
H	-1.7833326596	-0.769254622	-2.1190170471	 0.126279
H	-0.5928928531	-3.408562578	-0.2068649959	 0.289468
H	-3.6292744925	-2.1526265062	 0.9589620028	 0.085601
H	-3.3492610369	-3.6183415456	-0.0114374054	 0.116558
H	-1.5536235103	-2.7756610544	 1.9825687938	 0.283831
