16
gdb 69628	3.39233	1.22317	1.16477	5.4151	74.31	-0.2354	0.0155	0.2509	1091.5094	0.123796	-400.686616	-400.678899	-400.677955	-400.718558	30.486	
O	-0.082535299	 1.3870174976	 0.0492524978	-0.449856
C	-0.0045335795	 0.0120636101	 0.0159643456	 0.398409
C	-0.2669523148	-0.8096515992	-1.2162642297	-0.375336
C	-1.1545390637	-0.9598047428	 0.0026508493	-0.160437
C	-0.4992088374	-1.7695469392	 1.1655721523	 0.195949
C	 0.9252269658	-2.2212136769	 0.8961153486	-0.346993
C	 0.6773391201	-0.7758406283	 1.1773719456	-0.170637
C	-1.2468018604	-2.2463734088	 2.2769915906	 0.201868
N	-1.8700205702	-2.6322057521	 3.1742421937	-0.352127
H	 0.6896108891	 1.7493240016	-0.4008133586	 0.291089
H	-0.7477176223	-0.2314490209	-1.9999738744	 0.130124
H	 0.3844325674	-1.5928581651	-1.588359146	 0.118073
H	-2.2177223927	-0.7659628484	-0.0247287644	 0.120116
H	 1.3692186946	-2.7742753683	 1.7178547914	 0.143851
H	 1.2155950387	-2.5861933082	-0.0816360323	 0.130107
H	 1.0645073543	-0.268550521	 2.0510262506	 0.125799
