18
gdb 46351	3.44683	1.10602	0.88588	2.6241	72.6	-0.2501	0.0202	0.2702	1278.1803	0.148394	-439.054002	-439.045684	-439.04474	-439.088547	29.629	
N	-0.290303219	 1.1045177888	-0.5000004115	-0.544244
C	-0.0968301911	-0.068708612	-0.104561655	 0.433139
O	 1.0551076235	-0.7070692982	 0.3061650281	-0.252262
C	 0.3189551391	-1.9353797299	 0.603730501	-0.111288
C	-0.9955912235	-1.2706466471	 0.1306254793	-0.14319
C	-2.122150747	-1.0778713888	 1.1307736221	-0.041665
C	-3.3531375097	-0.3150481868	 0.5884519227	-0.082376
O	-4.1603565743	-1.5132800135	 0.6189274186	-0.271847
C	-3.1150481674	-2.2558289906	 1.2725034755	-0.090389
H	 0.5743966307	 1.648072984	-0.5093410408	 0.230614
H	 0.6919028582	-2.769349411	 0.0051509623	 0.124823
H	 0.3776287852	-2.1746195913	 1.6691666761	 0.121321
H	-1.383557678	-1.6901599161	-0.8026969426	 0.114908
H	-1.7278240807	-0.6926371701	 2.0745348157	 0.084292
H	-3.7446072569	 0.4606669182	 1.2576368096	 0.10474
H	-3.2563487538	 0.0999281596	-0.4200784402	 0.124831
H	-2.8597682636	-3.1759572172	 0.7306809087	 0.098746
H	-3.3776980618	-2.5160842982	 2.3064715903	 0.099846
