18
gdb 35249	2.3126	1.57145	1.15176	1.1104	77.02	-0.2397	0.0312	0.2708	1106.8687	0.147231	-401.856221	-401.847641	-401.846697	-401.890134	31.842	
C	 0.3620048851	-0.7639397808	 1.6029271722	-0.443003
C	 0.3243811629	 0.2338629538	 0.93253194	 0.382692
C	 0.192937109	 1.3922804439	 0.0911162546	-0.231981
N	 0.5302890161	 2.7245271571	 0.6455709239	-0.329949
C	 1.3246576498	 2.1995485715	-0.4672066228	-0.040176
C	 2.7950600843	 1.941167461	-0.2248993993	 0.150019
C	 3.2959003856	 1.4696853114	 1.1551712516	-0.303272
C	 3.8093057015	 0.2362376056	 0.3861551951	-0.05603
O	 3.2583946476	 0.7257637265	-0.8589277903	-0.297931
H	 0.4092191908	-1.6398247956	 2.2014867362	 0.200128
H	-0.6787403048	 1.344423178	-0.5598926758	 0.114207
H	-0.1440408958	 3.413892512	 0.3243042773	 0.240613
H	 1.1219906332	 2.600915075	-1.4601284213	 0.094229
H	 3.3500723739	 2.8088409264	-0.6112854763	 0.072524
H	 4.0618725656	 2.1053563348	 1.6009862451	 0.105089
H	 2.5150579646	 1.2752901087	 1.8872011398	 0.137397
H	 4.8999624473	 0.1309740221	 0.3325442512	 0.095941
H	 3.3652446534	-0.7234248315	 0.6717683589	 0.109503
