22
gdb 96872	2.21494	1.38505	1.02858	2.6643	85.04	-0.2377	0.0344	0.2721	1292.3086	0.193554	-404.382334	-404.372256	-404.371312	-404.418213	36.318	
C	 0.0233904328	 1.4405570943	-0.0170487761	-0.328321
N	 0.2282750146	 0.0024926505	 0.0526337216	-0.327011
C	 0.4673054451	-0.6413418528	-1.0037485991	 0.423753
O	 0.5319713916	-0.0936168809	-2.2554628624	-0.256439
C	 0.9601666168	-1.0581189011	-3.2378963961	 0.11989
C	 2.3880571155	-0.7470038931	-3.6733121854	-0.396558
C	 0.7708595775	-2.4388832647	-2.5702828777	-0.261812
C	 0.728850088	-2.1382312807	-1.0573499452	-0.088372
C	 1.9990468305	-2.5156956631	-0.2814692947	-0.39674
H	 0.4455513174	 1.9044017547	 0.8801549026	 0.116452
H	 0.4655196427	 1.9105107416	-0.9036082033	 0.116451
H	-1.0512577568	 1.6645331974	-0.016999922	 0.120569
H	 0.2883554506	-0.9350408709	-4.0934474624	 0.088944
H	 3.0910480326	-0.8705183596	-2.8435119177	 0.127518
H	 2.6912082598	-1.4192935341	-4.4826297704	 0.118604
H	 2.4616467298	 0.2825987003	-4.0340812299	 0.129548
H	-0.1691627637	-2.8885644175	-2.9001886481	 0.110393
H	 1.5762203588	-3.1273308173	-2.8385091087	 0.106979
H	-0.1175479637	-2.644610267	-0.5854946955	 0.104127
H	 2.8896818705	-2.049230079	-0.7154279068	 0.117369
H	 1.9136104629	-2.1784480532	 0.7542766396	 0.142841
H	 2.1486344266	-3.600048014	-0.2884196124	 0.111815
