13
gdb 129735	2.38025	1.91822	1.06347	3.4722	67.64	-0.2107	-0.0596	0.1511	1016.3155	0.089122	-489.87814	-489.870424	-489.86948	-489.910125	29.129	
N	-0.0023965362	 1.4096705276	 0.1627591847	-0.594387
C	-0.0335297069	 0.0289558933	 0.0592083049	 0.028803
C	-1.171139393	-0.7177305628	 0.0318239774	 0.435459
O	-2.3931824613	-0.1646782958	 0.0355322306	-0.405035
O	-1.2101573698	-2.0609489617	-0.0119684201	-0.268664
N	-0.0435454372	-2.8190074498	-0.0309445022	-0.075371
C	 1.0564080951	-2.145994879	-0.0154460401	-0.048783
C	 1.2192952623	-0.6867602666	 0.0168281841	 0.328464
O	 2.3150322071	-0.1304541157	-0.0005833958	-0.400059
H	 0.9128353096	 1.7645680347	-0.0879435856	 0.267197
H	-0.7656636425	 1.9037685515	-0.2752062667	 0.257852
H	-3.053355145	-0.8699319762	 0.0071537795	 0.318798
H	 1.9529798076	-2.7589554694	-0.0384911306	 0.155726
