20
gdb 54212	2.75106	1.30294	1.19639	3.2738	79.16	-0.2377	0.027	0.2646	1143.7794	0.170705	-403.200958	-403.191531	-403.190587	-403.235823	35.16	
C	 0.1882449021	 1.336007762	 0.0487752723	-0.430602
C	-0.0771508515	-0.1839004925	 0.0133173716	 0.196731
C	 0.6655362619	-0.8231769998	-1.210349085	-0.314288
C	 1.9054491347	-1.4271013278	-0.5996250303	-0.065638
C	 1.8490471878	-1.4452813498	 0.7301646669	-0.061292
C	 0.5683273395	-0.8574405562	 1.2594022669	-0.294987
C	-1.5951840343	-0.418831331	-0.0176003158	 0.363335
N	-2.2106798358	-0.0805293889	-1.1908564509	-0.522423
O	-2.2268449606	-0.8418977317	 0.9321836442	-0.368582
H	 1.2661215465	 1.5192856377	 0.1069376609	 0.125193
H	-0.1943992296	 1.8387103283	-0.8451511563	 0.104902
H	-0.2851053546	 1.7942523898	 0.9226525234	 0.129418
H	 0.0575136805	-1.5969716805	-1.6992673738	 0.11035
H	 0.8948630134	-0.0768676652	-1.9829059175	 0.093723
H	 2.7137140283	-1.8245490042	-1.2035293763	 0.090958
H	 2.6115326445	-1.8583702259	 1.3815802026	 0.092031
H	 0.7336617897	-0.1348192388	 2.0671939533	 0.099927
H	-0.0976324265	-1.623374822	 1.6716656205	 0.133464
H	-1.7022063738	 0.2002675883	-2.0100557408	 0.258761
H	-3.2027683021	-0.2339192019	-1.264966216	 0.259019
