17
gdb 15616	3.06805	1.89971	1.23808	2.2601	67.26	-0.2551	0.023	0.2781	978.8642	0.14261	-401.015406	-401.007301	-401.006357	-401.048432	29.056	
C	-0.2555631877	 1.339182631	 0.0601444643	-0.33413
N	 0.0116727158	-0.089882747	 0.0527848303	-0.353192
C	 0.599308115	-0.6338860633	 1.0239457127	 0.420017
O	 1.0440359648	-0.0327531748	 2.1597066089	-0.247918
C	 1.4820511574	-1.0439155927	 3.0983298398	-0.093788
C	 0.871477078	-2.3613218644	 2.6037838314	-0.255193
C	 0.8504985836	-2.1293586368	 1.0883657407	 0.05636
O	-0.1169771839	-2.8590046475	 0.3881188459	-0.44031
H	 0.4206555025	 1.8425969675	-0.6411323336	 0.129046
H	-1.2751377534	 1.5137678942	-0.2977783622	 0.125371
H	-0.1374713407	 1.8031677381	 1.0459174571	 0.125501
H	 2.578176227	-1.0689949924	 3.0933213376	 0.118351
H	 1.1437951458	-0.7409522657	 4.0911808116	 0.126971
H	 1.4474630007	-3.2355998782	 2.9112658721	 0.116721
H	-0.1583627201	-2.4739875179	 2.9560246413	 0.125797
H	 1.858151834	-2.3242222629	 0.6791623947	 0.089652
H	-0.4971896688	-2.2268204472	-0.2422163324	 0.290743
