19
gdb 40710	3.78268	1.13037	1.07012	1.5256	75.73	-0.2298	0.073	0.3028	1202.4292	0.15843	-422.966157	-422.957944	-422.957	-422.999712	31.269	
C	 0.6705747698	 1.2865732533	 0.4791406009	-0.16868
O	 1.3669522354	 0.0858491365	 0.1274071825	-0.234556
C	-0.058046513	 0.0711212443	 0.0987903231	 0.059226
C	-0.7393690004	-0.7976507481	 1.1244325769	 0.096399
C	-0.2437884937	-2.263548824	 1.2257944606	-0.38432
C	 0.1676515012	-1.860292161	 2.6354802948	 0.476262
C	 0.0274778594	-2.5871955438	 3.9306887031	-0.33756
C	 1.3994846286	-2.16499563	 3.4130618078	-0.322971
O	-0.3085624134	-0.5186576329	 2.4756298232	-0.315714
H	 0.7216583155	 1.5511557975	 1.5317910808	 0.134242
H	 0.761586148	 2.1053906019	-0.2328670684	 0.111629
H	-0.4909535407	 0.0100730394	-0.9022842028	 0.090115
H	-1.8275925893	-0.6865167744	 1.0267691074	 0.079803
H	-1.0205239708	-3.0271084992	 1.1595291249	 0.110817
H	 0.5817466925	-2.5047826361	 0.5542832399	 0.127271
H	-0.3812801825	-2.0305374748	 4.7673067382	 0.123527
H	-0.2368803429	-3.6398775666	 3.9113979903	 0.113111
H	 2.0748921532	-2.9267089983	 3.0371514881	 0.116325
H	 1.8849301831	-1.3324728238	 3.9107759886	 0.125074
