25
gdb 76894	2.10016	1.67749	1.31659	0.1387	90.57	-0.2684	0.0689	0.3373	1155.3466	0.231521	-352.369296	-352.360472	-352.359528	-352.402099	35.853	
C	-0.7165346266	 1.3411225081	 0.0099518706	-0.412531
C	-0.0804762383	-0.0450803484	-0.0230609872	 0.014156
C	 1.1180462552	-0.3228113585	-1.0008877557	 0.014156
C	 1.6268740799	 0.7980915589	-1.9019368456	-0.412532
C	 1.996812267	-0.7871483426	 0.2104753869	-0.020663
C	 3.1551340304	 0.1125517148	 0.6792174912	-0.213832
C	 2.5013282425	 1.2302021449	 1.5163506672	-0.20925
C	 1.2988421341	 0.5427212198	 2.1936938162	-0.213832
C	 0.8005470058	-0.5099325782	 1.1864641253	-0.020663
H	 0.0102175625	 2.1406056417	 0.1803057262	 0.11523
H	-1.2262098179	 1.5581104089	-0.9352348451	 0.110402
H	-1.4661300336	 1.404627264	 0.8066998344	 0.111932
H	-0.8824098415	-0.7695644287	-0.2002503745	 0.064147
H	 0.8855065817	-1.1792382689	-1.6426266296	 0.064146
H	 1.8854518518	 1.7060576203	-1.3495799538	 0.115231
H	 2.522489793	 0.4803369476	-2.4474988762	 0.111932
H	 0.8715265224	 1.0720354513	-2.6466754661	 0.110402
H	 2.315706067	-1.8286648766	 0.1245454319	 0.056126
H	 3.8253816152	-0.4768146616	 1.3165899133	 0.091225
H	 3.762807326	 0.4994174574	-0.1447750482	 0.092713
H	 3.1931369107	 1.6754723112	 2.2378261327	 0.090956
H	 2.1589849992	 2.0427105794	 0.8659588605	 0.100486
H	 1.6354509697	 0.0306729735	 3.1032701326	 0.091225
H	 0.5219228473	 1.2504470106	 2.4993348338	 0.092713
H	 0.3861868165	-1.3815283491	 1.6987728993	 0.056126
