17
gdb 9785	3.01467	1.61444	1.40093	4.9733	68.2	-0.2772	0.0333	0.3105	965.0221	0.140624	-363.863207	-363.8546	-363.853656	-363.896141	31.756	
C	 0.0783049796	 1.4531983563	-0.197568176	-0.416238
C	 0.0205599859	-0.0672895189	 0.0460886713	-0.19167
C	 0.7098142846	-0.4165817525	 1.2959585457	 0.284974
N	 1.2653208486	-0.686548564	 2.272461395	-0.324666
C	-1.4159034486	-0.5983978688	 0.0570991314	 0.429521
O	-2.2369029174	-0.0271269006	 1.0346552503	-0.462881
C	-2.0449588918	-1.0112937992	-1.2508496608	-0.340303
C	-1.6685356563	-2.0475582427	-0.2072207908	-0.294613
H	 1.1117611469	 1.8037086991	-0.2408481582	 0.141987
H	-0.4117551165	 1.6946169512	-1.1453038972	 0.126206
H	-0.4237212032	 1.9919096512	 0.6104298202	 0.137715
H	 0.5561944561	-0.5737894894	-0.7658111867	 0.124235
H	-2.4941839383	 0.8536927081	 0.7412062432	 0.287658
H	-3.0998013295	-0.7928270457	-1.3736695439	 0.122459
H	-1.4583324075	-0.9527855158	-2.1618362526	 0.115781
H	-0.8211537817	-2.69614922	-0.3999053461	 0.124533
H	-2.473600711	-2.5017616883	 0.3574105453	 0.135302
