19
gdb 45567	3.09208	1.44064	1.25518	4.3165	74.15	-0.2324	0.0644	0.2969	1057.5268	0.163381	-419.281741	-419.273978	-419.273034	-419.31451	30.139	
O	 0.005666916	-0.0750884284	 0.1466523185	-0.412547
C	-0.0125174464	 1.1310383602	 0.0294613096	 0.422762
N	-1.1291666704	 1.9431521846	-0.0533445364	-0.34054
C	-0.8321753904	 3.3606247917	 0.0528559748	 0.012269
C	-1.23328231	 3.9981191127	 1.4039459428	-0.214031
C	-0.0163767652	 3.7773023617	 2.3159753347	-0.208841
C	 1.1677651242	 4.0308883899	 1.369971575	-0.214033
C	 0.7461269558	 3.3822291763	 0.0304863061	 0.012266
N	 1.0786784406	 1.9733859499	-0.0847753052	-0.340544
H	-2.0217572971	 1.5555930364	 0.2005628391	 0.24975
H	-1.2626361705	 3.90935559	-0.7910067873	 0.084138
H	-1.4027000448	 5.071999883	 1.2591694272	 0.100924
H	-2.1620958278	 3.5730299	 1.7959235118	 0.097437
H	-0.0129084938	 4.4311948748	 3.1917513518	 0.100585
H	 0.0028550576	 2.7437230442	 2.6784339668	 0.118157
H	 1.3036894515	 5.1089372932	 1.2209206684	 0.100924
H	 2.1185346697	 3.6314045785	 1.735335769	 0.097437
H	 1.1373197277	 3.9422880023	-0.824970056	 0.08414
H	 1.9883853032	 1.6105052089	 0.1435727492	 0.249748
