19
gdb 87809	2.92421	1.33927	1.16627	1.6987	75.36	-0.2425	0.0697	0.3121	1130.4376	0.157827	-422.97308	-422.964515	-422.963571	-423.006103	33.042	
C	-0.0263406316	 1.5424929851	-0.0578448791	-0.412964
C	-0.0378873249	 0.0444619109	 0.0952303231	-0.030549
O	 1.2326490983	-0.6309217846	-0.0268574363	-0.309314
C	 0.5785295295	-0.6428899749	 1.2311783918	 0.475749
C	 1.2661711741	-0.1089488453	 2.4987221509	-0.322969
C	 0.8798548985	-1.4174480927	 3.213354739	-0.100243
C	-0.5908333249	-1.6363388496	 3.1594220745	 0.109249
O	-1.4548438756	-0.5393608884	 3.2587787358	-0.422723
C	 0.2035262709	-1.9416356043	 1.9162987127	-0.241529
H	 0.801325065	 1.9842496358	 0.5026614375	 0.128339
H	 0.0815525216	 1.8257095279	-1.1101945805	 0.126287
H	-0.9645512423	 1.9695256491	 0.3130087156	 0.121233
H	-0.848920725	-0.4712707768	-0.424370287	 0.078817
H	 2.3431454551	-0.0234698626	 2.3385369141	 0.118068
H	 0.8776382138	 0.813560584	 2.9362306131	 0.113964
H	 1.5128940739	-1.9486188748	 3.9131382772	 0.093897
H	-0.9289515002	-2.5254612696	 3.6937437315	 0.09121
H	-2.2181372228	-0.7103490193	 2.6972453503	 0.286692
H	 0.2305796666	-2.9209129298	 1.4529717758	 0.096786
