15
gdb 66548	3.16803	1.74082	1.44503	2.1255	67.56	-0.2258	-0.0112	0.2146	895.6905	0.112845	-420.555913	-420.549374	-420.54843	-420.586652	26.831	
O	-0.0038572879	 1.3036351984	 0.0719516155	-0.462299
C	 0.0853782936	-0.0641834171	 0.0586219876	 0.412709
C	-1.0480621407	-1.0425241612	 0.1142865021	-0.163049
C	-0.2536968209	-0.9389262929	-1.1766175712	-0.153645
C	 0.622812712	-2.1777307761	-0.9094922595	-0.193567
C	 0.0166398821	-2.097800109	 0.5558504054	-0.043356
C	 1.1090405854	-0.9679654765	 0.7910532122	-0.27392
C	 1.9404359136	-1.6385378343	-0.3172009684	 0.431112
O	 3.1044378491	-1.825733468	-0.5188644588	-0.326192
H	 0.6503917023	 1.667744675	-0.5360633984	 0.292174
H	-2.101976748	-0.9181350268	 0.318669296	 0.1057
H	-0.5401991706	-0.4909680996	-2.1189374627	 0.099351
H	 0.5778363701	-3.0447402345	-1.5645811423	 0.088815
H	-0.1058346617	-2.9501272318	 1.2163324377	 0.093315
H	 1.5026237316	-0.6706727055	 1.7597057948	 0.092852
