20
gdb 14133	4.08698	1.54477	1.34935	0.1525	79.93	-0.231	0.0329	0.2639	1001.7731	0.177783	-311.87353	-311.865712	-311.864768	-311.906005	30.323	
C	 0.0435379824	 1.523030418	-0.2411650993	-0.409445
C	 0.0748454408	 0.0227215525	-0.0517203851	-0.033299
C	 1.385088904	-0.7274824891	-0.0315331009	-0.338101
C	 0.5588590721	-0.6158746771	 1.2287482403	 0.361523
C	 1.0645251592	 0.2135721275	 2.4243028408	-0.337469
C	 0.8139381793	-0.6925222118	 3.6042650695	-0.060841
C	 0.1660814933	-1.8052641216	 3.266445666	-0.059794
C	-0.1443253544	-1.8653770586	 1.7922785825	-0.334087
H	 0.908355235	 2.0045533384	 0.2258244753	 0.115949
H	 0.0580460444	 1.7830844769	-1.3054572978	 0.114804
H	-0.8585837851	 1.9665360714	 0.1960957152	 0.114424
H	-0.7504714923	-0.4990728971	-0.5330388217	 0.075799
H	 1.44333134	-1.6927322056	-0.5256346282	 0.102788
H	 2.2989129211	-0.1420344881	-0.0901490402	 0.10213
H	 2.1244158493	 0.4826799442	 2.3278054054	 0.101693
H	 0.5205693165	 1.1626944536	 2.5374387188	 0.103944
H	 1.1229576515	-0.4292370905	 4.6101008272	 0.087916
H	-0.1338676029	-2.5879138458	 3.9548597494	 0.088176
H	-1.2298879194	-1.8443969245	 1.6150730841	 0.101829
H	 0.2207084051	-2.7912384426	 1.3279940789	 0.102063
