16
gdb 34421	2.41032	1.69593	1.27085	2.734	68.47	-0.2768	0.0098	0.2867	1003.8039	0.125891	-437.873981	-437.866507	-437.865563	-437.906343	27.718	
N	 0.0254255061	-1.1655596667	-0.063621135	-0.334165
C	 0.0076654046	-0.0108901623	-0.0054227127	 0.216405
C	-0.0253980359	 1.435593654	 0.0542179127	 0.093038
C	-0.3073206744	 2.2176151421	-1.2549069343	-0.123962
O	 0.8170125527	 3.0838244865	-1.0159681874	-0.284481
C	 1.3114471852	 2.2340848533	 0.0416057717	 0.066447
C	 1.4009851901	 2.9083981227	 1.4189098055	-0.101206
O	 0.3502101037	 2.3506773315	 2.2002478057	-0.240019
C	-0.7063509818	 2.0066347622	 1.3288363091	-0.136043
H	-0.1777081866	 1.6160475241	-2.1611768748	 0.127296
H	-1.2570466466	 2.7606052276	-1.2994223611	 0.122446
H	 2.2130869532	 1.6932897607	-0.2597157109	 0.107935
H	 2.3403442017	 2.7090661913	 1.9400449558	 0.124225
H	 1.2792267673	 3.9930147004	 1.2857735461	 0.11577
H	-1.3029035157	 2.8898509389	 1.0524536534	 0.10639
H	-1.3482380435	 1.286619564	 1.8388536262	 0.139924
