21
gdb 57591	2.09214	1.58144	1.23598	2.8461	77.67	-0.2487	-0.0214	0.2274	1138.7678	0.178322	-424.222615	-424.212278	-424.211334	-424.257599	38.145	
C	-0.0750784444	 1.6708007739	-0.2845096021	-0.451379
C	-0.0078095293	 0.1448985173	-0.0787441145	 0.090136
C	 0.5934722539	-0.206395401	 1.2908569687	-0.416085
C	-1.4487781961	-0.381980474	-0.1722115307	 0.152653
O	-1.8893781608	-1.2815713729	 0.4960940341	-0.267195
C	 0.7949843658	-0.5363097156	-1.2077377254	 0.408657
C	 2.1092750419	 0.093758764	-1.6169242335	-0.475172
C	 0.5927410595	-1.9716534472	-1.4611288742	-0.23503
O	-0.0075466241	-0.9889000654	-2.3171961075	-0.28689
H	 0.9064487724	 2.1339073228	-0.1561754858	 0.126307
H	-0.4444656413	 1.9235190916	-1.2838686431	 0.131742
H	-0.7501693603	 2.1246125874	 0.4489356526	 0.12375
H	 0.0572022148	 0.3135998023	 2.0904572676	 0.120909
H	 0.5183986932	-1.2780740176	 1.4846733664	 0.136292
H	 1.6452749848	 0.0894653317	 1.3454192723	 0.112104
H	-2.0852587199	 0.1475044986	-0.9119106786	 0.090794
H	 2.7950755281	 0.1736971184	-0.767452011	 0.126544
H	 2.5876420792	-0.5137097855	-2.388766917	 0.129954
H	 1.9579852255	 1.0964435123	-2.0262364682	 0.132169
H	 1.3983266035	-2.5464297804	-1.9150917231	 0.112914
H	-0.1044542764	-2.5434235607	-0.8524827071	 0.136823
