19
gdb 121667	3.75914	0.81831	0.72679	2.4749	74.72	-0.2396	0.0438	0.2835	1579.569	0.158913	-456.344978	-456.335154	-456.33421	-456.381619	34.319	
O	-0.350813534	 1.4753000205	 0.2546789296	-0.424678
C	-0.2348865068	 0.0687872965	 0.0673335164	-0.075923
C	-1.6467213215	-0.5013355068	 0.1006244596	-0.147793
N	-2.4802344537	 0.080635226	-0.9323015123	-0.325382
C	-2.9167883698	-0.6410529805	-2.0054517683	 0.426896
O	-2.7821919623	-1.8434320804	-2.1309347115	-0.386142
N	-3.5230967804	 0.1861570365	-2.9867839056	-0.1376
C	-4.5681646009	-0.39682045	-3.8057911503	-0.208641
C	-4.9026487462	 0.6426897176	-2.789897505	-0.233735
H	 0.5043700164	 1.878592412	 0.082062314	 0.292654
H	 0.2339533979	-0.167078658	-0.8990380985	 0.103377
H	 0.3675599416	-0.394341079	 0.8640148405	 0.091879
H	-1.6271933183	-1.5801577165	-0.0648181057	 0.14514
H	-2.0843130723	-0.3064730111	 1.0877611268	 0.110789
H	-2.4564426596	 1.0847144506	-1.0189006516	 0.255664
H	-4.5328768592	-0.1350397063	-4.8591092199	 0.120069
H	-4.8360377209	-1.4262605352	-3.5878366253	 0.141933
H	-5.4146608373	 0.3163114665	-1.8880809252	 0.130358
H	-5.1066296127	 1.6670368775	-3.0892182075	 0.121136
