17
gdb 69247	2.75018	1.57819	1.19251	2.795	74.11	-0.2417	-0.0319	0.2098	1059.6806	0.135275	-421.844054	-421.83615	-421.835206	-421.87633	30.536	
C	-0.0060587746	 1.5230999767	 0.0230336664	-0.480285
C	 0.0727963762	 0.017186419	-0.0226019101	 0.363129
O	-0.7233162689	-0.6688272858	 0.9611965683	-0.281267
C	 0.6994939243	-0.7275970428	 1.1061686425	-0.130486
C	 1.3571604083	-2.0394533231	 0.8014894146	 0.396467
O	 2.3176327512	-2.4232237027	 1.428756644	-0.314451
C	 0.76971166	-2.8135345936	-0.3728289397	-0.383536
C	 0.3799378862	-1.9210263009	-1.5244708749	-0.091482
C	 0.085066351	-0.6315724222	-1.3665541635	-0.080924
H	 0.8526661079	 1.9697487361	-0.4885556353	 0.132931
H	-0.9157773339	 1.8702477275	-0.4788329471	 0.133862
H	-0.0264926479	 1.8787593577	 1.055264923	 0.136273
H	 1.1185293933	-0.1853344732	 1.9516973996	 0.104886
H	 1.4916602111	-3.5782955222	-0.6698829112	 0.134696
H	-0.1231104607	-3.342613584	-0.0064005699	 0.155347
H	 0.3347186827	-2.3770495583	-2.5090845986	 0.109498
H	-0.1880247762	-0.0134290282	-2.2164143681	 0.095341
