18
gdb 12147	5.70819	1.2927	1.27794	1.7668	72.55	-0.2579	0.0708	0.3287	1016.4587	0.153314	-347.755556	-347.748241	-347.747297	-347.787275	28.657	
C	 0.3951069654	 1.5124699113	 0.0064356141	-0.326931
C	 1.3235408673	 0.3166196924	-0.0090502959	-0.314853
C	-0.1641809498	 0.1241239622	 0.0043358527	 0.377861
C	-0.9703843226	-0.5784758134	 1.113522169	-0.389594
C	-1.5838478948	-1.4501995943	 0.00959628	 0.465596
C	-1.8326295212	-2.8914865715	 0.0042044362	-0.262497
O	-2.9095624195	-1.9411547088	 0.0198069815	-0.27092
C	-0.9918434766	-0.5665080929	-1.0965281722	-0.389596
H	 0.3236851068	 2.0919514137	 0.9216194131	 0.112695
H	 0.306015855	 2.1018164277	-0.9008656328	 0.112695
H	 1.8608073033	 0.0995101262	-0.9271039572	 0.111548
H	 1.8784810196	 0.0896201786	 0.8960061443	 0.111548
H	-0.4031542153	-1.0945007553	 1.8933554852	 0.104054
H	-1.7185920312	 0.0680824415	 1.5839511788	 0.113764
H	-1.7246683616	-3.4581503745	-0.9202651421	 0.113406
H	-1.7068018105	-3.4681198352	 0.9202115133	 0.113406
H	-1.7489771178	 0.0850292068	-1.545308611	 0.113764
H	-0.4399195266	-1.0739967445	-1.892773797	 0.104054
