15
gdb 48473	2.18332	1.63527	1.23015	2.3131	73.85	-0.2421	-0.0363	0.2058	1052.4948	0.109535	-420.589062	-420.580439	-420.579495	-420.623098	30.905	
O	-0.6669504292	 0.8868435754	-0.5112632634	-0.239647
C	 0.3434747463	 0.87311056	 0.1342818688	 0.132465
C	 1.4312743524	 1.9735526561	 0.0761360143	 0.080291
O	 2.6953855562	 1.2993522596	 0.1491839958	-0.295466
C	 3.5094443293	 1.6642194499	-0.9692151945	-0.132914
C	 2.6315658674	 2.5266526019	-1.8291939727	-0.096914
C	 1.4549668289	 2.7073817855	-1.246000849	-0.108414
C	 1.2282195975	 2.8532878327	 1.2318290519	 0.321528
C	 1.014056455	 3.5422906394	 2.1934832255	-0.467439
H	 0.6087039592	 0.0525722892	 0.833716953	 0.104725
H	 4.4070006883	 2.1970157941	-0.6203892824	 0.118839
H	 3.8449394086	 0.7519064175	-1.4817806653	 0.120063
H	 2.949360414	 2.9275560283	-2.7830910541	 0.119749
H	 0.6043084529	 3.2689147324	-1.602179232	 0.135104
H	 0.8401460032	 4.1634447581	 3.0377509339	 0.20803
