18
gdb 51592	2.60134	0.93127	0.74222	2.8882	78.84	-0.244	-0.0236	0.2204	1504.4172	0.144162	-401.883023	-401.87338	-401.872436	-401.918865	34.239	
O	-0.9003086902	 0.8378410035	 0.8763536026	-0.239519
C	-0.3474493387	 1.2997073667	-0.0867179048	 0.15934
C	 1.1221858123	 1.692066194	-0.119371636	-0.239569
N	 1.3288286494	 2.7430497773	-1.1023224753	-0.087065
C	 1.46801847	 4.1198473503	-0.6328166535	-0.27181
C	 2.6278020858	 3.3953415786	-1.2252801716	 0.028515
C	 3.8262951333	 3.015397697	-0.3620699766	-0.384405
C	 4.4875255302	 1.796879814	-0.8208934229	 0.306747
C	 5.0159358216	 0.7929317452	-1.2175413621	-0.445316
H	-0.872969625	 1.4641522872	-1.0532402287	 0.09021
H	 1.4369098489	 1.9304943934	 0.9073141059	 0.113293
H	 1.6857137275	 0.8027978502	-0.4361312418	 0.148998
H	 0.9320387287	 4.8770368575	-1.1984368811	 0.123128
H	 1.4889739324	 4.2877932476	 0.4441416516	 0.114188
H	 2.8981402761	 3.6075011783	-2.2581079693	 0.106677
H	 4.5403400937	 3.8489484656	-0.3827496886	 0.140295
H	 3.5263464362	 2.9027676312	 0.6855749756	 0.134316
H	 5.4906053478	-0.0932646776	-1.5596530136	 0.201977
