18
gdb 98169	2.25941	1.27691	1.12012	2.191	74.71	-0.2495	-0.0007	0.2488	1214.8525	0.144158	-439.073196	-439.062608	-439.061664	-439.10892	37.566	
C	-0.3944247854	 1.3625390045	-0.6259254541	-0.241493
O	-0.3449735547	-0.0554306877	-0.834961615	-0.240416
C	 0.8797366365	-0.605750218	-0.7744301696	 0.490185
O	 1.8892702223	 0.01332797	-0.570408539	-0.363646
C	 0.7991346613	-2.1310219742	-1.0143661763	-0.060897
C	 2.1545120609	-2.7679563198	-0.6772612659	-0.396246
N	-0.2259853935	-2.6628681759	-0.0953914201	-0.526153
C	 0.4708358141	-2.3479687501	-2.4354054566	 0.347489
C	 0.1879159039	-2.5549998395	-3.5859666667	-0.505333
H	-0.0151010313	 1.6164158101	 0.3668798221	 0.145342
H	 0.2061017468	 1.8805725414	-1.3774629139	 0.145423
H	-1.4446117457	 1.6389168772	-0.7169574764	 0.135644
H	 2.3795005043	-2.6023861644	 0.3779922166	 0.135618
H	 2.1136520069	-3.8431587374	-0.8723540277	 0.11513
H	 2.946963459	-2.3294222991	-1.2843350029	 0.141876
H	-1.1207085032	-2.2380023396	-0.3204374198	 0.243418
H	-0.3257776797	-3.659677989	-0.2688428435	 0.233382
H	-0.0644339024	-2.7323223484	-4.6023782812	 0.200678
