25
gdb 95827	2.66507	1.19315	0.89892	1.1373	89.43	-0.2396	0.0838	0.3234	1414.971	0.230034	-389.511287	-389.501651	-389.500707	-389.545169	37.652	
C	 0.0554733211	 1.5985836303	 0.0823206676	-0.415071
C	-0.0066773049	 0.0681660313	-0.0186592363	 0.024158
C	 0.6276538094	-0.4553506534	-1.3211296996	-0.179284
C	 0.0819516515	-1.8239161908	-1.7660489813	-0.218546
C	 0.4781729974	-3.0231749401	-0.8931561716	-0.167698
C	 0.2353839849	-2.8442453011	 0.6116407376	 0.128899
C	 0.49616957	-4.1292193904	 1.3934318644	-0.392136
O	 1.1354585312	-1.8572638074	 1.1143631697	-0.259372
C	 0.6366531632	-0.5430500579	 1.2452652004	-0.071074
H	 1.090991563	 1.952699177	 0.0153268163	 0.116286
H	-0.5136366205	 2.071772087	-0.7239589085	 0.112762
H	-0.3552605467	 1.95460021	 1.0339304806	 0.111323
H	-1.0680346402	-0.2156433247	-0.0376839119	 0.068848
H	 0.4213572299	 0.2670852484	-2.1205606564	 0.08601
H	 1.719250134	-0.4969755607	-1.2152014007	 0.099098
H	-1.0144647899	-1.7569759686	-1.8110451338	 0.090038
H	 0.4109106022	-2.0233153803	-2.793056523	 0.090622
H	-0.060460336	-3.9124974511	-1.2443702218	 0.085893
H	 1.5484916507	-3.2333519397	-1.0160254247	 0.099913
H	-0.8043714133	-2.5264871308	 0.7897760345	 0.062883
H	 1.53235082	-4.4531455636	 1.2523638494	 0.122113
H	 0.3354942372	-3.9643501901	 2.4623553269	 0.115403
H	-0.1665937756	-4.9339094625	 1.0603003209	 0.108177
H	 1.5115629493	 0.0545119742	 1.5287709715	 0.098905
H	-0.0815885481	-0.481894025	 2.0809469698	 0.081851
