20
gdb 117763	2.60629	1.04763	0.89235	4.509	76.4	-0.2827	0.0293	0.312	1413.0382	0.167996	-440.289792	-440.279059	-440.278114	-440.325746	37.842	
C	 0.0593498497	 1.5652913139	 0.127964239	-0.402178
C	-0.0310941132	 0.0440452353	-0.0085096076	-0.201931
C	 0.6525379082	-0.5031575758	-1.273215888	 0.199224
O	 2.0158049446	-0.1307679737	-1.2300596744	-0.447833
C	 0.5447526161	-2.0361766643	-1.3423259642	-0.095965
O	 1.3553939812	-2.4476903354	-2.418682911	-0.253048
C	 1.4102434627	-3.8484833698	-2.5876564399	-0.23288
C	 0.0089618321	 0.0713438742	-2.4877541271	 0.27288
N	-0.4977903755	 0.5258594568	-3.4214656874	-0.347734
H	 1.1022113619	 1.8901865808	 0.1324786463	 0.143434
H	-0.4514445789	 2.0682405817	-0.6983561822	 0.141527
H	-0.4076102073	 1.8896746002	 1.0619873787	 0.11583
H	 0.458827766	-0.4397071867	 0.8435350008	 0.112522
H	-1.0781614431	-0.2794071017	-0.013364736	 0.112332
H	 2.4631794241	-0.6772789055	-1.8908352855	 0.298935
H	 0.9120197008	-2.4557654512	-0.3926054731	 0.102305
H	-0.5004889133	-2.3488491346	-1.4850008144	 0.109689
H	 1.8150936115	-4.3472749979	-1.6944029764	 0.11357
H	 0.4153623294	-4.2651352801	-2.8007685886	 0.119454
H	 2.0676501531	-4.045906646	-3.4366946389	 0.139867
