20
gdb 113474	3.9053	0.95772	0.93169	1.4882	80.22	-0.225	0.0775	0.3024	1336.8113	0.170931	-403.07296	-403.064315	-403.063371	-403.10649	33.152	
O	-0.0576178608	 1.3145969631	-0.4507927744	-0.419662
C	-0.0394695721	 0.0547156222	 0.2112732248	-0.10034
C	-1.4176037174	-0.5423433865	 0.1370419351	-0.046169
C	-1.8564150307	-1.2752656876	-1.1137874661	-0.362022
C	-1.6044257577	-2.0299873152	 0.1568381218	 0.392126
C	-0.567546127	-3.1691909015	 0.362368437	-0.315538
C	-1.65151438	-3.9242437572	 1.1471488219	-0.036943
N	-2.0309645245	-3.0536059433	 2.2878441343	-0.337028
C	-2.6289722543	-2.8204420069	 0.9439009753	-0.153822
H	 0.7958639706	 1.7351854801	-0.3097313756	 0.2831
H	 0.6853493384	-0.6295525498	-0.2595917737	 0.079453
H	 0.2576283093	 0.1679002834	 1.265831888	 0.092898
H	-2.1786609266	 0.0439329293	 0.6454841926	 0.087853
H	-2.8811355908	-1.1517163507	-1.4499864594	 0.10862
H	-1.1334938785	-1.3760336429	-1.9181583188	 0.110952
H	-0.2947902718	-3.6597624579	-0.5755631839	 0.104081
H	 0.3337107167	-2.9303617631	 0.9333966818	 0.105509
H	-1.8097838962	-4.9945946601	 1.1881833522	 0.092519
H	-2.7250898841	-3.5696567269	 2.8299533198	 0.224512
H	-3.7025222824	-2.8479515984	 0.7979201574	 0.0899
