20
gdb 17817	4.33418	1.22809	1.06426	2.0429	74.99	-0.2409	0.0831	0.324	1159.8223	0.177228	-348.968893	-348.960533	-348.959589	-349.002451	30.566	
C	-0.021490629	 1.5405020972	-0.2801912211	-0.408462
C	-0.0000463327	 0.048155209	-0.0271998496	 0.004272
C	 1.2775199191	-0.7458627871	-0.1443157378	-0.309279
C	 0.6188025654	-0.5755212291	 1.2080928269	-0.010424
C	 1.2744964134	 0.2281350018	 2.2963992445	-0.029207
C	 0.4297716219	 0.6149241437	 3.5355664026	-0.086217
O	 1.3832208932	 0.0118391881	 4.432672128	-0.272686
C	 2.1428287013	-0.528332017	 3.3327405903	-0.086924
H	 0.906835196	 2.024817605	 0.036112022	 0.117133
H	-0.1462281355	 1.7477098744	-1.3487353196	 0.118919
H	-0.848288696	 2.0266891961	 0.2500138932	 0.117556
H	-0.8929112304	-0.4616373547	-0.3808316736	 0.084392
H	 1.2552732488	-1.7208614431	-0.618641162	 0.110361
H	 2.1923222598	-0.188174988	-0.3237496699	 0.108012
H	 0.0964530356	-1.4532491235	 1.584586079	 0.081017
H	 1.8048997795	 1.0879776098	 1.8815856783	 0.074766
H	 0.2970818435	 1.6852932363	 3.7328967146	 0.099263
H	-0.550883665	 0.120527267	 3.5853794924	 0.093678
H	 2.0631290465	-1.6232012903	 3.2761704516	 0.094527
H	 3.2025583647	-0.2528813257	 3.3890458302	 0.099303
