19
gdb 92928	2.79726	1.25053	0.95586	2.6494	77.98	-0.236	-0.0285	0.2074	1254.457	0.157948	-423.045046	-423.036194	-423.03525	-423.079104	32.717	
C	 0.0008162068	 1.5706869669	-0.0762575499	-0.403741
C	 0.0218449031	 0.0513402817	-0.1051944364	 0.127653
C	 0.845150139	-0.5324536833	-1.2571956764	-0.252496
C	 1.0289567003	-2.0137652352	-1.0659283166	-0.087107
C	 0.8747623443	-2.5823620968	 0.1261066398	-0.066229
C	 0.5593501559	-1.7718962944	 1.35512452	-0.02272
O	 0.5601079487	-0.3746708743	 1.1514911092	-0.27628
C	-0.7639171699	-2.2263296379	 1.9925187548	 0.133221
O	-0.998848074	-3.3576767086	 2.3222433496	-0.243043
H	 1.0148126059	 1.9623504606	 0.0498590205	 0.127011
H	-0.4124667723	 1.9660023484	-1.0089911916	 0.116924
H	-0.6105331061	 1.9294560031	 0.7559253143	 0.124468
H	-1.0098095997	-0.3276453639	-0.2001324552	 0.070076
H	 0.3362698148	-0.3314947941	-2.2079205436	 0.107855
H	 1.8181421472	-0.0242295387	-1.3132896125	 0.116191
H	 1.2812854346	-2.6179903843	-1.9327791572	 0.097884
H	 0.956018174	-3.6531635542	 0.2782023743	 0.116365
H	 1.3307112402	-1.9622993131	 2.1168132726	 0.125752
H	-1.4873273228	-1.3926357416	 2.1482939643	 0.088217
