19
gdb 70434	2.86009	1.44442	1.25567	2.18	74.69	-0.2402	0.0605	0.3007	1067.1886	0.159076	-422.965458	-422.957355	-422.956411	-422.998196	31.473	
O	-0.1244246898	 1.4003753466	-0.0354436925	-0.448834
C	 0.0660465311	 0.0334914152	 0.0083179189	 0.339888
C	-0.8567783459	-0.8022616257	 0.8320155346	-0.313587
C	 0.6320594845	-0.8950337776	 1.0925917349	-0.139044
C	 1.2705821586	-1.765709587	 0.0049638445	-0.316556
C	 0.7202738779	-0.8034000704	-1.0938632439	 0.232087
C	-0.0350130873	-1.2445655643	-2.3632292283	-0.136895
O	 0.9122188392	-0.5690533612	-3.2182909405	-0.272694
C	 1.6914649773	-0.1361860289	-2.0903871775	-0.142814
H	 0.7332011811	 1.8272494248	-0.1402242267	 0.286082
H	-1.4115421676	-0.2293379974	 1.5678875285	 0.121739
H	-1.402486524	-1.6429584394	 0.4069671881	 0.105489
H	 1.0567121059	-0.6682388084	 2.062357521	 0.092136
H	 2.3639211842	-1.771972838	 0.0305232212	 0.104183
H	 0.9151112968	-2.8009532139	-0.0477508168	 0.099846
H	-0.0566449939	-2.3259446839	-2.5515126475	 0.098188
H	-1.0493046889	-0.8392238778	-2.4700642854	 0.106868
H	 1.755630789	 0.9604620059	-2.0384256435	 0.085702
H	 2.709176202	-0.5494320886	-2.1038727591	 0.098215
