25
gdb 123135	5.59964	0.44669	0.42706	0.4399	87.71	-0.2465	0.0802	0.3267	2608.1441	0.225642	-426.624955	-426.61287	-426.611926	-426.664067	41.914	
C	-0.186422796	 1.5471604503	 0.1550511676	-0.386664
C	-0.0249463662	 0.0399385832	-0.0126023292	 0.162291
C	 0.8481738342	-0.5690227333	 1.0896308029	-0.392693
O	-1.3389866802	-0.5052702724	-0.0178236028	-0.25984
C	-1.4504897377	-1.8199415023	-0.5199100776	-0.059361
C	-2.9304616527	-2.1601528828	-0.6472378618	-0.198136
C	-3.1637130571	-3.5774505505	-1.1757820956	-0.168116
C	-4.6413971296	-3.9214685321	-1.3062302591	-0.073497
O	-4.7404732978	-5.2486752682	-1.8012826443	-0.422198
H	 0.7862066611	 2.0473139628	 0.1262240712	 0.109913
H	-0.8143890287	 1.9542237165	-0.641725278	 0.118703
H	-0.6630208344	 1.7724624231	 1.1145587364	 0.121272
H	 0.4460950091	-0.1636696123	-0.9902326124	 0.060683
H	 0.391712699	-0.3979078227	 2.0700906327	 0.12024
H	 0.9813934263	-1.646334312	 0.9563286395	 0.116006
H	 1.8422545429	-0.1104561863	 1.086165553	 0.112678
H	-0.955346889	-1.8965629512	-1.5037365346	 0.081626
H	-0.9571047294	-2.5475417218	 0.1446499301	 0.086358
H	-3.3991167636	-2.0388094895	 0.3371747676	 0.104489
H	-3.400433568	-1.4224968579	-1.3091137948	 0.102693
H	-2.6930166196	-3.7010007978	-2.1590636446	 0.104967
H	-2.6955422663	-4.3146078745	-0.5117580801	 0.105339
H	-5.1331409471	-3.8241809626	-0.3242546926	 0.08427
H	-5.1307751773	-3.2046466281	-1.9860922984	 0.084184
H	-5.6725192218	-5.4691712073	-1.8854135451	 0.284792
