13
gdb 125190	3.50288	1.63257	1.12136	3.397	69.05	-0.2282	-0.0673	0.1608	990.9777	0.089113	-452.716595	-452.709528	-452.708583	-452.748289	26.219	
C	 0.0910808497	 1.5083711102	 0.010585592	-0.496554
C	-0.0514351668	 0.0330886609	 0.0287051289	 0.288571
C	-1.096752822	-0.8432270642	-0.0958811248	 0.124276
N	-2.4596652139	-0.9420003384	-0.2855045629	-0.191022
N	-2.8265867173	-2.1178769442	-0.3067310942	-0.011479
O	-1.6011878634	-3.0348483256	-0.1101538506	-0.287768
C	-0.5968951422	-2.1708910703	 0.0090393617	 0.324188
C	 0.7437549592	-2.0718566319	 0.1954367488	-0.189446
O	 1.058017946	-0.7210672796	 0.2046865983	-0.179921
H	 0.7558062787	 1.8329886354	-0.7973369866	 0.153999
H	-0.8870734271	 1.9694233092	-0.1384589395	 0.155093
H	 0.5103683342	 1.8780269092	 0.9526734627	 0.154002
H	 1.566200625	-2.7489898508	 0.3288014362	 0.156062
