19
gdb 58709	1.98289	1.48804	1.20367	2.209	76.75	-0.2531	0.0315	0.2847	1150.3196	0.156587	-422.967272	-422.957606	-422.956662	-423.001631	35.81	
C	 0.1025243735	 1.4871237167	-0.2243266879	-0.420117
C	-0.0253870469	-0.0162425056	 0.0166200253	 0.079048
O	 0.6663389164	-0.4228371161	 1.1867258062	-0.437922
C	-1.4925773957	-0.5096173181	 0.0701923713	 0.075758
C	-2.1876625632	-0.5605095146	-1.3226275619	-0.11937
O	-2.0017518682	-1.9823952244	-1.4097665028	-0.270836
C	-1.5839412958	-2.0599167428	-0.0330662475	-0.117719
C	-2.2158959885	 0.1097026021	 1.1653310573	 0.249972
C	-2.7853119963	 0.6202796688	 2.094822332	-0.442649
H	 1.159211712	 1.7649114716	-0.249047349	 0.128847
H	-0.3541677808	 1.7843514404	-1.1737747028	 0.118113
H	-0.3872378447	 2.0502226569	 0.5769430062	 0.125273
H	 0.4596857491	-0.5600759833	-0.8025603453	 0.099865
H	 0.2357167114	 0.0067611141	 1.9364928559	 0.283908
H	-3.2468576178	-0.2768070029	-1.3031615521	 0.107894
H	-1.6803600929	-0.0250006596	-2.133416737	 0.107873
H	-0.6368260074	-2.5927587956	 0.0946896656	 0.125118
H	-2.3534807341	-2.5067713975	 0.6071410074	 0.106457
H	-3.3102342202	 1.0657399797	 2.9038411392	 0.200487
