22
gdb 107846	3.41284	1.33088	1.2798	1.6949	84.68	-0.2214	0.0809	0.3023	1122.4228	0.196754	-367.168379	-367.160668	-367.159723	-367.200463	31.616	
C	-0.0277507462	 1.5167276517	 0.094820407	-0.382582
C	-0.0603638312	-0.0087236387	-0.0684656934	-0.306893
C	 0.708325444	-0.5081264791	-1.2731161898	 0.334473
C	 2.2424707317	-0.387470129	-1.4325272226	-0.204312
N	 2.1725573634	-1.5553532575	-2.3716623839	-0.154303
C	 1.0544677466	-1.2238071193	-3.3941088596	 0.000112
C	 0.2958879978	-2.4688442954	-2.8861703747	-0.23958
C	 0.9626794323	-2.0501140091	-1.5780410445	-0.047456
C	 0.2888119644	-0.076701493	-2.6989002112	-0.262803
H	 1.0004433716	 1.8839720058	 0.183029792	 0.119291
H	-0.4875174846	 2.0203800312	-0.7615473292	 0.119524
H	-0.5690601615	 1.8274291451	 0.9934791892	 0.113473
H	 0.3484886471	-0.4780548028	 0.8362499695	 0.09365
H	-1.1030045781	-0.3468323376	-0.1405358659	 0.094794
H	 2.6656369444	 0.5384095614	-1.8376876557	 0.092275
H	 2.8070477569	-0.6933150283	-0.5454905199	 0.099628
H	 1.3637589204	-1.104498878	-4.4317238294	 0.070487
H	-0.7932804293	-2.4837144356	-2.9699170906	 0.092173
H	 0.72774455	-3.4014251497	-3.2553545826	 0.112078
H	 1.1407190491	-2.7174125029	-0.7323515837	 0.069117
H	-0.7884555743	-0.1231025931	-2.8853121191	 0.092045
H	 0.6418458652	 0.9254642339	-2.9570785718	 0.094809
