17
gdb 78407	2.6944	1.8116	1.4884	2.4484	72.63	-0.2422	0.0027	0.2449	936.5214	0.136556	-417.930876	-417.923355	-417.922411	-417.962941	29.124	
C	-0.404485643	 1.4701288138	 0.166810849	-0.436521
C	-0.0079240897	 0.0215327592	-0.057177037	 0.020008
C	 0.5978018239	-0.6390529655	-1.2337975713	-0.087387
C	 1.7950096141	 0.0685877161	-1.8807740382	 0.095902
O	 1.7699374743	 1.5313221292	-1.9524644622	-0.278057
C	 2.4222563712	 1.6273327056	-0.7203320692	 0.429112
N	 2.8471088015	 2.6302065279	-0.1030264979	-0.546253
C	 2.4609245958	 0.1250100308	-0.5135441145	-0.112059
N	 1.3056656583	-0.6326969501	 0.1423714855	-0.172691
H	-0.0035697521	 2.1619444923	-0.5669979146	 0.153926
H	-1.4964371107	 1.5295582586	 0.1170491765	 0.119385
H	-0.1009325502	 1.7940826249	 1.166773418	 0.142176
H	-0.7322749902	-0.6480421495	 0.4082429095	 0.112649
H	 0.1965879162	-1.5616186789	-1.6434679446	 0.10248
H	 2.2241646448	-0.3769248431	-2.7758314727	 0.108218
H	 2.6535280115	 3.496228481	-0.6096496538	 0.23182
H	 3.4124512045	-0.3294899524	-0.2496804126	 0.117293
