17
gdb 90659	4.48702	1.02701	0.99124	2.9987	72.41	-0.2364	-0.0376	0.1987	1229.1404	0.133437	-458.926827	-458.918309	-458.917365	-458.95987	31.947	
C	-0.0229857275	 1.4333428923	-0.1472607213	-0.406024
C	 0.0360198944	-0.0628140138	 0.0694640654	 0.133015
O	 1.0507440695	-0.6801650083	-0.7898035438	-0.289594
C	 1.7948276231	-1.0659482873	 0.3436986649	 0.026399
C	 0.788590496	-0.5181856013	 1.3263754133	-0.245657
C	 0.9810145666	-2.0241498023	 1.2255152205	 0.342774
O	-0.0033567861	-2.8331495911	 0.697894031	-0.469374
C	 1.7571516944	-2.6477301388	 2.3133774088	 0.093508
O	 1.539131229	-3.7850277108	 2.6734961751	-0.295803
H	 0.9550836891	 1.8923020603	 0.0240693678	 0.125331
H	-0.3346938284	 1.6504744303	-1.1729267914	 0.136166
H	-0.7492449768	 1.8860106901	 0.5365915531	 0.122031
H	-0.9368259767	-0.5385536226	-0.0863137544	 0.112793
H	 2.8778838681	-1.0525121098	 0.2803197138	 0.115206
H	 0.8895544351	 0.0479558456	 2.2442421817	 0.108081
H	 0.0949702922	-3.6795256856	 1.1631481067	 0.298597
H	 2.556750228	-2.0306523968	 2.7709675987	 0.092552
