21
gdb 103685	3.97949	0.86149	0.82999	3.1281	80.32	-0.2453	-0.0205	0.2248	1463.1613	0.179464	-424.218431	-424.208421	-424.207477	-424.253938	36.342	
C	-0.1524170387	 1.5550405318	-0.245740542	-0.25357
O	-0.2669366547	 0.1485865618	-0.2038286124	-0.28289
C	 0.6580016118	-0.5735656845	-0.9971764943	 0.44419
C	 0.5120141524	-0.269608035	-2.4861007221	-0.460632
C	 2.1296984495	-0.5569047616	-0.4645523337	-0.311432
C	 2.0784991532	-2.1070196558	-0.2511931138	-0.069289
C	 0.5615420778	-2.0777006058	-0.6332897881	-0.304226
C	 2.9407060782	-2.8847701728	-1.2043864253	 0.162176
O	 3.7332421239	-3.7349150333	-0.8890539427	-0.254912
H	 0.870709241	 1.8943964026	-0.0254486691	 0.106543
H	-0.4551786787	 1.9751600711	-1.2145688191	 0.110818
H	-0.8205407206	 1.9476624333	 0.5246595136	 0.129979
H	 0.7995780661	 0.7596106771	-2.7225109961	 0.11999
H	 1.1510674542	-0.9297459244	-3.0801113328	 0.120657
H	-0.5252141899	-0.4232753501	-2.8010478875	 0.126659
H	 2.8921833256	-0.1952494689	-1.1606784858	 0.10428
H	 2.2298475594	-0.018645754	 0.4794114055	 0.118199
H	 2.2960256244	-2.4440721135	 0.7627980955	 0.096046
H	-0.0882173847	-2.2382701767	 0.2274984734	 0.125669
H	 0.2543867614	-2.7451742612	-1.4432343056	 0.105768
H	 2.7965138183	-2.6138725201	-2.2792359876	 0.065976
