19
gdb 106069	2.43187	1.65568	1.38879	1.5249	75.32	-0.2247	0.0694	0.2941	1032.3326	0.158081	-422.956387	-422.947804	-422.946859	-422.989477	32.729	
C	 0.1068229405	 1.3544068647	 0.2263141413	-0.263513
O	 0.0072699117	-0.0039777686	-0.1892150849	-0.27565
C	-1.2540129591	-0.502993525	-0.1041830541	 0.393
C	-2.1658351101	-0.8976216851	 1.0345439338	-0.154373
C	-3.3482470952	-0.1214718264	 0.4576084317	-0.287668
C	-2.6099206937	-0.2178211498	-0.9099117386	 0.302598
O	-2.7137519522	 0.7704236679	-1.8765976139	-0.482515
C	-2.6533173569	-1.734959216	-1.2589103403	-0.294126
C	-1.7228414486	-1.919869891	-0.0602340796	-0.147013
H	 1.1526839429	 1.6446392447	 0.1074435899	 0.126704
H	-0.5242246376	 2.0036518317	-0.3925549382	 0.134709
H	-0.1852300984	 1.4667323699	 1.279162347	 0.111764
H	-1.9151786173	-1.0735059215	 2.0721702112	 0.089094
H	-4.349281576	-0.5654149191	 0.5180088738	 0.083199
H	-3.3717304779	 0.9099609947	 0.8200589031	 0.099453
H	-3.5900165454	 0.7221000436	-2.2759886899	 0.280956
H	-3.6326481985	-2.228497159	-1.2524948762	 0.08238
H	-2.1330077834	-1.9347778754	-2.1994145569	 0.107744
H	-1.1463778447	-2.7927428104	 0.2154755804	 0.093258
