25
gdb 115714	2.48927	1.06122	0.82907	1.7701	88.94	-0.2394	0.0743	0.3137	1527.5132	0.227592	-389.486188	-389.475495	-389.474551	-389.521981	39.424	
C	-0.6672350451	 1.7235813194	 0.5452838173	-0.386222
C	-0.3945042697	 0.2225829827	 0.6903076617	-0.188428
C	-1.6090703016	-0.6053136927	 0.2886056733	 0.122905
O	-1.942858962	-0.4033676691	-1.1104125726	-0.292176
C	-1.6115161867	-1.7659561746	-1.4372123826	-0.10348
C	-1.4623994546	-2.1407533125	 0.0522602179	-0.021831
C	-0.2297868466	-2.9221844227	 0.5078240658	 0.014392
C	-0.2172386283	-3.1136535714	 2.031620794	-0.395797
C	-0.1684780361	-4.2821603067	-0.204945472	-0.393376
H	 0.2206499775	 2.313792873	 0.7905576268	 0.108295
H	-0.9633452	 1.956155248	-0.4811654597	 0.138339
H	-1.4773028505	 2.0440645946	 1.2100499812	 0.111413
H	 0.4618876366	-0.0570139471	 0.0655259595	 0.09815
H	-0.1238494106	-0.0120211924	 1.7272726351	 0.095796
H	-2.4622978862	-0.3293416044	 0.9242322867	 0.069233
H	-2.4107991366	-2.2612789646	-2.0001796312	 0.100471
H	-0.6797625655	-1.8312803093	-2.018593922	 0.091095
H	-2.3578331893	-2.6614199214	 0.4099976914	 0.073905
H	 0.6672702328	-2.3558105231	 0.2239365831	 0.073748
H	-1.085984884	-3.6992390945	 2.3556891372	 0.112726
H	 0.6816432595	-3.6501962555	 2.352674885	 0.112234
H	-0.243308618	-2.1589139629	 2.5649178306	 0.117975
H	 0.7216022935	-4.8434713087	 0.0972943037	 0.11206
H	-1.0454955098	-4.8925883114	 0.0417558704	 0.112779
H	-0.1363153088	-4.1686714124	-1.2933649809	 0.115794
