16
gdb 123835	3.64328	1.56391	1.12335	3.8327	78.36	-0.2194	-0.0404	0.179	1031.7785	0.127624	-400.765479	-400.758876	-400.757932	-400.796449	26.238	
C	-0.0318348331	 1.4807258814	 0.0989922867	-0.264973
C	 1.3588207036	 2.1534071721	-0.0146421533	-0.347637
C	 2.1942405896	 1.4283847257	-1.028575876	 0.109817
C	 1.9815304301	 0.102600956	-1.2787996275	 0.392403
O	 2.8793449076	-0.3673170511	-2.1566807919	-0.230149
N	 3.7351840226	 0.6784664502	-2.5175616896	-0.149195
C	 3.3173884813	 1.7242784705	-1.8364335691	-0.090936
C	 0.9403423852	-0.6927951184	-0.6709721134	-0.173244
C	-0.0012544821	-0.0323176042	 0.0207103571	-0.069092
H	-0.5214074543	 1.8003971988	 1.024011059	 0.112435
H	-0.6756462903	 1.8398052988	-0.7193991011	 0.125228
H	 1.2360223249	 3.211503237	-0.264400338	 0.115587
H	 1.8630168455	 2.1240936301	 0.9623098644	 0.119316
H	 3.8437550278	 2.6612915309	-1.9578146804	 0.12832
H	 0.9423111014	-1.7703364256	-0.7847644559	 0.114868
H	-0.8155539197	-0.5768847023	 0.4886887691	 0.107251
