13
gdb 3397	4.98654	2.43507	2.21944	4.1705	53.61	-0.277	0.0002	0.2772	635.7741	0.101656	-344.451793	-344.445734	-344.44479	-344.481615	22.484	
C	 0.0161171859	 1.5584627293	 0.049596723	-0.421187
C	 0.0837429018	 0.0488017183	 0.0578687907	-0.025378
C	 1.3186622668	-0.7438061004	-0.1692303468	 0.078214
O	 2.4759677297	-0.0366313467	 0.3548507645	-0.261696
C	 1.9709890616	-0.1619598692	 1.6490641283	 0.466001
O	 2.5131312537	 0.1353447845	 2.6617839979	-0.320756
C	 0.683609128	-0.8001678432	 1.2017067226	-0.291635
H	 0.9612488902	 2.0013091086	 0.3698790628	 0.151132
H	-0.1997438129	 1.9207702184	-0.9608114762	 0.127537
H	-0.7768621903	 1.9154059067	 0.7133225913	 0.130509
H	-0.801923717	-0.4468289331	-0.3382562718	 0.10936
H	 1.5100498389	-1.5172145369	-0.8997238498	 0.129843
H	 0.1352072037	-1.5742607762	 1.7179675836	 0.128057
