27
gdb 109926	1.95009	1.30005	1.0246	0.0528	95.57	-0.2695	0.0745	0.3439	1405.8273	0.250565	-353.564469	-353.55349	-353.552546	-353.599573	42.247	
C	-0.1225105429	 1.8036420563	-0.4874209401	-0.386328
C	-0.223869788	 0.2753067896	-0.4077929041	-0.196735
C	 0.8203123847	-0.439708967	-1.2615314936	 0.007939
C	 2.3218359451	-0.5130198571	-0.8124637239	 0.011839
C	 2.6377179187	-0.3016896287	 0.6673460871	-0.408122
C	 2.3499695983	-1.9981691309	-1.2802946592	-0.275949
C	 0.7930474017	-2.0048115473	-1.4138076601	 0.32474
C	 0.1053365586	-2.7553300546	-0.2686904765	-0.445214
C	 0.2542746947	-2.5018505001	-2.7549170313	-0.446798
H	 0.8549115255	 2.1607189323	-0.1464432721	 0.118522
H	-0.2575096747	 2.1532903137	-1.5172091851	 0.112591
H	-0.8858350902	 2.286440772	 0.1311702696	 0.109031
H	-0.1472396997	-0.0418468756	 0.6384782992	 0.093091
H	-1.224021859	-0.0324968473	-0.7417175522	 0.09133
H	 0.782822647	-0.0033047392	-2.2679573457	 0.05706
H	 2.9738907045	 0.1426806081	-1.3979476245	 0.062492
H	 2.0371450029	-0.9433968142	 1.3198075611	 0.117206
H	 3.6901824299	-0.5358933411	 0.8637059523	 0.111391
H	 2.4676142104	 0.7351189748	 0.9766434827	 0.114201
H	 2.8559292124	-2.1369865646	-2.2400816226	 0.088702
H	 2.7708394	-2.7140625727	-0.5665968021	 0.086832
H	 0.4683088664	-2.443042916	 0.7142275148	 0.113314
H	-0.9801169719	-2.6059347789	-0.2852784518	 0.109765
H	 0.291704928	-3.8319221471	-0.3594446673	 0.107776
H	 0.4067746222	-3.5820014572	-2.8687325359	 0.107786
H	-0.8219531383	-2.3101469322	-2.8462363504	 0.108055
H	 0.7536517539	-2.0043528548	-3.5933462583	 0.105481
