18
gdb 76265	2.3932	1.55673	1.02489	4.618	76.98	-0.2203	-0.017	0.2033	1149.8769	0.148186	-439.132699	-439.123834	-439.122889	-439.166177	33.95	
C	 0.0735752598	 1.5389121188	-0.0187148253	-0.412373
C	 0.0082999421	 0.0074557441	-0.0518791117	-0.142871
C	 0.790278393	-0.6515291323	-1.2127278978	 0.025793
O	 1.1947851176	 0.1786486146	-2.2958905404	-0.430913
C	 1.9767805548	-1.3160915777	-0.5269898448	 0.348879
N	 2.9335587157	-1.8476321756	-1.3231924787	-0.574872
C	 1.855501797	-1.3122561846	 0.8243025679	-0.341733
C	 0.6642197051	-0.5773610845	 1.2235329547	 0.400708
O	 0.2396971015	-0.3874182572	 2.3459636717	-0.374796
H	 1.1089224995	 1.8990049438	 0.039094058	 0.105545
H	-0.4006723688	 1.9823554147	-0.8986692597	 0.123801
H	-0.4379571062	 1.8968504552	 0.8777615065	 0.147833
H	-1.0436489411	-0.2930085393	-0.0709666217	 0.095972
H	 0.1846851725	-1.4306596506	-1.6895317702	 0.115355
H	 1.611768772	 0.9654266839	-1.9271849495	 0.286722
H	 2.9618046386	-1.508358237	-2.272834593	 0.268047
H	 3.8097134905	-2.1437954655	-0.9258091602	 0.264037
H	 2.5369031663	-1.7607767306	 1.5359116041	 0.094866
