11
gdb 53718	11.38704	0.46086	0.44293	5.3187	96.37	-0.2772	-0.1042	0.173	2214.4291	0.065129	-414.400682	-414.391742	-414.390798	-414.435484	29.929	
N	-0.0172665431	 1.354753134	 0.0088620246	-0.521191
C	 0.0584691403	-0.0024421324	 0.0014679635	 0.230207
O	 1.0941266072	-0.6359508801	-0.0112046831	-0.314289
C	-1.2394585923	-0.6726706802	 0.0102272745	 0.255803
C	-2.2646930478	-1.3215341726	 0.0165524645	-0.236155
C	-3.4148678326	-2.0281679506	 0.0237485688	-0.195573
C	-4.4537000609	-2.6595120175	 0.0302842922	 0.458084
C	-5.6164654468	-3.3632931448	 0.0375926915	 0.085511
N	-6.6130238613	-3.9634717184	 0.0438059949	-0.317504
H	 0.8411369845	 1.8818966127	 0.0031843891	 0.278493
H	-0.8981625171	 1.83907981	 0.0189534695	 0.276614
