25
gdb 60170	3.31077	0.81354	0.7212	1.5902	90.4	-0.254	0.0823	0.3362	1727.392	0.225489	-389.495811	-389.484476	-389.483532	-389.532703	41.642	
C	 0.4555210718	 1.3618235076	-0.2685330081	-0.388202
C	-0.0752750305	-0.0370424268	 0.0747799077	 0.060336
C	 0.6753345633	-0.6208648586	 1.2783332955	-0.391824
C	-1.596709367	-0.0449693137	 0.3369665524	-0.234741
C	-2.4179162638	 0.3459578344	-0.8695735944	 0.009517
O	-2.3774687536	-0.5312551391	-2.0075064388	-0.303312
C	-3.6413773679	-0.3303800128	-1.3492599284	 0.396499
C	-4.2195613202	-1.549479765	-0.6634895299	-0.455516
C	-4.641842921	 0.4703299686	-2.1582695977	-0.451207
H	 1.5363735498	 1.3352091462	-0.441703869	 0.111009
H	-0.0102424033	 1.7694440592	-1.1704952784	 0.119183
H	 0.2704391303	 2.0648617403	 0.5533088791	 0.106962
H	 0.1007402479	-0.6903353743	-0.7897266471	 0.092375
H	 0.5195516378	-0.0075635406	 2.1744577128	 0.108918
H	 0.3361526297	-1.6366046078	 1.5079954784	 0.109155
H	 1.7532534975	-0.6620829379	 1.0898577545	 0.109898
H	-1.8863806538	-1.0421212121	 0.6812100893	 0.093803
H	-1.8294563944	 0.651728267	 1.1553203218	 0.092174
H	-2.3294975072	 1.3997390892	-1.1447992773	 0.079872
H	-3.4481885405	-2.1470021826	-0.1765026488	 0.12928
H	-4.9643838727	-1.257792232	 0.0851439269	 0.11849
H	-4.7212971065	-2.1874376507	-1.3995092559	 0.123008
H	-5.0940194939	-0.1559526676	-2.9353389245	 0.122496
H	-5.449435204	 0.8460776743	-1.5202981629	 0.117324
H	-4.157793288	 1.3205369648	-2.6449734971	 0.124505
