17
gdb 44506	4.12695	1.35645	1.16622	0.8299	71.13	-0.2435	-0.0244	0.2191	1033.7608	0.136962	-421.78782	-421.780966	-421.780021	-421.820076	27.304	
O	 0.0070123632	-0.0205278272	 0.5135250646	-0.310001
C	-0.0126323496	 1.1109712316	 0.0932554503	 0.381211
C	-1.3205025017	 1.8520953665	-0.1709750823	-0.362152
C	-1.1483816795	 3.1504404378	-0.9452257629	-0.006683
C	-0.0675707464	 3.2634988563	-2.060172806	 0.023807
O	-0.0837294594	 4.7295379317	-1.8883776793	-0.308478
C	-0.0590092234	 4.1740526142	-0.5201089142	 0.028765
C	 1.0442947282	 3.1779419835	-0.9736754173	-0.006683
C	 1.2689467851	 1.8845734184	-0.2045728065	-0.362152
H	-1.9946001311	 1.1618998809	-0.6905723292	 0.139034
H	-1.7922940679	 2.0478693172	 0.8016347431	 0.138535
H	-2.0933216375	 3.6249116952	-1.217664419	 0.088868
H	-0.075918423	 2.8746330221	-3.0794528499	 0.095422
H	-0.0570658539	 4.8799869778	 0.3120792856	 0.094071
H	 1.9696538325	 3.6758713833	-1.270380929	 0.088868
H	 1.7607525134	 2.092433245	 0.7555344856	 0.138535
H	 1.9464343533	 1.2113301296	-0.7417066728	 0.139034
