18
gdb 113508	3.797	0.97928	0.87213	3.057	75.05	-0.2685	0.0033	0.2719	1371.743	0.14641	-439.062861	-439.054047	-439.053103	-439.09686	32.124	
C	-0.3734074717	 1.4795064196	 0.2233110242	-0.376794
C	 0.3154481008	 0.1588810224	-0.1419855568	-0.215867
C	 1.0311221339	-0.4524974999	 1.0362451851	-0.020842
O	 0.2129107598	-1.0970408617	 2.0332982234	-0.273322
C	 1.0813987036	-1.8976375705	 1.2719040995	 0.27658
C	 0.6940532569	-3.1055122743	 0.4188593478	-0.161433
O	 1.8450053228	-3.8225277455	 0.9706015505	-0.265223
C	 2.1850417202	-2.768536142	 1.8059272276	 0.37649
N	 3.093614776	-2.644341819	 2.6567084128	-0.549046
H	 0.3519976115	 2.2188514708	 0.5788238979	 0.12275
H	-0.8885390173	 1.9045199681	-0.6426345888	 0.119002
H	-1.1097835772	 1.3225075563	 1.0167355116	 0.137674
H	-0.4224322268	-0.5554449935	-0.5242471044	 0.104562
H	 1.0476164443	 0.323895423	-0.9428818953	 0.11025
H	 1.841210593	 0.1384543181	 1.4666548619	 0.118691
H	-0.2460150706	-3.5877412468	 0.6973050815	 0.135152
H	 0.7756955663	-3.0016490195	-0.6657742179	 0.127067
H	 3.6621637147	-3.4890019857	 2.7333695296	 0.23431
