17
gdb 85025	2.34861	1.74104	1.06996	1.2948	72.	-0.2564	-0.0058	0.2506	1112.9964	0.136255	-455.217282	-455.208467	-455.207523	-455.251022	31.62	
C	-0.075629906	 1.5357376964	 0.0011628084	-0.399608
C	 0.0391591815	 0.0194913215	-0.0187527502	-0.024513
O	 0.8594280221	-0.4312365254	-1.1138155147	-0.259118
C	 1.8979534417	-1.1784556006	-0.644902664	 0.472289
N	 2.806262274	-1.7364496112	-1.3191221767	-0.58022
N	 1.8141234207	-1.2400312111	 0.7428773862	-0.148541
C	 2.7715512269	-1.9483858511	 1.5693981013	-0.337531
C	 0.7280750179	-0.5460561124	 1.2216723019	 0.40418
O	 0.3983544049	-0.4076431766	 2.3752244491	-0.37734
H	 0.9138608906	 1.9967520334	 0.0672825704	 0.134297
H	-0.5708009948	 1.8940729947	-0.9043094671	 0.1358
H	-0.6615338479	 1.8376392798	 0.8731689331	 0.151057
H	-0.9500475712	-0.4418517927	-0.1219446917	 0.128634
H	 2.6735234374	-1.5615878319	-2.3130518884	 0.233252
H	 2.7847683017	-3.0094041133	 1.3088227159	 0.153046
H	 3.7747496906	-1.5423895909	 1.4193519794	 0.152772
H	 2.46081864	-1.8170101083	 2.6066483871	 0.161545
