13
gdb 27473	2.59459	1.76956	1.18691	4.8915	67.82	-0.2583	-0.0928	0.1655	979.2035	0.090977	-452.792554	-452.78564	-452.784696	-452.824013	26.172	
O	-0.1141359563	 1.273140276	-0.4094999676	-0.3936
C	 0.0631606656	-0.0245452763	-0.098627252	 0.387637
N	 1.2238250411	-0.5522266619	-0.2212114365	-0.333388
C	 1.4454288126	-1.8591505805	 0.2271204703	 0.348446
O	 2.2440619125	-2.129991368	 1.0830297411	-0.295474
N	 0.7595678572	-2.8708434312	-0.4803967499	-0.206946
C	-0.5154472059	-2.9406283697	-0.3949859646	-0.005635
C	-1.4192641581	-1.9812132315	 0.2318517404	-0.087252
C	-1.1717945573	-0.6610817756	 0.3547997982	-0.1234
H	 0.7532469693	 1.617449862	-0.6691633238	 0.31161
H	-0.9961675755	-3.7982979414	-0.8721470261	 0.130893
H	-2.4047428889	-2.3507443661	 0.5019519622	 0.128322
H	-1.9496439866	 0.0085447341	 0.7068627484	 0.138787
