16
gdb 44722	2.39157	1.67939	1.17538	5.9526	72.77	-0.2555	-0.0403	0.2153	1043.0285	0.124524	-400.752356	-400.744643	-400.743699	-400.785392	28.816	
O	 0.1616444381	 0.0828035859	-0.6217818363	-0.279281
C	 0.0680592286	 1.1789566729	-0.1591223886	 0.421796
C	-1.0768507154	 1.9727929373	 0.5020678402	-0.359399
C	-0.1011139817	 3.1681517038	 0.6751938301	-0.028438
C	 0.7286364739	 3.1364615309	 1.9855125477	-0.250666
C	 1.9083763167	 2.4248528887	 1.2350975828	-0.154375
C	 2.4150992105	 1.178929025	 1.7875245515	 0.285243
N	 2.8057982049	 0.1948054427	 2.2518815308	-0.32272
C	 1.0393124369	 2.3729287987	-0.0696246187	-0.176005
H	-1.8833826482	 2.1632155236	-0.2144940161	 0.141197
H	-1.5149076453	 1.5374975974	 1.4048781258	 0.137184
H	-0.4489743263	 4.1403834159	 0.3322347053	 0.088796
H	 1.0096531561	 4.1143568685	 2.3786925231	 0.124961
H	 0.2863951764	 2.5505827653	 2.7937240197	 0.128235
H	 2.7502277117	 3.1069125125	 1.0943881515	 0.137341
H	 1.5342043232	 2.6728026309	-0.9935496687	 0.106131
