22
gdb 88163	2.30617	1.43104	1.0847	1.8246	81.78	-0.2327	0.0716	0.3043	1223.9633	0.195324	-404.342399	-404.333312	-404.332368	-404.376218	35.294	
C	-0.2256510022	 1.5504947975	 0.2416757292	-0.396314
C	-0.1566708814	 0.0434108569	 0.2751393261	-0.056219
N	 1.0584616403	-0.5836713452	-0.279845938	-0.392788
C	 0.7767818829	-0.7104618266	 1.1581143312	 0.314225
C	 1.7189327494	-0.0410011944	 2.1660556489	-0.277362
C	 1.9017000222	-1.0800683868	 3.298708179	-0.219571
C	 0.6170359767	-1.9215588058	 3.246937636	-0.24142
C	 0.370931288	-2.0785851197	 1.7400166359	 0.059603
O	-0.9102978439	-2.5493982856	 1.3667187321	-0.43124
H	 0.7555785319	 1.992580838	 0.4306412785	 0.12765
H	-0.5649101631	 1.8974907392	-0.7401858191	 0.120516
H	-0.9283623559	 1.9306232945	 0.9921841056	 0.108198
H	-1.0934850753	-0.4634676061	 0.0496524827	 0.079589
H	 0.8044352885	-1.4513101459	-0.7504554793	 0.228051
H	 2.6622212507	 0.245969706	 1.6957188708	 0.112602
H	 1.2655695674	 0.8736131501	 2.5648405785	 0.100532
H	 2.7665803262	-1.7203256337	 3.0895318841	 0.105509
H	 2.073636236	-0.6186081589	 4.274326725	 0.098647
H	 0.689674936	-2.8805771929	 3.7659020577	 0.102527
H	-0.2206234056	-1.3643826857	 3.6912907722	 0.087162
H	 1.0611701726	-2.8374183186	 1.3459008512	 0.093215
H	-1.5634091213	-1.9613981562	 1.7624693017	 0.276888
