13
gdb 4302	4.13764	1.8686	1.29754	3.0838	63.2	-0.261	-0.0629	0.1981	877.772	0.096151	-398.668817	-398.662088	-398.661144	-398.699857	24.578	
C	 0.0266328582	 1.5088690418	 0.0220862171	-0.466852
C	-0.0316383783	 0.0132865803	 0.0149190328	 0.333029
C	-1.1824791616	-0.687724166	-0.151409651	-0.306936
C	-1.1885823766	-2.1296856604	-0.1507735752	 0.438313
O	-2.1036807891	-2.8886411592	-0.282512045	-0.329585
O	 0.1091090795	-2.6934762163	 0.0378003271	-0.202229
C	 1.1712017212	-1.9015355646	 0.1911093578	 0.147387
N	 1.1922937041	-0.621277953	 0.193075397	-0.327955
H	 0.700214243	 1.8577859109	-0.7678790845	 0.152147
H	-0.9586065029	 1.9558397083	-0.1213509729	 0.132336
H	 0.4478747004	 1.8593028388	 0.9703660462	 0.152152
H	-2.1397940935	-0.2021442795	-0.2907578349	 0.12649
H	 2.0833858756	-2.477484811	 0.3238816053	 0.1517
