17
gdb 80188	2.53043	1.66174	1.36232	3.5492	68.36	-0.2231	0.057	0.28	995.8938	0.136807	-455.163694	-455.155358	-455.154414	-455.196627	31.211	
C	-0.0853384848	 1.3880397268	-0.1583234598	-0.343222
N	-0.0353405949	-0.0424653827	 0.040377354	-0.078437
C	-1.1909706175	-0.8805295344	 0.0318702217	-0.080481
C	-1.4368728445	-1.7395465464	-1.2089049505	 0.096912
O	-0.8043899638	-1.4454003188	-2.4054933063	-0.430189
C	-0.6324753696	-2.2904058944	-0.0505321761	-0.097111
N	 0.7871944462	-2.1055637593	-0.1977859979	-0.388669
C	 1.1451363857	-0.7529031586	-0.0644408308	 0.435767
O	 2.2708828734	-0.3069457785	-0.0888032043	-0.413151
H	 0.9418857887	 1.7561953584	-0.138438784	 0.164097
H	-0.5430233963	 1.6417073006	-1.1220585956	 0.134915
H	-0.6563918284	 1.8731345799	 0.6414857709	 0.121131
H	-2.009367553	-0.5974363435	 0.6870436776	 0.10308
H	-2.4462689494	-2.1246853708	-1.3293765717	 0.106344
H	 0.0899222353	-1.8116125134	-2.3526102899	 0.298533
H	-0.9753866353	-3.1180313498	 0.5582990413	 0.110317
H	 1.4441357882	-2.796813475	 0.1246334314	 0.260165
