21
gdb 63542	2.89326	1.34091	1.21821	1.1985	83.14	-0.2327	0.0768	0.3095	1143.8862	0.181309	-387.044223	-387.035399	-387.034455	-387.077145	35.054	
C	-0.1184783548	 1.5195777081	 0.0056539777	-0.449657
C	-0.0186113596	 0.0115951653	 0.0476812759	 0.340516
O	-1.1648320464	-0.6581174942	-0.4146155161	-0.462981
C	 1.3191730366	-0.6667451964	-0.1866712929	-0.441884
C	 0.6726035103	-0.686213391	 1.1768252301	 0.349033
C	 1.275176036	-0.1130970965	 2.4794459526	-0.326813
C	 0.7922739265	-1.378060192	 3.2076077951	-0.044481
C	-0.6929512986	-1.5440976266	 3.0470090354	-0.273018
C	 0.2044606696	-1.9307077908	 1.9035640435	-0.106252
H	 0.7695091786	 1.9914641579	 0.4357719155	 0.119078
H	-0.2141267828	 1.8757736172	-1.0281029174	 0.105186
H	-0.9967614644	 1.8628052524	 0.5621858694	 0.123825
H	-1.231902424	-0.5061979576	-1.3641109322	 0.277883
H	 1.3070187536	-1.5932988484	-0.7526879372	 0.109161
H	 2.2007540696	-0.049637508	-0.3372879714	 0.103192
H	 2.3647891687	-0.0358251466	 2.4289169133	 0.102686
H	 0.8695661631	 0.8364172363	 2.8466280012	 0.093209
H	 1.3478393927	-1.9020483523	 3.9752026689	 0.083445
H	-1.1277577768	-2.3752810757	 3.5935175039	 0.106642
H	-1.3431431142	-0.6764888389	 2.9635358382	 0.107892
H	 0.2360470862	-2.9375899522	 1.5062886765	 0.083338
