20
gdb 80933	2.19972	1.65618	1.50707	1.4265	79.96	-0.2219	0.0833	0.3052	1040.8146	0.169154	-403.050432	-403.041739	-403.040795	-403.083127	33.759	
C	 0.0705279668	 1.4596176786	-0.3191104821	-0.33728
N	 0.0386823574	 0.0250276216	-0.0339606557	-0.12568
C	-1.0454799129	-0.5005684842	 0.8886654064	-0.130125
C	-0.1323385023	-1.7412855773	 1.0834119468	-0.256437
C	 0.7967960142	-0.4911891757	 1.1902470977	 0.22981
C	 2.2889971021	-0.4312902898	 1.3208986093	-0.527235
C	-0.3070550552	 0.1193884651	 2.0874466159	 0.489226
C	-0.4558562995	 1.2541695939	 2.9853964162	-0.31383
O	-0.5228374887	-0.109595233	 3.4609805188	-0.301936
H	 1.0345660414	 1.7006427436	-0.7791636434	 0.121254
H	-0.7075998649	 1.6807653253	-1.0571613265	 0.121926
H	-0.0748949756	 2.1283159699	 0.5406376958	 0.103569
H	-2.101818303	-0.4654743948	 0.621961798	 0.084012
H	-0.2788118157	-2.3265369047	 1.9916863743	 0.113002
H	 0.0172220306	-2.3420412251	 0.1856667266	 0.10045
H	 2.7712222052	-0.981589704	 0.5072595578	 0.133318
H	 2.648511612	 0.6031690632	 1.2950438436	 0.122512
H	 2.6026604285	-0.8734518212	 2.2717216609	 0.135515
H	 0.4191257212	 1.8145907866	 3.3130749634	 0.117969
H	-1.3954089815	 1.8040964919	 3.0251394562	 0.119958
