16
gdb 34178	4.53545	1.44976	1.31064	1.172	78.06	-0.2375	0.0356	0.2731	963.5668	0.125279	-363.517904	-363.511287	-363.510343	-363.548614	27.579	
C	 0.0732172464	-1.1245067874	-0.0172764722	-0.360256
C	 0.0358244893	 0.0780919371	-0.0094501117	 0.100885
C	-0.0361333766	 1.5030550464	-0.0209359852	 0.22044
C	-1.0852022901	 2.26561207	-0.8266225065	-0.241267
N	-0.7568781855	 3.6580966098	-0.5225387494	-0.124246
C	-0.2285684486	 3.7467590647	 0.8486589818	-0.075042
C	 0.6957564804	 3.7839607091	-0.3196332095	-0.075073
C	 1.2226166163	 2.3661118018	 0.0404059987	-0.136567
C	 0.2869951731	 2.3284668233	 1.2230158997	-0.136607
H	 0.1098096097	-2.1854891507	-0.0214109323	 0.182333
H	-0.9984103128	 2.0829518273	-1.9015121862	 0.118028
H	-2.1049375209	 2.0384163895	-0.5028836926	 0.11803
H	-0.5878026275	 4.5154723685	 1.5201351792	 0.100132
H	 1.2422057562	 4.5891223363	-0.7928742522	 0.100129
H	 2.223964406	 1.9774571915	-0.0691977635	 0.104539
H	 0.4232991546	 1.9049832827	 2.2068027719	 0.104539
