19
gdb 107960	2.73257	1.35493	1.30425	0.8255	75.53	-0.2224	0.0535	0.2759	1090.8526	0.159229	-419.089943	-419.081456	-419.080512	-419.123044	32.501	
C	 0.0141169018	 1.4581869818	-0.0219753327	-0.533023
C	 0.0086204123	-0.0390535249	-0.0564578244	 0.313553
N	 0.6655925142	-0.8692219084	-1.1251445662	-0.379113
C	 0.0755007509	-1.8863344993	-0.1962173776	-0.083413
C	 0.4422073931	-1.041117802	 1.0563125222	-0.051616
N	-0.9267826122	-1.0587225591	 1.6715006649	-0.400135
C	-1.1896645523	-1.0376418714	 0.1893976059	 0.289406
C	-2.5712797545	-1.0382795654	-0.3950078529	-0.22582
O	-3.295855164	-2.2204057431	-0.0765672506	-0.4099
H	 1.0402091	 1.8375268519	-0.0530011604	 0.134658
H	-0.5293539143	 1.880525509	-0.8743649576	 0.119665
H	-0.4627780112	 1.8083533148	 0.8984753798	 0.14189
H	 0.1237892587	-0.8245303131	-1.993301984	 0.20372
H	 0.1602409503	-2.9639754522	-0.3450843599	 0.083961
H	 1.3661449068	-1.0445877012	 1.6346003051	 0.087943
H	-1.1164732329	-1.9945434824	 2.0423755919	 0.204956
H	-3.1108080696	-0.1367070896	-0.0678991219	 0.10326
H	-2.5056209192	-1.0039960988	-1.488989738	 0.11041
H	-3.5201786178	-2.1763993368	 0.8584190864	 0.289598
