21
gdb 121375	3.24967	0.92555	0.79717	2.5662	75.32	-0.241	0.0638	0.3048	1479.4502	0.182024	-461.35747	-461.34763	-461.346686	-461.392893	35.532	
O	-0.0095528787	 1.4226236401	-0.0988438361	-0.424167
C	 0.0141782429	 0.0014117657	-0.077868468	-0.082017
C	-1.4269359417	-0.4834836739	 0.0141018147	-0.179234
C	-1.5286723654	-2.0021236977	-0.0347805142	 0.13199
O	-0.7893106744	-2.5841240969	 1.0500128351	-0.285597
C	-1.5460627961	-3.6238532199	 1.665527841	-0.05318
C	-2.6738053358	-3.9552753425	 0.6823150697	-0.261216
C	-2.9510886088	-2.5775240119	 0.0639873613	 0.080635
O	-3.7183581664	-1.7545767873	 0.932221045	-0.430985
H	 0.8987028044	 1.7356552649	-0.063622586	 0.282964
H	 0.4864814227	-0.3998782903	-0.9911209419	 0.074319
H	 0.5828928297	-0.3811733192	 0.7807317532	 0.105325
H	-1.8808335739	-0.1162158234	 0.9370808615	 0.125729
H	-1.9971387084	-0.0586323732	-0.820874618	 0.099189
H	-1.0891510441	-2.3628976568	-0.9801139405	 0.064539
H	-0.8842414054	-4.4731347033	 1.865587264	 0.099931
H	-1.9558726863	-3.2707686361	 2.6218606242	 0.100635
H	-2.3276404404	-4.6503589683	-0.0903753505	 0.106618
H	-3.5562446571	-4.3891479193	 1.1615240965	 0.093105
H	-3.4185734535	-2.641379807	-0.9281369132	 0.066391
H	-4.5860226032	-2.1573339238	 1.0340435623	 0.285027
