14
gdb 12308	3.02759	2.21807	1.34392	3.7008	58.2	-0.2421	-0.0904	0.1517	858.8177	0.106938	-419.696699	-419.689646	-419.688702	-419.72865	25.557	
O	-0.0081319321	 0.0208504594	 0.4085801492	-0.265911
C	-0.0451772068	 1.1936935933	 0.1429139076	 0.299798
C	-1.3256798955	 1.9966403308	-0.0005526531	-0.311331
C	-1.1626105772	 3.1567788648	-0.9901478427	-0.102179
O	-0.0642503908	 3.9689859595	-0.6150998925	-0.236056
C	 1.1747514442	 3.3212336342	-0.8091027125	-0.190384
C	 1.287630419	 1.9753686915	-0.0923632181	 0.281367
O	 2.3439296006	 1.5027509005	 0.2345167012	-0.259836
H	-2.1468735223	 1.3239866381	-0.2656009949	 0.132979
H	-1.5485278266	 2.4215012219	 0.987924415	 0.147805
H	-1.0298675115	 2.7787817419	-2.0173063563	 0.102873
H	-2.0458397397	 3.7999442348	-0.9815830086	 0.127359
H	 1.360311624	 3.1318114689	-1.8828475062	 0.124294
H	 1.9626959347	 3.9863264104	-0.447754238	 0.14922
