20
gdb 93976	4.36354	0.95295	0.80839	6.0107	88.01	-0.205	-0.0166	0.1884	1420.5141	0.172173	-403.195899	-403.187019	-403.186075	-403.229428	33.574	
C	 0.1043885637	 1.5874701311	 0.0331698156	-0.412656
C	 0.0218314933	 0.0637073016	-0.0154932319	 0.069137
C	 0.6814723154	-0.5293315157	-1.2707932628	-0.206999
C	 0.671919578	-2.0661308787	-1.2513524437	-0.326181
C	 1.15432257	-2.5838234561	 0.081351952	 0.138553
C	 1.6838447657	-3.9232027385	 0.2062241165	 0.080802
O	 1.7830688868	-4.7280056248	-0.7028836511	-0.320534
C	 1.1250527694	-1.7812037078	 1.1767421277	-0.016042
N	 0.6725418953	-0.5032382489	 1.1660994714	-0.305467
H	 1.1463474988	 1.9219013737	 0.0042970739	 0.128259
H	-0.4234681876	 2.0242657047	-0.8190525984	 0.128648
H	-0.3574854781	 1.9822320987	 0.9455730622	 0.112465
H	-1.0404678229	-0.2305476753	-0.0157691426	 0.086301
H	 0.1630443995	-0.1483098258	-2.1561702214	 0.101591
H	 1.7157477213	-0.1669300526	-1.3195040362	 0.107859
H	-0.3377256732	-2.4417878825	-1.4653472776	 0.110066
H	 1.3086226048	-2.4679461897	-2.0457051481	 0.126073
H	 2.0130564021	-4.190454445	 1.2398104696	 0.036518
H	 1.4967507179	-2.1385281824	 2.1339280099	 0.114891
H	 0.5648646598	-0.0173053261	 2.040457155	 0.246715
