16
gdb 30622	4.43864	1.05374	0.85618	4.1484	74.41	-0.2346	0.0005	0.2351	1300.4969	0.126758	-434.144927	-434.136585	-434.135641	-434.178574	29.803	
C	 0.0743395188	 1.3975889842	 0.0562860239	-0.33314
N	-0.0802930387	-0.0390391428	 0.0729695326	-0.321652
C	-1.2839346307	-0.6513997707	-0.088430685	 0.318141
O	-2.3446044324	-0.0663050154	-0.2613869108	-0.400998
C	-1.2035863801	-2.1307159117	-0.0360804749	 0.207111
C	-2.2527750999	-3.0044576675	-0.1674276897	-0.148612
N	-1.6975675309	-4.2531467014	-0.0511141809	-0.242122
C	-0.3544957325	-4.0901565301	 0.1431613008	 0.010481
N	-0.023872416	-2.8226255033	 0.1574074102	-0.328695
H	 0.7378792947	 1.7211694617	-0.7543605621	 0.121435
H	-0.9149448913	 1.8301635534	-0.1007745946	 0.165634
H	 0.479700861	 1.7693350472	 1.0047628659	 0.121432
H	 0.7169729224	-0.6425675879	 0.2072136078	 0.259186
H	-3.3037077616	-2.8386110569	-0.3274692397	 0.159957
H	-2.1911905373	-5.1289462943	-0.1001952579	 0.273856
H	 0.3168908545	-4.9268367343	 0.2653961444	 0.137986
