15
gdb 45391	2.16687	1.82628	1.23983	4.9986	71.07	-0.2487	-0.047	0.2017	1012.2444	0.112894	-416.79052	-416.782783	-416.781838	-416.823038	28.782	
O	-0.0451950437	 0.1146361012	-0.7950446136	-0.270775
C	-0.0798214234	 1.1707678029	-0.2500803172	 0.401653
C	-1.1678010241	 1.9861818901	 0.4787988106	-0.358512
C	-0.1994788362	 3.1999399067	 0.5712013172	-0.103271
C	 0.6552611062	 3.2778145119	 1.8526258183	-0.16869
N	 1.505155698	 2.1750060539	 1.3415150383	-0.347849
C	 0.9633781729	 2.3168693103	-0.0379545179	 0.11102
C	 1.8647615006	 2.7227111476	-1.0874813145	 0.180966
N	 2.5881095033	 3.0424212673	-1.9320783243	-0.331184
H	-2.0429446438	 2.1493871215	-0.1567869314	 0.148605
H	-1.5026090885	 1.5632623782	 1.4295152493	 0.146528
H	-0.5295929731	 4.1233709327	 0.1036118352	 0.111829
H	 1.1754402413	 4.239056432	 1.9450141579	 0.116928
H	 0.1521255896	 3.0516090393	 2.7986296475	 0.116271
H	 2.5083451109	 2.2830736245	 1.4244774346	 0.246481
