14
gdb 131665	5.22705	0.87138	0.75537	4.3679	66.88	-0.269	-0.0754	0.1936	1397.9516	0.099839	-473.811871	-473.803617	-473.802673	-473.845727	28.626	
O	 0.2596811228	 1.0785677932	-0.6969622785	-0.397402
C	-0.0115083379	 0.0562232962	 0.2374347215	-0.176334
C	-1.390025704	-0.506564317	 0.0632644729	 0.406409
C	-2.2869297706	-0.4627135209	-0.9563995839	-0.419674
C	-3.3952330697	-1.2062732968	-0.4572387996	 0.286735
C	-4.6712400757	-1.4809249011	-1.166065195	 0.097791
O	-5.5919153555	-2.1120163617	-0.7170018842	-0.233475
N	-3.174933776	-1.6543290853	 0.763241126	-0.169203
O	-1.9100777793	-1.207519634	 1.0904276488	-0.196838
H	-0.3124145808	 1.8268521002	-0.4953999965	 0.294181
H	 0.7340578197	-0.7268626886	 0.0575388727	 0.151475
H	 0.1156927099	 0.3828075547	 1.2800231295	 0.129362
H	-2.1720123488	 0.0114223168	-1.9164003446	 0.141674
H	-4.707646184	-1.0379761357	-2.185559289	 0.085298
