18
gdb 74597	3.8727	1.62972	1.43369	2.0552	78.27	-0.2314	0.0114	0.2428	950.9149	0.150152	-364.759948	-364.753411	-364.752467	-364.79058	27.271	
C	-0.0386891091	 1.5386959805	 0.0382500508	-0.500649
C	-0.0473217712	 0.0465970633	-0.0433002712	 0.323373
C	-0.0719477867	-0.7323312859	-1.1368829349	-0.202817
C	 0.0239033319	-2.1770410249	-0.718324384	-0.079003
C	 1.3427885367	-2.5534860997	 0.0143773566	-0.049719
C	 1.365412953	-1.6998179819	 1.2312895496	-0.051244
C	 0.0579077189	-0.8622195571	 1.1651725121	-0.140933
C	-0.5401105692	-2.2234027299	 0.7269769527	-0.000673
N	 0.6685422447	-3.0265460001	 1.2661462155	-0.183206
H	 0.8874447426	 1.9069168847	 0.4984778674	 0.128791
H	-0.1282947488	 1.9969220105	-0.950585737	 0.124978
H	-0.8623224138	 1.9085077533	 0.662126377	 0.126337
H	-0.0818835951	-0.3851603447	-2.1637677955	 0.093026
H	-0.3278044576	-2.9372030265	-1.4148709787	 0.073416
H	 2.2190703715	-3.0503435262	-0.3851985885	 0.09371
H	 2.2583463829	-1.5085181991	 1.8146610147	 0.09441
H	-0.2600560063	-0.4608496613	 2.1278049751	 0.070045
H	-1.5587946245	-2.530586325	 0.9602587182	 0.080158
