20
gdb 93254	2.73837	1.33091	0.96021	3.0556	76.14	-0.2283	-0.0268	0.2015	1240.1056	0.171649	-440.305561	-440.296892	-440.295948	-440.338649	33.341	
C	 0.0101195982	 1.4736625075	 0.0179990801	-0.320384
N	 0.022815	 0.0191778854	 0.0125415368	-0.068146
C	 0.5686057562	-0.519043286	-1.2273394364	-0.150138
C	 0.3796487827	-2.0476257383	-1.2913693136	-0.307934
C	 0.9363377526	-2.6858502585	-0.041092079	 0.358367
O	 1.7366802354	-3.5972093419	-0.0282691179	-0.331638
C	 0.4753319094	-2.0564373528	 1.2657258258	 0.041953
O	 1.1536068862	-2.6095898825	 2.3559030136	-0.437971
C	 0.6992039349	-0.5318677736	 1.1799754816	-0.176673
H	 1.020842873	 1.9193460446	-0.0417839388	 0.098084
H	-0.5717461956	 1.841745877	-0.8328620671	 0.120015
H	-0.4638862865	 1.8344763581	 0.9355646807	 0.124031
H	 0.0506333616	-0.0531326176	-2.0715779293	 0.109447
H	 1.6457142338	-0.2825524025	-1.3397762525	 0.090022
H	-0.6939636914	-2.265191949	-1.3419761393	 0.132037
H	 0.8683340734	-2.4765850295	-2.1689769438	 0.124403
H	-0.6109210677	-2.2268440214	 1.3494139534	 0.09733
H	 1.719147685	-3.3022745971	 1.9767788329	 0.291815
H	 1.790519255	-0.3427210067	 1.1724592994	 0.089299
H	 0.296912294	-0.067154525	 2.0848378635	 0.11608
