19
gdb 72613	2.14536	1.91816	1.59431	0.5315	74.49	-0.2384	0.0642	0.3026	970.2672	0.158392	-422.982455	-422.974269	-422.973324	-423.014542	32.519	
C	-0.0407440263	 1.5542814048	-0.1467154244	-0.470446
C	-0.0465264673	 0.0610062256	 0.0406703869	 0.364176
O	 1.0006055216	-0.5942392122	-0.7228665897	-0.331967
C	 1.4898408648	-1.3224123015	 0.4170787888	-0.146868
C	 0.381227086	-0.769797062	 1.3320193291	 0.287084
O	 0.7125531523	-0.2872694167	 2.5953061658	-0.474049
C	-0.9147554024	-1.5444156993	 1.2476595624	-0.079795
C	-2.082515677	-0.6000130097	 1.2944558255	-0.311649
C	-1.3351495801	-0.7477896386	-0.0010540485	-0.090109
H	 0.9185498695	 1.9853964068	 0.1577410357	 0.112259
H	-0.1949847744	 1.7991412378	-1.2037003343	 0.131124
H	-0.8368109681	 2.0285238391	 0.43397859	 0.124344
H	 1.5104499622	-2.4071931834	 0.257158712	 0.104597
H	 2.4991530631	-0.9886783057	 0.7044727936	 0.084817
H	 1.5490414239	 0.1871297867	 2.5357764549	 0.281556
H	-1.0181010247	-2.6060395801	 1.4398722764	 0.087166
H	-3.0576803753	-1.0747572398	 1.3205227461	 0.115649
H	-2.0197121541	 0.3145939528	 1.8770766663	 0.119617
H	-1.7929854035	-1.1282288049	-0.9058159966	 0.092493
