16
gdb 12407	3.09353	2.09665	1.36293	2.2012	60.9	-0.2627	-0.0324	0.2303	879.9704	0.131526	-420.898636	-420.891519	-420.890575	-420.929932	27.152	
O	 0.0523919434	 1.3738480873	 0.1484291083	-0.435109
C	 0.0310727789	-0.0163847937	 0.0214289394	 0.039139
C	-1.4229466477	-0.5526162165	-0.0227173725	-0.11486
O	-1.4427359448	-1.953213737	-0.209183671	-0.23378
C	-0.8972101539	-2.335935549	-1.4548851925	-0.086371
C	 0.594441404	-1.9391498632	-1.5635597509	-0.307274
C	 0.7278047527	-0.4670696435	-1.2548910916	 0.3524
O	 1.2660898839	 0.3477266097	-1.9746030147	-0.329688
H	 0.5598708284	 1.6904392513	-0.6169782287	 0.29409
H	 0.53565297	-0.5004808858	 0.8739616162	 0.099522
H	-1.9262639537	-0.3432604496	 0.9236249632	 0.12772
H	-1.9651317946	-0.0305292586	-0.8272078331	 0.103521
H	-1.0107853131	-3.4201194047	-1.5299866916	 0.122711
H	-1.4613465178	-1.8739046193	-2.2810832974	 0.106224
H	 1.158929694	-2.5135943402	-0.8197967763	 0.134434
H	 0.9983974506	-2.1503459173	-2.5568943968	 0.12732
