25
gdb 115291	2.71702	1.104	0.82878	0.1892	96.99	-0.2144	0.0389	0.2533	1508.973	0.228367	-352.394386	-352.383909	-352.382965	-352.429537	39.246	
C	 0.9480145441	-0.3446987067	 1.2832812734	-0.382238
C	 0.1251911539	 0.0940821747	 0.0675910259	-0.184449
C	 0.7350152844	-0.3437599762	-1.2737342092	-0.043493
C	 0.8187917515	-1.8807732821	-1.4520344515	-0.219375
C	 0.5919121274	-2.1313346308	-2.95684084	-0.300711
C	-0.1155455016	-0.8766691776	-3.4251659402	 0.213537
C	-0.7332743899	-0.8362724206	-4.7886433077	-0.495232
C	-0.037468378	 0.1006389373	-2.510969918	 0.228111
C	-0.5383459767	 1.5083533503	-2.630654779	-0.504229
H	 1.0290138316	-1.4348841942	 1.3425177483	 0.117921
H	 1.9657235699	 0.0596375055	 1.2358219642	 0.111326
H	 0.4945604574	 0.0049203055	 2.2161167584	 0.108468
H	-0.8934707553	-0.3103130528	 0.1439672998	 0.090676
H	 0.0238438599	 1.1861683624	 0.0826778647	 0.091663
H	 1.7478598427	 0.0930318171	-1.3249560041	 0.064228
H	 1.7563772163	-2.3051555144	-1.0836220865	 0.092426
H	 0.0071839081	-2.3465601533	-0.8800695287	 0.09609
H	 1.5414065038	-2.2561561929	-3.4995618969	 0.096698
H	 0.0128520123	-3.042818762	-3.1517850966	 0.092785
H	 0.0138568985	-1.0510188063	-5.5645168032	 0.121246
H	-1.5101052093	-1.6055916574	-4.8896837435	 0.121436
H	-1.1882375795	 0.1293413447	-5.0217112538	 0.119115
H	-0.9730032779	 1.713857497	-3.611680992	 0.118262
H	-1.3020558391	 1.7333521725	-1.8760461195	 0.125852
H	 0.2755373156	 2.2282319704	-2.4698415442	 0.119887
