23
gdb 120658	2.79308	1.02548	0.87264	1.0299	87.37	-0.2314	0.0777	0.3091	1465.7018	0.204642	-388.258762	-388.249049	-388.248105	-388.293903	36.209	
C	-0.0530817608	 1.3772084427	 0.2558381643	-0.387326
C	-0.1809089556	-0.1165221445	 0.4997137112	-0.034719
O	 1.0903353565	-0.6174891859	 0.8850348782	-0.244251
C	 1.0820576123	-1.9844355332	 1.1495183438	 0.067981
C	 2.2450779148	-2.5283934085	 1.9219055608	-0.403805
C	 0.8804476676	-2.47636763	 2.5596461434	 0.338467
C	 0.4216466316	-1.6068792298	 3.7356095528	-0.283618
C	-0.7518978138	-2.60945751	 3.9521676996	-0.201821
C	-0.0463560869	-3.6179827533	 2.995650862	-0.293296
H	 0.6852519383	 1.5755271899	-0.5262644446	 0.127911
H	-1.0138085569	 1.7966793658	-0.0574776714	 0.113848
H	 0.2689991059	 1.8893209263	 1.1671225339	 0.12637
H	-0.926482091	-0.3227623217	 1.283076914	 0.089483
H	-0.5227278261	-0.6303855349	-0.4140780975	 0.087065
H	 0.673291612	-2.5955404506	 0.3406795459	 0.075352
H	 2.6571936931	-3.4886931377	 1.6274828481	 0.108803
H	 2.9768306682	-1.8032753613	 2.2645934701	 0.12026
H	 1.1351496115	-1.6111592756	 4.5660460682	 0.098827
H	 0.1644873053	-0.5689843029	 3.5098099456	 0.103867
H	-0.9286454746	-2.9458421027	 4.9759510534	 0.096716
H	-1.695423148	-2.2401455211	 3.5422472204	 0.101599
H	-0.661849669	-4.0825451578	 2.2191854557	 0.093496
H	 0.4821227557	-4.4097996631	 3.537073282	 0.09879
