21
gdb 118285	5.82422	0.53614	0.51046	3.9226	77.37	-0.2734	0.0086	0.282	2092.3928	0.179583	-461.381678	-461.370616	-461.369672	-461.419634	37.622	
C	-0.0122216496	 1.4537877047	 0.2566556332	-0.404208
C	-0.0191598423	-0.0649540749	 0.0375391551	 0.007256
C	 0.6684547228	-0.4903975487	-1.2706389533	-0.173747
C	-0.0393148811	-0.0198956252	-2.5367027085	-0.084365
O	 0.6516237942	-0.5863764964	-3.6397486588	-0.419904
C	 0.6509303988	-0.7949767422	 1.2040839008	-0.086567
O	-0.0655146196	-0.5562619608	 2.4230548954	-0.182183
C	 0.6154087497	-0.1165297912	 3.4965468945	 0.170858
O	 0.0983446267	 0.0851276312	 4.5537494209	-0.275496
H	 1.0127184336	 1.8449566734	 0.256000843	 0.113048
H	-0.5662532444	 1.975153591	-0.5282102322	 0.122365
H	-0.4750778348	 1.7123035261	 1.2125428986	 0.136565
H	-1.062765513	-0.4072110218	 0.0092548997	 0.092628
H	 1.7018199106	-0.1204393191	-1.2909091614	 0.105229
H	 0.7285043166	-1.5847155282	-1.3203778094	 0.107754
H	-1.0924076224	-0.3463915936	-2.5138918191	 0.087696
H	-0.0389139443	 1.0788761452	-2.5941477906	 0.090954
H	 0.2410987408	-0.2677453117	-4.4487745765	 0.287514
H	 0.6497049146	-1.8766194829	 1.0320215855	 0.120494
H	 1.6945932938	-0.4685412121	 1.3158954148	 0.107561
H	 1.6929042292	 0.0360883673	 3.2874392184	 0.07655
