20
gdb 100847	1.97565	1.21162	0.79818	3.4265	80.65	-0.2753	-0.0526	0.2227	1444.7871	0.167951	-403.178497	-403.167812	-403.166868	-403.215476	37.043	
C	 0.1286705308	 1.5197970152	 0.033305347	-0.398404
C	 0.0155218615	-0.0026934361	-0.0961328137	-0.186455
C	-1.4310086213	-0.5302818282	-0.0276096869	 0.016164
C	-2.2689106673	-0.0957529231	-1.2371769902	-0.416753
C	-1.4194279203	-2.0920251263	 0.1082750373	-0.22796
C	-0.7871460836	-2.5067865353	 1.445117772	 0.162684
O	 0.3202768661	-2.9556861434	 1.5476625659	-0.232797
C	-2.7660791031	-2.6596350897	 0.050193556	 0.265804
N	-3.8293075565	-3.113598085	 0.0459482468	-0.319834
H	 1.1789616332	 1.8254618948	 0.0351759318	 0.12404
H	-0.3631663297	 2.0438405059	-0.7911187821	 0.124252
H	-0.3201476826	 1.8718940329	 0.9687775302	 0.119556
H	 0.4629049448	-0.3284463869	-1.044803671	 0.104808
H	 0.615587503	-0.4679344531	 0.6926920909	 0.12151
H	-1.9056109492	-0.1342339738	 0.8813712082	 0.093491
H	-3.2956253828	-0.4635407251	-1.168909874	 0.148065
H	-2.3097776323	 0.9939050503	-1.3057934965	 0.128194
H	-1.8335347156	-0.4746836628	-2.1690079103	 0.122668
H	-0.8104315124	-2.5222120139	-0.6944611307	 0.142861
H	-1.4387843127	-2.3289403663	 2.3276895195	 0.108108
