11
gdb 5366	5.91492	1.65864	1.29539	2.3623	58.27	-0.2742	-0.1052	0.169	840.17	0.074031	-393.627037	-393.620922	-393.619978	-393.657763	21.18	
O	-0.0765911336	-0.0069550693	-0.0032116923	-0.218818
C	 0.0051567451	 1.1903117021	 0.0056344064	 0.122598
C	 1.3130211173	 1.9479344207	-0.0020246204	 0.255618
N	 2.4579656616	 1.2637369585	-0.0200589705	-0.245513
C	 3.5481472453	 2.0283495812	-0.0253954832	 0.086094
N	 3.5696277992	 3.363752595	-0.0142583124	-0.226047
C	 2.363377887	 3.9302109739	 0.0034390077	 0.086985
N	 1.1997197344	 3.279440338	 0.0102965621	-0.260152
H	-0.8751072415	 1.8641137635	 0.0205855769	 0.108327
H	 4.509002065	 1.5191582538	-0.040327263	 0.146241
H	 2.3252026102	 5.0170539227	 0.0130437987	 0.144668
