18
gdb 71267	2.54486	2.00623	1.404	1.2346	74.08	-0.2346	-0.0178	0.2168	952.5942	0.148496	-401.934104	-401.926657	-401.925712	-401.96573	29.653	
C	-0.0459594841	 1.5342984344	 0.1122081727	-0.498786
C	-0.0535372516	 0.0263931856	 0.0397311945	 0.176386
C	 0.2758449461	-0.6902667747	-1.3128983817	-0.195588
N	-0.883794612	-1.6305190284	-1.1797888141	-0.149539
C	-0.8662961293	-2.1822775921	 0.2087147141	-0.023135
C	 0.4028020636	-2.1780168385	 1.0371825206	-0.367211
C	 0.8075905302	-0.6932215869	 1.0773613304	 0.389225
O	 1.6556726102	-0.1988634443	 1.772026324	-0.325719
C	-1.3643560735	-0.8066180789	-0.0172569302	-0.102473
H	 0.9816614769	 1.9088375862	 0.0851853768	 0.139009
H	-0.6024309168	 1.9766857667	-0.7195891929	 0.116994
H	-0.4934911126	 1.8839358724	 1.0481468149	 0.128447
H	 0.0918982932	-0.0320596718	-2.1653254746	 0.122517
H	 1.257033264	-1.1642802971	-1.4320400649	 0.108952
H	-1.5676776435	-3.0012505126	 0.3183608306	 0.105999
H	 0.2115171772	-2.5371971869	 2.0536450917	 0.13777
H	 1.2172790059	-2.7870140863	 0.630254309	 0.137947
H	-2.382500374	-0.4480108966	 0.0821510292	 0.099206
