16
gdb 133064	2.94682	1.26036	0.93864	3.6673	73.29	-0.2631	-0.0476	0.2156	1217.3842	0.125269	-442.106343	-442.098548	-442.097603	-442.139623	28.561	
C	 0.0813110268	 1.4997346903	 0.2103379732	-0.374007
C	-0.1375161739	 0.0077210657	-0.0931835786	-0.271761
C	 0.6955914115	-0.461391798	-1.256800306	 0.326405
C	 1.7605207576	-1.3522505195	-1.1150062329	-0.188134
C	 2.4590814456	-1.6940151415	-2.2652893684	 0.02093
N	 2.1488240383	-1.2065315749	-3.4695750185	-0.309307
C	 1.1228478468	-0.3728560868	-3.4700581748	 0.340702
F	 0.7979074344	 0.1212772308	-4.6506571884	-0.057558
N	 0.3766035369	 0.0341542604	-2.4626971112	-0.345775
H	 1.1172772624	 1.6949456586	 0.504926284	 0.12004
H	-0.1411834639	 2.1024747683	-0.6736390597	 0.146338
H	-0.5709105529	 1.8241948799	 1.0258762613	 0.120084
H	 0.0911858485	-0.5978976884	 0.7893202322	 0.105249
H	-1.1916268027	-0.1568024198	-0.3426854673	 0.129535
H	 2.0299595032	-1.7620187792	-0.1496564439	 0.109736
H	 3.2984236515	-2.3842427861	-2.2292865612	 0.127523
