17
gdb 123837	3.66932	1.62901	1.1626	2.592	82.34	-0.2171	-0.0132	0.2039	1022.8623	0.140524	-380.914545	-380.90789	-380.906946	-380.945509	26.779	
C	-0.0420372179	 1.4844673912	 0.0669163994	-0.264939
C	 1.3780571912	 2.0876866594	-0.0008440511	-0.333308
C	 2.2182266805	 1.3848794315	-1.0242844461	 0.403796
C	 3.2999520051	 1.7176968048	-1.8097817405	-0.360741
C	 3.6551138065	 0.5125941342	-2.4626800611	 0.008806
N	 2.8652081746	-0.4972380172	-2.1175364265	-0.279527
N	 1.9932255861	 0.0551806556	-1.2401075326	-0.023717
C	 0.9528067404	-0.6678408519	-0.6476217382	 0.046756
C	-0.01727313	-0.0252436902	 0.0041858326	-0.126571
H	-0.5406879224	 1.8240978405	 0.9798480634	 0.110926
H	-0.6460429273	 1.8663629176	-0.76980027	 0.122064
H	 1.3348192667	 3.1593969572	-0.212597437	 0.119462
H	 1.857768632	 1.9815561179	 0.9827099297	 0.124277
H	 3.770131076	 2.6842249837	-1.8957645712	 0.103805
H	 4.4541015661	 0.3460867421	-3.1704828911	 0.113665
H	 1.0235956279	-1.7383403619	-0.7838515125	 0.131096
H	-0.8238057653	-0.5920135646	 0.4533882226	 0.104149
