21
gdb 95639	2.17947	1.54917	1.08075	2.9141	78.1	-0.2292	-0.0202	0.209	1191.3469	0.182309	-424.252534	-424.243312	-424.242368	-424.286356	34.768	
C	-0.0249605148	 1.5707220074	-0.0855372527	-0.417278
C	 0.0449866758	 0.0408635824	-0.0478083867	-0.002214
C	 0.695563382	-0.531882548	-1.3109470426	-0.081541
O	 0.6181466237	-1.9474393953	-1.331254874	-0.2439
C	 1.3418475172	-2.552035769	-0.278161637	-0.179072
C	 0.9599850966	-2.027088493	 1.1079452381	 0.364971
O	 0.9072644314	-2.7647824214	 2.0638695222	-0.311552
C	 0.7365388335	-0.5192492436	 1.2230133269	-0.091378
C	 2.0963077254	 0.1348133937	 1.5593232125	-0.412899
H	 0.9651642985	 2.0231436631	-0.2019883139	 0.12149
H	-0.6428206661	 1.9078198335	-0.9240691209	 0.118885
H	-0.4670724334	 1.9683562679	 0.8338696075	 0.120687
H	-0.9827688184	-0.3459901085	-0.0424759906	 0.09049
H	 0.1642877535	-0.1890271505	-2.2037719555	 0.111305
H	 1.7450819694	-0.2015565245	-1.4015139875	 0.087682
H	 1.1471351667	-3.6256405917	-0.3133921145	 0.134901
H	 2.4296888474	-2.3976367457	-0.4096697577	 0.10726
H	 0.0800465544	-0.373437562	 2.0879035381	 0.095046
H	 2.8136143103	 0.052669135	 0.7366735265	 0.120914
H	 1.9701468371	 1.1958063271	 1.7885787776	 0.127315
H	 2.5333752599	-0.3494101371	 2.4367902042	 0.138887
