15
gdb 20561	4.56383	1.48706	1.40499	2.547	61.99	-0.2553	-0.0224	0.2329	925.0815	0.119993	-395.97727	-395.969691	-395.968747	-396.009866	27.	
C	 0.0232871629	 1.4666265885	 0.1068825567	-0.402295
C	 0.0283095381	-0.0739643988	 0.0266409784	-0.082305
N	-1.2964352243	-0.7051909516	 0.0372799846	-0.517197
C	 0.7676446215	-0.5276897934	-1.196607671	 0.484297
N	 1.9645040458	-1.0265727535	-1.2882871372	-0.324106
C	 2.0901608129	-1.2049473174	-2.6447490166	 0.036267
N	 1.0577318533	-0.8475031056	-3.3557881447	-0.11343
O	 0.1603174619	-0.3837473415	-2.3823958487	-0.210512
H	 1.040761819	 1.8703379544	 0.1220298181	 0.13396
H	-0.5055619117	 1.8959161756	-0.7499932291	 0.131103
H	-0.4847789027	 1.7855093867	 1.0222446807	 0.118376
H	 0.594528676	-0.4722352813	 0.8738253647	 0.124177
H	-1.7900660646	-0.4292811964	 0.8810228244	 0.23358
H	-1.8464399834	-0.3610811286	-0.7454058671	 0.239977
H	 2.9743023351	-1.6145288372	-3.1113017033	 0.148107
