14
gdb 2541	3.67743	1.90856	1.33472	2.2865	53.65	-0.2804	0.0155	0.2959	858.9367	0.112585	-361.714817	-361.706789	-361.705844	-361.747353	27.444	
O	 0.0874927752	 1.4105030139	 0.0047339171	-0.412703
C	 0.0572044384	 0.0031723437	-0.0222834105	-0.072324
C	-1.381098256	-0.565468828	-0.0551719977	-0.161245
C	-1.4036631514	-2.1092984552	-0.1512107486	-0.072322
O	-2.7078924693	-2.6317494945	-0.2420342527	-0.412702
C	-2.1142263191	-0.1311838168	 1.1361421186	 0.242662
N	-2.6676672163	 0.192773236	 2.0988633508	-0.325752
H	-0.260386651	 1.7052495442	 0.8540056446	 0.299636
H	 0.5659292735	-0.2994743958	-0.9426563982	 0.126199
H	 0.6040272033	-0.4383780552	 0.8242020266	 0.108615
H	-1.8965399327	-0.1555682712	-0.9308705414	 0.145487
H	-0.888354478	-2.4024815647	-1.070984051	 0.126198
H	-0.8459205127	-2.5350116963	 0.6962635749	 0.108615
H	-3.1547474239	-2.4800559101	 0.5984818276	 0.299635
