15
gdb 128453	4.65364	1.14612	0.925	0.0627	70.44	-0.2587	-0.0286	0.2301	1209.1719	0.113797	-453.995582	-453.987624	-453.98668	-454.028842	28.009	
C	 0.0406269021	 1.3356550553	 0.0092023947	-0.23736
O	-0.0313888949	-0.0977774928	 0.0023870981	-0.22245
C	-1.2655910449	-0.5880881678	 0.0091925596	 0.569357
O	-2.2905248803	 0.0445201422	 0.0201665381	-0.390855
N	-1.2568180317	-1.9956603968	 0.0018709947	-0.098189
C	-2.390269838	-2.7689863788	 0.006410596	 0.011235
C	-1.9717136062	-4.0701597767	-0.0033977919	-0.251427
C	-0.5517971015	-3.9899260525	-0.0137199931	 0.014137
N	-0.1180445767	-2.7435071292	-0.0105565323	-0.241217
H	 1.1041284603	 1.5707397996	 0.0014263089	 0.145311
H	-0.4519769804	 1.7482656751	-0.8743218847	 0.147292
H	-0.4368579446	 1.7390114311	 0.9052239384	 0.147259
H	-3.3624428109	-2.3066488574	 0.0161088591	 0.164191
H	-2.5884347496	-4.9539815175	-0.0032791621	 0.117671
H	 0.1630794472	-4.8004571539	-0.0232766935	 0.125045
