15
gdb 12719	3.03948	2.3492	1.74605	2.9276	62.42	-0.2592	0.0086	0.2678	789.6101	0.118537	-399.772871	-399.765829	-399.764885	-399.803967	26.412	
C	-0.1825649452	 1.4660497046	-0.0031007247	-0.483242
C	 0.053555697	-0.0143689559	 0.00769313	 0.307127
O	-1.1572338175	-0.8082332678	 0.137765266	-0.317624
C	-0.570572717	-1.6400702653	 1.1690970225	-0.104177
C	 0.7725877235	-0.9225530079	 1.039249302	 0.010363
O	 1.598505398	-1.48312122	-0.0213476126	-0.277124
C	 1.0171636451	-0.6620150996	-0.9814455549	 0.416328
N	 1.2491926289	-0.5373706892	-2.2040664936	-0.548912
H	 0.7658201291	 2.0105551289	-0.0163670587	 0.134383
H	-0.739980105	 1.7351785675	-0.9056508614	 0.156455
H	-0.7644583674	 1.7720243182	 0.8701658704	 0.128422
H	-1.0759564445	-1.4918909752	 2.1309074193	 0.114164
H	-0.5603224589	-2.7030093297	 0.9082040649	 0.12346
H	 1.3587141684	-0.6230510806	 1.9054981694	 0.107982
H	 1.9776069056	-1.179492518	-2.5217420187	 0.232395
