21
gdb 118856	3.72702	0.7638	0.74124	2.4038	75.59	-0.2274	0.0702	0.2975	1618.1636	0.179568	-461.323636	-461.313106	-461.312162	-461.359492	38.116	
C	-0.3606285673	 1.0341213358	-0.2278946881	-0.246354
O	 0.4603026113	-0.0857570853	 0.0764093029	-0.251299
C	 0.9664359846	-0.700843437	-1.0745211196	 0.019472
C	 1.4759503103	-2.1058777411	-0.8877186408	-0.390358
C	 0.1623502088	-1.8614209938	-1.6136529284	 0.419384
O	-1.0266587068	-2.155141282	-0.9302184044	-0.485328
C	 0.0337741362	-2.1289413829	-3.0917543513	-0.26532
C	-0.1789407097	-3.6130264296	-3.412999872	-0.058987
O	-0.2602656572	-3.8582272299	-4.809527049	-0.421923
H	 0.2093762928	 1.8080577724	-0.7611990289	 0.116164
H	-1.2244868986	 0.7463296458	-0.8411750421	 0.122977
H	-0.7092203983	 1.4423971353	 0.7233323086	 0.131659
H	 1.4852652561	-0.0274137378	-1.7578614546	 0.086715
H	 2.3526068037	-2.4108909931	-1.4492169552	 0.117815
H	 1.4110707315	-2.5122397888	 0.1162581722	 0.123158
H	-0.9800186616	-1.6804359845	-0.0892892588	 0.287144
H	-0.8139648087	-1.5486577372	-3.4814954886	 0.091063
H	 0.9330713809	-1.7802235078	-3.6115248115	 0.102489
H	 0.6776096284	-4.1954243911	-3.0576378135	 0.111922
H	-1.067124896	-3.9832086452	-2.8828896635	 0.109552
H	-1.0673340005	-3.4449190421	-5.1319469334	 0.280056
