17
gdb 23460	3.323	1.33798	1.04703	1.3491	80.94	-0.2196	-0.0349	0.1847	1129.6569	0.137377	-417.950192	-417.942606	-417.941661	-417.98217	29.848	
O	-0.0541020529	 1.3320396452	-0.2816462288	-0.393344
N	 0.0105224341	-0.067654321	-0.2557466846	-0.22428
C	-1.1152802182	-0.5991687511	 0.068635884	 0.372468
C	-2.3485185538	 0.1143404367	 0.3832277402	-0.146679
C	-3.3483334429	-0.5077139249	 1.0185847986	-0.073073
C	-3.2627071106	-1.9368544701	 1.4806484659	-0.212478
N	-2.2230631821	-2.76484009	 0.8630079422	-0.108864
C	-2.2063107186	-2.8312391343	-0.5915538867	-0.253597
C	-1.1356707896	-2.084006064	 0.140895867	-0.088592
H	 0.8369091142	 1.5686525749	-0.5588236466	 0.308541
H	-2.4111461963	 1.1587110671	 0.1059506287	 0.121245
H	-4.2621808053	 0.0303873133	 1.2593438275	 0.103801
H	-3.0935372027	-1.947595887	 2.5673801919	 0.129011
H	-4.2252907499	-2.4414673228	 1.3263182828	 0.119751
H	-1.987212841	-3.8092768942	-1.0111797712	 0.120742
H	-2.9282597825	-2.238438105	-1.1490239772	 0.118317
H	-0.1566020319	-2.5419962728	 0.2446770264	 0.107032
