16
gdb 17391	5.07532	1.659	1.5711	2.4323	63.79	-0.2429	0.07	0.3129	844.7152	0.1305	-383.667466	-383.660816	-383.659872	-383.698455	25.498	
C	-0.0110838949	 1.47351106	 0.1041576583	-0.303156
C	 1.2566403685	 0.7099195899	-0.0950220313	 0.099415
O	 1.703423853	 0.1468742989	 1.1458373706	-0.319597
C	 0.5179012681	-0.6765669167	 1.212785947	 0.376487
C	 0.710439404	-2.1999678367	 1.3159899332	-0.135353
O	-0.1512353643	-2.2595248992	 2.4716831643	-0.275125
C	-0.2210256161	-0.819329892	 2.552547047	-0.131248
C	-0.0524145199	-0.0372705247	-0.0443124749	-0.200984
H	-0.2060726428	 1.9450252061	 1.0634523325	 0.120112
H	-0.3756072989	 2.0179442574	-0.7616518356	 0.119047
H	 1.9902167254	 0.8672070823	-0.8759870016	 0.10999
H	 0.333850897	-2.8073925735	 0.4843703545	 0.104204
H	 1.745331294	-2.4840241477	 1.545316081	 0.111101
H	 0.3477818082	-0.4213382537	 3.4026171097	 0.111701
H	-1.2527428364	-0.4510585715	 2.5916689441	 0.106508
H	-0.6135808549	-0.5489037688	-0.8142560489	 0.106898
