19
gdb 82932	2.21101	1.81698	1.54465	3.1411	73.73	-0.2292	0.0722	0.3014	986.8184	0.159861	-423.001334	-422.993571	-422.992627	-423.033078	31.364	
C	-0.0134819356	 1.5299357196	-0.010943032	-0.491008
C	 0.0391756498	 0.0200043696	 0.0353522109	 0.239484
C	-0.850173281	-0.7650087069	 0.9880586731	 0.09477
O	-1.6105845511	-1.875985465	 0.6589741867	-0.434224
C	 0.6433929896	-0.7749958151	 1.2112965878	-0.156287
C	 1.4871907875	-1.9238201129	 0.6467843542	-0.275201
C	 1.3875136711	-1.8197560831	-0.8694947895	 0.037836
O	 0.0707564805	-2.0483499118	-1.408257393	-0.279393
C	 0.5211817572	-0.6819649273	-1.2169630799	-0.023894
H	 0.9490510144	 1.9606797272	-0.3135201278	 0.115706
H	-0.7751321026	 1.8833617789	-0.7158578282	 0.124509
H	-0.259584327	 1.9396882507	 0.9731248514	 0.121955
H	-1.3993371968	-0.1419510021	 1.6907614714	 0.097263
H	-1.2192469327	-2.2535689986	-0.1439528581	 0.299877
H	 1.027174907	-0.2586467912	 2.0863124293	 0.08308
H	 2.5341021966	-1.8058345835	 0.9448555436	 0.11132
H	 1.1561621599	-2.9072274534	 1.0007825506	 0.12658
H	 2.1910892295	-2.1846873455	-1.5042068262	 0.104149
H	 0.6181911037	-0.1158039497	-2.1392198541	 0.103478
