19
gdb 35217	3.16173	1.21307	1.03258	0.7808	89.82	-0.2194	0.0164	0.2358	1212.0002	0.159148	-348.724224	-348.71582	-348.714876	-348.757443	32.757	
C	 0.1285258388	-1.1686906548	-0.240045501	-0.458279
C	 0.0792508182	 0.0310385444	-0.1493206665	 0.330982
C	 0.0397245868	 1.4572053761	-0.051174195	-0.252175
C	 0.2912509692	 2.1516350257	 1.2763542791	-0.34517
C	 1.3343601242	 2.2613834519	 0.2035515595	 0.334857
C	 2.7080216951	 1.5851691	 0.3132275016	-0.307634
C	 3.6228653854	 2.3586146487	-0.6784250058	-0.263296
C	 2.8074571491	 3.5767356665	-1.0437682438	-0.078318
C	 1.5653160785	 3.5120231209	-0.5648936793	-0.129681
H	 0.1580151088	-2.2270506167	-0.316585409	 0.193168
H	-0.6777183114	 1.9398174113	-0.7091753465	 0.109234
H	-0.3170159506	 3.0205351778	 1.5066787841	 0.11465
H	 0.5116726237	 1.5148568034	 2.1265649325	 0.123738
H	 3.0885350843	 1.6878893018	 1.3345487862	 0.105475
H	 2.6548509079	 0.5166137549	 0.0928758727	 0.120577
H	 4.5882382952	 2.620343097	-0.2302254671	 0.105018
H	 3.8544479797	 1.7647478369	-1.5727755112	 0.111443
H	 3.2004369804	 4.383762511	-1.6519429609	 0.09381
H	 0.7858410468	 4.2514512832	-0.7156834997	 0.0916
