14
gdb 132756	2.46781	1.8096	1.05078	1.9606	66.92	-0.2492	-0.0339	0.2154	1044.0039	0.100954	-478.036627	-478.028924	-478.02798	-478.069077	28.378	
C	-0.01745124	 1.5202816073	 0.0582395772	-0.478925
C	-0.0019337137	 0.0204806304	 0.0130179042	 0.255737
C	 0.0708720608	-0.6561457969	-1.2070312261	 0.171603
O	 0.129287015	 0.0213776827	-2.3801456164	-0.433972
C	 0.0787996976	-2.0464674966	-1.1306320292	 0.24727
F	 0.1479277716	-2.7189621811	-2.2863150562	-0.080565
N	 0.0240556973	-2.730422245	-0.0197029531	-0.30276
C	-0.04326436	-1.9925248396	 1.0954640117	 0.049004
N	-0.058918352	-0.6664909734	 1.1644480645	-0.298623
H	 0.8871064997	 1.9332968345	-0.4011951018	 0.144698
H	-0.8658479207	 1.9186247236	-0.5085599363	 0.144635
H	-0.0832540062	 1.8526329426	 1.0942835529	 0.145807
H	 0.1738534548	-0.6219550787	-3.0984628921	 0.309674
H	-0.0901535141	-2.5375724898	 2.0332524505	 0.126418
