15
gdb 29226	3.23371	1.43277	0.99399	1.5807	73.71	-0.1917	-0.004	0.1877	1114.0035	0.115034	-450.200177	-450.192101	-450.191157	-450.2322	31.561	
N	-0.0472110671	 1.3639184012	-0.1310706367	-0.569907
C	-0.0204244076	 0.0023637451	-0.0233868501	 0.332581
N	-1.1725496482	-0.6603825803	-0.0010546118	-0.380772
C	-1.1032459629	-2.0007957196	 0.0590506306	 0.409995
N	-2.3054117511	-2.6684961903	 0.1359817855	-0.560302
H	-3.1030975075	-2.1585479699	-0.2074825063	 0.25267
H	-2.2633238876	-3.6439913865	-0.1117670785	 0.25448
N	 0.0052487428	-2.7436094499	 0.0922304086	-0.331629
C	 1.1560478156	-2.0532233138	 0.0785683521	-0.112176
C	 1.21566802	-0.680086701	 0.0246536455	 0.256815
O	 2.3604351735	 0.0810609884	 0.0117610413	-0.46703
H	 0.7913558666	 1.862562008	 0.1162016515	 0.26834
H	-0.9273657727	 1.8061597088	 0.0788661625	 0.258015
H	 2.0756663564	-2.639263737	 0.1120656857	 0.090779
H	 3.1249713098	-0.4987606535	 0.0895428402	 0.29814
