13
gdb 9017	5.39825	1.16338	1.0532	3.0173	68.79	-0.2588	-0.0366	0.2223	1070.9708	0.094165	-357.618596	-357.610262	-357.609318	-357.651575	29.55	
N	 0.2551134605	 1.0594741407	 0.7751440997	-0.557025
C	 0.166532442	-0.1714016756	 0.1595085467	 0.203017
N	 1.1116464748	-0.845933614	-0.3919607802	-0.285132
C	 2.4510713375	-0.2783892321	-0.4126775789	-0.290867
C	 3.0270640961	 0.0037676952	 0.9148939688	 0.249611
N	 3.4231592808	 0.2508516928	 1.9732598072	-0.318231
C	-1.168461361	-0.7073331621	 0.0976261031	 0.292711
C	-2.2964965748	-1.1208165778	 0.0701910357	-0.373692
H	 1.1378806987	 1.3180599424	 1.1926301558	 0.280526
H	-0.5527538519	 1.3518863962	 1.3020969722	 0.268769
H	 3.1150965948	-0.9816294925	-0.9242093557	 0.16295
H	 2.4804123549	 0.6629500387	-0.9846379842	 0.155486
H	-3.2855964425	-1.5073159021	 0.0316425299	 0.211878
