18
gdb 126497	3.32833	1.34939	1.0232	5.1809	78.37	-0.2491	0.0118	0.2608	1170.4598	0.149383	-398.100737	-398.09282	-398.091875	-398.133675	29.388	
C	-0.0602458585	 1.5620736455	 0.1166057532	-0.392753
C	 0.3071490828	 0.0774001864	 0.2056957965	-0.192974
C	 0.7087519498	-0.5068613789	-1.1373181834	 0.050493
C	 0.8128666863	-2.0799779849	-1.2726993239	-0.41555
C	-0.3321097972	-1.9594985609	-2.2737863101	 0.312779
C	-1.3068365365	-2.2483939885	-3.2033854008	-0.212135
N	-1.8874459169	-1.0545527321	-3.5475085524	-0.180182
N	-1.335374104	-0.0506181118	-2.9003153759	-0.192244
N	-0.3984418757	-0.6290008577	-2.1331980436	 0.093062
H	 0.7878501544	 2.1597218307	-0.2343263875	 0.119894
H	-0.8905980951	 1.7161136706	-0.5790879338	 0.157062
H	-0.3594822987	 1.9475410226	 1.0951549897	 0.121721
H	 1.1460575059	-0.0684051479	 0.8978346157	 0.110583
H	-0.5371020816	-0.4985996792	 0.6031339374	 0.113477
H	 1.5631235538	 0.02586093	-1.5657839024	 0.113937
H	 1.7590576438	-2.4435747641	-1.6779275369	 0.135758
H	 0.5781161712	-2.6200858193	-0.3529107776	 0.134002
H	-1.6360959338	-3.1741816006	-3.6433685241	 0.12307
