14
gdb 14605	15.33229	0.5588	0.54838	1.9185	71.	-0.2663	-0.0677	0.1986	1851.768	0.103531	-382.524927	-382.515777	-382.514833	-382.561633	28.893	
O	-0.1664213657	-0.074839158	-0.1069279762	-0.224413
C	-0.0205942729	 1.1181903754	-0.094072788	 0.156231
C	 1.3175896485	 1.8251485089	-0.1550380214	-0.26665
C	 1.3329079213	 2.9231402206	-1.2432325293	-0.372349
C	 2.5586744333	 3.7046911106	-1.2505852846	 0.07277
C	 3.5790034192	 4.3509092655	-1.2539901441	 0.067934
C	 4.8059883948	 5.1066041116	-1.2346646909	 0.019142
O	 5.0717595561	 5.9998522931	-2.0052578673	-0.224708
H	-0.8984825582	 1.804200445	-0.0265006263	 0.077195
H	 1.4895719391	 2.2956333214	 0.82231808	 0.139955
H	 2.1055142509	 1.0871050121	-0.3203892243	 0.141287
H	 1.1936567383	 2.4686856437	-2.2325288005	 0.160755
H	 0.4802074371	 3.6008884607	-1.1006428066	 0.151914
H	 5.5132957582	 4.8015153495	-0.4368211106	 0.100936
