17
gdb 38599	3.20815	2.14986	1.83674	1.701	68.43	-0.2318	0.0714	0.3033	797.4768	0.140275	-421.790606	-421.785233	-421.784289	-421.820045	23.935	
C	-0.0055380749	 1.6206618109	-0.076173846	-0.248621
C	 1.4797632125	 1.9626371382	 0.0900363556	 0.08932
O	 1.8106455752	 1.8106072949	 1.4976457752	-0.313508
C	 2.1390336581	 0.4314558668	 1.2524931092	 0.120665
C	 0.9136176815	-0.515232638	 1.2059400534	 0.029103
O	 1.3967234445	-1.5142571717	 0.2556471539	-0.303375
C	 1.228573187	-0.4449986127	-0.7237267897	 0.075214
C	 0.023040535	 0.1028836516	 0.0711190061	-0.048711
C	 2.2412923183	 0.6435052682	-0.2795712724	-0.110715
H	-0.6066178021	 2.1438183412	 0.6721875925	 0.115697
H	-0.3774123506	 1.8902581229	-1.0728037752	 0.099104
H	 1.802826124	 2.9296111453	-0.3001762726	 0.078193
H	 2.9731373856	 0.0664725023	 1.8533730616	 0.089013
H	 0.5156989023	-0.9275569833	 2.1323350667	 0.080413
H	 1.1943001289	-0.7826757622	-1.7586122525	 0.08197
H	-0.9089773252	-0.4422855583	-0.0709190466	 0.08382
H	 3.21505999	 0.7013534639	-0.757135579	 0.082418
