15
gdb 47134	3.21573	1.25436	0.91088	3.2562	77.85	-0.2164	-0.0283	0.188	1202.9146	0.113577	-416.830752	-416.822493	-416.821549	-416.863987	30.65	
O	 0.0245829484	-0.041831138	-0.0101542184	-0.406963
C	 0.0046356354	 1.1733043073	 0.01189679	 0.446255
N	-1.1341898514	 1.9178066499	-0.1529905402	-0.352337
C	-1.2726153895	 3.3511313855	 0.0796582542	-0.204403
C	 0.0619014453	 4.0278816217	-0.0198072564	-0.189115
C	 1.1993031386	 3.3179266193	 0.0402134852	 0.246727
N	 1.1622467728	 1.9243934218	 0.18124639	-0.442259
C	 2.4946016348	 3.9035130266	-0.0209976226	 0.240851
C	 3.6079861575	 4.3580715967	-0.06710171	-0.418173
H	-1.9686245993	 1.3549841477	-0.196104	 0.255919
H	-1.9627231095	 3.7659946856	-0.6674694543	 0.123108
H	-1.7312420443	 3.5539808188	 1.0644037393	 0.118033
H	 0.0985321647	 5.1037993999	-0.112881336	 0.110657
H	 2.0190464979	 1.3968891713	 0.1584175836	 0.265594
H	 4.5841786685	 4.7745815659	-0.1097207345	 0.206105
