22
gdb 65133	2.89639	1.35505	1.23314	1.5522	84.77	-0.2241	0.0875	0.3116	1147.8515	0.194946	-367.147952	-367.139399	-367.138454	-367.180855	33.976	
C	 1.2152895678	-0.9558162876	-0.2285805642	-0.446781
C	 0.0824903146	 0.0392269362	-0.0271602055	 0.323958
C	 0.2073836364	 0.9721117751	 1.1589740833	-0.308285
C	 0.3815338712	 1.5077746235	-0.2376325487	-0.301876
C	-1.2784259378	-0.5612246614	-0.2699033396	-0.055503
C	-2.4610373426	-0.0214320233	-0.9807612971	-0.062975
C	-2.1638526235	 0.7903339461	-2.240446776	-0.243285
C	-1.2531575458	-0.3781521467	-2.6741695438	-0.153835
N	-1.7007636284	-1.2403284264	-1.5154268193	-0.163643
H	 2.1801754566	-0.5101465504	 0.032575828	 0.109732
H	 1.0719025948	-1.8400953419	 0.402843957	 0.119872
H	 1.2718752312	-1.3015779645	-1.2658546934	 0.124387
H	-0.6998621551	 1.2432286915	 1.6890086673	 0.111835
H	 1.0820314922	 0.8715629936	 1.7929643581	 0.108661
H	 1.3807563485	 1.7716749928	-0.5690444241	 0.109194
H	-0.3946558279	 2.1585929656	-0.6171811462	 0.116525
H	-1.571211558	-1.2004140334	 0.5651301518	 0.094188
H	-3.4547946436	-0.1253840717	-0.5527673772	 0.08976
H	-3.0507590654	 0.8652390426	-2.8734150546	 0.110568
H	-1.7345715475	 1.7880379548	-2.1329732373	 0.101976
H	-1.5422179768	-0.8496365866	-3.6149451365	 0.107653
H	-0.1784967909	-0.1799638378	-2.691699762	 0.107874
