19
gdb 1890	4.81663	2.02164	1.57387	1.2058	67.6	-0.2459	0.0852	0.3311	851.3752	0.172079	-310.942587	-310.934911	-310.933967	-310.974709	28.329	
C	 0.0193768865	 1.5669404982	 0.1716007724	-0.408724
C	 0.1118421441	 0.0562436912	 0.0506804802	 0.164509
C	 0.8062816652	-0.4690958158	-1.2283701965	-0.233934
C	 1.5875530937	-1.7131190887	-0.738770129	-0.234106
C	 1.2656969256	-1.7783375062	 0.7733816414	 0.164571
C	 2.4077669443	-2.229176374	 1.6665858788	-0.408725
O	 0.8926229797	-0.4515829332	 1.1259639265	-0.269148
H	 1.0179033698	 2.0130800404	 0.1255791578	 0.119753
H	-0.5846437216	 1.9798274896	-0.6424428018	 0.113265
H	-0.4419215795	 1.8524946262	 1.1211730403	 0.123264
H	-0.9022551346	-0.3782011369	 0.1100555747	 0.057073
H	 0.0822513596	-0.7011978559	-2.0137495627	 0.09853
H	 1.4875753929	 0.2895126438	-1.6254113274	 0.100881
H	 1.2937021072	-2.6317397369	-1.2532600094	 0.098549
H	 2.6635725575	-1.5837438021	-0.8895038271	 0.100886
H	 0.3977845623	-2.4449780898	 0.9248972785	 0.057087
H	 3.2733407101	-1.5718297286	 1.5366144035	 0.119744
H	 2.1106698109	-2.203332165	 2.7187702425	 0.123263
H	 2.7068455566	-3.2523719664	 1.4183770673	 0.113263
