15
gdb 21024	6.57941	1.29113	1.11391	4.6057	63.38	-0.2536	0.003	0.2566	1038.9481	0.120426	-396.002115	-395.994361	-395.993417	-396.035032	26.837	
C	-0.3870997584	 1.3433927749	-0.0908702686	-0.320918
N	 0.0023242647	-0.0460144999	 0.0160177623	 0.055198
C	 0.5834860022	-0.8473215845	-0.8962104578	 0.006778
N	 0.7592966273	-2.0580485058	-0.4003893357	-0.334608
C	 0.2468340202	-1.9453942695	 0.8590668306	 0.333823
C	 0.2655046723	-3.1156959792	 1.7984526778	-0.145121
O	 0.1070766319	-4.3343628593	 1.1033890308	-0.419696
N	-0.2270888725	-0.7461938124	 1.1566729292	-0.309789
H	 0.1286552387	 1.9375046151	 0.6673922271	 0.15817
H	-0.1171878775	 1.7086599451	-1.0832599693	 0.145168
H	-1.4657916559	 1.4436565317	 0.052066174	 0.159077
H	 0.8527818349	-0.5109049993	-1.8864305515	 0.145319
H	 1.2103351225	-3.1023686702	 2.3686770965	 0.103434
H	-0.5493941829	-3.0211370179	 2.5222684466	 0.126519
H	 0.5605262525	-4.2229981388	 0.2580390381	 0.296644
