19
gdb 106963	3.59283	1.04667	0.98539	1.6532	71.59	-0.2588	0.0677	0.3265	1270.1923	0.156451	-460.120247	-460.110885	-460.109941	-460.154199	35.416	
C	 0.0481214905	 1.5672242724	 0.0352501323	-0.457527
C	 0.0174756096	 0.0493232166	 0.0003609684	 0.391891
O	-1.300854982	-0.4677166922	 0.0023630746	-0.481796
C	 0.948834514	-0.6775058958	-1.0526312186	-0.352824
C	 1.6369234763	-1.3875282123	 0.1216064072	 0.40301
C	 2.3544059192	-2.6977439035	 0.161988756	-0.184962
O	 3.5915852142	-2.6430642541	-0.5323013995	-0.413561
O	 2.1718555956	-0.3359975632	 0.9618981437	-0.301552
C	 0.7954905387	-0.6924995544	 1.1080742216	-0.078397
H	 1.0742892154	 1.9225780817	 0.1554755043	 0.138678
H	-0.348498262	 1.9853476171	-0.8983550473	 0.107392
H	-0.5601248203	 1.9422263444	 0.8642796894	 0.123085
H	-1.7738140859	-0.0805801424	-0.7421317152	 0.279726
H	 0.3595769803	-1.3528764254	-1.6768786106	 0.10888
H	 1.6017822111	-0.0564431463	-1.6700247615	 0.104095
H	 2.4879277576	-3.0000465258	 1.2115874381	 0.099148
H	 1.7579952457	-3.467075101	-0.3389731393	 0.117437
H	 4.1185315959	-1.9559556516	-0.1092120792	 0.292851
H	 0.4393960561	-0.9843235843	 2.090303746	 0.104428
