22
gdb 103972	2.31195	1.5008	1.14763	1.1624	81.85	-0.2313	0.0565	0.2877	1174.1571	0.193095	-404.290923	-404.281398	-404.280453	-404.324749	36.672	
C	-0.181608495	 1.5101656919	-0.2057645953	-0.317902
N	 0.1002154799	 0.1126815177	 0.0801689001	-0.076263
C	 1.3466264012	-0.5434946133	-0.2116394808	-0.037003
C	 2.5900230966	 0.304407076	 0.1339004893	-0.330828
C	 2.1312698307	 0.333782531	 1.632050729	 0.291852
C	 2.9837879989	-0.5952511013	 2.5022581131	-0.433982
C	 1.9755066148	 1.6915293768	 2.3239839453	-0.13028
O	 1.2397882637	 1.5951607402	 3.5377690339	-0.42218
C	 0.8313473903	-0.4164108155	 1.2065451428	-0.112445
H	 0.6965754258	 2.165569729	-0.2657539618	 0.111531
H	-0.7017966894	 1.5638822046	-1.1680090859	 0.123999
H	-0.855949269	 1.9069388374	 0.5599036214	 0.119039
H	 1.3405556365	-1.4043209701	-0.8723622512	 0.092607
H	 3.5278013745	-0.2383148716	-0.0029443098	 0.106227
H	 2.6722686245	 1.2667946403	-0.3813405567	 0.097713
H	 4.0063397606	-0.211511019	 2.5908242152	 0.11157
H	 2.5596335283	-0.6619097447	 3.5083551609	 0.129415
H	 3.0353903035	-1.6038409276	 2.0796296342	 0.110834
H	 2.962987248	 2.074116318	 2.608301157	 0.104798
H	 1.5251388288	 2.4327816065	 1.6524847071	 0.085403
H	 0.3519998455	 1.2972959003	 3.3128160779	 0.285547
H	 0.3391340412	-1.1652840964	 1.8217856344	 0.090348
