20
gdb 105973	4.28528	1.14415	1.12795	1.8815	82.53	-0.2048	0.0705	0.2753	1207.2584	0.169668	-365.903592	-365.89508	-365.894136	-365.93653	32.823	
C	-0.0567513949	 1.5431283908	 0.0111398975	-0.383557
C	 0.0364979428	 0.0133883318	 0.0081947279	-0.331176
C	 0.6531962864	-0.5324994484	 1.2557510633	 0.388003
C	 1.0445824948	-1.97396183	 1.6844524362	-0.250864
C	 2.2739603884	-1.3783867406	 2.3258008171	-0.063142
N	 1.9065556674	 0.0341687012	 1.8805912148	-0.218859
C	 0.6318298064	-0.0989257077	 2.6816894381	-0.183466
C	 1.0235258101	-1.5264324324	 3.1560210903	 0.343828
C	 0.7324972636	-2.3072552786	 4.3933484214	-0.5256
H	 0.9300313747	 1.9860033597	 0.1706031087	 0.144274
H	-0.452233318	 1.9092713479	-0.9403231496	 0.111362
H	-0.7187449101	 1.897688922	 0.8079232757	 0.11531
H	-0.961441652	-0.4283101437	-0.1167969612	 0.101576
H	 0.632135986	-0.3217922733	-0.8517535104	 0.106324
H	 0.8582803809	-2.9544686756	 1.2677561494	 0.090206
H	 3.285945573	-1.7452457487	 2.4502497801	 0.0941
H	 0.1755928287	 0.7503623965	 3.178917369	 0.088903
H	-0.3437148163	-2.4703212093	 4.5240921155	 0.123079
H	 1.2131343457	-3.2907952393	 4.349307365	 0.12432
H	 1.1056195224	-1.7954299421	 5.2882957813	 0.125381
