17
gdb 38436	4.06666	1.34433	1.23061	1.1344	72.36	-0.2346	0.0213	0.256	1026.6269	0.138322	-417.970811	-417.963768	-417.962824	-418.002602	27.516	
C	-0.0095790338	 1.5162287636	-0.0117015368	-0.287573
C	 1.5161794102	 1.5403951549	-0.1113664719	-0.030913
N	 2.0169252221	 0.8284360218	 1.093141782	-0.347589
C	 1.584324749	 0.0584489644	-0.1001274617	-0.115399
C	 0.0535436113	-0.0570825548	 0.0252775222	 0.345385
C	-0.5239677759	-0.821388505	 1.2369066147	-0.166605
O	-1.356400339	-1.8520954311	 0.6425897508	-0.222835
C	-1.2908545629	-1.6296603963	-0.6871903076	 0.105149
N	-0.5737892652	-0.6868280937	-1.1426946811	-0.318045
H	-0.4389746331	 2.0110036714	 0.8639177273	 0.100569
H	-0.5092253116	 1.8473462315	-0.9232743732	 0.123067
H	 2.1385984152	 2.2601668033	-0.626827075	 0.096191
H	 3.0355833055	 0.8682571308	 1.0654958847	 0.230731
H	 2.2466962626	-0.6298730655	-0.6104028327	 0.095168
H	 0.2439144737	-1.298183819	 1.8495406048	 0.131633
H	-1.1593140496	-0.2033465726	 1.8768710596	 0.121905
H	-1.8856839884	-2.3107565036	-1.2862415961	 0.139162
