13
gdb 24769	3.50803	1.78819	1.18443	2.9032	74.03	-0.237	-0.0958	0.1412	934.8823	0.092805	-415.677459	-415.67133	-415.670385	-415.708078	23.718	
O	 0.0392669513	-0.0600992326	 0.0019120348	-0.321591
C	-0.0411453351	 1.1377119379	 0.0095260448	 0.41076
C	-1.2213841666	 2.0463060435	 0.0315585549	-0.233827
C	-0.8060214796	 3.3325015247	 0.0324073867	-0.209189
C	 0.6462820712	 3.3579202874	 0.0113847008	 0.309393
C	 1.7873888532	 4.1156882074	-0.00123659	-0.182824
N	 2.9057786706	 3.2911674318	-0.0219643761	-0.278686
C	 2.44515871	 2.0629628793	-0.0217706286	 0.042115
N	 1.0750655468	 2.0460695313	-0.0018666132	-0.115401
H	-2.2319442983	 1.6678299019	 0.0442395704	 0.13877
H	-1.4313054223	 4.2143101745	 0.046231382	 0.142297
H	 1.8896636947	 5.1899558579	 0.0029960977	 0.13241
H	 3.036420794	 1.1602929651	-0.0352100842	 0.165773
