16
gdb 32333	3.09725	1.36075	1.00893	4.9919	67.19	-0.2095	0.0292	0.2387	1147.0426	0.123197	-475.057735	-475.048675	-475.047731	-475.092434	31.143	
C	 0.3713511303	 1.1771216644	-0.2842294613	-0.255572
O	-0.2883987597	 0.3877429777	 0.7153708393	-0.268102
C	-1.290903908	-0.3871361238	 0.2654292987	 0.324761
C	-1.3172124234	-1.6781728006	-0.0891837762	-0.147306
O	-2.6159290123	-2.0328892597	-0.4121610009	-0.214656
C	-3.4274129284	-0.9314843338	-0.2501053863	 0.494295
O	-4.6154635468	-0.9217300011	-0.4380546891	-0.412486
N	-2.6038722795	 0.097142562	 0.1609580964	-0.191622
C	-3.0902154849	 1.4110796285	 0.5209185011	-0.347361
H	 1.1737295155	 1.7096051421	 0.2281583123	 0.144269
H	 0.7893383809	 0.5346077483	-1.0664933654	 0.133484
H	-0.3149179035	 1.9011519982	-0.7383229491	 0.12863
H	-0.5612100799	-2.4392452132	-0.1468775466	 0.156822
H	-4.1764291847	 1.3428531244	 0.5981631982	 0.173573
H	-2.6680859164	 1.7219556901	 1.4797564862	 0.147179
H	-2.8383104793	 2.1599585265	-0.2383243374	 0.134093
