16
gdb 53084	3.82151	0.93841	0.76057	2.9075	87.33	-0.2321	-0.041	0.1911	1469.4734	0.124017	-400.754735	-400.745962	-400.745018	-400.790176	30.819	
C	-0.0591828338	 1.4697956883	-0.0067977695	-0.510923
C	 0.0005809871	 0.0180441001	-0.0163982107	 0.258435
C	 0.0379773684	-1.1871163203	-0.0228878581	-0.095417
C	 0.062936183	-2.598083181	-0.0282112876	 0.130487
C	 1.1131397129	-3.4256494828	-0.1565924004	-0.256616
C	 0.6402731801	-4.8433628739	-0.1017110393	-0.128852
O	-0.7755469047	-4.7509624152	 0.0696947805	-0.244429
C	-1.1578463456	-3.4332772143	 0.118087839	 0.321839
N	-2.3436166289	-3.0224213586	 0.2621855352	-0.547122
H	 0.5350478052	 1.8855749059	 0.8146488836	 0.152828
H	 0.3294725169	 1.8887678934	-0.9417625784	 0.152795
H	-1.089964844	 1.8190900593	 0.1145055487	 0.160702
H	 2.1490414523	-3.1433619554	-0.2814311162	 0.120936
H	 0.8560067104	-5.4038968161	-1.0219375131	 0.131256
H	 1.0689735574	-5.4067726057	 0.7387301913	 0.131256
H	-2.9884582167	-3.8103145638	 0.3388972249	 0.222824
