15
gdb 7127	7.63823	0.87391	0.79199	1.257	62.09	-0.2732	-0.024	0.2492	1387.0673	0.116156	-436.947782	-436.938818	-436.937873	-436.982566	29.32	
C	 0.0537756925	 1.4063362698	-0.132624609	-0.227244
O	-0.0017341538	 0.0018239071	-0.0110599199	-0.214502
C	 0.6121477504	-0.6534206196	-1.07570493	-0.173774
C	 0.5107799665	-2.1504969588	-0.8668020628	 0.431082
O	-0.0033561445	-2.7183957882	 0.0497436464	-0.311209
O	 1.12352526	-2.7690250163	-1.9324715827	-0.208634
C	 1.1507555893	-4.1422284221	-1.9518199522	 0.118205
N	 1.7116227402	-4.7049562496	-2.9259949731	-0.418545
H	 1.0918285629	 1.7724492323	-0.1577200904	 0.11091
H	-0.4584695128	 1.7572779316	-1.041838982	 0.110907
H	-0.4491832478	 1.8230294305	 0.7421048836	 0.138903
H	 0.1464671835	-0.4128383167	-2.047137512	 0.128472
H	 1.6808222558	-0.3949056275	-1.1733585633	 0.128449
H	 0.6631247721	-4.5873494841	-1.0844089939	 0.145747
H	 1.6609107659	-5.7167081384	-2.8150331185	 0.241234
