17
gdb 82626	2.38139	2.09807	1.54717	1.9911	65.07	-0.2293	0.0589	0.2881	905.6905	0.1366	-458.939722	-458.932505	-458.931561	-458.970943	29.149	
C	-0.1038064832	 1.5584269398	-0.0278628483	-0.43251
C	 0.0003780417	 0.0380979076	-0.0148514228	-0.061594
C	 1.0265565682	-0.5751594237	-0.9968295781	 0.136478
O	 2.2873064566	-0.110856398	-0.5126829825	-0.248352
C	 2.1779161625	-0.6010516367	 0.8120830284	-0.050076
C	 1.312531163	-1.8432751524	 0.7059489855	-0.011215
O	 1.0035218651	-1.9626241782	-0.671113032	-0.245581
C	 0.7012326745	-0.5528329581	 1.2124085452	 0.28945
O	 0.2376467437	-0.4368667258	 2.5093745427	-0.46782
H	 0.8870768094	 2.0169113622	 0.0332995565	 0.133257
H	-0.5891701026	 1.9163646291	-0.9415289977	 0.120452
H	-0.7034313491	 1.9118642403	 0.8182418811	 0.114687
H	-0.9747214005	-0.434370565	-0.1666744914	 0.092293
H	 0.9330514094	-0.4161849457	-2.0679964647	 0.099921
H	 3.0382333906	-0.4587448344	 1.4492714025	 0.11716
H	 1.4231375851	-2.7655643565	 1.2561949223	 0.122833
H	 0.4148465155	 0.4599318655	 2.8155887733	 0.290617
