17
gdb 65701	5.05664	0.81607	0.77146	2.6282	76.96	-0.2512	-0.0316	0.2196	1450.2549	0.131158	-421.782281	-421.772526	-421.771582	-421.817622	34.602	
C	-0.2862298772	 1.6610915396	 0.2366000635	-0.462326
C	-0.1232603334	 0.1627841386	 0.1273069004	 0.368625
C	-1.2819511654	-0.5897808093	-0.5132892544	-0.338509
C	-1.4222859451	-0.2503219908	-1.987054004	 0.161607
O	-2.4521129643	 0.07875449	-2.5156399243	-0.239648
O	 1.1685685366	-0.2952544367	-0.2928953033	-0.276516
C	 0.765500697	-0.5764069223	 1.0604355343	-0.232503
C	 1.495201836	 0.0636242099	 2.1204824616	 0.331428
C	 2.0973538922	 0.5689271592	 3.029991621	-0.403073
H	-1.1722657251	 1.9060147191	 0.831216062	 0.132221
H	 0.5882662416	 2.1119728	 0.707287879	 0.146613
H	-0.4177572813	 2.1041286115	-0.7562030346	 0.137134
H	-1.0856045507	-1.6676204248	-0.4471168774	 0.128259
H	-2.2284681806	-0.3743440066	-0.009455728	 0.126606
H	-0.4759408458	-0.3393542513	-2.5646682683	 0.099323
H	 0.5338906452	-1.6265121933	 1.2403381604	 0.114802
H	 2.6337078703	 1.018645607	 3.8291215022	 0.205958
