21
gdb 89259	2.3639	1.85043	1.33091	1.6164	81.58	-0.239	0.0787	0.3177	1059.5562	0.182153	-387.041889	-387.033575	-387.032631	-387.074063	33.506	
C	-0.3118191361	 1.5033307893	-0.1767479543	-0.421581
C	 0.1071955331	 0.0515280858	-0.0560309928	 0.138106
O	 1.2288850377	-0.3414199781	-0.9072083324	-0.361668
C	 1.8302603087	-1.1209147025	 0.1746623562	 0.463365
C	 1.9667076282	-2.5828406491	-0.1580213605	-0.483532
C	 3.0146718532	-0.434741727	 0.902211966	-0.101659
C	 2.8576257462	 1.049988432	 0.8840849378	-0.293773
C	 2.0025242994	 0.2529302031	 1.8388970325	-0.073279
C	 0.8308183612	-0.5161331095	 1.1822197103	-0.147344
H	-0.5166494906	 1.7476458657	-1.2243008439	 0.126766
H	-1.2348605287	 1.6647065156	 0.3910539145	 0.11456
H	 0.4439202622	 2.1935732342	 0.2006496941	 0.127405
H	-0.7565944655	-0.5846272346	-0.3040323197	 0.070162
H	 2.6807562026	-2.7158092399	-0.9789057444	 0.128643
H	 2.3360350799	-3.1443140517	 0.7065513231	 0.11805
H	 1.007869102	-3.0075204088	-0.4692516114	 0.121097
H	 3.9518917831	-0.9253129526	 1.1392698713	 0.079778
H	 3.6584237107	 1.598990851	 1.3702665267	 0.107867
H	 2.4525589249	 1.5289683172	 0.0024813403	 0.129915
H	 2.0822146784	 0.4116354304	 2.907505625	 0.086613
H	 0.2629100192	-1.1414980905	 1.8712465717	 0.070509
