22
gdb 57049	2.35739	1.25094	0.93064	3.9267	85.96	-0.296	0.0378	0.3338	1337.7818	0.194042	-367.229258	-367.219485	-367.218541	-367.263925	36.382	
C	-0.0250214694	 1.5771076415	 0.036291578	-0.399302
C	 0.0850363729	 0.0434419909	-0.0775568554	-0.16864
C	 0.8477858012	-0.3289920658	-1.2750561892	 0.278254
N	 1.4621873275	-0.6257106584	-2.2085826229	-0.335752
C	 0.7207662066	-0.5808873906	 1.175205407	 0.056562
C	-0.0413185191	-0.4675093215	 2.5229196699	-0.250519
C	 0.4567956919	-1.8951431456	 2.8739477293	-0.227264
C	 0.7743515205	-2.1344210285	 1.3666318896	-0.002522
C	-0.296154429	-2.94093351	 0.6346997897	-0.409917
H	 0.9642092917	 2.0296551005	 0.1496403779	 0.135977
H	-0.4971999338	 2.0057707225	-0.8510536582	 0.13546
H	-0.6270125261	 1.8395863984	 0.9103297678	 0.130036
H	-0.9244520349	-0.3672641375	-0.20466908	 0.121195
H	 1.7308292693	-0.1712584621	 1.2845840203	 0.086317
H	 0.2362247046	 0.3492498996	 3.1928333503	 0.102465
H	-1.126038903	-0.4377038485	 2.3760817225	 0.101703
H	 1.3595126424	-1.8739713093	 3.4900156692	 0.104093
H	-0.2633769605	-2.5747947775	 3.3368195743	 0.098456
H	 1.754843081	-2.5722358302	 1.1610571887	 0.079709
H	-1.3055988371	-2.5653926515	 0.8386998794	 0.110065
H	-0.1413220266	-2.9291428491	-0.4488654876	 0.135196
H	-0.2681973901	-3.9854300473	 0.9624186595	 0.118428
