12
gdb 883	6.80041	2.23383	1.69925	4.7534	52.51	-0.2119	0.0277	0.2397	692.3648	0.090742	-360.576433	-360.57016	-360.569216	-360.606411	22.713	
C	 0.0675775842	 1.4829595934	 0.0331347858	-0.485783
C	-0.0822058856	 0.0094999764	 0.0066816101	 0.358262
C	-1.1183041783	-0.8108311542	-0.2149076518	-0.201742
N	-0.6284711818	-2.1147510189	-0.1030538263	-0.360816
C	 0.7154114649	-2.0938362523	 0.1882957225	 0.478347
O	 1.4860268844	-2.9980339099	 0.3591135258	-0.400408
O	 1.0487982736	-0.7504888586	 0.2551721642	-0.240936
H	 0.794129	 1.8217552658	-0.7138970916	 0.146221
H	-0.8927412522	 1.9594340587	-0.1774767207	 0.136082
H	 0.4190624576	 1.8289968772	 1.0116244854	 0.146211
H	-2.1481689278	-0.5930147585	-0.438460853	 0.148133
H	-1.140210989	-2.9716919591	-0.2112226806	 0.276429
