18
gdb 102235	2.38843	1.01169	0.86451	2.7335	75.93	-0.2475	0.024	0.2715	1415.9016	0.14473	-439.080241	-439.069752	-439.068808	-439.117265	36.614	
C	-0.0224413825	 1.4995600398	-0.0168223729	-0.486091
C	 0.2177227225	-0.0004132677	 0.0285960868	 0.416258
O	 0.8984455349	-0.5276364437	 0.8897577203	-0.372916
N	-0.3698365487	-0.7088533004	-0.9826457951	-0.298672
C	-0.2499880337	-2.1532834087	-1.0906222866	-0.157255
C	-1.6541709366	-2.7842810312	-1.19160987	-0.079668
O	-2.3546950755	-2.2925483782	-2.319899938	-0.424359
C	 0.5462198421	-2.5495102551	-2.2597621762	 0.306011
C	 1.1287558531	-2.8922010176	-3.2546147384	-0.45805
H	 0.8886774861	 1.991401636	-0.3715762403	 0.154423
H	-0.85034788	 1.7885703801	-0.6693582206	 0.117081
H	-0.2156407488	 1.8540435518	 0.9973222985	 0.153435
H	-0.974926578	-0.2580302737	-1.6500531829	 0.252973
H	 0.2458021369	-2.4840821497	-0.1717002071	 0.149941
H	-1.5642021452	-3.8791200645	-1.2080008951	 0.106716
H	-2.2361232185	-2.492839137	-0.313022969	 0.12355
H	-1.8739571289	-2.5907470846	-3.1019758696	 0.291145
H	 1.6849593809	-3.1888314854	-4.109809254	 0.205477
