14
gdb 131295	3.99265	1.01795	0.9137	1.3214	69.91	-0.2362	-0.0066	0.2296	1247.1777	0.101176	-432.827965	-432.819929	-432.818985	-432.861621	29.171	
O	 0.1919489167	 1.2883361945	 0.0237410721	-0.421874
C	 0.0932466689	-0.0516135741	 0.0529992494	 0.371888
N	 0.1593499509	-0.8119482155	-1.0340380204	-0.332972
N	-0.0016248261	-2.0486486051	-0.5443841276	 0.149936
C	 0.0839964318	-3.2290452669	-1.3899512628	-0.29142
C	 1.4542731559	-3.6067735341	-1.7263741951	 0.329999
C	 2.5741455755	-3.930597728	-2.012083974	-0.448351
N	-0.1507441201	-2.1321553583	 0.7678146748	-0.211726
C	-0.1006946879	-0.8654811257	 1.182394199	-0.128843
H	 0.3310279581	 1.5515185119	-0.8944528085	 0.310473
H	-0.4137813618	-4.0316412896	-0.8397940267	 0.169524
H	-0.4896018177	-3.0275941611	-2.2998873231	 0.161858
H	 3.567665766	-4.2131896456	-2.2593812093	 0.209045
H	-0.2095840803	-0.5989481626	 2.2200534422	 0.132463
