16
gdb 28298	5.1067	1.28672	1.03568	2.5108	79.35	-0.1768	-0.007	0.1698	1105.6805	0.127425	-396.97279	-396.965593	-396.964648	-397.004106	28.556	
N	 0.047134629	 1.3737960233	 0.1466095656	-0.59507
C	-0.0382823651	-0.0173565972	 0.0540394614	 0.283817
C	-1.1646703852	-0.8168436059	 0.0403310741	-0.249816
N	-0.6581039678	-2.1070337238	 0.0131074046	 0.015364
C	-1.0647264451	-3.450264532	-0.0239995676	-0.023384
C	 0.0132898845	-4.2473589564	-0.0451430838	-0.138208
C	 1.276869481	-3.4011542969	-0.0218666074	-0.415015
C	 0.7029740555	-2.0142485657	 0.0127636843	 0.390779
N	 1.1209574742	-0.7695295834	 0.0348219834	-0.411752
H	 0.9579307109	 1.6940520954	-0.1563661653	 0.248916
H	-0.6826393254	 1.8597832776	-0.3569129773	 0.240415
H	-2.2174489865	-0.5971153478	 0.0593815933	 0.117568
H	-2.1147227019	-3.7025464707	-0.0301548217	 0.13406
H	 0.001042235	-5.3259438176	-0.0723745277	 0.112478
H	 1.9018501571	-3.6148742027	 0.8538607617	 0.145721
H	 1.9063113398	-3.5715156461	-0.9038135276	 0.144127
