17
gdb 41124	3.94401	1.91279	1.53628	1.5293	74.76	-0.2181	-0.0002	0.218	856.1065	0.138902	-384.624852	-384.619118	-384.618174	-384.654498	25.348	
C	 0.0345756198	 1.5507352248	-0.0234778151	-0.188301
O	 1.4705647991	 1.7193393775	-0.0524457415	-0.292708
C	 1.9753066203	 0.3801504568	 0.0485116835	 0.102663
C	 1.1048473382	-0.5408333226	-0.8222906893	-0.086905
C	 1.0575595371	-1.7005854805	 0.2238269296	-0.132336
C	-0.4089321484	-2.148081687	 0.2753022732	-0.085768
C	-1.1182323539	-1.0153982318	 0.1929524981	-0.242695
C	-0.0463344788	 0.0462533718	 0.0969611135	 0.295416
C	 1.1253894532	-0.3902559794	 1.0723849928	-0.086904
H	-0.3872872754	 2.0900739595	 0.8334978876	 0.104402
H	-0.406572494	 1.9486937601	-0.9455834436	 0.104402
H	 3.0631464534	 0.3952275051	 0.0355201674	 0.081983
H	 1.067717469	-0.6191623442	-1.9115027002	 0.072803
H	 1.8482590468	-2.4490118843	 0.2747353665	 0.064801
H	-0.7635575323	-3.1661142915	 0.360066121	 0.106464
H	-2.1883754796	-0.8688924243	 0.1928990795	 0.109882
H	 1.1118649154	-0.29551262	 2.1608415269	 0.072803
