18
gdb 14785	9.99249	0.56349	0.55382	3.8475	66.77	-0.2745	0.0088	0.2833	1906.7398	0.151657	-422.093245	-422.083557	-422.082613	-422.129516	32.069	
O	-0.0009196491	 1.3052148806	-0.2069091714	-0.42025
C	-0.0194699627	-0.1112439983	-0.1404644569	-0.07247
C	-1.4570799236	-0.5439009958	 0.1188679505	-0.17265
C	-1.6098212228	-2.0648513632	 0.2081638776	-0.194168
C	-3.0517540793	-2.4800203623	 0.4753257877	-0.089019
O	-3.1470796749	-3.9012165012	 0.6425307814	-0.174273
C	-3.6970256046	-4.6211709891	-0.3511996362	 0.170549
O	-3.782745891	-5.8116402358	-0.3198141917	-0.274579
H	 0.9040350266	 1.5887926489	-0.3655557051	 0.288113
H	 0.3399387251	-0.5614960131	-1.0804395508	 0.087705
H	 0.6311427417	-0.4838070559	 0.6676297364	 0.089118
H	-1.7971199703	-0.0720493301	 1.0488716155	 0.112004
H	-2.0879416645	-0.1419838139	-0.6836520485	 0.109672
H	-1.2717643216	-2.5366220803	-0.7233732367	 0.107007
H	-0.9787004238	-2.4669974153	 1.0094747791	 0.119469
H	-3.422495479	-2.0359612881	 1.4041645017	 0.127734
H	-3.7119917248	-2.1544266765	-0.3397273396	 0.111831
H	-4.0627647915	-3.9895175205	-1.185810653	 0.074208
