18
gdb 111356	2.61751	1.4041	1.07629	2.8513	71.44	-0.2452	0.0591	0.3043	1139.2502	0.147078	-438.998707	-438.990488	-438.989544	-439.031688	31.289	
O	-0.0232748135	 1.5304950291	 0.016887187	-0.41805
C	 0.1265124433	 0.1274289287	 0.1346502296	-0.077532
C	-1.2186083059	-0.5673452722	 0.0335971029	-0.071688
N	-1.949519407	-0.3870171216	-1.2904623385	-0.158641
C	-1.2270854292	-1.181641224	-2.3074864	-0.252648
C	-2.1107033399	-1.8977490296	-1.3671495432	-0.128235
C	-1.3813864745	-2.089560133	-0.0576684435	 0.43326
C	-0.6153418391	-3.2247344909	 0.4620104979	-0.273049
O	-1.8909260469	-2.8534765517	 1.0116933563	-0.276733
H	-0.5837758516	 1.6902409351	-0.7515105773	 0.296637
H	 0.8324876831	-0.2649358814	-0.6145166688	 0.085533
H	 0.5663149199	-0.0625452879	 1.1202590991	 0.115891
H	-1.8804043782	-0.1793491888	 0.8138362803	 0.116091
H	-1.5951288123	-0.9995270555	-3.3123451628	 0.130709
H	-0.1500696496	-1.3119058558	-2.2388969585	 0.120024
H	-3.0478289713	-2.3688167535	-1.6426681175	 0.116683
H	-0.5990460998	-4.1638556186	-0.0893828857	 0.120489
H	 0.2383207827	-3.0535317582	 1.1162950027	 0.121257
