17
gdb 80035	3.15714	1.38608	1.18349	1.5683	79.5	-0.2418	-0.0119	0.2299	1067.0517	0.136126	-384.619292	-384.611791	-384.610846	-384.650866	30.744	
O	 0.0771082244	 1.5818505616	-0.0402072113	-0.438666
C	 0.0384821336	 0.1969046642	-0.010293905	 0.173378
C	 0.1569185363	-0.5943946794	 1.3498623982	-0.120754
C	-1.0594603787	-0.0449346741	 2.0960649113	-0.122736
C	-2.0257232837	-0.0380418469	 1.1663577456	-0.122736
C	-1.331032211	-0.5838156637	-0.0817749679	-0.120759
C	-0.5313884638	-1.7894978135	 0.5673173645	-0.168541
C	 0.3055475524	-2.5847857202	-0.3084307422	 0.30729
C	 0.9892412585	-3.269340491	-1.0238814704	-0.435308
H	-0.5565324583	 1.893870671	 0.6206833439	 0.274618
H	 0.7528521147	-0.1565979777	-0.7553805324	 0.108542
H	 1.0998522453	-0.7236945048	 1.8782127764	 0.07503
H	-1.0960607534	 0.2459450029	 3.1362457665	 0.108391
H	-3.0615396099	 0.259962609	 1.2451271305	 0.108391
H	-1.8962661725	-0.7023943564	-1.0045133496	 0.075032
H	-1.1469822826	-2.4303352412	 1.202393826	 0.104029
H	 1.5950375386	-3.8689861098	-1.6571867239	 0.1948
