21
gdb 108260	2.39567	1.32035	1.30106	1.0897	78.	-0.2428	0.0684	0.3112	1142.6038	0.181286	-424.195072	-424.185503	-424.184559	-424.230211	35.717	
O	-0.0671367425	 1.426166967	 0.1829280694	-0.431404
C	 0.003110179	 0.0041175272	 0.235522819	-0.182357
C	-1.3847112264	-0.5287793016	-0.0043828932	 0.357868
C	-1.9724242322	-0.4035745084	-1.4382657258	-0.273965
C	-2.2722389769	-1.9352889927	-1.4657112217	-0.289484
C	-1.7138974731	-2.0643064226	-0.0226770471	 0.347163
O	-0.6810468625	-2.988833734	 0.1962286701	-0.485408
C	-2.7527975862	-1.8622489709	 1.1136742319	-0.289469
C	-2.4424163359	-0.3323752547	 1.1176757561	-0.273828
H	 0.8160212928	 1.7742688061	 0.3368876934	 0.285917
H	 0.6915705801	-0.3901540556	-0.528824893	 0.086611
H	 0.3714868218	-0.3415580839	 1.2145104172	 0.086688
H	-2.8424611818	 0.2514590564	-1.5236211251	 0.098984
H	-1.2366376512	-0.0889311314	-2.1819868301	 0.103987
H	-3.3159429882	-2.2304344561	-1.6091378684	 0.089347
H	-1.6501238419	-2.4775697113	-2.1821671773	 0.100889
H	-1.0550192813	-3.8762999058	 0.1527823765	 0.275353
H	-3.7819674466	-2.1547520014	 0.8851166179	 0.089451
H	-2.4392585316	-2.3628406255	 2.0331605185	 0.100844
H	-2.0145810083	 0.0234630634	 2.0578471158	 0.103812
H	-3.2768189971	 0.3220640357	 0.855447706	 0.099001
