23
gdb 78514	2.28965	1.72407	1.14435	0.0328	91.22	-0.2694	0.098	0.3674	1184.2893	0.204494	-351.098883	-351.089711	-351.088767	-351.131881	36.301	
C	-0.3059312324	 1.5773555484	-0.2130379222	-0.43925
C	-0.0393925909	 0.0815721824	-0.1160204807	 0.012078
C	 1.172112654	-0.5858945896	-0.8096472442	-0.139698
C	 2.1795297456	-0.2395945639	 0.3557438184	 0.354436
C	 3.0927228025	 0.9491392946	 0.5133344439	-0.525825
C	 2.6207557158	-1.7124615824	 0.4885678319	-0.351832
C	 1.1193687353	-1.8123336653	 0.1781149681	 0.366317
C	 0.2808860454	-3.0539337772	 0.0375803484	-0.521407
C	 0.7866521474	-0.5347657599	 1.038177552	-0.139688
H	 0.5866942007	 2.182995783	-0.0434986274	 0.117981
H	-0.6972502285	 1.8360181329	-1.2038158012	 0.112717
H	-1.0577623911	 1.883818709	 0.5235132836	 0.112717
H	-0.9779666122	-0.4592442082	-0.2968381372	 0.059021
H	 1.4167638878	-0.6367716683	-1.8743117671	 0.055693
H	 2.5824333332	 1.9058707187	 0.380685601	 0.123204
H	 3.5483499575	 0.9504570228	 1.5106164756	 0.117339
H	 3.9085229743	 0.9029191851	-0.217763186	 0.11734
H	 3.3098416011	-2.0895884032	-0.277065354	 0.079906
H	 2.9423662766	-2.0408054838	 1.4845694978	 0.07991
H	 0.296674075	-3.6432171218	 0.9614997256	 0.117145
H	-0.7642236514	-2.815720662	-0.188156814	 0.119062
H	 0.6592895881	-3.692175616	-0.7690105138	 0.117145
H	 0.5849936661	-0.5264594251	 2.1129884914	 0.055691
