23
gdb 80546	2.51776	1.45331	1.21167	1.554	85.69	-0.2306	0.0947	0.3254	1184.3743	0.20615	-388.276392	-388.267361	-388.266417	-388.309337	35.705	
C	-0.1207807891	 1.6557708005	-0.0461197923	-0.442043
C	-0.0032412225	 0.1389333935	 0.0057525805	 0.039901
C	 1.1343425212	-0.5764244213	-0.7638680993	 0.076255
O	 2.3287424544	-0.0067765597	-0.190722298	-0.302413
C	 2.0823429051	-0.1480926999	 1.2383111342	 0.162898
C	 2.3890535434	 1.1256012215	 2.0119493764	-0.429725
C	 0.641209112	-0.6862348248	 1.1835037852	-0.121931
C	 0.8792543259	-1.8273190623	 0.1222276282	 0.042827
C	-0.2559291171	-2.7830810015	-0.2193986191	-0.445128
H	 0.856679823	 2.1331416704	-0.1325083163	 0.136091
H	-0.7125351064	 1.9520857901	-0.9195133312	 0.108692
H	-0.6273237241	 2.0566121894	 0.8388668597	 0.112129
H	-0.9699629404	-0.3047539818	-0.2353018881	 0.073689
H	 1.2260688461	-0.5965524521	-1.8502710347	 0.069002
H	 2.7515495171	-0.9323619774	 1.6216331721	 0.070401
H	 1.6941319455	 1.9385466565	 1.8031955961	 0.122733
H	 2.3586216339	 0.916670797	 3.0869780432	 0.110327
H	 3.3998590276	 1.4666880179	 1.7664836111	 0.125963
H	 0.1274970324	-0.8599558216	 2.1300699953	 0.06127
H	 1.7912898398	-2.4071990687	 0.2994447817	 0.071415
H	-1.2093927371	-2.2851859582	-0.412087961	 0.120148
H	-0.0056901166	-3.3690943366	-1.110903745	 0.119356
H	-0.4158316041	-3.4913231012	 0.6011357513	 0.118141
