19
gdb 55266	3.64954	1.05959	0.83773	3.4627	83.2	-0.1953	0.0162	0.2114	1371.44	0.160286	-419.267891	-419.258693	-419.257748	-419.302179	33.804	
C	-0.1865348069	 1.504931946	 0.1051905748	-0.48665
C	-0.0547864214	 0.0230124345	-0.0034240799	 0.233082
C	-0.0861005654	-0.721733724	-1.1120761528	-0.093878
N	 0.0739363072	-2.0912683048	-0.854671856	-0.112852
C	 0.0682367272	-2.3125473826	 0.6016640717	-0.152957
C	 0.1763841888	-0.8833053649	 1.1933197981	-0.331696
C	 0.0272823356	-3.1513535104	-1.7247877721	 0.436118
N	 0.0356460839	-2.8115279962	-3.0782551946	-0.568682
O	-0.0496829327	-4.3042634618	-1.3358299112	-0.403243
H	 0.7072767811	 1.9562164396	 0.5570610634	 0.123778
H	-0.3365709059	 1.9687705181	-0.8740047208	 0.122098
H	-1.0329760468	 1.788442915	 0.7446112791	 0.125275
H	-0.2434838127	-0.3878275152	-2.1278799136	 0.122314
H	-0.8622400134	-2.8113064728	 0.8918116127	 0.126969
H	 0.8922342482	-2.9695635876	 0.8853458364	 0.129582
H	 1.162240761	-0.6986577532	 1.6417961128	 0.110596
H	-0.5594510765	-0.7171618301	 1.9880773723	 0.112563
H	 0.6142374697	-2.030617045	-3.3517091939	 0.248937
H	 0.1816271389	-3.6300251744	-3.6513273665	 0.258646
