21
gdb 100034	2.54517	1.21252	1.0184	1.8447	74.45	-0.2581	0.0703	0.3285	1266.0329	0.179844	-461.34413	-461.334001	-461.333057	-461.37867	38.253	
C	-1.7823250528	 0.1574524149	 2.0792685691	-0.439854
C	-0.902258761	 0.3931186202	 0.8779812578	 0.080335
O	-0.2335636717	 1.6659320821	 0.7507564184	-0.280334
C	 0.56913069	 0.47973576	 0.8660662638	 0.004895
C	 1.491810368	 0.4400344851	 2.0852574104	 0.290247
C	 2.8673551313	 1.0093095991	 1.7051264201	-0.416272
O	 0.9374959701	 1.2127558864	 3.1507316981	-0.48086
C	 1.6168777502	-0.9885349904	 2.6410854863	-0.061632
O	 2.393441054	-1.0183618569	 3.8208116593	-0.424856
H	-2.7040366523	 0.7418540184	 1.9851045601	 0.126485
H	-2.0665520632	-0.8997480917	 2.1223996334	 0.124873
H	-1.2813838461	 0.4243455661	 3.0088446437	 0.147181
H	-1.3533228244	 0.0773398093	-0.0654618222	 0.095654
H	 1.0677070065	 0.1977517885	-0.0629280598	 0.091808
H	 2.7727062838	 2.051071167	 1.3837080554	 0.118229
H	 3.5305784313	 0.9623580682	 2.5705325608	 0.134931
H	 3.3215985574	 0.4374445563	 0.8888316882	 0.110069
H	 0.488248056	 1.9600302592	 2.7313808012	 0.290845
H	 0.6082694406	-1.3916326151	 2.8157957175	 0.089137
H	 2.1178700567	-1.6352237704	 1.9129198408	 0.10431
H	 2.0070521456	-0.3565597264	 4.4072373075	 0.294809
