21
gdb 103166	1.99357	1.42523	1.0828	1.3987	73.67	-0.2504	0.0515	0.3019	1213.5461	0.180352	-461.342068	-461.331809	-461.330864	-461.376802	38.479	
C	-0.0427295628	 1.514431914	 0.072232861	-0.466018
C	-0.0452706184	-0.0126815268	 0.0179525728	 0.218707
C	-1.4309180419	-0.5652318674	-0.2957425231	-0.151486
O	-1.850273801	-0.2395662424	-1.6214472829	-0.428057
C	 1.1003351792	-0.5877896019	-0.8839486185	 0.123835
O	 1.6506156805	 0.2278062926	-1.8905291812	-0.429905
C	 1.9896031027	-0.7526386111	 0.3631550442	-0.312359
C	 0.7089074107	-0.6573028431	 1.2334410204	 0.109366
O	 0.7476791673	 0.0043394765	 2.4730275544	-0.430558
H	 0.9638469581	 1.9249097541	 0.1936367628	 0.121175
H	-0.4279368519	 1.9403726962	-0.8596659573	 0.104867
H	-0.6651687322	 1.8710915109	 0.899929696	 0.11955
H	-1.408248347	-1.6604744089	-0.2585977441	 0.104716
H	-2.1678901588	-0.2292942293	 0.4497919536	 0.094818
H	-2.152749725	 0.6730802803	-1.6202586578	 0.287197
H	 0.8022614773	-1.5641035407	-1.2909477637	 0.069615
H	 1.0081839962	 0.2645510067	-2.6076259598	 0.285778
H	 2.6121335681	-1.6453912216	 0.4478024809	 0.104713
H	 2.6222436533	 0.1320670601	 0.4906802805	 0.10648
H	 0.3041447621	-1.6507177969	 1.4519501014	 0.086628
H	 1.1872739935	 0.8514050086	 2.3471340907	 0.280937
