11
gdb 130865	3.29087	1.30503	0.93446	2.2822	61.95	-0.291	-0.144	0.147	1107.7945	0.063687	-488.660385	-488.653065	-488.652121	-488.692766	25.726	
O	-0.804090364	 1.1681926885	-0.4087958892	-0.231017
C	 0.2625400563	 0.853964876	 0.0521180192	 0.122592
C	 1.4226174107	 1.7966265142	 0.1157891853	 0.265099
C	 1.3684089413	 3.0633899215	-0.3337299809	-0.303073
C	 2.5510381469	 3.909366513	-0.2296604328	 0.502666
O	 2.6489929405	 5.0488511884	-0.5853314954	-0.309963
O	 3.6439453871	 3.2797912362	 0.3474097088	-0.25995
N	 3.6222940518	 1.9162815605	 0.8047042369	 0.075002
N	 2.5840998542	 1.263664855	 0.6826219502	-0.16416
H	 0.4730618978	-0.1516574955	 0.4644927097	 0.122066
H	 0.4661037674	 3.4723967922	-0.7723410519	 0.180738
