19
gdb 63725	3.19335	1.18481	1.03727	2.7952	77.78	-0.258	-0.0377	0.2204	1215.717	0.15632	-423.008393	-422.999385	-422.998441	-423.04179	34.06	
C	-0.0345573065	 1.5619635476	 0.1352902086	-0.447687
C	 0.0034319889	 0.0435802708	-0.0023812902	 0.301166
C	-1.3832515689	-0.5582803288	-0.2191758124	-0.448751
C	 1.0719536172	-0.5327231431	-1.0141852175	-0.362632
C	 1.7439870385	-1.2533449781	 0.1515364941	 0.325454
O	 2.1147154599	-0.2718228121	 1.1366264708	-0.275025
C	 0.7648291676	-0.6919271063	 1.130021477	-0.063783
C	 2.4085218216	-2.5656959885	 0.2106160358	 0.060892
O	 2.4804527298	-3.325068883	-0.7252754124	-0.260837
H	 0.9621533729	 1.9556564314	 0.350196595	 0.134011
H	-0.3937879109	 2.0246152751	-0.7906008957	 0.117918
H	-0.7074463334	 1.8693283363	 0.9439221685	 0.114346
H	-1.8261387704	-0.1823030858	-1.1472984394	 0.125063
H	-1.3429622311	-1.6509351575	-0.2861844682	 0.12123
H	-2.0580477517	-0.2966124525	 0.6038685902	 0.117678
H	 0.6435566175	-1.2235201689	-1.7421248025	 0.130281
H	 1.7058427701	 0.1967385979	-1.5225507707	 0.114199
H	 0.3700095918	-1.1243461016	 2.0448254397	 0.109834
H	 2.827642237	-2.8056864129	 1.2119728095	 0.086643
