18
gdb 37278	4.52696	1.60659	1.54809	1.2478	79.06	-0.2169	0.0064	0.2233	899.5537	0.151298	-364.744256	-364.738403	-364.737459	-364.773956	26.171	
C	 0.00637952	 1.4612313868	-0.0287354062	-0.245243
C	 1.2910339787	 0.7141877448	 0.0495491	-0.050437
C	 1.8640840904	 0.3331157145	 1.4036821565	-0.033767
C	 1.4695017847	-1.2084065225	 1.5138247094	-0.057634
C	 1.6182157719	-1.5279514112	 2.9875753266	-0.113512
C	 1.105021831	-0.448296723	 3.5849624872	-0.113658
C	 0.6864138851	 0.4515989868	 2.4356770071	-0.097136
C	 0.0283061379	-0.5660035152	 1.4113499379	 0.021109
N	-0.0124390855	-0.0099697529	 0.0469290864	-0.115593
H	-0.3389365235	 2.0514725359	 0.8128459156	 0.118506
H	-0.3030111717	 1.8451887475	-0.9971275342	 0.116303
H	 1.9129549073	 0.6072935116	-0.8353100063	 0.09554
H	 2.8675356107	 0.6695975376	 1.6682085535	 0.066832
H	 1.7990087674	-1.9198405705	 0.7564615804	 0.068313
H	 2.0325135005	-2.4299138743	 3.4143879727	 0.102443
H	 0.9770013992	-0.2280313273	 4.6353285446	 0.101368
H	 0.2334287969	 1.4097842642	 2.6854588159	 0.061965
H	-0.8645481309	-1.1288925929	 1.6876195729	 0.074603
