16
gdb 31386	2.87885	1.262	0.88405	7.8828	75.65	-0.2089	-0.0079	0.201	1243.217	0.125496	-437.933917	-437.925579	-437.924635	-437.967479	30.572	
O	 0.0884060067	 1.3804355234	 0.2433838337	-0.395658
C	 0.0205503909	-0.0022551043	-0.0094919849	-0.163766
C	-1.4203132586	-0.4514428941	 0.0202606053	 0.376887
C	-2.4880573384	 0.3796972372	-0.0042923632	-0.326469
C	-3.8674324006	-0.1178403201	-0.0016665173	 0.386773
O	-4.8484230316	 0.6191439832	-0.0249897163	-0.401649
C	-3.9637065952	-1.5818878082	 0.0264764736	-0.24634
C	-2.8607851689	-2.3612410202	 0.0519352292	 0.02144
N	-1.6026473933	-1.8148990723	 0.0486352495	-0.385619
H	 0.9568837807	 1.6956790249	-0.0208836257	 0.29849
H	 0.4485769813	-0.2571338453	-0.9938561326	 0.113425
H	 0.5886142136	-0.5798838491	 0.7425526891	 0.098887
H	-2.3252697161	 1.4484978756	-0.0266300385	 0.125993
H	-4.9502970432	-2.0283969656	 0.0283905752	 0.109731
H	-2.8945903136	-3.4443216427	 0.0772890578	 0.129058
H	-0.8016765237	-2.4227179924	 0.096046605	 0.258816
