13
gdb 1508	4.91691	1.67289	1.26797	1.9397	52.13	-0.2649	-0.084	0.1809	899.3761	0.099196	-381.624797	-381.616995	-381.61605	-381.658026	25.381	
C	-0.2175857742	 1.4355880601	 0.3915625067	-0.392235
C	 0.0666696818	-0.0043706585	 0.0163090128	-0.049643
O	 0.6870286329	-0.6408022624	 1.1589005784	-0.214861
C	 1.0078707876	-1.9210797083	 1.0053698585	 0.339758
O	 0.8324013161	-2.5909155129	 0.016979322	-0.341915
C	 1.6587459956	-2.5196467452	 2.2583278311	 0.092492
O	 1.8653297618	-1.9194983431	 3.274564814	-0.211373
H	 0.7061055016	 1.9624719512	 0.6453005982	 0.13756
H	-0.6885729233	 1.9491063931	-0.4517268564	 0.127581
H	-0.8924502319	 1.4893046171	 1.2499742896	 0.137564
H	-0.8444155878	-0.5561493326	-0.2352830266	 0.129871
H	 0.7471582765	-0.0851535826	-0.837063179	 0.129872
H	 1.9164532234	-3.5868349861	 2.1045102106	 0.11533
