17
gdb 75017	3.40506	1.46812	1.26087	1.15	68.31	-0.2282	0.0544	0.2826	1017.8869	0.139587	-455.18673	-455.179518	-455.178574	-455.218447	28.364	
N	 0.0529318569	 1.3053501256	-0.0459846315	-0.578759
C	-0.0650570997	-0.0549800553	-0.0840804267	 0.462001
N	-1.1397906329	-0.7320023456	 0.0518487974	-0.355158
C	-0.7380116122	-2.1377653643	 0.0286919173	-0.051924
C	-1.3060714763	-2.9094626252	-1.1771547163	-0.220768
C	-0.2430197955	-2.6632849362	-2.2499557489	-0.096589
O	 1.001753527	-2.6559108863	-1.5318908695	-0.246645
C	 0.7947733222	-2.1145116723	-0.2685079577	 0.191429
O	 1.1221384313	-0.7053004628	-0.2255774548	-0.260875
H	 0.8474415319	 1.6877164446	-0.5341650213	 0.26507
H	-0.8143290515	 1.8019564985	-0.1750629146	 0.267866
H	-0.9846304698	-2.6237713948	 0.977475734	 0.082978
H	-1.3727830849	-3.9781668212	-0.9505892116	 0.104677
H	-2.2957731371	-2.543126639	-1.4537378261	 0.119074
H	-0.1760160578	-3.4494254809	-3.0049212069	 0.113326
H	-0.3964380093	-1.7016483504	-2.7575039897	 0.106831
H	 1.4671580078	-2.6110287945	 0.4323320069	 0.097467
