19
gdb 26223	3.32697	1.05388	0.97042	1.9745	79.14	-0.1991	0.0328	0.2319	1315.5295	0.159756	-419.257174	-419.247988	-419.247044	-419.29125	34.184	
C	-0.0324612784	 1.556527657	-0.0834617119	-0.384279
C	-0.0281466921	 0.0153603087	-0.0610194718	-0.094401
C	-1.4645485093	-0.5432012954	-0.043257471	-0.384041
C	 0.7707402402	-0.5510804842	-1.1848305996	 0.348191
C	 1.8828766927	-1.3075424556	-1.3017749708	-0.220953
N	 2.1885465521	-1.5279570973	-2.6469893368	-0.337936
C	 1.2424596314	-0.9029400064	-3.273242095	 0.443446
N	 1.0101152368	-0.8542264547	-4.6272683916	-0.588203
O	 0.3392135245	-0.2805802975	-2.4829393079	-0.226104
H	 0.9858633126	 1.9539243087	-0.0446483056	 0.118202
H	-0.5058311304	 1.9281724179	-0.9976837938	 0.123343
H	-0.5899760459	 1.9529508878	 0.7711251224	 0.111151
H	 0.4788571953	-0.3124609658	 0.8549939849	 0.090946
H	-1.999269616	-0.2635779296	-0.9563437175	 0.125743
H	-1.4613126647	-1.6348032681	 0.0242431574	 0.119968
H	-2.021943894	-0.1461901475	 0.8111991341	 0.110191
H	 2.4985501802	-1.7115248752	-0.5131994048	 0.114007
H	 1.827469906	-1.1001240861	-5.1663770515	 0.269273
H	 0.564001399	-0.0061491166	-4.9458967293	 0.261455
