16
gdb 14310	3.71682	1.86421	1.75793	2.019	59.97	-0.2331	0.0705	0.3036	818.5622	0.130029	-420.84707	-420.839863	-420.838919	-420.878425	27.511	
C	 0.2719567662	 1.5085870582	 0.0124203612	-0.409147
C	 0.1255871104	 0.0076750544	 0.0571029122	 0.221119
O	 0.6709515316	-0.585630992	-1.1112958494	-0.257881
C	 1.1038210333	-1.8703227764	-0.7352351468	 0.001326
C	 2.4579749921	-1.9414869668	-0.0361622532	 0.094352
O	 3.3337893015	-0.8714945615	-0.0268160714	-0.423075
C	 1.180060199	-1.8680034388	 0.7717387083	-0.034879
O	 0.8692468724	-0.5413577499	 1.1507815928	-0.285362
H	 1.3215312665	 1.7766321708	-0.1322051571	 0.133008
H	-0.311306409	 1.9111481384	-0.819274583	 0.137284
H	-0.0920695525	 1.9480988326	 0.944182732	 0.133568
H	-0.9294051408	-0.297957708	 0.1660448927	 0.078097
H	 0.7151419379	-2.6903769933	-1.3298687535	 0.105347
H	 2.9663792797	-2.9012286747	-0.0802688728	 0.107158
H	 2.9129995257	-0.1845548509	 0.5082475015	 0.294073
H	 0.818677486	-2.6441413119	 1.4378854466	 0.105011
