19
gdb 97360	3.41034	0.8224	0.77955	5.4003	81.35	-0.2637	0.0102	0.2738	1555.5821	0.155346	-419.214593	-419.20399	-419.203046	-419.250557	37.252	
C	-0.0415581937	 1.3767678714	 0.0938291388	-0.318188
N	 0.018759391	-0.069530147	 0.0756595004	-0.200361
C	 0.5469906747	-0.6156440757	-0.923850494	 0.131979
O	 0.6270902954	-1.966841009	-0.9873700388	-0.243189
C	 1.2380587562	-2.5671844597	-2.1456454196	 0.187575
C	 0.4446002875	-2.2627829426	-3.4292044776	-0.413092
C	 2.7241988798	-2.1844902909	-2.2665225659	-0.412948
C	 1.1493203259	-4.0183677465	-1.8742813992	 0.289731
N	 1.1073243056	-5.1609739374	-1.7153372964	-0.327431
H	 0.4819465813	 1.7535886661	 0.9795175365	 0.133479
H	 0.3955837647	 1.8567619552	-0.7974767378	 0.094853
H	-1.0853716485	 1.6982546398	 0.1810189395	 0.13348
H	 0.9649554335	-0.0734691114	-1.782097704	 0.081702
H	 0.5271586697	-1.2050576139	-3.6906392745	 0.129034
H	 0.8387682496	-2.8522382771	-4.2606065061	 0.146336
H	-0.6084999997	-2.5143038249	-3.2875158444	 0.155876
H	 3.2403087384	-2.383283278	-1.3250037959	 0.155876
H	 3.1976904024	-2.7700600483	-3.0583369921	 0.146277
H	 2.8293980562	-1.1255824702	-2.5147680687	 0.129011
