14
gdb 4206	5.28548	1.70189	1.50806	1.4924	65.17	-0.2319	0.0076	0.2396	824.3801	0.108193	-378.609493	-378.603215	-378.602271	-378.639805	24.441	
O	-0.1674028492	 1.3284960214	 0.0154278151	-0.398367
N	-0.0039030543	-0.0717679574	 0.0893051889	-0.302222
C	-1.1282891011	-0.6519117155	 0.1243894867	 0.509307
C	-1.5048422356	-2.0754585361	 0.0542671893	-0.150002
C	-2.8596139118	-2.1853627769	 0.7004038704	-0.034692
C	-3.2826657273	-0.8221666624	 1.2264058293	-0.239879
C	-2.5850761861	-0.2939698828	-0.0480818319	-0.110466
N	-2.7763549704	-1.7149341637	-0.7119781277	-0.154147
H	 0.7443694421	 1.6322378282	-0.0455352722	 0.308138
H	-0.8990470085	-2.933861811	-0.2036283977	 0.116191
H	-3.2772711353	-3.1572804171	 0.9399350533	 0.107123
H	-4.3675012944	-0.7067508263	 1.1614050094	 0.120625
H	-2.9218606527	-0.4720364969	 2.1974237097	 0.115429
H	-2.8953732954	 0.6063154567	-0.5691597826	 0.112962
