21
gdb 79892	3.87655	1.34727	1.17238	1.4061	82.22	-0.2348	0.0952	0.33	1123.7548	0.185271	-387.050029	-387.042613	-387.041668	-387.081455	30.557	
C	-0.2344690064	 1.585117722	-0.0488644694	-0.438513
C	 0.0018754905	 0.0830964578	 0.0109251889	 0.043995
C	 1.1983133601	-0.5907245419	-0.7255060192	-0.1046
C	 2.1500153634	-0.0615623195	 0.3942834766	 0.004215
C	 3.4421511662	-0.8477898606	 0.614616334	-0.265652
C	 3.0889771889	-2.2603343053	 1.0803000312	-0.065576
O	 1.9636731063	-2.7672570624	 0.3764846839	-0.284484
C	 0.9475180219	-1.8176521073	 0.2035639915	 0.169796
C	 0.8603514654	-0.5646447369	 1.1392705641	-0.133145
H	 0.6709008348	 2.1774205389	 0.1039529339	 0.119024
H	-0.6518451728	 1.8651681816	-1.0223114153	 0.117563
H	-0.9590332163	 1.8879311366	 0.7151768257	 0.116905
H	-0.9489904003	-0.440251952	-0.1531418563	 0.061484
H	 1.3969505629	-0.6091736008	-1.7993145127	 0.062953
H	 2.3209917403	 1.0158719867	 0.4021021134	 0.061597
H	 4.0181395296	-0.8738829216	-0.3189686752	 0.102831
H	 4.0745095483	-0.3640315817	 1.3678998575	 0.096884
H	 3.9042821571	-2.9717268547	 0.92265764	 0.103637
H	 2.8638903039	-2.2407947512	 2.1582994956	 0.091391
H	 0.0187859386	-2.3694470043	 0.0336055173	 0.073699
H	 0.6554454776	-0.5425445931	 2.2117358644	 0.065994
