20
gdb 120711	3.28788	0.8444	0.75702	3.3074	77.8	-0.2398	0.0264	0.2662	1564.7228	0.16934	-440.29681	-440.28626	-440.285315	-440.33433	36.298	
C	-0.0908729465	 1.3237232651	 0.0820780995	-0.224313
O	-0.1182314285	-0.0737021095	-0.0703278952	-0.236167
C	 0.8476970632	-0.5360367806	-0.9976615783	-0.092439
C	 0.7170411798	-2.0357812332	-1.0754782936	-0.013647
C	-0.2417878197	-2.6871605539	-2.018271508	-0.276651
C	 1.247429463	-2.8443640243	-2.2561475107	-0.144494
C	 1.8433610711	-2.1665338009	-3.4526725346	 0.421218
N	 2.9802493542	-2.7546073178	-3.9290391534	-0.534873
O	 1.3681345103	-1.1717208604	-3.975594522	-0.377856
H	 0.8822318118	 1.6775042167	 0.4610578341	 0.098316
H	-0.2938483822	 1.8442792333	-0.8674113903	 0.105831
H	-0.8667641929	 1.5908424577	 0.8042053293	 0.121999
H	 0.6981755818	-0.0844299517	-1.9861812546	 0.128236
H	 1.8606907577	-0.2583314441	-0.6557827349	 0.077516
H	 0.8504062196	-2.5251947824	-0.1145507386	 0.096225
H	-0.7996328968	-3.5574739866	-1.6927192461	 0.113238
H	-0.7500234577	-2.0412575461	-2.7257816175	 0.142735
H	 1.6893101637	-3.8013123039	-1.9957197101	 0.076547
H	 3.366633754	-3.5917519458	-3.5316581101	 0.258037
H	 3.4089872341	-2.3616376714	-4.7504784849	 0.260544
