19
gdb 75819	2.47927	1.66379	1.2016	2.6591	74.85	-0.2522	-0.0297	0.2224	1074.2342	0.158828	-423.049424	-423.040989	-423.040045	-423.082088	32.928	
C	-0.3349488292	 1.4747299539	 0.0777290845	-0.491706
C	 0.0313777777	 0.0122990768	 0.0169755552	 0.343675
C	-0.7028804779	-0.9930940952	 0.8690439721	-0.334276
C	 0.7534089063	-0.704946097	 1.1547798303	-0.085447
C	 1.7574422362	-1.7000726814	 0.5916329607	-0.332322
C	 1.3373344635	-1.8125202307	-0.8681591447	 0.340048
O	 1.4474671218	-2.7613406979	-1.6045207083	-0.323532
C	 0.6019722143	-0.5302566847	-1.2819466062	-0.005226
O	-0.3368922704	-0.7849960596	-2.2945671269	-0.443638
H	 0.5106773072	 2.108396734	-0.2148129306	 0.115087
H	-1.1671167922	 1.6958552654	-0.5991689024	 0.137094
H	-0.6384392381	 1.7651369883	 1.0885993478	 0.113412
H	-1.4354518608	-0.6016241406	 1.5661466724	 0.115961
H	-0.9758020574	-1.9523096678	 0.4380745188	 0.123624
H	 1.0080517031	-0.1629351959	 2.0586434327	 0.088995
H	 2.7822963489	-1.3084582353	 0.6414942201	 0.131279
H	 1.7568882973	-2.6835894015	 1.070254443	 0.133287
H	 1.3726597473	 0.1814084178	-1.6394229951	 0.083434
H	-0.0488342678	-1.6096748987	-2.7144298334	 0.290251
