14
gdb 48151	4.33604	0.845	0.70718	2.1878	69.94	-0.2657	-0.1034	0.1623	1459.2314	0.099644	-470.018459	-470.009545	-470.008601	-470.053595	30.452	
N	-0.3397235299	-0.0746581552	-1.5032082067	-0.498616
C	-0.1121557293	-0.1585029508	-0.2526007444	 0.308526
N	-1.0663075576	-0.1335616806	 0.7402637434	-0.370957
C	-2.4567564842	-0.0190252261	 0.6945884976	 0.272667
N	-3.0841918828	-0.0262032609	 1.8016753289	-0.475064
C	-3.1899505676	 0.1098420261	-0.6426704593	 0.093196
O	-4.3912151633	 0.2064991954	-0.6377762808	-0.240433
C	 1.2988112808	-0.3011284447	 0.2983690255	 0.105127
O	 2.2564309093	-0.3404520768	-0.423898148	-0.222387
H	 0.556066443	-0.1212150093	-1.9937816853	 0.248473
H	-0.7350147774	-0.2100519066	 1.6936167819	 0.262938
H	-4.0834292115	 0.0649091524	 1.5996879159	 0.253229
H	-2.5802927563	 0.1083177912	-1.5565607815	 0.163751
H	 1.3960285967	-0.3669591441	 1.4045554328	 0.099551
