20
gdb 91517	2.53307	1.44312	1.10239	2.2967	79.82	-0.2382	-0.0217	0.2165	1180.5451	0.169515	-403.130761	-403.121528	-403.120583	-403.164806	34.357	
C	-0.0316984928	 1.6292257764	-0.0443193919	-0.420708
C	 0.0641275723	 0.1123475354	 0.041429244	-0.047094
C	 1.1172898691	-0.6641212437	-0.7987714046	-0.179705
N	 1.6669418927	-1.3848267567	 0.4102791228	-0.162921
C	 2.1825582964	-0.3380186513	 1.2853138187	-0.282697
C	 0.7067599261	-0.5357010794	 1.2689738321	 0.242645
C	-0.077790848	-1.1081352343	 2.3975978716	 0.288254
C	 0.6144717216	-2.1044845326	 3.3068256732	-0.505016
O	-1.2355717909	-0.7773569631	 2.5515348646	-0.308581
H	 0.9378887201	 2.1133462588	 0.1121140774	 0.110278
H	-0.4012709466	 1.9394669375	-1.0276705645	 0.118043
H	-0.7263016036	 2.0094551049	 0.7111288997	 0.136779
H	-0.9280385568	-0.3217108465	-0.1023437921	 0.102224
H	 0.696011005	-1.3821555774	-1.5038533739	 0.116997
H	 1.8761172402	-0.0609282791	-1.3093735782	 0.10542
H	 2.7329201173	-0.7205107229	 2.1388748452	 0.125727
H	 2.5996795888	 0.5679244165	 0.8498374477	 0.119112
H	 1.2192366839	-2.8056306383	 2.7242408047	 0.156861
H	 1.2859013434	-1.5794178356	 3.9963156553	 0.141515
H	-0.1358744082	-2.6377315286	 3.8916342285	 0.142865
