13
gdb 28747	5.61138	0.88934	0.80084	3.3865	63.29	-0.221	-0.0154	0.2056	1331.337	0.089245	-489.926972	-489.919072	-489.918128	-489.960467	27.982	
N	-0.0590015465	 1.4547254077	-0.0137728681	-0.585532
C	-0.0129783368	 0.0867725652	-0.0171862753	 0.475727
N	-0.9072657071	-0.7475644289	 0.4148846632	-0.330635
C	-0.310036226	-1.9971317091	 0.2417200837	-0.212198
C	 0.9154297679	-1.8293348862	-0.2917712862	 0.347865
O	 1.9067563047	-2.6454240836	-0.7102362759	-0.213881
C	 2.6624929238	-3.2634366877	 0.2650410865	 0.164289
O	 3.5251127191	-4.0292885798	-0.0089801578	-0.239348
O	 1.1361540521	-0.4777663389	-0.4661185944	-0.196467
H	 0.4789743859	 1.9056133623	-0.7390592583	 0.270563
H	-0.9953462271	 1.817582278	 0.0869711226	 0.276179
H	-0.8120904161	-2.9162815154	 0.4957564251	 0.136521
H	 2.339819386	-2.9591047936	 1.2758428149	 0.106918
