13
gdb 2427	4.41641	3.49143	2.5153	2.8067	53.18	-0.2301	0.07	0.3	557.7994	0.101368	-344.350927	-344.345433	-344.344489	-344.379834	21.765	
O	-0.0471241818	 1.3536040908	 0.0726042131	-0.458641
C	 0.0688780288	-0.0138594683	 0.0679168425	 0.36703
C	 0.7915310764	-0.9501893007	 1.0663516628	-0.342853
C	 0.1000128892	-1.9220606003	 0.0867731565	-0.09137
C	-1.1353182396	-0.9863762096	-0.1036381493	 0.052384
O	-1.0807793421	-1.0140783724	-1.558940531	-0.323042
C	 0.3155122692	-0.9948263344	-1.1465553721	 0.01696
H	 0.8337833574	 1.7419115467	 0.0340991358	 0.289229
H	 1.8856074505	-0.9391392815	 1.0507867029	 0.09624
H	 0.4197810332	-0.9444118994	 2.094516098	 0.106219
H	 0.0898031505	-3.0083200337	 0.0761688295	 0.094454
H	-2.1052367002	-0.993829985	 0.3922456704	 0.099605
H	 1.0936230184	-1.0103772922	-1.9096497592	 0.093785
