17
gdb 72029	2.83973	2.09374	1.8461	0.6768	68.73	-0.2306	0.07	0.3006	821.2533	0.138461	-421.79473	-421.788655	-421.787711	-421.824684	26.636	
O	-0.0476868644	 1.3775675979	-0.0214326656	-0.501185
C	 0.0171018784	-0.0108950998	-0.0712722108	 0.392594
C	 0.8894593684	-0.7289030889	-1.1180667514	-0.283271
C	 0.7153712024	-2.1017681929	-0.4427706556	 0.038127
O	 1.277159706	-1.8474731762	 0.8605478782	-0.253355
C	 0.3443861917	-0.8533082165	 1.2633770007	-0.021663
C	-1.0498747886	-1.4958688231	 1.1513043361	-0.084537
C	-0.8251383793	-2.1693738094	-0.1842752437	-0.076753
C	-1.3382608806	-0.7401089235	-0.1227750666	-0.119439
H	 0.8495669662	 1.7184160395	 0.0605367299	 0.281511
H	 0.4574878258	-0.6673451197	-2.1206664655	 0.10274
H	 1.9374062732	-0.4143772538	-1.1299072895	 0.093501
H	 1.1841325974	-2.973498117	-0.8941714736	 0.078084
H	 0.65933792	-0.3305571632	 2.1638920391	 0.078759
H	-1.7041081335	-1.861940962	 1.9316228192	 0.090928
H	-1.4476292684	-2.9878828495	-0.5167945921	 0.093053
H	-2.2657553546	-0.3772230219	-0.5456198088	 0.090905
