16
gdb 126281	3.5513	1.14435	0.92039	2.5965	80.12	-0.2431	-0.0792	0.164	1257.7818	0.122656	-434.031873	-434.023245	-434.022301	-434.065901	31.123	
C	 0.0656301715	 1.5889274568	 0.0529939094	-0.378309
C	-0.0313020525	 0.0580220448	-0.0622443771	-0.270304
C	-1.4497255706	-0.4325449204	-0.1001145444	 0.428226
C	-2.027526902	-1.0591995151	-1.1481165589	-0.284399
C	-3.398742195	-1.4717861219	-1.0777520686	 0.389197
N	-4.0520128248	-2.0785960831	-1.9873491654	-0.503899
N	-4.0639900305	-1.1390786595	 0.1721275551	-0.12516
N	-3.5736497383	-0.581395806	 1.1232349292	 0.042349
O	-2.1104951974	-0.1703484281	 1.0364053296	-0.30747
H	 1.1129768552	 1.8986548932	 0.0997588876	 0.125044
H	-0.3964827259	 2.0761089191	-0.8107362838	 0.128548
H	-0.4386189909	 1.9429259371	 0.9552089857	 0.143877
H	 0.4756648609	-0.2943691123	-0.9655498309	 0.12105
H	 0.4684470626	-0.4055911004	 0.7968879349	 0.132707
H	-1.4677032648	-1.2573396839	-2.0515311471	 0.125753
H	-5.0093929877	-2.2479417302	-1.6741564453	 0.232791
