21
gdb 61548	3.45354	0.86388	0.74147	2.7881	79.99	-0.2582	-0.0258	0.2324	1568.7827	0.180064	-424.234879	-424.224794	-424.22385	-424.270803	36.673	
C	 0.0601290643	 1.3939713332	 0.0053087566	-0.480459
C	 0.0661533559	-0.1172353118	 0.0313573148	 0.364725
O	 0.1513264944	-0.7452973616	 1.0667460278	-0.3204
C	-0.0330232137	-0.8839365778	-1.2911427972	 0.040979
O	 0.034767556	-2.2608583289	-1.0401646938	-0.432375
C	-1.3149300157	-0.5231458684	-2.0725325064	-0.233939
C	-1.3778987045	-1.1825013119	-3.4333507791	 0.038633
C	-1.8649301356	-2.5991827436	-3.5772692335	-0.232985
C	-2.7136445062	-1.4589414133	-4.0809542422	-0.287237
H	 0.6275476723	 1.7844854045	-0.8443293848	 0.139491
H	-0.9703473955	 1.7527220837	-0.1000840489	 0.157068
H	 0.4662119883	 1.7779770773	 0.9421084908	 0.149553
H	 0.8355014283	-0.5681974939	-1.8990241355	 0.084012
H	 0.1205260554	-2.3336213081	-0.0747493367	 0.290271
H	-2.1788430974	-0.8311232143	-1.4699907897	 0.102693
H	-1.373401347	 0.5663878882	-2.1912649378	 0.094502
H	-0.5772051206	-0.8828352524	-4.1060952752	 0.078018
H	-1.3763756476	-3.2389408541	-4.3035680647	 0.109745
H	-2.1726121012	-3.1109494493	-2.6733993476	 0.121447
H	-3.6088246714	-1.2040467695	-3.5224510329	 0.107225
H	-2.8061382686	-1.3140528979	-5.151749734	 0.109032
