20
gdb 40628	3.49589	1.22703	1.22018	1.9752	78.8	-0.239	0.0856	0.3246	1130.9212	0.17305	-403.092944	-403.085493	-403.084548	-403.125162	29.725	
C	 0.8509737407	 1.7001377066	 0.1565253203	-0.225587
C	 1.1371205125	 0.3756825192	-0.4539972349	-0.225597
N	-0.1721996387	 0.6548222413	 0.1356718021	-0.075144
C	-0.4460932917	 0.0136467932	 1.3986629306	 0.065087
C	-1.667002079	 0.4602185479	 2.2416282654	 0.040292
C	-2.8429354753	 0.4435523736	 1.2461456585	-0.21019
C	-2.5431379352	-0.9481889495	 0.6047429681	-0.210175
C	-1.2911598219	-1.2844806433	 1.4375133854	 0.04024
O	-1.695699002	-0.8960047538	 2.7882408322	-0.301379
H	 1.3288952747	 1.9240753564	 1.1088039112	 0.114521
H	 0.6519910652	 2.5654102117	-0.4687415407	 0.11997
H	 1.1509683936	 0.2561473429	-1.5332410684	 0.119974
H	 1.8071496067	-0.2892434645	 0.0885209211	 0.11452
H	 0.4355632636	-0.0954570315	 2.0475096075	 0.067081
H	-1.6158353373	 1.2437993437	 2.9977305238	 0.073339
H	-3.8005209091	 0.4749687002	 1.7696248164	 0.1009
H	-2.7941640354	 1.2632479523	 0.5269317145	 0.108949
H	-3.3368018575	-1.67773264	 0.7775187224	 0.1009
H	-2.3308358389	-0.8875234249	-0.4642696	 0.10895
H	-0.8563288449	-2.2819910917	 1.3727686844	 0.073349
