13
gdb 11938	3.36088	1.87254	1.53468	5.4382	60.55	-0.2509	-0.0085	0.2424	827.6868	0.094274	-398.554583	-398.547294	-398.54635	-398.586239	26.465	
O	-0.035579644	 1.4377722455	 0.0995022172	-0.435678
C	-0.0235949652	 0.0714277075	 0.038552514	 0.275864
C	-0.2866823333	-0.7499707796	-1.1900327778	-0.399152
C	-1.1636516573	-0.9633122499	 0.0301006075	 0.285988
O	-0.4928687783	-1.7886273782	 0.9786996662	-0.309739
C	 0.5654994806	-0.8001190703	 1.1413263984	-0.132836
C	-2.5824303453	-0.8582640599	 0.0456320639	 0.225293
N	-3.7349779651	-0.7510937827	 0.0476705471	-0.34825
H	 0.2856123255	 1.7977352265	-0.7334983608	 0.304024
H	-0.7735256204	-0.2052181126	-1.9942180485	 0.143847
H	 0.3771262422	-1.554231017	-1.4971223415	 0.135954
H	 1.5616130854	-1.2253937262	 0.9812067976	 0.118515
H	 0.5013194552	-0.3267251829	 2.1260713467	 0.13617
