21
gdb 37847	2.48697	2.48335	1.9076	0.1932	83.71	-0.267	0.0887	0.3557	858.2247	0.188646	-349.940969	-349.935316	-349.934371	-349.970443	26.578	
C	-0.0376334952	 1.5607586613	 0.0023072089	-0.229598
C	 1.5069902591	 1.4349111343	-0.0056587478	-0.03578
C	 2.0318611329	 0.8792625908	 1.3773686829	-0.035777
C	 0.8528385155	 0.6180680746	 2.3486807887	-0.229598
C	 0.5020181285	-0.5445847292	 1.3859116404	-0.035777
C	-0.0228574198	 0.0110678456	 0.0028826688	-0.03578
C	 1.3025378855	 0.1157737243	-0.8371669511	-0.001835
C	 2.2818411107	-0.9335064307	-0.3485415442	-0.259328
C	 2.0478422561	-0.6732287069	 1.1266800496	-0.00184
H	-0.5385388814	 2.1037775472	 0.8060811064	 0.089524
H	-0.4005678927	 1.9449715807	-0.9556191066	 0.088342
H	 2.1154633353	 2.2488294089	-0.4038105239	 0.053296
H	 2.9276942444	 1.3889722151	 1.7364041459	 0.053295
H	 1.2167016136	 0.2328561855	 3.3058536754	 0.088342
H	 0.1219717168	 1.4045301101	 2.5465170342	 0.089524
H	-0.0684220756	-1.399554942	 1.7531324093	 0.053295
H	-0.8806595967	-0.5396926765	-0.3870733806	 0.053295
H	 1.1693790963	 0.2524048444	-1.9109987511	 0.057048
H	 2.0112180408	-1.9508693689	-0.6545748105	 0.091151
H	 3.3141321759	-0.7382603281	-0.6618642477	 0.091151
H	 2.6003414699	-1.2624581507	 1.8595285329	 0.057048
