13
gdb 133205	3.08465	1.47176	1.00255	1.8175	66.37	-0.2641	-0.0882	0.1759	1086.8011	0.087762	-494.013987	-494.00636	-494.005416	-494.046514	27.808	
C	-0.2568306459	 1.4693923215	 0.0295683261	-0.45124
C	 0.0268921058	 0.0007867699	-0.0218836428	 0.390667
N	 0.1335970204	-0.5409981043	-1.1851683067	-0.122455
O	 0.4004469107	-1.9216418534	-1.2139212583	-0.277623
C	 0.5423557127	-2.6671431337	-0.0724226486	 0.305149
N	 0.7825018738	-3.9081920015	-0.0732547156	-0.504672
C	 0.3887182761	-1.8872380649	 1.1637239318	 0.29981
F	 0.5185009837	-2.5635167436	 2.2751392147	-0.010904
N	 0.148767476	-0.6435789566	 1.2121666178	-0.331535
H	 0.5410325498	 1.981105522	 0.5770726677	 0.152433
H	-0.3347598058	 1.879745525	-0.9770026171	 0.153752
H	-1.1891987857	 1.646916791	 0.5748687379	 0.152427
H	 0.8536806486	-4.2660191313	-1.0278423971	 0.244191
