14
gdb 43610	2.39203	1.39389	1.01808	3.2247	75.35	-0.2567	0.	0.2567	1145.496	0.097651	-399.490418	-399.481667	-399.480723	-399.524168	32.49	
O	 0.0368247756	-0.0619131989	 0.0018220199	-0.348977
C	-0.0298737246	 1.1345336307	 0.0106497587	 0.445193
C	-1.1639967148	 2.1830270839	 0.0290785044	-0.431556
C	-0.0076833742	 3.2661139572	 0.0253773976	-0.023569
N	 0.9268734019	 2.1223990844	 0.0078298349	-0.336733
C	 0.046315603	 4.0983775957	-1.1761529969	 0.29795
C	 0.0897158401	 4.7703422704	-2.1705851725	-0.43935
C	 0.0703800696	 4.0808836091	 1.237524274	 0.298036
C	 0.1338332741	 4.7382846833	 2.2405765404	-0.439448
H	-1.7904928465	 2.1974704328	-0.8623284528	 0.150508
H	-1.7732647193	 2.1848738645	 0.9324515029	 0.150511
H	 1.9366210183	 2.103110294	-0.0018517151	 0.261616
H	 0.1293844093	 5.3685789492	-3.0476190695	 0.207906
H	 0.1912864275	 5.3235194536	 3.1253640139	 0.207914
