16
gdb 36134	4.10172	1.13104	1.00037	5.0604	73.46	-0.2603	-0.0118	0.2486	1173.1113	0.124499	-400.752063	-400.744375	-400.743431	-400.784778	29.021	
N	-0.0630964496	-1.1273320197	 0.3748779588	-0.305056
C	-0.0620891064	 0.0123309024	 0.1863397583	 0.266902
C	-0.0509586848	 1.4532871166	-0.0753393743	-0.439096
C	 1.3518174953	 2.0111747076	-0.1994733844	 0.395296
O	 1.9963723047	 2.3666905293	 1.0428604227	-0.286782
C	 1.7236130276	 3.4070334628	 0.0966856975	-0.036617
C	 2.9065767585	 3.7808287488	-0.7883298748	-0.296364
C	 3.1874730076	 2.4944533678	-1.5404589858	-0.072296
C	 2.3176080589	 1.5283972151	-1.2376427471	-0.138393
H	-0.6106388526	 1.6388315221	-0.9997976121	 0.15967
H	-0.5723902791	 1.9661403219	 0.7384090042	 0.164914
H	 1.0103098757	 4.1587181488	 0.4255203298	 0.099776
H	 2.6517082346	 4.606279472	-1.4649527915	 0.118604
H	 3.7669929957	 4.1092801889	-0.1933065268	 0.134975
H	 4.0314104033	 2.3891340967	-2.2123937661	 0.111262
H	 2.3075128605	 0.5201938087	-1.6320619685	 0.123206
