16
gdb 67493	2.52152	1.68831	1.26885	6.2954	73.68	-0.227	0.0289	0.2559	1005.8824	0.12502	-396.839521	-396.831867	-396.830922	-396.87134	30.208	
N	-0.0804803967	 1.4254240324	 0.1079472837	-0.589627
C	-0.007044246	 0.0165161383	-0.0509612615	 0.281302
C	 0.5921520773	-0.744830344	-1.286254561	-0.135633
N	 0.826500209	-2.1542481147	-0.9116171743	-0.312915
C	-0.5353465479	-1.6978965665	-1.261914695	-0.052285
C	-1.1554220943	-0.984306817	-0.0309888492	-0.126749
C	-0.2154530939	-0.8762912724	 1.158838554	-0.187522
C	 0.6558536172	-1.8758302488	 1.7249930558	 0.323042
N	 1.3118677577	-2.6136540307	 2.3285582285	-0.371379
H	 0.8252100909	 1.8176573296	 0.350064185	 0.241201
H	-0.3928190976	 1.8777715673	-0.7461007177	 0.235714
H	 1.1038750944	-0.2716124847	-2.1150646918	 0.098947
H	 1.2213737627	-2.6425936272	-1.7146254773	 0.238549
H	-1.0982757794	-2.1458534843	-2.0693245057	 0.105752
H	-2.2149147363	-0.7995569723	 0.0904646016	 0.10789
H	-0.687122207	-0.286036825	 1.9414426949	 0.143712
