24
gdb 88962	3.21909	0.90626	0.88162	1.1099	90.37	-0.2209	0.0841	0.305	1508.638	0.21608	-368.374526	-368.36443	-368.363485	-368.409759	38.26	
C	 0.058375722	 1.5409103507	-0.3252452353	-0.41154
C	 0.1824858605	 0.0500804544	-0.0925289306	 0.030877
C	 1.5147934779	-0.6101901066	 0.0288196267	-0.249143
N	 0.6194266818	-0.5316789475	 1.1767155639	-0.076429
C	 0.9948369442	 0.3282494084	 2.2952621549	-0.221013
C	 1.6672488421	-0.4758231965	 3.3959488107	 0.389038
C	 0.8245496941	-1.5957470684	 3.9741992708	-0.453314
C	 3.1622112443	-0.6759380504	 3.3052858539	-0.290239
C	 2.5867733792	 0.2779483959	 4.3258511432	-0.315961
H	 0.9161377867	 2.0986045695	 0.058273156	 0.120247
H	-0.0142125095	 1.7436393344	-1.399088202	 0.120948
H	-0.8458751976	 1.9417571401	 0.1466216285	 0.122165
H	-0.6193753284	-0.5261671233	-0.5542707131	 0.086684
H	 1.6957481508	-1.6020668443	-0.3779484234	 0.10993
H	 2.3858109957	 0.0458690214	 0.0202595499	 0.100269
H	 1.6613737135	 1.1553318516	 1.9986126941	 0.073263
H	 0.0746502831	 0.7814205091	 2.6881465582	 0.097792
H	 0.5164683757	-2.2899677189	 3.1877932608	 0.132881
H	 1.3779813807	-2.1538642244	 4.7359629737	 0.103551
H	-0.0840107945	-1.1999034529	 4.4445311526	 0.106943
H	 3.5737145795	-1.6162106942	 3.6566608333	 0.107602
H	 3.6922383597	-0.2522856502	 2.4586285925	 0.104258
H	 2.7288676126	 1.3421733324	 4.1652370791	 0.103738
H	 2.6037658159	-0.0164665305	 5.3700329113	 0.107455
