21
gdb 114056	2.4154	1.32012	1.08139	2.7508	79.01	-0.2316	0.073	0.3046	1231.4659	0.18073	-424.194148	-424.184583	-424.183639	-424.22812	36.227	
C	-0.2389673915	 1.4020624406	 0.0364829768	-0.489878
C	-0.0445287798	-0.0741256348	 0.1508162634	 0.43228
C	 1.1213797528	-0.8801196182	-0.3402833022	-0.38882
C	 0.6829657595	-0.9978344842	 1.1124131175	 0.194925
C	 1.5968732484	-0.7553608975	 2.2793533253	-0.499072
C	-0.6226244862	-1.7941026236	 1.1319461142	 0.057197
C	-1.4636628783	-1.7160685999	 2.39584076	-0.07071
O	-2.800244386	-2.0782807542	 2.1139444547	-0.422749
O	-1.2198767894	-0.9056397797	 0.1324540667	-0.354403
H	 0.715837875	 1.9235096294	 0.1499773441	 0.124764
H	-0.6475196172	 1.6601911586	-0.9472490556	 0.134516
H	-0.9319800527	 1.7701073775	 0.7995844059	 0.126195
H	 0.9540182905	-1.691848106	-1.0437895508	 0.111432
H	 2.0478906779	-0.3310466368	-0.4840097976	 0.109849
H	 2.2888427679	 0.0660396592	 2.0672335196	 0.121226
H	 1.0432051914	-0.495092556	 3.1875281807	 0.124715
H	 2.2034319689	-1.6417733665	 2.5005170399	 0.125939
H	-0.587170001	-2.8270243984	 0.7623110784	 0.080907
H	-1.0900923372	-2.4164895365	 3.1513048318	 0.106354
H	-1.4010891685	-0.6988342596	 2.8157298436	 0.082658
H	-3.0576901745	-1.5409319833	 1.3540061537	 0.292673
