17
gdb 2937	6.25773	1.8434	1.52188	1.0223	66.37	-0.2424	0.0214	0.2639	834.7936	0.14899	-309.719198	-309.712068	-309.711124	-309.750626	25.897	
C	-0.1302074634	 1.3714078427	 0.0191161617	-0.236241
O	 0.1468995433	-0.0072471192	 0.0674360495	-0.243302
C	 0.6998321633	-0.5306062144	-1.1340787373	 0.116208
C	 1.2658848963	-1.9389402452	-0.8469238992	-0.24092
C	 0.8837325023	-2.8138789308	-2.0659214149	-0.256313
C	-0.2051610222	-2.0102452504	-2.7353799493	-0.058594
C	-0.3067241648	-0.7795358905	-2.2389193112	-0.08902
H	 0.7694504648	 1.9601688294	-0.2230515962	 0.101084
H	-0.9090658705	 1.6220232185	-0.717133978	 0.103041
H	-0.4857166995	 1.665439228	 1.010124334	 0.125139
H	 1.48652602	 0.1630348599	-1.4815880758	 0.06161
H	 2.3390386859	-1.9270061761	-0.6449194798	 0.097851
H	 0.7626602465	-2.3010962456	 0.0540279564	 0.12214
H	 1.734491227	-2.9548806614	-2.7465291169	 0.107397
H	 0.5534398403	-3.8194272215	-1.7810109415	 0.105199
H	-0.8026904983	-2.4068556523	-3.5497908485	 0.092789
H	-0.9939651709	-0.0163749112	-2.5858762729	 0.091932
