18
gdb 72190	3.02801	2.02477	1.60508	0.9699	73.46	-0.2319	0.0716	0.3035	872.7269	0.149837	-401.891621	-401.885082	-401.884137	-401.922007	27.936	
O	-0.029006571	 1.3850389625	 0.0154326246	-0.47987
C	 0.0195551152	-0.0079822237	-0.0496585366	 0.411059
C	 0.4910153146	-0.7378521386	-1.3203185507	-0.305631
C	-0.5459346394	-1.8416000782	-0.9564697283	-0.065568
C	 0.077639824	-2.8261263997	 0.043011097	-0.15477
N	 0.1220841287	-2.1385981344	 1.3431619627	-0.102667
C	-1.0174563082	-1.2390124838	 1.4462050775	-0.065197
C	 0.3729043901	-0.6907213022	 1.3132447362	-0.140689
C	-1.303526556	-0.8156813052	-0.0188506852	-0.103137
H	 0.8540004838	 1.7104896351	 0.2253506074	 0.278369
H	 0.1952043632	-0.1673872422	-2.2057543951	 0.103237
H	 1.5405561058	-1.0386173787	-1.4092051157	 0.086472
H	-1.0930402665	-2.313310348	-1.7729425084	 0.073343
H	-0.5398657078	-3.7219765505	 0.171071637	 0.103496
H	 1.0826525518	-3.1446834858	-0.2522217508	 0.104539
H	-1.6943757548	-1.2979876805	 2.290016113	 0.091399
H	 1.0506231602	-0.2777472049	 2.055255545	 0.087465
H	-2.2501771536	-0.384660551	-0.3318808796	 0.078149
