21
gdb 75487	2.48217	1.4857	1.10948	1.2827	84.74	-0.2169	0.0257	0.2426	1180.3972	0.183007	-387.100579	-387.091924	-387.09098	-387.133175	34.639	
C	 0.0979025431	 1.4838804889	 0.0875743428	-0.487652
C	-0.0158166652	-0.0125616233	-0.0168193304	 0.355313
C	-0.0444977945	-0.6581648956	-1.1875178844	-0.175081
C	-0.1505958602	-2.1585201954	-1.3037078862	-0.27798
C	-0.8711249205	-2.7968756656	-0.1023412182	-0.271517
C	-0.4574913131	-2.2159323191	 1.235583765	 0.407627
O	-1.2629940678	-2.6175525699	 2.3145850291	-0.473551
C	 0.9687536796	-1.8576605695	 1.5508885848	-0.356446
C	-0.0709786737	-0.7653610884	 1.2684356731	-0.161178
H	 0.9915256515	 1.7745427099	 0.65465369	 0.124166
H	 0.1500467665	 1.954238275	-0.8979460853	 0.117577
H	-0.7610628584	 1.9082960624	 0.6233824032	 0.12401
H	 0.0363818868	-0.0922148288	-2.1122805643	 0.075251
H	-0.6855766896	-2.4263475977	-2.2219692798	 0.102999
H	 0.8515358652	-2.5971566346	-1.4176509998	 0.108089
H	-1.9507766801	-2.6284360656	-0.1942671829	 0.111602
H	-0.7184093819	-3.8840795271	-0.1080922088	 0.084518
H	-1.0686821916	-3.5441409191	 2.495687953	 0.27825
H	 1.2818204492	-1.9819771421	 2.5816323069	 0.110509
H	 1.7434027109	-2.0131050816	 0.8079109892	 0.114072
H	-0.4075364463	-0.2124157028	 2.139620023	 0.089422
