13
gdb 15449	3.32719	2.08095	1.40236	3.8449	66.02	-0.242	-0.0133	0.2288	844.2164	0.095961	-357.62055	-357.613386	-357.612441	-357.652166	26.395	
N	-0.0524732488	 1.2954044609	 0.0272223285	-0.526766
C	 0.0275516934	 0.0328620881	 0.025407493	 0.382419
N	 1.1321646043	-0.816909096	-0.0385787267	-0.34115
C	 0.6957231045	-2.1338295791	-0.030523675	 0.065934
N	-0.5649168439	-2.3147918927	 0.0237694314	-0.235427
C	-1.1615076834	-0.9544768477	 0.0686952844	-0.223659
C	-2.012549916	-0.7698769011	 1.236166505	 0.381557
C	-2.7104838697	-0.6171251862	 2.2005470666	-0.469636
H	 0.8647257775	 1.7416852379	-0.0201203683	 0.212039
H	 2.0920540275	-0.5155705047	-0.0507643804	 0.26216
H	 1.4238960723	-2.9375060129	-0.0774961797	 0.141618
H	-1.7605326727	-0.8130497237	-0.8405048887	 0.149222
H	-3.3309220849	-0.4775979227	 3.0509299	 0.201687
