17
gdb 124263	2.65641	1.49162	0.96661	4.3094	76.82	-0.2409	-0.0318	0.2091	1183.1331	0.136096	-418.064826	-418.055995	-418.05505	-418.098717	31.817	
C	-0.0241412529	 1.5426934989	-0.036445243	-0.493604
C	 0.0513799077	 0.0221079075	-0.0282046964	 0.29589
O	 1.1255023498	-0.5516453805	-0.0490457485	-0.33119
C	-1.214717199	-0.7191722836	 0.005962406	 0.070525
C	-2.5078620239	-0.2152707687	 0.0316448533	-0.121695
N	-3.3294518303	-1.2780239639	 0.0577739074	-0.190931
N	-2.6716113979	-2.4642632887	 0.0519055563	-0.275401
C	-1.3853178389	-2.1408119152	 0.0202575462	 0.274791
C	-0.3319596403	-3.1984233978	 0.0041430145	-0.476651
H	 0.9872086588	 1.9492109013	-0.0643296417	 0.141837
H	-0.5841323412	 1.8993091006	-0.9079574844	 0.133792
H	-0.5398672403	 1.9105908382	 0.8574337242	 0.133934
H	-2.8840819272	 0.7957271521	 0.0327496313	 0.145588
H	-4.3353203944	-1.2819030367	 0.0805052712	 0.279297
H	 0.2980125698	-3.108608009	-0.8852205051	 0.142955
H	 0.3371766918	-3.0962115796	 0.8630650364	 0.142904
H	-0.8002567317	-4.1847291648	 0.0217251126	 0.127959
