21
gdb 104329	2.15937	1.50382	1.17774	2.6246	80.42	-0.2298	0.0182	0.248	1171.6204	0.180999	-424.239437	-424.229715	-424.228771	-424.27373	36.328	
C	 0.2191726442	 1.4894122175	-0.0823613765	-0.504608
C	 0.0548148008	 0.0037271026	-0.0143406424	 0.290202
C	-0.2046819427	-0.8385554721	-1.0111192626	-0.211009
C	-0.2981226791	-2.2473365032	-0.5057518592	-0.133194
O	-0.0266965779	-2.1527204185	 0.8918071551	-0.323426
C	 0.1512414472	-0.7718535375	 1.2855542775	 0.256154
C	 1.503255005	-0.6441277395	 1.9939541682	-0.419548
C	-1.0126559333	-0.4477511845	 2.2489883079	-0.069596
O	-1.074809547	-1.3873949353	 3.3013170224	-0.425153
H	 1.2095934372	 1.799338405	 0.271268373	 0.135012
H	 0.0962153203	 1.8537649473	-1.1053447438	 0.128092
H	-0.5144133721	 2.0047774228	 0.5496593968	 0.134617
H	-0.3405119187	-0.5742314334	-2.0531213248	 0.099866
H	-1.2936278146	-2.6896260423	-0.6715209162	 0.103742
H	 0.4343539527	-2.921171372	-0.9762921247	 0.107141
H	 2.3107894517	-0.9814380806	 1.339237075	 0.115178
H	 1.6953594575	 0.3939342123	 2.2839564755	 0.110779
H	 1.4992199903	-1.2531372957	 2.9007089341	 0.135921
H	-0.8749524521	 0.5380485205	 2.7064094681	 0.100677
H	-1.950353594	-0.4271478992	 1.6707941116	 0.080492
H	-1.0339947456	-2.2506379541	 2.8691321249	 0.28866
