15
gdb 7927	3.51302	1.78538	1.26183	2.6043	61.97	-0.2464	-0.0385	0.2079	926.3974	0.118592	-399.869238	-399.86162	-399.860676	-399.901717	27.747	
C	-0.098942904	 1.5916032637	 0.0175199113	-0.390849
C	 0.0201514423	 0.0660529835	-0.0137454985	-0.074779
N	 0.7834962899	-0.4593510014	-1.1310396781	-0.317698
C	 1.8466532015	-1.2736384084	-0.8346711061	 0.408703
O	 2.5807522518	-1.7971441438	-1.6408707352	-0.368492
C	 1.9119924652	-1.3863259212	 0.6879654839	-0.458645
C	 0.8040638869	-0.478724649	 1.1987519946	 0.400446
O	 0.5575578044	-0.195220387	 2.3400261898	-0.302614
H	 0.8891052777	 2.0593804359	-0.0235204924	 0.12927
H	-0.6891052755	 1.954996137	-0.8289876186	 0.121771
H	-0.5932613196	 1.8961620103	 0.9432676723	 0.149276
H	-0.9890713709	-0.3724179557	 0.0211147246	 0.115719
H	 0.553077558	-0.2725840337	-2.0949967044	 0.254882
H	 1.7433108232	-2.4216364585	 1.0028307721	 0.166886
H	 2.8912428592	-1.0918332415	 1.0750750048	 0.166123
