13
gdb 24942	5.05348	1.32298	1.05566	2.3335	64.89	-0.2137	-0.0108	0.2029	1023.8204	0.091166	-452.795377	-452.78858	-452.787636	-452.826916	25.401	
O	 0.0274845491	 0.0268335907	-0.0145551059	-0.338132
C	-0.0234703139	 1.2267864489	 0.026420832	 0.409812
C	-1.3001418193	 2.1314972468	 0.0290590987	-0.483386
C	-0.6958653849	 3.4998358932	-0.0055543173	 0.199638
C	 0.64322646	 3.3767566221	 0.0079331662	 0.423032
N	 1.1037874655	 2.0757817267	 0.0706572266	-0.45624
O	 1.2401177481	 4.5755204883	 0.0396849059	-0.204041
C	 0.1419626153	 5.4365676672	 0.0371639018	 0.024127
N	-1.0106424171	 4.8497569738	 0.0187552814	-0.323788
H	-1.9193566196	 1.8621486401	-0.8326244294	 0.157644
H	-1.8844722513	 1.9105845723	 0.9290390618	 0.158509
H	 2.040675455	 1.739482077	-0.079866785	 0.277216
H	 0.3777761132	 6.4869868629	 0.0370369832	 0.155609
