17
gdb 9368	5.32317	0.89423	0.79981	4.9414	62.78	-0.2516	0.0251	0.2767	1385.6047	0.141104	-438.158793	-438.149493	-438.148548	-438.19406	32.008	
O	 0.1390423528	 1.163539741	-0.4313111356	-0.42485
C	-0.1587321659	-0.1792939176	-0.0645938974	-0.081262
C	-1.6448709299	-0.2269919714	 0.257082089	-0.146606
N	-2.4281396864	 0.2159722325	-0.8822353758	-0.314858
C	-3.4783812485	-0.4711775491	-1.3824156448	 0.391806
O	-3.8989933598	-1.5213347152	-0.9144180817	-0.394559
C	-4.1650040846	 0.1348395778	-2.6126555817	-0.143922
O	-5.2095159104	-0.6937947148	-3.0267057017	-0.420509
H	 1.0448107247	 1.2024427725	-0.7508863478	 0.295582
H	 0.0647317285	-0.874718484	-0.8868692848	 0.102667
H	 0.4170705794	-0.4935030806	 0.8185867524	 0.099268
H	-1.960436681	-1.2433666696	 0.4996056493	 0.148743
H	-1.843777548	 0.4120080065	 1.1271109136	 0.120811
H	-2.1151135395	 1.0585831511	-1.3395554466	 0.259236
H	-4.5313534217	 1.1416431809	-2.3535681924	 0.109009
H	-3.4178277293	 0.2625769142	-3.4125952267	 0.105934
H	-5.2046689905	-1.4220158441	-2.3810911674	 0.29351
