20
gdb 118743	3.06739	0.97016	0.85995	4.2131	77.04	-0.2446	0.0376	0.2823	1420.227	0.168996	-440.303366	-440.293541	-440.292596	-440.338536	35.69	
C	-0.0230227836	 1.3599838085	-0.1336830879	-0.227901
O	-0.0108760452	-0.0484944517	-0.094000455	-0.245381
C	-1.2900401623	-0.6106250045	 0.1042080185	-0.088395
C	-1.1419668979	-2.1293852055	 0.1013192519	 0.323013
C	-0.2720663936	-2.6238676995	 1.2531743087	-0.441803
C	-2.4893315185	-2.8867529547	-0.1239606022	-0.462192
C	-1.9153138203	-3.2725727825	-1.5108824659	 0.438242
O	-2.3132421949	-3.865912907	-2.4769231251	-0.362987
N	-0.7299433785	-2.6438636149	-1.2201189967	-0.343255
H	 1.005374215	 1.6913539541	-0.2952033981	 0.130967
H	-0.6531579303	 1.7383144476	-0.9534932542	 0.109897
H	-0.3921732661	 1.7902334365	 0.8102480216	 0.108252
H	-1.7230180068	-0.2723094306	 1.0613157498	 0.089526
H	-1.9746822998	-0.3008743443	-0.7024712389	 0.089226
H	-0.7263246779	-2.3665394439	 2.2159361595	 0.117888
H	-0.1528584318	-3.7094696299	 1.2046473416	 0.120819
H	 0.7164142853	-2.1591015062	 1.2125507723	 0.136927
H	-2.6634013159	-3.730062558	 0.5465460459	 0.129385
H	-3.3842164351	-2.2623390618	-0.1700471609	 0.126523
H	 0.0583166983	-2.3956619819	-1.8001309849	 0.25125
