21
gdb 68825	2.68382	1.43072	1.21414	1.6332	83.6	-0.2401	0.0867	0.3268	1144.1704	0.180707	-387.0527	-387.043603	-387.042658	-387.085935	35.178	
C	-0.0087837492	 1.5373113427	 0.0582872093	-0.497403
C	-0.0244644642	 0.0360863068	 0.0512261709	 0.308779
C	 1.1558399094	-0.8044562883	-0.3578025837	-0.379425
C	 0.5994947663	-0.9747550562	 1.0385083971	 0.220205
C	 1.3920786768	-0.7880146268	 2.299055901	-0.500956
C	-0.6555811872	-1.8182017418	 0.9279682357	 0.421477
C	-0.8674988978	-3.2484680403	 1.1560471366	-0.276901
O	-1.3513040168	-2.2576239483	 2.0824725355	-0.281797
C	-1.2996513844	-0.8240906074	-0.0539040046	-0.384841
H	 0.974175204	 1.9223816366	 0.3494524192	 0.11736
H	-0.2364194059	 1.9411586156	-0.9359420799	 0.121042
H	-0.7490393932	 1.9428167113	 0.7573738971	 0.119171
H	 1.0513375514	-1.5933858989	-1.1005894626	 0.100925
H	 2.1061073831	-0.2794623134	-0.405318932	 0.107823
H	 2.0477432486	 0.0857773468	 2.2267065967	 0.116054
H	 0.7292880802	-0.6518058805	 3.159022934	 0.133649
H	 2.0278354125	-1.6577291359	 2.504731055	 0.120007
H	-1.6413745841	-3.7803691493	 0.6037145341	 0.112016
H	-0.0515834212	-3.8695571612	 1.5242842876	 0.111202
H	-2.1721782586	-0.3519392811	 0.4067151761	 0.116269
H	-1.5698326298	-1.1881165407	-1.0511573229	 0.095344
