15
gdb 125732	3.21596	1.39907	0.981	5.7194	74.34	-0.2283	-0.053	0.1752	1144.5248	0.112072	-453.972024	-453.963672	-453.962728	-454.004824	31.002	
C	-0.2076434574	 1.5459765828	 0.0193333939	-0.471924
C	 0.0190103259	 0.0578136931	 0.0039403986	 0.375734
N	 0.118510526	-0.4643470325	-1.1797684147	-0.170615
O	 0.3344371055	-1.8581977328	-1.2250022233	-0.257164
C	 0.4370427252	-2.6569332774	-0.1399307284	 0.443386
O	 0.6337061212	-3.8436883739	-0.2743637366	-0.365394
C	 0.3054368634	-2.0137861651	 1.1850415613	 0.223395
N	 0.3894409035	-2.8821490149	 2.2152096017	-0.571581
C	 0.1071178857	-0.6680601546	 1.2315845518	-0.283576
H	 0.59947971	 2.0524169642	 0.5595206364	 0.137022
H	-0.2479911255	 1.9289605533	-1.0008541211	 0.153626
H	-1.146706131	 1.78692614	 0.529003501	 0.137569
H	 0.6353994681	-3.8320315258	 1.9826925983	 0.284161
H	 0.4505215016	-2.5689023175	 3.1672100532	 0.266961
H	 0.0096749679	-0.1372780389	 2.1726580981	 0.098399
