21
gdb 87674	3.27582	1.10324	0.99347	1.1734	79.65	-0.2214	0.0725	0.2939	1298.1817	0.179434	-424.199827	-424.190166	-424.189222	-424.23413	37.058	
C	-0.5616991226	 1.5597668161	 0.0813108527	-0.426917
C	-0.0528576825	 0.1301099363	-0.0319979562	 0.422164
C	-1.1183030183	-0.9000149229	 0.3083688137	-0.430618
C	 0.7996632008	-0.1737862054	-1.2971391824	-0.403703
C	 1.9480672697	-0.285567575	-0.311696747	 0.447984
C	 3.1222701205	-1.2192100702	-0.2999182408	-0.406383
C	 3.3161049582	 0.2866312948	-0.4428271444	 0.011383
O	 3.6440664313	 0.8365321051	-1.6854385351	-0.4215
O	 1.1263478622	-0.0584499939	 0.8255130174	-0.348293
H	 0.2355087511	 2.2730372817	-0.144932137	 0.124765
H	-1.3897110406	 1.7324071263	-0.6150275819	 0.113278
H	-0.9208582411	 1.7568311514	 1.0966483612	 0.121015
H	-1.9676245621	-0.8204007214	-0.3792035594	 0.113649
H	-0.7115019232	-1.9128049698	 0.2423387525	 0.119294
H	-1.4872143693	-0.7447561137	 1.3274150337	 0.122118
H	 0.5336515533	-1.098503479	-1.813802893	 0.103784
H	 0.8882364711	 0.638771234	-2.0197562978	 0.121811
H	 3.4051240246	-1.6719181725	 0.6449097993	 0.120871
H	 3.2775285511	-1.8351320302	-1.1807294356	 0.113586
H	 3.711455776	 0.8102627633	 0.4282850614	 0.093461
H	 4.5577341698	 0.6046358952	-1.883404311	 0.288251
