15
gdb 124434	3.27843	1.20469	1.1091	3.6526	71.49	-0.2795	-0.0231	0.2564	1125.5246	0.11432	-413.002305	-412.994339	-412.993395	-413.035923	28.168	
C	 0.027559965	 1.573774387	-0.0191824024	-0.395694
C	 0.0536042158	 0.0398157132	 0.0226203937	-0.095608
C	 0.6612813465	-0.5189156676	-1.1983011362	 0.297679
N	 1.1147427367	-0.936678891	-2.1744462944	-0.309836
N	 0.7401431744	-0.4564717295	 1.210795516	 0.145692
N	 1.9703681465	-0.0750608859	 1.5350482757	-0.219451
C	 2.2261477935	-0.7696137392	 2.6433349584	-0.04618
C	 1.1083803865	-1.5629240727	 2.9437190344	-0.060764
N	 0.1744430143	-1.3513051632	 2.0163759879	-0.214276
H	 1.0445366226	 1.9675461076	-0.0401579884	 0.169803
H	-0.5055147802	 1.9085779607	-0.9117414675	 0.147095
H	-0.4852367921	 1.9519967976	 0.8680514855	 0.14242
H	-0.9609439524	-0.3582615304	 0.1052163824	 0.167371
H	 3.1690765011	-0.6685972871	 3.1562501782	 0.135738
H	 0.9371884319	-2.2495159797	 3.7570096368	 0.136011
