17
gdb 76256	2.52182	1.42524	0.99589	3.2135	72.1	-0.2589	-0.0349	0.224	1171.0029	0.13476	-455.162663	-455.153341	-455.152397	-455.197173	32.845	
C	-0.4413565242	 1.353666243	 0.1007489726	-0.392044
C	-0.0581274915	-0.1036977687	-0.0839633388	-0.006169
C	 0.8457035422	-0.4386624561	-1.328003609	 0.027187
O	 1.1188523835	 0.6392118016	-2.182076214	-0.424025
C	 1.9426543981	-0.7914207032	-0.3279500759	 0.362887
N	 3.1571820554	-1.0840808286	-0.4758601152	-0.548628
N	 1.0742026779	-0.574042454	 0.7596152937	-0.107593
C	 1.269544566	-0.709528441	 2.1063092299	 0.134328
O	 2.3130789274	-1.0748420039	 2.6015966085	-0.302421
H	 0.4270800032	 2.0032426239	-0.0248827558	 0.138152
H	-1.1867768721	 1.6371027714	-0.6478091705	 0.139603
H	-0.8736194524	 1.5211213557	 1.0919897756	 0.121493
H	-0.9291347515	-0.7602077214	 0.0031321889	 0.100071
H	 0.4792988853	-1.3095092766	-1.8869894535	 0.10294
H	 2.065366137	 0.6221339008	-2.3665069897	 0.306901
H	 3.6174220621	-1.2143157535	 0.4265433372	 0.254017
H	 0.3684745635	-0.4526613494	 2.6955055462	 0.093303
