18
gdb 85113	1.88174	1.66978	1.31878	2.4511	79.37	-0.2315	-0.0302	0.2013	1096.2937	0.143728	-401.905316	-401.895605	-401.894661	-401.939507	35.525	
C	-0.1103320507	 1.4988458095	-0.0901667655	-0.331836
N	-0.0165880764	 0.0614209925	 0.0660341198	-0.104057
C	-1.2463138632	-0.6968195856	 0.3700249984	-0.286844
C	-0.4099683443	-1.5696220714	 1.3062434468	 0.37491
O	-0.5402982741	-2.6189832568	 1.8520579761	-0.28472
C	 0.7574166217	-0.5306255854	 1.2071855301	-0.005768
C	 2.1275058465	-1.0872014883	 0.8230224463	-0.430822
C	 0.8075881005	 0.2936222366	 2.4110000933	 0.339596
C	 0.8267074456	 0.987326064	 3.3939731528	-0.490571
H	 0.8880065951	 1.9211645879	-0.2382118584	 0.128542
H	-0.7030489159	 1.7212143147	-0.983139175	 0.125164
H	-0.5735244362	 2.0059800921	 0.7726975189	 0.109879
H	-2.0095859856	-0.1335584084	 0.9344218767	 0.122777
H	-1.7249756757	-1.1849671267	-0.4854253086	 0.132455
H	 2.0379451307	-1.700934714	-0.076322905	 0.126514
H	 2.8298902364	-0.2722436806	 0.6252161471	 0.129225
H	 2.5261766218	-1.6966101677	 1.638596997	 0.141123
H	 0.8523305739	 1.5903596675	 4.2681328191	 0.204431
