17
gdb 67214	2.72805	1.7217	1.32593	0.9575	67.3	-0.2289	0.0694	0.2983	982.5724	0.133851	-458.880406	-458.872353	-458.871409	-458.912278	32.174	
C	 0.0307473142	 1.564162877	-0.016636629	-0.465997
C	 0.0441859078	 0.0458710006	 0.0026748115	 0.430892
O	-1.2533183426	-0.5039063726	 0.1591387264	-0.47262
C	 0.7458047246	-0.7232277796	-1.1121313528	-0.196305
C	 2.2306441916	-0.8166712195	-0.6487991931	-0.028919
O	 2.3519174549	-0.1065533343	 0.5850826129	-0.281064
C	 1.0666892934	-0.6659879373	 0.9551172053	-0.100984
C	 1.2184942866	-1.7985607506	-0.1628222774	 0.332916
O	 1.0437574543	-3.1488411524	-0.2259270758	-0.444665
H	 1.0481117179	 1.9544623438	-0.0832326958	 0.139068
H	-0.5529575787	 1.9296104477	-0.8671765108	 0.122756
H	-0.4250653031	 1.9592955727	 0.9005655152	 0.100554
H	-1.6461793074	-0.104000911	 0.9431046298	 0.276146
H	 0.4581306971	-0.8177295606	-2.1515044135	 0.098197
H	 3.0755033432	-0.8697087015	-1.3223603567	 0.115783
H	 0.9037293367	-0.7515305558	 2.029081352	 0.079132
H	 1.7652128096	-3.5746318667	 0.2523361519	 0.295109
