18
gdb 93539	3.2138	1.25158	0.98566	3.0649	74.78	-0.2589	-0.0219	0.237	1203.2329	0.148115	-439.129246	-439.120865	-439.119921	-439.162686	31.215	
C	 0.4400775715	 1.5800758318	 0.0725768526	-0.384665
C	-0.1540727406	 0.1744335394	-0.0903485873	 0.054752
C	 0.4508848234	-0.5573521656	-1.2935527617	-0.226668
C	-0.0365261354	-2.011170114	-1.408238056	-0.345247
C	 0.7919787608	-2.9513403256	-0.5700774779	 0.424139
O	 1.3749531543	-3.908473664	-0.9869125669	-0.293935
O	 0.8955168005	-2.6826845034	 0.7795522581	-0.22368
C	 0.3360408351	-1.6337503886	 1.4948053755	 0.128228
N	-0.0849724689	-0.4930865831	 1.1975764607	-0.238124
H	 1.5128479885	 1.5211700088	 0.2833959263	 0.123531
H	 0.3009418446	 2.1661767988	-0.8408896133	 0.114198
H	-0.0407811654	 2.1006903194	 0.9035062937	 0.131803
H	-1.2303017835	 0.2938743165	-0.2870567083	 0.099314
H	 0.1702414298	-0.0129487657	-2.2010568653	 0.114303
H	 1.5464889293	-0.5311355058	-1.2449041515	 0.116306
H	-1.0873427627	-2.0797750835	-1.0988548149	 0.132009
H	 0.0342598808	-2.3815685795	-2.4317673402	 0.137969
H	 0.3307847679	-1.9509092658	 2.5367002164	 0.135767
