17
gdb 81251	3.0601	1.60013	1.46614	1.651	67.59	-0.2421	0.0696	0.3116	946.2273	0.136603	-458.866458	-458.859213	-458.858269	-458.898258	28.56	
O	-0.0955277382	 1.4650981826	-0.0302488077	-0.446304
C	 0.0535366807	 0.0706734799	 0.0423808428	 0.090777
C	-0.0134885604	-0.6341169176	 1.4197604714	-0.186356
C	-1.5484633639	-0.2096576594	 1.4827160505	-0.31564
C	-1.276161313	-0.7472863439	 0.0452170641	 0.390334
O	-1.9071334768	-1.218975913	-1.101807647	-0.333778
C	-1.058763004	-2.3337534708	-1.4828807575	 0.000122
O	-0.0328210792	-2.5467556307	-0.4909613695	-0.29423
C	-0.5500084326	-1.9026922878	 0.6645526205	 0.082207
H	 0.7730164417	 1.8656270574	 0.0705480604	 0.287094
H	 0.8278797929	-0.2965081859	-0.6356886487	 0.085787
H	 0.6972814275	-0.5839112678	 2.2419345741	 0.086508
H	-2.1948038246	-0.8176532211	 2.1185317968	 0.105142
H	-1.7288529589	 0.8566256574	 1.5898117904	 0.133024
H	-1.7000428529	-3.2200878951	-1.5733617786	 0.113715
H	-0.5597802979	-2.1188323446	-2.433589839	 0.121368
H	-1.1272292202	-2.5949068296	 1.285897957	 0.080229
