16
gdb 19257	2.95491	2.23621	1.75491	3.2065	64.04	-0.2505	-0.0388	0.2117	798.4748	0.130635	-383.714898	-383.707808	-383.706864	-383.746065	27.173	
O	 0.5182666095	 1.212930606	 0.1208316412	-0.435016
C	 0.1119677499	-0.11234458	-0.0359376922	 0.129844
C	-1.3753419415	-0.4893664805	 0.0201491573	-0.06913
C	-2.127292706	-0.000718633	-1.1835818441	-0.296498
C	-1.2566546902	-1.2160428772	-1.3243420054	-0.064183
C	 0.235943858	-0.8073343572	-1.4505823182	-0.167912
C	 0.5348805192	 0.0494481535	-2.6422740986	 0.160333
O	 0.366430538	 1.2512070965	-2.6750341991	-0.2738
H	 0.3160031163	 1.676061956	-0.7047157318	 0.297112
H	 0.6709054859	-0.7022607598	 0.6967040855	 0.095396
H	-1.8910084905	-0.8140255728	 0.9158196458	 0.091057
H	-3.1927942987	-0.2051120234	-1.1674344461	 0.118719
H	-1.8631432666	 0.9322195914	-1.6717864536	 0.131835
H	-1.6417479199	-2.1853344474	-1.6128723324	 0.097444
H	 0.9024813961	-1.673922229	-1.4414753631	 0.088968
H	 0.8954690204	-0.4829436529	-3.5495890349	 0.09583
