14
gdb 132377	1.80608	1.75599	0.89099	2.9227	69.03	-0.2147	0.0071	0.2218	1167.1062	0.10072	-486.003869	-485.996507	-485.995563	-486.035541	29.106	
N	-0.0160657719	 1.4021510918	 0.1778690855	-0.590807
C	 0.0021297488	 0.0171090387	 0.0665533877	 0.385427
C	-1.1984101853	-0.707918361	 0.0454001791	-0.359829
C	-1.1487305855	-2.0907606857	-0.0051144662	 0.356668
F	-2.3017832603	-2.7672623881	-0.0260052977	-0.081999
C	 0.0399223751	-2.8070594168	-0.0386894263	-0.445746
C	 1.2089724763	-2.0587171591	-0.0183280063	 0.356668
F	 2.3796765829	-2.7036381716	-0.0522401455	-0.081999
C	 1.2216174	-0.6750284955	 0.0318379954	-0.359827
H	 0.8130242369	 1.875108031	-0.1486647967	 0.252561
H	-0.861330466	 1.8523499364	-0.1392292995	 0.25256
H	-2.1599011483	-0.2091834388	 0.07357197	 0.098462
H	 0.0543698448	-3.8870108434	-0.0797424652	 0.1194
H	 2.1694542924	-0.1503433079	 0.0493118258	 0.098462
