16
gdb 15036	2.20765	1.84078	1.10367	3.2673	66.89	-0.2497	-0.0538	0.1958	1057.4334	0.127669	-383.736135	-383.727565	-383.726621	-383.77083	29.265	
O	 0.1766091484	-0.0638115002	 0.1904567929	-0.237675
C	 0.1275784887	 1.1326634153	 0.0892943226	 0.159144
C	 1.3458317306	 2.0302785869	-0.0795376964	-0.180584
C	 1.2281423794	 2.8843836851	-1.3345416109	 0.159146
O	 2.0401794708	 2.9023254246	-2.2202406664	-0.237676
C	 1.4484478137	 2.9535713267	 1.1356376605	-0.00811
C	 2.1278062411	 2.4661844144	 2.3908256636	-0.269639
C	 2.7885375082	 3.5179536305	 1.535883567	-0.269635
H	-0.8434276117	 1.6776349174	 0.141247837	 0.081289
H	 2.2336998167	 1.3997439698	-0.1690021676	 0.115793
H	 0.3226608955	 3.5336575166	-1.3675509057	 0.081292
H	 0.5885583881	 3.6047142171	 1.2721324269	 0.096536
H	 1.707727389	 2.7629010059	 3.3451328666	 0.123284
H	 2.5453945195	 1.465387183	 2.3798402001	 0.131774
H	 3.6520773518	 3.227035518	 0.947868807	 0.131777
H	 2.8225789502	 4.5375497589	 1.9025913128	 0.123284
