10
gdb 21911	7.65381	1.35728	1.15284	3.6952	52.01	-0.2875	-0.1054	0.1821	912.3009	0.060331	-450.597429	-450.591037	-450.590093	-450.628309	22.3	
O	 0.0996984922	 1.3003133722	-0.0513642679	-0.393434
C	 0.0632211039	-0.0269839695	-0.0551336777	 0.447118
N	-0.0366361477	-0.7081241622	-1.1762193591	-0.169605
O	-0.0403275769	-2.0305631684	-0.7297626397	-0.171923
C	 0.0570356199	-1.990395627	 0.5981502458	 0.337694
C	 0.0798029718	-3.248725251	 1.3855453583	 0.091533
O	 0.0143100982	-4.3442886804	 0.8948178914	-0.224598
N	 0.1252712888	-0.7821045962	 1.0847721193	-0.367521
H	 0.1741371936	 1.5888896447	 0.8667778906	 0.326164
H	 0.1636509364	-3.0655701622	 2.4736014891	 0.124571
