20
gdb 31619	2.50029	1.32798	0.88181	1.2523	84.65	-0.1746	0.0633	0.2379	1350.2726	0.169941	-403.178843	-403.168796	-403.167852	-403.214237	35.553	
C	 0.0363767201	 0.5268737112	-0.858380535	-0.242338
O	 0.4143324746	 0.8882728998	 0.4576054983	-0.267153
C	 0.9564958706	-0.1137151725	 1.1885951455	 0.422239
C	 1.1953995712	-1.4455077726	 0.9372498205	-0.421625
C	 1.7893951925	-1.9855578523	 2.1258259072	 0.284663
C	 2.2374016422	-3.4004591919	 2.3319292839	-0.496677
C	 1.8790432125	-0.9607877764	 3.0321250914	-0.204959
N	 1.374846294	 0.1946288194	 2.454353167	-0.081001
C	 1.2185385966	 1.4798123474	 3.0988992921	-0.338415
H	 0.9009434484	 0.1733501338	-1.4346066146	 0.125419
H	-0.7275021189	-0.2611118598	-0.8466728016	 0.125739
H	-0.3720174133	 1.4254279712	-1.3232908852	 0.131794
H	 0.9877859966	-1.9758526868	 0.021890837	 0.089971
H	 3.012467216	-3.6930720757	 1.6129205957	 0.1187
H	 2.6504910994	-3.5396352442	 3.3355723202	 0.114498
H	 1.4106015157	-4.1115702378	 2.2139919213	 0.11872
H	 2.26298471	-0.9412865147	 4.0399139225	 0.106209
H	 1.9817143971	 1.5872768384	 3.8729915156	 0.133718
H	 1.3449788231	 2.2780962149	 2.3651934093	 0.14846
H	 0.2304323915	 1.5901282184	 3.5623186889	 0.132037
