18
gdb 82353	3.35853	1.34858	1.12732	1.54	77.27	-0.2322	0.032	0.2641	1097.6019	0.148101	-401.886826	-401.878746	-401.877802	-401.919276	31.827	
O	-0.1006068607	 1.4944069662	-0.0211415031	-0.430448
C	-0.0196957476	 0.0828210028	-0.0090967467	 0.089554
C	-1.4088012011	-0.5362343903	-0.129767995	-0.048473
C	-2.4095456814	 0.1660717054	-0.965637667	-0.233018
N	-1.6559597014	-0.960446006	-1.5327935105	-0.104846
C	-0.466631012	-0.5623285493	-2.3157394794	-0.181428
C	 0.6891323483	-0.4802812971	-1.2833621495	-0.178455
C	 1.8443005459	 0.2983182493	-1.6948725084	 0.271131
C	 2.7776728861	 0.9945385982	-1.9997800668	-0.43254
H	 0.7809587293	 1.8307615275	-0.2285016679	 0.286129
H	 0.4886935503	-0.2667344906	 0.8997048038	 0.075744
H	-1.7197900942	-1.2338911049	 0.6419896355	 0.092364
H	-3.4681473332	-0.0250306472	-0.812646064	 0.11291
H	-2.1603545856	 1.1721988119	-1.2889300374	 0.133345
H	-0.265417774	-1.3149914276	-3.08175669	 0.116626
H	-0.6051576466	 0.4024452745	-2.8156254936	 0.115501
H	 1.0024107832	-1.5057131332	-1.0512238104	 0.113881
H	 3.6134713946	 1.5819872801	-2.2908267596	 0.202024
