16
gdb 80103	2.70316	1.53212	1.26026	2.9098	74.83	-0.2438	-0.0078	0.236	1026.6697	0.125422	-396.939539	-396.931464	-396.93052	-396.972112	30.11	
C	-0.1108466228	 1.5310587476	 0.0133514154	-0.414968
C	 0.0736464795	 0.032832185	 0.0112814535	-0.076154
C	 1.3922408546	-0.6595569891	-0.2481835843	-0.065508
N	 2.6181275124	 0.0528564031	-0.0757872099	-0.226829
C	 2.6945868628	 0.4097461277	 1.1550971669	 0.035774
N	 1.6346588801	 0.0635200134	 1.9700684133	-0.348282
C	 0.7119515252	-0.7092001642	 1.1738972954	 0.193335
C	 0.1012876299	-1.8506654006	 1.7781166758	 0.20633
N	-0.3975779978	-2.7731445986	 2.2689794182	-0.343553
H	 0.7822958931	 2.0550252275	 0.3569968415	 0.139018
H	-0.3312429931	 1.878456821	-1.0006460393	 0.131943
H	-0.9456074431	 1.8176234978	 0.6605682646	 0.128139
H	-0.7612036634	-0.523804014	-0.4061121881	 0.114439
H	 1.4131171887	-1.5096881928	-0.9208245992	 0.119916
H	 3.5156532388	 0.9864179731	 1.5673874287	 0.140666
H	 1.756837985	-0.1408305066	 2.9497274875	 0.265733
