18
gdb 63301	1.87409	1.74722	1.12357	2.1666	74.02	-0.2609	-0.0369	0.224	1137.9845	0.144643	-439.104691	-439.095349	-439.094405	-439.138943	34.028	
C	 0.1845043076	 1.4140735737	-0.103753445	-0.421463
C	-0.0492264112	-0.0718949317	 0.0971306257	 0.39708
C	-1.5138655508	-0.4628858873	 0.022561268	-0.437272
O	 0.7332102393	-0.8376171432	-0.9177942642	-0.289143
C	 1.5083214198	-1.4322940312	 0.040925166	 0.423599
N	 2.4890469192	-2.2103641406	-0.0397449248	-0.549659
C	 0.7770820412	-0.7931132332	 1.2035258434	-0.291917
C	 1.6099758017	-0.0451103992	 2.2196211848	 0.13752
O	 1.3492824551	 1.0486509819	 2.6496048281	-0.244466
H	 1.2500854897	 1.6519528508	-0.1119272126	 0.130854
H	-0.2472451027	 1.7237455489	-1.0604001938	 0.123227
H	-0.2816942981	 1.9865862915	 0.7008615232	 0.144284
H	-1.9468056941	-0.1405337559	-0.9290206349	 0.133947
H	-1.6366069528	-1.5461893845	 0.1074635509	 0.126966
H	-2.0728506949	 0.0164326417	 0.8326674529	 0.134023
H	 2.7235048632	-2.4191909545	-1.0117078276	 0.231194
H	 0.1917315268	-1.5369026068	 1.7588985522	 0.135492
H	 2.498715551	-0.6150089704	 2.5649351777	 0.115733
