16
gdb 69708	4.07021	1.37292	1.2552	3.7565	68.22	-0.2554	-0.013	0.2424	1011.3388	0.124154	-437.849207	-437.841839	-437.840894	-437.880921	28.46	
C	 0.0637080898	 1.5149708864	 0.0267118189	-0.497682
C	-0.0799424649	 0.0239084246	-0.0304177855	 0.333433
C	-0.9312855929	-0.7807061565	 0.8627354873	-0.301706
N	 0.5362956022	-0.909420624	 1.0242232971	-0.184125
C	 1.0767237247	-1.7683680343	-0.1153214592	-0.16615
C	 0.4973428892	-0.8374002092	-1.1712871901	 0.036458
O	-0.367768536	-1.9031599337	-1.6746368798	-0.258992
C	 0.1395030459	-2.8092219161	-0.752064146	 0.434272
O	-0.154059119	-3.9521239172	-0.6309395744	-0.311783
H	 1.0679947029	 1.8312181956	-0.274910341	 0.128871
H	-0.6589202403	 1.9963696355	-0.6422520351	 0.134317
H	-0.114261253	 1.8791756426	 1.0420388617	 0.139295
H	-1.3773988189	-0.257236345	 1.7028813762	 0.132463
H	-1.5226075877	-1.6107476447	 0.4887987463	 0.151408
H	 2.125474761	-2.0197352951	 0.0206297275	 0.122719
H	 1.0532517568	-0.3476053088	-1.967445444	 0.107204
