19
gdb 36194	3.33698	1.19768	1.05734	2.069	80.61	-0.2407	0.0462	0.2869	1196.7215	0.158147	-385.823839	-385.815259	-385.814315	-385.857485	32.607	
C	-0.0133591984	-1.2078909602	 0.0723304883	-0.452384
C	-0.0401651348	-0.0065754449	 0.0750059065	 0.314539
C	-0.0451266536	 1.4522527241	 0.0903072489	-0.440358
C	 1.3500718922	 2.0426346667	-0.0485000634	 0.470035
C	 2.4120089454	 1.7787233947	 1.0481004897	-0.267657
C	 2.7743918444	 3.2982150031	 1.0450214246	-0.228746
C	 1.7022343541	 3.5633848874	-0.045698261	-0.149238
C	 2.1774230852	 3.3025069356	-1.4829212042	-0.082446
O	 1.8942224306	 1.8868452583	-1.3790019462	-0.324341
H	 0.004963823	-2.2693010774	 0.0603511253	 0.195932
H	-0.6738447206	 1.8348898117	-0.7228009629	 0.133342
H	-0.4853626338	 1.8097909407	 1.0305659002	 0.127971
H	 1.9945528284	 1.4256028	 1.9947325567	 0.104795
H	 3.195719967	 1.0898559365	 0.7290558956	 0.116407
H	 2.5571268956	 3.7956653936	 1.9928094275	 0.104668
H	 3.7989522235	 3.5480254293	 0.756320124	 0.103037
H	 0.9824512334	 4.3654052714	 0.117346494	 0.074176
H	 1.5681518352	 3.7726873924	-2.2655355614	 0.100671
H	 3.2367721333	 3.5016692172	-1.6896916623	 0.099597
