19
gdb 80889	2.50566	1.75018	1.47557	2.4149	73.57	-0.2469	0.0679	0.3148	981.9347	0.159359	-422.974722	-422.966954	-422.96601	-423.006372	31.63	
C	-0.1410101796	 1.5493216931	 0.0267341709	-0.443648
C	-0.0093001975	 0.0319895245	 0.0268582704	 0.018291
C	 1.0927217901	-0.6001221286	-0.8854401025	-0.100994
C	 2.1194998177	-0.2691284163	 0.2508051721	-0.306495
C	 0.8599935691	-0.5991809283	 1.1456202842	 0.375508
O	 0.689709876	-0.1476432124	 2.4498244746	-0.490409
C	 0.7477182236	-2.1202962269	 0.8350834046	-0.041288
O	-0.330928644	-2.5185195711	-0.0242886231	-0.251038
C	 0.9165502885	-2.1148465785	-0.6148024307	 0.042319
H	 0.8128857484	 2.0784701335	 0.092034646	 0.115284
H	-0.6432368993	 1.8813748651	-0.888188719	 0.114131
H	-0.7517962133	 1.8688428929	 0.876691719	 0.131608
H	-0.994463107	-0.421801219	-0.0785432959	 0.097749
H	 1.2417830656	-0.2736640132	-1.9133220033	 0.068094
H	 2.9938612203	-0.9218072534	 0.3414653306	 0.085923
H	 2.4264006126	 0.7756891165	 0.2960900117	 0.107193
H	 1.2859681514	-0.631495209	 3.0312536723	 0.280291
H	 1.1249880645	-2.8735163638	 1.5215320279	 0.094782
H	 1.4392723429	-2.8713460351	-1.1906321399	 0.102699
