18
gdb 92302	2.37833	1.95883	1.23922	4.9423	71.2	-0.2497	0.0376	0.2873	1019.9303	0.149382	-439.118723	-439.110896	-439.109952	-439.151646	29.357	
C	 0.0777504245	 1.6014169605	-0.1611882923	-0.401675
C	 0.0233892069	 0.092690971	-0.0302574086	 0.053464
C	 0.4795478656	-0.7890824556	-1.2329469635	-0.276455
C	 1.3464478471	-1.586121115	-0.2249097977	 0.010521
C	 2.8838852919	-1.6130426879	-0.3148997433	-0.10967
O	 3.3243735581	-0.5913957134	 0.5871166096	-0.238961
C	 2.2613643519	 0.0874287883	 1.1309350292	 0.457116
O	 2.3963638113	 1.0872051899	 1.7778358481	-0.380909
N	 1.0770621969	-0.5764600864	 0.8182688599	-0.176186
H	 1.0291547159	 1.9385620333	-0.5820407939	 0.130786
H	-0.7289854428	 1.9310134139	-0.824355187	 0.117139
H	-0.0467274981	 2.0855058876	 0.8101156968	 0.153241
H	-0.9589924514	-0.2136264367	 0.3433277472	 0.096243
H	-0.2960513112	-1.3446335429	-1.7631403916	 0.11251
H	 1.0787744007	-0.2256571869	-1.9552264711	 0.112834
H	 0.9348492306	-2.5688960063	 0.0223097611	 0.095239
H	 3.3029544588	-2.5686422426	 0.0119935043	 0.124997
H	 3.2596672634	-1.3887288407	-1.3194638672	 0.119764
