23
gdb 115925	3.47094	1.08261	0.91712	1.1498	85.41	-0.2421	0.0786	0.3208	1361.6445	0.20772	-388.285956	-388.27714	-388.276196	-388.319504	34.318	
C	 0.003849138	 1.3480704996	 0.1593903673	-0.240703
O	-0.0881686523	-0.0401288435	-0.0515838465	-0.248203
C	 0.6320747734	-0.5216404712	-1.1778226792	 0.15671
C	 2.1356684684	-0.6570960367	-0.9090510288	-0.233786
C	 2.8736914004	-1.0742389531	-2.190964734	-0.225042
C	 2.2570793148	-2.2865651438	-2.8681411514	-0.000766
C	 1.9651011231	-3.5504131992	-2.1030831498	-0.286574
C	 0.8225661752	-2.6718173442	-2.5623888743	-0.033103
C	 0.0112672024	-1.8742733858	-1.541235844	-0.240739
H	 1.0245508691	 1.6773891607	 0.4044243806	 0.104149
H	-0.3365111361	 1.9172326975	-0.7205410853	 0.100971
H	-0.6460510209	 1.5892023237	 1.0047321889	 0.124669
H	 0.493744798	 0.1786943193	-2.0209494952	 0.056152
H	 2.548022464	 0.2904325081	-0.5475256067	 0.093294
H	 2.2860157099	-1.3905328889	-0.1073095571	 0.102312
H	 2.8467772161	-0.2320715189	-2.8958895885	 0.095414
H	 3.9334000989	-1.257284764	-1.9738113096	 0.095676
H	 2.5789224743	-2.4278077426	-3.8963767375	 0.07776
H	 2.1227241535	-4.5008764613	-2.6015068684	 0.104322
H	 2.1796596123	-3.5710924865	-1.0387132469	 0.108398
H	 0.2451913552	-3.0546031387	-3.3978879443	 0.080211
H	-0.103154606	-2.4399226722	-0.608600563	 0.109017
H	-1.0009322418	-1.7020863982	-1.9191485464	 0.099863
