19
gdb 71478	4.04222	1.20012	1.10128	3.1908	81.56	-0.2419	-0.0207	0.2213	1154.9882	0.158557	-385.861238	-385.853119	-385.852175	-385.893685	31.545	
C	 0.1021029775	 1.545520596	 0.2143702253	-0.504155
C	 0.0554172528	 0.0476725835	 0.0779053497	 0.309351
C	-1.2925298654	-0.7386415952	 0.1719443418	-0.277099
C	-0.4613256917	-1.9111707021	 0.6806784838	-0.089022
C	 0.6556451206	-1.0183788431	 1.0924828818	-0.140555
C	 0.8473607322	-1.9003065637	-0.1528626697	 0.252783
C	 0.801386959	-0.6856234527	-1.0758488689	-0.347998
C	 1.7062192099	-3.0876307377	-0.2034297692	 0.032705
O	 1.7063162087	-3.9737690378	 0.6227966165	-0.278106
H	 1.1338078699	 1.9129936833	 0.23278375	 0.120234
H	-0.4074544298	 2.0256955876	-0.6295290095	 0.123091
H	-0.3907492739	 1.8785771092	 1.134091875	 0.120654
H	-1.9327511044	-0.3388691581	 0.9636884469	 0.104409
H	-1.8721786856	-0.8559180178	-0.7506121922	 0.093561
H	-0.7720358316	-2.8387461132	 1.1416978765	 0.113176
H	 1.2732892082	-0.9710797851	 1.9779145183	 0.107099
H	 0.2793057112	-0.7666718612	-2.0365358736	 0.093624
H	 1.8016052075	-0.2704231957	-1.2352095555	 0.100613
H	 2.3981628948	-3.1204455259	-1.0766569367	 0.065635
