23
gdb 69983	2.7864	1.64607	1.54044	0.167	87.41	-0.245	0.0864	0.3314	1027.7215	0.209742	-351.160955	-351.153587	-351.152643	-351.192013	32.02	
C	 0.0361825402	 1.5100140948	-0.0141498224	-0.487717
C	-0.0272002618	 0.0014104026	 0.033645335	 0.382014
C	-0.8792194264	-0.6835030292	 1.0760508558	-0.359681
C	 0.624806834	-0.8311018208	 1.1274586444	-0.071046
C	 1.3355737141	-1.9756848434	 0.3703515352	-0.015367
C	 0.3178365861	-2.9735451984	-0.2323302452	-0.217769
C	-0.3637872644	-2.1336286049	-1.3645931446	-0.224054
C	 0.3521136444	-0.7669928105	-1.2622004208	-0.06466
C	 1.7918800163	-1.2211413491	-0.9052113462	-0.207925
H	 0.977166745	 1.8583745353	-0.4568019424	 0.112449
H	-0.7829212178	 1.9280672064	-0.6123639641	 0.113328
H	-0.0361240115	 1.9410534127	 0.9900082689	 0.110511
H	-1.3193744972	-0.0344376818	 1.8281770678	 0.098957
H	-1.5099259101	-1.5275117176	 0.8252113877	 0.107839
H	 1.1582723016	-0.3614690097	 1.9484241297	 0.073711
H	 2.1211500766	-2.4542588752	 0.9580305005	 0.052418
H	 0.8423724465	-3.8393560637	-0.6473788198	 0.091179
H	-0.3899330669	-3.3519619656	 0.5093343842	 0.098326
H	-0.1788925397	-2.5777693754	-2.3473195729	 0.091062
H	-1.4473143232	-2.0516032116	-1.2485076605	 0.097585
H	 0.2474319803	-0.1517206815	-2.1584395099	 0.050596
H	 2.4622717571	-0.3845598985	-0.6871076817	 0.088623
H	 2.2560600469	-1.8640825747	-1.6626246487	 0.079621
