16
gdb 52344	12.28429	0.43627	0.42353	2.6829	90.88	-0.2511	-0.0208	0.2302	2404.076	0.121508	-400.689152	-400.679105	-400.678161	-400.726116	33.932	
N	-0.1313919401	 1.3231356419	 0.0097416384	-0.434039
C	-0.0517195881	 0.0646121497	 0.0024548998	 0.128594
O	-1.1763393228	-0.6800847218	 0.0090948635	-0.179304
C	-0.9963624799	-2.0936377435	-0.0001154979	-0.067974
C	-2.3971750001	-2.7148631048	 0.010060054	-0.384184
C	-2.349649939	-4.1673881393	 0.0019627139	 0.363096
C	-2.2893760446	-5.3757768368	-0.0050904346	-0.247683
C	-2.2235308279	-6.7350222676	-0.0129106308	 0.292879
C	-2.1637924615	-7.9409361745	-0.0198102028	-0.547515
H	 0.8011810224	 1.7309948674	 0.0031747731	 0.231891
H	 0.8707727701	-0.5327986298	-0.0092569238	 0.088551
H	-0.4483023043	-2.4082786848	-0.8968169601	 0.124571
H	-0.4312132767	-2.4176911614	 0.8825163356	 0.124566
H	-2.9341343453	-2.3548525928	 0.896004734	 0.156362
H	-2.950989042	-2.3456016891	-0.8615883252	 0.156367
H	-2.1130517701	-9.0014508327	-0.0258450772	 0.193821
