16
gdb 47108	2.64907	1.86929	1.30387	3.7064	63.88	-0.2412	0.0131	0.2544	951.4857	0.127262	-475.058977	-475.051789	-475.050845	-475.091348	26.802	
O	 0.0744748825	-0.0361027589	 0.0813507185	-0.371108
C	 0.0453583233	 1.1725222778	 0.1016421414	 0.379718
N	-1.0587725572	 1.9601929548	 0.2689516919	-0.309079
C	-0.843047373	 3.393431866	 0.1792167619	-0.194687
C	 0.6934316195	 3.5359091514	 0.2491168218	 0.083959
O	 1.1623986421	 3.8249064888	 1.561514665	-0.265181
C	 1.7877024583	 2.65696974	 2.068259085	 0.012225
O	 2.239187037	 1.9220422501	 0.9582607669	-0.231833
C	 1.2577752388	 2.126086532	-0.0401029761	-0.046715
H	-1.9745921718	 1.5415129417	 0.3216875881	 0.256431
H	-1.2309858146	 3.805349935	-0.7621401664	 0.111898
H	-1.3090113621	 3.9330700282	 1.0089685027	 0.131339
H	 1.054382512	 4.3181014004	-0.4227455621	 0.098194
H	 2.6487305557	 2.9413148848	 2.6792356676	 0.125598
H	 1.0708039222	 2.0695092351	 2.6663425464	 0.100863
H	 1.7288656572	 1.9959952427	-1.0159199026	 0.118378
