16
gdb 34759	5.10656	1.20234	1.10847	2.7093	72.64	-0.2575	0.026	0.2834	1065.9405	0.12671	-400.71569	-400.709112	-400.708167	-400.746737	26.137	
N	-0.0722643425	-1.1897952567	-0.1255106874	-0.33542
C	-0.0448320932	-0.0353055479	-0.0645553123	 0.277906
C	-0.0171605223	 1.4169079623	 0.0052407944	-0.179905
C	 0.0203195226	 2.0808733741	 1.4088903316	-0.0913
C	 1.5275773375	 1.6740218665	 1.5622309761	-0.069057
C	 2.2115283717	 2.826842545	 2.2816751577	-0.111853
O	 1.5608940796	 3.954604701	 1.6616685999	-0.279228
C	 0.6787912409	 3.3355951862	 0.7589043301	 0.137762
C	 1.3665837155	 2.1197200871	 0.06680826	-0.091298
H	-0.7352104867	 1.8407158779	-0.7027772298	 0.11797
H	-0.757405048	 2.0463955847	 2.1711762072	 0.095118
H	 1.7993432207	 0.6480584557	 1.8051485986	 0.106965
H	 2.0285813275	 2.836945333	 3.3623256606	 0.1142
H	 3.2919206023	 2.8733855638	 2.1028742784	 0.114199
H	 0.1008965049	 4.0709522371	 0.2004949256	 0.098825
H	 2.1316351493	 2.1297669601	-0.7088975907	 0.095118
