15
gdb 44992	3.86501	1.19537	1.02522	2.759	72.17	-0.2533	-0.0272	0.2261	1130.1358	0.110769	-420.604607	-420.596819	-420.595875	-420.637093	29.795	
O	 0.0134177526	 0.0397211257	-0.2938659663	-0.292252
C	-0.0068048474	 1.1938576248	 0.0343793219	 0.390717
C	-1.2782276453	 2.0351284283	 0.2565783152	-0.35567
C	-0.7848681815	 3.3060240222	 0.8995174095	-0.02536
O	-0.047897072	 3.0743654897	 2.1006597283	-0.291639
C	 0.702147846	 3.342931552	 0.8961338612	 0.236459
C	 1.2369223778	 2.0688247109	 0.2717417992	-0.410269
C	 1.4667858344	 4.5554253349	 0.8570386509	 0.196418
C	 2.1344142056	 5.5532768279	 0.8024086093	-0.347717
H	-1.7591393318	 2.2267454504	-0.7105189461	 0.138507
H	-1.9910443151	 1.4858172463	 0.877840567	 0.150808
H	-1.3716998677	 4.219845924	 0.8771670336	 0.114867
H	 1.9528195295	 1.5501985122	 0.9144977963	 0.153088
H	 1.7315091205	 2.2665692485	-0.6861270093	 0.144322
H	 2.7180698142	 6.4400112923	 0.7627561594	 0.197723
