14
gdb 17083	5.63145	1.5265	1.44972	1.6854	72.34	-0.2274	-0.0366	0.1908	870.3687	0.10733	-345.323522	-345.317176	-345.316232	-345.353864	25.217	
C	 0.0795005716	-1.1462443482	-0.0375845365	-0.373465
C	-0.0121084318	 0.056098634	-0.0100877424	 0.105532
C	-0.0552666032	 1.4572529057	 0.0192804752	 0.293504
C	-1.0676776934	 2.342094635	 0.0237460311	-0.219006
C	-0.3101122161	 3.6776815433	 0.0427010349	 0.027266
C	 0.7670883231	 3.445750491	-1.0620423531	-0.21951
C	 1.1662349113	 2.4236709935	 0.0411504532	-0.048194
O	 0.740416545	 3.4066236378	 1.0313899262	-0.278778
H	 0.1425339438	-2.2058925205	-0.0587941181	 0.189036
H	-2.1348577401	 2.1820182045	 0.0073340804	 0.122645
H	-0.849006452	 4.6115944719	 0.1908005221	 0.088881
H	 0.4513286702	 3.0749143702	-2.0389410082	 0.105926
H	 1.4738733166	 4.2749064336	-1.1394095357	 0.113604
H	 2.1650652851	 2.0168379883	 0.1861983708	 0.092557
