17
gdb 45822	2.45985	2.04199	1.19436	3.4381	74.62	-0.2128	0.0097	0.2225	1005.4215	0.139547	-418.043758	-418.036532	-418.035588	-418.075536	28.179	
O	 0.0890129876	 0.0664414802	 0.3039319504	-0.398701
C	 0.0447451461	 1.2380731481	-0.0174843514	 0.42168
N	-1.1639763871	 1.9443362284	-0.1162598368	-0.371852
C	-1.2065397828	 3.3220604642	 0.1254905356	 0.008058
C	-0.1218850944	 4.098242085	 0.0537073115	-0.158486
C	 1.1760681144	 3.4848983005	-0.3586231193	 0.009016
C	 2.4141662634	 3.4455937041	 0.5937156345	-0.255278
C	 2.4217953526	 1.8983899291	 0.4060486595	-0.168217
N	 1.1392526455	 2.0024720333	-0.3084239921	-0.128195
H	-1.9576523813	 1.3861238588	 0.1568026255	 0.256905
H	-2.1886738672	 3.7089835106	 0.3722426292	 0.118672
H	-0.1858985812	 5.1637371018	 0.2337675545	 0.099533
H	 1.4680770593	 3.8287382364	-1.3630330384	 0.092315
H	 3.3012323992	 3.9836382028	 0.2563028326	 0.108838
H	 2.1668662252	 3.7465169358	 1.6137029807	 0.115337
H	 3.2310171458	 1.5238848455	-0.2291367359	 0.117328
H	 2.3652954248	 1.2836760455	 1.3074484497	 0.133047
