20
gdb 92057	2.79311	1.4792	1.06866	2.8222	79.03	-0.2199	-0.0099	0.21	1156.6433	0.172138	-403.158643	-403.150374	-403.14943	-403.191466	32.593	
C	 0.0331623006	 1.5777514189	 0.0144758673	-0.409936
C	 0.0675370876	 0.0500086698	-0.0440046137	-0.042287
N	 1.0168752162	-0.4176433274	-1.0532684551	-0.310844
C	 1.0496070994	-1.8503353705	-1.169671686	 0.00278
C	 2.3888111661	-2.5297605553	-1.0283855509	-0.304454
C	 1.4262740694	-2.5098433215	 0.1353523252	-0.023895
C	 1.5993776214	-1.5492196161	 1.3057410651	-0.331957
C	 0.4611024727	-0.5325791963	 1.3276435766	 0.410389
O	-0.1126437458	-0.2003433141	 2.3374035082	-0.322272
H	 1.0409843049	 1.9777984771	 0.1620864429	 0.124304
H	-0.3680162231	 1.9935190049	-0.9157434154	 0.108854
H	-0.600560136	 1.8987776963	 0.8431328544	 0.144807
H	-0.9627958634	-0.3113735129	-0.2287072089	 0.081986
H	 0.8706490523	 0.0411884378	-1.9441270049	 0.221258
H	 0.2898252154	-2.3357392826	-1.785672325	 0.074836
H	 2.5413721406	-3.4732093762	-1.541041656	 0.110658
H	 3.2593914406	-1.885259208	-0.9767218985	 0.117473
H	 0.9273333734	-3.4427306296	 0.374286448	 0.097126
H	 1.6295729403	-2.0597829711	 2.2704654245	 0.120028
H	 2.5327633372	-0.9836985233	 1.1989147823	 0.131145
