18
gdb 124690	3.8149	0.94448	0.81434	3.0203	73.09	-0.2561	-0.0099	0.2462	1385.1571	0.147319	-439.074621	-439.065693	-439.064749	-439.10918	32.188	
C	-0.0382266994	 1.6610291439	 0.3911430003	-0.405508
C	-0.0467422538	 0.163132601	 0.0616958006	-0.100547
C	 0.8473854163	-0.6222783938	 1.0344845027	-0.070675
O	 2.1749732921	-0.1465413925	 0.8890097814	-0.419191
C	-1.4304605587	-0.4242654444	 0.045961958	 0.141861
C	-2.5987054217	 0.0753408413	 0.5337187988	-0.013317
O	-3.6140849614	-0.777757327	 0.3267137385	-0.168157
N	-3.1283288814	-1.9040075739	-0.3269481986	-0.133435
C	-1.8480519426	-1.6830786917	-0.4845434757	-0.04976
H	 0.9864799873	 2.0362418975	 0.3899197307	 0.14002
H	-0.6223334185	 2.2292368767	-0.3385419821	 0.117875
H	-0.4612366925	 1.846261236	 1.3855182069	 0.111585
H	 0.3956168119	 0.0285545007	-0.9345342113	 0.097555
H	 0.4742334219	-0.4792378537	 2.0615875091	 0.090986
H	 0.7829399862	-1.6980851612	 0.8088037196	 0.089465
H	 2.7289164137	-0.5873982781	 1.5393158093	 0.290554
H	-2.8595569272	 0.997153465	 1.0288720862	 0.150396
H	-1.2469683021	-2.430995546	-0.9839132145	 0.130292
