27
gdb 118116	3.03102	0.74021	0.66989	0.1114	97.	-0.2609	0.0863	0.3472	1874.5965	0.250477	-353.559971	-353.548527	-353.547583	-353.596998	42.192	
C	 2.5051581102	-2.1894711266	-0.8892982883	-0.378272
C	 1.2894668868	-2.7971014675	-1.5957595791	-0.17712
C	 0.0252909112	-2.7709138427	-0.7281804713	-0.152957
C	-1.254116196	-3.2931359192	-1.4123226027	 0.003535
C	-1.1633972605	-4.7867910123	-1.7645626142	-0.396039
C	-2.4630897488	-3.0306419321	-0.5279290043	 0.022795
C	-3.1234248546	-1.6732519828	-0.4715836114	-0.311108
C	-3.8706199843	-2.849793748	-1.0560037935	-0.005896
C	-4.2218213611	-2.89377142	-2.5280365573	-0.407391
H	 3.3945209485	-2.2169395904	-1.5269277208	 0.108695
H	 2.3232264411	-1.1441028271	-0.6155931836	 0.112322
H	 2.7398027094	-2.7340222148	 0.0322651909	 0.112592
H	 1.0983364744	-2.2500896301	-2.5291167318	 0.090984
H	 1.5237367882	-3.8269954652	-1.8901240033	 0.097261
H	 0.202394534	-3.3516149074	 0.1891183168	 0.085202
H	-0.1558761134	-1.7388852987	-0.4003096856	 0.09246
H	-1.3785427541	-2.7291318131	-2.3467925514	 0.063762
H	-1.0099922663	-5.3889939029	-0.8605977454	 0.108686
H	-2.0855050971	-5.1341584524	-2.2401347065	 0.115055
H	-0.3363020055	-4.9981898335	-2.4484522121	 0.111263
H	-2.4048814225	-3.55497557	 0.4251668077	 0.072625
H	-3.4313521101	-1.2708878075	 0.4876270223	 0.104364
H	-2.7682786845	-0.9208249646	-1.1708310473	 0.10338
H	-4.646851813	-3.2656810819	-0.4177117848	 0.078014
H	-5.1466245847	-2.3381578677	-2.720578928	 0.114005
H	-3.4406047236	-2.4474730363	-3.1499737183	 0.116748
H	-4.3766697638	-3.921411015	-2.8761169968	 0.115035
