21
gdb 65067	2.53295	1.41731	1.06779	2.8249	82.87	-0.2484	-0.0227	0.2257	1197.2866	0.181089	-387.075178	-387.065979	-387.065035	-387.10928	35.503	
C	 0.0293496532	 1.527795153	-0.0251814641	-0.482338
C	 0.0331998459	 0.0077889689	-0.0119419308	 0.266487
C	 1.1405386888	-0.6483642688	-0.8112360707	-0.305911
C	 1.2078549014	-0.6350001543	 0.6970409979	-0.305903
C	-1.320405855	-0.6781720236	 0.0545920854	 0.192809
C	-2.4771487606	-0.0581912012	 0.8452910845	-0.286781
C	-2.5434477589	-0.0715250085	-0.6410527301	-0.286778
C	-1.3597747065	-2.1720582395	 0.0696398809	 0.07738
O	-2.3788305275	-2.8227709066	 0.121260098	-0.280655
H	 1.0561457726	 1.9015198299	-0.0746602545	 0.118661
H	-0.5026807934	 1.9322000739	-0.8924259824	 0.122099
H	-0.4229811585	 1.9477925355	 0.8790965305	 0.122106
H	 0.9416072684	-1.5909623021	-1.3099590947	 0.115754
H	 1.8163798405	-0.0020184463	-1.3613456016	 0.111859
H	 1.9295234627	 0.0203590274	 1.1733074798	 0.111864
H	 1.0547236758	-1.5684961462	 1.2280061109	 0.11575
H	-3.1028131456	-0.7618130954	 1.3817660548	 0.13756
H	-2.2884958304	 0.880248083	 1.3514668705	 0.119164
H	-2.4013985662	 0.8575239904	-1.1787932481	 0.119173
H	-3.2137822844	-0.7841928916	-1.1069932995	 0.137556
H	-0.3802552524	-2.6903310681	 0.030108783	 0.080143
