12
gdb 20590	3.484	1.90092	1.23936	5.1413	60.23	-0.2684	-0.065	0.2034	890.9633	0.081791	-414.65301	-414.645679	-414.644735	-414.684968	25.132	
C	 0.0491210594	 1.5182368867	 0.0560913187	-0.493008
C	-0.0281304287	 0.0333871569	 0.0879761089	 0.371055
C	-1.0848678007	-0.8449333782	-0.0229278358	 0.06149
C	-2.5093043701	-0.5801250895	-0.2133241359	 0.084355
O	-3.3663194127	-1.4254838521	-0.2995238284	-0.256373
N	-0.5451358014	-2.1157493597	 0.0821812254	-0.117969
N	 0.6791669011	-2.0914777861	 0.2386726662	 0.004886
O	 1.0858628525	-0.6447833914	 0.2501068361	-0.227772
H	 0.7017362002	 1.8439188976	-0.7596521492	 0.17153
H	-0.9380525333	 1.9604227381	-0.0830348829	 0.156103
H	 0.4770051292	 1.8932083683	 0.9908346645	 0.171531
H	-2.7552143355	 0.5031488294	-0.2754773677	 0.074173
