18
gdb 92863	2.90953	1.62406	1.21888	2.9063	71.94	-0.2497	0.0227	0.2723	1032.3941	0.150602	-439.104016	-439.096663	-439.095719	-439.135743	29.027	
O	 0.1944863763	 1.4437057897	 0.0136314369	-0.431813
C	 0.0713659384	 0.0324087462	-0.0191258692	 0.084441
C	 0.5138028682	-0.621342544	 1.3292862157	-0.197604
N	-0.6816650409	-0.6126653097	 2.206578794	-0.326825
C	-1.6653229989	-0.5258723926	 1.409645303	 0.42685
O	-2.9628722734	-0.3584535587	 1.7110745107	-0.253934
C	-3.6627604219	-0.0140095788	 0.4853093422	-0.08922
C	-2.580765966	 0.4039624747	-0.5395994264	-0.27239
C	-1.3974531106	-0.445649551	-0.0723126576	-0.121677
H	-0.0957323331	 1.7449455941	 0.882676012	 0.290591
H	 0.6650585254	-0.2991887128	-0.8741170843	 0.087482
H	 0.8735769179	-1.6480928626	 1.1777951487	 0.107291
H	 1.3295441937	-0.0538749265	 1.78855319	 0.113366
H	-4.2218621468	-0.8955144518	 0.1506490913	 0.118306
H	-4.3721895403	 0.7794320512	 0.7291498324	 0.127706
H	-2.9015961571	 0.2169151965	-1.5660934481	 0.113558
H	-2.3365792208	 1.4654131408	-0.4413755681	 0.125533
H	-1.4370601999	-1.4531678247	-0.5081064431	 0.098339
