21
gdb 90083	3.00826	1.55676	1.39367	1.5954	82.25	-0.2509	0.0719	0.3229	1024.2098	0.185066	-387.037867	-387.030471	-387.029527	-387.069197	31.211	
O	 0.4892937899	 1.1764288169	-0.4952601339	-0.427454
C	 0.1094556813	-0.1125514561	-0.0760494679	 0.085533
C	 0.2588206166	-0.4153519091	 1.4710830863	-0.402447
C	-1.2577479832	-0.1526405752	 1.5961807379	 0.338846
C	-2.6104156964	-0.6475725632	 2.1682393986	-0.32055
C	-3.1419829857	 0.5617756846	 1.295171322	-0.011076
C	-1.8446687919	 1.283734244	 1.7332918515	-0.264847
C	-2.7780477521	 0.2333597855	-0.1892857506	-0.278978
C	-1.4196759386	-0.4516253848	 0.1013698096	 0.015592
H	 0.2023584329	 1.8143780391	 0.1639911611	 0.282379
H	 0.6428664304	-0.7964724581	-0.7405854022	 0.085702
H	 0.5398055994	-1.4575579204	 1.6469664226	 0.108316
H	 0.9389150023	 0.2334291585	 2.0314951142	 0.097173
H	-2.9224578239	-1.6629502546	 1.9068279261	 0.090469
H	-2.7750637084	-0.4601042921	 3.2327426835	 0.0953
H	-4.1249125156	 0.9929873405	 1.4888626057	 0.063511
H	-1.8612602135	 1.6200230728	 2.7733780439	 0.096104
H	-1.4874390502	 2.0943902561	 1.0893382589	 0.076061
H	-3.4900148839	-0.4342454781	-0.6820427545	 0.093893
H	-2.7076812675	 1.1493171961	-0.7843542005	 0.106184
H	-1.500671932	-1.5336303124	-0.0551341322	 0.070286
