19
gdb 63556	2.59431	1.43578	1.13133	4.2958	76.29	-0.2664	0.0089	0.2753	1141.6637	0.158094	-423.049489	-423.040571	-423.039627	-423.08279	33.493	
C	-0.0540774763	 1.5176103867	-0.0366657103	-0.451908
C	 0.0003108145	 0.0017085781	-0.0325594696	 0.271144
C	-1.2253859141	-0.6879784144	-0.6025669903	-0.462605
C	 1.3416112532	-0.6540644994	-0.2175985297	-0.37975
C	 0.6932770559	-0.6577887545	 1.1447943298	 0.078779
C	 1.1580700635	-0.1064640946	 2.4860049521	-0.156426
O	 0.663425009	-1.3268953247	 3.1329942482	-0.254554
C	 0.245864707	-1.8547402844	 1.9284308557	 0.441821
O	-0.2733776396	-2.9087078365	 1.7338121777	-0.348526
H	 0.8541761005	 1.960705157	 0.383613316	 0.115472
H	-0.1639965313	 1.892296084	-1.0604550591	 0.126884
H	-0.9085706189	 1.8836900585	 0.5433355745	 0.124513
H	-1.3399589533	-0.4437662379	-1.664693824	 0.117033
H	-1.1584419346	-1.7733650381	-0.4993016349	 0.150914
H	-2.1334391269	-0.3598413711	-0.0847321821	 0.121315
H	 1.3890336788	-1.6070960783	-0.7347500929	 0.135285
H	 2.2148005568	-0.021699059	-0.345031798	 0.120063
H	 2.2365010019	-0.0048337592	 2.6296517873	 0.125422
H	 0.6321252138	 0.7717703478	 2.8678723896	 0.125124
