17
gdb 43644	3.28279	1.28549	1.09076	4.5978	73.94	-0.2697	-0.0435	0.2261	1130.2381	0.136989	-421.861166	-421.853585	-421.852641	-421.893741	28.913	
O	-0.2396838093	 0.0275688463	 0.227538427	-0.343483
C	-0.0753637472	 1.2079681185	 0.1131815161	 0.425755
O	-1.1100319967	 2.112084195	 0.2257812533	-0.234993
C	-0.6273804106	 3.4473660618	 0.0493408074	 0.028362
C	 0.8499472784	 3.2780633838	-0.1889399922	-0.067917
C	 1.1590745669	 1.9841861785	-0.1553582892	-0.234824
C	-1.3608456734	 4.1551433903	-1.0779479211	-0.004889
C	-1.7628762377	 3.419372379	-2.3276320025	-0.265612
C	-2.8151961869	 3.8720851359	-1.3437021306	-0.268729
H	-0.8060817732	 3.9895650404	 0.9899560934	 0.112169
H	 1.5116530114	 4.1164293858	-0.3648635655	 0.130285
H	 2.1174119039	 1.505779342	-0.2924236711	 0.13577
H	-1.0321206406	 5.1843063217	-1.1969373993	 0.090001
H	-1.6761476352	 3.9401166838	-3.2744556553	 0.113812
H	-1.557916941	 2.3562860563	-2.3767915802	 0.132627
H	-3.2888695324	 3.1048002197	-0.7429664875	 0.137813
H	-3.4557821862	 4.7046761612	-1.6118315129	 0.113853
