15
gdb 47712	2.38014	1.69949	1.04096	5.1055	63.59	-0.2684	0.0051	0.2735	1075.9899	0.115526	-491.161798	-491.154085	-491.153141	-491.194814	28.098	
O	-0.008211126	-0.1237083714	-0.0115164294	-0.388661
C	-0.065935231	 1.0893848763	 0.0262115055	 0.451913
N	-1.2417133578	 1.7601910046	-0.1335437335	-0.34018
C	-1.5305003525	 3.1798909688	-0.110204324	-0.16175
C	-0.5438264298	 3.9562607918	 0.7396789409	-0.090965
O	 0.7137905485	 4.1201633311	 0.083475506	-0.229103
C	 1.5961618713	 3.1025269147	 0.0295674305	 0.466112
O	 2.7576267043	 3.3107962089	-0.191673917	-0.358171
N	 1.1251887297	 1.8082314653	 0.268178158	-0.429192
H	-1.9980849647	 1.1267162888	-0.3391771391	 0.264362
H	-1.5375602787	 3.6147889823	-1.1195930249	 0.132606
H	-2.5326985126	 3.3130036455	 0.3124048952	 0.127177
H	-0.9112622058	 4.9731449207	 0.8898133637	 0.139578
H	-0.4063092734	 3.4816831951	 1.7175468134	 0.136494
H	 1.8968318785	 1.1543615475	 0.2891351848	 0.279781
