20
gdb 74433	3.00939	1.57041	1.28149	1.7149	83.87	-0.2072	0.0134	0.2206	1075.9955	0.171378	-365.988539	-365.980548	-365.979604	-366.020437	32.169	
C	 0.0797629332	 1.4868192085	 0.077704109	-0.503264
C	-0.0111862743	-0.0006909847	-0.0228769915	 0.344804
C	-0.1111083033	-0.7768561476	-1.1053709725	-0.25078
C	-0.0376511106	-2.2269619161	-0.6857123908	 0.298056
C	-0.7246926815	-3.2518235505	-1.5558293187	-0.482184
C	 1.4292957363	-2.5110119424	-0.2013206128	-0.277168
C	 0.9486985775	-2.0927913509	 1.1748236089	-0.047415
C	 0.0227352441	-0.9026614746	 1.1675471271	-0.131792
N	-0.500252142	-2.2322010483	 0.7924303543	-0.165481
H	 1.0322945857	 1.7977357619	 0.5250585885	 0.130823
H	-0.0037398825	 1.9596802935	-0.9041591694	 0.126892
H	-0.7129962806	 1.8905270428	 0.720154749	 0.129317
H	-0.0937302325	-0.4522368455	-2.1393953494	 0.093087
H	-0.272739008	-3.2788670769	-2.5536980871	 0.113381
H	-0.6455976185	-4.2504108385	-1.1161126964	 0.120872
H	-1.7871220075	-3.0121757013	-1.6665189518	 0.125478
H	 1.6418834905	-3.5834104993	-0.2137070283	 0.108317
H	 2.2496465308	-1.9666753695	-0.678785731	 0.093902
H	 1.3288814667	-2.4862620229	 2.1135889783	 0.089487
H	-0.2996435734	-0.5353046976	 2.1388088146	 0.08367
