12
gdb 24754	3.61817	1.22825	0.91697	4.352	68.25	-0.2684	-0.0945	0.1739	1141.9047	0.078264	-435.532315	-435.525028	-435.524084	-435.564825	25.852	
O	 0.0517495231	-0.062625432	 0.0025533847	-0.294196
C	-0.0454455286	 1.144536054	 0.0064464157	 0.228639
C	 1.1737457744	 1.9887322129	 0.0004404035	 0.221704
N	 2.1203363352	 2.6525357089	-0.0042041803	-0.324606
C	-1.2993853788	 1.8826479491	 0.0170027424	 0.149023
C	-1.4631973111	 3.244531587	 0.0218215157	-0.069768
O	-2.7666321723	 3.557051791	 0.0315045596	-0.136809
C	-3.4693550984	 2.3784954005	 0.0331107778	 0.02026
C	-2.6258059025	 1.322661213	 0.024569722	-0.290332
H	-0.7654607106	 4.066461197	 0.0192888781	 0.184643
H	-4.5411889328	 2.4817490141	 0.0406696923	 0.160462
H	-2.8764892776	 0.2748977345	 0.0234742185	 0.15098
