9
gdb 21441	4.10845	2.15052	1.43242	1.9581	50.36	-0.3061	-0.1318	0.1744	752.6829	0.046446	-466.615089	-466.60857	-466.607625	-466.646789	22.292	
N	-0.077936304	 1.2478782019	-0.432032422	-0.501616
C	 0.009693994	 0.1388314904	 0.1352567166	 0.507072
O	 1.1402197606	-0.4436745157	 0.5884395212	-0.277244
N	 1.1678910184	-1.9402353278	 0.7531609293	 0.085278
N	 0.1070784154	-2.5122713429	 0.8398618302	-0.110909
C	-1.1700609617	-1.8108319202	 0.8532900726	 0.510494
O	-2.1495537865	-2.3561181748	 1.2354351691	-0.271619
O	-1.1619120433	-0.5526213933	 0.3789050264	-0.200644
H	 0.8387702972	 1.6699664024	-0.5636141133	 0.259189
