17
gdb 49325	2.44891	1.53459	1.0281	5.3237	77.96	-0.2411	-0.0217	0.2194	1152.0022	0.135579	-418.009221	-418.000887	-417.999943	-418.042447	30.961	
N	 0.0576655566	 1.2309279408	 0.0049619817	-0.418642
C	-0.0292487405	-0.03572202	 0.0012554324	 0.06888
N	-1.2364064074	-0.7065211142	 0.0077266482	-0.14307
C	-2.595637554	-0.3314641604	 0.019700491	 0.4416
O	-3.1430939895	 0.7284254544	 0.0271533448	-0.320763
C	-3.0307684198	-1.8143100884	 0.0189537826	-0.487285
C	-1.533269722	-2.138757673	 0.0061993328	 0.398388
C	-0.7950513001	-3.1841517471	-0.7642667007	-0.326279
C	-0.7830235171	-3.188355819	 0.7591290055	-0.326293
H	 1.0367680992	 1.5117569487	-0.0011168373	 0.230444
H	 0.8172078932	-0.7356977647	-0.0072264113	 0.094121
H	-3.575032015	-2.1154515299	 0.916300159	 0.140847
H	-3.5892770943	-2.110508079	-0.8712542342	 0.14084
H	-1.3725085095	-3.9434321655	-1.2810352297	 0.128691
H	 0.1193295186	-2.8961079735	-1.2730064754	 0.124916
H	 0.1392938263	-2.9031500686	 1.254976463	 0.124912
H	-1.3523197846	-3.9504806907	 1.2807456176	 0.128692
