23
gdb 122223	2.64702	0.95218	0.79691	2.8613	83.54	-0.2469	0.0753	0.3222	1560.1907	0.204159	-425.406459	-425.395931	-425.394987	-425.442723	38.241	
C	-0.2398959323	 1.4639958564	 0.1232504129	-0.390953
C	 0.1000736064	-0.0080193452	-0.0325468094	-0.028644
O	 0.6200064819	-0.4889406903	 1.1941714299	-0.255766
C	 0.9667998759	-1.8685503137	 1.1651637941	-0.136395
C	 1.5967920854	-2.2483995673	 2.4833563083	 0.317621
C	 2.8506349736	-1.4654466675	 2.83566511	-0.122261
O	 2.5848489121	-0.124372069	 3.2015162676	-0.430118
C	 0.6883265266	-2.6645746445	 3.6125308264	-0.282339
C	 1.5133526007	-3.7003200871	 2.8916026283	-0.324628
H	 0.654098837	 2.0436678114	 0.3713852168	 0.129922
H	-0.6574540947	 1.8573822952	-0.80825027	 0.119377
H	-0.9744453454	 1.606320831	 0.9207706213	 0.131472
H	-0.7974890133	-0.5866441308	-0.3060974596	 0.091493
H	 0.837405663	-0.1555534349	-0.8389482044	 0.091547
H	 0.0683964537	-2.4771455873	 0.9720330273	 0.085515
H	 1.6727103546	-2.0518193667	 0.3367790661	 0.090126
H	 3.3487766377	-1.9304310534	 3.6939641072	 0.093947
H	 3.5561750357	-1.5162392999	 1.9870005418	 0.074614
H	 1.9506650733	 0.2063866876	 2.5519612676	 0.286843
H	 0.9790441307	-2.3791189195	 4.6172452455	 0.123483
H	-0.3823210899	-2.6522977676	 3.4382801459	 0.111299
H	 1.0046707205	-4.3929061616	 2.2286114346	 0.108934
H	 2.3675229166	-4.1294195855	 3.4044191119	 0.11491
