12
gdb 21780	4.23752	2.20259	1.4766	6.2901	56.41	-0.2523	-0.0054	0.2468	773.9746	0.08523	-414.638898	-414.632727	-414.631783	-414.670335	22.081	
O	-0.2133522717	-0.1086217905	-0.038851851	-0.389399
C	-0.1081899107	 1.0761342551	 0.0753104948	 0.510954
O	-1.1055062482	 2.0030417669	-0.2130057116	-0.252124
N	-0.6812650717	 3.3648441782	 0.0240295535	-0.246411
C	 0.5238325682	 3.1825308045	 0.4337355419	 0.437534
C	 1.8493417334	 3.7318595625	 0.9326596704	-0.365264
C	 2.2905011142	 2.2126530081	 0.9878164773	-0.168823
N	 0.9304064823	 1.8933581833	 0.4920965943	-0.154597
H	 2.3954879605	 4.3459022677	 0.2160973105	 0.160031
H	 1.8077417981	 4.2363123534	 1.8983619726	 0.160026
H	 3.0827536637	 1.9267954869	 0.294466523	 0.154042
H	 2.492769762	 1.816752404	 1.9840389044	 0.154031
