16
gdb 81638	4.79666	0.91746	0.84146	2.8423	67.31	-0.2629	0.0153	0.2782	1322.641	0.123926	-474.96419	-474.956233	-474.955288	-474.99781	29.713	
O	-0.071305326	 1.5408846057	-0.1404642656	-0.444426
C	 0.0480880989	 0.1629123863	-0.0954953355	 0.186812
C	 0.0979222166	-0.530710754	 1.3024565148	-0.04445
O	-1.3279247077	-0.1411475768	 1.4691550324	-0.327062
C	-1.2487859755	-0.6870381569	 0.0877315676	-0.044462
C	-0.4123828709	-1.8559528739	 0.6748093967	 0.082975
N	 0.4205142339	-2.6921672901	-0.1410045907	-0.321102
C	 0.4540179256	-4.0527431005	-0.0026359548	 0.156477
O	-0.1923960112	-4.6907721527	 0.7964034086	-0.309277
H	-0.7168565362	 1.762809348	 0.5466715658	 0.292483
H	 0.7711068154	-0.1362843523	-0.8585669769	 0.076609
H	 0.7652068465	-0.3650982706	 2.1485384038	 0.106167
H	-2.1683809762	-0.7056278483	-0.4975466129	 0.106166
H	-0.967577695	-2.4797209559	 1.3706149134	 0.146061
H	 1.0108192764	-2.2848533283	-0.8479057733	 0.255954
H	 1.1571658055	-4.5156020796	-0.7226058032	 0.081075
