17
gdb 93443	3.00799	1.39888	0.98803	3.195	72.24	-0.2547	-0.0106	0.2441	1161.6628	0.13774	-455.210996	-455.202805	-455.201861	-455.243986	30.647	
C	-0.3017556349	 1.4845161851	 0.0145208999	-0.401146
C	 0.062479221	-0.0003444399	-0.0086852839	-0.139933
C	 0.889839435	-0.3911721622	-1.2291142211	-0.099517
O	 1.2332798841	-1.7844869122	-1.2053024244	-0.247623
C	 1.8145762574	-2.2678975217	-0.0819392875	 0.454767
N	 2.4437708	-3.3637449546	-0.0180213299	-0.558316
N	 1.6688962196	-1.4852145277	 1.0630697707	-0.370054
C	 0.821420969	-0.4093678322	 1.2490581168	 0.43505
O	 0.7152658481	 0.1361904831	 2.3243895589	-0.356672
H	 0.5945115343	 2.1106440668	-0.0414691654	 0.128247
H	-0.9521153778	 1.7381847654	-0.8274052594	 0.117944
H	-0.8153284313	 1.7261055734	 0.9461136737	 0.15356
H	-0.8569486362	-0.6027494993	-0.021288438	 0.123636
H	 0.3314610743	-0.2496472742	-2.1562605426	 0.131589
H	 1.8077684983	 0.2097187089	-1.2825532478	 0.121951
H	 2.498133858	-3.7908711324	-0.9404604111	 0.230657
H	 2.145293051	-1.8373163862	 1.8825274611	 0.275859
