20
gdb 88733	3.61134	0.92691	0.79967	4.3147	82.42	-0.2307	-0.0097	0.221	1458.4846	0.169118	-403.113937	-403.104589	-403.103645	-403.14882	34.262	
C	-0.187697987	 1.5421768023	-0.1855244761	-0.413054
C	-0.0202983092	 0.0516874444	 0.0113214244	 0.028363
C	 1.2948290406	-0.6189578485	-0.2051030363	-0.255425
N	 0.7228863848	-0.529547458	 1.1360870335	-0.091021
C	 1.3631051864	 0.3257592371	 2.09100375	 0.053072
C	 0.7423921272	 0.4316376481	 3.4406064721	-0.319176
C	 2.0513268683	-0.3392701799	 3.2822575982	-0.130555
C	 2.0265297911	-1.8130407612	 3.437324899	 0.166448
O	 2.9320646725	-2.4520515779	 3.917937009	-0.277352
H	 0.7459690983	 2.0917727167	-0.0427744355	 0.120759
H	-0.5348196633	 1.742523159	-1.2044402308	 0.126992
H	-0.9328700662	 1.9512885282	 0.5052383139	 0.128121
H	-0.9155654209	-0.5226554634	-0.2231430599	 0.095232
H	 1.3586763782	-1.6166801525	-0.631113667	 0.12007
H	 2.1415109509	 0.0267111305	-0.4368235876	 0.110399
H	 1.8872108685	 1.2068477071	 1.7175479836	 0.08802
H	 0.7794064533	 1.3737303892	 3.9746402848	 0.126295
H	-0.149105741	-0.1624839169	 3.6107474583	 0.132117
H	 2.9599823854	 0.1270813523	 3.6466056774	 0.105192
H	 1.095959492	-2.3008632467	 3.0799651289	 0.085502
