15
gdb 48650	2.08107	1.78171	1.17381	5.6187	72.83	-0.2604	-0.0604	0.2	1044.0294	0.112581	-416.785105	-416.777154	-416.776209	-416.817858	29.21	
O	-0.854055904	 1.2687419746	 0.0206589137	-0.255856
C	 0.2726466801	 0.8656040184	-0.1319647155	 0.106519
C	 1.4730947864	 1.7331022959	-0.0547977793	 0.188496
C	 1.4278772763	 3.1387016302	 0.4725368642	-0.359895
C	 1.7971249212	 2.9613224219	-0.9749396663	 0.116416
C	 3.21023185	 2.3688159144	-1.0986489862	-0.22198
N	 2.8177308755	 1.2032992907	-0.2556294392	-0.359511
C	 1.0329688003	 3.4926953949	-2.0517473603	 0.233173
N	 0.4438619594	 3.9361924354	-2.9439253709	-0.337585
H	 0.5055219693	-0.1941909931	-0.3664776889	 0.097119
H	 0.4251219318	 3.5151867801	 0.6428046935	 0.170173
H	 2.1889664795	 3.4699448588	 1.1745860626	 0.126062
H	 3.4620323286	 2.0599746162	-2.1157710719	 0.143827
H	 4.0096524195	 3.0028988307	-0.7003663755	 0.121736
H	 3.3518642461	 1.1098462809	 0.6043833599	 0.231305
