16
gdb 28602	5.31062	0.93319	0.83673	2.5752	74.03	-0.1811	0.0405	0.2216	1327.3248	0.124537	-437.889868	-437.881639	-437.880695	-437.923238	30.556	
O	 0.3019057463	 1.3311663667	 0.1928546567	-0.437088
C	 0.1253461777	 0.0010255548	-0.0122484655	 0.373977
C	-0.0481097419	-0.7718262573	-1.135537482	-0.296994
C	-0.177702915	-2.1204052432	-0.6809976292	-0.212636
C	-0.0812837792	-2.122278473	 0.6884575275	 0.303477
N	 0.111192652	-0.8061919293	 1.0873637129	-0.368992
C	-0.1545522345	-3.2193591862	 1.6679986283	-0.044675
C	-1.2760011935	-4.1809887542	 1.7170878502	-0.172038
O	-0.017091277	-4.5428248157	 1.1493732135	-0.225293
H	 0.280582646	 1.7731116491	-0.6610673349	 0.308383
H	-0.0646416104	-0.4209427491	-2.1557646157	 0.0877
H	-0.3029234037	-3.0000380292	-1.2924303499	 0.106996
H	 0.1994501706	-0.4730008424	 2.0319903009	 0.263374
H	 0.3860031632	-3.046491876	 2.6023944035	 0.085027
H	-1.52798129	-4.6809389501	 2.6525226367	 0.11111
H	-2.0916750507	-4.0639696248	 1.0058765469	 0.117673
