21
gdb 81090	1.91062	1.57545	1.17099	2.9418	84.6	-0.2414	-0.0264	0.2149	1192.1963	0.181512	-387.052559	-387.043363	-387.042419	-387.086525	34.606	
C	-0.1385261828	 1.6575506249	 0.1045861708	-0.44307
C	 0.0009810468	 0.1420635173	 0.0988444467	 0.004865
C	 1.1423651635	-0.5847458186	-0.6861770963	-0.081211
C	 2.1408330237	-0.1261269173	 0.4188634274	-0.276916
C	 0.8767650997	-0.6097805678	 1.1768511725	 0.239505
C	 0.6515944494	-0.6402071226	 2.6462697483	 0.021265
O	 1.4511018192	-0.2681644612	 3.4708792361	-0.248741
C	 0.8782173369	-1.8501735896	 0.1955453342	 0.013515
C	-0.3214664826	-2.7641852171	-0.0057092025	-0.452103
H	 0.8017925755	 2.1887007564	 0.2653856995	 0.126505
H	-0.5505564346	 1.9959683637	-0.8528748351	 0.120756
H	-0.835917152	 1.9756371896	 0.8872401561	 0.122227
H	-0.986670208	-0.2995232991	-0.0481405209	 0.068501
H	 1.3068301768	-0.5660553102	-1.7653855957	 0.070419
H	 3.0371415248	-0.7372090245	 0.5475085553	 0.099358
H	 2.3828840303	 0.9334768368	 0.4775082374	 0.102922
H	-0.3423451879	-1.0427689759	 2.955355838	 0.065154
H	 1.7772871869	-2.4614534616	 0.3312613735	 0.075446
H	-1.2700055364	-2.2389681457	-0.1382325223	 0.123674
H	-0.1646326044	-3.3858822555	-0.8943173264	 0.124384
H	-0.4340194648	-3.4427986521	 0.8466673234	 0.123542
