20
gdb 85739	3.2754	1.21362	1.04036	1.8303	84.27	-0.2325	0.0449	0.2774	1218.0359	0.171253	-365.963972	-365.955437	-365.954492	-365.996858	33.544	
C	 0.0084102973	 1.5736091202	-0.0185717929	-0.405533
C	 0.0646087919	 0.0446489212	 0.005935678	 0.017833
C	 0.8189434902	-0.5862300147	-1.182830918	-0.260187
C	 1.3430274566	-1.9377885049	-0.6174528479	-0.157763
C	 2.5620272407	-2.4101636312	-1.2613515589	 0.346117
C	 3.5679993341	-2.7763077888	-1.807649444	-0.455244
N	 1.5014635448	-1.7804244867	 0.8551527022	-0.101009
C	 2.2583849053	-0.5757480398	 1.2318189011	-0.250554
C	 0.7728884774	-0.5491108191	 1.2190063322	-0.01971
H	 1.0160455965	 2.0028024062	-0.0181539443	 0.118029
H	-0.5123718028	 1.9358059072	-0.9109359824	 0.116802
H	-0.5219050217	 1.9640424275	 0.8562386562	 0.1169
H	-0.9641328828	-0.3402493855	 0.0137445499	 0.079031
H	 0.1851133441	-0.7348259402	-2.0598512944	 0.111052
H	 1.6544448603	 0.0461775101	-1.4958737143	 0.114279
H	 0.5632152879	-2.6994974872	-0.7435128468	 0.110836
H	 4.4557347173	-3.1125770825	-2.2834268039	 0.195662
H	 2.7883397494	-0.6614102058	 2.175498577	 0.117408
H	 2.8051084079	-0.0382245716	 0.4619540252	 0.117613
H	 0.2292091356	-0.5779578544	 2.159946686	 0.088436
