17
gdb 71975	2.84001	1.66011	1.22043	1.2144	80.19	-0.2237	0.0334	0.2571	1029.8246	0.134216	-384.598977	-384.59102	-384.590076	-384.631041	31.447	
C	 0.0200941726	 1.4283662571	-0.0420935572	-0.508856
C	-0.0126483266	-0.0586658574	-0.001063327	 0.430073
O	 0.8922084865	-0.8081783959	-0.8082623227	-0.3224
C	 0.104246762	-1.9851229526	-0.4692663315	 0.045565
C	 0.4555787125	-2.2373382594	 1.0154752756	-0.296397
C	-0.2883324513	-0.9216532	 1.283761834	 0.144359
C	-0.6994637777	-0.3632384556	 2.5195110129	 0.138722
C	-1.0420338728	 0.1207313721	 3.5684920946	-0.407247
C	-1.0959407567	-1.0762842679	-0.0259039698	-0.245069
H	 1.0140237167	 1.7927257018	 0.237382871	 0.139257
H	-0.2140679249	 1.7967432429	-1.0453696086	 0.132296
H	-0.7044264805	 1.8392286382	 0.6655740468	 0.141673
H	 0.1206290002	-2.7596434699	-1.2316717156	 0.094516
H	-0.0925603863	-3.0870702942	 1.4293252641	 0.113394
H	 1.5193391314	-2.3001105032	 1.2619742712	 0.109173
H	-1.3438469641	 0.540311145	 4.4957329121	 0.180442
H	-2.1601840311	-1.0515687009	-0.21512973	 0.110501
