25
gdb 95341	2.80273	1.28888	1.02455	0.1807	92.07	-0.2709	0.0807	0.3515	1298.0689	0.232234	-352.374066	-352.365561	-352.364617	-352.406674	34.92	
C	-0.0440805582	 1.5739703683	-0.0002246679	-0.403868
C	 0.0039136885	 0.0436488475	-0.0220900988	 0.048365
C	 0.7285175543	-0.4870572153	-1.2712716603	-0.183411
C	 0.6662496026	-2.0186540778	-1.3602603769	-0.249128
C	 1.0825197143	-2.7173336985	-0.0672789537	 0.057996
C	 2.5607865289	-2.760127792	 0.4159716069	-0.235073
C	 2.0318574971	-2.6284932711	 1.8714893086	-0.227644
C	 0.7066549513	-2.0513911593	 1.2945197041	-0.020969
C	 0.6932554064	-0.5137585338	 1.2347458547	-0.193394
H	 0.9675817235	 1.9969964423	 0.0218037827	 0.109839
H	-0.5493197791	 1.9702434005	-0.8876388935	 0.107201
H	-0.576361754	 1.9438211146	 0.8828417786	 0.107306
H	-1.0311534867	-0.3318352185	-0.045981056	 0.063287
H	 0.2914315624	-0.0496074153	-2.1768910181	 0.084747
H	 1.7738810432	-0.1474604289	-1.240985804	 0.088957
H	-0.3684460377	-2.3061656952	-1.5931511011	 0.090537
H	 1.2771449388	-2.3792983206	-2.1978031594	 0.088818
H	 0.7007867912	-3.7445169372	-0.0753823642	 0.063919
H	 3.1478322807	-3.6464653828	 0.1619578683	 0.089796
H	 3.1252805325	-1.8754232331	 0.1063060174	 0.09927
H	 1.8842464422	-3.6087524314	 2.3338584626	 0.094779
H	 2.5916236379	-1.9959824664	 2.5662735146	 0.08969
H	-0.2209204099	-2.4118602858	 1.7504952751	 0.055233
H	 1.7241060152	-0.1318273845	 1.2440642511	 0.087269
H	 0.2194131747	-0.1165748957	 2.1408547194	 0.086477
