19
gdb 96726	2.36365	1.26587	0.98576	2.8159	78.48	-0.2447	-0.0291	0.2156	1267.9583	0.158047	-456.373039	-456.363023	-456.362079	-456.408475	35.631	
C	-0.9596913415	 1.6880882253	 0.9863546574	-0.330339
N	-0.8591660357	 0.3110293502	 0.5621275985	-0.282001
C	 0.171663362	-0.4088034429	 0.7431197371	 0.367022
N	-0.0015263189	-1.7315849379	 0.2443640421	-0.319053
C	 0.777940226	-2.8447975613	 0.2350176904	 0.173242
O	 1.9128529633	-2.9699551146	 0.6617320588	-0.340429
C	 1.4952796965	-0.0376666276	 1.4151355494	 0.044479
C	 1.5724934499	-0.5959590312	 2.8452551446	-0.420924
O	 2.6134626932	-0.3695678079	 0.6284315313	-0.441833
H	-0.0148836938	 2.1838052296	 1.2421805348	 0.120518
H	-1.4424686146	 2.263573876	 0.1895536738	 0.134513
H	-1.6192122635	 1.7490013003	 1.8611473339	 0.134036
H	-0.9213780039	-1.8293239647	-0.167778474	 0.257619
H	 0.2407036981	-3.6918682356	-0.2269301296	 0.108398
H	 1.504612468	 1.0529088566	 1.477824616	 0.100484
H	 1.5829590602	-1.6886401379	 2.8424079995	 0.141798
H	 2.4993755266	-0.2466913651	 3.308456277	 0.129919
H	 0.7269884913	-0.2520088711	 3.4500238474	 0.11539
H	 2.6855629968	-1.3407656701	 0.6462668414	 0.307164
