18
gdb 22494	3.3227	0.76997	0.63252	1.1883	81.37	-0.2402	-0.0312	0.209	1741.9292	0.143121	-438.995162	-438.984597	-438.983653	-439.031996	36.621	
C	-0.0086740994	 1.4707760758	 0.0098294163	-0.385294
C	-0.0404598767	-0.0473264177	 0.0021132837	-0.027352
O	-1.3920948791	-0.4663860474	 0.0127659091	-0.227695
C	-1.5284580988	-1.8556853648	 0.0067376027	-0.136425
C	-2.9854866937	-2.26464125	 0.0183802783	 0.147567
N	-3.8876514256	-1.3521349156	 0.0320175036	-0.148193
O	-5.1707358896	-1.8812560953	 0.0414470789	-0.381985
C	-3.2383230127	-3.6672750064	 0.0131968727	 0.332388
C	-3.385556238	-4.8620181922	 0.0081199124	-0.458764
H	 1.0249750337	 1.829306061	 0.0018468671	 0.114342
H	-0.5229156197	 1.8688893316	-0.8692213354	 0.130386
H	-0.5059890829	 1.8595377497	 0.9026957226	 0.130386
H	 0.4720093069	-0.442811045	-0.8914644612	 0.087612
H	 0.4888901339	-0.452177724	 0.8815434785	 0.087612
H	-1.0505226136	-2.3050981084	-0.8828540404	 0.108567
H	-1.0338036728	-2.3143899136	 0.8823422634	 0.108572
H	-5.7174537012	-1.0875585681	 0.051025578	 0.311877
H	-3.5381706408	-5.9132382895	 0.0038690897	 0.206398
