22
gdb 6971	2.44259	2.16069	1.60679	0.0934	82.26	-0.2353	0.0289	0.2642	956.1007	0.200114	-313.093367	-313.084811	-313.083867	-313.125476	34.077	
C	-0.1476681845	 1.56421411	-0.0965228382	-0.405007
C	-0.0110913981	 0.0343196565	 0.0118049109	-0.041139
C	 0.792385593	-0.5152346307	-1.1465679469	-0.064446
C	 1.99790961	-0.9394763094	-0.7740649644	-0.069484
C	 2.2082804837	-0.790695887	 0.7111908821	-0.284711
C	 0.7758944014	-0.510225072	 1.2635626124	 0.306893
C	 0.7999880848	 0.4375951628	 2.4679411052	-0.441948
C	 0.1365745984	-1.8457115784	 1.687484494	-0.418983
H	 0.8309944213	 2.0551197712	-0.1007670825	 0.116158
H	-0.6517732882	 1.8323227219	-1.0312511879	 0.108672
H	-0.7361822805	 1.9794651791	 0.7274296124	 0.112193
H	-1.0283044398	-0.381356393	 0.0174681852	 0.064503
H	 0.4201905498	-0.4970364538	-2.1660914666	 0.084516
H	 2.7606406427	-1.3289656288	-1.439971108	 0.087022
H	 2.6523799174	-1.6813798636	 1.1732359956	 0.09498
H	 2.8975899852	 0.0384887376	 0.9271836876	 0.09662
H	 1.2603229024	 1.3999002626	 2.2259922228	 0.111231
H	-0.209414638	 0.6330171452	 2.8474696882	 0.1083
H	 1.3758398728	-0.0056787624	 3.2882918537	 0.107713
H	 0.6979218629	-2.3070222652	 2.5077009703	 0.104668
H	-0.8936385316	-1.696643845	 2.0296391395	 0.106154
H	 0.1151470148	-2.5530354674	 0.8521523646	 0.116097
