21
gdb 79242	2.38238	1.61242	1.3831	0.8285	82.42	-0.228	0.0727	0.3007	1081.6854	0.181292	-387.050188	-387.041082	-387.040138	-387.083325	35.239	
C	 0.0001825086	 1.6238214364	-0.0180199462	-0.433199
C	 0.0942874665	 0.1026421535	-0.0084041155	-0.023217
C	 0.8089335359	-0.6633258761	-1.1229952961	-0.132914
C	 2.2974614492	-0.7927459077	-0.7334109848	-0.117529
C	 2.4895981197	-0.1123876335	 0.6209845902	-0.308165
C	 1.0704095303	-0.6552130013	 0.9507859806	 0.315245
O	 0.6982169673	-0.9962679388	 2.244648585	-0.482451
C	 1.2667557486	-1.7495940958	-0.1804745729	 0.310605
C	 1.1324696219	-3.2357207093	-0.1748332084	-0.527264
H	 0.9637205126	 2.0958537807	-0.229935917	 0.118913
H	-0.7048631635	 1.96307957	-0.784960034	 0.115788
H	-0.3609978516	 2.0056660758	 0.9449113758	 0.103767
H	-0.9002235526	-0.3353874375	 0.1380469361	 0.072233
H	 0.4959509956	-0.7807347569	-2.1536226389	 0.077466
H	 3.0502614707	-1.0008541003	-1.4834287558	 0.081341
H	 3.2392859275	-0.6373316298	 1.2199828865	 0.10007
H	 2.6668087001	 0.9681259855	 0.668855959	 0.081239
H	 0.6989181153	-0.1976540846	 2.784136407	 0.279809
H	 0.1161877518	-3.5467983501	 0.0922777848	 0.12498
H	 1.3580453191	-3.6475906364	-1.1646261194	 0.118582
H	 1.8182225972	-3.6989432538	 0.543552164	 0.124703
