19
gdb 105875	2.15613	1.42482	1.25878	0.9214	71.	-0.2366	0.0596	0.2962	1121.8589	0.157804	-460.108527	-460.099409	-460.098465	-460.142265	34.349	
C	-0.1466008033	 1.5369108	-0.0207948238	-0.428393
C	 0.1598946472	 0.054276072	-0.0163892952	 0.110708
O	 1.3677691432	-0.3395083546	-0.7588353448	-0.330139
C	 1.7831892667	-1.1722487697	 0.3324655584	-0.040666
C	 2.1377181239	-0.295029442	 1.4778004753	 0.059795
O	 2.7055325001	 0.9614299367	 1.2841882634	-0.432149
C	 0.6673052975	-0.6511879613	 1.2419180449	 0.171874
C	-0.2124745244	-1.3015483172	 2.2643673287	-0.182485
O	-0.9452463658	-0.3428295634	 3.019650322	-0.411283
H	 0.6615030765	 2.1156386835	 0.4291747535	 0.133971
H	-0.321764656	 1.8907371429	-1.0418760402	 0.124168
H	-1.0575607331	 1.7076868592	 0.5622460142	 0.135681
H	-0.6830447819	-0.5077210949	-0.4409324531	 0.089095
H	 2.1592714527	-2.1628401447	 0.0999654681	 0.107926
H	 2.5584575708	-0.8030668537	 2.343086841	 0.10774
H	 2.7039247468	 1.1025754014	 0.3269673026	 0.295454
H	-0.9704864813	-1.9287378521	 1.7807275918	 0.111547
H	 0.3855315717	-1.959418934	 2.9155921826	 0.089572
H	-0.3063645813	 0.2566906119	 3.4205235404	 0.287584
