19
gdb 40198	3.1967	1.54022	1.27176	2.1147	74.73	-0.2403	0.0787	0.319	1034.0123	0.160629	-422.995192	-422.987822	-422.986878	-423.026998	29.376	
C	-0.0807052468	 1.4958674836	 0.051294762	-0.340945
C	 1.2210191488	 0.712931617	 0.1346034446	-0.34366
C	-0.1021396364	 0.0090839845	-0.0397672151	 0.468356
O	-0.6402641847	-0.6860068671	 1.0639092997	-0.28895
C	-0.4590487096	-2.0746037449	 0.7893082801	-0.121015
C	-0.6838758005	-2.2239123622	-0.7136170722	 0.120361
O	-2.075220213	-2.1786470056	-1.0849332195	-0.291128
C	-1.9341582269	-0.8595977195	-1.6544314754	-0.079229
C	-0.4377774245	-0.795753743	-1.275397351	-0.180392
H	-0.4576057696	 1.9339877408	 0.968454614	 0.129408
H	-0.2845927049	 2.0723555526	-0.8447618098	 0.115485
H	 1.9085015931	 0.7598801439	-0.703737594	 0.110327
H	 1.6886823743	 0.6392267861	 1.1099224865	 0.122813
H	 0.5613964752	-2.3972590115	 1.0512053921	 0.088884
H	-1.1830217061	-2.6379547306	 1.3824371782	 0.120967
H	-0.1668385488	-3.0820995508	-1.1546144411	 0.077664
H	-2.1434369958	-0.8601499962	-2.7311034929	 0.097255
H	-2.5770730391	-0.1238679242	-1.1575847616	 0.1102
H	 0.2670165052	-0.6675300228	-2.0957903146	 0.083599
