19
gdb 36707	4.46893	0.79985	0.76487	1.2897	83.43	-0.2407	0.0275	0.2682	1530.2012	0.157869	-385.851584	-385.842575	-385.84163	-385.886527	33.153	
C	-0.0401477433	-1.187693446	-0.1077331758	-0.419974
C	 0.0219860421	 0.0044634611	 0.0214543466	 0.285939
C	 0.0626457206	 1.4516856476	 0.1895579418	-0.216553
O	 1.3541702191	 1.9349687609	-0.1218550994	-0.258742
C	 1.4696789443	 3.3512183282	-0.0265267139	 0.147296
C	 1.6395814741	 3.8294029053	 1.4458904526	-0.274242
C	 3.1110482212	 4.1436375558	 1.5550726875	-0.055329
C	 3.7241825835	 4.1027914173	 0.374682995	-0.054874
C	 2.7808087072	 3.7498835953	-0.7465417269	-0.2789
H	-0.0878301177	-2.2420567785	-0.2245330535	 0.199398
H	-0.6904165683	 1.9228323446	-0.4663327236	 0.116442
H	-0.2231797959	 1.7041965088	 1.2239639354	 0.118385
H	 0.5894402422	 3.8100752179	-0.4992812316	 0.062478
H	 1.023489132	 4.7133712433	 1.6591037649	 0.103909
H	 1.3210698577	 3.0514327187	 2.1496872193	 0.111574
H	 3.5845536743	 4.3840790235	 2.5004631252	 0.091467
H	 4.77518002	 4.3087844053	 0.2059956129	 0.091823
H	 3.1277294727	 2.912389985	-1.360856661	 0.125219
H	 2.6252408244	 4.5990823059	-1.4246860955	 0.104684
