18
gdb 52862	2.17613	0.90377	0.67471	1.7042	92.75	-0.2247	0.0252	0.2499	1717.4066	0.144593	-364.735425	-364.724649	-364.723704	-364.775082	36.144	
C	-0.0707696088	 1.447946535	-0.0609952585	-0.501337
C	-0.0214928032	-0.0059835212	-0.0230343976	 0.072661
C	 0.0281441828	-1.2093727718	 0.0064094348	 0.006254
C	 0.0754335891	-2.6524569573	 0.0239744959	 0.006934
C	-0.4664915337	-3.3467541393	 1.2467821105	-0.261059
N	-1.2291269132	-3.3909660542	 0.0034743052	-0.340046
C	 1.1473586148	-3.262695376	-0.7263998217	 0.023969
C	 2.0559730122	-3.7630457193	-1.3368633224	 0.098975
C	 3.1462871893	-4.3703896684	-2.0848948514	-0.502688
H	 0.7913242377	 1.853971447	-0.6014164732	 0.154358
H	-0.9752005754	 1.8038592803	-0.5668467577	 0.14985
H	-0.0621815633	 1.8763921066	 0.947347493	 0.148926
H	-0.0153137911	-4.2896752936	 1.5402978823	 0.131025
H	-0.8049449744	-2.7136344018	 2.0618563264	 0.1229
H	-1.9762719254	-2.7003631848	 0.0328493398	 0.239916
H	 2.7798493337	-5.1709885878	-2.7368850387	 0.151913
H	 3.6502756696	-3.6320034071	-2.7181934176	 0.150053
H	 3.8985997389	-4.803849876	-1.4165617593	 0.147395
