15
gdb 127976	6.57402	0.8661	0.77344	1.0395	66.7	-0.2472	-0.0104	0.2368	1421.3098	0.110702	-491.055521	-491.046491	-491.045547	-491.090726	30.539	
C	-0.0870598585	 1.3429369047	 0.0703778292	-0.336955
N	 0.0102748729	-0.103848953	-0.0448780118	-0.360123
C	 0.556550211	-0.608334356	-1.0422772224	 0.535956
O	 1.1297780047	-0.0131148308	-2.1374045888	-0.254734
N	 1.6234388219	-1.0321872197	-2.9985797202	-0.189739
C	 1.3271049876	-2.1219639135	-2.3985140544	 0.389703
C	 1.6819566714	-3.4949837151	-2.8747116305	-0.162722
O	 2.2580959393	-3.4883381506	-4.1513491434	-0.394607
O	 0.6858407197	-1.9764598114	-1.2196960109	-0.223323
H	 0.4874542401	 1.8942917958	-0.6827432685	 0.131
H	-1.1383732835	 1.6415514211	-0.0076951327	 0.135987
H	 0.2592750992	 1.6417421927	 1.0645877108	 0.134839
H	 2.3278267311	-3.9576722323	-2.1091377397	 0.132766
H	 0.7699729252	-4.1008026295	-2.9235150478	 0.155632
H	 2.9072438079	-2.7763388624	-4.1901570089	 0.306321
