16
gdb 22640	5.88646	0.85169	0.75087	0.4221	84.67	-0.232	-0.023	0.2091	1431.0377	0.122767	-400.695376	-400.686861	-400.685917	-400.728688	32.113	
O	-0.1457468427	 1.3088934311	 0.0057565843	-0.394183
N	 0.0023237933	-0.0902086176	 0.001957121	-0.225095
C	-1.1298759721	-0.6669006791	 0.0092622731	 0.392523
C	-2.5017952987	-0.020868568	 0.0206506159	-0.337789
C	-3.4229558365	-1.2088730049	 0.0253589503	-0.186309
C	-2.7645040362	-2.3796216873	 0.0182372042	 0.190244
C	-1.256758706	-2.1786360929	 0.0073779495	-0.406234
C	-3.3400174507	-3.672304598	 0.0200852845	 0.202843
C	-3.781120422	-4.7936953428	 0.0217374348	-0.402136
H	 0.7689684104	 1.610509234	-0.0004199971	 0.307265
H	-2.6275086113	 0.6306232338	 0.8963195337	 0.139923
H	-2.6405363464	 0.6338051907	-0.8506679497	 0.139926
H	-4.5021288494	-1.1176638734	 0.0335980863	 0.106294
H	-0.7906921639	-2.632119575	-0.8752982139	 0.139605
H	-0.7775719805	-2.6354181073	 0.8812826119	 0.139608
H	-4.1863144074	-5.7750695233	 0.0239690213	 0.193513
