21
gdb 120944	3.26314	0.86587	0.79094	0.8779	78.75	-0.2453	0.077	0.3223	1511.0081	0.181337	-424.185612	-424.176013	-424.175069	-424.220318	35.916	
O	-0.0165196183	 1.46671716	-0.0890153295	-0.421778
C	 0.0345434059	 0.0557401866	 0.065317838	-0.070833
C	-1.3728669406	-0.4921011838	-0.1355107684	-0.204453
C	-1.4504423578	-2.0075541956	 0.0147450606	-0.047056
C	-1.3049161318	-2.67475911	 1.4314729368	-0.250537
C	-2.6295766298	-3.4131998067	 1.2060895139	-0.10444
C	-3.7382306218	-2.401402466	 1.0123500829	-0.34502
C	-2.8099611689	-2.7083401606	-0.1300044129	 0.38211
O	-3.2603185169	-3.2562862757	-1.3200875659	-0.463132
H	 0.8690101406	 1.8160595483	 0.0465250425	 0.284125
H	 0.7179537317	-0.4008756911	-0.6698389356	 0.083211
H	 0.4036136588	-0.2216372287	 1.0663051815	 0.087419
H	-2.0403630766	 0.0015090429	 0.5809357319	 0.101946
H	-1.7159167757	-0.2006835172	-1.136673331	 0.099765
H	-0.7488263858	-2.4861391731	-0.6779392442	 0.078228
H	-0.4349826398	-3.3300908347	 1.5083768028	 0.103076
H	-1.2990400474	-1.9829459707	 2.2813120715	 0.093917
H	-2.8400358288	-4.4413419062	 1.4720952214	 0.0921
H	-4.7261997241	-2.8361835609	 0.8956399807	 0.111157
H	-3.7221574904	-1.4493360647	 1.538877471	 0.104505
H	-3.8525203028	-2.623981752	-1.7409986379	 0.285692
