16
gdb 5728	4.79124	2.05247	1.48985	4.2875	69.94	-0.211	0.039	0.25	823.7298	0.135528	-342.834686	-342.828633	-342.827689	-342.864828	23.611	
C	 0.0134683409	 1.529398192	-0.0214550034	-0.211122
C	 1.517480536	 1.9031927292	-0.0061078883	-0.181331
N	 2.1060324802	 0.7337386782	 0.6310983149	-0.003688
C	 3.2901195005	 0.368828184	 1.1929994157	-0.022068
N	 3.266586604	-0.8941082775	 1.5697851034	-0.273752
C	 2.0170087463	-1.3666368587	 1.2256209045	-0.226751
C	 1.2818786935	-0.3684983662	 0.6399461197	 0.315404
C	-0.0253045648	-0.0272123764	-0.0100816215	-0.351251
H	-0.4596085912	 1.9115315482	 0.8876829786	 0.122636
H	-0.5088635955	 1.9639762238	-0.876306859	 0.111681
H	 1.9184219429	 2.0307188199	-1.0190803088	 0.123157
H	 1.724896426	 2.8151445219	 0.5596996343	 0.126707
H	 4.1184958414	 1.0506116445	 1.3133381535	 0.123603
H	 1.7295457984	-2.3868664613	 1.4285752456	 0.103417
H	-0.8948393083	-0.4106486912	 0.5298961459	 0.123436
H	-0.0805370903	-0.4257612804	-1.031286415	 0.119922
