19
gdb 77580	2.83238	1.40996	1.21987	1.9208	76.05	-0.2439	0.0857	0.3296	1110.5527	0.157745	-422.976593	-422.967996	-422.967052	-423.009447	33.352	
C	-0.0771979737	 1.5475948057	 0.0708540583	-0.51265
C	 0.1738223473	 0.0793990397	-0.0231305141	 0.391604
O	-0.7546031593	-0.8223845435	 0.6120552617	-0.305374
C	 0.652133016	-0.9331702494	 0.937288668	-0.160457
C	 1.2776265729	-1.7621254084	-0.1583231457	 0.349134
C	 2.6120155153	-2.4436774636	-0.1629981073	-0.344042
C	 1.3394651685	-3.2503706121	-0.2998856462	-0.321371
C	 0.7536110716	-0.7380778948	-1.2087582426	-0.01798
O	-0.1654450139	-1.1845491849	-2.1662266122	-0.435685
H	 0.8271467873	 2.1115172505	-0.1792727801	 0.127106
H	-0.8645611259	 1.8475875752	-0.6294639521	 0.137703
H	-0.3945238496	 1.8199135774	 1.080973473	 0.134347
H	 0.925366844	-0.8362038521	 1.982126728	 0.105715
H	 3.2426004324	-2.321551854	-1.0381459288	 0.117341
H	 3.1586232163	-2.5092895898	 0.7727685695	 0.113487
H	 1.0265948873	-3.8658124988	 0.5370611873	 0.116285
H	 1.0969574431	-3.6566077663	-1.2766879612	 0.125575
H	 1.5578211153	-0.2233793103	-1.7426181026	 0.090618
H	-0.906243525	-1.5475469205	-1.6623618928	 0.288646
