16
gdb 24310	3.02464	2.30498	1.50049	2.8095	73.85	-0.2079	-0.0277	0.1802	848.5249	0.128381	-396.861715	-396.855506	-396.854561	-396.89204	25.381	
C	-0.1080935978	 1.5388151946	-0.1254134635	-0.175971
C	 1.4559358312	 1.6915319925	 0.0330651061	-0.050671
N	 2.0098596422	 2.1656703874	 1.3146219661	-0.321348
C	 2.4668422623	 0.9891904881	 2.141097402	-0.23852
C	 1.6396827345	-0.1165175139	 1.5241998569	 0.163462
C	 1.3640796126	 0.2226278081	 0.2437348688	 0.071092
N	-0.0074972649	-0.0183014488	-0.0073099022	-0.128524
C	-0.3836527144	-0.7138768425	 1.1543704224	-0.006157
N	 0.5644681979	-0.8292539218	 2.0556520976	-0.252814
H	-0.6652781375	 1.9487485728	 0.7152133014	 0.146615
H	-0.5352901398	 1.8226858328	-1.0869296187	 0.131426
H	 1.9486817215	 2.1290970258	-0.8395224117	 0.082281
H	 2.7253779751	 2.8725356456	 1.2017618449	 0.217966
H	 3.5522825347	 0.8276699692	 2.0756584042	 0.106127
H	 2.2109426783	 1.1377748497	 3.1948057303	 0.125934
H	-1.3573748458	-1.1792026595	 1.2456914953	 0.129105
