21
gdb 90719	4.03666	1.11114	1.01282	1.8826	82.42	-0.254	0.0727	0.3267	1255.9815	0.182325	-387.046545	-387.038221	-387.037277	-387.079676	32.725	
C	-0.5573491678	 1.1130019128	-0.257313163	-0.409551
C	 0.2833854176	-0.1458760887	-0.0939200316	 0.046927
C	 1.7066977328	-0.1088407003	-0.7381211854	-0.248167
C	 2.3370113099	-0.4845379228	 0.6237070787	-0.124174
C	 0.9246967402	-0.3675954486	 1.3126122101	-0.029455
C	 1.0152580197	-1.8442384548	 1.7790343786	-0.339127
C	 2.3071560014	-1.9822061529	 0.9621858533	 0.465565
C	 2.8332847314	-3.1180262258	 0.2009181094	-0.268033
O	 3.4371337288	-2.696302867	 1.4320255013	-0.275006
H	-0.0075260183	 2.000398302	 0.077555207	 0.113206
H	-0.834840989	 1.2707617754	-1.3055960638	 0.113972
H	-1.4810523845	 1.0535168012	 0.3293078435	 0.113916
H	-0.3002212887	-1.0165906113	-0.4140365282	 0.066275
H	 1.8970624761	-0.7920334019	-1.5710592704	 0.093804
H	 1.9807513177	 0.9022069509	-1.0545968732	 0.098402
H	 3.2288790255	 0.0471685519	 0.9581184558	 0.077616
H	 0.6921219236	 0.3836876882	 2.068355309	 0.064941
H	 1.2229791627	-1.9377267372	 2.8493078974	 0.115396
H	 0.1791915745	-2.5024059159	 1.5225335707	 0.09897
H	 2.3209640606	-4.0791123613	 0.2378702582	 0.111756
H	 3.4302499854	-2.944946874	-0.6941714773	 0.112768
