24
gdb 117681	3.0595	0.94602	0.88401	0.7865	86.69	-0.2255	0.0827	0.3082	1483.1296	0.214563	-405.507378	-405.496497	-405.495552	-405.543443	39.918	
C	 1.3845667437	 1.3389217901	 0.3045926081	-0.223879
O	 0.8121376375	 0.0588017633	 0.2003607765	-0.239663
C	 1.1224632626	-0.5852017963	-1.0171434209	-0.050994
C	 0.4730440401	-1.9801181685	-1.0459167884	 0.232097
C	 1.0696594423	-2.8546496902	 0.0659773839	-0.395992
C	-1.0478295864	-1.8449349073	-0.8507535786	-0.432762
N	 0.9197260792	-2.5594480207	-2.3307099376	-0.085864
C	 0.2952726643	-3.7562659619	-2.8682308304	-0.228917
C	 0.1342395145	-2.4404386744	-3.5508511712	-0.229662
H	 2.4842141393	 1.3008577234	 0.2505221597	 0.104451
H	 1.0278886122	 2.0122973794	-0.4913126434	 0.102499
H	 1.0927410889	 1.7522440452	 1.2733509076	 0.124582
H	 0.75390979	 0.0102741943	-1.8701915576	 0.080281
H	 2.2115776197	-0.6933369281	-1.1372731513	 0.093047
H	 0.9323236974	-2.3773380419	 1.0385853867	 0.128114
H	 0.5878811242	-3.8374036098	 0.0872647184	 0.105124
H	 2.1393540991	-3.0044302958	-0.1064401404	 0.11667
H	-1.5005154834	-1.1905166644	-1.602068942	 0.110675
H	-1.5525974805	-2.815097412	-0.8855410593	 0.109042
H	-1.2439016927	-1.3980751225	 0.1259943337	 0.13775
H	 0.9765958886	-4.5081678419	-3.2584744983	 0.112661
H	-0.5865211443	-4.1614131469	-2.3756970108	 0.109275
H	-0.8532706934	-1.987265923	-3.511337454	 0.10951
H	 0.7000138373	-2.2082064599	-4.4495178104	 0.111958
