16
gdb 98101	4.37525	0.93057	0.81661	2.0479	68.59	-0.2601	-0.0805	0.1796	1391.0772	0.123007	-475.030945	-475.02172	-475.020776	-475.066455	31.302	
C	-0.0383680926	 1.4642131276	 0.0598942011	-0.244079
O	 0.2818570207	 0.064073075	 0.0680049011	-0.208281
C	 0.78121884	-0.4120154842	-1.0696567224	 0.382356
O	 0.9783914399	 0.2301964201	-2.0722690842	-0.349809
C	 1.0944996792	-1.918450174	-0.9650494181	 0.256813
O	 0.86198184	-2.5491436288	 0.0406555192	-0.308768
C	 1.6963234347	-2.5207320765	-2.1831913761	-0.101534
C	 2.9262830668	-3.3574534051	-1.9556696311	-0.214747
N	 1.6604050092	-3.9883516424	-2.2841623148	-0.302708
H	 0.8570724453	 2.058747922	-0.1374010256	 0.147264
H	-0.7830676454	 1.680007433	-0.7100926339	 0.148274
H	-0.4342568072	 1.6809109368	 1.0510944069	 0.14564
H	 1.5956289162	-1.9639722006	-3.1056454598	 0.12989
H	 3.6808316113	-3.3767592022	-2.7363140252	 0.135098
H	 3.2961697384	-3.4230445013	-0.9361222673	 0.134689
H	 1.2364717836	-4.3365512194	-1.4229984897	 0.249902
