13
gdb 2286	9.96411	1.33561	1.25859	2.762	51.86	-0.2659	-0.0022	0.2637	893.7294	0.100926	-381.581036	-381.574238	-381.573294	-381.612912	22.61	
O	-0.1752690079	 0.010033086	-0.0675170576	-0.265516
C	-0.0895003406	 1.1988419078	-0.0719643301	 0.168023
O	 1.0669615158	 1.8470207583	 0.1875005071	-0.184277
C	 1.0740739056	 3.2638186138	 0.1590447726	 0.077751
C	 1.7411844902	 3.9462817864	 1.3670559966	-0.09415
O	 2.6313204567	 4.6738448212	 0.4960039241	-0.26647
C	 2.2166785433	 3.9032980598	-0.6506799422	-0.094138
H	-0.9284058929	 1.8903213124	-0.2842328217	 0.082963
H	 0.0777781418	 3.6458385467	-0.083870341	 0.102258
H	 1.1196617757	 4.610829171	 1.9763448557	 0.11467
H	 2.2714894336	 3.2357376973	 2.0134211818	 0.122099
H	 2.972911592	 3.1722629708	-0.9630501038	 0.122108
H	 1.9388501669	 4.5368033984	-1.4995591315	 0.11468
