22
gdb 93897	2.64788	1.49783	1.19407	2.464	81.89	-0.2405	0.0692	0.3097	1149.9467	0.195755	-404.337011	-404.328362	-404.327418	-404.369914	34.111	
C	-0.2094058804	 1.5532839955	 0.0153157261	-0.38386
C	 0.03851053	 0.040205923	-0.0051393171	 0.005337
C	 0.8093754045	-0.4027987492	-1.2607430849	-0.084606
O	 2.1928018175	-0.1162127197	-1.1663351111	-0.256826
C	 2.8645264225	-0.9558996322	-0.2386147156	 0.13881
C	 4.3125714834	-0.4906573552	-0.1741624086	-0.404631
C	 2.18741809	-0.9365968445	 1.1228013664	-0.050821
N	 1.9284331544	 0.3927660711	 1.687395071	-0.32094
C	 0.7904534306	-0.4357612696	 1.2398553411	-0.05121
H	 0.741744431	 2.0886696285	-0.0169358256	 0.147364
H	-0.8172605962	 1.8579412095	-0.8432688509	 0.101657
H	-0.7351285697	 1.8562086513	 0.92665534	 0.103891
H	-0.9296224022	-0.4770595594	-0.0219590874	 0.066443
H	 0.6626504384	-1.4833362589	-1.4292604881	 0.07816
H	 0.4456490127	 0.1275428958	-2.1467898342	 0.099879
H	 2.8230296453	-1.9975162374	-0.6088573937	 0.057454
H	 4.354467791	 0.5213552442	 0.2362541416	 0.139649
H	 4.9028778266	-1.1557528325	 0.4641225927	 0.105701
H	 4.7530207387	-0.4856359509	-1.174639695	 0.120467
H	 2.5055974196	-1.730763246	 1.7964837725	 0.079264
H	 2.0025602043	 0.3685189323	 2.7002945418	 0.228891
H	 0.1728608983	-0.8738985156	 2.0209106188	 0.079927
