16
gdb 53817	3.4583	1.13056	0.93145	1.8995	65.86	-0.2367	-0.0675	0.1692	1233.119	0.123393	-475.043471	-475.034533	-475.033588	-475.078368	31.298	
N	 0.120875857	 1.3161406024	-0.1179562747	-0.518667
C	 0.1151232982	-0.0278562016	-0.0008522687	 0.326077
O	 1.0912249157	-0.7502816861	 0.092612768	-0.353185
C	-1.3154466054	-0.6117343113	 0.0143750586	 0.258393
O	-2.2848251064	 0.1063962412	-0.0329741158	-0.296435
C	-1.3652486496	-2.1202432082	 0.1186336559	 0.064369
C	-1.1037408393	-2.69392099	 1.5380446913	-0.284263
C	-2.5424540665	-3.2352778358	 1.405828366	-0.065924
O	-2.6944117318	-2.6471495535	 0.0938286654	-0.275824
H	 0.9910763228	 1.8203969454	-0.1331879351	 0.270758
H	-0.7610774306	 1.7999339759	-0.1766025901	 0.28124
H	-0.7235507581	-2.5484988429	-0.6611761293	 0.116229
H	-0.3074401001	-3.4350218131	 1.5874204975	 0.13214
H	-0.9519390581	-1.9495453345	 2.3207629157	 0.121327
H	-2.6360029124	-4.3268674941	 1.3730521813	 0.109728
H	-3.2721949256	-2.8324342139	 2.117026004	 0.114037
