17
gdb 84315	3.27755	1.44019	1.10595	3.996	75.55	-0.2459	-0.0589	0.187	1089.6588	0.136422	-421.842446	-421.834711	-421.833767	-421.874739	29.65	
C	 0.3482787655	 1.5895968214	 0.0232400091	-0.396948
C	-0.0525684831	 0.100542322	 0.0020702857	-0.09137
C	 0.375280194	-0.5622526809	-1.2803087467	-0.029274
C	 0.9485437948	-1.7676480333	-1.3749128638	-0.183586
C	 1.2108477849	-2.6183823493	-0.1989606424	 0.400759
O	 1.4758538068	-3.8014373769	-0.2833252518	-0.335592
C	 1.103562097	-1.9446143906	 1.1424443813	-0.088923
O	 1.8935772579	-0.7532710517	 1.3023327614	-0.246647
C	 0.481715068	-0.6078684739	 1.2320762262	 0.041249
H	 1.4371681505	 1.6874478182	 0.0159402366	 0.145278
H	-0.0542363888	 2.1151727818	-0.8476277486	 0.120743
H	-0.0344981778	 2.0814771195	 0.9224637478	 0.122983
H	-1.1517715962	 0.0493035505	 0.0472366507	 0.104007
H	 0.1746540069	 0.0040678921	-2.1880453931	 0.110438
H	 1.1970034109	-2.2053072055	-2.3364469919	 0.115335
H	 1.104863191	-2.6202911699	 1.9949911824	 0.109678
H	 0.0146163276	-0.3263572237	 2.1766613269	 0.101869
