15
gdb 45115	2.88153	1.72017	1.17617	4.9877	67.79	-0.2356	-0.0466	0.189	998.8858	0.114504	-453.962565	-453.955234	-453.95429	-453.995005	27.949	
N	-0.0989142414	 1.1986991786	 0.5649227489	-0.505143
C	-0.0498641011	 0.0114971502	 0.1045633292	 0.220567
N	-1.1913845386	-0.6854856519	-0.1982529001	-0.329875
C	-1.1975799154	-1.9270327937	-0.890189599	-0.017092
C	-0.6678140218	-2.0305955701	-2.3179854818	-0.334862
C	 0.1361518811	-2.5428232829	-1.1528617812	 0.10019
O	 1.315674883	-1.8852719847	-0.7460053665	-0.223117
C	 1.289349485	-0.687101263	-0.1210199321	 0.379622
O	 2.3188774647	-0.1775154191	 0.2233620875	-0.313689
H	 0.8535062723	 1.5148666065	 0.7484248759	 0.245001
H	-2.0383993936	-0.1354426044	-0.1764053881	 0.258049
H	-2.006149514	-2.5883527971	-0.5944092363	 0.119981
H	-1.1045035358	-2.7565570259	-2.9946755728	 0.130683
H	-0.3350523845	-1.105681463	-2.7765486063	 0.1399
H	 0.26424729	-3.6112432394	-1.0290962372	 0.129783
