17
gdb 43761	4.69218	1.02533	0.97102	3.3244	74.11	-0.2441	-0.012	0.2321	1217.1512	0.135355	-421.792017	-421.784234	-421.78329	-421.824752	29.609	
O	 0.441244861	 0.0606820031	-0.1676821212	-0.315147
C	 0.1901499956	 1.2188938355	 0.0058889752	 0.431349
C	-1.1486560698	 2.0104506109	 0.0318711066	-0.437795
C	-0.3045683184	 3.2978447844	-0.0016164346	 0.366395
C	 0.5661806267	 3.3499547485	 1.1977023265	-0.339256
C	 1.0172436815	 2.4656694714	 0.0363010959	-0.221755
C	-0.5912204487	 4.4694698571	-0.8667237575	-0.058599
C	-1.0248226386	 5.7639579744	-0.3161862499	-0.174009
O	 0.3161584735	 5.5684292617	-0.7710056945	-0.230738
H	-1.7052396675	 1.8181611643	-0.891082311	 0.132797
H	-1.8164932009	 1.8777997821	 0.8879164363	 0.121122
H	 1.1641963874	 4.2495623819	 1.2982165006	 0.145493
H	 0.2487732568	 2.9012797627	 2.1350548704	 0.120653
H	 1.9683413442	 2.6347484894	-0.4530823688	 0.119462
H	-0.8926931453	 4.2280681687	-1.8876395224	 0.09903
H	-1.6306299149	 6.4335507588	-0.9242953295	 0.122532
H	-1.1393055525	 5.8703049752	 0.7611072878	 0.118466
