18
gdb 8194	2.66332	2.27506	1.61651	0.7674	67.91	-0.2211	0.0682	0.2893	872.0833	0.151672	-384.894921	-384.886597	-384.885653	-384.926839	31.748	
C	-0.0228761669	 1.5576908345	-0.0009267572	-0.46458
C	 0.0461884522	 0.0507790846	 0.0562848988	 0.316383
O	-1.1027810816	-0.608947529	-0.4206227207	-0.464267
C	 1.3170151547	-0.7283184831	-0.1807548927	-0.02113
O	 2.4598151285	-0.0125312609	 0.292748114	-0.288417
C	 1.943607173	-0.0742295537	 1.6512553626	-0.140711
C	 0.6581910343	-0.7593732014	 1.1928801261	 0.216889
C	-0.0724528882	-1.8187097686	 1.9642279045	-0.498384
H	 0.9381554833	 2.0065372184	 0.2568452432	 0.140509
H	-0.2717052527	 1.8831479611	-1.0188077215	 0.105807
H	-0.794769555	 1.9431189432	 0.6726709523	 0.12213
H	-1.1728603177	-0.4270626742	-1.3644563282	 0.284657
H	 1.4526149748	-1.4751048469	-0.9568230678	 0.100495
H	 2.5733063908	-0.7266763317	 2.2683443723	 0.108663
H	 1.871865011	 0.9145479756	 2.1196176724	 0.102736
H	-0.5448292118	-1.3962248903	 2.8596547234	 0.1182
H	-0.8582747416	-2.2653195925	 1.3529244661	 0.145745
H	 0.6099699528	-2.6112054149	 2.2910660625	 0.115275
