15
gdb 28393	3.19511	1.4251	0.98739	3.499	76.5	-0.1835	-0.0247	0.1588	1120.3137	0.115463	-450.169806	-450.162041	-450.161097	-450.20177	30.466	
N	 0.1120292989	 1.3837417594	-0.2073583351	-0.589004
C	-0.029481847	 0.0101313834	 0.0046909881	 0.385982
C	-1.178459809	-0.707021247	-0.1218251334	-0.154463
N	-1.1840670546	-2.0793598022	 0.0160736338	-0.339852
C	-0.0896742034	-2.6865121368	 0.3063397291	 0.344914
O	-0.062358854	-4.0304461752	 0.4550949945	-0.417031
C	 1.2172629446	-2.0379664463	 0.4951218988	 0.308679
N	 2.3465593608	-2.5701724242	 0.7785639639	-0.564202
N	 1.1299640621	-0.6624077146	 0.3030727644	-0.377177
H	 0.5987596692	 1.8615288987	 0.5434355983	 0.252601
H	-0.777080209	 1.8348655938	-0.3765295941	 0.258587
H	-2.1244935367	-0.2266604756	-0.3342615936	 0.097067
H	-0.9664341264	-4.3365367413	 0.2997762628	 0.299982
H	 2.2326032736	-3.5766078067	 0.8738850202	 0.232607
H	 2.0109306208	-0.1681425956	 0.3182402822	 0.261311
