21
gdb 79586	2.13208	1.66646	1.51958	0.6524	81.96	-0.2224	0.0775	0.2998	1060.8679	0.181726	-383.200351	-383.191266	-383.190321	-383.23333	35.116	
C	-0.166289168	 1.4764425356	-0.0887587418	-0.318832
N	 0.0866498727	 0.0494781751	 0.0565251352	-0.125476
C	 1.404133133	-0.5250700385	-0.1571527705	-0.135713
C	 2.540871191	 0.3164724039	 0.4016395275	-0.118122
N	 3.1853452644	-0.3471114693	 1.5429877187	-0.371236
C	 1.8933962548	 0.3198533111	 1.7608458548	 0.282784
C	 1.8067518518	 1.375150773	 2.8252673438	-0.49425
C	 0.7446539305	-0.5416849288	 1.2123381528	 0.252264
C	 0.0592115762	-1.6487621821	 1.962761154	-0.490996
H	 0.6550999173	 2.1280126823	 0.2374626787	 0.112449
H	-0.3699296327	 1.6863577284	-1.1438365202	 0.121613
H	-1.0628380341	 1.7368200522	 0.4831077772	 0.120256
H	 1.5044379396	-1.3359716196	-0.8727586784	 0.092973
H	 3.0888757368	 1.1086812447	-0.0952214359	 0.098054
H	 3.0913946936	-1.359955569	 1.4838787778	 0.225474
H	 2.7428953995	 1.936742357	 2.878738828	 0.134323
H	 0.9860766285	 2.073793553	 2.6359245244	 0.1195
H	 1.6362832535	 0.9195518486	 3.8078018639	 0.122369
H	-0.6248178688	-1.2449065493	 2.7185667146	 0.123234
H	-0.527042735	-2.2672514646	 1.2788703338	 0.133783
H	 0.7843069053	-2.2860868636	 2.4809154317	 0.115548
