13
gdb 49841	2.34646	1.35349	0.9083	2.4335	66.41	-0.2818	-0.0745	0.2072	1184.7089	0.08773	-452.765267	-452.757016	-452.756072	-452.799323	28.208	
O	 0.1304782045	-0.0000848532	 0.5465393125	-0.299427
C	 0.0863060815	 1.1989953985	 0.4027064705	 0.139269
N	 1.0815269845	 1.9186244569	-0.1929223389	-0.055575
C	 2.4430489864	 1.4566945353	-0.4967772084	-0.28542
C	 2.8633710166	 2.9326444461	-0.5139925934	 0.390384
O	 3.8570350472	 3.5410031247	-0.7209581012	-0.233641
C	 1.3868205507	 3.3551843123	-0.1229110396	-0.274203
C	 0.6854688532	 4.2148777979	-1.0671677684	 0.312305
N	 0.1412045078	 4.8966040655	-1.8250295236	-0.301476
H	-0.7636630572	 1.8343913992	 0.7166456574	 0.100576
H	 2.9019213132	 0.8543743868	 0.2957119508	 0.169239
H	 2.5508755155	 0.9345085296	-1.4531690074	 0.172333
H	 1.3353844159	 3.7848281905	 0.8858739396	 0.165634
