16
gdb 18242	4.67769	1.73613	1.39671	1.1201	65.51	-0.2365	0.0336	0.2701	897.5771	0.13237	-379.905188	-379.89818	-379.897236	-379.936413	26.054	
C	-0.0393733091	 1.3475031804	 0.0130696694	-0.231899
O	 0.0653835238	-0.0791788328	 0.029995523	-0.240486
C	 0.6853641539	-0.5898149187	 1.0869957113	 0.446765
N	 1.1739960923	 0.0679965586	 2.0656735437	-0.345877
C	 1.772584846	-0.9164965594	 2.9752405854	-0.185637
C	 1.4201873571	-2.2830343667	 2.3763788017	-0.029422
C	-0.009665954	-2.6012697674	 2.1637267506	-0.248968
N	 0.7961186585	-2.0143286949	 1.0574678563	-0.163906
H	 0.9535304063	 1.8046629309	 0.0357704852	 0.141579
H	-0.5566696861	 1.5953984979	-0.9140952559	 0.132185
H	-0.6065915487	 1.7019356662	 0.8782166968	 0.138166
H	 2.8602929877	-0.778547744	 3.013000099	 0.114015
H	 1.3972204882	-0.7800193918	 3.9963416091	 0.112855
H	 2.149370575	-3.0858542967	 2.4026563661	 0.103853
H	-0.3191611848	-3.6270200778	 1.9917282197	 0.127107
H	-0.7563399861	-1.9617168637	 2.6271150986	 0.129671
