16
gdb 131320	4.74904	1.27503	1.02758	3.8475	70.57	-0.2223	0.0218	0.2441	1112.6867	0.128606	-434.111499	-434.104467	-434.103522	-434.143078	26.9	
O	 0.0669009017	 1.2350311376	-0.1383032901	-0.406971
C	 0.0836092673	-0.102015617	-0.0595715344	 0.407721
N	 0.0644444841	-0.8521945173	-1.1552022437	-0.34803
N	 0.1159724641	-2.0905149124	-0.593900542	 0.062342
C	 0.0261176038	-3.4201005645	-1.1593149246	-0.169538
C	 0.3562087207	-4.2914215647	 0.0886709222	-0.220474
C	 0.1124869683	-3.3891704062	 1.3416100855	-0.354897
C	 0.1402516447	-2.0215320983	 0.7405315647	 0.391689
N	 0.1274615597	-0.7573548107	 1.1381749061	-0.456402
H	 0.0856269645	 1.5601203302	 0.7697751953	 0.310112
H	-0.9806914508	-3.6037497241	-1.5523252467	 0.128963
H	 0.7407877167	-3.5540268499	-1.9750059975	 0.136138
H	-0.2421202291	-5.2034493574	 0.1116841531	 0.120463
H	 1.4073481612	-4.5876666495	 0.0526877187	 0.128307
H	-0.8605378544	-3.5865396192	 1.8061446661	 0.134288
H	 0.8723248476	-3.5335398166	 2.1132976372	 0.136289
