23
gdb 122323	4.77347	0.62484	0.59354	1.9144	89.81	-0.2237	0.0246	0.2484	1971.5576	0.20534	-388.30352	-388.293432	-388.292488	-388.339953	35.93	
C	 0.060702981	 1.5603242243	 0.1908518722	-0.382496
C	 0.002721573	 0.0455203879	-0.0232798836	-0.160992
C	-1.4178876694	-0.5207903114	 0.0690015568	-0.158124
C	-1.4707537386	-2.0462476502	-0.145810492	-0.321611
C	-2.8536600448	-2.619750291	-0.0888461574	 0.31864
C	-3.5514587009	-3.2101106178	-1.0564035919	-0.214454
C	-4.8947275961	-3.6437212732	-0.5471434213	-0.101405
O	-4.9198878504	-3.2469318336	 0.8224282198	-0.265412
C	-3.692977359	-2.6148525597	 1.1675528879	-0.148228
H	 1.08616421	 1.9352672543	 0.1155617458	 0.112566
H	-0.5427471366	 2.089109804	-0.5552512553	 0.11507
H	-0.3226046119	 1.8358184653	 1.1796443128	 0.114679
H	 0.427388408	-0.2031040544	-1.0050201527	 0.095499
H	 0.6405196259	-0.4551843908	 0.7173215832	 0.095277
H	-1.84411369	-0.2702239874	 1.0490719217	 0.098999
H	-2.0589904885	-0.0323839945	-0.6762295991	 0.099941
H	-1.0183098127	-2.2905397582	-1.1140016374	 0.102652
H	-0.844797111	-2.5281270444	 0.6196136375	 0.103245
H	-3.2218740496	-3.3779955897	-2.0746774553	 0.094253
H	-5.7288908904	-3.167602312	-1.087831058	 0.101188
H	-5.0444247621	-4.7331421376	-0.6236853785	 0.101036
H	-3.2026020176	-3.1638388011	 1.9893942877	 0.097855
H	-3.8925995583	-1.5970377889	 1.5390788772	 0.101824
