17
gdb 86493	2.61718	1.31764	1.0382	3.4185	69.55	-0.2493	-0.0506	0.1988	1177.6819	0.132053	-458.96071	-458.951319	-458.950375	-458.995854	32.672	
C	-0.6837756436	 1.2407348504	 0.3222289492	-0.40086
C	 0.0119276298	-0.0593904649	-0.0170575978	 0.153643
C	 0.8636616048	-0.1147344751	-1.3060612472	-0.360252
C	 2.0580685664	-0.3192770958	-0.349168156	 0.236185
O	 1.197271674	-0.2879052871	 0.8122116087	-0.342921
C	 2.7697980658	-1.6547176104	-0.4706274367	 0.106033
O	 3.8911173321	-1.7781598503	-0.8891656276	-0.236337
C	 3.0539174572	 0.8375313564	-0.2698187682	 0.132852
O	 3.0905412443	 1.7480192263	-1.0528099933	-0.242599
H	-0.0071733779	 2.0908111463	 0.1944947956	 0.1352
H	-1.5518919122	 1.3849891128	-0.3302388033	 0.124836
H	-1.0336145691	 1.2267712491	 1.3590125574	 0.133779
H	-0.6748839388	-0.9066616828	 0.0932748776	 0.089921
H	 0.6501398226	-0.94774928	-1.9771917444	 0.121958
H	 0.937142538	 0.8132093257	-1.8742829195	 0.148553
H	 2.1546005835	-2.5182483317	-0.1323538483	 0.094229
H	 3.7183746133	 0.7935352009	 0.6177141738	 0.10578
