13
gdb 27937	2.57872	1.41225	0.91325	4.877	65.99	-0.214	-0.0331	0.1809	1161.6741	0.089274	-489.92635	-489.918424	-489.91748	-489.958852	29.046	
N	 0.1187286364	 1.3436612208	-0.0918851977	-0.591858
C	-0.0413384833	-0.0123966787	-0.0429086323	 0.329667
C	-1.1077476107	-0.8803422424	-0.0327746131	 0.096995
C	-2.5083761366	-0.532636009	 0.0332342229	 0.07027
O	-3.443258233	-1.3030864374	 0.0426880936	-0.284971
N	-0.5994852724	-2.1989608469	-0.0815307714	-0.4093
C	 0.6661783522	-2.0377968825	-0.1078851666	 0.467378
O	 1.648414262	-2.9318753421	-0.1453045067	-0.397736
O	 1.1090207907	-0.7426598791	-0.0894446053	-0.190992
H	 0.9751215949	 1.6881764566	 0.319057038	 0.274659
H	-0.6947521737	 1.8806777792	 0.1675361365	 0.276412
H	-2.681509028	 0.5718828579	 0.0815935734	 0.030689
H	 1.2310166915	-3.8033872965	-0.1495747713	 0.328788
