22
gdb 9433	3.97457	0.87359	0.74839	1.5831	76.49	-0.244	0.0835	0.3275	1581.1855	0.197189	-387.324327	-387.313678	-387.312734	-387.360732	36.425	
C	-0.0328133743	 1.3792383564	-0.0859924108	-0.225321
O	-0.0228438954	-0.0249234466	-0.0285534789	-0.23206
C	 0.6796074006	-0.5219562409	 1.0919657806	-0.055522
C	 0.6626028182	-2.0436075141	 1.0304010748	-0.205272
C	 1.3440057407	-2.7018428538	 2.2291986744	 0.136155
C	 1.2393391068	-4.2286300861	 2.1733652131	-0.402786
O	 2.6985986894	-2.2603937196	 2.2246894994	-0.244109
C	 3.3875424476	-2.4394456628	 3.4389307508	-0.233936
H	 0.9857981124	 1.7949185142	-0.1501723472	 0.101567
H	-0.5883928824	 1.6686963027	-0.9817281312	 0.123167
H	-0.5252005035	 1.8232502267	 0.7947683696	 0.09887
H	 1.716440298	-0.154570015	 1.0968655723	 0.102322
H	 0.2050173963	-0.1704092824	 2.0262488131	 0.074316
H	-0.3768278659	-2.3851187274	 0.9753605479	 0.102552
H	 1.1600594664	-2.3704976472	 0.1101320162	 0.11153
H	 0.8608261114	-2.3453081854	 3.1568496188	 0.06019
H	 0.1899375973	-4.539410022	 2.1639175166	 0.116292
H	 1.7216385624	-4.6080188488	 1.2669665472	 0.124197
H	 1.715487128	-4.6991859267	 3.0381287173	 0.114312
H	 4.3639922771	-1.9606154824	 3.3282268195	 0.125993
H	 2.8569571403	-1.9678849054	 4.2815922425	 0.101341
H	 3.5487887286	-3.4988311934	 3.6862908541	 0.106203
