20
gdb 118328	1.91576	1.14646	0.82634	2.2601	77.78	-0.2306	-0.0443	0.1863	1464.6118	0.167058	-440.306505	-440.295791	-440.294847	-440.34349	36.993	
C	 0.4722632098	 1.0558639846	 0.6174818052	-0.392753
C	 0.2522861465	-0.4082429382	 0.2515938881	-0.110423
N	 0.4639704058	-0.6231750603	-1.1768805059	-0.306006
C	 0.2156913537	-1.9597302569	-1.6460560847	-0.154614
C	-0.4808735528	-1.9488898404	-3.0068173495	 0.148616
O	-0.8975486134	-0.9438499628	-3.521876041	-0.249168
C	 1.4613743231	-2.8699927212	-1.7835308218	 0.360852
C	 2.8177504084	-2.2167531056	-1.6755819902	-0.46511
O	 1.3016650912	-4.0476450788	-2.0051701984	-0.301206
H	 1.4817454246	 1.3759794132	 0.3440533972	 0.127644
H	-0.2404193641	 1.701744986	 0.0922949349	 0.121417
H	 0.3344598704	 1.2117002591	 1.6911755882	 0.119645
H	 0.9621451791	-1.0362503543	 0.8060553526	 0.101757
H	-0.7560947109	-0.7264710342	 0.5759745426	 0.085649
H	-0.096507502	 0.019928542	-1.7303467155	 0.234683
H	-0.4752775129	-2.5393108809	-1.0030370458	 0.115726
H	-0.5747076212	-2.9466993992	-3.4757454278	 0.123351
H	 2.964459031	-1.8123992194	-0.6685074855	 0.148885
H	 3.592404078	-2.9513342514	-1.8983237255	 0.138354
H	 2.8805343557	-1.3607485015	-2.354009767	 0.152698
