16
gdb 50002	3.75116	1.06925	1.00889	1.6463	71.04	-0.2504	-0.0452	0.2053	1192.9274	0.122852	-437.814561	-437.806857	-437.805913	-437.847206	28.896	
O	-0.6779172823	 0.7484997242	 0.7751111115	-0.247519
C	 0.1580286104	 0.9957375118	-0.0560193571	 0.152661
C	 1.2156563961	 2.031838868	 0.1162394308	-0.167184
O	 2.3884728266	 1.8547993502	-0.7058724758	-0.274793
C	 1.5453891075	 2.9307557765	-1.0159438816	 0.441724
C	 0.9722697929	 3.1463627592	-2.4211425906	-0.264329
N	 1.5106007062	 4.5571315686	-2.4465212977	-0.118191
C	 0.8586758114	 5.2505840163	-1.3249211737	-0.238584
C	 2.0041782705	 4.3656956709	-1.0170140126	-0.131316
H	 0.2036072395	 0.4702192154	-1.0358641842	 0.089654
H	 1.3915254782	 2.3743114932	 1.1344208056	 0.12155
H	 1.4847332745	 2.5307105036	-3.163314573	 0.139213
H	-0.1106278404	 3.081267246	-2.5640269415	 0.12006
H	 1.0401749278	 6.3208253023	-1.322578312	 0.134687
H	-0.1468266948	 4.9579911055	-1.0282888806	 0.122143
H	 2.9726141757	 4.7157780384	-0.6772677874	 0.120225
