16
gdb 124549	3.94611	1.08891	0.90551	4.5648	66.75	-0.2832	-0.0147	0.2685	1266.5649	0.122981	-475.055128	-475.046655	-475.04571	-475.088807	30.492	
C	 0.079711674	 1.5467673097	-0.1228194747	-0.389266
C	-0.0355102902	 0.0226240904	-0.0024671136	-0.106549
C	 0.672723606	-0.5219619281	 1.2546761483	-0.397309
C	-1.461939334	-0.4167587236	-0.0213134494	 0.459909
N	-2.5033586352	 0.3313166432	-0.0295435679	-0.182273
O	-3.5956698063	-0.5784177873	-0.0394979333	-0.232065
C	-3.1185164483	-1.8470645356	-0.0371144256	 0.509115
O	-3.7421411026	-2.8544217052	-0.0439832883	-0.358259
O	-1.7372761191	-1.7473056192	-0.0255592532	-0.234509
H	 1.1345559258	 1.8317650765	-0.1531246413	 0.122617
H	-0.4066360462	 1.9154591669	-1.0288230985	 0.139441
H	-0.386272817	 2.0426391914	 0.7331104246	 0.141125
H	 0.4338174741	-0.4437340225	-0.8797577839	 0.120098
H	 0.2471567526	-0.0790568462	 2.1606119122	 0.134736
H	 0.5824791618	-1.6084296857	 1.3261590313	 0.142811
H	 1.7348788844	-0.2661032047	 1.2169176633	 0.130379
