19
gdb 95437	2.55764	1.37597	0.95388	3.9357	81.2	-0.1971	-0.0041	0.193	1234.0837	0.160755	-419.255961	-419.246911	-419.245967	-419.289855	34.003	
C	-0.1058983997	 1.599246399	-0.0860853789	-0.395065
C	 0.0401118578	 0.0722700931	-0.0213383389	-0.12229
C	 0.9035094558	-0.4741410314	-1.2008773236	-0.172604
N	 1.7158210065	-1.5433454052	-0.5974437281	-0.301706
C	 1.7204242723	-1.3542796824	 0.7645047715	-0.065186
C	 0.7856598266	-0.4808821615	 1.1928516407	 0.164917
C	 0.5277648292	-0.2765857232	 2.6235218139	 0.288346
N	-0.620663364	 0.4321405787	 2.9399648175	-0.544271
O	 1.278532861	-0.6762712268	 3.5022334645	-0.381874
H	 0.8766683656	 2.0791095904	-0.0312996699	 0.120978
H	-0.5834423669	 1.9039687836	-1.0241040197	 0.11045
H	-0.7058708916	 1.9885208783	 0.7399833951	 0.121113
H	-0.9655604299	-0.3736762593	-0.0808449653	 0.075148
H	 0.3015203545	-0.8577724023	-2.0291662155	 0.112306
H	 1.5459346457	 0.3281790099	-1.5921001087	 0.103047
H	 2.5790353868	-1.8005433449	-1.0523799744	 0.244383
H	 2.3884085172	-1.925469237	 1.3956475398	 0.144345
H	-1.3897972222	 0.4382499312	 2.2890995908	 0.24708
H	-0.8736059549	 0.3927280898	 3.9160751092	 0.250884
