19
gdb 91965	2.48807	1.70734	1.41671	2.5686	74.47	-0.2546	0.0862	0.3408	1002.7618	0.160462	-423.006544	-422.998963	-422.998018	-423.038245	30.896	
O	 0.1014289015	 1.3850057876	-0.1507402843	-0.436838
C	 0.0436991706	-0.0225708133	 0.0033520434	 0.021644
C	 0.6263147024	-0.4772997805	 1.3713665006	-0.271947
C	-0.5812462839	-0.5161642284	 2.2866365006	 0.038467
O	-1.4271331967	 0.6459579919	 2.1610220976	-0.281954
C	-1.7973461752	-0.5684301717	 1.4652373279	-0.042155
C	-1.4030284513	-0.5450908714	 0.0219629105	 0.3586
C	-2.3625798197	-0.2216012287	-1.0874994824	-0.31273
C	-1.8732315135	-1.6362395923	-0.9111223305	-0.331064
H	-0.4322977059	 1.7450611215	 0.5705580505	 0.285313
H	 0.6113537976	-0.4338818895	-0.835508569	 0.080406
H	 1.0593988996	-1.4828768599	 1.306373016	 0.105855
H	 1.4074862292	 0.2111794751	 1.7042608919	 0.117367
H	-0.5231259919	-0.934412828	 3.2880587866	 0.097993
H	-2.7283551014	-1.023809694	 1.7934595701	 0.096977
H	-3.3920528545	 0.0001471831	-0.8263526063	 0.115134
H	-1.9749083306	 0.3618730264	-1.914988713	 0.130294
H	-1.1585797836	-2.028441458	-1.6271679059	 0.116856
H	-2.5675556127	-2.3770297	-0.5265995944	 0.111783
