19
gdb 79254	2.45166	2.07819	1.57686	1.6566	72.58	-0.2348	0.0825	0.3173	923.5859	0.160962	-423.031846	-423.024548	-423.023604	-423.062966	30.464	
C	-0.0001379993	 1.484828724	 0.0396039656	-0.487262
C	-0.0052772254	-0.0181300188	-0.0377844893	 0.317311
C	 0.7271219882	-0.7318881861	-1.1939565074	-0.263159
C	 0.5217187404	-2.1467794082	-0.666755753	-0.116733
C	 0.4648148856	-1.9777074861	 0.8304960016	 0.074927
O	 0.6137130011	-0.6006206897	 1.1390141906	-0.305615
C	-0.823157423	-2.1611573113	 0.0621232731	-0.158581
C	-1.385456746	-0.7455976869	-0.0207958015	 0.142761
O	-2.195578783	-0.3773765914	 1.071325506	-0.451308
H	 1.0146247171	 1.8613229604	 0.1954480083	 0.126075
H	-0.3903810219	 1.9120439713	-0.8889177877	 0.120282
H	-0.6335134675	 1.8248417213	 0.8630995875	 0.131425
H	 0.2490656535	-0.5468059783	-2.1603189913	 0.10301
H	 1.7817377028	-0.4462822635	-1.2524548829	 0.105322
H	 0.9354226509	-3.0272688364	-1.1396029394	 0.092009
H	 0.8742723787	-2.6558044183	 1.5652867116	 0.104442
H	-1.4507211032	-3.0378514083	 0.1442156452	 0.093563
H	-1.966076519	-0.552480227	-0.9266585328	 0.086265
H	-1.6325420501	-0.4494282167	 1.8531599057	 0.285267
