20
gdb 36776	5.99894	0.55265	0.52785	3.13	79.89	-0.2527	0.0317	0.2844	2014.2085	0.170857	-403.14458	-403.134982	-403.134037	-403.18102	33.216	
N	-0.0811635325	-1.1626351467	-0.1881015678	-0.302367
C	-0.0689611245	-0.0112729684	-0.0905536344	 0.256684
C	-0.0274472377	 1.4442249321	 0.0319882146	-0.341392
C	 1.4096112303	 2.0018434545	 0.0051866615	-0.182235
C	 1.4373681934	 3.5276892857	 0.142798251	-0.215395
C	 2.8485130982	 4.1015149259	 0.0994992418	-0.030314
C	 3.5600601182	 4.1518578056	-1.2745621991	-0.075095
O	 3.6706483096	 5.5873797973	-1.2189048268	-0.268587
C	 2.9826571804	 5.6406652829	 0.0462023093	-0.090234
H	-0.6180910793	 1.8784874636	-0.7832675201	 0.153654
H	-0.5271002352	 1.7284122808	 0.965697355	 0.152737
H	 1.9870187529	 1.5419024977	 0.8151383134	 0.123075
H	 1.8910563273	 1.6980386024	-0.9312539036	 0.125958
H	 0.8387041585	 3.9818313552	-0.6590792685	 0.105208
H	 0.9573747807	 3.8182938169	 1.0874964982	 0.103409
H	 3.4635414028	 3.6462969374	 0.8812387625	 0.083012
H	 4.541327776	 3.6660026329	-1.333870595	 0.105557
H	 2.9499220666	 3.8201803455	-2.1267178229	 0.095834
H	 2.0316953085	 6.1867203667	-0.0250393045	 0.097215
H	 3.5967613559	 6.1010963121	 0.8295912555	 0.103275
