20
gdb 98908	3.91213	0.97658	0.80778	5.0292	76.72	-0.2441	0.0249	0.2689	1417.5544	0.172319	-440.329379	-440.320403	-440.319459	-440.363815	32.792	
O	 0.0954722402	 1.3456368482	-0.1846534348	-0.425476
C	 0.0825051935	-0.0406585152	-0.0259624599	-0.147175
C	-1.3677719061	-0.5361766272	 0.0138043455	 0.373657
O	-2.2787294273	 0.2843155568	-0.0492645053	-0.406443
N	-1.5840898258	-1.8640098741	 0.1186360993	-0.083949
C	-0.5541665062	-2.9058764773	 0.176435238	-0.162511
C	-1.3461360293	-4.1636604825	 0.564447408	-0.221853
C	-2.7275528567	-3.917761267	-0.0663923063	-0.224749
C	-2.9468698118	-2.4128694908	 0.1377294697	-0.150781
H	-0.8477126999	 1.5894203775	-0.1894558148	 0.293275
H	 0.6184330263	-0.5399949684	-0.8492795721	 0.105913
H	 0.5899241813	-0.3411957892	 0.9063076373	 0.106121
H	-0.0672475815	-3.0316758211	-0.8007027836	 0.11581
H	 0.223600476	-2.6585465639	 0.9053897333	 0.121891
H	-0.8647220032	-5.0799669636	 0.2163418955	 0.112106
H	-1.4348682499	-4.2243446345	 1.6544183272	 0.115918
H	-2.6994826887	-4.1521049587	-1.1360873305	 0.113488
H	-3.5189811328	-4.5191239805	 0.3855905812	 0.112503
H	-3.427720534	-2.196433065	 1.0999363126	 0.11889
H	-3.5523070642	-1.9429010135	-0.6405602801	 0.133364
