19
gdb 103332	3.77886	1.1464	1.02306	1.842	72.21	-0.2354	0.0561	0.2915	1216.267	0.157455	-460.085465	-460.076629	-460.075684	-460.118523	34.216	
C	-0.1367624292	 1.5660108414	-0.0060615256	-0.435986
C	-0.0181049763	 0.0541758864	-0.020198483	 0.021998
C	 1.2683969316	-0.5922360082	-0.6069265079	-0.037701
O	 2.0333795728	-0.0960281888	 0.560264089	-0.319397
C	 0.7764888659	-0.6419531076	 1.1256768324	-0.033838
C	 0.9689216633	-1.8915207917	 0.2294759856	 0.465449
O	-0.1787518889	-2.6375188714	-0.0530964749	-0.492306
C	 2.1379629658	-2.8168847001	 0.5278883495	-0.172577
O	 2.1776559414	-3.7473770007	-0.5597523465	-0.440411
H	 0.8081978789	 2.0262772724	 0.2898402361	 0.134314
H	-0.4117228557	 1.942063105	-0.9975677029	 0.114478
H	-0.9166219116	 1.8880654427	 0.6925588322	 0.114078
H	-0.9449534452	-0.4482270024	-0.3003655444	 0.099979
H	 1.7260618341	-0.4778469331	-1.5906296	 0.089758
H	 0.6437100008	-0.5791102699	 2.2075953282	 0.086036
H	 0.1362793074	-3.4166496689	-0.5322275107	 0.291115
H	 3.0671861138	-2.2480581402	 0.612836807	 0.123796
H	 1.946665101	-3.3407532487	 1.4760186547	 0.094461
H	 2.7505916102	-4.4790697763	-0.3159083588	 0.296755
