19
gdb 41965	2.21894	2.07069	1.79695	1.5504	74.72	-0.2453	-0.004	0.2413	905.268	0.162725	-423.021842	-423.014905	-423.01396	-423.052847	28.648	
C	-0.0253386084	 1.5078085262	 0.0150294468	-0.061585
O	 1.2595483625	 2.1115674967	 0.0856181829	-0.274056
C	 2.3716996435	 1.2086724098	 0.1061801926	 0.06477
C	 2.5136490979	 0.5666055272	 1.5086322815	-0.230046
C	 1.6410523735	-0.6789529224	 1.704027791	-0.064537
O	 0.2786535933	-0.5129071955	 1.3366515063	-0.275406
C	 0.0189700085	-0.0266097923	 0.0088700293	 0.040786
C	 1.0368626085	-0.4632512984	-1.0210397476	-0.096648
C	 2.2137210634	 0.1596593793	-0.9750177232	-0.071875
H	-0.6167471836	 1.8384539368	 0.8782738086	 0.10431
H	-0.5251928714	 1.8509954883	-0.9017124518	 0.094836
H	 3.2390217446	 1.8457314392	-0.0858340459	 0.080686
H	 3.5581532998	 0.276969226	 1.6815335424	 0.09655
H	 2.2611527139	 1.3406385572	 2.2408860626	 0.113728
H	 2.0817549249	-1.5190907027	 1.1501643178	 0.092928
H	 1.6162192167	-0.9607912466	 2.7609075156	 0.10568
H	-0.9816601359	-0.3977389777	-0.232104523	 0.081811
H	 0.7904686642	-1.2257946242	-1.7515546362	 0.0977
H	 3.030746734	-0.053302827	-1.6567587896	 0.100367
