15
gdb 57180	2.97777	1.26853	0.89455	1.3536	64.84	-0.271	-0.0948	0.1762	1203.7393	0.110893	-491.150339	-491.140954	-491.14001	-491.186716	32.311	
C	-1.3452301363	 0.8992263146	-0.4273975756	-0.338573
N	-0.2568396402	-0.0294285123	-0.0661724687	-0.222874
C	-0.2638794922	-0.4618303365	 1.3254416889	 0.490846
N	 0.7204601653	-1.3100344336	 1.6773713215	-0.555483
O	-1.1232552962	-0.054612048	 2.077377143	-0.385336
C	 0.6728977641	-0.4376092956	-0.9813073667	 0.356924
O	 1.608581824	-1.2037747594	-0.7704651928	-0.377105
C	 0.6156591124	 0.0627151545	-2.4413401098	 0.10162
O	-0.1762696244	 0.8069481349	-2.9478193476	-0.232182
H	-0.9431065609	 1.8481316774	-0.7818192081	 0.146093
H	-1.9742440832	 0.4736967897	-1.2090801543	 0.146274
H	-1.9254500172	 1.0528439682	 0.4784429744	 0.179511
H	 1.4082045279	-1.6114255317	 1.0000439597	 0.294097
H	 0.7226967671	-1.612839073	 2.6358156957	 0.268913
H	 1.4635420098	-0.3935052592	-2.9907881298	 0.127276
