17
gdb 12948	2.67454	2.12203	1.66302	2.329	69.28	-0.2372	-0.0208	0.2164	873.6979	0.140783	-363.844019	-363.835939	-363.834995	-363.876278	29.794	
C	-0.0582391803	 1.5630046527	-0.0086215331	-0.432844
C	 0.0819457677	 0.0588897876	 0.1017744207	-0.016334
N	 1.2680807817	-0.7213505787	-0.2710802708	-0.172989
C	 2.4697779331	 0.0962517342	 0.1178714644	-0.291814
C	 2.0287226098	 0.0272037668	 1.590140882	 0.354079
O	 2.5743595568	 0.2119213107	 2.6412709867	-0.308469
C	 0.7693538059	-0.6942299478	 1.1983632691	 0.181724
C	 0.1738431318	-1.8526513313	 1.9403689737	-0.496143
H	 0.7597772084	 2.1173805906	 0.4540166774	 0.135688
H	-0.1267383713	 1.8624563051	-1.0601733443	 0.132201
H	-0.9841481408	 1.8746953372	 0.4848224045	 0.132844
H	-0.8115829073	-0.4638659707	-0.2396194832	 0.104368
H	 3.3857646677	-0.4794800604	-0.0415737565	 0.141258
H	 2.5627724243	 1.0664615612	-0.3749516392	 0.127319
H	-0.3865837341	-1.4975553906	 2.81178828	 0.138511
H	-0.5115269985	-2.4126251141	 1.2983648544	 0.133758
H	 0.9517146352	-2.5341034324	 2.2976815443	 0.136845
