18
gdb 71866	3.01213	1.59412	1.27832	2.8852	76.08	-0.2178	-0.013	0.2048	1023.5671	0.148727	-401.931668	-401.924299	-401.923354	-401.963258	29.433	
C	-0.0695767512	 1.5330469971	 0.0150388817	-0.504328
C	 0.0315845542	 0.0365328978	-0.0270091633	 0.317585
C	 0.8193858774	-0.7981626191	-1.0253232735	-0.238756
N	-0.1454690154	-1.9471773846	-0.8288595221	-0.124281
C	 0.4208091581	-2.8851894931	 0.1532118173	-0.290292
C	 0.5715055033	-2.0745170295	 1.4581565225	 0.393631
O	 1.1662888915	-2.3994994515	 2.4550017219	-0.329023
C	-0.2322250528	-0.8297771749	 1.2338976572	-0.214065
C	-1.0251242001	-1.0233699093	-0.0399334859	-0.092398
H	 0.8629136993	 1.9830853786	 0.3730875629	 0.13296
H	-0.2741122067	 1.9339513265	-0.9840197668	 0.128025
H	-0.8747093572	 1.861057971	 0.679631405	 0.127107
H	 0.7381735884	-0.4141411616	-2.0471286002	 0.113357
H	 1.8689925884	-1.0277340542	-0.8075903008	 0.108079
H	-0.278963703	-3.712372214	 0.3253851472	 0.130544
H	 1.3695492502	-3.3088392488	-0.184801081	 0.131423
H	-0.639634976	-0.3008424453	 2.086445524	 0.107796
H	-2.1030844884	-1.0046416651	-0.1421819062	 0.102636
