17
gdb 83560	3.18628	1.3539	1.17433	1.1383	73.92	-0.2449	0.042	0.2869	1071.9682	0.136393	-421.76356	-421.755989	-421.755044	-421.795326	30.431	
O	 0.0370248234	 1.5750739061	 0.0133453686	-0.450808
C	 0.0225523707	 0.1828386024	 0.0334054888	 0.163155
C	-1.3327168595	-0.6070814876	-0.1263881029	-0.117935
C	-1.8339425758	-0.0004983821	-1.4343428121	-0.120859
O	-0.5908287308	 0.0295826766	-2.1971219526	-0.299542
C	 0.3388791294	-0.5691085039	-1.278218734	 0.043237
C	-0.4565219845	-1.7836208729	-0.7002136872	-0.210682
C	 0.2247546875	-2.616931204	 0.2649371311	 0.307595
C	 0.7872765586	-3.3262599709	 1.0569014506	-0.432979
H	-0.1227075617	 1.8398169972	-0.9019719212	 0.294168
H	 0.5955340171	-0.167087064	 0.8909434801	 0.111717
H	-2.0392094829	-0.7516988944	 0.6879823031	 0.088955
H	-2.5745011326	-0.612699709	-1.9585164052	 0.112469
H	-2.2235324455	 1.0160830827	-1.3156192431	 0.110511
H	 1.3219049243	-0.6484509409	-1.7378408123	 0.095386
H	-0.9443270736	-2.3882656285	-1.4698389251	 0.109869
H	 1.2833018759	-3.9519189965	 1.7569821135	 0.195743
