20
gdb 22266	2.1901	1.35532	1.03522	2.0966	78.67	-0.237	-0.0011	0.2359	1242.5163	0.167494	-440.234067	-440.223788	-440.222844	-440.269229	37.996	
C	 0.5557196584	 1.3631939614	 0.0574078844	-0.477835
C	-0.002081588	-0.0349749832	 0.0217999829	 0.30019
N	-0.4965947579	-0.6213787614	 1.0475567755	-0.189453
O	-0.4398672803	 0.1829362338	 2.194625378	-0.395874
C	-0.0337796124	-0.7951034046	-1.2664444114	 0.208294
C	-1.0396734172	-0.2545346887	-2.2721405757	-0.460725
C	 1.2842325403	-1.3413394074	-1.8049878134	-0.34645
C	 0.2326743723	-2.2825175681	-1.2648189404	 0.08907
O	 0.5028181122	-2.975599613	-0.0907960107	-0.432177
H	 0.9653432011	 1.6481658289	-0.9124913306	 0.12796
H	-0.2207609881	 2.0787646015	 0.3471683263	 0.148482
H	 1.3417665786	 1.4366759799	 0.8155128039	 0.151392
H	-0.8371256535	-0.3826212435	 2.8653065822	 0.30792
H	-0.8279939372	 0.7890092956	-2.5321563312	 0.119002
H	-1.0091832634	-0.8361468016	-3.1983624262	 0.121482
H	-2.0582942623	-0.3040765214	-1.8727975685	 0.127193
H	 1.4644639818	-1.2880822041	-2.8739316429	 0.107466
H	 2.1646785148	-1.228436825	-1.1816373748	 0.120729
H	-0.3332496476	-2.8619454415	-1.9947255009	 0.084277
H	 0.0112878083	-2.5252961076	 0.6126981734	 0.289057
