17
gdb 34399	2.72133	1.57229	1.30181	0.8163	73.83	-0.2528	0.0291	0.2819	1021.2692	0.135822	-421.775427	-421.767684	-421.76674	-421.807629	30.007	
C	 0.0327848116	-1.2590599473	-0.3039594126	-0.385753
C	 0.0290229433	-0.0779657276	-0.0839843795	 0.250214
C	 0.0390417494	 1.3518250482	 0.1412842989	 0.157937
C	-0.3814207415	 2.2726404772	-1.0395595396	-0.120882
O	 0.837280172	 3.0364725729	-0.9371019495	-0.293472
C	 1.3788202508	 2.1590766501	 0.0726305018	 0.060962
C	 1.4952368307	 2.8154228559	 1.4388251205	-0.243441
C	 0.0300536643	 2.8600129591	 1.8960018799	-0.097832
O	-0.5660247291	 1.6642129423	 1.3846176992	-0.299397
H	 0.0336509821	-2.3048561811	-0.489586621	 0.196215
H	-0.4690949702	 1.7627245393	-2.0049272712	 0.112321
H	-1.2767243819	 2.8737943785	-0.8463830146	 0.113216
H	 2.2750225535	 1.6369920211	-0.2717606651	 0.089112
H	 2.0917373065	 2.1799238184	 2.1015103292	 0.115671
H	 1.9588315697	 3.8029752846	 1.3801533075	 0.12016
H	-0.1010067068	 2.8512206824	 2.9801640394	 0.116632
H	-0.4738139145	 3.7475826261	 1.4890728165	 0.108336
