21
gdb 122097	3.0861	0.68771	0.58009	0.8161	82.49	-0.258	0.0435	0.3015	1907.6248	0.179198	-424.174502	-424.163398	-424.162454	-424.211763	38.768	
C	-0.1863780226	 1.3656614848	 0.073884081	-0.230734
O	-0.1140627339	-0.0374891779	-0.0067486471	-0.231063
C	 0.6734808764	-0.4861022538	-1.0867796311	-0.06508
C	 0.6979884195	-2.0108087555	-1.0430063377	-0.207405
C	 1.3757538171	-2.6589743894	-2.2698468211	-0.191922
C	 2.8870560298	-2.3320961941	-2.3687425385	-0.053568
O	 3.5000813524	-2.93859053	-3.4834670154	-0.421628
C	 1.2072114916	-4.1117687775	-2.2525322597	 0.289427
C	 1.1249337706	-5.3121226695	-2.2321338425	-0.44641
H	 0.8076610386	 1.819514408	 0.2145121881	 0.104137
H	-0.637491943	 1.8053103165	-0.8300657399	 0.104137
H	-0.8116104278	 1.6120933837	 0.9353912582	 0.128526
H	 0.2489544004	-0.1371227367	-2.0454992873	 0.086533
H	 1.6895838246	-0.0637283585	-1.0139622226	 0.090469
H	 1.1987475979	-2.341714586	-0.1265042729	 0.117041
H	-0.336301575	-2.3620331419	-0.979056755	 0.123574
H	 0.9022986524	-2.2739730661	-3.1838301419	 0.113317
H	 3.0221009221	-1.2546069966	-2.4978021265	 0.111084
H	 3.3729618591	-2.6222126433	-1.4229733716	 0.09382
H	 3.3268444064	-3.8860053697	-3.4199222749	 0.285502
H	 1.0193289534	-6.3688815366	-2.2151679217	 0.200243
