22
gdb 95682	2.65484	1.29928	0.98064	3.036	83.44	-0.2523	0.0177	0.27	1279.4278	0.195979	-404.36738	-404.358246	-404.357302	-404.401546	34.51	
C	 0.1169454467	 1.61344121	 0.0547916164	-0.404647
C	-0.0105847239	 0.0833077755	-0.010188188	 0.00093
C	 0.6404088545	-0.4645032833	-1.2960312051	-0.197893
C	 0.1302819015	-1.841822889	-1.7589752937	-0.210931
C	-0.2591049733	-2.8086156768	-0.6222216166	-0.255626
C	 0.702333949	-2.8459554784	 0.5402720928	 0.35738
N	 1.5420176114	-3.7836317905	 0.6782432872	-0.477275
O	 0.5154875426	-1.8954319132	 1.5166796699	-0.26724
C	 0.6490893932	-0.4951457713	 1.2509368397	-0.062924
H	 1.1686986965	 1.9224710992	 0.0325737219	 0.11973
H	-0.3815047345	 2.078655239	-0.8006234422	 0.119804
H	-0.3316934046	 2.019218386	 0.9673449885	 0.115594
H	-1.0788118352	-0.169593441	 0.0011457808	 0.082718
H	 0.4968796749	 0.2531800637	-2.111670364	 0.094833
H	 1.7253893374	-0.5106215689	-1.1305397501	 0.102099
H	-0.7493043483	-1.7132620057	-2.4000022223	 0.100916
H	 0.8980575313	-2.3127810351	-2.381485207	 0.115087
H	-1.24238911	-2.5359773448	-0.2252206153	 0.113562
H	-0.3305973067	-3.8223692094	-1.0208139258	 0.126451
H	 2.0783208439	-3.6374036897	 1.5369684923	 0.215997
H	 1.7221979032	-0.2488262276	 1.2198928365	 0.099144
H	 0.2280255105	-0.0188904086	 2.1411006042	 0.11229
