14
gdb 29426	6.899	0.88301	0.78749	3.7828	68.87	-0.2064	-0.0092	0.1972	1365.8194	0.101424	-470.022024	-470.013855	-470.012911	-470.055565	29.266	
N	 0.0212372476	 1.3433220715	 0.237652309	-0.596443
C	-0.041661143	-0.0277376793	 0.0530613711	 0.2846
C	-1.1045116221	-0.8625780572	-0.0800256492	-0.135692
O	-0.5918612073	-2.1612887	-0.1663081174	-0.196902
C	 0.7311571872	-1.985064395	-0.0688436849	 0.513926
O	 1.5349293081	-3.0515089539	-0.1564216226	-0.209178
C	 1.0300675605	-4.3004444068	 0.1118312143	 0.112236
N	 1.7598970484	-5.2929221304	-0.1293877321	-0.413094
N	 1.1385374626	-0.768325833	 0.0609136243	-0.388046
H	 0.9188078005	 1.7203794112	-0.0339902192	 0.261177
H	-0.7415103155	 1.8605124866	-0.1747909301	 0.251518
H	-2.1731378335	-0.7663591559	-0.1200085915	 0.136679
H	 0.0218237134	-4.2790657975	 0.5281821604	 0.135976
H	 1.2805295231	-6.1507815803	 0.137256388	 0.243244
