19
gdb 88787	2.75557	1.29838	1.05929	0.8403	75.75	-0.2573	-0.0348	0.2225	1194.727	0.157869	-423.006836	-422.998044	-422.9971	-423.040731	32.606	
C	 1.1773694772	 1.2285098771	-0.3703688659	-0.430672
C	 0.1731673784	 0.1528475793	-0.0124106197	 0.006486
C	 0.624618452	-1.2018283017	 0.4815197064	-0.311615
C	-0.0986150597	-0.2593072196	 1.416073372	-0.037738
C	 0.5589227863	 0.3987615719	 2.6061525822	-0.005966
O	 0.2490160393	-0.2803329607	 3.8580498573	-0.289869
C	 1.6271470126	-0.5085365612	 4.2027037039	-0.177243
C	 2.0537104433	 0.1618530763	 2.8967809207	 0.334337
O	 3.0868377884	 0.3880788494	 2.3425578833	-0.274671
H	 2.0568456022	 1.1959153643	 0.2787773885	 0.151858
H	 1.5210254606	 1.1030746663	-1.4029214642	 0.117203
H	 0.7334884824	 2.2276394401	-0.2911071659	 0.112484
H	-0.707789575	 0.1438300862	-0.6495478032	 0.086424
H	 0.1016845013	-2.0897418429	 0.1437634023	 0.111811
H	 1.6911917656	-1.3410593792	 0.6255224958	 0.12579
H	-1.1298437054	-0.5116119091	 1.6499702935	 0.104313
H	 0.283043311	 1.4619047518	 2.6729901973	 0.108703
H	 1.9407658072	 0.0162260448	 5.1147164858	 0.132257
H	 1.8801382124	-1.5728110832	 4.29142429	 0.136108
