17
gdb 112330	2.97271	1.35132	1.03254	2.7849	69.62	-0.2622	0.0222	0.2844	1140.8538	0.137249	-455.125593	-455.117707	-455.116762	-455.15839	29.85	
O	 0.0330745365	 1.3969979384	-0.1161766621	-0.415622
C	 0.0625543246	-0.014092634	-0.1245396408	-0.071666
C	-1.3108976077	-0.6066360726	 0.1665108367	 0.065481
O	-2.2210612267	-0.1810542834	-0.8673225846	-0.272845
C	-3.0207584442	-1.2275353927	-1.2732479669	 0.430909
N	-3.995782141	-1.1321461503	-2.0612823166	-0.533527
N	-2.6051451211	-2.4555521281	-0.6813091283	-0.131575
C	-1.2395903121	-2.8316198521	-1.1318426963	-0.253236
C	-1.4360561354	-2.1201008577	 0.1520460877	-0.055887
H	-0.6211026521	 1.6674994085	-0.7703950187	 0.294957
H	 0.4364566091	-0.4108769925	-1.0804534742	 0.094548
H	 0.7612112042	-0.3209347579	 0.6612780688	 0.118645
H	-1.6731563904	-0.2067819842	 1.1219756755	 0.106387
H	-4.1236164346	-0.1630170075	-2.3506854163	 0.228644
H	-1.0549687683	-3.9003046464	-1.1320884559	 0.138935
H	-0.8266179429	-2.2904110255	-1.9777080126	 0.138979
H	-1.347989538	-2.6500428022	 1.0942210244	 0.116874
