18
gdb 97237	2.94441	1.43301	0.99871	3.7265	79.15	-0.2196	-0.0302	0.1894	1180.8142	0.149201	-435.274705	-435.266154	-435.26521	-435.308456	31.7	
C	 0.1400240531	 1.3971764917	 0.3608386575	-0.293758
N	-0.0266991566	-0.012199145	 0.0817357193	-0.308014
C	-1.147334554	-0.5879195427	-0.095645087	 0.302058
N	-1.1424591778	-1.9692610845	-0.2682831483	-0.334229
C	-2.2576915013	-2.638210992	-0.9010226857	-0.180598
C	-3.5093798278	-2.1631387403	-0.1934006692	-0.064195
O	-3.6211662852	-0.739026997	-0.2752830612	-0.260528
C	-2.5164787993	 0.0508086797	-0.1191138018	 0.342059
N	-2.6471183514	 1.3104242241	-0.042946472	-0.50422
H	 1.1976617908	 1.5767490159	 0.5777768717	 0.10044
H	-0.1540911162	 2.021120183	-0.4910547549	 0.129779
H	-0.4626320835	 1.7396584105	 1.209451456	 0.12738
H	-0.2118083671	-2.3219061442	-0.4418606315	 0.24372
H	-2.3389750038	-2.4327201991	-1.981430488	 0.11085
H	-2.1499737051	-3.7197046914	-0.7730339814	 0.120865
H	-4.4164941756	-2.5560972799	-0.6580340944	 0.12214
H	-3.4834896932	-2.4677111602	 0.860142629	 0.121608
H	-3.6394675161	 1.5526063415	-0.0880108681	 0.224643
