23
gdb 96124	2.10425	1.78464	1.21208	1.1979	85.24	-0.2419	0.0837	0.3256	1149.5601	0.206787	-388.297566	-388.288676	-388.287732	-388.330442	35.43	
C	-0.1125704525	 1.4970229284	-0.0389198492	-0.404951
C	 0.0492944749	-0.0176157573	 0.022365807	 0.063083
O	 0.7263181058	-0.4037735741	-1.168082618	-0.257999
C	 0.8731200335	-1.8094395336	-1.267937754	-0.07234
C	 1.8979676485	-2.3402232932	-0.2612458268	-0.236047
C	 1.7239138858	-1.6813122686	 1.1046180655	-0.077235
C	 2.2681741939	-0.2887322222	 1.3384883829	-0.321453
C	 0.7778708475	-0.5046077076	 1.2753106371	 0.344136
C	-0.0248848264	-0.4151114547	 2.5576154185	-0.474988
H	 0.8645481425	 1.9877014375	-0.0133486864	 0.123437
H	-0.6171565659	 1.7796387089	-0.9667117996	 0.120086
H	-0.7068724776	 1.8620642305	 0.8031276444	 0.114301
H	-0.9537034553	-0.4848419455	 0.0170558302	 0.055235
H	-0.1041567972	-2.2942045975	-1.1048932463	 0.083467
H	 1.1823116657	-2.0180448871	-2.2965480651	 0.101055
H	 1.7816663933	-3.4263202301	-0.1745940289	 0.095919
H	 2.9118886464	-2.1619233801	-0.6381942588	 0.10453
H	 1.782422159	-2.3563842759	 1.953593424	 0.077272
H	 2.7161550744	-0.058676751	 2.2996534635	 0.100647
H	 2.7398144915	 0.1965043893	 0.4896606534	 0.116599
H	-0.2696761649	 0.6216635899	 2.8148617617	 0.117771
H	-0.9681001827	-0.9690594684	 2.4766902354	 0.113466
H	 0.5355811599	-0.8363466577	 3.3980731197	 0.114008
