16
gdb 86507	5.32841	0.63348	0.62271	4.8844	84.97	-0.2724	-0.0374	0.235	1738.4846	0.123942	-400.723492	-400.714696	-400.713751	-400.757922	31.664	
O	 0.5461012945	 0.5743289574	-0.685945274	-0.425199
C	-0.0983326882	-0.3262838124	 0.1761773922	 0.159964
C	-0.0067659626	-0.0890456436	 1.7099760296	-0.265631
C	-1.54986119	-0.3670024887	 1.8024014559	-0.220465
C	-1.6230844389	-0.1199401341	 0.2532055819	-0.241336
C	-1.8880265327	-1.7106563482	 2.2095358049	 0.185829
C	-2.1663441272	-2.8384665849	 2.5482484247	-0.045947
C	-2.4765812152	-4.1112759406	 2.9288705859	 0.206808
N	-2.7390589384	-5.1962697135	 3.2524635016	-0.340377
H	 1.4700227556	 0.3182253684	-0.7688754524	 0.288756
H	 0.1452351665	-1.3684746066	-0.0707814307	 0.085332
H	 0.653162169	-0.7242101161	 2.3025885794	 0.116264
H	 0.1997436927	 0.963345546	 1.9185653526	 0.121386
H	-2.1121554837	 0.3461997826	 2.410668868	 0.124454
H	-1.8693093943	 0.9248168179	 0.0503193615	 0.127699
H	-2.2673929171	-0.7735549536	-0.3349697212	 0.122463
