25
gdb 100287	1.79285	1.30663	1.11732	2.1387	84.29	-0.2619	0.0601	0.3221	1320.5479	0.22657	-426.619158	-426.607699	-426.606755	-426.654708	43.322	
C	 1.0260608968	-1.1196653612	-0.8136835338	-0.412856
C	 0.1997732049	-0.1345118933	 0.0317123014	 0.04205
C	 0.5185528148	 1.3016473169	-0.418389409	-0.410747
C	-1.3371325866	-0.437253967	 0.0861055534	 0.23263
C	-1.6097687593	-1.9496700873	 0.2112100353	-0.451345
C	-1.9427055594	 0.2681851316	 1.3278183022	-0.093271
O	-1.4010010601	-0.1702949208	 2.5633351356	-0.422369
C	-2.1102169832	 0.1039242192	-1.1275343323	-0.099488
O	-1.601730337	-0.4707620439	-2.3256721584	-0.420635
H	 2.085119083	-0.8425286253	-0.7693476353	 0.099235
H	 0.9472406641	-2.1475607131	-0.4499472073	 0.103336
H	 0.711402736	-1.1032709618	-1.8594061292	 0.134664
H	 0.5350859704	-0.2359056973	 1.0715154411	 0.086317
H	 0.295609188	 1.4384993794	-1.4816916741	 0.119679
H	-0.0332798674	 2.0590822003	 0.1468556563	 0.106485
H	 1.584260666	 1.5088649028	-0.2774646329	 0.108742
H	-1.0008243812	-2.4061728989	 0.9985573623	 0.109019
H	-2.6659618769	-2.1308628172	 0.4482215984	 0.09764
H	-1.3903612505	-2.4683065909	-0.7232344591	 0.141783
H	-1.7448061149	 1.3438232573	 1.2927333208	 0.10864
H	-3.0374779178	 0.1405514568	 1.3162217613	 0.080133
H	-1.6694279379	-1.0844121937	 2.6970023332	 0.285049
H	-3.1774680479	-0.143730461	-1.005706418	 0.079591
H	-2.0344916628	 1.2008047972	-1.1611414856	 0.087984
H	-2.1216675113	-0.1373032589	-3.0624590762	 0.287732
