15
gdb 56951	3.78612	1.03025	0.90027	4.6669	72.48	-0.2704	0.0071	0.2775	1248.9015	0.111254	-416.745048	-416.736258	-416.735314	-416.779024	32.026	
O	-0.1541399331	 1.3313767247	-0.1507776203	-0.40204
C	-0.0120370161	-0.0597310511	-0.1157666549	-0.019962
C	 0.8409881027	-0.5452866863	-1.2319110725	 0.253034
N	 1.5127755372	-0.9326011418	-2.0884608646	-0.316066
C	 0.5932459124	-0.5506971237	 1.2050031955	-0.040041
N	 1.3554777104	 0.4677946247	 1.9177055477	-0.340903
C	 0.1164755608	-0.0634623122	 2.5372068369	-0.250276
C	-0.9983200078	 0.8222603481	 2.7282413444	 0.374332
C	-1.9525502878	 1.5193809548	 2.9444227762	-0.420465
H	 0.5592291822	 1.6850347796	 0.4062050876	 0.30532
H	-1.0069268257	-0.503168139	-0.2468739967	 0.145138
H	 0.9761017173	-1.5677080027	 1.1734220304	 0.122248
H	 2.1875147386	 0.0931962462	 2.3626117541	 0.255348
H	 0.2563540636	-0.7764125836	 3.3478321081	 0.126165
H	-2.7906158046	 2.1502339022	 3.1117010681	 0.208168
