14
gdb 13577	4.14291	1.31299	1.25807	3.6176	66.59	-0.269	-0.0716	0.1974	1003.0092	0.103977	-382.494244	-382.486064	-382.485119	-382.527234	28.924	
C	 0.3458727801	 1.4530654559	-0.5451910637	-0.433353
C	 0.0016840519	 0.0774005023	-0.043373684	 0.086268
O	 1.0589525056	-0.8613474496	 0.0926254644	-0.227269
C	 0.406812106	-0.4576851485	 1.2876555788	-0.069645
C	 1.1957585926	 0.3811525868	 2.2546774785	 0.24773
O	 2.2144154728	 0.9692124254	 1.9638895985	-0.289905
C	 0.6126265134	 0.4537272515	 3.5844170618	 0.253679
C	 0.1196850243	 0.5001501343	 4.6817528946	-0.424502
H	 1.2512312403	 1.8295575083	-0.067754501	 0.165686
H	 0.5104093018	 1.4166520721	-1.6271244324	 0.134486
H	-0.4820919866	 2.1441504526	-0.3554050248	 0.124066
H	-0.9169489351	-0.3538772252	-0.4474840318	 0.102714
H	-0.2314326398	-1.2087897925	 1.7531132706	 0.109764
H	-0.3028471174	 0.5549497366	 5.6559164107	 0.22028
