19
gdb 98856	2.93516	1.17598	1.01678	2.9904	71.8	-0.2497	0.0038	0.2535	1252.0121	0.157645	-460.173234	-460.163537	-460.162593	-460.209024	33.562	
C	-0.031140671	 1.4230489991	-0.232948695	-0.241465
O	-0.1219140834	-0.0077086368	-0.2035108888	-0.23415
C	 0.6524313713	-0.6532879902	-1.1007077208	 0.424465
O	 1.3693187774	-0.1061685381	-1.8965201608	-0.354774
C	 0.5218882026	-2.1560319516	-0.9067898903	 0.00115
O	 0.9646579592	-2.892601023	-2.0484190323	-0.269711
C	 2.1332314334	-3.3783091757	-1.3529283453	-0.077389
C	 1.6373947179	-2.7895675044	-0.0126013259	-0.033298
C	 2.5701404398	-1.8907507904	 0.7831774965	-0.426638
H	 0.9958931008	 1.7484534327	-0.0488197743	 0.140385
H	-0.3510906363	 1.8074102922	-1.2046183229	 0.144611
H	-0.6933140726	 1.7800412496	 0.5557505499	 0.133971
H	-0.5084700772	-2.3955943802	-0.6241511088	 0.099083
H	 2.2225106465	-4.4684199596	-1.4136855733	 0.104673
H	 3.0509955882	-2.9152826788	-1.7370721422	 0.111705
H	 1.2072489402	-3.5592870178	 0.6327289878	 0.091997
H	 3.0098494123	-1.1157845496	 0.1479649666	 0.139907
H	 2.0388646822	-1.3991431229	 1.6046325828	 0.125995
H	 3.3878062685	-2.4751851346	 1.2176588672	 0.119483
