20
gdb 67777	2.68985	2.06508	1.56847	1.3936	81.9	-0.2151	0.0091	0.2242	932.9662	0.173278	-365.97486	-365.967805	-365.966861	-366.005638	30.13	
C	-0.0108344684	 1.5586842002	-0.0356591902	-0.522252
C	 0.0621387259	 0.052392541	 0.0208311393	 0.313504
C	 0.523225452	-0.7029738426	-1.2221040262	-0.131683
C	 0.3726900059	-1.9801397036	-0.8764126104	-0.09294
C	-0.1634873241	-1.8664034906	 0.5381214079	-0.059029
C	 0.7245888632	-0.7605670383	 1.2047036883	-0.037953
C	-0.0509629347	-0.3495876836	 2.448069796	-0.263176
C	-1.4739764603	-0.3684955934	 1.8002574199	-0.169535
N	-1.2148979545	-0.7530163313	 0.3943009435	-0.143744
H	 0.963461326	 1.9747314729	-0.3134258372	 0.121822
H	-0.7409681731	 1.8759228535	-0.7874658896	 0.132701
H	-0.2993848694	 2.0009605657	 0.9217021145	 0.120023
H	 0.8578596483	-0.2523626843	-2.1457251089	 0.102375
H	 0.5490651942	-2.8899306531	-1.4308222005	 0.106993
H	-0.4713691969	-2.7632427506	 1.0787078283	 0.062171
H	 1.8097988271	-0.8707089229	 1.271739512	 0.059382
H	 0.0578885129	-1.0661552669	 3.2678348239	 0.097514
H	 0.2390935313	 0.6353069733	 2.8272092309	 0.098286
H	-2.1397568476	-1.1058584313	 2.2578697459	 0.102536
H	-1.9788643478	 0.600572436	 1.8351080624	 0.103005
