19
gdb 75229	3.47755	1.15232	1.03075	3.2484	83.26	-0.2335	-0.0159	0.2176	1223.1435	0.158968	-385.913801	-385.905431	-385.904487	-385.946633	32.112	
C	 0.0225964864	 1.5056089908	 0.0875096862	-0.496813
C	 0.0108593003	 0.0114657668	-0.0008233292	 0.336741
C	 0.0207892254	-0.7441950037	-1.104629654	-0.180642
C	-0.0422822664	-2.2256643419	-0.8146223265	-0.348081
C	-0.0089192309	-2.2966401384	 0.7091629735	 0.252244
C	 1.2007105578	-1.7266170567	 1.4316958602	-0.329915
C	 0.011578381	-0.8402696029	 1.2323055063	-0.171882
C	-0.8229780648	-3.3002393431	 1.4187943283	 0.08481
O	-1.5295884515	-4.1215867971	 0.8846075943	-0.273032
H	 0.9016831367	 1.8671779623	 0.6354588901	 0.128733
H	 0.0252473014	 1.9636522969	-0.904930825	 0.127555
H	-0.8568926136	 1.8764495075	 0.629125554	 0.128398
H	 0.0774192245	-0.3537143219	-2.1151047397	 0.091522
H	-0.9640651794	-2.6880271881	-1.1878417131	 0.134096
H	 0.787309648	-2.7794546701	-1.2720596014	 0.113035
H	 1.3884836729	-2.1052594077	 2.4323487001	 0.12026
H	 2.0892388929	-1.5408559654	 0.8375423601	 0.125129
H	-0.5724401949	-0.5450854883	 2.0989115467	 0.096475
H	-0.7456040658	-3.2454796289	 2.5307387992	 0.061368
