16
gdb 128182	3.95465	1.15011	0.90271	7.1226	80.8	-0.2006	-0.0452	0.1555	1247.1906	0.125505	-430.215956	-430.207388	-430.206444	-430.249793	31.055	
C	 0.1315293824	 1.4525141657	 0.1208564216	-0.348621
N	-0.2092996449	 0.0622500811	-0.1438496094	-0.368122
C	 0.4741443344	-0.703477571	-1.0621866201	 0.529512
C	 0.5793504114	-2.0562176668	-1.0379095555	-0.323101
C	 1.2664024212	-2.7326225369	-2.1086629463	 0.389035
N	 1.4224111782	-4.0029244783	-2.1624799363	-0.541764
N	 1.8016978373	-1.9060636222	-3.1636675806	-0.247488
N	 1.6995535022	-0.6586698297	-3.1559952376	-0.043698
N	 1.0648697251	-0.0397161732	-2.1153236466	-0.320755
H	 1.1934892607	 1.6060252121	 0.3592979851	 0.137275
H	-0.1341218375	 2.0933821394	-0.7277124996	 0.138722
H	-0.4645277357	 1.7947654902	 0.9683328173	 0.149066
H	-0.4862761597	-0.466353674	 0.6691841591	 0.256884
H	 0.1546809186	-2.6391597737	-0.2309523566	 0.104373
H	 1.940990867	-4.2305822282	-3.0131195593	 0.214651
H	 0.988640259	 0.9542698354	-2.2433801852	 0.274032
