16
gdb 97269	4.19748	0.88258	0.7359	3.7906	79.76	-0.2692	-0.0749	0.1943	1479.0901	0.122655	-434.099365	-434.089635	-434.088691	-434.134454	33.101	
C	 0.0892232184	 1.4268091883	 0.0821821002	-0.319489
N	 0.0206840241	-0.02090186	 0.0668809058	-0.237452
C	 0.5624292556	-0.6190288021	-0.9056205731	 0.109116
N	 0.5327457641	-2.0186482048	-0.9824036584	-0.154888
C	-0.1394337733	-2.7503811521	 0.0903794179	-0.347586
C	 1.1382705699	-2.6165678077	-2.0629711689	 0.374758
O	 1.7010176531	-2.0323626441	-2.9636913482	-0.336482
C	 1.072450303	-4.0898459788	-2.0852131658	 0.214761
N	 1.0685702067	-5.2414218589	-2.1832332902	-0.321812
H	 0.6208456149	 1.8570692862	-0.7797811239	 0.110724
H	-0.9265952443	 1.8363958421	 0.108093594	 0.137553
H	 0.5870776505	 1.7552951729	 1.0011802489	 0.137553
H	 1.0827484874	-0.1546908225	-1.745333037	 0.146323
H	-0.0816490343	-3.8199744905	-0.1045304414	 0.169359
H	 0.3363854964	-2.5204412902	 1.0459756264	 0.158785
H	-1.1844978922	-2.4390802776	 0.1485254135	 0.15878
