19
gdb 114374	2.44536	1.28721	0.99751	4.3196	77.24	-0.2335	-0.013	0.2205	1243.0195	0.158128	-422.991574	-422.98274	-422.981795	-423.025627	32.345	
C	 0.130432505	 1.3765169602	 0.0729472769	-0.242183
O	-0.2840440516	 0.058182142	-0.2201464058	-0.238614
C	 0.5258003655	-0.580576505	-1.1706662455	 0.14115
C	 1.9149174798	-1.1791126684	-0.7350930258	-0.29023
C	 1.4221925038	-2.5462324454	-1.2253181022	-0.077086
C	 0.1802274403	-3.0070846912	-0.4884530458	-0.098514
C	-0.1060454655	-2.7769320557	 0.9542426367	 0.146744
O	-0.6269682584	-3.6145859218	 1.6531619972	-0.27454
C	 0.0615687441	-1.9672954571	-1.5933464115	-0.119539
H	 1.140429933	 1.4044369986	 0.5078714118	 0.111255
H	 0.1245876808	 2.0092667931	-0.8279792596	 0.108379
H	-0.5766623553	 1.7849863722	 0.7980108962	 0.134549
H	 0.6546840717	 0.0674264308	-2.0502472415	 0.078964
H	 2.7415950491	-0.7863549103	-1.3306484622	 0.110775
H	 2.1760296938	-1.0976868985	 0.3227082248	 0.111392
H	 2.0176157396	-3.2636189471	-1.7758563253	 0.102411
H	-0.1629904768	-3.9876544822	-0.8076055507	 0.108568
H	 0.1758676723	-1.7877537653	 1.3598292417	 0.086865
H	-0.5715124111	-2.173592449	-2.4475205195	 0.099653
