17
gdb 34615	3.18058	1.40726	1.07441	3.6896	80.41	-0.2344	-0.0459	0.1885	1104.5281	0.138592	-380.873148	-380.865796	-380.864851	-380.905213	28.145	
N	-0.0562709929	-0.9801441307	 0.5615844137	-0.334514
C	-0.0964443904	 0.155000531	 0.3320146569	 0.2055
C	-0.0856401531	 1.5471387172	 0.0563339007	 0.19642
C	-1.155491141	 2.3418272177	-0.0807512859	-0.171679
C	-0.732422706	 3.755414041	-0.4092814028	-0.223161
N	 0.7292662078	 3.7471891398	-0.2780613131	-0.089542
C	 1.2682343719	 4.033647602	 1.0823431312	-0.168209
C	 2.0461475856	 2.694273511	 1.0675668373	-0.243298
C	 1.1953618084	 2.333718857	-0.1752532522	-0.094639
H	-2.18717896	 2.0205972351	-0.0028728641	 0.126571
H	-1.0493990989	 4.0285883897	-1.4269056675	 0.124854
H	-1.1773726166	 4.4982774425	 0.2654422191	 0.120955
H	 1.8608698688	 4.9514756221	 1.1336978001	 0.111669
H	 0.4919625315	 4.0732016179	 1.8584834874	 0.099529
H	 3.1065711079	 2.8036962071	 0.8359113358	 0.120013
H	 1.932531419	 2.0488131114	 1.9391239866	 0.121256
H	 1.7417065677	 1.949015138	-1.0445731933	 0.098277
