17
gdb 73992	2.76639	1.89645	1.31948	3.4885	82.1	-0.2228	-0.0681	0.1546	970.8275	0.135632	-384.624577	-384.617113	-384.616168	-384.65655	29.05	
C	-0.1696142938	 1.3768680376	-0.074110192	-0.474953
C	-0.0716696836	-0.0445455051	 0.3719359368	 0.118293
C	-1.0714135235	-0.9646461318	 0.4309669248	-0.002734
C	-1.7578110372	-1.4101104354	-0.8586097257	-0.269263
C	-0.7128181318	-2.5911189499	-0.7595205573	-0.066536
C	-0.5533323076	-2.3757171643	 0.7007878135	-0.117927
C	 0.7019933926	-2.2428186903	-0.1189012374	-0.158304
C	 1.1910848747	-0.8285900342	 0.1066060142	 0.346242
O	 2.2950636849	-0.3888895815	-0.115889368	-0.340399
H	 0.63363082	 1.6236061907	-0.7744886248	 0.145624
H	-1.142596601	 1.5959838319	-0.5270988003	 0.121371
H	-0.0563819181	 2.0506974424	 0.7849886105	 0.143872
H	-2.7553502394	-1.8501178344	-0.7572452404	 0.122621
H	-1.7317069835	-0.7160141614	-1.7031770259	 0.115848
H	-0.813967071	-3.5347608377	-1.2903988845	 0.103268
H	-0.7053504296	-3.0158035942	 1.5588075309	 0.109416
H	 1.4249204377	-3.0498281027	-0.1941495844	 0.103561
