17
gdb 7174	6.84458	0.79747	0.74683	4.3776	65.49	-0.275	0.0268	0.3017	1448.4144	0.140262	-401.005008	-400.995527	-400.994583	-401.039845	32.664	
O	-0.1026035297	 1.4654991097	 0.0454310484	-0.421597
C	 0.0271695729	 0.0527808053	 0.0341838675	-0.080012
C	-1.3792893203	-0.5324260758	-0.0208382628	-0.194447
C	-1.3857222844	-2.0630819172	-0.009716106	 0.120945
O	-0.7380494548	-2.5997406648	 1.1309349287	-0.416091
C	-2.8285043626	-2.6048144507	-0.1435668316	-0.369917
C	-2.885243838	-4.0639652931	-0.1733950485	 0.271812
N	-2.9351132917	-5.2174818441	-0.2088240415	-0.302076
H	 0.7767409435	 1.8474747662	 0.1191835694	 0.289315
H	 0.6034129036	-0.291384253	-0.8403001401	 0.09027
H	 0.5438085281	-0.3172699439	 0.9305713039	 0.101964
H	-1.953423574	-0.1530547756	 0.8361675422	 0.101288
H	-1.8822674113	-0.1625539569	-0.9220196935	 0.112949
H	-0.8013631044	-2.4386278132	-0.8577826207	 0.113243
H	-1.1872647143	-2.2714944375	 1.9187669043	 0.284176
H	-3.4358926458	-2.24391544	 0.6964126879	 0.143267
H	-3.2913805966	-2.2144433755	-1.0568691677	 0.154912
