18
gdb 18056	3.49603	2.12724	1.57986	0.9167	66.72	-0.2399	0.0773	0.3171	840.8595	0.156869	-384.923051	-384.91644	-384.915496	-384.953872	25.868	
C	-0.0070720912	 1.5455013215	 0.0804331218	-0.087509
O	 1.4309774461	 1.5391256603	-0.0498638665	-0.297665
C	 1.3888101694	 0.1712531931	-0.5333610386	 0.15167
C	 2.4882049951	-0.7265450959	 0.005388666	-0.235459
C	 2.2110595371	-1.1559257277	 1.4467921673	-0.080537
O	 0.8966819858	-1.6784760407	 1.5661048791	-0.243138
C	-0.0707510442	-0.6568533943	 1.4181630403	-0.087645
C	-0.0478066047	 0.0053585346	 0.0257629071	-0.082489
H	-0.3368821752	 2.0297359821	 1.0067980897	 0.103894
H	-0.4891834466	 2.0367941393	-0.7763942498	 0.09526
H	 1.401207577	 0.1696266173	-1.633420469	 0.068102
H	 2.5420244981	-1.6210480153	-0.6264049665	 0.106378
H	 3.451157104	-0.2084246295	-0.0733438457	 0.110593
H	 2.8931397624	-1.9524151995	 1.7563852545	 0.105227
H	 2.3420505872	-0.3046205907	 2.1339278354	 0.098281
H	-1.0411968143	-1.1238180489	 1.6080503352	 0.107062
H	 0.0897152186	 0.1097377247	 2.1945803769	 0.091273
H	-0.7738875844	-0.4509173904	-0.6494123075	 0.076702
