18
gdb 57764	2.85681	0.72389	0.63903	2.6071	81.66	-0.2728	0.0132	0.2861	1781.9744	0.144906	-401.933047	-401.922413	-401.921468	-401.971523	36.757	
C	-0.0262009111	 1.5838433593	 0.3446808253	-0.388149
C	-0.0064317532	 0.0810896033	 0.0318007957	-0.022384
O	 0.8673186226	-0.6309534281	 0.902025407	-0.409859
C	-1.361428756	-0.4866847145	 0.0437694708	 0.088533
C	-2.4740013043	-0.9422206441	 0.1034410383	 0.069401
C	-3.8138205334	-1.531034877	 0.1548926261	-0.306028
C	-3.7716577155	-3.0757191542	 0.2653972881	-0.379618
C	-4.5974407961	-0.9561955786	 1.2632070073	 0.28951
N	-5.2235881462	-0.5235768514	 2.1320698578	-0.320283
H	 0.9964391534	 1.9691473329	 0.3303955143	 0.129324
H	-0.6253387345	 2.1278047492	-0.3910952906	 0.128616
H	-0.4589399357	 1.7637754036	 1.334014785	 0.12422
H	 0.4249235685	-0.0656534242	-0.965727408	 0.122468
H	 0.4825317883	-0.6029653208	 1.7855128914	 0.285324
H	-4.3452028019	-1.2696384903	-0.7707444109	 0.158794
H	-3.2619647664	-3.3776781376	 1.1823412954	 0.149326
H	-4.7860424658	-3.4813231245	 0.2736145905	 0.139902
H	-3.2273948326	-3.4829944629	-0.5890181036	 0.140904
