17
gdb 64070	2.55498	1.54529	1.21433	4.3503	71.18	-0.2451	-0.0642	0.1809	1060.0954	0.135556	-455.171406	-455.162633	-455.161689	-455.204599	33.069	
C	 0.2035477421	 1.5216102811	 0.0258113341	-0.42757
C	-0.0907381983	 0.0131303142	-0.0377401086	 0.306782
O	-1.4766270629	-0.2349542974	-0.0460358615	-0.477974
C	 0.6143366698	-0.6606522164	-1.2335332891	-0.222842
N	 1.9109160243	-1.0461711025	-0.671349738	-0.345329
C	 1.912398863	-1.2313336895	 0.694743241	 0.289509
N	 2.7760835917	-1.7237790331	 1.4907442577	-0.521142
C	 0.5751215006	-0.6846000038	 1.1560228562	 0.320169
O	 0.0532546746	-0.8134361853	 2.2314347397	-0.313115
H	 1.2762039707	 1.7272912577	-0.0440497256	 0.129184
H	-0.3085280089	 2.017588789	-0.8034433437	 0.132877
H	-0.1704666616	 1.9362642682	 0.9662145931	 0.133823
H	-1.7348625324	-0.3418868832	 0.8811570329	 0.292689
H	 0.0196320569	-1.522949337	-1.5596224464	 0.126776
H	 0.7478263635	 0.0161597284	-2.0822220713	 0.11745
H	 2.6114863683	-1.482940654	-1.2490056472	 0.249485
H	 3.6031539188	-2.0605621264	 0.9918459367	 0.209228
