20
gdb 87282	2.18041	1.43438	1.00923	2.9363	80.12	-0.2418	-0.0232	0.2186	1247.6748	0.16948	-403.121488	-403.112127	-403.111183	-403.155893	34.677	
C	-0.1776328934	 1.3146415459	-0.2046329248	-0.407236
C	 0.1354471104	-0.1293459643	 0.1131226054	-0.017028
N	 1.5064309559	-0.5952453819	-0.0676528489	-0.371815
C	 0.9371191905	-0.6187265325	 1.296962738	 0.160593
C	 1.5524235649	 0.4030639323	 2.2045047195	 0.138674
O	 1.4690026395	 0.3733266205	 3.4071525196	-0.264206
C	 0.5441803338	-1.8982355423	 1.9802692726	-0.046224
C	 0.2320785643	-3.1617167976	 1.2246625728	-0.302462
C	 1.4941864395	-3.0684289644	 2.0466957866	-0.265574
H	 0.6703007442	 1.9688198225	 0.0058214142	 0.131606
H	-0.4218312882	 1.4181375553	-1.2673963798	 0.125326
H	-1.0403172876	 1.6624247442	 0.3729999577	 0.127118
H	-0.6550993196	-0.8275339971	-0.1613624013	 0.096663
H	 1.5340471326	-1.5337067025	-0.458791899	 0.236201
H	 2.1055664752	 1.2069245505	 1.6746272253	 0.085355
H	-0.0365242084	-1.718854839	 2.8786955711	 0.109291
H	-0.5821282242	-3.7794843542	 1.5864201011	 0.120056
H	 0.3315802763	-3.1714924946	 0.1427182187	 0.104818
H	 2.4344849904	-2.9867728951	 1.5110673505	 0.116726
H	 1.5576608941	-3.6274198758	 2.9729377706	 0.122119
