16
gdb 13830	4.60448	1.46729	1.13503	4.0785	70.47	-0.1977	-0.0045	0.1933	1011.1558	0.132784	-379.967039	-379.959375	-379.958431	-379.99911	28.501	
N	-0.0196695493	 1.3592297449	 0.1696026112	-0.546538
C	 0.0522655486	-0.0207209851	 0.1252336549	 0.290371
O	 1.1252063459	-0.6023914611	 0.2068692262	-0.385497
C	-1.236060796	-0.7120631443	 0.0291290454	 0.176611
C	-1.3468799079	-2.0512142448	-0.0764408289	-0.060878
N	-2.6461704695	-2.4823598192	-0.2401255479	-0.295279
C	-3.5382442136	-1.3609949525	 0.1129967511	-0.162901
C	-2.6325481462	-0.1125495746	-0.0606222235	-0.346572
H	 0.8615615341	 1.8380755094	 0.0674010572	 0.2517
H	-0.8328538311	 1.8345410412	-0.1853999056	 0.248044
H	-0.5273865171	-2.7573552959	-0.0878648004	 0.143785
H	-2.8888034427	-3.3993941721	 0.1046890204	 0.243991
H	-4.4223216518	-1.3448138739	-0.5292382889	 0.114152
H	-3.8736511148	-1.4489542196	 1.1560200673	 0.107822
H	-2.8405810075	 0.6438893863	 0.7026693643	 0.11341
H	-2.8061788514	 0.3583587914	-1.0394216728	 0.107779
