18
gdb 119555	3.05252	1.05445	0.87307	3.0771	72.55	-0.2454	0.0063	0.2518	1327.0251	0.14747	-439.072282	-439.063493	-439.062549	-439.106381	32.425	
O	 0.0661388671	 1.4632227461	-0.2313634293	-0.417624
C	 0.0169959362	 0.0469890456	-0.1940532561	-0.063835
C	-1.3973479152	-0.4805610635	 0.0933792091	-0.338993
C	-1.4380459258	-1.9810379822	 0.1225107503	 0.191069
C	-1.6146754222	-2.8768932026	-1.1143781498	-0.325501
C	-2.569046568	-2.9937167754	 0.0321855718	-0.069823
N	-1.98145517	-3.7506489571	 1.1432317926	-0.345651
C	-0.8729027276	-2.8833678151	 1.2160236365	 0.376118
O	 0.1105490457	-2.8934900426	 1.9022919991	-0.345794
H	-0.0612446114	 1.785990945	 0.6662572557	 0.283459
H	 0.341894085	-0.291213119	-1.1837810418	 0.112739
H	 0.72077967	-0.3694889576	 0.5405010128	 0.120689
H	-1.7353296872	-0.085894518	 1.0612070595	 0.10236
H	-2.0841422257	-0.0902802481	-0.6663150543	 0.109431
H	-1.971551058	-2.349073378	-1.9953734652	 0.12637
H	-0.9162698179	-3.6827701673	-1.3219367716	 0.123425
H	-3.6342961757	-2.8091928706	-0.0095859556	 0.119111
H	-1.8892264893	-4.7608579896	 1.1468731562	 0.242449
