20
gdb 55922	4.08808	0.90133	0.83161	3.4225	81.21	-0.2391	0.0362	0.2752	1450.3728	0.17077	-403.156873	-403.147615	-403.146671	-403.193496	33.587	
C	-0.0329422937	 1.5264749345	-0.0787263288	-0.484507
C	 0.0643474789	 0.0079387199	-0.1069487337	 0.407619
O	 1.1195297006	-0.5652588537	-0.3112200691	-0.374696
N	-1.1108222108	-0.6555730239	 0.1172385626	-0.325408
C	-1.214736018	-2.095293919	 0.1096652543	 0.051044
C	-1.5648251694	-2.868213388	 1.4345485502	-0.261195
C	-2.7372325759	-3.5307500559	 0.7021297923	-0.033203
C	-3.694631861	-2.475774577	 0.235491311	-0.287388
C	-2.4384256428	-2.7184005265	-0.5629271793	-0.068691
H	 0.5941691023	 1.9034794445	 0.7339894132	 0.151644
H	 0.3750304976	 1.9202738784	-1.0129843767	 0.152052
H	-1.0502232216	 1.9039811264	 0.0549228131	 0.108035
H	-1.9506101447	-0.1196134889	 0.2621275341	 0.239875
H	-0.2778106883	-2.4627352117	-0.307994679	 0.124204
H	-0.7689641083	-3.5533755638	 1.7326186789	 0.113958
H	-1.8365758675	-2.2478842498	 2.2950908905	 0.092869
H	-3.0183719548	-4.5730710765	 0.776978059	 0.091767
H	-4.6043771771	-2.8337068006	-0.235490438	 0.11629
H	-3.8357745885	-1.5678587323	 0.8201152935	 0.095849
H	-2.4857400868	-3.0223838961	-1.6019343181	 0.089879
