19
gdb 127130	2.54313	1.5158	1.0303	2.0785	79.61	-0.1799	0.0389	0.2188	1181.5972	0.160802	-415.388346	-415.379029	-415.378085	-415.42212	34.708	
C	 0.01815797	 1.4243838726	-0.1451492908	-0.30939
N	-0.0425151869	-0.0039845727	 0.129745232	-0.159576
C	 0.7622858286	-0.3904945575	 1.2884042282	-0.34837
C	-1.330083332	-0.5566331565	 0.1018856813	 0.36339
N	-2.4372581902	 0.1847966739	 0.09180522	-0.311399
N	-3.4422291468	-0.7083245242	 0.006910369	-0.209738
C	-3.0072146337	-1.9988863462	-0.0394878473	-0.100385
C	-1.6315531332	-1.9466925742	 0.0141233727	 0.11271
N	-0.6861829376	-2.9916114853	 0.025784827	-0.620432
H	 1.0654253876	 1.7129956704	-0.2818043604	 0.106189
H	-0.5369995423	 1.6467265046	-1.058424825	 0.130689
H	-0.409572029	 2.0355325411	 0.6658018138	 0.110252
H	 0.4385857696	 0.1185081386	 2.2123473937	 0.104091
H	 0.693721731	-1.4684351915	 1.4486961376	 0.146751
H	 1.8098271084	-0.1296025378	 1.1042104986	 0.111346
H	-4.38771576	-0.3754845343	-0.0434119479	 0.268358
H	-3.6889138124	-2.8310376189	-0.1174735417	 0.119108
H	-1.0751000162	-3.8640843224	-0.3100962005	 0.238791
H	 0.1153779651	-2.7527424799	-0.5492473602	 0.247613
