20
gdb 5819	2.68446	1.67137	1.35394	1.2906	76.22	-0.2596	0.0558	0.3154	1024.5452	0.172779	-348.981874	-348.971809	-348.970865	-349.015662	37.829	
C	 0.0518954542	 1.5351942174	-0.0740125246	-0.407618
C	-0.0209336613	-0.0004342146	 0.0590657963	-0.145771
C	 0.7414513393	-0.4558268153	 1.2196636444	 0.333864
C	 1.3777123473	-0.7992596504	 2.1809435359	-0.485866
C	-1.4819595517	-0.5509137213	 0.065691821	 0.353417
C	-1.4727976022	-2.0850641249	 0.0604317085	-0.421756
C	-2.3023032348	-0.0170950443	 1.2464721524	-0.424752
O	-2.0265724531	-0.0740833997	-1.170921272	-0.467324
H	 1.088222153	 1.8470052757	-0.2273661147	 0.119498
H	-0.5485342893	 1.8601870943	-0.9249074946	 0.137935
H	-0.3125519359	 2.0313230581	 0.8292120831	 0.122129
H	 0.4393971598	-0.4296033526	-0.8410264645	 0.109905
H	 1.9432906192	-1.1111842034	 3.0237209947	 0.192872
H	-1.0101298834	-2.4850875456	 0.9660951564	 0.13235
H	-2.4981585456	-2.468774257	 0.0053744597	 0.098802
H	-0.9225249702	-2.4581190166	-0.8083661075	 0.119388
H	-2.4003379414	 1.069763716	 1.1951540368	 0.12375
H	-3.3101084293	-0.4480938612	 1.2309517825	 0.101251
H	-1.8381044368	-0.2834629011	 2.2001188061	 0.131511
H	-2.9379344278	-0.3790824434	-1.2257274799	 0.276415
