16
gdb 46210	3.1019	1.54676	1.22174	2.9096	70.48	-0.2253	-0.0278	0.1975	1014.9068	0.124023	-437.816126	-437.808629	-437.807684	-437.848406	28.379	
O	 0.0483832161	 0.0163848183	-0.2846368404	-0.306993
C	 0.0249362578	 1.197193061	-0.0928333931	 0.325876
C	-1.0495448079	 2.2257759067	 0.3168654254	-0.281272
N	 0.0317905845	 3.2578225467	 0.4442138366	-0.399108
C	 1.034072425	 2.3100412114	-0.0790052587	 0.22659
C	 2.4843937797	 2.3406938956	 0.377551291	-0.203873
C	 3.2080508127	 1.1472161775	-0.243721732	-0.090005
O	 2.7772399824	 1.5458548404	-1.5828353317	-0.273414
C	 2.1362933676	 2.6873842074	-1.0446076424	 0.016126
H	-1.7885084795	 2.4159542542	-0.4698743936	 0.131614
H	-1.570222236	 2.0171577119	 1.2562302155	 0.138972
H	-0.1227756911	 4.0427727792	-0.1818564558	 0.226169
H	 2.7909771199	 2.953668384	 1.2139762321	 0.118035
H	 4.2983047397	 1.2021198255	-0.1650292507	 0.118985
H	 2.8499616397	 0.1484548367	 0.0193776246	 0.139432
H	 2.1314814295	 3.6106554235	-1.6160530567	 0.112867
