22
gdb 88873	3.47244	1.09251	0.96002	2.3061	82.65	-0.2164	0.0765	0.2929	1323.1426	0.195294	-404.320133	-404.311016	-404.310072	-404.355235	33.626	
C	 0.7633204491	 1.3147558965	-0.4951381509	-0.325293
N	-0.0284866403	 0.1939813905	 0.0021214612	-0.100131
C	 0.6780474382	-1.0204609476	 0.4019593236	-0.246879
C	 0.0207230652	-0.1534681844	 1.4201459134	-0.024185
C	 0.8224349655	 0.5975137952	 2.4644227617	 0.108957
C	 0.7594868997	-0.0533112201	 3.8635858609	-0.227778
C	 2.1111585449	 0.340366557	 4.5094799334	-0.234789
C	 2.8839439323	 1.01102174	 3.3484390103	-0.075026
O	 2.2121789109	 0.6326841196	 2.1549877983	-0.248389
H	 1.7372843427	 1.4325321988	-0.0035023386	 0.129588
H	 0.923503147	 1.173652179	-1.5689330458	 0.115793
H	 0.1911661863	 2.23987728	-0.3640747924	 0.112892
H	 0.2234781783	-1.9592436351	 0.094571525	 0.105004
H	 1.765142175	-1.0043896149	 0.3924966904	 0.123324
H	-0.9500895029	-0.4580842949	 1.8118453028	 0.087537
H	 0.4460698338	 1.6347583516	 2.5330326151	 0.067241
H	-0.1050558729	 0.2898754058	 4.4367679972	 0.10419
H	 0.6803789227	-1.1390438119	 3.7564912662	 0.110494
H	 1.9855343507	 1.0277746416	 5.3496167023	 0.105633
H	 2.6394695168	-0.5394261254	 4.8836018003	 0.111435
H	 2.8741022222	 2.1068079793	 3.4584869282	 0.091285
H	 3.9237519147	 0.6862831194	 3.2614212873	 0.109097
