23
gdb 60387	2.99245	0.9382	0.83104	2.1101	82.46	-0.2541	0.0762	0.3303	1514.3168	0.203015	-425.410476	-425.399926	-425.398982	-425.446698	39.351	
C	-0.3474822317	 1.4414239022	 0.0205324032	-0.392951
C	 0.1937881415	 0.0157402842	-0.1188214799	 0.13176
O	 1.1951311511	-0.0670521592	-1.1234953943	-0.440027
C	 0.7440870499	-0.5355771772	 1.1980147152	-0.094849
O	 1.8929362341	 0.2405668612	 1.5214155471	-0.308711
C	 2.7669189681	-0.3341568087	 2.4607508475	 0.45526
C	 2.2391655437	-0.3712444847	 3.8776341674	-0.455074
C	 3.6759145957	-1.4254933855	 1.9497789985	-0.318191
C	 4.2097525455	-0.0269755223	 2.2014259647	-0.314322
H	 0.428041055	 2.1084516457	 0.4084608886	 0.12569
H	-0.6723154151	 1.8118099679	-0.9550153499	 0.120917
H	-1.2002218887	 1.4746336353	 0.7075699522	 0.106213
H	-0.6142314873	-0.648962746	-0.4477596927	 0.082636
H	 1.9813254588	 0.3342714333	-0.7327702305	 0.281177
H	-0.0128814764	-0.4738195105	 1.9934847782	 0.090672
H	 1.0281028609	-1.58830034	 1.065749985	 0.09835
H	 1.3620306954	-1.0212155977	 3.9659757789	 0.120167
H	 3.0023317154	-0.7512696056	 4.5624074202	 0.11889
H	 1.9536423295	 0.6341424242	 4.2044507736	 0.12555
H	 3.9671900757	-2.2239847492	 2.6236736635	 0.112988
H	 3.5500145279	-1.7258185787	 0.9154898803	 0.122894
H	 4.4316429887	 0.5842374132	 1.3342377782	 0.118094
H	 4.8621584723	 0.1371039381	 3.0520502048	 0.112868
