19
gdb 37346	2.58558	1.96252	1.87374	1.4007	77.28	-0.2327	0.0198	0.2525	880.952	0.163126	-385.881391	-385.875024	-385.87408	-385.911628	27.758	
C	 0.002490019	 1.5208099937	 0.1691598468	-0.301842
C	 1.3085286532	 0.7816317686	 0.0295667908	-0.042497
C	 0.0013193041	 0.0189107325	 0.0285720252	-0.044709
C	-0.0204184885	-0.6168549702	-1.3852956304	 0.014437
O	 1.3716682168	-0.8020349732	-1.6875878974	-0.255849
C	 1.9251155093	 0.4778024385	-1.3508536965	 0.060944
C	 1.5704401991	 1.4659875006	-2.4836249863	-0.270936
C	 0.1528934573	 1.2494664048	-2.9640749055	-0.063013
C	-0.6103290201	 0.2873324512	-2.4459209036	-0.052494
H	-0.2224730331	 1.9192390765	 1.1541817186	 0.107441
H	-0.3689002781	 2.124595267	-0.649623219	 0.122658
H	 1.9729194722	 0.7362979446	 0.8848991662	 0.087853
H	-0.2949257821	-0.5995730533	 0.867725263	 0.088161
H	-0.4941243886	-1.6007989044	-1.3821158048	 0.076875
H	 3.0085015932	 0.3580502633	-1.2746042799	 0.075762
H	 1.7046044271	 2.4998843183	-2.1385761531	 0.108639
H	 2.2676097987	 1.331405262	-3.3214878435	 0.111346
H	-0.2196325105	 1.9038780807	-3.7479499152	 0.089691
H	-1.641990749	 0.1408884883	-2.7506149556	 0.087531
