15
gdb 46817	2.73427	1.61958	1.15728	2.9697	72.37	-0.2458	-0.0373	0.2085	1038.9491	0.111265	-420.600175	-420.592357	-420.591413	-420.632572	29.676	
O	-0.2489514687	 0.3364714332	-0.9384297285	-0.291191
C	-0.1365649676	 1.3076683675	-0.2428335328	 0.343779
C	-1.2116299713	 1.9234317963	 0.6614798408	-0.335177
C	-0.8269629676	 3.4106136048	 0.81908708	-0.254043
C	 0.6637112476	 3.4470566293	 0.5308532537	-0.017267
O	 1.3934410882	 2.4655280918	 1.2515701125	-0.287756
C	 1.0982494016	 2.1990655574	-0.1486160253	 0.138704
C	 2.1881346263	 2.0767809551	-1.0621423179	 0.20117
C	 3.0826802863	 1.9463894355	-1.853232977	-0.34869
H	-2.1969162102	 1.7655406463	 0.2201304252	 0.136811
H	-1.1920046094	 1.3987238321	 1.6216560049	 0.15114
H	-1.3521647112	 4.0349167481	 0.0884917818	 0.122043
H	-1.0484213427	 3.8074214437	 1.8139366446	 0.125113
H	 1.1851208888	 4.3832635314	 0.3492061201	 0.117626
H	 3.87753447	 1.8291018674	-2.5481020319	 0.197739
