17
gdb 97691	2.72381	0.83781	0.69169	1.8684	74.63	-0.2562	0.0172	0.2734	1613.1937	0.133243	-458.890747	-458.880726	-458.879782	-458.927889	34.593	
O	 0.1646634657	 1.3716614754	 0.3695639413	-0.400157
C	 0.0232752721	 0.1183936449	-0.2808414922	-0.195268
C	-1.3402732152	-0.4082698926	-0.2335149408	 0.132301
C	-2.4638212276	-0.8303042023	-0.1266187125	 0.03218
C	-3.8282552381	-1.2819450725	-0.0186036342	 0.126669
C	-4.8316906669	-0.2766154041	 0.5237280303	-0.126498
O	-4.555581482	 0.0553290427	 1.8676142006	-0.409353
C	-4.2999487946	-2.4187371584	-0.834338906	-0.20468
O	-4.0149262222	-2.604769906	 0.5477042926	-0.269726
H	-0.2303748047	 1.2901488789	 1.2442295862	 0.292616
H	 0.3299566019	 0.2836734743	-1.3198101578	 0.141718
H	 0.7110088234	-0.6351709952	 0.1361235667	 0.123521
H	-4.7774553267	 0.6552923058	-0.0468646085	 0.123308
H	-5.8412297579	-0.6980916848	 0.405680739	 0.093726
H	-4.5648393138	-0.7699800104	 2.3662108386	 0.295209
H	-5.3519788313	-2.4728226495	-1.11280066	 0.118379
H	-3.6054795422	-2.8935536763	-1.5244012834	 0.126056
