18
gdb 121050	3.42803	0.98096	0.85756	4.275	69.32	-0.2614	0.0556	0.317	1387.9305	0.147907	-476.277207	-476.268252	-476.267307	-476.311973	31.781	
C	-0.0908367658	 1.4546935162	 0.1639279217	-0.386911
C	-0.0482734344	-0.0593075802	 0.0692620202	-0.050965
O	 0.6457061753	-0.5571947414	 1.2150746168	-0.244576
C	 0.8137111309	-1.9317496434	 1.2287517037	 0.215432
C	 1.6064274106	-2.3186435646	 2.4927074625	-0.204732
N	 0.5330849734	-2.7671130222	 3.349265225	-0.365419
C	-0.6159911207	-3.0441170889	 2.6543805083	 0.472847
O	-1.6216736083	-3.5633143183	 3.0468915161	-0.390642
O	-0.436852712	-2.6166525061	 1.3572820571	-0.246547
H	 0.9201979335	 1.8708244734	 0.1918763776	 0.125568
H	-0.6146722847	 1.8706518361	-0.7016084508	 0.121186
H	-0.6171328189	 1.7673613066	 1.0699555841	 0.133992
H	-1.0594239071	-0.4819459766	 0.0377109922	 0.124462
H	 0.4781476289	-0.3824965268	-0.8430750092	 0.092073
H	 1.2658325507	-2.2833085256	 0.2922191228	 0.086127
H	 2.3396063808	-3.1070737409	 2.2799769072	 0.115973
H	 2.1237668976	-1.4400926268	 2.8853072443	 0.136145
H	 0.6721843902	-3.1931227904	 4.2489267804	 0.265986
