21
gdb 92120	2.72543	1.5353	1.19845	1.6113	82.17	-0.2353	0.0789	0.3142	1114.8555	0.182608	-387.045898	-387.03768	-387.036736	-387.078515	32.728	
C	 0.1145690749	 1.4334704271	-0.5112664312	-0.407459
C	-0.0101893239	 0.0342253759	 0.054016749	 0.156612
O	 0.5629839857	-0.9787874935	-0.81911246	-0.316162
C	 1.306378664	-1.5657837268	 0.2637893363	 0.132228
C	 2.7700075812	-1.0610192551	 0.3295456147	-0.325594
C	 2.3066174146	 0.0230347629	 1.3254746204	 0.382722
C	 3.0241464273	 0.3663286445	 2.6013042171	-0.335965
C	 2.8464039636	 1.4110026898	 1.5264163771	-0.319374
C	 0.8498341638	-0.4507263046	 1.2500285182	-0.201597
H	 1.1587964774	 1.700314931	-0.6876026532	 0.129654
H	-0.4222954039	 1.4951790614	-1.4634492505	 0.124797
H	-0.3263092204	 2.1664184532	 0.1735838341	 0.111346
H	-1.0712208595	-0.1988089537	 0.2294116986	 0.070614
H	 1.1109546111	-2.6344646673	 0.3820671889	 0.073821
H	 3.4820904186	-1.7776026755	 0.7510967424	 0.097854
H	 3.1389620865	-0.710424805	-0.6379935889	 0.108164
H	 2.4370749932	 0.4638195813	 3.5094636025	 0.110703
H	 4.0146923473	-0.0513529835	 2.7528506867	 0.111299
H	 3.7166130852	 1.7053804436	 0.9480129601	 0.113256
H	 2.1443788134	 2.216931599	 1.7119453428	 0.113435
H	 0.3286134099	-0.6253201646	 2.1918611849	 0.069644
