12
gdb 9974	3.26739	1.44242	1.04204	4.0395	64.53	-0.2963	-0.0204	0.2758	1039.4273	0.082197	-340.365439	-340.357312	-340.356368	-340.398506	27.897	
C	-0.022416126	-1.2107894344	 0.0354562286	-0.399513
C	-0.0449145029	-0.0106048701	 0.0130690716	 0.286086
C	-0.0364994457	 1.4425737646	-0.0054160386	-0.359581
C	 1.4196842815	 2.0148270074	-0.0504294653	-0.293229
C	 2.120487935	 1.6219861111	-1.2803198991	 0.313048
N	 2.6632193613	 1.3017368559	-2.2471202232	-0.2956
C	 1.4019089263	 3.4766217762	 0.0947124755	 0.296357
N	 1.3528491882	 4.6210470707	 0.2368179088	-0.294553
H	-0.0153877569	-2.2732364554	 0.0452387887	 0.216047
H	-0.5903434347	 1.8271175724	-0.8677500545	 0.172719
H	-0.5184873851	 1.8449359511	 0.8917778758	 0.166732
H	 1.9744781189	 1.5972287503	 0.7984272416	 0.191485
