19
gdb 119686	4.52096	0.99995	0.97247	1.2121	75.25	-0.2156	0.0795	0.2951	1296.6751	0.158163	-422.94385	-422.935641	-422.934696	-422.977306	31.248	
C	 0.0083189559	 1.5020251309	-0.1446985131	-0.388067
C	-0.1329668641	-0.0091483653	-0.1402838854	-0.062139
O	 0.874194501	-0.5521213135	-0.9951363854	-0.291331
C	 0.8358458938	-1.9155019332	-1.1051006752	 0.388984
C	 1.2884397652	-2.9807708264	-0.0990358447	-0.30919
C	 1.1706479291	-3.9444105009	-1.3096618188	 0.067758
O	-0.2617158986	-4.008259282	-1.5768522388	-0.292822
C	-0.1391920346	-2.6660453652	-2.0465777462	 0.01731
C	 1.3364235199	-2.7220965463	-2.2890769288	-0.218918
H	 0.997897553	 1.7966404062	 0.2158000426	 0.129069
H	-0.1192974342	 1.8974265543	-1.1564249579	 0.127479
H	-0.7470048851	 1.9554611064	 0.5039453611	 0.117623
H	-0.0128336777	-0.4091127254	 0.8773218128	 0.09972
H	-1.1262874708	-0.3163877447	-0.4986106013	 0.096789
H	 2.3297275231	-2.8247126191	 0.1943831063	 0.108353
H	 0.6645575289	-3.215626541	 0.7687386435	 0.100921
H	 1.6697521999	-4.9095484172	-1.3481350002	 0.091355
H	-0.9504552976	-2.2058836685	-2.5949371488	 0.110474
H	 1.9752495028	-2.495429459	-3.1307920616	 0.106632
