17
gdb 69079	2.75742	1.65242	1.21237	3.5831	74.6	-0.2512	-0.0406	0.2107	1033.9186	0.134082	-421.830805	-421.822676	-421.821732	-421.863139	31.055	
C	-0.1307034528	 1.4826589119	 0.2295509384	-0.500079
C	 0.1137158139	 0.0114272273	 0.0624889406	 0.317111
O	-0.6718275255	-0.8605224813	 0.8896094698	-0.30671
C	 0.7395433579	-0.9046160106	 1.0840557538	 0.249483
C	 1.444892061	-2.0309374772	 0.3351988885	-0.360782
C	 1.1443310052	-1.728394458	-1.1165977373	-0.077649
C	 0.4464583146	-0.6012095575	-1.2640873979	-0.11401
C	 1.2686582245	-0.3982007219	 2.3804126811	 0.081003
O	 0.6613787485	 0.3028775212	 3.1505165765	-0.259633
H	 0.6855944052	 2.0641484277	-0.2106270727	 0.125433
H	-1.0586850404	 1.7655636002	-0.2793663162	 0.133404
H	-0.226360441	 1.7317914597	 1.287685222	 0.165453
H	 2.5240660731	-2.0228795229	 0.5400550984	 0.119159
H	 1.0704445791	-3.0161323316	 0.6384897791	 0.135071
H	 1.4485802739	-2.3900417803	-1.9193879761	 0.109737
H	 0.1267270809	-0.1632233098	-2.2019132473	 0.107882
H	 2.3190387218	-0.7099755869	 2.5836033692	 0.075126
