17
gdb 65370	3.35725	0.95109	0.92737	2.2268	75.1	-0.2492	0.0091	0.2584	1318.2213	0.135505	-417.966766	-417.957986	-417.957042	-418.000671	32.407	
O	-0.1274958469	 1.3502392684	-0.3717891448	-0.440938
C	-0.0187687279	 0.0074660832	-0.0098574347	 0.236057
C	-0.179176335	-0.3785086804	 1.450922645	-0.354397
C	-1.2970320243	-0.6555253199	 0.4744924992	-0.071716
C	-2.5684846933	 0.1283138467	 0.513327082	 0.023076
C	-3.7250653031	-0.2964548622	-0.3131912074	-0.245178
N	-3.7622342816	-0.4542928221	 1.1521186774	-0.325462
C	 0.8879595301	-0.7700672311	-0.8286863137	 0.247459
N	 1.6260882679	-1.3801876056	-1.4776658056	-0.340739
H	 0.6996840346	 1.7933880985	-0.1496050609	 0.30028
H	 0.4045413642	-1.2064300048	 1.8356545001	 0.14027
H	-0.3105219083	 0.4576364478	 2.1295436612	 0.137185
H	-1.4137499354	-1.6918303685	 0.168350998	 0.112657
H	-2.4400246599	 1.1869556656	 0.7146384302	 0.108371
H	-4.4091107131	 0.4464051569	-0.7125296	 0.126822
H	-3.6085214136	-1.1822631356	-0.9328061969	 0.115706
H	-3.5858685144	-1.4257545469	 1.3995729307	 0.230548
