21
gdb 121690	6.81108	0.52804	0.49601	1.7324	84.96	-0.2567	-0.014	0.2428	2224.5163	0.18161	-420.459454	-420.448789	-420.447845	-420.496838	36.926	
C	-0.2252384382	 1.5330452968	-0.2325904982	-0.380968
C	-0.1682942897	 0.0294905658	 0.0502860753	-0.172744
C	 0.6917164244	-0.3123562537	 1.2710183813	-0.149135
C	 0.7493335285	-1.8131518931	 1.5544435842	-0.343897
C	 1.6031334714	-2.157869862	 2.7673451701	 0.431165
O	 2.1809770579	-1.3348586046	 3.4454106908	-0.347865
N	 1.6693703971	-3.5158868511	 3.0415007409	-0.311265
C	 2.3861185451	-4.0598879461	 4.0942995404	 0.100157
N	 2.3965703022	-5.3169897825	 4.2786289789	-0.466616
H	 0.7752170275	 1.937309167	-0.4216737635	 0.117249
H	-0.8445224151	 1.7515693517	-1.1079552046	 0.112103
H	-0.6455538916	 2.0792738328	 0.6189149825	 0.117253
H	-1.1864411065	-0.3540739727	 0.2013371386	 0.093719
H	 0.223745822	-0.4950098072	-0.8316229629	 0.093717
H	 1.7110696674	 0.0639620538	 1.1293080326	 0.113541
H	 0.3072720336	 0.2042394685	 2.1576409561	 0.11358
H	-0.2599155449	-2.2163992857	 1.7177076135	 0.124647
H	 1.1478195803	-2.3571586663	 0.6866310607	 0.124595
H	 1.1752543568	-4.1743690152	 2.4555797856	 0.259629
H	 2.8931521345	-3.2933113424	 4.6831875594	 0.139022
H	 2.9671750973	-5.5489900636	 5.0894555683	 0.232112
