19
gdb 75379	3.01683	1.52266	1.05987	1.7411	86.04	-0.2115	-0.0144	0.197	1143.6384	0.160655	-385.907742	-385.899936	-385.898991	-385.939922	30.378	
C	 0.025278088	 1.4976056255	 0.0684138228	-0.503045
C	-0.0735606741	 0.0057579418	 0.0131250718	 0.215573
C	-0.048565546	-0.7813121247	-1.082920532	-0.165279
C	-0.0666658396	-2.2680113965	-0.7613481914	-0.308832
C	-0.539385307	-2.2428342226	 0.7062053084	 0.084305
O	 0.0335964492	-3.146609759	 1.6350343393	-0.280885
C	 0.2465081188	-2.4148094775	 2.8510407465	-0.111146
C	 0.3061134856	-0.9550375511	 2.438484962	-0.300294
C	-0.120440023	-0.87285226	 1.1791436383	 0.279567
H	 0.9038113842	 1.8093589575	 0.6464702716	 0.131451
H	 0.104995626	 1.9312580645	-0.931889624	 0.124951
H	-0.8488783368	 1.9348483388	 0.564600754	 0.132229
H	 0.0431032166	-0.4068846952	-2.0977687027	 0.093241
H	-0.7120748914	-2.8503735544	-1.4256666746	 0.104738
H	 0.9438151015	-2.6945901217	-0.8249545213	 0.121981
H	-1.6410162103	-2.3334095058	 0.7207641054	 0.073813
H	-0.5681791541	-2.6182189974	 3.5686988801	 0.097605
H	 1.1796409133	-2.7660449677	 3.3094525492	 0.111898
H	 0.7072409893	-0.1743420745	 3.0712868766	 0.098127
