12
gdb 3955	7.66219	2.09529	1.66247	3.71	50.79	-0.2544	0.0172	0.2715	692.3367	0.092473	-356.712771	-356.706413	-356.705469	-356.744336	21.546	
O	-0.1440490068	 1.4202739785	 0.0105493657	-0.429254
C	-0.0013449893	 0.0079782861	 0.002611066	-0.190023
C	-1.3771021506	-0.5759051222	 0.0133428372	 0.382799
N	-1.7046472391	-1.8557059887	 0.0128163541	-0.329449
C	-3.0670892211	-1.8126544329	 0.0247912047	 0.022765
N	-3.5964935371	-0.6003176032	 0.0325357888	-0.217059
N	-2.4897149545	 0.1809650085	 0.0249137287	-0.212927
H	 0.7308334999	 1.8173413876	 0.0057180376	 0.302133
H	 0.5343224482	-0.3469479352	-0.8901166099	 0.128928
H	 0.5516496231	-0.3554318969	 0.8811968064	 0.128989
H	-3.6831198795	-2.6993529239	 0.0278358429	 0.124348
H	-2.5513296633	 1.1856952923	 0.0285370879	 0.28875
