13
gdb 132398	2.01125	1.75818	0.93811	1.6741	64.3	-0.2303	-0.009	0.2213	1111.6177	0.090152	-497.93221	-497.925245	-497.924301	-497.963592	27.371	
O	 0.1144499689	 1.3042945989	-0.0137456235	-0.414846
C	 0.089529357	-0.0419736442	-0.033354583	 0.464697
C	 0.0077021103	-0.6918974353	-1.2628735539	-0.391017
C	-0.0139340528	-2.0771873435	-1.212645215	 0.375358
F	-0.0911303552	-2.7593860329	-2.3514098745	-0.069864
C	 0.0421048123	-2.7760794781	-0.0166387655	-0.391017
C	 0.1218064797	-1.9985748274	 1.1365936241	 0.464697
O	 0.1791957684	-2.617420703	 2.3312397434	-0.414846
N	 0.1457202281	-0.6663222996	 1.1424564927	-0.468769
H	 0.172192001	 1.5614266451	 0.9165239508	 0.299575
H	-0.0360237496	-0.1484721596	-2.1954273991	 0.123229
H	 0.0251775236	-3.8555063982	 0.0211865124	 0.123229
H	 0.2296645983	-1.9182920823	 2.9972161108	 0.299575
