19
gdb 31667	2.93469	1.22404	0.91497	1.6686	81.15	-0.1756	0.05	0.2256	1306.715	0.15915	-419.216146	-419.206349	-419.205405	-419.250949	35.229	
C	-0.6086362261	 0.8039263082	 0.1756987328	-0.252617
O	 0.7268888379	 0.3113429249	 0.1041971334	-0.286135
C	 1.0021865788	-0.3751930523	-1.0505322426	 0.233724
C	 1.6778047746	 0.0967368199	-2.1552553079	-0.197527
N	 1.7489011128	-0.9219897888	-3.068205973	 0.021855
C	 2.5176070152	-0.8961923697	-4.2904472179	-0.330739
C	 1.1369589405	-2.0469800644	-2.5462863662	-0.179979
C	 0.6556942018	-1.73743002	-1.2923603529	 0.149746
N	-0.1100696263	-2.5236100924	-0.4091731279	-0.617517
H	-0.8040154818	 1.5295035855	-0.6248860502	 0.11022
H	-1.3400633167	-0.0103187294	 0.0998077943	 0.12821
H	-0.7120399962	 1.2979091987	 1.1452487514	 0.118777
H	 2.1204750181	 1.0605358266	-2.3468012588	 0.115048
H	 3.5376605148	-1.2762005733	-4.14863502	 0.131584
H	 2.0236533981	-1.5065693463	-5.0519902363	 0.134875
H	 2.5780215338	 0.1297330298	-4.6618162486	 0.136284
H	 1.0958478203	-2.9641156771	-3.1120527816	 0.101496
H	 0.0578480591	-3.5149940611	-0.5275773675	 0.237396
H	 0.0914665513	-2.2728464288	 0.5523377495	 0.245299
