18
gdb 71138	2.89796	1.70989	1.34689	4.137	75.27	-0.2327	0.0253	0.258	987.9465	0.149503	-401.968059	-401.960849	-401.959905	-401.999244	29.664	
C	-0.0376008484	 1.5475605115	 0.0279177149	-0.487348
C	 0.0588371663	 0.0399303529	 0.0398911648	 0.298122
C	-1.2383623748	-0.8044450888	 0.3367512884	-0.270074
C	-0.3826495423	-1.6989055399	 1.2282662351	-0.072448
C	 0.9789055635	-2.0280285225	 0.5829084278	-0.167655
C	 0.7447454789	-0.6973979139	 1.2368998827	-0.105565
C	 1.1323857486	-1.823363466	-0.8994920329	 0.405434
O	 1.5178005355	-2.6122770796	-1.732253263	-0.382262
N	 0.7520326822	-0.5077697471	-1.1273049923	-0.344691
H	 0.9559168395	 1.9969212682	-0.065486112	 0.13221
H	-0.6498817471	 1.8963895089	-0.811561131	 0.120843
H	-0.4991733637	 1.911881609	 0.9502510567	 0.125264
H	-1.9545871244	-0.2348184335	 0.9358207497	 0.10563
H	-1.7477449912	-1.2436898571	-0.5277517093	 0.097232
H	-0.73611278	-2.325511268	 2.0374322263	 0.098781
H	 1.5650581979	-2.7986825231	 1.0652597619	 0.109416
H	 1.3308110739	-0.2648436524	 2.0369804707	 0.096574
H	 0.4427359256	-0.2706187587	-2.0600942986	 0.240535
