23
gdb 40739	3.73991	1.05015	0.94133	0.0837	89.55	-0.2576	0.0799	0.3375	1356.1457	0.207497	-351.114647	-351.106274	-351.105329	-351.148263	33.143	
C	-0.2470763109	 1.3483522419	-0.2751566312	-0.271864
C	 1.2084036565	 1.1489601636	 0.0668502544	-0.270635
C	 0.2748853493	-0.0368271007	 0.0258793323	 0.017559
C	-0.1232661446	-0.7359007838	 1.2966294349	 0.034011
C	-1.3724773013	-1.6746379875	 1.301498096	-0.26889
C	-0.5775627394	-2.7360407801	 2.1181147858	-0.004027
C	-0.0070395709	-3.9012191866	 1.2788279932	-0.218443
C	 1.1957229385	-3.0007499948	 0.8621407557	-0.231916
C	 0.7316312383	-1.9022330142	 1.8676370692	-0.037858
H	-0.8819571284	 1.821322444	 0.4673495347	 0.108184
H	-0.5073171266	 1.5927081195	-1.2992085298	 0.107867
H	 1.9433901822	 1.2576028694	-0.7231446968	 0.108201
H	 1.5512745018	 1.4881862445	 1.0391695873	 0.10807
H	 0.3820806322	-0.6873435658	-0.8385446312	 0.076647
H	-0.2396784175	 0.0179272014	 2.0851862278	 0.060543
H	-2.2626391815	-1.2650276068	 1.7847616109	 0.096076
H	-1.6627115181	-2.0269080899	 0.3057723226	 0.091585
H	-0.963231172	-2.9589354741	 3.1140802096	 0.057276
H	 0.3061411337	-4.749550437	 1.8940930436	 0.095809
H	-0.6478796472	-4.2807844447	 0.4764253182	 0.09038
H	 2.177574607	-3.4255905398	 1.0828093204	 0.099077
H	 1.1995335324	-2.6899745575	-0.185832335	 0.097507
H	 1.4482376264	-1.6544083711	 2.6527905275	 0.05484
