17
gdb 41115	3.47249	1.97246	1.57662	1.7554	75.36	-0.2231	0.0058	0.2289	859.7105	0.138185	-384.624478	-384.618431	-384.617487	-384.654419	26.271	
C	 0.0366693945	 1.4198941005	 0.19218875	-0.121095
O	 1.4248485272	 1.5512458337	-0.2395623406	-0.358718
C	 1.3921160354	 0.2307648276	-0.7431404878	 0.449239
C	 2.4133503183	-0.8434586863	-0.6031611121	-0.201921
C	 1.9339950586	-1.89256502	-1.2950588642	-0.085141
C	 0.7054089886	-1.5002540959	-2.0493624679	-0.098786
C	-0.4614565521	-0.6657914098	-1.3518830174	-0.089972
C	 0.6665603386	-0.0102611551	-2.1113417497	-0.152837
C	 0.017222157	-0.1160165373	-0.0406602611	-0.117971
H	-0.0758992146	 1.7310094973	 1.2346502983	 0.112981
H	-0.6381454973	 2.0047739925	-0.4436138778	 0.105043
H	 3.230224946	-0.8352451699	 0.1058041844	 0.108524
H	 2.3279106991	-2.9009204168	-1.2794970603	 0.101983
H	 0.3622029207	-2.0875275495	-2.892746453	 0.090866
H	-1.4786922856	-0.8618269186	-1.6720512679	 0.089761
H	 0.6852788717	 0.618039859	-2.9939383966	 0.093509
H	-0.0226830161	-0.7202344113	 0.8678949739	 0.074535
