16
gdb 60754	4.68773	0.85111	0.72683	3.4533	73.57	-0.2618	-0.035	0.2268	1471.7877	0.121195	-437.89933	-437.88962	-437.888676	-437.934768	33.737	
C	-0.0148674833	 1.4815822947	-0.0139501891	-0.354626
N	-0.007038882	 0.0199201833	 0.010384282	-0.156191
C	-0.004556311	-0.6131219425	 1.2591996557	 0.174191
O	-0.0086751247	-0.0165805427	 2.3079302881	-0.313642
C	-0.0015961862	-0.7799986038	-1.1451151812	 0.447256
O	 0.0049031145	-1.9854878722	-1.0932487778	-0.316607
C	-0.0056041237	-0.0008873544	-2.4679444658	-0.536857
C	 0.0037149749	-0.8614667759	-3.6383053718	 0.329274
C	 0.0113844906	-1.5456899631	-4.6238467752	-0.404364
H	 0.8761441931	 1.8779733028	-0.5085338768	 0.140387
H	-0.9060454975	 1.8682183072	-0.5157892813	 0.140305
H	-0.0207552448	 1.8105894268	 1.0246761411	 0.178636
H	 0.0015306161	-1.7049855616	 1.1597487646	 0.145329
H	-0.8845066678	 0.6568501234	-2.4856911876	 0.161933
H	 0.8615654511	 0.6721930285	-2.482920726	 0.161745
H	 0.0184781307	-2.1640534605	-5.487138029	 0.203233
