16
gdb 97080	3.06567	1.17917	0.99182	1.3208	73.29	-0.2569	0.0136	0.2705	1220.4227	0.122605	-437.850119	-437.841265	-437.840321	-437.884591	31.306	
C	-0.0296245675	 1.4447542821	 0.0678614425	-0.335835
N	 0.1034530648	-0.000660248	-0.0216731225	-0.316616
C	 0.6546842053	-0.6402043952	 0.903971027	 0.410965
C	 0.84299539	-2.1410357863	 0.9738973978	-0.193222
O	 1.7755391351	-2.3159114286	 2.0353222681	-0.230882
C	 1.6107102526	-1.2046142232	 2.8839166754	-0.024775
O	 1.213728107	-0.1136737232	 2.0484007817	-0.231386
C	 0.6085109546	-1.4378118463	 3.9335071528	 0.35342
C	-0.1978570483	-1.6424510567	 4.79949389	-0.444634
H	 0.5924658154	 1.9100757299	-0.7053752904	 0.130359
H	-1.0668921255	 1.7176658596	-0.1526030453	 0.128811
H	 0.2497027588	 1.8632839902	 1.0410737977	 0.126128
H	-0.1108034263	-2.6432737225	 1.1854969459	 0.135597
H	 1.2691459834	-2.5486279541	 0.0564156441	 0.149524
H	 2.5831876828	-0.961609527	 3.3217762682	 0.131807
H	-0.9114939221	-1.8211384707	 5.566345747	 0.210738
