20
gdb 82777	2.94397	1.85623	1.73004	1.7553	80.14	-0.2178	0.0817	0.2996	912.074	0.174094	-365.960941	-365.95422	-365.953276	-365.991633	28.597	
C	-0.2617708598	 1.5778306141	 0.0180780978	-0.425375
C	 0.0391104636	 0.0858575309	 0.0036300216	 0.0402
C	 1.0716840162	-0.5441799469	-0.9911933916	-0.084152
C	 2.2853757993	 0.3753129097	-1.156456244	-0.235644
C	 3.0001458934	 0.2327138007	 0.1721248357	-0.022845
C	 2.8599909144	-1.1339507614	 0.6957718763	-0.050685
C	 1.4909749484	-1.5736474428	 0.1501476009	-0.069835
C	 0.851592206	-0.5680455471	 1.1297399663	 0.016276
N	 2.225241393	 0.0243823356	 1.4413950079	-0.181606
H	 0.6292115462	 2.1732096213	 0.2361440063	 0.129924
H	-0.669237915	 1.914610752	-0.9419458253	 0.111928
H	-1.0032899748	 1.8089879341	 0.7905854969	 0.115353
H	-0.8998994324	-0.4767656468	-0.0783734634	 0.071218
H	 0.6792693592	-0.936290723	-1.9304093167	 0.063044
H	 2.9528983917	 0.0296740107	-1.9559503782	 0.098986
H	 1.9991055353	 1.4040870928	-1.394568168	 0.104694
H	 3.9077679005	 0.7986810059	 0.3588172901	 0.091992
H	 3.6408237023	-1.7486898554	 1.129759218	 0.089751
H	 1.2031985539	-2.6183610818	 0.0617241425	 0.06715
H	 0.3751576683	-0.8497109826	 2.0706789867	 0.069625
