18
gdb 37465	2.74086	2.17167	1.83715	2.005	72.25	-0.2225	0.0588	0.2813	836.6657	0.151381	-401.903666	-401.897609	-401.896665	-401.933715	26.128	
C	-0.018034474	 1.5723497757	 0.057206307	-0.207698
C	 1.4600789121	 1.9978568891	-0.1516496922	-0.151702
N	 2.1501254207	 0.8561741209	-0.8003733478	-0.10895
C	 2.4262851955	-0.4010864782	-0.0724147552	-0.059009
C	 1.9618967007	-0.7042247951	 1.3425418663	 0.03707
O	 1.3966542924	 0.3637972888	 2.1142306643	-0.25018
C	 0.5102632187	-0.518382238	 1.4013542616	 0.01444
C	 0.0360736907	 0.0246988452	 0.0390806443	-0.085076
C	 1.2116630928	-0.2524323974	-0.9333576595	-0.071299
H	-0.439960784	 1.964366739	 0.985554247	 0.110689
H	-0.635802721	 1.9284353961	-0.7732619673	 0.097746
H	 1.5349384512	 2.8438669694	-0.8425283383	 0.098725
H	 1.9487278875	 2.2728958097	 0.781707605	 0.129693
H	 3.3346713257	-0.8963136936	-0.4037009675	 0.090216
H	 2.5064545447	-1.4523030004	 1.9132146796	 0.097604
H	-0.1566299348	-1.1021195952	 2.0310442404	 0.097559
H	-0.9051682079	-0.436994328	-0.2652571584	 0.073793
H	 1.061558909	-0.7063944678	-1.9094728194	 0.086381
