21
gdb 102679	2.02506	0.92882	0.70989	5.1668	80.16	-0.2419	0.0251	0.267	1632.2808	0.18144	-420.404853	-420.394101	-420.393157	-420.441701	37.785	
C	 0.0571535327	 1.5448973619	 0.005719935	-0.38323
C	 0.0152725533	 0.0158500892	 0.02761117	-0.193361
C	-1.4124804882	-0.5573323685	 0.0143821242	 0.041579
C	-1.4085707465	-2.0873329732	-0.1717538117	-0.092437
O	-0.8593671083	-2.7569486254	 0.9568480279	-0.418775
N	-2.1079719731	-0.1502683916	 1.2428730757	-0.287205
C	-3.5630237535	-0.2033599151	 1.160386854	-0.272847
C	-4.1718834874	 0.2602239702	 2.4118147765	 0.260676
N	-4.6570716854	 0.6069395871	 3.4008716621	-0.300015
H	 1.0850938716	 1.9130152755	 0.073637956	 0.112277
H	-0.3760480985	 1.9366771808	-0.9215324198	 0.110167
H	-0.5141557044	 1.9514372568	 0.8434149152	 0.140814
H	 0.5629118262	-0.387347921	-0.834331117	 0.092335
H	 0.5325444599	-0.3484054502	 0.9257333832	 0.092485
H	-1.95241507	-0.1171457059	-0.83616143	 0.076018
H	-2.4334453835	-2.4623309321	-0.264147449	 0.1103
H	-0.8805414071	-2.3557817617	-1.0988049094	 0.09505
H	 0.0952815741	-2.6386006323	 0.9410615952	 0.291988
H	-1.7909431425	-0.7585179966	 1.9939506226	 0.235095
H	-3.8941997709	 0.463582893	 0.3547667534	 0.154449
H	-3.9860338687	-1.1986319508	 0.9364765857	 0.134637
