18
gdb 98635	4.37374	0.8577	0.80798	4.592	73.36	-0.2511	-0.0285	0.2226	1455.2041	0.145846	-439.129712	-439.120266	-439.119322	-439.165435	33.308	
C	-0.3294488922	 1.5355698597	-0.0871807473	-0.378033
C	-0.0071328871	 0.0431039658	-0.0865285515	-0.287153
C	 0.6719434823	-0.4317230488	-1.3609771019	 0.364064
O	 1.0374632787	 0.3219875146	-2.2332192119	-0.297845
C	 0.8876013931	-1.9365838251	-1.4849097874	-0.064278
C	-0.3496260311	-2.746433369	-2.0031041794	-0.397845
C	 0.5152046916	-2.9983494403	-3.2646402203	 0.431646
O	 0.347059363	-3.5177908016	-4.3308562344	-0.339495
N	 1.5979079261	-2.3612554551	-2.688766483	-0.310464
H	 0.5763384552	 2.1274226579	-0.2377315882	 0.137357
H	-1.0195821258	 1.7861571494	-0.89707639	 0.132881
H	-0.7869663863	 1.8318991506	 0.860412572	 0.114929
H	 0.6578666751	-0.2160042824	 0.7500975562	 0.129041
H	-0.908162623	-0.5647420831	 0.0730431583	 0.126384
H	 1.3168731176	-2.3290468617	-0.5551865501	 0.09929
H	-0.6116878571	-3.6343963036	-1.4265812751	 0.139276
H	-1.2455181757	-2.1553479577	-2.2033712549	 0.1404
H	 2.3620950056	-1.8864031497	-3.1490252811	 0.259846
