21
gdb 58802	3.46182	1.04437	0.98401	2.2546	78.09	-0.2464	0.0775	0.3239	1315.2241	0.180708	-424.1974	-424.187963	-424.187019	-424.231642	35.871	
C	-0.0405247316	 1.4543910114	-0.2215443747	-0.394912
C	 0.0009498917	-0.051116075	 0.0868340519	-0.088511
C	 0.9148099079	-0.3594259236	 1.2819608027	-0.396837
C	-1.3878313868	-0.5827433972	 0.3053881977	 0.454386
C	-2.3641402738	-0.3411365501	 1.4690740936	-0.354
C	-3.0282242052	-1.7343062	 1.1294471163	 0.146292
O	-4.3725881	-1.7548260056	 0.742393187	-0.435003
C	-1.9942381694	-1.8929877918	 0.0021761654	-0.108284
O	-2.2224494105	-0.7623005301	-0.86142044	-0.31916
H	 0.9627304662	 1.8325829083	-0.4411800717	 0.113073
H	-0.680542618	 1.6585083778	-1.0844688366	 0.131467
H	-0.4304597137	 2.0198472092	 0.6324491917	 0.117251
H	 0.3931791193	-0.5713224879	-0.7963103381	 0.086096
H	 0.5733752649	 0.1555683724	 2.1865083071	 0.119611
H	 0.9478135658	-1.4324655101	 1.4956384335	 0.115315
H	 1.9360344421	-0.0237024224	 1.077711105	 0.117658
H	-1.894519832	-0.3322143648	 2.4555177427	 0.109724
H	-3.0153731257	 0.5297338984	 1.3620185881	 0.106129
H	-2.9098460814	-2.4585630446	 1.9388801589	 0.092497
H	-4.4214698924	-1.2184081651	-0.0597834977	 0.287739
H	-1.5877801574	-2.787542749	-0.4580212428	 0.099467
