16
gdb 128201	5.09649	0.89576	0.76636	6.9294	76.32	-0.2158	-0.0396	0.1762	1422.3567	0.125321	-434.086384	-434.077824	-434.07688	-434.119977	30.667	
C	 0.0668395885	 1.4243844474	 0.0254290593	-0.327259
N	 0.0161858303	-0.0282303808	 0.1086864763	-0.39807
C	-1.2319960588	-0.6224668552	 0.0397415116	 0.463584
C	-2.5141960626	-0.1078264787	 0.0424242969	-0.381528
C	-3.3586740078	-1.2509966122	 0.0217652309	 0.251437
C	-4.8300460099	-1.2320138795	 0.0105769346	 0.096414
O	-5.5527385764	-2.1981409868	-0.0294941098	-0.262773
N	-2.6618640692	-2.3885811664	 0.0033682383	-0.26707
N	-1.3799705679	-1.9798905172	 0.0214319825	-0.265779
H	 1.1078682314	 1.7457738972	 0.0971452421	 0.133065
H	-0.3652329813	 1.8256987328	-0.9035595746	 0.123083
H	-0.4787303759	 1.8548724948	 0.8702909112	 0.146307
H	 0.7115880576	-0.481023437	-0.4689751959	 0.241672
H	-2.8062444462	 0.9288481334	 0.0440084511	 0.110862
H	-5.2492744702	-0.1996999508	 0.0439037119	 0.062922
H	-0.6492085117	-2.672154161	 0.0567071135	 0.273133
