16
gdb 4171	3.59558	1.64351	1.24841	1.0482	70.13	-0.2315	-0.0056	0.226	967.0609	0.130342	-379.839441	-379.831798	-379.830854	-379.871542	28.55	
O	-0.1086855515	 1.2817839539	 0.2283757682	-0.389229
N	-0.0271050448	-0.1172738159	 0.3324568792	-0.258765
C	-1.1163445551	-0.6703822612	-0.003709034	 0.35552
C	-2.5083343507	-0.2402803752	-0.4331801011	-0.327448
C	-2.9537978195	-1.7388060447	-0.3085658041	-0.310327
C	-1.49312796	-2.1147767341	 0.00456226	 0.291649
C	-0.6587118778	-3.253025737	-0.4597563491	-0.293535
N	-1.0501671188	-3.1355949916	 0.9517504133	-0.361133
H	 0.7656278623	 1.5601362194	 0.5213280364	 0.307398
H	-2.9952550291	 0.4675332064	 0.242105904	 0.131932
H	-2.5470646765	 0.1694286041	-1.4463160092	 0.129627
H	-3.6286792173	-1.9292551069	 0.5282465905	 0.121728
H	-3.3711604383	-2.1818707224	-1.2147710628	 0.110149
H	-1.1283441605	-4.0735897975	-0.9964167917	 0.122221
H	 0.3674960224	-3.0368102707	-0.7450054964	 0.126199
H	-0.2763902148	-2.7635262565	 1.499545937	 0.244014
