21
gdb 75306	2.36503	1.86476	1.265	1.2299	83.45	-0.2224	0.0265	0.2489	1066.9434	0.183425	-387.097294	-387.089073	-387.088129	-387.129281	33.697	
C	-0.0505248571	 1.5091387978	 0.0394330559	-0.508242
C	-0.0185618306	 0.0097914462	-0.0140915544	 0.276414
C	-0.0285658802	-0.7051857206	-1.1428822257	-0.169764
C	 0.0231723272	-2.214057099	-1.0853635906	-0.251183
C	 0.0823360567	-2.6812258454	 0.3781764395	-0.027416
C	 1.1451542342	-1.8584528065	 1.1657650396	-0.245578
C	 0.0442906734	-0.7785234453	 1.299690459	 0.324173
O	 0.1303227269	 0.0128739625	 2.4579243327	-0.485951
C	-0.995528527	-1.9398049852	 1.2229741722	-0.27838
H	 0.8019130289	 1.9046280193	 0.6024847053	 0.138585
H	-0.0357566841	 1.9358966874	-0.9667921999	 0.120952
H	-0.9530969279	 1.8838499938	 0.542252199	 0.109617
H	-0.0663348333	-0.2210704048	-2.115661309	 0.077322
H	-0.853661542	-2.6475565352	-1.5877700915	 0.101264
H	 0.8974886347	-2.5865856891	-1.6384482157	 0.102547
H	 0.12589701	-3.7689476634	 0.4567032009	 0.063861
H	 1.3603008926	-2.3085396177	 2.1381809234	 0.100812
H	 2.0732098794	-1.5779494977	 0.6622699672	 0.093232
H	-0.6636165593	 0.5544886451	 2.5194458181	 0.274516
H	-1.9661669412	-1.7315411863	 0.7646815582	 0.086351
H	-1.1264539114	-2.405523516	 2.2033713858	 0.096867
