23
gdb 59422	3.30188	0.97588	0.89434	1.9778	85.89	-0.2387	0.0669	0.3056	1430.6633	0.204808	-388.255681	-388.245984	-388.24504	-388.290398	36.461	
C	 1.0402246265	-0.5071163121	-0.9649021325	-0.405862
C	 0.0060973044	 0.0988989401	-0.0053754247	 0.018839
C	-0.1056096915	 1.6140461803	-0.2404049107	-0.382763
C	-1.3794701224	-0.5418177896	-0.0755278513	-0.063691
C	-1.9036501409	-1.2899712578	-1.2864114065	-0.358781
C	-1.6310205863	-2.0177319416	-0.0046377993	 0.280235
C	-0.6839452633	-3.1859933373	 0.2671805446	-0.142279
O	-1.695882524	-3.8511388803	 1.053479747	-0.279943
C	-2.6298829694	-2.7642067026	 0.8750807319	-0.134084
H	 2.024581518	-0.0638781063	-0.7841011791	 0.114435
H	 1.1439129218	-1.5897294831	-0.8484143578	 0.121987
H	 0.7779713241	-0.304917579	-2.0089605986	 0.118953
H	 0.3767024302	-0.0496953091	 1.0196187593	 0.077822
H	 0.8706280434	 2.1007954579	-0.1459605827	 0.108902
H	-0.4902192705	 1.8238849939	-1.2450539748	 0.116737
H	-0.7844196412	 2.0807327668	 0.4809633	 0.110266
H	-2.1323100183	 0.0487498729	 0.4456507282	 0.079964
H	-2.9376201987	-1.1394626906	-1.5821166771	 0.109258
H	-1.2277974412	-1.4666903512	-2.1168230834	 0.113966
H	-0.3817140157	-3.7806358	-0.6052768201	 0.100666
H	 0.2058034646	-2.9562569276	 0.8688269862	 0.099785
H	-2.8833215181	-2.2810083757	 1.829218748	 0.096341
H	-3.5552275015	-3.0934058478	 0.3833517733	 0.099245
