14
gdb 18177	4.84864	1.6135	1.30809	5.0155	69.65	-0.2561	-0.0464	0.2097	895.662	0.109561	-341.583385	-341.577015	-341.57607	-341.613925	24.41	
N	 0.0729168846	-1.1434426319	-0.0295258744	-0.339376
C	 0.0095301901	 0.0132499644	-0.0078233506	 0.193492
C	-0.0252601149	 1.4324710907	-0.0012481764	 0.271653
C	-1.1246958092	 2.1997234884	 0.0854249671	-0.167006
C	-0.7967676459	 3.6735750333	 0.0344306623	-0.254091
C	 0.7275347153	 3.693353616	-0.023169824	-0.041192
N	 1.3660551046	 3.1042430617	 1.1699168374	-0.323541
C	 1.2090976461	 2.2849711635	-0.0579601823	-0.17322
H	-2.1329359496	 1.8207130882	 0.2000801257	 0.125672
H	-1.2464034425	 4.147398334	-0.847790598	 0.123168
H	-1.1805180712	 4.2035797129	 0.9140538893	 0.137335
H	 1.2394692097	 4.4839704948	-0.5599537285	 0.100386
H	 2.3283371443	 3.4335182961	 1.2234439996	 0.237158
H	 2.0862537688	 1.9564410781	-0.6026272072	 0.109564
