13
gdb 129784	3.58811	1.67829	1.14448	1.9379	67.98	-0.1971	-0.0101	0.187	963.6918	0.092516	-448.923767	-448.917047	-448.916103	-448.954605	26.326	
N	 0.0355383321	 1.3765833243	 0.1865051645	-0.596213
C	-0.0789445525	 0.018833851	 0.0724026667	 0.36706
C	-1.1366738168	-0.8555586886	 0.0480666485	 0.094885
N	-2.5208173134	-0.9833918888	 0.0525945853	-0.353059
C	-2.7026157491	-2.2714269479	 0.0036315992	 0.00472
N	-1.5284413488	-3.0296090027	-0.0349394635	-0.407365
C	-0.5013019754	-2.1166138593	-0.0074122098	 0.471321
N	 0.8112480058	-2.107240235	-0.0218964429	-0.314823
O	 1.0664453287	-0.6852492318	 0.0311155395	-0.225604
H	 0.9071401706	 1.7608978092	-0.1485815339	 0.270086
H	-0.7783865599	 1.894975764	-0.1076875957	 0.275814
H	-3.6665220293	-2.761046688	-0.0091174409	 0.137489
H	-1.4627728021	-4.0317950764	-0.0729562171	 0.275689
