20
gdb 101913	1.94983	1.41252	1.08132	3.4108	75.95	-0.2399	-0.0131	0.2268	1227.2592	0.168774	-440.264664	-440.25477	-440.253826	-440.300106	35.654	
C	-0.1674696934	 0.2748773262	 0.8649553329	-0.484181
C	-0.6438638771	 0.342663087	-0.5673678761	 0.395382
O	-1.406706024	 1.1938477424	-0.9645884033	-0.309583
C	-0.081890129	-0.6795007569	-1.5709819579	-0.096724
C	 1.2864813128	-0.2138957822	-2.11073556	-0.076756
O	 2.2934382719	-0.2587172131	-1.120855289	-0.416059
N	 0.1104304039	-1.9984104272	-0.9663140511	-0.090155
C	-1.0808687191	-2.8309208907	-0.8071312598	-0.227071
C	-0.0716364722	-3.1495355904	-1.8518409718	-0.223036
H	-0.3590034241	-0.7129939337	 1.2938004567	 0.14196
H	 0.9185554318	 0.4166415055	 0.8745816067	 0.160773
H	-0.6604430189	 1.0496927462	 1.4530886419	 0.13276
H	-0.7958031324	-0.6969715237	-2.4104284608	 0.080346
H	 1.5472023794	-0.8475454992	-2.9740803209	 0.092541
H	 1.2149067599	 0.8190919307	-2.4634310075	 0.128301
H	 2.2033839219	-1.1233318465	-0.6980689111	 0.290461
H	-1.1301996842	-3.4150400374	 0.1069717665	 0.124435
H	-2.0314743938	-2.419988305	-1.1411505059	 0.129118
H	-0.3448892268	-2.9544065446	-2.8870253962	 0.122265
H	 0.6254585033	-3.9698221673	-1.7104384733	 0.125225
