16
gdb 19935	3.80725	2.37643	1.92718	1.1726	62.61	-0.2399	0.0651	0.305	731.9231	0.132375	-383.701336	-383.695307	-383.694363	-383.731492	24.058	
C	 0.0786898814	 1.5558652019	 0.2452795941	-0.316946
C	 1.3134958321	 0.749057243	-0.0183278435	 0.10103
O	 2.1257204257	 0.3646736519	 1.06645101	-0.267881
C	 1.4604222362	-0.5984407636	 1.8639676204	 0.06074
C	 0.7413184232	-0.0750436268	 3.1205731379	-0.103413
O	-0.5535133567	-0.2184897162	 2.4919447542	-0.289021
C	 0.0306075637	-0.7942703219	 1.2960057735	 0.074241
C	-0.0241884491	 0.0541130962	 0.0405698828	-0.085929
H	-0.1040874949	 1.9307650173	 1.245370423	 0.135676
H	-0.2865090724	 2.1890159533	-0.5562461206	 0.114698
H	 1.8791285208	 0.8786937148	-0.934352399	 0.10192
H	 2.1130033185	-1.4644322176	 2.0026498735	 0.089035
H	 0.8329918945	-0.7170869333	 4.0051864507	 0.102971
H	 0.971818553	 0.9619765905	 3.3884694365	 0.110273
H	-0.3279499081	-1.8143345631	 1.1305313563	 0.080622
H	-0.508829648	-0.3434758464	-0.8422099098	 0.091983
