19
gdb 121337	3.42115	0.94522	0.77669	3.693	71.39	-0.2593	0.0096	0.2688	1445.8055	0.159849	-460.207003	-460.197964	-460.19702	-460.241547	32.572	
O	 0.2084246263	 1.400212937	 0.4145604605	-0.418838
C	 0.119064981	-0.0008428543	 0.2023290859	-0.080631
C	-1.3305875209	-0.4583747082	 0.0032930374	-0.214444
C	-1.4812520941	-1.9756848582	-0.1533635883	-0.146992
C	-2.9120577936	-2.5260862437	-0.075659788	-0.255356
C	-2.809837794	-3.8087047864	-0.9093841362	-0.088141
O	-1.7951552201	-3.5436485537	-1.89505601	-0.217221
C	-1.00597376	-2.5063743767	-1.5093213064	 0.446468
O	-0.0956362588	-2.1160598684	-2.1846452678	-0.340511
H	 0.0621383417	 1.8336698214	-0.4318259881	 0.283682
H	 0.7337301895	-0.327863037	-0.6442626643	 0.128805
H	 0.5276952581	-0.46574417	 1.107824418	 0.104019
H	-1.918897194	-0.1240431749	 0.865582682	 0.107759
H	-1.7521273782	 0.0394692796	-0.8800053311	 0.09774
H	-0.8602350326	-2.4800163939	 0.6026136066	 0.109838
H	-3.2558789807	-2.7139189113	 0.9434560627	 0.117516
H	-3.6087722029	-1.8230272493	-0.5452025478	 0.119637
H	-2.4945138589	-4.6683617226	-0.3058875131	 0.118278
H	-3.7272840278	-4.0712519793	-1.439758492	 0.128392
