17
gdb 55319	2.01004	1.63818	1.11838	3.1194	74.	-0.2527	-0.0234	0.2293	1129.9506	0.13285	-421.784208	-421.774852	-421.773907	-421.819413	33.055	
C	 0.1000943124	 1.1983768502	 0.7102312813	-0.485014
C	 0.0859037463	 0.0742939696	-0.3049921167	 0.380627
O	 1.0066675456	-0.1319938	-1.0601705616	-0.288498
C	-1.1717769336	-0.786187991	-0.3312738277	-0.182428
C	-1.1876788895	-1.9572498409	-1.3236401176	-0.087967
O	-1.291513384	-2.9322610496	-0.2580299597	-0.272038
C	-1.2981206328	-1.9121811882	 0.7609387395	-0.048726
C	-0.2265202607	-2.0536183351	 1.7337401736	 0.34527
C	 0.651790049	-2.1701442254	 2.5463435296	-0.454236
H	 1.0501179767	 1.7313452342	 0.6606547815	 0.1448
H	-0.7243389562	 1.8940255475	 0.5152856065	 0.136261
H	-0.0465887797	 0.7942455083	 1.7174396657	 0.151722
H	-2.0542147665	-0.1419797861	-0.3503997708	 0.100276
H	-2.0503801615	-1.9992941876	-1.9969041775	 0.104498
H	-0.2588016072	-2.0644426654	-1.8904930159	 0.136966
H	-2.2642465928	-1.8874652895	 1.2821393647	 0.10899
H	 1.4335450045	-2.282686861	 3.2569985852	 0.209494
