15
gdb 61726	3.57763	0.67944	0.6083	4.2892	82.6	-0.2729	-0.0523	0.2206	1740.4416	0.111401	-416.820522	-416.81097	-416.810026	-416.856516	32.524	
C	 0.0826503683	 1.7986993252	 0.0987653776	-0.388043
C	 0.0735295235	 0.263395292	-0.0251380884	-0.148551
N	 0.699663917	-0.1951736847	-1.2614478504	-0.275366
C	-0.02797807	-0.7592914673	-2.2680722649	 0.16342
O	-1.2298888469	-0.9075730566	-2.2510883486	-0.313004
C	 0.7048891938	-0.370342759	 1.1317983068	 0.136253
C	 1.247208331	-0.8710866666	 2.0882438506	 0.002521
C	 1.8595719363	-1.4394061775	 3.1683495259	 0.21189
N	 2.3840546385	-1.9206985769	 4.0862634947	-0.331377
H	 1.1065880424	 2.1824774221	 0.1178871906	 0.130218
H	-0.4429185869	 2.2308118313	-0.7559345245	 0.14458
H	-0.418518201	 2.1099848535	 1.0188133128	 0.143203
H	-0.9644715698	-0.082856905	-0.0958363872	 0.170771
H	 1.7017940924	-0.132059161	-1.3518971354	 0.259674
H	 0.6122134915	-1.0636722995	-3.1173204998	 0.093809
