17
gdb 98489	2.36774	1.34282	0.93223	2.97	74.43	-0.2809	-0.047	0.2339	1255.8553	0.134623	-418.017158	-418.007886	-418.006942	-418.051783	32.949	
C	-0.11621512	 1.5693465485	 0.3169597053	-0.385686
C	-0.3341634982	 0.0903673973	 0.6243929236	-0.309226
C	-1.2911493664	-0.587033573	-0.3276668229	 0.342253
O	-1.7871013983	-0.0382409201	-1.2867918241	-0.323004
C	-1.658154622	-2.0403294824	-0.0609380361	 0.076924
C	-3.138946327	-2.3393075017	-0.1328208516	-0.238459
N	-2.2561275717	-2.7780552392	-1.1920912357	-0.319113
C	-0.821714758	-2.8033658767	 0.8331764272	 0.244898
N	-0.1446665368	-3.3801768431	 1.5718392876	-0.340509
H	 0.5932280623	 2.0037633384	 1.0256428984	 0.121684
H	 0.2758707503	 1.7043234186	-0.6938854086	 0.138391
H	-1.0545023902	 2.1263183084	 0.38125624	 0.133338
H	 0.6097662917	-0.4713269898	 0.5937476935	 0.156112
H	-0.708433826	-0.0639035063	 1.6457592793	 0.142659
H	-3.5316642443	-3.1229337175	 0.5073854728	 0.152113
H	-3.784034356	-1.4820731651	-0.3031891064	 0.146526
H	-2.3046950892	-2.1063268962	-1.9612480324	 0.261098
