17
gdb 47940	2.27949	1.74085	1.18535	5.1566	65.29	-0.2582	-0.0026	0.2556	1046.8565	0.137119	-496.105439	-496.097612	-496.096668	-496.138238	29.211	
O	-0.0626191307	 0.0095464287	 0.5785225917	-0.307489
C	-0.0465639865	 1.1186559215	 0.1239438615	 0.403378
C	-1.3470129355	 1.9326842812	-0.047631192	-0.203199
O	-1.9333852201	 1.820534684	-1.3323920061	-0.220504
C	-1.3262020786	 2.5392173582	-2.3676139569	 0.013989
O	-0.0839706646	 2.0006637096	-2.7411974516	-0.228027
C	 1.0778518054	 2.7249129673	-2.3849224956	-0.079148
C	 1.2503593505	 2.9179476743	-0.8789298503	-0.106885
O	 1.153232001	 1.6813073202	-0.1807325137	-0.212425
H	-2.0550482946	 1.473247881	 0.6422570483	 0.147996
H	-1.219157017	 2.9873577615	 0.2354615625	 0.105295
H	-2.004712347	 2.4287504306	-3.2176011547	 0.126639
H	-1.2266359798	 3.6071164447	-2.1057058759	 0.079852
H	 1.9100333991	 2.1337222314	-2.7762817289	 0.135418
H	 1.1018919987	 3.7135291486	-2.8703185982	 0.10197
H	 2.2565093114	 3.2973557858	-0.6785161792	 0.131415
H	 0.5412706184	 3.6521600114	-0.4852928211	 0.111724
