15
gdb 125145	3.3259	1.29592	0.93909	3.5534	79.6	-0.2315	-0.0331	0.1984	1183.7497	0.111622	-416.779686	-416.771004	-416.77006	-416.812842	32.059	
C	-0.0442122295	 1.5444954377	 0.0693064917	-0.529916
C	-0.0076426041	 0.0538959687	 0.0235311414	-0.011875
C	-0.000181638	-0.7781428222	-1.0606132323	 0.256729
O	 0.0149082524	-2.0731887953	-0.6668099958	-0.2322
N	 0.0305656665	-2.1167960632	 0.7251118299	-0.215177
C	 0.0067403729	-0.861898188	 1.1213958536	 0.345137
N	-0.0706239022	-0.5288297347	 2.4631898888	-0.600072
C	-0.0154806197	-0.5042837506	-2.4420520062	 0.237131
C	-0.0276299507	-0.2496059988	-3.618637738	-0.38633
H	 0.8643225132	 1.9613763976	 0.5221110833	 0.129641
H	-0.1303769984	 1.9586297873	-0.9379229895	 0.145419
H	-0.894814993	 1.9018285012	 0.6607687731	 0.142803
H	 0.132017677	-1.3102480895	 3.0729271842	 0.261912
H	 0.4635011719	 0.2900029682	 2.718237118	 0.25481
H	-0.0384147382	-0.0327655685	-4.6584509123	 0.201989
