23
gdb 118704	3.37502	1.02771	0.91645	1.278	86.27	-0.2539	0.0733	0.3271	1405.2282	0.205719	-388.242171	-388.232989	-388.232045	-388.276114	35.991	
C	-2.2364452904	 1.6141977161	-1.2566499655	-0.382565
C	-2.3081088609	 0.087345193	-1.1783408136	-0.152714
C	-1.5588030003	-0.4858847065	 0.032932819	-0.28469
C	-1.52217116	-2.0152869404	 0.0548809487	 0.487994
O	-0.7893383416	-2.4735354772	-1.0726038158	-0.491414
C	-1.2882157787	-2.7835427113	 1.4088628767	-0.126557
C	-2.7568263319	-2.4324420416	 1.7879907442	-0.235982
C	-2.8101264027	-2.8625275072	 0.2932240182	-0.086248
C	-1.8732176704	-4.0440830004	 0.7017892772	-0.229877
H	-2.7828219095	 1.9949444601	-2.125272409	 0.111691
H	-2.6665374806	 2.0806986453	-0.3629818158	 0.111825
H	-1.1993221365	 1.9591157767	-1.3395071411	 0.110065
H	-3.3580360828	-0.2288699968	-1.1311097602	 0.097533
H	-1.8974074604	-0.3566328561	-2.0912170846	 0.107515
H	-0.5167409268	-0.1284397416	 0.0158152706	 0.077333
H	-1.9871911246	-0.080763921	 0.9536914528	 0.100697
H	 0.0574442872	-2.0154577901	-1.0800128596	 0.275068
H	-0.4092832241	-2.7324354212	 2.0555070538	 0.060864
H	-3.2339011896	-3.1246828392	 2.4852819682	 0.093393
H	-3.0025308793	-1.401402245	 2.0427885044	 0.090487
H	-3.6890859395	-2.9097213439	-0.3517573932	 0.068766
H	-1.2740193283	-4.4944076161	-0.0853923225	 0.113334
H	-2.3193505985	-4.7913923654	 1.3625931071	 0.083483
