17
gdb 14322	4.20206	1.83853	1.56441	3.19	68.75	-0.2524	0.0315	0.2839	854.1879	0.144672	-363.878524	-363.871887	-363.870942	-363.909628	25.858	
N	-0.0193507146	 1.292760186	-0.0290097528	-0.535921
C	-0.0257798822	 0.0307662979	-0.0138746825	 0.400333
C	-1.261214923	-0.8478622257	-0.0911572538	-0.315858
C	-0.7024349585	-2.2294562413	-0.4079637758	-0.027672
C	-0.2767316517	-2.5214442174	-1.881515153	-0.238178
C	 1.1928785777	-2.7175055692	-1.4071664348	-0.230423
C	 0.8041112873	-2.1442821105	-0.0265572789	 0.101096
O	 1.0976354243	-0.746642571	 0.0907195081	-0.248771
H	 0.9359338337	 1.6460604605	 0.0494360763	 0.220226
H	-1.7701512436	-0.8276166491	 0.8789564294	 0.13097
H	-1.9605385461	-0.4615451658	-0.8352716004	 0.136073
H	-1.2524383417	-3.0471951937	 0.058163321	 0.079703
H	-0.7503832398	-3.3851964103	-2.3516279376	 0.106577
H	-0.4105505164	-1.6576632067	-2.5382009852	 0.114398
H	 1.4825766213	-3.7697119624	-1.3444915882	 0.107187
H	 1.9722086083	-2.165776607	-1.9361266102	 0.115865
H	 1.1781343949	-2.6485100642	 0.8677865085	 0.084395
