22
gdb 57466	2.45314	1.34385	1.09845	2.3637	82.59	-0.2616	0.0267	0.2883	1223.2618	0.1928	-404.359974	-404.350183	-404.349239	-404.394135	37.266	
C	-0.1013415897	 1.5547959198	 0.1772540872	-0.425992
C	-0.0273097433	 0.0216948517	 0.055260125	 0.241947
C	 0.7920048444	-0.5412881257	 1.232208802	-0.414238
C	-1.4476528886	-0.5713844364	 0.0777098484	-0.407355
C	 0.6645185718	-0.411119448	-1.2563341807	-0.127837
C	 0.165679772	 0.1119399699	-2.6246870902	-0.118101
O	 1.4794920735	 0.6987036672	-2.886468941	-0.255349
C	 1.9566234407	 0.2773720972	-1.6637516473	 0.432034
N	 3.0789849156	 0.4479048131	-1.1283845212	-0.549719
H	 0.8976277898	 2.0000800072	 0.1710573865	 0.134615
H	-0.6832131581	 2.0063919616	-0.6332035889	 0.108312
H	-0.587301905	 1.8330612614	 1.1179925584	 0.112917
H	 0.3466835065	-0.241509604	 2.1868531666	 0.105855
H	 0.8188706672	-1.6364193188	 1.2051596134	 0.105258
H	 1.8224982102	-0.1774655975	 1.1986235463	 0.153203
H	-2.0605911261	-0.1847419459	-0.7443752513	 0.108457
H	-1.4243512467	-1.6637397448	-0.0041073724	 0.110353
H	-1.9554847982	-0.3183720915	 1.0144240459	 0.115586
H	 0.7801894946	-1.49978469	-1.2535891766	 0.102878
H	-0.08058044	-0.6427978925	-3.3751267875	 0.119849
H	-0.6042190384	 0.8862989628	-2.6011236255	 0.120552
H	 3.7007287377	 0.9891042228	-1.7319480171	 0.226775
