17
gdb 28482	3.03585	1.38969	0.96004	2.4901	80.9	-0.1923	-0.0111	0.1813	1185.0233	0.137523	-418.085974	-418.077723	-418.076778	-418.118333	32.184	
C	 0.0370661153	 1.4783371865	-0.061715353	-0.498107
C	 0.0413837721	-0.0254570666	-0.0025358794	 0.284313
N	 0.0318277993	-0.6851645759	-1.1692236825	-0.415069
C	 0.0486607902	-2.0099498098	-1.1678504977	 0.409381
O	 0.0406744622	-2.6379811492	-2.3705803546	-0.429371
C	 0.073730533	-2.7735920254	-0.0010591465	-0.214272
C	 0.0757544849	-2.0950306432	 1.2058191146	-0.127511
C	 0.0598019628	-0.6962597848	 1.2310867013	 0.215701
N	 0.1312821467	 0.0169713897	 2.4407631732	-0.596182
H	 0.8803244483	 1.900793744	 0.4976734596	 0.13599
H	 0.0993101869	 1.8041796058	-1.1005175478	 0.138892
H	-0.8799059515	 1.9011205185	 0.3725331974	 0.119865
H	 0.0252676755	-1.9327264277	-3.0313599249	 0.291758
H	 0.086418589	-3.8549060754	-0.0532815852	 0.105563
H	 0.0926264729	-2.6489944287	 2.140519372	 0.091893
H	-0.1584809739	-0.5260628956	 3.2429138414	 0.242086
H	-0.3602072239	 0.9002135678	 2.426458452	 0.245071
