16
gdb 25954	4.88381	1.05453	0.87195	4.5187	73.	-0.2189	0.0149	0.2338	1284.9867	0.125246	-434.114342	-434.106074	-434.10513	-434.148219	30.082	
C	-0.2235203783	 1.315496851	-0.3989162235	-0.448446
C	 0.1018105982	-0.1119037405	-0.076593137	 0.392907
N	 1.2526828092	-0.6092210132	-0.1227023939	-0.488237
O	-1.0980863712	-0.7587193413	 0.2749845704	-0.294243
C	-1.1400727176	-2.0587245437	 0.6201231648	 0.487977
N	-0.1798897247	-2.9437397126	 0.703648567	-0.350552
C	-0.808261333	-4.111261848	 1.1041599023	-0.080946
C	-2.1479252943	-3.911529441	 1.257044516	-0.115702
N	-2.3554965029	-2.5774224278	 0.9412081712	-0.320676
H	 0.6928394716	 1.8352428365	-0.6744501694	 0.153031
H	-0.9404132075	 1.3688760076	-1.2244288573	 0.138189
H	-0.6824002526	 1.8089048106	 0.4637677844	 0.138187
H	 1.251830911	-1.5984993551	 0.1351561926	 0.259402
H	-0.2451495467	-5.0186700492	 1.2544570189	 0.119737
H	-2.956408994	-4.5590748509	 1.5494548975	 0.136792
H	-3.2252176674	-2.0724468922	 0.942716076	 0.272579
