20
gdb 107296	4.02354	1.18337	1.09913	2.2103	78.28	-0.2197	0.0571	0.2768	1168.6573	0.172291	-403.074497	-403.066504	-403.065559	-403.106876	31.8	
O	 0.5560075958	 0.4200752616	-1.0051795235	-0.409705
C	-0.020078919	 0.2477348378	 0.2838211602	-0.214877
C	-1.4548169269	-0.1934964752	 0.2057682727	 0.337188
N	-1.8607243701	-1.2337545342	-0.7606000221	-0.368363
C	-2.5118023027	 0.1021109439	-0.8085634364	-0.131813
C	-3.6060012367	 0.1302709316	 0.2826676496	-0.016865
C	-4.319051305	-1.2105078547	 0.6329452176	-0.221545
C	-3.2196584593	-1.5159665955	 1.7004455363	-0.22734
C	-2.50428745	-0.1785537261	 1.3473510066	-0.094425
H	 0.1330787741	 1.1851026142	-1.4094226249	 0.288361
H	 0.5869617441	-0.5195644786	 0.7799866779	 0.121875
H	 0.0591592461	 1.164936848	 0.8871591473	 0.09685
H	-1.1380527849	-1.2236590697	-1.4820292108	 0.233985
H	-2.4774385912	 0.6819452028	-1.7250380945	 0.079098
H	-4.1860560886	 1.0526411616	 0.3225094655	 0.063427
H	-5.3162232338	-1.0682052067	 1.0567645232	 0.089845
H	-4.3765064605	-1.9258677865	-0.1883633774	 0.112567
H	-3.5979137305	-1.5390304425	 2.7255321321	 0.090042
H	-2.6315211814	-2.4156575099	 1.5143851219	 0.110866
H	-2.2849708796	 0.5232757579	 2.1536137286	 0.06083
