17
gdb 43797	2.50711	1.63374	1.16815	1.8073	74.69	-0.2392	-0.0355	0.2037	1062.5462	0.135977	-417.953959	-417.945969	-417.945025	-417.986627	30.37	
O	-0.018527936	 0.2839881841	-0.8747755935	-0.317942
C	-0.0115758291	 1.301621301	-0.2411247362	 0.34579
C	-1.0888534351	 2.1299546118	 0.5064057148	-0.481483
C	-0.0223382272	 3.2368148754	 0.661901527	 0.266223
C	-0.183231301	 4.6926070286	 0.4794012848	-0.29642
N	 0.2140500126	 4.1267306301	 1.789995632	-0.36295
C	 1.0428014106	 2.3330566804	 0.0696949664	 0.204931
C	 2.4258362441	 2.0430877926	 0.544426523	-0.284745
N	 2.1992062632	 2.7149558761	-0.734401716	-0.364291
H	-1.9767473231	 2.3717802903	-0.0836786217	 0.138219
H	-1.4003882613	 1.6593137016	 1.4452506496	 0.136782
H	 0.5966051912	 5.2538684714	-0.0266174179	 0.13784
H	-1.1893033842	 5.0880108264	 0.3637156163	 0.115016
H	-0.5836903275	 4.1160988121	 2.4215800263	 0.233791
H	 2.8257307868	 2.6768216351	 1.3301837107	 0.147513
H	 2.7489661363	 1.0053707667	 0.5508901303	 0.132101
H	 2.2970049697	 2.0544250962	-1.504874346	 0.249626
