21
gdb 88469	2.71564	1.20775	1.14811	3.0168	77.79	-0.2438	0.0673	0.311	1209.1823	0.1809	-424.18615	-424.176735	-424.17579	-424.220415	34.875	
C	 1.7783414704	-0.1715237977	-0.8959993133	-0.432884
C	 0.484361108	-0.1091253502	-0.1243503244	 0.080503
O	 0.1645131536	-1.2006295465	 0.7519118583	-0.26407
C	 0.3658775062	 0.0922480678	 1.3296285648	-0.018922
C	 1.5094466784	 0.2862294761	 2.3009652355	 0.255263
C	 1.9770941736	 1.7421608469	 2.2986876486	-0.455792
C	 1.2493671597	-0.264282572	 3.7306617122	-0.114151
O	 2.485122349	-1.0014584403	 3.7183114292	-0.277775
C	 2.6629883345	-0.7504358322	 2.3101644036	-0.125668
H	 2.6339530873	-0.4128253704	-0.2638178669	 0.137107
H	 1.7115400247	-0.9320659576	-1.6811303826	 0.133288
H	 1.9688914898	 0.7912735972	-1.3825964514	 0.124135
H	-0.3694046468	 0.2139461781	-0.7246783701	 0.090117
H	-0.560284853	 0.5610929209	 1.6767768382	 0.088229
H	 1.1466163256	 2.4238137155	 2.5161380489	 0.11755
H	 2.7477463653	 1.8983923254	 3.0597846384	 0.130382
H	 2.3953950381	 2.0234377145	 1.3264952905	 0.119987
H	 1.2132981771	 0.4746207831	 4.5405215392	 0.097517
H	 0.3774215256	-0.9284971197	 3.805222301	 0.104359
H	 2.4576624793	-1.6444780506	 1.7119729601	 0.11565
H	 3.6652039433	-0.3671759784	 2.0824772204	 0.095175
