23
gdb 106303	3.39082	1.13209	1.05141	1.3441	85.12	-0.2483	0.0779	0.3262	1273.6163	0.206463	-388.29406	-388.285128	-388.284184	-388.327163	35.888	
C	 0.0836802681	 1.5201741085	 0.1484832862	-0.384966
C	-0.0510664441	 0.0070173175	-0.0645248738	-0.285222
C	 0.6831844193	-0.5176617257	-1.2824373974	 0.366088
C	 2.2414410561	-0.4553138548	-1.4087518227	-0.295911
C	 2.0031834194	-1.5682122711	-2.453764298	 0.422365
O	 3.0801831569	-2.3791330481	-2.8092171841	-0.487677
C	 0.8302226662	-2.0485997735	-1.5420090954	-0.339811
C	 1.2532589581	-0.8159043672	-3.5716346986	-0.279725
C	 0.247481522	-0.0185852303	-2.6850761905	-0.253465
H	 1.1341241409	 1.8132365143	 0.249732887	 0.119118
H	-0.3397223441	 2.0859027478	-0.6875612884	 0.117269
H	-0.4383307409	 1.8347882275	 1.0573407474	 0.111271
H	 0.3203968786	-0.5165786061	 0.82564901	 0.092157
H	-1.1145659681	-0.2565333081	-0.1491211237	 0.091784
H	 2.7057747264	 0.4758028237	-1.7473895089	 0.086196
H	 2.7475374611	-0.8334907826	-0.5172561308	 0.098017
H	 2.7998768532	-2.9571616458	-3.5270003337	 0.275729
H	 1.1923493901	-2.5896464179	-0.6644846649	 0.095229
H	-0.0106418481	-2.578798596	-2.0022212357	 0.077076
H	 1.9256629247	-0.1744104965	-4.1486481982	 0.099726
H	 0.7574016852	-1.5018727654	-4.2679104189	 0.084439
H	-0.79708949	-0.2681501932	-2.8982132971	 0.092563
H	 0.3622074591	 1.063140543	-2.7970772598	 0.09775
