15
gdb 49836	2.07082	1.5056	0.97284	1.4614	72.91	-0.256	-0.0436	0.2124	1171.4924	0.108916	-420.600913	-420.592072	-420.591128	-420.635625	31.479	
O	 0.1552094145	-0.1876082991	-0.2044230041	-0.248206
C	 0.0580442907	 0.988569685	 0.0270084453	 0.176281
C	 1.2154543712	 1.9561049145	 0.0033466127	-0.125192
C	 0.9223126415	 3.2252445272	-0.8662401907	-0.372511
C	 0.7514012897	 4.0380198365	 0.4231018113	 0.40059
O	 0.2946470999	 5.1059029021	 0.6829086295	-0.268521
C	 1.3124917908	 2.8713193031	 1.2942390696	-0.317368
C	 0.626459488	 2.5036153126	 2.5104671692	 0.315398
C	 0.0281018326	 2.2018833053	 3.5082893989	-0.416113
H	-0.9269797354	 1.45205285	 0.2629744816	 0.089519
H	 2.1289847101	 1.4134989332	-0.2354649319	 0.108762
H	 1.7807058848	 3.5495589597	-1.4611998475	 0.151696
H	 0.0426322825	 3.1960706249	-1.5153205963	 0.149139
H	 2.3708944284	 3.0822486176	 1.4948838192	 0.147752
H	-0.4943592994	 1.9357480373	 4.3940259231	 0.208775
