18
gdb 34331	2.87832	1.5866	1.29385	1.4837	82.12	-0.2296	0.0387	0.2683	1025.5618	0.147921	-364.709122	-364.701542	-364.700598	-364.740799	30.935	
C	-0.0096371196	-1.2119434282	-0.0011551342	-0.389901
C	-0.0065144513	-0.0079321896	 0.0053228911	 0.1646
C	-0.004033546	 1.4282644456	 0.0139019063	 0.190524
C	-0.4643716082	 2.2026604556	-1.2710501356	-0.273812
C	 0.8708989486	 3.0074171545	-1.2779996794	-0.223529
C	 1.3372966648	 2.266198057	 0.0059576337	-0.083704
C	 0.9321712362	 2.8630320527	 1.3706061407	-0.046304
N	-0.3706640876	 3.549926229	 1.1904714433	-0.339819
C	-0.3357014595	 2.0860380814	 1.3878812186	-0.1197
H	-0.0134633918	-2.2734906577	-0.0110252032	 0.183558
H	-0.5882481345	 1.5385771034	-2.1279701911	 0.107275
H	-1.3666375205	 2.7983067846	-1.1315760428	 0.115012
H	 1.5022641534	 2.7956198992	-2.1437476505	 0.097187
H	 0.7604944954	 4.0866837463	-1.1674998408	 0.113685
H	 2.2964799251	 1.7503393235	-0.0020760191	 0.082658
H	 1.5919822325	 3.1465344363	 2.1814720223	 0.093295
H	-0.6201761177	 3.9673333106	 2.0860145869	 0.23256
H	-0.8741850491	 1.6149061558	 2.2011100538	 0.096414
