14
gdb 69030	2.93146	1.36727	1.15161	3.3072	71.41	-0.2581	-0.0271	0.231	1054.1901	0.10091	-432.837054	-432.829164	-432.82822	-432.86951	29.712	
O	 0.057693654	 1.3777441381	-0.1891926745	-0.421486
C	 0.0266328583	 0.0347311665	-0.0095582842	 0.299301
C	-0.2767079712	-0.8766517879	-1.1641761528	-0.350364
C	-1.1601084153	-1.0045759862	 0.0600327239	 0.112455
N	-0.4641891957	-1.6788127563	 1.1617988789	-0.387093
C	 0.6216677335	-0.7496867236	 1.1275911111	 0.303591
N	 1.6507689703	-0.5484015563	 1.8225811188	-0.532873
C	-2.564989295	-0.7915107998	 0.0799193471	 0.23915
N	-3.7082837073	-0.6086340086	 0.0866247788	-0.344002
H	 0.0675975917	 1.8051644439	 0.6763267638	 0.312709
H	-0.728328722	-0.3560191291	-2.0036547921	 0.159131
H	 0.3848006638	-1.6972175642	-1.4297191224	 0.132113
H	-0.2681067078	-2.6722229428	 1.0754810914	 0.245854
H	 1.7674913128	-1.2568791936	 2.5492529525	 0.231513
