13
gdb 50807	4.16021	0.96598	0.78395	2.136	71.12	-0.2517	-0.1031	0.1486	1346.5105	0.087182	-452.739434	-452.730448	-452.729504	-452.774092	30.74	
N	 0.3398924894	 1.2377944618	 0.004357519	-0.393095
C	 0.0539082081	 0.0046131567	 0.0012413517	 0.085202
N	-1.2488550257	-0.4879661848	 0.011151918	-0.343132
C	-2.4375647218	 0.2023008657	 0.0261373228	 0.36195
O	-2.6121282112	 1.3944558719	 0.0339853108	-0.306899
C	-3.6252249558	-0.7937264435	 0.0323801718	 0.121596
O	-3.4408427662	-1.9940816565	 0.0243885497	-0.303423
C	-4.9313546583	-0.1903122167	 0.0480403025	 0.307846
C	-6.0368637497	 0.2845862979	 0.0611108659	-0.369548
H	 1.3517942461	 1.3566817145	-0.0044959051	 0.234917
H	 0.7748589134	-0.8219607205	-0.0093641606	 0.104794
H	-1.371611405	-1.4929119092	 0.0072216135	 0.274468
H	-7.0101564533	 0.7130234127	 0.07274932	 0.225324
