18
gdb 124462	3.19026	1.32265	1.18076	5.2298	72.62	-0.3114	-0.0376	0.2737	1109.6355	0.146383	-431.412043	-431.403233	-431.402289	-431.446105	32.291	
C	-0.0125629076	 1.5385561346	-0.0103057076	-0.400609
C	-0.022913387	 0.0021739514	 0.0275442316	 0.238195
C	 0.7608598746	-0.5265495631	 1.2391577031	-0.400668
C	-1.4551236866	-0.5402354982	 0.0176174301	-0.403333
N	 0.6714885611	-0.4808394455	-1.20087729	 0.150896
N	 0.1327482404	-1.2435911601	-2.1383124288	-0.122815
N	 1.073677245	-1.4244170897	-3.017661583	-0.092194
N	 2.1779746911	-0.7728573324	-2.6140221451	-0.083249
N	 1.9302573313	-0.1839191954	-1.4825550789	-0.126811
H	 1.0096373588	 1.9214140648	-0.0444385202	 0.150615
H	-0.5548676227	 1.9105599844	-0.8840295666	 0.134512
H	-0.5007130812	 1.9249651298	 0.8883952487	 0.129782
H	 0.2852484652	-0.1739303145	 2.1582389437	 0.129751
H	 0.7674437898	-1.6200109713	 1.2521856206	 0.13446
H	 1.7933366259	-0.1711742574	 1.2217282841	 0.150734
H	-2.0103379694	-0.1908346954	-0.8553135217	 0.143
H	-1.4704009545	-1.6321007101	 0.0158977293	 0.142843
H	-1.9627730441	-0.185778722	 0.9186806807	 0.124893
