18
gdb 112225	2.22887	1.26562	0.86097	2.702	80.82	-0.2381	-0.0297	0.2084	1348.5942	0.144376	-401.902031	-401.892612	-401.891668	-401.936657	34.257	
C	 0.0383531375	 1.5160775224	-0.0439094431	-0.386969
C	 0.0166286846	-0.0029886872	 0.1007187925	-0.126803
N	-1.3396052401	-0.5244461253	 0.0975566242	-0.073434
C	-2.2001587895	-0.2655036202	 1.2733291927	-0.299031
C	-2.664120424	-1.7224873104	 1.1906470159	 0.390861
O	-3.5430057301	-2.371979	 1.658433772	-0.271824
C	-1.4963034538	-2.0003738421	 0.1954784006	-0.296639
C	-1.7411420032	-2.7285205632	-1.0306446101	 0.341832
C	-1.9614337722	-3.3440636991	-2.0390084202	-0.416089
H	 1.0683858907	 1.8841795841	-0.0620918799	 0.119011
H	-0.4592727734	 1.8209422833	-0.9686810024	 0.132069
H	-0.4734297023	 2.0025099726	 0.7933980957	 0.120257
H	 0.5459457517	-0.4635206029	-0.7411075846	 0.117168
H	 0.5587830093	-0.2997838006	 1.0216014434	 0.076806
H	-1.6526371155	-0.0794109606	 2.2138947276	 0.11749
H	-2.9605317518	 0.5107119615	 1.1447058163	 0.140821
H	-0.6743689834	-2.4759575157	 0.7638376612	 0.112299
H	-2.1595032345	-3.8835769764	-2.9320974318	 0.202173
