21
gdb 89634	4.19054	1.02163	0.94606	1.975	83.67	-0.2193	0.0744	0.2938	1327.7063	0.183763	-383.199473	-383.190867	-383.189923	-383.232928	33.304	
C	-0.14505056	 1.5137944437	 0.1060275689	-0.404435
C	 0.1951045252	 0.0535378893	-0.1529474623	 0.043262
C	 1.5964628165	-0.2959367856	-0.785782279	-0.319846
C	 1.8819839674	-1.1907042859	 0.4336208288	 0.383723
N	 1.8317504891	-0.2658472899	 1.6018412244	-0.377402
C	 0.5741537072	-0.8245087805	 1.0504464678	-0.131306
C	 2.6541123861	-2.4519619438	 0.5037675979	-0.12714
C	 3.0491680278	-3.1995807147	-0.7167357142	-0.247755
N	 4.0698442286	-2.4955841449	 0.0785668947	-0.321473
H	 0.6240187179	 1.9763794417	 0.7300103265	 0.13871
H	-0.2134378523	 2.0745311335	-0.8325409207	 0.109689
H	-1.1077314974	 1.6087738185	 0.6209259726	 0.109096
H	-0.5961473402	-0.4313443031	-0.7330459491	 0.073488
H	 1.5030646341	-0.8402738113	-1.7277025234	 0.102274
H	 2.2855207717	 0.5434164129	-0.9104087148	 0.104001
H	 2.0695358822	-0.8149717913	 2.4283544481	 0.227155
H	-0.0873796657	-1.413860216	 1.675766738	 0.087555
H	 2.4690742626	-3.0275216605	 1.4108131663	 0.081801
H	 3.1132572299	-4.2837168305	-0.6865118313	 0.11955
H	 2.7665502891	-2.7921740779	-1.6831284063	 0.113569
H	 4.3088339303	-1.6163496136	-0.3757873229	 0.235484
