14
gdb 4742	7.17912	1.25221	1.07333	4.4869	70.11	-0.2419	-0.0566	0.1852	1049.7503	0.107007	-382.587598	-382.580315	-382.579371	-382.619419	25.899	
C	-0.007473627	 1.5344480372	-0.0137996891	-0.501363
C	 0.0000142792	 0.037246487	 0.011452639	 0.254271
C	-0.0577013888	-0.8115963732	-1.0599796512	-0.082299
O	-0.0311335323	-2.1050206937	-0.6790294163	-0.155609
C	 0.0464947254	-2.1108864026	 0.682394258	 0.28244
C	 0.0916817277	-3.3787448036	 1.3910610878	 0.070689
O	 0.0666611153	-4.4760140797	 0.8807504442	-0.279251
C	 0.0683673672	-0.8216950147	 1.1490111451	-0.346441
H	 0.8986163818	 1.9465691456	 0.4432727936	 0.138092
H	-0.0645536404	 1.9106340684	-1.0386340673	 0.131591
H	-0.8621848557	 1.9394598464	 0.5386833535	 0.138136
H	-0.1189158173	-0.6359077555	-2.12279261	 0.146598
H	 0.1540785766	-3.2430003774	 2.4935156988	 0.07627
H	 0.1265038782	-0.5269081043	 2.1865416338	 0.126876
