23
gdb 82446	2.2607	1.70201	1.32105	0.3114	89.66	-0.2325	0.0901	0.3226	1125.6629	0.205036	-351.122707	-351.113509	-351.112565	-351.155767	36.265	
C	 0.0472018194	 1.6435544387	-0.0822131408	-0.427305
C	 0.111828124	 0.1234981483	 0.0188090598	-0.009603
C	 1.1077364213	-0.7068330272	-0.8436949539	-0.08411
C	 2.5127902668	-0.1748113366	-0.4660424779	-0.285865
C	 2.2544426144	-0.7570315451	 0.9261877594	 0.300511
C	 3.2919149437	-0.9849663529	 1.9866462897	-0.506706
C	 1.2238342643	-1.7200088061	 0.3654219523	-0.183258
C	 0.7453790754	-0.5727645839	 1.231360999	 0.297191
C	 0.1717487193	-0.6057280751	 2.6187435571	-0.512622
H	 1.018075605	 2.1125899239	 0.1011064198	 0.115658
H	-0.2966224456	 1.9579700643	-1.0745077535	 0.110727
H	-0.6571153283	 2.0508250883	 0.6520769075	 0.111765
H	-0.8938158625	-0.2949133113	-0.1199029859	 0.061425
H	 0.8670557606	-0.9602587549	-1.8747241498	 0.060621
H	 3.3000881877	-0.7424733635	-0.973254614	 0.090205
H	 2.7154013926	 0.8967741479	-0.578768005	 0.081311
H	 3.6474017264	-0.0365542585	 2.4080136136	 0.116475
H	 2.9092508454	-1.5892882354	 2.8146801889	 0.117048
H	 4.1619880137	-1.5092062098	 1.5744554767	 0.115824
H	 1.1071329436	-2.791074709	 0.4578879825	 0.079799
H	 0.2438221067	 0.3736185101	 3.107397944	 0.117707
H	-0.8881846844	-0.8851265059	 2.5942593705	 0.115572
H	 0.6841949005	-1.3298303161	 3.2594172199	 0.117632
