16
gdb 105451	2.78508	1.37684	1.19969	1.8359	65.38	-0.2595	-0.0534	0.2062	1057.5605	0.123817	-475.036435	-475.028148	-475.027204	-475.069707	30.039	
O	 0.7773343732	 0.0483744272	-0.5412489306	-0.418046
C	-0.144843138	 0.2343072227	 0.5070918336	-0.119088
C	-1.5328835623	-0.3110164745	 0.128961386	 0.235999
C	-1.5173363668	-1.8456494533	-0.1854374641	-0.234934
N	-2.2057461349	-2.46194396	 0.9566512146	-0.246257
C	-2.6517267072	-1.5100246002	 1.6569030316	 0.109932
O	-2.4146565385	-0.2222951886	 1.2754451658	-0.259852
C	-2.1647821686	 0.4827046452	-0.9963633857	 0.123214
O	-1.5362448523	 1.0918329404	-1.828547363	-0.262071
H	 0.447324069	 0.5702778639	-1.285325948	 0.300658
H	 0.224686116	-0.325044728	 1.3726004733	 0.122056
H	-0.2393336467	 1.2891164051	 0.802626548	 0.108346
H	-2.0468188438	-2.1024986462	-1.1103471897	 0.126032
H	-0.4904216152	-2.2045809621	-0.2852918344	 0.154916
H	-3.2306310711	-1.6053035451	 2.5682158786	 0.150502
H	-3.2748570028	 0.4480408235	-1.012819276	 0.108594
