23
gdb 115006	2.19379	1.46224	1.11211	0.9648	87.22	-0.2382	0.0254	0.2636	1239.5049	0.204401	-388.29924	-388.289317	-388.288373	-388.333592	37.606	
C	 0.2034259491	 1.5876107998	-0.4832734354	-0.234396
O	-0.2661127037	 0.2699755614	-0.6434761203	-0.246637
C	 0.7118394116	-0.6373858702	-1.1008062029	 0.116886
C	 1.8177484717	-1.0062430639	-0.0763537229	-0.29779
C	 2.1327588441	-2.4320523356	-0.4597603295	-0.088206
C	 1.1914233792	-2.9533184004	-1.2445836565	-0.082796
C	 0.0533075129	-1.9881171858	-1.5200745103	 0.218709
C	-1.1599272713	-2.3334550614	-0.6311575343	-0.40759
C	-0.3771292312	-1.9661732159	-2.9941640976	-0.438644
H	 0.9692350078	 1.6659364113	 0.3027380613	 0.106967
H	 0.6308842887	 1.9829230642	-1.4187536973	 0.102573
H	-0.652273462	 2.2050920933	-0.1985134514	 0.12481
H	 1.206790513	-0.2140698747	-1.9915653072	 0.060973
H	 2.6874907577	-0.3422788194	-0.129358506	 0.09866
H	 1.4272618832	-0.939536398	 0.949200638	 0.111563
H	 3.0142297678	-2.9546756265	-0.1043301824	 0.090814
H	 1.1813900438	-3.9698621185	-1.6253844109	 0.087666
H	-0.8945877876	-2.3246188266	 0.4296384567	 0.113372
H	-1.9685466993	-1.61386398	-0.7828206381	 0.124183
H	-1.5334565408	-3.3334299147	-0.876723588	 0.101763
H	-0.8368493824	-2.916605988	-3.2868346421	 0.107258
H	-1.1125243285	-1.172605563	-3.1647505575	 0.120728
H	 0.4771149964	-1.7883858772	-3.6557092254	 0.109133
