19
gdb 89193	2.50341	1.54966	1.21266	4.1151	75.07	-0.2655	0.0132	0.2786	1104.8501	0.158686	-423.05167	-423.043043	-423.042098	-423.084781	32.504	
C	-0.7484978396	 1.2752146918	-0.0099418897	-0.409944
C	 0.0188535182	-0.0376511474	 0.0316210072	 0.018866
C	 1.1973546992	-0.259147274	-0.9717734276	-0.311709
C	 2.1491752675	-0.6354979696	 0.2194004566	 0.128627
C	 2.9609045197	-1.9069455728	 0.16056464	-0.49981
C	 0.9978348682	-0.278478597	 1.2027091601	 0.055551
O	 1.7157834918	 0.9351418318	 1.6010681455	-0.263304
C	 2.7890900375	 0.6276139906	 0.7910756439	 0.43485
O	 3.8056319297	 1.2337803037	 0.6760744238	-0.334813
H	-0.0719170824	 2.1265815551	 0.1025403174	 0.137512
H	-1.2789016904	 1.3822241362	-0.9618069104	 0.118459
H	-1.489339672	 1.3266799354	 0.7949996148	 0.120555
H	-0.6757935561	-0.8830308712	-0.0216356747	 0.083125
H	 1.0422310657	-1.0870705769	-1.6670143323	 0.112479
H	 1.5062627676	 0.6193385719	-1.5433808709	 0.120733
H	 3.7643218226	-1.8059314795	-0.5766576907	 0.143399
H	 3.4221996277	-2.1362654536	 1.1263017592	 0.131823
H	 2.3386319954	-2.7581714203	-0.1336806638	 0.121686
H	 0.7014695498	-0.8553581144	 2.0785492918	 0.091915
