20
gdb 100374	2.10647	1.1894	1.04802	3.6646	83.54	-0.2597	0.0213	0.281	1302.9622	0.166755	-403.112598	-403.101895	-403.100951	-403.148361	38.69	
C	 0.0809586264	 1.5615446378	 0.0600785905	-0.396003
C	 0.0258146648	 0.0356500762	-0.0247328847	-0.199164
C	-1.4037301135	-0.5572560123	 0.0259226761	 0.147882
C	-1.3771721222	-2.0967822857	-0.0178147347	-0.420617
O	-2.1238926583	-0.0881402857	 1.1995995907	-0.227428
C	-1.664214527	-0.4113144067	 2.4235170727	 0.134331
N	-2.275065595	 0.0089628157	 3.446838132	-0.447157
C	-2.1930350802	-0.063384848	-1.1081048107	 0.351195
C	-2.8094884556	 0.3066493193	-2.0697294987	-0.460463
H	 1.1178655739	 1.9063540386	 0.0122340319	 0.113446
H	-0.4689901389	 2.0190127849	-0.7667671654	 0.135535
H	-0.3561592695	 1.9245125366	 0.9938918909	 0.140985
H	 0.4835435603	-0.3098415813	-0.9582237173	 0.114251
H	 0.6121380002	-0.410975175	 0.7869389738	 0.096815
H	-0.7544650359	-2.5066018552	 0.7818793743	 0.117157
H	-2.3912267654	-2.489528598	 0.08320254	 0.144956
H	-0.9669263454	-2.431743555	-0.9734934944	 0.136092
H	-0.7645461902	-1.0362930359	 2.428421682	 0.089473
H	-1.8059920947	-0.3227251255	 4.2873669087	 0.226034
H	-3.3659276338	 0.6429645151	-2.9098377475	 0.20268
