17
gdb 34097	3.35047	1.5434	1.31534	4.6229	75.6	-0.2356	0.0247	0.2604	983.1325	0.138972	-380.850047	-380.843114	-380.84217	-380.88121	27.995	
N	 0.0642757707	-1.1166620947	 0.0677996082	-0.341427
C	 0.0426541268	 0.0376440016	 0.0167843068	 0.210292
C	-0.013738737	 1.4900574451	-0.0167365212	 0.181852
C	-1.0194874727	 2.1686378896	 0.9999510055	-0.276719
C	-1.480348877	 3.0654139202	-0.1477539986	-0.075165
C	-0.2880899412	 3.580002673	-0.943567293	-0.049218
C	 1.0972616444	 3.5422788919	-0.3105783878	-0.20002
N	 1.3157836766	 2.1013595179	-0.0431620736	-0.337086
C	-0.7872301298	 2.1865097234	-1.1737989483	-0.086862
H	-1.8056213793	 1.4774229957	 1.3118447851	 0.126636
H	-0.5643606566	 2.627057221	 1.8846176673	 0.098274
H	-2.4485992389	 3.544149214	-0.2231620398	 0.097148
H	-0.5058328269	 4.3344749541	-1.690068635	 0.100891
H	 1.8617743955	 3.9168106516	-1.0006181687	 0.114721
H	 1.143509565	 4.1572955291	 0.5993160149	 0.100157
H	 1.8087330142	 1.9457142364	 0.8303136169	 0.226676
H	-1.1131840039	 1.7442770501	-2.1038646987	 0.109848
