21
gdb 76757	2.12775	1.69077	1.28563	1.3615	77.05	-0.2347	0.055	0.2896	1094.5843	0.181545	-424.197259	-424.187997	-424.187053	-424.230704	35.949	
C	 0.4976236474	 1.6357505953	 0.032864384	-0.418604
C	 0.0712531028	 0.1725376034	 0.0262018299	-0.030037
C	 0.8291645279	-0.7805696316	-0.9688457854	 0.037732
O	 1.6976113475	-0.2538308692	-1.943281967	-0.428959
C	 1.3855150209	-1.5862355327	 0.2294864132	 0.394965
O	 1.27891243	-2.9818403511	 0.1870387851	-0.489133
C	 2.656975099	-1.0010812187	 0.9199703276	-0.30392
C	 1.7553370039	-0.338067256	 2.0047278654	-0.221005
C	 0.4921083469	-0.7552450119	 1.2158941982	-0.083929
H	 1.576693482	 1.7674730756	 0.1719366823	 0.103939
H	 0.2305833971	 2.1135954728	-0.9148966721	 0.126338
H	 0.0021373599	 2.1860798166	 0.8394482903	 0.120427
H	-1.0087540151	 0.1301510883	-0.1406367226	 0.078378
H	 0.1227118039	-1.4111846358	-1.516817698	 0.092282
H	 2.315391935	 0.3446437267	-1.5112998324	 0.282347
H	 1.8633128302	-3.3039045967	-0.5092732069	 0.279449
H	 3.3186998387	-1.7833961707	 1.2971615044	 0.108782
H	 3.2564878852	-0.3152376343	 0.3116697208	 0.076223
H	 1.8254840908	-0.8542434638	 2.9650979795	 0.106726
H	 1.8997192609	 0.7297720108	 2.1849555478	 0.097508
H	-0.327849075	-1.208311487	 1.7724272461	 0.070491
