17
gdb 67049	2.16823	2.08156	1.61854	2.2183	66.72	-0.2161	0.0592	0.2753	916.3416	0.134824	-458.908755	-458.900983	-458.900039	-458.940489	30.572	
C	 0.0625771115	 1.5069244014	 0.0763437842	-0.483876
C	-0.0142453854	 0.0123652256	-0.0661143703	 0.303576
C	 0.7897602625	-0.6707052337	-1.1678512193	-0.099667
O	 0.3536485386	-2.0380459013	-1.1470848792	-0.265663
C	-0.8517011439	-2.0749852174	-0.4230268839	-0.016991
C	-0.8336882804	-1.5205571195	 1.0119458812	 0.006337
O	 0.320410206	-0.704965208	 1.1768635052	-0.32931
C	-1.3980454904	-0.7165365204	-0.1229670554	 0.222555
O	-2.6347957381	-0.1611340563	-0.3572119793	-0.45551
H	 1.0848977813	 1.8145298592	 0.3176604349	 0.132468
H	-0.237169838	 1.9995533786	-0.8538431939	 0.12254
H	-0.5996432623	 1.8462164411	 0.8761744284	 0.142307
H	 0.5889824524	-0.2166737263	-2.1521125512	 0.085788
H	 1.8656212501	-0.6453463926	-0.9710802941	 0.119387
H	-1.4913311999	-2.9191892124	-0.6531460361	 0.111521
H	-1.263430963	-2.0049539499	 1.8808923923	 0.112393
H	-2.8669649408	-0.3019613382	-1.2822031234	 0.292144
