19
gdb 7609	3.22106	1.56218	1.30828	2.6152	72.95	-0.2476	-0.019	0.2286	1031.6833	0.163226	-365.072885	-365.0636	-365.062656	-365.106541	33.616	
C	-0.2030930519	 1.5959125677	 0.3427774697	-0.405376
C	-0.1453341029	 0.0897539562	 0.2696415038	-0.004604
N	 0.9944058834	-0.53012268	-0.395345176	-0.362427
C	 0.8356235098	-0.7553896836	 1.0522587185	 0.202935
C	 1.8866684485	-0.1480682164	 1.9576980561	-0.480794
C	 0.2679164192	-2.1069293867	 1.4176698139	 0.338843
C	 0.3324707147	-2.5476786768	 2.8657581246	-0.489914
O	-0.2370794978	-2.8095657929	 0.5641165692	-0.326417
H	 0.7903264348	 2.0361146481	 0.4456946219	 0.128915
H	-0.6465432816	 1.9934658923	-0.5766456268	 0.128543
H	-0.8240252724	 1.9252927186	 1.1826897648	 0.117553
H	-1.1091987786	-0.3922700546	 0.1108951221	 0.098778
H	 0.6798236281	-1.3802822959	-0.8648712361	 0.243048
H	 2.2562460796	 0.7878598044	 1.5375927715	 0.136736
H	 1.4955958484	 0.0559396886	 2.9596030866	 0.117676
H	 2.7471615736	-0.8182240555	 2.060521629	 0.125093
H	-0.1256052585	-1.7981266322	 3.5202119576	 0.141331
H	-0.1833642683	-3.5018148696	 2.9760662025	 0.144029
H	 1.3737120319	-2.6552092217	 3.188215317	 0.146052
