18
gdb 53625	4.73202	0.63465	0.62716	2.2381	84.99	-0.2339	0.0252	0.2591	1862.3961	0.14605	-401.914882	-401.905033	-401.904089	-401.953815	33.175	
C	-0.1081047497	 1.5836102749	 0.0725338953	-0.49526
C	-0.148177888	 0.1284178369	 0.0610055464	 0.033645
C	-0.1840583574	-1.0744650428	 0.0546489655	 0.107746
C	-0.2179309427	-2.5356497914	 0.0411797498	-0.325048
N	-1.5868791989	-3.0417329298	-0.1334109484	-0.317738
C	-1.8426285513	-3.7157819678	-1.1547682631	 0.47141
C	-3.0776886218	-4.3983923822	-1.7035180142	-0.373054
C	-2.1361394888	-4.8031583315	-2.8560684245	-0.07655
O	-1.0295256141	-4.1024283917	-2.2114524617	-0.261103
H	-1.1190715692	 2.0061962341	 0.0803578001	 0.147609
H	 0.413563337	 1.962100529	 0.9587151611	 0.145207
H	 0.4081830995	 1.9784645352	-0.8096668655	 0.144013
H	 0.4687944147	-2.9120873732	-0.7291422957	 0.136776
H	 0.1477620328	-2.9121081814	 1.0054825905	 0.131789
H	-3.4620426924	-5.213443601	-1.0883510966	 0.140021
H	-3.8936537797	-3.7227119031	-1.964433462	 0.141737
H	-1.9186430087	-5.8695148174	-2.9533941669	 0.123781
H	-2.3539781012	-4.3701516371	-3.8352411902	 0.125022
