18
gdb 85536	2.56634	1.63521	1.18709	4.7695	71.16	-0.2537	0.0194	0.2731	1059.6073	0.14906	-439.102217	-439.094315	-439.093371	-439.134888	30.408	
C	 0.5291907182	 1.3045234083	-0.3073954285	-0.389908
C	-0.0713291106	-0.0069545663	 0.1857626133	 0.122014
O	-0.189605803	-0.9429963253	-0.9203711825	-0.241529
C	 0.8006555921	-1.7955498907	-1.2680206989	 0.408562
O	 0.6835992354	-2.4603518585	-2.2622910842	-0.328888
C	 2.0230840064	-1.8710930288	-0.3609680377	-0.357776
C	 1.7102720233	-1.6137992329	 1.1010388775	-0.038199
N	 2.0504167872	-0.276223346	 1.6056743207	-0.327946
C	 0.6369548375	-0.6296753207	 1.3829632857	-0.064477
H	 1.5824997376	 1.1888522935	-0.5692470582	 0.138288
H	-0.0254705844	 1.6572551069	-1.1802191233	 0.129365
H	 0.4678188143	 2.0603522591	 0.4813725278	 0.122913
H	-1.1168291364	 0.1630655684	 0.4573332589	 0.101375
H	 2.4691274049	-2.8532573478	-0.5234756301	 0.138849
H	 2.7463859038	-1.1257354236	-0.7111630132	 0.150601
H	 1.8173978225	-2.4584184493	 1.7754656543	 0.101653
H	 2.2609910451	-0.3137358249	 2.5993379941	 0.237678
H	 0.0133849959	-0.7913666911	 2.2572062245	 0.097427
