20
gdb 65573	3.35039	1.03026	0.9559	3.1983	75.55	-0.2427	0.0729	0.3156	1309.6062	0.170465	-440.223621	-440.214819	-440.213875	-440.257619	33.041	
O	-0.0369813964	 1.4265065445	-0.1130071807	-0.476696
C	 0.0320316023	 0.0314813859	-0.0097662874	 0.357222
C	-1.3748038157	-0.5604976312	 0.0888460299	-0.210832
N	-2.1959271764	-0.0192176505	-0.9911050595	-0.0891
C	-2.4105400886	-0.8574913081	-2.1696381703	-0.221728
C	-3.510492409	-0.6134402539	-1.197175964	-0.223142
C	 0.997712179	-0.7051360537	-0.9825983972	-0.124443
O	 1.6658685669	-1.3424645815	 0.1258463371	-0.275584
C	 1.0038591558	-0.4778166025	 1.071911209	-0.119142
H	-0.8488417295	 1.6097797797	-0.6098775404	 0.284476
H	-1.3317396996	-1.6619945703	 0.0906672642	 0.098631
H	-1.8194972723	-0.237655733	 1.0380780444	 0.112714
H	-2.3959197312	-0.3438858134	-3.1261768354	 0.125292
H	-1.9616444375	-1.8487098063	-2.1752071729	 0.120959
H	-3.7973807575	-1.4416662311	-0.5520001122	 0.11786
H	-4.3117186742	 0.0810203804	-1.4323906362	 0.124497
H	 0.5802423759	-1.4350877418	-1.6855343628	 0.092239
H	 1.6528949163	-0.0059588401	-1.5177691581	 0.102198
H	 1.660825012	 0.3176160823	 1.4461170458	 0.108001
H	 0.5786923797	-1.0340519155	 1.9163694764	 0.096577
