16
gdb 87025	2.15588	1.53228	1.07836	2.5299	71.99	-0.249	0.0023	0.2513	1147.148	0.121132	-437.867414	-437.857971	-437.857027	-437.901525	34.685	
C	 0.1153437194	 1.3112494475	-0.2570654079	-0.431153
C	 0.254343832	-0.1461275266	 0.0827808215	 0.061649
O	 1.5772431562	-0.6690017215	 0.2230908156	-0.297556
C	 0.7457088199	-0.6309123696	 1.4043300863	 0.063237
C	 1.1255872563	 0.2945554596	 2.4377215113	 0.282991
C	 1.4540449437	 1.05738761	 3.3052846719	-0.383278
C	 0.2363828229	-1.9867663677	 1.893734127	 0.316296
N	 0.5597091476	-3.0102942681	 1.0594795896	-0.529608
O	-0.4224100644	-2.0916351994	 2.9054492912	-0.346992
H	 0.7790924262	 1.9218055685	 0.3573435417	 0.146606
H	 0.3579154811	 1.4742536839	-1.3120857918	 0.133863
H	-0.9170690829	 1.6359875676	-0.0927887224	 0.135622
H	-0.4238303351	-0.8230158436	-0.438848342	 0.104877
H	 1.7407874356	 1.7252887371	 4.0798364198	 0.201424
H	 1.2493143661	-2.8607832411	 0.3411024242	 0.27591
H	 0.3200094755	-3.9458340566	 1.3428353941	 0.266113
