16
gdb 131489	3.94428	1.14864	1.00513	1.3399	70.87	-0.2394	-0.0006	0.2388	1163.4952	0.126604	-434.050507	-434.04286	-434.041916	-434.083167	28.74	
O	 0.0728796831	 1.3297693522	 0.7857762236	-0.413772
C	 0.0310733636	 0.0504030255	 0.2301669146	 0.101128
C	-0.5261975288	-1.0225764352	 1.1024713231	-0.31206
C	-1.3137948278	-0.5738481157	-0.1216343163	-0.163794
C	-2.5634595376	 0.1932256725	 0.0064374362	 0.324735
N	-3.5708414291	 0.0071335513	-0.8561882203	-0.288657
N	-4.4976733645	 0.8597220286	-0.4352642417	-0.07312
N	-4.1958925167	 1.5924903214	 0.6253671061	-0.195481
C	-2.9620172091	 1.1876655129	 0.9273881941	-0.148653
H	-0.1335422475	 1.9662098592	 0.0921014572	 0.292892
H	 0.8702690772	-0.1966381248	-0.4194863837	 0.095338
H	-0.0720265533	-2.006558715	 1.0860879008	 0.121265
H	-0.9032327866	-0.7052584654	 2.068350866	 0.131958
H	-1.3176822821	-1.2507152849	-0.9689865155	 0.10268
H	-5.389181757	 0.938463682	-0.896489245	 0.291048
H	-2.4208672738	 1.6101962653	 1.7566301408	 0.134495
