15
gdb 85589	2.9015	1.46907	1.01658	2.6255	62.03	-0.2688	-0.0535	0.2153	1101.8984	0.111402	-494.957651	-494.949486	-494.948542	-494.99112	29.263	
C	 0.072430101	 1.5322861625	-0.0892967077	-0.400801
C	 0.0992333614	 0.0213093127	 0.0391376133	 0.006752
O	 0.8128808626	-0.5158881874	-1.0973033133	-0.252819
C	 0.9596051556	-1.8588301592	-1.1917976231	 0.45306
O	 1.0708565246	-2.4209471735	-2.2351398227	-0.342927
O	 0.9664109917	-2.5213636701	-0.0064893744	-0.23856
C	 1.4350450765	-1.8213147452	 1.1487609565	-0.186397
C	 0.7631243835	-0.4691567554	 1.320388433	 0.360502
O	 0.76625126	 0.1389569622	 2.3588205095	-0.288212
H	 1.0900828655	 1.9271143012	-0.1438251381	 0.141765
H	-0.4701580456	 1.8266882129	-0.989561514	 0.140461
H	-0.4174777377	 1.9583741947	 0.7883263472	 0.15127
H	-0.9243241532	-0.3825319223	 0.0260698211	 0.132771
H	 1.2216865719	-2.4575681861	 2.009364516	 0.165868
H	 2.5222388222	-1.6763507669	 1.0911678167	 0.157267
