22
gdb 58511	2.59111	1.32902	1.22374	0.7923	81.39	-0.2277	0.0666	0.2943	1175.3569	0.192828	-404.306102	-404.296572	-404.295628	-404.339772	37.131	
C	 0.0788464617	 1.5047793141	-0.1010591567	-0.421351
C	 0.0420977853	-0.0201830604	 0.0788768742	 0.001518
C	 0.7414353461	-0.4443597601	 1.3771523762	-0.397817
C	-1.3936686177	-0.5572964912	 0.0234353783	 0.439339
O	-2.2016958845	-0.0697989585	 1.0839457377	-0.499944
C	-2.1473473452	-0.4941474556	-1.3682200648	-0.296554
C	-2.3049286565	-2.0151654236	-1.3009675094	-0.043752
N	-0.9276144408	-2.5673675405	-1.2490399966	-0.341066
C	-1.580410644	-2.0853279601	-0.0077256286	-0.097933
H	 1.1115681681	 1.8634686644	-0.1519301356	 0.117294
H	-0.4271226073	 1.8211828685	-1.0196598063	 0.114685
H	-0.3931449487	 2.0225400331	 0.7435801855	 0.103683
H	 0.5664968776	-0.4793445968	-0.7662451542	 0.095623
H	 0.8004717989	-1.5344946105	 1.456859284	 0.114532
H	 1.7627309322	-0.0522681052	 1.4166988171	 0.103857
H	 0.1969984633	-0.0727893434	 2.2508190773	 0.118761
H	-2.2827039572	 0.8843406434	 0.9814097955	 0.277519
H	-3.0938647712	 0.0399492446	-1.2608911384	 0.100202
H	-1.5901287635	-0.1179298112	-2.2300300643	 0.097677
H	-3.1268812056	-2.6157878326	-1.6699396761	 0.091237
H	-1.0094445143	-3.5837401727	-1.2486124321	 0.22921
H	-1.7254844766	-2.7284635057	 0.8511510471	 0.09328
