14
gdb 20577	4.63883	1.50306	1.25304	2.8836	58.63	-0.2838	-0.0511	0.2327	937.4509	0.106514	-415.816014	-415.808534	-415.807589	-415.848464	26.543	
C	 0.0398190375	 1.4408613155	-0.2644050854	-0.394811
C	 0.0533745173	-0.0235946329	 0.2029183674	 0.023238
O	 0.5728285995	-0.149704701	 1.509312065	-0.422231
C	-1.3197656599	-0.6338266886	 0.0893064218	 0.330233
N	-2.0373438021	-0.8964815289	 1.1471746003	-0.162794
O	-3.2267110831	-1.3940420869	 0.6913054408	-0.150819
N	-3.2478699042	-1.4441569127	-0.671172371	-0.056669
C	-2.0920089705	-0.9818253496	-1.0575852948	-0.112067
H	 1.0468818243	 1.8546480512	-0.1738704329	 0.137334
H	-0.2829988061	 1.5271314284	-1.3072791914	 0.117337
H	-0.6398089417	 2.0324744537	 0.3568303258	 0.128439
H	 0.7320132648	-0.5909178085	-0.4471978741	 0.110155
H	-0.1533412377	-0.0364255473	 2.1339803459	 0.300259
H	-1.8441171781	-0.9146072023	-2.1055420475	 0.152396
