20
gdb 33130	3.05174	1.02307	0.77848	1.8854	82.84	-0.1873	0.0369	0.2243	1488.3468	0.170855	-403.175647	-403.166167	-403.165223	-403.210329	34.779	
C	-0.0298360165	 1.5289955244	 0.0074846813	-0.40081
C	-0.0435735856	 0.0072800649	-0.0852609104	-0.109522
N	 0.8022783421	-0.4569980851	-1.1749568303	-0.399266
C	 0.8573641712	-1.8304207019	-1.4077027312	 0.190092
C	 0.419470465	-2.8534557557	-0.6164402173	-0.098521
O	 0.7383903359	-4.0588143404	-1.1864574505	-0.158576
C	 1.3683957248	-3.7839008184	-2.352378917	-0.08643
C	 1.4811628895	-2.4451496101	-2.5569007452	 0.155475
C	 2.1192186772	-1.731691571	-3.7060027205	-0.517245
H	 0.989358931	 1.9004180898	 0.1481977934	 0.129753
H	-0.4348132018	 1.9841181632	-0.9041264287	 0.114406
H	-0.6432531583	 1.8695153442	 0.8462268421	 0.121544
H	 0.3475143597	-0.424332165	 0.8450281485	 0.112935
H	-1.0808007311	-0.358536358	-0.1862561228	 0.090842
H	 0.6630245026	 0.0745026829	-2.0250929998	 0.226283
H	-0.0889594067	-2.9003191093	 0.3300974934	 0.121452
H	 1.6843709858	-4.6365690936	-2.9321394532	 0.127728
H	 1.3949607838	-1.1283180225	-4.2692169804	 0.119543
H	 2.9073656126	-1.0498225831	-3.3654074453	 0.133162
H	 2.5677823389	-2.438951675	-4.408836466	 0.127154
