20
gdb 55754	3.84194	1.04411	1.00803	1.4559	80.77	-0.2464	0.0314	0.2778	1295.3827	0.17019	-403.129441	-403.120486	-403.119542	-403.16365	33.552	
C	-0.0138127216	 1.4582650832	-0.1364231719	-0.465383
C	 0.0416753441	-0.0301616546	 0.0919508952	 0.362656
N	 0.2215481954	-0.6657088531	 1.1743263479	-0.510658
O	-0.146166728	-0.6807756595	-1.0844985124	-0.286088
C	-0.109411341	-2.0783771609	-1.0477108442	 0.507637
C	 1.1728105232	-2.8320667566	-1.1758146498	-0.315771
C	 0.1025091573	-2.9960558656	-2.2378220296	-0.150154
C	-0.9992761834	-3.9291057498	-1.7151846044	-0.221928
C	-1.2370326656	-2.9545192111	-0.5094111809	-0.285319
H	 0.7571983202	 1.7588587204	-0.8525246876	 0.145782
H	-0.9801444772	 1.7367593599	-0.5678969408	 0.146983
H	 0.1317778294	 2.003506366	 0.7972898242	 0.126047
H	 0.3400632008	-0.01776452	 1.9500951547	 0.218729
H	 2.0169693517	-2.2216373381	-1.4794508628	 0.112004
H	 1.4183207019	-3.6426793208	-0.493244351	 0.107299
H	 0.2926116085	-2.7509732537	-3.2753818636	 0.091082
H	-1.8654997881	-3.9937473617	-2.3768500681	 0.103396
H	-0.6741969409	-4.9429356755	-1.4608404633	 0.09793
H	-1.0983345062	-3.3409421538	 0.5026093122	 0.111067
H	-2.2089202004	-2.4602746747	-0.5752365238	 0.104689
