23
gdb 104085	2.3116	1.40101	1.13725	1.2768	86.	-0.2328	0.0295	0.2623	1215.4022	0.205303	-388.30326	-388.293537	-388.292593	-388.337106	37.75	
C	 0.465286005	 1.6110171958	-0.3522951097	-0.404096
C	 0.0220944379	 0.2117833802	 0.1116310084	-0.067215
C	 0.2387856815	-0.815333903	-0.9796424028	-0.066353
C	 1.2226379729	-1.6642197228	-0.6917969338	-0.072769
C	 1.8245674927	-1.390553526	 0.6626017543	-0.289284
C	 0.8182299186	-0.3995665953	 1.3238588081	 0.298753
C	 1.5137515198	 0.6228574864	 2.2289420915	-0.452144
C	-0.195102332	-1.2034765714	 2.158013554	-0.10513
O	 0.4888760534	-1.8928392901	 3.1970142262	-0.426732
H	 1.5245717897	 1.6243411606	-0.6277904105	 0.117873
H	-0.1070827212	 1.9124673737	-1.2361023194	 0.10872
H	 0.3030281203	 2.3668559316	 0.4219770318	 0.113442
H	-1.0436878721	 0.2839793038	 0.3746457135	 0.062477
H	-0.3265880744	-0.7965315592	-1.9060148262	 0.08428
H	 1.5795613908	-2.4545792513	-1.3438238527	 0.086808
H	 1.9521650662	-2.2884228441	 1.2755080529	 0.117024
H	 2.8234015636	-0.9430269052	 0.5635620403	 0.095267
H	 2.2665181982	 1.1988868856	 1.6839200188	 0.108028
H	 0.795593041	 1.3295058944	 2.6610413016	 0.10347
H	 2.0096173368	 0.1099269164	 3.0569119081	 0.131515
H	-0.9406435328	-0.5086773949	 2.5778764511	 0.080632
H	-0.7262785018	-1.9092546965	 1.5015943293	 0.088729
H	-0.1489926042	-2.4362055886	 3.6675316452	 0.286704
