15
gdb 10787	4.70644	1.58926	1.26085	0.6759	62.72	-0.2527	-0.0342	0.2186	918.8046	0.119665	-399.833762	-399.826693	-399.825749	-399.865534	26.219	
N	-0.1385628536	 1.3842442448	-0.1272359348	-0.510458
C	-0.0220652683	 0.1469129423	 0.1035875147	 0.405212
C	-1.1519376915	-0.825547179	-0.1199346312	-0.309938
C	-1.23959125	-1.8230372371	 1.0465920181	-0.315038
C	 0.0743872514	-2.5680796947	 1.1813350819	 0.371159
O	 0.1900584204	-3.6888860142	 1.6095683435	-0.293573
C	 1.2913417574	-1.7967334175	 0.6643078251	-0.187411
O	 1.1266199247	-0.3797369315	 0.633215714	-0.2437
H	 0.7355377111	 1.8682551778	 0.0893967868	 0.222727
H	-2.0701630034	-0.2518188153	-0.2431248547	 0.148542
H	-0.9840788116	-1.3713238547	-1.0579831912	 0.130865
H	-1.420626596	-1.2822165307	 1.9852761274	 0.147946
H	-2.0495108714	-2.5464616874	 0.9285125605	 0.138434
H	 2.1484902855	-1.9972609168	 1.3093400254	 0.15499
H	 1.5330677752	-2.179451286	-0.3387750555	 0.140244
