15
gdb 16360	2.56005	2.40011	1.45001	5.2581	61.76	-0.2606	-0.0017	0.2589	867.4679	0.118739	-399.796091	-399.788752	-399.787807	-399.827689	26.995	
C	-0.2784153197	 1.494787211	 0.0305094074	-0.406524
C	 0.1118275819	 0.0343241371	 0.0036155708	 0.076281
O	 1.3691426508	-0.1904416712	-0.7296074397	-0.275701
C	 1.978030309	-0.7952059094	 0.3518308825	 0.449121
O	 3.072672689	-1.249312873	 0.4157510096	-0.327792
C	 0.7708712444	-0.5897504136	 1.2372328228	 0.101268
C	 0.6942067852	-0.2073908404	 2.6666531494	-0.291517
N	 0.2649570797	-1.5392122392	 2.2173839384	-0.346237
H	 0.5208012755	 2.1029140189	 0.4628623053	 0.135265
H	-0.4824481334	 1.855153196	-0.9818171547	 0.141746
H	-1.1865455735	 1.6336688056	 0.6271211191	 0.123721
H	-0.6720665612	-0.5903627668	-0.4379674696	 0.103613
H	 1.6012054389	-0.1980633591	 3.2634518797	 0.148312
H	-0.0564421829	 0.5272473393	 2.9474998715	 0.125569
H	-0.7500399836	-1.5898809549	 2.1586474775	 0.242875
