15
gdb 30334	3.11327	1.65421	1.16874	4.7899	67.77	-0.1985	0.0157	0.2142	998.5745	0.115284	-453.958041	-453.950794	-453.949849	-453.990001	27.458	
O	-0.0571893734	 1.4534165527	-0.1464728364	-0.428169
C	 0.0145019019	 0.0338173479	-0.0108104083	-0.089634
C	 0.4705017099	-0.4497207438	 1.4260531889	-0.104594
O	-0.6731299867	-0.9471874315	 2.169282448	-0.276682
C	-1.6537276717	-1.0409046192	 1.2383977556	 0.391994
C	-1.3372963774	-0.5657404594	 0.0046139126	 0.2406
N	-2.4919088635	-0.7357143158	-0.7342959896	-0.379078
C	-3.3990814055	-1.3080463657	 0.1128058915	-0.000865
N	-2.9182145144	-1.5129744341	 1.3337348487	-0.352475
H	 0.8392803014	 1.7860067165	-0.2656532366	 0.280433
H	 0.6995847397	-0.3689664926	-0.7711137035	 0.077531
H	 1.1956801548	-1.2662535397	 1.3455113504	 0.11564
H	 0.9075844923	 0.3801804981	 1.9868760835	 0.119804
H	-2.6567377447	-0.4738471337	-1.6909723124	 0.271513
H	-4.3958009428	-1.5662305198	-0.2116094023	 0.133982
