15
gdb 4059	5.56771	1.31061	1.18165	2.0126	66.33	-0.2462	0.0007	0.2469	1009.3815	0.116784	-399.718217	-399.710589	-399.709645	-399.749977	28.58	
C	 0.0720275408	 1.5218301983	 0.0136931651	-0.499903
C	-0.0766359497	 0.0408550425	 0.1214850088	 0.417958
C	-1.3731612425	-0.8069420774	 0.0112431269	-0.387087
C	-0.6968574483	-1.7827402966	 0.9782175982	 0.461672
N	-1.0310040227	-2.8017741356	 1.649197024	-0.260482
O	-2.3360840301	-3.2120559933	 1.3303275246	-0.386987
C	 0.5484370187	-0.9565160166	 1.0304788846	-0.155565
O	 0.9806625693	-0.7999269419	-0.3428154035	-0.27683
H	 1.0841844094	 1.82420286	 0.2943794249	 0.138992
H	-0.1103973249	 1.8542300144	-1.0144762998	 0.136339
H	-0.6441588037	 2.033094625	 0.6644535333	 0.130222
H	-2.260283495	-0.3461201628	 0.4559959068	 0.129529
H	-1.6086057493	-1.1754369695	-0.9894395943	 0.130826
H	-2.4557243908	-3.9750660233	 1.9062028558	 0.308902
H	 1.297708929	-0.8659009732	 1.8065339246	 0.112414
