12
gdb 2957	6.48258	1.77952	1.54339	2.6113	59.43	-0.2632	-0.07	0.1933	768.9982	0.089284	-323.3247	-323.317917	-323.316972	-323.355724	23.843	
O	-0.0402421651	 0.1275303485	-0.6055963261	-0.322204
C	 0.0156598759	 1.2912038605	-0.2529650649	 0.249982
C	 1.2633713548	 1.9256448211	 0.1201079632	 0.250856
C	 2.2868122079	 2.4760597806	 0.4338114717	-0.401257
C	-1.2028640235	 2.1540044959	-0.1871666184	-0.112762
C	-2.0700018653	 2.1496159382	-1.4138662694	-0.216255
N	-2.5025138818	 1.4716513848	-0.2020267139	-0.299888
H	 3.2011079716	 2.9450208345	 0.7069742679	 0.21961
H	-1.1349400856	 3.0523506824	 0.417243718	 0.112009
H	-2.6126930431	 3.0558145027	-1.6659301607	 0.13174
H	-1.7262418499	 1.5523262385	-2.2536671773	 0.136565
H	-2.3098444558	 0.4736094624	-0.29962544	 0.251606
