17
gdb 28876	2.37169	1.80862	1.0338	2.9187	80.09	-0.2006	0.0053	0.2059	1114.4141	0.137413	-418.077467	-418.069164	-418.06822	-418.109758	32.406	
C	-0.0583779815	 1.5067759843	 0.0545809444	-0.498332
C	-0.010216545	 0.0021051473	 0.0087292279	 0.274969
C	 0.0794399919	-0.6553910407	-1.2291355809	 0.164927
N	 0.1786699746	 0.0338726737	-2.4398522725	-0.599904
C	 0.1252372836	-2.0567552295	-1.2163031034	 0.350827
O	 0.2037611554	-2.6748268268	-2.4314395073	-0.453334
C	 0.0851539554	-2.7308784423	-0.0038329639	-0.263292
C	-0.0033274456	-1.9806421765	 1.1644119477	-0.019902
N	-0.0519831317	-0.6495760796	 1.178057031	-0.334825
H	 0.8010427997	 1.9509452426	-0.4621381431	 0.132001
H	-0.9632876524	 1.9017679133	-0.428500234	 0.116925
H	-0.0587393544	 1.8347409663	 1.094422013	 0.142617
H	-0.3124695899	 0.9155889694	-2.4636421273	 0.247328
H	-0.0372298253	-0.5384560455	-3.243885495	 0.257765
H	 0.209590249	-3.6287088326	-2.3030968419	 0.301009
H	 0.119171773	-3.8162205161	 0.0295570061	 0.082188
H	-0.0352390469	-2.4780946572	 2.1302197293	 0.099032
