13
gdb 11193	6.5834	1.30087	1.09368	0.3271	67.47	-0.2641	-0.0948	0.1693	993.7998	0.096101	-398.632143	-398.625328	-398.624384	-398.663482	24.445	
N	-0.0496951021	 1.2963920036	 0.0109690989	-0.539947
C	-0.0345993372	 0.0303909593	 0.0033998094	 0.440978
O	 1.0873137232	-0.7599473326	-0.007463592	-0.251519
C	 0.712667112	-2.1434410519	-0.0135730221	-0.174196
C	-0.7922877268	-2.1261939755	-0.0051665897	 0.209435
C	-1.6114629919	-3.3418439167	-0.0078256879	 0.079959
O	-1.1381813063	-4.4561360254	-0.0170234951	-0.255585
C	-1.2081257402	-0.8521364635	 0.0046605662	-0.272859
H	 0.9005979028	 1.6703612846	 0.0079362298	 0.231678
H	 1.1242127321	-2.6303583105	-0.9050985011	 0.146875
H	 1.1339934023	-2.6408359555	 0.8675390998	 0.146875
H	-2.7085026861	-3.1727836029	-0.0007828039	 0.090292
H	-2.2212201518	-0.4760747629	 0.0124751876	 0.148014
