18
gdb 67225	2.5596	2.0387	1.47847	3.3061	75.22	-0.24	-0.0184	0.2216	934.3189	0.149004	-401.913594	-401.906345	-401.905401	-401.94498	29.048	
C	-0.0092060852	 1.568280362	 0.0912747765	-0.508352
C	-0.019689238	 0.0693041563	 0.0387605479	 0.208916
C	 0.643570953	-0.7402108341	-1.1555695203	-0.08705
C	 1.8920107768	-0.7955406188	-0.2606700029	-0.170073
N	 0.9568137305	-0.7840944584	 0.9202977692	-0.190056
C	-0.0704446668	-1.9087036965	 0.6532818277	-0.129569
C	 0.0611355667	-2.1453923148	-0.8779536849	-0.24585
C	-1.1246666648	-0.8015224991	 0.6254000296	 0.429357
O	-2.2359372003	-0.6300437638	 1.0273923241	-0.324302
H	 0.9652639422	 1.9811007446	-0.1876056558	 0.125282
H	-0.754836351	 1.9697158772	-0.6031300108	 0.135469
H	-0.2593342273	 1.9184560676	 1.0964330116	 0.143839
H	 0.6510958884	-0.3739172137	-2.1832704692	 0.071912
H	 2.5573341197	-1.6614395744	-0.3379891734	 0.102913
H	 2.4856626516	 0.1207863015	-0.2454985327	 0.115255
H	-0.0872471952	-2.7503439746	 1.3408255892	 0.097103
H	-0.9047435378	-2.3415291785	-1.3525461083	 0.116935
H	 0.7531039176	-2.9466424527	-1.1500353374	 0.108272
