15
gdb 133092	3.60322	1.11921	0.85852	2.0974	70.73	-0.2481	-0.0269	0.2212	1243.0182	0.113078	-461.971683	-461.963921	-461.962977	-462.004548	28.622	
O	 0.0273674504	 1.413256697	 0.0065637891	-0.418638
C	-0.0090973275	-0.0004814767	 0.0023591412	-0.149225
C	-1.4419701161	-0.4741921538	 0.0131229222	 0.301861
C	-2.5181904461	 0.4059266797	 0.0236176888	-0.166597
C	-3.806594195	-0.1284961412	 0.0328952877	-0.065829
C	-3.9781958368	-1.5049344224	 0.0314262756	-0.270175
C	-2.8176672354	-2.2750823894	 0.0205176224	 0.328377
F	-2.939046743	-3.6016316858	 0.0186747485	-0.077126
N	-1.5936527556	-1.8080659147	 0.0116126691	-0.364446
H	 0.9472792646	 1.6902603434	-0.0001726805	 0.295203
H	 0.4853016648	-0.4223720116	-0.8867137165	 0.115421
H	 0.5004968815	-0.4281357801	 0.8799908079	 0.115446
H	-2.3397455676	 1.4719997864	 0.024420034	 0.125343
H	-4.6716576867	 0.5264386816	 0.04122178	 0.11469
H	-4.9517482316	-1.9778220524	 0.0382822106	 0.115696
