19
gdb 54326	2.36058	1.19714	0.92863	1.9556	76.64	-0.2526	-0.0314	0.2212	1296.9612	0.155694	-423.044268	-423.034437	-423.033493	-423.080516	34.962	
C	 0.6071972032	 0.3796955448	 1.2024189221	-0.503542
C	 0.2925842927	-0.4928569618	-0.0009910819	 0.329355
O	 1.1517717386	-0.7568368937	-0.8162183296	-0.314853
C	-1.0954861835	-1.0679693533	-0.1341825642	 0.218157
C	-2.230679027	-0.5449235943	 0.7349972094	-0.394387
C	-2.7926463078	 0.7793475602	 0.2444802025	 0.172079
O	-3.9629268033	 1.0571955616	 0.2377630853	-0.236864
C	-1.4526479457	-1.5704248463	-1.527830229	-0.281832
C	-1.0917991616	-2.5620467173	-0.4774996189	-0.287695
H	 1.6559243588	 0.6739590323	 1.1584879016	 0.148125
H	-0.0211593162	 1.2763047818	 1.2244481201	 0.140113
H	 0.4194175299	-0.1650658283	 2.1348829399	 0.143976
H	-3.060877802	-1.256023454	 0.7714362166	 0.127369
H	-1.8979829419	-0.4018252127	 1.7719151272	 0.128354
H	-2.0321922968	 1.5062220158	-0.1258382533	 0.077683
H	-2.4925659652	-1.4832103426	-1.8236057219	 0.125246
H	-0.7202590156	-1.3729168091	-2.300761399	 0.145499
H	-0.11726968	-3.0307770258	-0.5457381663	 0.141226
H	-1.8724810965	-3.1675926872	-0.0306741705	 0.12199
