17
gdb 36821	8.28948	0.45917	0.43983	5.2022	75.36	-0.2981	-0.0013	0.2968	2288.9771	0.134435	-418.019926	-418.009955	-418.009011	-418.056701	33.03	
N	 0.010832105	-1.1518641611	-0.003532374	-0.295463
C	-0.0041597761	 0.0032578831	 0.0024354681	 0.260985
C	-0.0073992923	 1.4641501523	 0.0096766371	-0.344997
C	 1.4156359656	 2.0538447626	 0.0000225607	-0.199632
C	 1.3845576134	 3.5760410655	 0.0078734777	-0.057117
O	 2.7234312762	 4.0343185356	-0.0018498484	-0.237185
C	 2.81528964	 5.4371957889	 0.0044431693	-0.189067
C	 4.2276767459	 5.8280630935	-0.0062273177	 0.26731
N	 5.3305968839	 6.1682581315	-0.0144300188	-0.286207
H	-0.5728478378	 1.8120180635	-0.8630862503	 0.156415
H	-0.5573361943	 1.80334483	 0.8956697357	 0.156408
H	 1.9717063729	 1.7006530709	 0.8732106276	 0.141437
H	 1.9561300091	 1.7094224221	-0.886353652	 0.141442
H	 0.8423986145	 3.9590718935	-0.8735482341	 0.099847
H	 0.858327413	 3.950233226	 0.9026426346	 0.099847
H	 2.32132653	 5.8803307639	-0.8758948171	 0.14299
H	 2.337197741	 5.8713151883	 0.8979350316	 0.142988
