20
gdb 36799	7.7182	0.49843	0.4895	4.6566	81.4	-0.2574	0.0356	0.293	2196.8103	0.169646	-403.140797	-403.130923	-403.129979	-403.177211	34.631	
N	-0.0445308597	-1.0907433253	-0.0993628111	-0.301706
C	 0.0224034505	 0.044169884	 0.1069020809	 0.259097
C	 0.1215002539	 1.4796376473	 0.3598322911	-0.34243
C	 1.3967544157	 2.0989664392	-0.2418602406	-0.196325
C	 1.478898364	 3.593249985	 0.0435960345	-0.059969
O	 2.6676512169	 4.0814364005	-0.5438230542	-0.249351
C	 2.8597582537	 5.4488024281	-0.3504146661	 0.144844
C	 3.4872940564	 5.9300641115	 0.9339831913	-0.288259
C	 4.2729986296	 5.9274307953	-0.3637052075	-0.285873
H	-0.7713566286	 1.9645792618	-0.0527188238	 0.153871
H	 0.0923848126	 1.6414080526	 1.4440464266	 0.15368
H	 2.2808003695	 1.6039995486	 0.1712894682	 0.131776
H	 1.4150484964	 1.9361858979	-1.3235851912	 0.133342
H	 0.6001400773	 4.1132852257	-0.3754694825	 0.089413
H	 1.4787013938	 3.7828067626	 1.1294549475	 0.093234
H	 2.0941092937	 6.075789268	-0.8098169805	 0.084575
H	 3.1650199119	 6.8774254362	 1.3518198932	 0.114949
H	 3.7489803429	 5.1737021862	 1.6656818361	 0.119484
H	 5.0364556414	 5.1663043866	-0.4756105493	 0.128559
H	 4.4952097282	 6.8719774484	-0.8467108827	 0.11709
