21
gdb 71012	3.54941	1.48166	1.33931	1.4183	82.81	-0.2326	0.0866	0.3192	1054.2923	0.183672	-387.052654	-387.045086	-387.044142	-387.083974	31.878	
C	-0.1326807894	 1.5165701714	-0.0316829164	-0.490512
C	 0.0388778143	 0.022865856	-0.0069937251	 0.406443
C	 0.734292014	-0.7741132936	-1.1755487016	-0.380353
C	-0.219324201	-1.8206131578	-0.5912069027	 0.43724
C	-0.9057839132	-3.1870655153	-0.6496506365	-0.342467
C	-0.861577286	-3.155900919	 0.9269626037	-0.257119
C	 0.3170525365	-2.1317117997	 0.8173930755	 0.009056
C	 0.4540628868	-0.6787539337	 1.3316222584	-0.294548
O	-1.1706337152	-0.7449203131	-0.3046569269	-0.354428
H	 0.8235093494	 2.0141522165	 0.1602312114	 0.120943
H	-0.5102832713	 1.8521109535	-1.0013821302	 0.125646
H	-0.8407774786	 1.8314484639	 0.7421813199	 0.127134
H	 0.4328145774	-0.3636687682	-2.1408112349	 0.104985
H	 1.8090696589	-0.9735429299	-1.1361330413	 0.090302
H	-1.8764578512	-3.2304466747	-1.1477543307	 0.110228
H	-0.2515115334	-3.9645022254	-1.0528960454	 0.108416
H	-1.7671914178	-2.7109407955	 1.3399671825	 0.120873
H	-0.6515702169	-4.0995112581	 1.4345190125	 0.093866
H	 1.2720820913	-2.6642911462	 0.7997139426	 0.068641
H	 1.4661913402	-0.4357449618	 1.6687878798	 0.090738
H	-0.2507470047	-0.4007864291	 2.1201884055	 0.104917
