19
gdb 22489	2.42854	0.98306	0.88436	2.9574	76.75	-0.2582	-0.008	0.2502	1410.5336	0.157014	-456.299804	-456.289425	-456.288481	-456.33677	35.964	
C	 2.0193416218	-0.5236155136	 0.3531399165	-0.387519
C	 0.5460704543	-0.3417997335	-0.061393646	-0.265753
C	 0.3655101856	-0.2475531428	-1.5550652299	 0.344765
C	-0.115841139	-1.4519963854	-2.3230718233	-0.175134
O	 0.7359554613	-2.5849079226	-2.1133556738	-0.185
C	 1.8442289737	-2.6487212923	-2.8825435156	 0.139432
N	 2.7227371402	-3.52197398	-2.6434809522	-0.446832
N	 0.5911329165	 0.7869310537	-2.2732819973	-0.163218
O	 1.0162464965	 1.8784050703	-1.5072476075	-0.390479
H	 2.4326806864	-1.4483855466	-0.0574858724	 0.149683
H	 2.6222068531	 0.3165310665	 0.0006959191	 0.134359
H	 2.0995421385	-0.5697669864	 1.4432042165	 0.116165
H	-0.0462191642	-1.1820907282	 0.3137646	 0.109385
H	 0.1544199828	 0.5752135974	 0.3901370805	 0.127867
H	-1.0977268368	-1.770531065	-1.9595443832	 0.128218
H	-0.195342417	-1.2051969223	-3.3870561444	 0.124846
H	 1.862040869	-1.9026488605	-3.6883196724	 0.099514
H	 3.4714826336	-3.4567496867	-3.3300887846	 0.230068
H	 1.1180646838	 2.5684077279	-2.1715852999	 0.309631
