14
gdb 131655	4.47505	0.93331	0.78284	7.9688	72.07	-0.2617	-0.0265	0.2352	1355.2127	0.102543	-432.891935	-432.883772	-432.882828	-432.925872	28.735	
O	 0.0960170107	 1.3311540618	 0.4133238868	-0.401746
C	 0.0193059864	 0.0087893659	-0.0812025695	-0.195848
C	-1.4082487477	-0.4305040307	 0.0024457046	 0.402133
C	-2.5826238255	 0.2817963072	-0.0945436998	-0.360183
C	-3.6006485854	-0.6943762074	 0.0301380905	 0.244919
N	-3.0986041485	-1.9247626694	 0.1922524522	-0.277941
N	-1.7750251986	-1.7291667821	 0.1745005933	-0.26015
C	-5.0073023475	-0.4784709232	-0.0002190037	 0.243644
N	-6.143328143	-0.2617126064	-0.0322814964	-0.339809
H	 0.9535557817	 1.6935823511	 0.1712941686	 0.298811
H	 0.3617379062	-0.045954838	-1.1272539888	 0.120614
H	 0.6519094169	-0.6850217304	 0.4984418438	 0.102265
H	-2.6902739297	 1.344518907	-0.2241675279	 0.14057
H	-1.1718249661	-2.5272875555	 0.2936129462	 0.282719
