23
gdb 96107	2.11964	1.70166	1.17913	1.4478	84.97	-0.2577	0.0738	0.3315	1162.5955	0.20722	-388.300037	-388.291108	-388.290164	-388.332933	35.806	
C	-0.042920131	 1.5223391616	-0.0203587403	-0.472603
C	-0.0246499602	 0.0063898606	 0.0131738829	 0.3754
C	-0.8617675063	-0.6840577837	 1.059656185	-0.315457
C	 0.6448228308	-0.6880805669	 1.188674874	-0.073654
C	 1.4330115925	-1.9867259788	 1.0111755066	-0.220424
C	 1.7241289309	-2.3248701382	-0.4596327689	-0.199491
C	 0.4817011352	-2.1139782856	-1.32972751	-0.245968
C	 0.0856302119	-0.6331429994	-1.3602419615	 0.067631
O	-1.1646116629	-0.4298499471	-2.0202167901	-0.445555
H	 0.8889389534	 1.9216640049	-0.4395388642	 0.105889
H	-0.871213317	 1.8805766901	-0.6395714066	 0.132049
H	-0.1625370648	 1.94039834	 0.9840912186	 0.105851
H	-1.4404681047	-0.0614878467	 1.7341781896	 0.102503
H	-1.3487833131	-1.6183125274	 0.7997747299	 0.109969
H	 1.0458031659	-0.0154270964	 1.9419061746	 0.076781
H	 2.3777260325	-1.9149542826	 1.5603453665	 0.095598
H	 0.8799194889	-2.8172944555	 1.468500976	 0.099214
H	 2.5315628902	-1.6801611678	-0.832318335	 0.094661
H	 2.0853429339	-3.3554795485	-0.5436992868	 0.0917
H	 0.6678823289	-2.4498566937	-2.3579588936	 0.080891
H	-0.3598393763	-2.7097896595	-0.9552949582	 0.103564
H	 0.8790990192	-0.0912319239	-1.905617796	 0.055313
H	-1.0747977079	-0.7515725657	-2.9232416124	 0.276138
