17
gdb 30101	3.66827	1.27671	1.13976	1.9031	75.2	-0.2124	0.0175	0.23	1110.3401	0.137102	-418.013533	-418.005707	-418.004763	-418.046458	29.213	
C	-0.0323392856	 1.2619905931	 1.4896465448	-0.415148
C	 0.1179266653	-0.1311767165	 0.9301695512	 0.007423
C	 0.1384453843	-0.3733422569	-0.5410239471	-0.241916
N	 1.3603315159	-0.5383700182	 0.2381413178	-0.174764
C	 2.3829701849	 0.3651737761	 0.0464070655	 0.463671
N	 2.719293612	 1.0085805809	-1.0313112239	-0.333993
C	 3.878245941	 1.6887611577	-0.6662290996	-0.110319
C	 4.1705745912	 1.4224207422	 0.6242184879	-0.047781
O	 3.2107613064	 0.5605191803	 1.1022649904	-0.186122
H	 0.3426349657	 2.0144168845	 0.7903771887	 0.139664
H	-1.0882919891	 1.4738049035	 1.6854855015	 0.126713
H	 0.5141795158	 1.3670069214	 2.4323290506	 0.136373
H	-0.2689423637	-0.9257878109	 1.5640644328	 0.104472
H	-0.2666299297	-1.2915490957	-0.9554594307	 0.12541
H	 0.092328957	 0.4928480364	-1.1952487778	 0.144867
H	 4.4072675665	 2.3190576336	-1.3634292666	 0.120562
H	 4.9383693822	 1.7165490685	 1.3178800045	 0.140888
