16
gdb 42731	2.64779	1.86055	1.42617	2.871	69.16	-0.2288	-0.0324	0.1964	929.4416	0.125918	-437.842488	-437.835573	-437.834629	-437.873824	27.15	
O	 0.0180571098	 0.0507823121	 0.0494984989	-0.327542
C	-0.0362267967	 1.249613919	 0.0624162874	 0.373588
C	-1.2260062666	 2.2101329207	-0.0320073845	-0.126124
C	-0.8549457279	 3.2515312126	 1.0641523485	-0.232321
C	 0.2884249463	 3.5461127153	 0.0574403722	-0.107199
N	-0.717694501	 3.2307708049	-1.0201630962	-0.314419
C	 1.1107990141	 2.2685627587	 0.1248752793	 0.362807
C	 2.431470662	 2.0176930069	 0.7007896278	-0.269832
O	 2.2464880937	 2.0918657946	-0.7175270959	-0.282496
H	-2.221585738	 1.7930962495	-0.1676606955	 0.096672
H	-1.5839728638	 4.061267126	 1.0994422466	 0.130896
H	-0.5960432201	 2.8936893797	 2.0623041169	 0.11401
H	 0.8149913206	 4.4980964508	 0.0043640085	 0.089633
H	-0.2947053187	 2.8186060195	-1.8546623754	 0.233366
H	 2.9892060554	 2.842199904	 1.1430812904	 0.122081
H	 2.658811911	 1.0250460955	 1.085858371	 0.13688
