21
gdb 97609	4.41425	0.5428	0.51187	2.9064	90.21	-0.2431	-0.0244	0.2187	2190.5095	0.178813	-387.084258	-387.072981	-387.072037	-387.123811	38.329	
C	 0.1285025071	 1.4466984259	-0.4457620093	-0.363661
C	-0.0581117797	 0.1900203155	 0.424017082	-0.315047
C	-1.4021016828	-0.373198492	 0.3366757343	 0.112942
C	-2.5187112368	-0.8163029547	 0.2420754097	 0.029336
C	-3.8635635926	-1.3824600693	 0.1529617669	-0.178636
C	-3.8326700036	-2.8207914471	-0.4027362362	-0.381682
C	-4.5763750208	-1.3238631282	 1.5288844894	-0.2651
C	-6.0462333974	-1.6640118977	 1.428412086	 0.156222
O	-6.6281359668	-2.4478495962	 2.1320826372	-0.238344
H	 1.1481849427	 1.8308631716	-0.3475535125	 0.114987
H	-0.0547922996	 1.2204126412	-1.4996427223	 0.127706
H	-0.5672282568	 2.2345825431	-0.1445698017	 0.12704
H	 0.6749785301	-0.5716217373	 0.1285849132	 0.129174
H	 0.1674662254	 0.4325275637	 1.470526491	 0.128718
H	-4.4483428597	-0.7638137145	-0.5443738668	 0.105735
H	-3.2680689865	-3.477399413	 0.2658080378	 0.131525
H	-4.8463476571	-3.2231199424	-0.4996999791	 0.123113
H	-3.3560963118	-2.8444783679	-1.38568671	 0.127855
H	-4.0992689711	-1.9907021044	 2.2521610793	 0.128269
H	-4.5069389477	-0.2981466523	 1.91554634	 0.129986
H	-6.5876170745	-1.1042056538	 0.6272554211	 0.069864
