19
gdb 17662	3.79439	1.54343	1.47199	2.7831	70.92	-0.234	0.0645	0.2985	955.6263	0.16604	-365.022379	-365.014438	-365.013494	-365.054506	30.612	
O	-0.3568539197	 1.5108895755	 0.3262717042	-0.489003
C	 0.058315242	 0.1699373659	 0.1700040759	 0.37747
C	 0.980062787	-0.1617170743	-1.046373683	-0.276161
C	 1.8257361587	-1.0708901491	-0.1136898253	-0.213419
C	 1.1815392895	-0.3669098395	 1.1117210751	-0.266683
C	-1.1892660434	-0.6891960602	 0.2052347495	 0.00923
C	-2.3553334433	-0.3149174059	 1.0383655896	-0.250747
N	-2.4258313151	-0.225316279	-0.4359301559	-0.338131
H	 0.4114121581	 2.0795000423	 0.2223177938	 0.280034
H	 0.5094960146	-0.6070692455	-1.9259587503	 0.112677
H	 1.539731059	 0.7259323797	-1.3614675125	 0.088189
H	 1.5365336912	-2.1219825092	-0.1868527217	 0.111847
H	 2.9110005991	-1.006999933	-0.2098700299	 0.10153
H	 1.7999988428	 0.4578189695	 1.4809281244	 0.091146
H	 0.8728250237	-0.978849204	 1.9628496249	 0.104833
H	-0.9863992773	-1.7471633527	 0.0493823889	 0.085471
H	-2.9761914061	-1.0893159229	 1.480322279	 0.109669
H	-2.2928201734	 0.610039123	 1.6018499094	 0.124189
H	-2.2923370774	 0.7507139394	-0.694247416	 0.237857
