14
gdb 72320	2.34087	1.99242	1.54705	2.3988	63.47	-0.2216	-0.0519	0.1697	881.0772	0.097683	-473.662525	-473.65481	-473.653866	-473.69412	29.987	
O	-0.0181070571	 1.3411046027	 0.0271369444	-0.445911
C	-0.0579288527	-0.0162968977	-0.1281855828	 0.286782
C	 0.8491765948	-0.7622836756	-1.1431777502	-0.23718
N	 0.5586306564	-2.1954732029	-0.843986446	-0.218879
C	-0.5144947096	-2.1047460683	-0.1783486106	 0.18664
O	-0.6200537154	-2.4163387047	 1.1811814843	-0.260638
C	-0.7241760569	-0.9238156851	 1.2347956104	-0.107913
C	-1.3256348925	-0.7400805989	-0.0783002181	 0.257649
O	-2.5488975895	-0.3774766088	-0.578493528	-0.454505
H	 0.8845935397	 1.6035984035	 0.2418578521	 0.30058
H	 0.6484002379	-0.4258393354	-2.1711731703	 0.12957
H	 1.919268725	-0.6297911894	-0.9462967069	 0.12773
H	-0.8169730878	-0.4790205091	 2.2181899178	 0.138434
H	-3.2285830623	-0.9094125802	-0.1476385663	 0.297642
