13
gdb 11183	3.85195	1.57388	1.42122	3.0454	57.72	-0.2671	-0.0466	0.2205	873.4173	0.09546	-398.624994	-398.61801	-398.617066	-398.656812	24.965	
O	-0.0057167639	 0.0228104817	-0.2252967375	-0.280668
C	-0.0201274367	 1.206403974	-0.0371282983	 0.381586
C	-1.2546834553	 2.0801164663	 0.2003430427	-0.190173
O	-0.7626537777	 3.3584100537	 0.5784193709	-0.240686
C	 0.5275456451	 3.5393444378	-0.0034476773	-0.049745
C	 1.1889225876	 2.1502576086	 0.0131200381	-0.352825
C	 0.4167411909	 4.0817401217	-1.3753626722	 0.273557
N	 0.3244564651	 4.4971021757	-2.4494967342	-0.308179
H	-1.8511409144	 2.1262563767	-0.7233525346	 0.147572
H	-1.882305674	 1.6883483729	 1.0043168619	 0.153396
H	 1.0537033039	 4.2726649063	 0.6120710859	 0.146336
H	 1.7162547535	 1.9943933792	 0.9595702788	 0.155398
H	 1.8807522959	 1.9572537354	-0.8070585842	 0.164432
