17
gdb 130206	3.02359	1.44424	1.02931	1.7786	75.63	-0.1865	0.0374	0.2239	1131.6878	0.138365	-414.16841	-414.160191	-414.159247	-414.201443	31.029	
N	 0.197958178	 1.26689946	-0.4443206831	-0.595647
C	 0.0814751173	-0.0909447022	-0.1453993545	 0.309875
N	-1.0874299967	-0.7199185683	-0.1284395654	-0.30584
N	-0.7677369765	-2.0118733768	 0.1326006173	-0.203526
C	 0.5661214299	-2.2108630596	 0.2821367936	-0.114021
C	 1.1636202781	-0.9786817252	 0.105470167	 0.157035
N	 2.5128349999	-0.5899519263	 0.2212337184	-0.174576
C	 3.5412694566	-1.5276035738	-0.2138534333	-0.226751
C	 3.2520847331	-0.3095815755	-1.0180199382	-0.219751
H	 0.9054512508	 1.7205152853	 0.1203213446	 0.25053
H	-0.689906673	 1.7445767514	-0.3537098311	 0.248289
H	-1.5042141307	-2.6903900828	 0.1966028737	 0.269896
H	 0.9807366519	-3.1788402729	 0.5131046289	 0.125272
H	 4.425506311	-1.5783655017	 0.4144167248	 0.118644
H	 3.2142958009	-2.4791780731	-0.6276521056	 0.115226
H	 2.7227888763	-0.4451219737	-1.9572326839	 0.128117
H	 3.9186434532	 0.5463087554	-0.9766930931	 0.117228
