18
gdb 126405	5.18934	1.04362	0.9339	3.1018	80.09	-0.2425	0.0254	0.2679	1297.4251	0.149673	-398.127438	-398.119226	-398.118282	-398.161448	29.552	
C	-0.3144721932	 1.441480781	-0.1406609461	-0.3732
C	 0.0860738376	-0.0360927319	-0.0043295253	-0.279809
C	 0.8516025562	-0.3130562534	 1.2508312111	 0.329876
N	 2.1377979114	-0.6986312412	 1.224046912	-0.341002
N	 2.3754773955	-0.788708649	 2.5532552261	 0.083288
C	 3.2494580989	-1.1426522253	 3.6875108945	-0.168517
C	 1.9987636573	-0.7755674299	 4.5958948684	-0.369404
C	 1.3016142031	-0.4902919401	 3.2708107568	 0.366144
N	 0.2784356283	-0.1716845409	 2.5037255481	-0.413822
H	 0.5706237856	 2.0830572662	-0.1945823277	 0.118913
H	-0.9051094278	 1.5995108513	-1.0481680456	 0.109641
H	-0.9107828067	 1.75812731	 0.7191737722	 0.136613
H	-0.8175256111	-0.6568321869	-0.0061349742	 0.116054
H	 0.6999430615	-0.3476536932	-0.8539491367	 0.118014
H	 3.5481220652	-2.1932118452	 3.7048793681	 0.142225
H	 4.1233407603	-0.4961889823	 3.7945618363	 0.140731
H	 1.5984629266	-1.6115530088	 5.1726468971	 0.142561
H	 2.1494088514	 0.0839020494	 5.2519540348	 0.141694
