16
gdb 87345	1.79826	1.61903	1.05914	2.1097	73.05	-0.2406	0.0087	0.2492	1160.6872	0.121417	-437.846946	-437.837522	-437.836578	-437.881526	34.161	
O	-0.0891047105	 1.3033024635	 0.1014569235	-0.417966
C	-0.0616433321	-0.0835112365	 0.1313907997	 0.095964
C	-0.7288205687	-0.8849226719	 1.1951018588	-0.345044
C	-1.3303035394	-0.888005696	-0.21287023	 0.07315
N	-2.5066176927	-0.0779685841	-0.3943420508	-0.353435
C	-3.684027087	-0.2652187118	 0.2879576292	 0.145831
O	-3.838730772	-0.9930887296	 1.238617265	-0.299584
C	-1.2218382092	-2.0586723574	-1.0371164927	 0.322479
C	-1.1095710357	-3.0237732474	-1.7466625191	-0.458561
H	-0.9360338148	 1.5921638141	 0.4606606219	 0.285957
H	 0.8634179784	-0.4530087386	-0.2949543015	 0.130107
H	-0.2674354842	-1.8069796531	 1.5273437473	 0.140552
H	-1.3127872695	-0.3720423875	 1.950149908	 0.143946
H	-2.5616410851	 0.4435057033	-1.2584283454	 0.255757
H	-4.4882327808	 0.3771283708	-0.1253780983	 0.081628
H	-1.0226352565	-3.8838167479	-2.3633615355	 0.199218
