15
gdb 19601	3.28769	2.43052	1.83782	2.3479	64.08	-0.2348	-0.0072	0.2276	753.3729	0.119068	-362.612996	-362.606507	-362.605563	-362.643439	25.238	
C	 0.0433203944	 1.5794654796	-0.0693793819	-0.419642
C	 0.0660548922	 0.0645646973	-0.0885259413	 0.07321
C	 0.7010784258	-0.7067581873	-1.2631110397	-0.220814
C	 1.2559895012	-1.6799131693	-0.1511868883	-0.044861
C	 2.3540615355	-0.6799458248	 0.1230084064	-0.175034
N	 1.0405545016	-0.6328597461	 0.8522817147	-0.145354
C	 2.1458979813	-0.1563967164	-1.268412046	 0.437302
O	 2.8687621142	 0.2848535439	-2.1153397867	-0.337103
H	 1.0214125276	 2.0069730789	-0.3094900672	 0.136814
H	-0.6779760172	 1.9564074385	-0.8021284394	 0.12782
H	-0.2556205422	 1.9405551339	 0.9193351508	 0.133674
H	-0.9172774855	-0.3417699425	 0.1661305216	 0.093671
H	 0.1927053287	-0.9422623727	-2.1942426103	 0.09526
H	 1.2380312495	-2.7483576223	 0.0094503987	 0.122949
H	 3.2526717031	-0.7796110505	 0.7153853286	 0.122108
