16
gdb 11248	3.18608	1.93911	1.51845	3.0366	67.12	-0.2336	-0.0305	0.203	874.9396	0.129125	-383.750688	-383.743007	-383.742063	-383.782997	27.859	
C	 0.4009149413	 1.4228385302	-0.3070337583	-0.388136
C	-0.002432621	-0.0102877096	 0.0436780749	 0.077209
O	 0.3233473455	-0.9038133398	-1.0349912173	-0.256571
C	 1.3124314158	-1.8236223333	-0.6382410938	-0.021349
C	 2.6554276073	-1.5806444053	-1.3355466339	 0.152581
O	 2.9449169515	-0.5844525757	-1.9389645764	-0.231608
C	 1.4674024633	-1.626194696	 0.8553858085	-0.119061
C	 0.7258965267	-0.5899640859	 1.2278484354	-0.076592
H	 1.4728068309	 1.4710894856	-0.5132933488	 0.140071
H	-0.137723044	 1.7535907951	-1.1991114591	 0.129001
H	 0.1584196768	 2.1042993464	 0.5154612247	 0.107562
H	-1.092602944	-0.0519347487	 0.1899767117	 0.087916
H	 0.9957823162	-2.850034285	-0.8932249992	 0.098556
H	 3.374584141	-2.4260305409	-1.2152591611	 0.070798
H	 2.1135673943	-2.2338128862	 1.4749324628	 0.116226
H	 0.6387825483	-0.1838615408	 2.2276748798	 0.113396
