14
gdb 33697	4.08736	1.47577	1.38005	4.2357	69.04	-0.2558	0.0102	0.266	916.9215	0.102866	-399.503416	-399.497347	-399.496402	-399.533909	24.609	
N	-0.0837706808	-1.133848831	-0.0590894932	-0.354322
C	-0.0298278483	 0.022443875	-0.0106863315	 0.140427
C	 0.0323118074	 1.4360805776	 0.040896569	 0.231706
C	-0.9904439376	 2.3541104171	 0.7393790446	 0.019299
O	-0.3516675527	 3.3381743719	 1.4807476673	-0.213996
C	 0.7800004121	 3.5905760169	 0.6947264595	 0.077802
C	 0.5004538461	 3.3926338868	-0.7826394385	-0.12896
C	 1.2817773365	 2.3408008634	-0.0004949207	-0.209187
C	-0.7569595414	 2.5062768687	-0.7409443846	-0.18083
H	-1.9026155382	 1.965111987	 1.1691936236	 0.140693
H	 1.4369072076	 4.3567129906	 1.0813314248	 0.127123
H	 0.8060256291	 4.0544653427	-1.5793307309	 0.110851
H	 2.3097093116	 2.0165306281	-0.0652428259	 0.117367
H	-1.5019199713	 2.3679137053	-1.5107632735	 0.122027
