17
gdb 9753	3.56583	1.65097	1.52339	1.9266	64.12	-0.2515	0.0116	0.2631	898.085	0.142722	-401.013469	-401.005624	-401.00468	-401.045797	28.983	
C	 0.0162705908	 1.4962818765	 0.0396263168	-0.421371
C	-0.0651660281	-0.0304312167	-0.0393815961	 0.247824
C	-1.5305554144	-0.5030782306	-0.1119265822	-0.075871
O	-2.2530887377	-0.1412629136	 1.0424281395	-0.422433
C	 0.7995535263	-0.6281247314	-1.1840011257	-0.156095
O	 1.7703205079	-1.4685441987	-0.5099762765	-0.218932
C	 1.4756773594	-1.3701573349	 0.804214379	 0.118967
N	 0.5206286425	-0.6320808965	 1.18825379	-0.309339
H	 1.0467154358	 1.8221383961	 0.2078339664	 0.116693
H	-0.3422644019	 1.9464665825	-0.8927672575	 0.112574
H	-0.6068009017	 1.8609472337	 0.8583732476	 0.14074
H	-2.0357839626	-0.038296023	-0.9669285573	 0.104252
H	-1.5395791328	-1.5947650731	-0.2698024888	 0.082459
H	-1.7061148512	-0.4190068374	 1.7891744402	 0.294896
H	 0.2310900872	-1.2580631659	-1.8758121614	 0.119476
H	 1.3439129861	 0.1291895423	-1.753965271	 0.121153
H	 2.1169126144	-1.9604564092	 1.450071397	 0.145007
