18
gdb 105503	1.99753	1.69452	1.10127	5.013	67.93	-0.2405	0.0271	0.2676	1120.0306	0.147424	-476.224659	-476.21547	-476.214525	-476.259196	33.598	
N	 0.0635011197	 1.3571227991	 0.2859631899	-0.53486
C	 0.1267161928	 0.0456043249	-0.0639833522	 0.325368
O	 1.1586756743	-0.4977409043	-0.4167819572	-0.368633
C	-1.2028203495	-0.7179823348	-0.0169986218	 0.183501
C	-2.2072295639	-0.2527807463	 1.0316579102	-0.180524
O	-2.6699727071	 1.0582680668	 0.6945766759	-0.422099
C	-1.8632917883	-0.9514893653	-1.4070937431	-0.101664
O	-1.8986540266	-2.3745870102	-1.1991660226	-0.276166
C	-1.0550064322	-2.2568882873	-0.0327776543	-0.123207
H	 0.8973793442	 1.9101763453	 0.1720783082	 0.255711
H	-0.8281464441	 1.7969616236	 0.4612622362	 0.269362
H	-3.0502084042	-0.9572432319	 1.0403131582	 0.114646
H	-1.742818984	-0.2611390089	 2.0288804926	 0.10678
H	-3.3137676365	 1.3338075999	 1.3539263601	 0.298736
H	-2.8597951261	-0.5173309152	-1.539143206	 0.111529
H	-1.2232503998	-0.675950809	-2.2541073015	 0.113216
H	-0.026767288	-2.5732790154	-0.228263666	 0.134204
H	-1.4644533406	-2.7978413712	 0.8289530136	 0.0941
