21
gdb 91623	2.24678	1.87768	1.39561	1.6734	82.77	-0.2286	0.0171	0.2457	1044.7555	0.183829	-387.103725	-387.09566	-387.094716	-387.135781	32.565	
C	-0.1870855734	 1.5224690828	-0.0409609536	-0.409624
C	 0.0266675756	 0.0184872886	 0.037878076	 0.159456
O	 0.7864593556	-0.4386104289	-1.0954808721	-0.300797
C	 1.895628122	-1.214443219	-0.5489902677	 0.072933
C	 1.2320042379	-1.9047095817	 0.6525551496	-0.227632
C	 0.8388364885	-0.5327467224	 1.2602651112	-0.154604
C	 2.1914374348	 0.1739545612	 1.2553704273	 0.348737
C	 2.6058834888	 1.1961727175	 2.2613080852	-0.514691
C	 2.8324544965	-0.2472569091	 0.1553551832	-0.191009
H	 0.7670178252	 2.0554499208	-0.0344898137	 0.122667
H	-0.706508929	 1.7756416212	-0.9698553403	 0.12384
H	-0.7999184445	 1.8731829892	 0.7970017002	 0.104239
H	-0.9515714645	-0.4849532472	 0.0237056325	 0.068992
H	 2.30248499	-1.8256790629	-1.3529767459	 0.069838
H	 0.3803536494	-2.5305378814	 0.369215466	 0.096684
H	 1.9281616122	-2.465078632	 1.2784694778	 0.09844
H	 0.2850297184	-0.5267909185	 2.2001719976	 0.060146
H	 2.6143025517	 0.7736465479	 3.2743706554	 0.125536
H	 3.6049269081	 1.5864398022	 2.047167407	 0.125524
H	 1.908397706	 2.0426404851	 2.2847947057	 0.129987
H	 3.7785843007	 0.1099520768	-0.2323516913	 0.091338
