15
gdb 66420	2.4409	1.35136	1.16267	4.0174	66.99	-0.2588	-0.0436	0.2152	1100.2726	0.11033	-457.767845	-457.759504	-457.75856	-457.801214	29.821	
C	-0.0223054291	 1.6058818466	-0.0003982435	-0.496194
C	 0.0640581016	 0.1097364613	-0.0211029098	 0.071003
C	 0.6334635214	-0.9109868254	-0.9610056975	 0.038612
O	 1.115789317	-1.7367949712	 0.1319234757	-0.265487
C	 0.6807222965	-0.7746743793	 1.0444667504	 0.4273
O	 0.8666837119	-0.7495309457	 2.2144356883	-0.309918
C	-0.8572528226	-0.7960265924	-0.8977542627	-0.177608
C	-1.7532280802	-1.8536165705	-0.3437353424	 0.148904
O	-2.8743282122	-2.0299186306	-0.7509222554	-0.255755
H	 0.9301377671	 2.0461110567	 0.3098303826	 0.146334
H	-0.2759832627	 1.996978392	-0.9894432705	 0.136191
H	-0.7926876833	 1.9387248286	 0.7016664748	 0.153055
H	 1.260315888	-0.8282723667	-1.8377657734	 0.144583
H	-1.3094750092	-0.2384793418	-1.7143113505	 0.127517
H	-1.3256176641	-2.4713904314	 0.4700414839	 0.111462
