25
gdb 104171	2.40414	1.20077	1.0827	1.3432	87.91	-0.2611	0.0693	0.3303	1318.8552	0.229132	-389.51438	-389.504362	-389.503418	-389.548912	39.145	
C	 0.0748078952	 1.2700868606	 0.3862388472	-0.397052
C	 0.0267081888	-0.1817217268	-0.1028592403	-0.223181
C	 0.7353633579	-0.4689685136	-1.4471122701	 0.370388
C	 0.0745104207	 0.308694604	-2.5977813949	-0.445243
C	 2.2640648409	-0.1463289962	-1.3648938957	-0.235054
C	 2.9807545277	-1.3541448322	-1.9912875099	-0.245977
C	 2.1092252782	-2.5394900558	-1.556325918	 0.130339
O	 2.2664987797	-2.8271933388	-0.1654260591	-0.43895
C	 0.6873381195	-2.0057536582	-1.7482644265	-0.261453
H	 1.1040180847	 1.6321584621	 0.4811631379	 0.114385
H	-0.4549604227	 1.9502793961	-0.2880826287	 0.113682
H	-0.3948158184	 1.3582435712	 1.3711975332	 0.110133
H	 0.479455805	-0.8345287593	 0.6527006094	 0.111328
H	-1.0230180751	-0.4940332717	-0.1886588866	 0.085066
H	 0.1069343446	 1.3902740739	-2.433348335	 0.111901
H	 0.5814727022	 0.1071857584	-3.5484530334	 0.104994
H	-0.9761606236	 0.0190726034	-2.7168591128	 0.107681
H	 2.5181606596	 0.7955020062	-1.8594025354	 0.087235
H	 2.568503816	-0.0552973732	-0.3182472862	 0.099741
H	 2.9783891817	-1.2896248851	-3.0865912837	 0.096012
H	 4.0261580393	-1.4544771207	-1.6771262181	 0.080927
H	 2.2974698301	-3.4448963205	-2.1514162369	 0.053683
H	 3.1961715669	-3.0201680242	-0.0067217964	 0.278525
H	-0.013731115	-2.5384863031	-1.1003869565	 0.103443
H	 0.3754858063	-2.1827429465	-2.7831040532	 0.087445
