18
gdb 14861	3.16149	1.50621	1.19821	3.7554	68.15	-0.2423	-0.0281	0.2142	1054.8862	0.15214	-384.926612	-384.918016	-384.917071	-384.960626	29.969	
C	 0.0257173758	 1.536963894	-0.1414049778	-0.386916
C	 0.0315404711	 0.0123151211	 0.0153379219	-0.210497
C	-1.3790486886	-0.5627860532	 0.0869293916	-0.044009
C	-2.2320972919	-0.5630016086	-1.203734876	-0.074459
O	-2.4731669788	-1.9820222952	-1.1059933891	-0.266228
C	-1.6013016845	-2.1120447836	 0.016340196	 0.023606
C	-0.3625561151	-2.9395153526	-0.2538453441	 0.141569
O	-0.0295524789	-3.3544089957	-1.3316772686	-0.236533
H	 1.0444773429	 1.9305545106	-0.1999950251	 0.121806
H	-0.4997272296	 1.8409922891	-1.0531863183	 0.123768
H	-0.4723742824	 2.0209431168	 0.705860053	 0.118264
H	 0.5708924255	-0.442552537	-0.8247350318	 0.12072
H	 0.585244117	-0.2586607062	 0.9231922528	 0.102747
H	-1.9163727814	-0.1295111704	 0.9350979369	 0.088171
H	-3.1637094324	 0.0125920743	-1.1779721591	 0.107319
H	-1.6761771607	-0.3104378037	-2.1161195938	 0.109803
H	-2.1085938615	-2.5401524268	 0.8947388438	 0.091786
H	 0.2457688435	-3.132297313	 0.6627812077	 0.069082
