22
gdb 105409	2.03207	1.43719	1.07909	3.4617	82.42	-0.2439	0.0313	0.2752	1247.6426	0.193697	-404.37249	-404.362672	-404.361728	-404.407238	36.464	
C	 0.0430302724	 1.3486206794	-0.6803262188	-0.396182
C	-0.1054957508	-0.0652043804	-0.1127404931	-0.217946
C	-1.548845481	-0.4618210548	 0.243578491	 0.357523
C	-2.4621303491	-0.6986209975	-0.9953832219	-0.281971
C	-2.1983861541	-2.2236737029	-0.8670910541	-0.218218
C	-1.6759948525	-1.9809587182	 0.5738321573	-0.237647
N	-2.125708339	 0.4496734851	 1.2294245786	-0.330574
C	-1.732753935	 0.5042098127	 2.526599431	 0.146164
O	-0.872980046	-0.1935427222	 3.0264515348	-0.333611
H	 1.0902875347	 1.5640969826	-0.9117856623	 0.118034
H	-0.531260089	 1.4811299449	-1.6041301179	 0.110381
H	-0.2989471844	 2.1011154556	 0.0368243083	 0.115454
H	 0.2804100284	-0.7958663575	-0.8342813584	 0.093375
H	 0.4959612494	-0.1709194599	 0.7956572988	 0.133322
H	-3.5054469546	-0.4497792885	-0.7773690408	 0.095897
H	-2.1727897603	-0.2058393964	-1.9267820768	 0.102884
H	-3.0621278208	-2.88164746	-0.9789313785	 0.101814
H	-1.4159104212	-2.568087162	-1.5476282101	 0.108186
H	-0.7591531812	-2.486198146	 0.8815952795	 0.110227
H	-2.4443205536	-2.1590812469	 1.3286846569	 0.107023
H	-2.8361724178	 1.0960381466	 0.9237132781	 0.243314
H	-2.3011314544	 1.2654880465	 3.1000051584	 0.072552
