16
gdb 123377	3.55168	1.02022	0.96189	1.5372	75.96	-0.1992	0.0297	0.2289	1258.2268	0.125611	-396.90249	-396.894099	-396.893155	-396.936676	31.012	
C	 0.4040196532	-0.0896676868	-1.2489732553	-0.462036
C	 0.162592814	 0.5700398306	-0.2735310812	 0.320229
C	-0.0872934976	 1.3729142203	 0.9299188545	-0.330397
N	 1.0081856139	 2.2461331045	 1.3390198123	-0.362702
C	 1.3618071486	 3.307853624	 0.50736237	 0.41017
N	 2.6271949514	 3.7193319468	 0.4651325036	-0.327339
N	 2.5968510029	 4.7974901425	-0.3563092266	-0.183422
C	 1.3638287486	 5.0602312494	-0.8371552781	-0.013589
C	 0.5177373038	 4.1131265721	-0.3003007091	-0.278495
H	 0.6124700289	-0.667199263	-2.1154111232	 0.198956
H	-0.9838517963	 1.9860747821	 0.7857656305	 0.144534
H	-0.3126396349	 0.7078161542	 1.7709145947	 0.138458
H	 1.8316614048	 1.7316304673	 1.6254019676	 0.243194
H	 3.4543828156	 5.2842196129	-0.5471764281	 0.273144
H	 1.178070303	 5.8826067906	-1.5101861136	 0.128966
H	-0.5418252999	 4.0221441823	-0.4695318582	 0.100329
