16
gdb 97964	5.86991	0.50699	0.4838	3.0084	72.15	-0.2576	0.0262	0.2839	2174.3132	0.121877	-475.020108	-475.009688	-475.008743	-475.058194	34.785	
N	-0.1885567216	 1.2613308215	 0.3721715434	-0.564165
C	 0.0134877319	-0.0380808955	 0.0050952671	 0.511507
O	 1.0687483924	-0.5161769177	-0.340666347	-0.394061
O	-1.1617242825	-0.716842512	 0.0511356928	-0.255869
C	-1.058652841	-2.0927443717	-0.361603368	-0.224244
C	-2.3698587485	-2.7100237576	-0.2803100089	 0.002676
C	-3.4402328863	-3.2553376318	-0.2195420463	 0.177005
C	-4.7432311166	-3.9038723905	-0.1734582227	-0.217565
O	-4.9353720074	-4.5114505181	 1.0973554726	-0.407819
H	 0.6364616146	 1.7991128056	 0.573830072	 0.269594
H	-1.0418355488	 1.5049409386	 0.8456375026	 0.267483
H	-0.6622139379	-2.1352313567	-1.3819537142	 0.150556
H	-0.3384754412	-2.6111244255	 0.2808740119	 0.152475
H	-5.5210733775	-3.1504991937	-0.3796926768	 0.121102
H	-4.7986962963	-4.6471731352	-0.9856280795	 0.120354
H	-5.8025179132	-4.9295316197	 1.0873067809	 0.29097
