16
gdb 15644	3.34714	1.85191	1.31197	2.7214	66.3	-0.2436	-0.015	0.2286	938.8683	0.131518	-379.975428	-379.96777	-379.966826	-380.008308	27.341	
C	 0.0237349387	 1.5758290179	 0.1208370127	-0.378415
C	-0.0220593055	 0.0553491951	-0.0466265119	-0.165057
N	-1.3709646332	-0.484584311	-0.0023369822	-0.094081
C	-2.141030622	-0.7609896122	 1.1234229884	 0.069133
N	-3.3139955531	-1.2233821598	 0.9183742319	-0.256861
C	-3.4487932823	-1.3031090815	-0.5393171221	-0.291975
C	-2.1279506458	-0.8008694104	-1.1304585046	 0.390871
O	-1.7683805008	-0.6872942483	-2.2781826959	-0.372987
H	 1.058336084	 1.9285180439	 0.0714558693	 0.126361
H	-0.5447067338	 2.0669768553	-0.6735910653	 0.142734
H	-0.394170567	 1.8843877719	 1.0843541086	 0.122803
H	 0.3842102301	-0.2315286938	-1.020472854	 0.147832
H	 0.5776119635	-0.4384441049	 0.7258677215	 0.118055
H	-1.7204585534	-0.583060554	 2.1088116977	 0.136242
H	-3.6489085171	-2.3315289141	-0.858912597	 0.152879
H	-4.2867437324	-0.6909699439	-0.890245777	 0.152465
