24
gdb 6794	5.86789	0.62126	0.58446	1.3816	82.74	-0.2614	0.081	0.3424	1961.3632	0.2214	-351.414727	-351.403828	-351.402884	-351.451348	38.513	
C	-0.0650209133	 1.560164828	-0.0155506931	-0.387569
C	 0.0233853782	 0.0289461523	 0.0440762477	 0.041734
C	 0.8826262649	-0.4138513736	 1.2371878168	-0.380048
C	-1.3861876252	-0.5898783865	 0.0692172623	-0.161883
C	-1.4351914681	-2.1163332422	-0.0694018981	-0.195466
C	-2.8660412344	-2.6595014792	-0.1376574986	-0.163027
C	-2.9232794426	-4.1753515764	-0.2700829504	-0.074685
O	-4.2888637038	-4.5619600261	-0.3250300144	-0.421777
H	 0.9296395587	 2.0147689219	-0.0727195511	 0.107065
H	-0.6378467382	 1.8935729802	-0.887422668	 0.108288
H	-0.5600197103	 1.95848868	 0.8784725921	 0.110575
H	 0.5207932926	-0.3142829354	-0.8753526783	 0.06814
H	 0.4167302753	-0.1155573773	 2.1845651582	 0.109576
H	 1.0254635351	-1.4979651222	 1.2630569148	 0.112254
H	 1.8749383929	 0.0479190883	 1.1980184663	 0.108415
H	-1.890006197	-0.2931587029	 1.0007772344	 0.089253
H	-1.9759323026	-0.1469728702	-0.7449160726	 0.088734
H	-0.8867540941	-2.4147041356	-0.9742257577	 0.090793
H	-0.9120252303	-2.5870001118	 0.7725730059	 0.096235
H	-3.4234853081	-2.3691926343	 0.7615920493	 0.103325
H	-3.3986065651	-2.2171308888	-0.9886800509	 0.103035
H	-2.3838124434	-4.4896716327	-1.1791572589	 0.081508
H	-2.4113172582	-4.6431868048	 0.5873826791	 0.081573
H	-4.327093873	-5.5192181207	-0.4062625848	 0.283952
