16
gdb 131201	3.19952	1.55726	1.07172	2.2001	70.99	-0.1941	0.0348	0.2288	1066.6138	0.128023	-434.068669	-434.061231	-434.060286	-434.100358	28.8	
O	 0.0743478322	 1.339214232	 0.2259755801	-0.433892
C	 0.0636005279	 0.0083701077	-0.0193511924	 0.303128
C	 0.0294388985	-0.7738918459	-1.1495012459	 0.075061
N	 0.079842454	-0.6658918901	-2.5663070902	-0.437097
C	 0.4016485401	-2.0687359513	-2.9899059067	-0.167277
C	 0.0185142947	-3.0487690493	-1.8267757416	-0.345566
C	 0.0324903797	-2.0931179934	-0.6681726613	 0.340835
N	 0.0470453046	-2.1781045489	 0.6510087039	-0.350368
N	 0.052862448	-0.8628597501	 1.0306405637	-0.257698
H	 0.3209714012	 1.7893417872	-0.5892738942	 0.314594
H	-0.8269670009	-0.4002967949	-2.9421543941	 0.22609
H	-0.0986947135	-2.3003881595	-3.9329113692	 0.103967
H	 1.4819647079	-2.1243718534	-3.1615771226	 0.119469
H	-0.9757274866	-3.4903699686	-1.9720981899	 0.113418
H	 0.7337933433	-3.8704835907	-1.7411704016	 0.121553
H	 0.093962219	-0.6210686609	 2.005586132	 0.273782
