22
gdb 101869	5.2388	0.56301	0.53371	4.5619	84.76	-0.2813	0.011	0.2923	2087.1706	0.191593	-404.35777	-404.346677	-404.345733	-404.395325	38.341	
C	 0.0309902127	 1.536122681	 0.0500438405	-0.391798
C	-0.0450926251	 0.0067824063	 0.0067997597	-0.172494
C	-1.4776504222	-0.5567991319	-0.0283857935	 0.019062
C	-2.2440009785	-0.167639885	-1.2995511638	-0.393183
C	-1.4316001031	-2.0753697373	 0.1335569459	-0.057047
O	-2.7593878505	-2.5703718401	 0.2446064519	-0.241518
C	-2.8047795376	-3.9672015384	 0.3601415377	-0.184005
C	-4.2021113028	-4.4001491112	 0.4645791042	 0.263315
N	-5.2918094926	-4.7717458388	 0.5486615827	-0.292443
H	 1.0693096054	 1.8707614786	 0.1355505225	 0.115137
H	-0.3872386483	 1.992325375	-0.8519128774	 0.122571
H	-0.5184657038	 1.9342481541	 0.9103362303	 0.117245
H	 0.5070407642	-0.3618885654	-0.8689244834	 0.095355
H	 0.4735996944	-0.3973161894	 0.8861322172	 0.093299
H	-2.0233562592	-0.1640877955	 0.8408960797	 0.086821
H	-3.2286210859	-0.6402013592	-1.3141921019	 0.136273
H	-2.3868080053	 0.9138693874	-1.3671648906	 0.117545
H	-1.6993274862	-0.4903150199	-2.1956605536	 0.107625
H	-0.9298774709	-2.539689178	-0.7333865525	 0.090346
H	-0.8567897332	-2.3506844582	 1.0331088285	 0.09092
H	-2.3486988206	-4.4645239703	-0.5122645555	 0.138695
H	-2.2614505709	-4.321402344	 1.2522922215	 0.138278
