23
gdb 95239	2.60611	1.45678	1.17089	1.2374	84.99	-0.2343	0.0796	0.3139	1173.0782	0.207809	-388.286778	-388.278312	-388.277367	-388.319343	34.21	
C	-0.1548509395	 1.5672776447	 0.0884465446	-0.387294
C	 0.0314259534	 0.0444443838	 0.0041384244	 0.028496
C	 0.5308526079	-0.4142366593	-1.384739089	-0.201073
C	 1.9517434468	 0.0462655279	-1.764730382	-0.22219
C	 3.0446258985	-0.7444905921	-1.0631187631	-0.032076
C	 4.1814433748	-0.0343542062	-0.3495714686	-0.335547
C	 3.1176179602	-0.727966626	 0.4425000752	 0.12216
O	 2.2230454987	 0.0707561193	 1.1552241899	-0.251945
C	 0.8976565536	-0.4565746882	 1.1702186708	-0.077035
H	 0.807120473	 2.0865119086	 0.0853544865	 0.130798
H	-0.7503427173	 1.941336418	-0.7507133049	 0.105958
H	-0.6700783824	 1.8440145262	 1.0144432245	 0.108578
H	-0.9556463205	-0.4189350127	 0.1509645648	 0.066478
H	 0.4864793728	-1.5102279227	-1.439933018	 0.086772
H	-0.1781491286	-0.042956915	-2.1356353183	 0.087858
H	 2.0860947145	-0.053803915	-2.8482005325	 0.094384
H	 2.0628201769	 1.1133599881	-1.5487472068	 0.104233
H	 3.2879014938	-1.6950160968	-1.5318018831	 0.080863
H	 5.176733101	-0.4643457967	-0.3692473992	 0.109726
H	 4.1549546528	 1.0501154698	-0.3457419286	 0.120928
H	 3.3796287325	-1.6566749704	 0.9523377612	 0.078046
H	 0.4529982162	-0.1300933489	 2.1178189527	 0.09762
H	 0.9305789009	-1.5560414661	 1.1806092095	 0.084261
