18
gdb 51571	3.93151	0.86299	0.79457	3.2305	73.09	-0.2512	-0.0289	0.2223	1442.8082	0.146458	-439.038127	-439.029208	-439.028263	-439.073164	31.606	
O	-0.5512285308	 0.6711772845	 0.4372111454	-0.233724
C	 0.1226431216	 1.6572841281	 0.2915311091	 0.160617
C	 1.4912271923	 1.6738419981	-0.3663991417	-0.33195
C	 1.569981437	 2.7161227071	-1.4629633183	 0.048094
O	 1.5285401428	 4.1019956334	-1.0728931855	-0.260656
C	 2.7257221445	 3.6038592123	-1.679940039	 0.021093
C	 3.9532825935	 3.5911981283	-0.8168005185	-0.035204
C	 4.4527071416	 4.866042451	-0.2431134066	-0.239612
N	 3.8345493277	 3.8473045764	 0.6249633389	-0.315134
H	-0.22488719	 2.6531046729	 0.6456509232	 0.093227
H	 2.2375928978	 1.8864223204	 0.4078342085	 0.154706
H	 1.6919031551	 0.6786512795	-0.7749854272	 0.129372
H	 0.9428265446	 2.5041774931	-2.3302716421	 0.109808
H	 2.8864451091	 3.9599671265	-2.6993272898	 0.105116
H	 4.6773513073	 2.8222599402	-1.0802183016	 0.104403
H	 5.518268314	 5.014814624	-0.0967307831	 0.124161
H	 3.8854554953	 5.7688610019	-0.4535304697	 0.1247
H	 2.8730599965	 4.1349462022	 0.803190198	 0.240983
