16
gdb 5589	3.32763	1.88561	1.22067	0.2293	67.96	-0.1776	0.0536	0.2312	964.0583	0.131622	-379.934642	-379.926472	-379.925527	-379.967377	29.679	
C	 0.0127248685	 1.3742722292	 0.0833265471	-0.241949
O	 0.0295271697	-0.0358749772	 0.0267931369	-0.274755
C	 0.6230267341	-0.5759256576	-1.0771640808	 0.308595
C	 0.7111968084	-1.9429034701	-1.2638432658	 0.132233
N	 0.2873620397	-3.053446803	-0.5017359263	-0.615344
N	 1.3611018069	-2.1325858897	-2.4657924902	-0.243071
C	 1.6790072051	-0.9334526264	-3.0308330101	-0.086488
C	 1.2326867491	 0.0680591073	-2.1900847477	-0.290564
H	 1.0291250042	 1.79190032	 0.0882797799	 0.116428
H	-0.5394793022	 1.8073129369	-0.76228309	 0.116427
H	-0.4895299933	 1.6448559963	 1.0144702245	 0.12518
H	-0.7175543622	-3.0359432056	-0.354161884	 0.24299
H	 0.7117369958	-3.0493066929	 0.4212087944	 0.242995
H	 1.5546348288	-3.0456639946	-2.8387806029	 0.259375
H	 2.1923676609	-0.8755752148	-3.9765149681	 0.114873
H	 1.3360304665	 1.1270378923	-2.3619798769	 0.093075
