18
gdb 40498	4.29432	1.25733	1.20996	2.0492	75.54	-0.2182	0.0799	0.2981	1073.5079	0.14809	-401.836287	-401.829148	-401.828204	-401.868113	28.619	
C	 0.6089709435	 1.5456414044	 0.1788724913	-0.234925
C	 0.9493723508	 0.2877818966	-0.5446539518	-0.232666
N	-0.2674346859	 0.3787085019	 0.2582432298	-0.166968
C	-0.332633317	-0.3218234892	 1.4866597485	 0.342375
C	 0.7448281182	-0.763221149	 2.4958211035	-0.303415
C	-0.4067832906	-1.5832827755	 3.1337659977	 0.067491
O	-1.2985416523	-0.5676708681	 3.6773169269	-0.296983
C	-1.6278802794	-0.2667551762	 2.3222968587	 0.049518
C	-1.1713325269	-1.570416545	 1.7587885115	-0.207527
H	 1.2086832474	 1.7944296952	 1.0514664417	 0.120198
H	 0.2056230604	 2.3997243884	-0.3573733079	 0.119269
H	 0.7951656346	 0.2106771734	-1.6170988592	 0.118581
H	 1.7796587989	-0.2985084233	-0.1580662363	 0.115442
H	 1.4888038823	-1.4171608472	 2.0327703638	 0.103028
H	 1.2249290268	-0.0221170149	 3.1429272968	 0.100551
H	-0.2344803161	-2.4228580973	 3.8029886781	 0.090081
H	-2.4660862429	 0.3781654174	 2.0969856262	 0.113343
H	-1.6166976118	-2.3188679517	 1.1191442706	 0.102606
