18
gdb 26298	3.48901	1.00677	0.94216	5.2946	74.07	-0.2124	0.0289	0.2413	1317.1035	0.147328	-439.15141	-439.142425	-439.141481	-439.185427	33.069	
C	 0.0037661089	 1.5596233718	 0.0061935798	-0.385706
C	 0.0031627024	 0.0190440901	 0.040998131	-0.099472
C	 0.7774940842	-0.5133559795	 1.2623006594	-0.385669
C	-1.3859219611	-0.5347294229	-0.0172033627	 0.323567
C	-1.9911920827	-1.3123966557	-0.9256562425	-0.142055
O	-3.2952852089	-1.5732415457	-0.5523353449	-0.208673
C	-3.5390119012	-0.9343942477	 0.6478883623	 0.482539
O	-4.5814712644	-0.9642074711	 1.2423895136	-0.403014
N	-2.3568105555	-0.3006025301	 0.966124267	-0.428124
H	 1.0291958436	 1.9412223629	-0.0044355389	 0.121807
H	-0.513673964	 1.9345943088	-0.8809760041	 0.128895
H	-0.4945758965	 1.9791671635	 0.8872999689	 0.113333
H	 0.5082369771	-0.3404988424	-0.8635368993	 0.096104
H	 0.3140701046	-0.189686442	 2.2010105169	 0.113352
H	 0.8086163708	-1.6062625341	 1.264112463	 0.128899
H	 1.8053172406	-0.138141794	 1.2564359888	 0.121793
H	-1.6525503688	-1.7470277182	-1.8494925009	 0.149208
H	-2.2571814191	 0.2446960661	 1.8035411826	 0.273216
