12
gdb 3545	5.97513	2.93734	2.52108	2.971	53.61	-0.2503	-0.0161	0.2343	547.1379	0.091679	-323.329494	-323.324515	-323.323571	-323.358079	19.286	
O	 0.0191947557	 0.059440072	 0.0132063588	-0.329177
C	 0.0011345297	 1.2538158599	 0.0805999484	 0.472747
C	-1.0604804274	 2.3052074434	 0.0686626655	-0.187299
C	-0.4479155151	 3.5204999083	 0.7069611518	-0.021609
C	 0.9540910022	 3.1978596903	 1.2071586271	-0.247905
C	 1.0441814311	 2.3632011354	-0.0871834792	-0.135378
N	-0.1157183113	 3.2282452841	-0.7097318032	-0.14689
H	-2.1145452223	 2.229443181	-0.1642661147	 0.125125
H	-1.077676889	 4.3632308824	 0.971126951	 0.113465
H	 1.5892187762	 4.0857651988	 1.1586128333	 0.125945
H	 1.0934220132	 2.6880158856	 2.1647087451	 0.118982
H	 1.9692468868	 2.2021719088	-0.6338978639	 0.111993
