19
gdb 87817	2.64206	1.56527	1.20994	1.5121	76.03	-0.2222	0.0638	0.286	1081.3952	0.157124	-422.959008	-422.950341	-422.949397	-422.991787	33.772	
C	-0.1323620151	 1.5953995129	 0.1401649941	-0.484394
C	-0.0065274951	 0.10335024	 0.0399552267	 0.179685
C	-0.8631073681	-0.8845580618	 0.8227159371	-0.347129
C	 0.6286851495	-0.9338261676	 0.9408982774	 0.058665
O	 1.1947710683	-1.6637397475	-0.1585306393	-0.324815
C	 0.6725315316	-0.6800093516	-1.0644323284	 0.418073
C	 0.2393055253	-1.0298647884	-2.4578558712	-0.405386
C	 1.4903062973	-0.194563295	-2.2088208735	-0.0038
O	 1.4785102713	 1.1769511864	-2.4796676112	-0.421357
H	 0.8080778181	 2.0920125528	-0.1097563178	 0.141389
H	-0.8980760509	 1.975999093	-0.5452120429	 0.119279
H	-0.4245754236	 1.8850763896	 1.1547476602	 0.109949
H	-1.3865129668	-0.4450700599	 1.6672206187	 0.109606
H	-1.3851735713	-1.6967129475	 0.3245043974	 0.113411
H	 1.2103559976	-0.8654201634	 1.8525508952	 0.104614
H	 0.3717973396	-2.0528952894	-2.7935519899	 0.123845
H	-0.6344277476	-0.5167685435	-2.8481660649	 0.118501
H	 2.4475696165	-0.6963783948	-2.3538392273	 0.100129
H	 1.4665740833	 1.2902627956	-3.4361781002	 0.289733
