20
gdb 1997	5.40145	1.43993	1.3227	1.0589	72.03	-0.2301	0.0884	0.3185	1005.0328	0.182393	-291.017433	-291.009082	-291.008138	-291.050031	30.6	
C	-0.2291519243	 1.4628321184	-0.0356676629	-0.375541
C	 0.071865414	-0.0384487844	 0.0500722379	 0.039
C	 0.739019733	-0.5509901101	-1.2323310816	-0.389887
C	 0.9404695568	-0.3685159204	 1.2720741731	-0.127356
N	 0.2711504611	-0.0217048224	 2.522146307	-0.059242
C	-0.5458445955	-1.067651362	 3.128192616	-0.219034
C	 0.7629691845	-0.681175482	 3.7243089256	-0.220595
H	 0.6915039308	 2.0331363348	-0.2112865765	 0.105437
H	-0.9159129843	 1.6799747934	-0.8604652974	 0.103016
H	-0.673671859	 1.8236419288	 0.8946310679	 0.130731
H	-0.8811632955	-0.5721706698	 0.1759449804	 0.072867
H	 1.709673913	-0.0655806954	-1.3908627569	 0.111651
H	 0.9097880035	-1.6323858045	-1.1951958917	 0.107369
H	 0.118713157	-0.3394881436	-2.1091667904	 0.111429
H	 1.2212526898	-1.4385920321	 1.2466062794	 0.069924
H	 1.8747144038	 0.2072070377	 1.2233261606	 0.096498
H	-1.4785357819	-0.7431065665	 3.5806674002	 0.115181
H	-0.5948258553	-2.0325281506	 2.624448452	 0.106804
H	 1.5835531647	-1.3897520647	 3.617998162	 0.106602
H	 0.8052242939	-0.0678759847	 4.6201321956	 0.115147
