18
gdb 91086	3.52026	1.4254	1.24389	1.9213	78.	-0.2243	0.0045	0.2288	1036.1322	0.148959	-401.88548	-401.87818	-401.877235	-401.917008	29.561	
O	-0.1739596159	 1.3921793646	-0.2181610214	-0.42426
C	 0.0349395106	 0.013096704	-0.0679297905	 0.051879
C	 0.3039674213	-0.587139163	 1.3763462018	-0.298246
C	-0.6911333829	-1.7522622311	 1.0278830323	-0.006761
N	-1.8641459433	-2.2063145501	 1.8001758316	-0.130189
C	-2.6678864364	-1.1721185017	 2.4519454617	-0.236984
C	-3.046928596	-1.6174484892	 1.0794444601	-0.049683
C	-2.5347539903	-0.7091308669	 0.0019325773	-0.234046
C	-1.2082773611	-0.8321820072	-0.0460176305	 0.218653
H	 0.6801635002	 1.8185503126	-0.3385718903	 0.286747
H	 0.7905716502	-0.3607577919	-0.7740246309	 0.080583
H	 1.3316961763	-0.8730886183	 1.612380267	 0.100565
H	-0.0865150941	 0.0941231285	 2.1342550826	 0.119806
H	-0.1435343763	-2.6360712834	 0.6846871197	 0.083793
H	-3.2274456933	-1.5331162996	 3.3108568922	 0.116005
H	-2.2716336865	-0.1646005367	 2.5554823322	 0.115535
H	-3.9072378211	-2.2638361128	 0.9306489018	 0.095882
H	-3.1491193213	 0.0358936024	-0.4871657167	 0.11072
