15
gdb 40490	3.9722	1.34498	1.21522	1.6452	64.82	-0.2495	0.0409	0.2903	1012.7161	0.11083	-457.609135	-457.602195	-457.60125	-457.641053	26.585	
C	-0.5012928782	 1.2022739735	-0.350925554	-0.174063
O	 0.6396712007	 1.5242564882	 0.4465432435	-0.225335
C	 0.3248927907	 0.1453501957	 0.2472430332	-0.12799
C	-0.1377345884	-0.6019545056	 1.4387765663	 0.464774
O	-1.2607927676	-0.1185945384	 2.2284623771	-0.344165
C	-0.8914298407	-1.3419739767	 2.9251184944	 0.029519
C	-0.5047053336	-2.1178692496	 1.6275704396	-0.008999
O	 0.8142665045	-2.4975475317	 2.1033703838	-0.325896
C	 0.6384172611	-1.1728783385	 2.6803082535	-0.001392
H	-1.4627042683	 1.4343826208	 0.1011090614	 0.139172
H	-0.4069317123	 1.4147515757	-1.414608681	 0.120135
H	 1.0312290762	-0.4035495873	-0.3757913062	 0.114091
H	-1.4564712387	-1.6403041133	 3.8065194039	 0.111974
H	-1.0673973257	-2.8075727014	 0.9990788084	 0.1107
H	 1.4300728706	-0.7432113714	 3.2920616462	 0.117475
