15
gdb 49868	2.39379	1.4756	0.99749	2.0712	69.02	-0.264	-0.0435	0.2205	1136.0456	0.113231	-454.012612	-454.004646	-454.003702	-454.046163	28.836	
N	-0.281546277	 1.241843647	 0.027904689	-0.520465
C	-0.1035869762	-0.011235789	 0.005729915	 0.392206
C	-1.217614487	-1.039865836	 0.1126175841	-0.304897
C	-0.5193468966	-2.4041599942	 0.0999537782	-0.236798
C	-0.9603445066	-3.3495554677	-1.0136419146	 0.150969
O	-1.8645694284	-3.1199938896	-1.7712457345	-0.227157
C	 0.9806821951	-2.0988071453	-0.0599916328	 0.403067
O	 1.883745908	-2.8936170883	-0.1375680624	-0.35367
N	 1.0954579718	-0.7236652993	-0.115460643	-0.357672
H	 0.5940458656	 1.7600775582	-0.0595500721	 0.21497
H	-1.800895465	-0.8598859439	 1.0170120309	 0.145917
H	-1.8960596026	-0.9487840719	-0.7398607834	 0.169862
H	-0.6242069379	-2.964128957	 1.0376728059	 0.139941
H	-0.3629790782	-4.2814136241	-1.0718782367	 0.117857
H	 1.9988800451	-0.2852075686	-0.2235172636	 0.26587
