20
gdb 113842	3.15342	1.06184	0.92334	3.9303	76.66	-0.219	0.0594	0.2785	1316.9491	0.169637	-440.218234	-440.208854	-440.20791	-440.252805	35.027	
O	 0.1479747745	 1.2874516257	 0.1843760895	-0.407337
C	-0.034533488	-0.1194664344	 0.1280450249	-0.118826
C	-1.4910373359	-0.4625737309	-0.103718958	 0.009158
C	-2.5645916076	 0.5614185366	 0.0361839683	-0.25149
N	-2.2385003022	-0.0006525295	-1.2740838187	-0.11425
C	-1.6181001116	 0.840951419	-2.2651316941	-0.009973
C	-1.0592380114	 0.138047165	-3.4915594845	-0.346193
C	-2.3760259969	 0.8736150747	-3.5700015148	 0.131937
O	-3.5658721106	 0.1585252518	-3.6579749908	-0.434815
H	 1.0898135239	 1.4709731761	 0.124201204	 0.292798
H	 0.5724471219	-0.564708565	-0.6751923563	 0.106558
H	 0.2751371224	-0.5932789247	 1.0734774185	 0.099118
H	-1.718449284	-1.4920019077	 0.1703815167	 0.094378
H	-3.5355921885	 0.2913288621	 0.4422447132	 0.113397
H	-2.2397272412	 1.5776038492	 0.2390102052	 0.139194
H	-1.1089097251	 1.7338285121	-1.9134703987	 0.098259
H	-0.1805327543	 0.5622755287	-3.9660045292	 0.105118
H	-1.1158888739	-0.9451647578	-3.5059298599	 0.115274
H	-2.4179282282	 1.8064569247	-4.1240680786	 0.095718
H	-3.6342030034	-0.3137107856	-2.8126969965	 0.281978
