15
gdb 71459	4.26915	1.45185	1.29466	3.8306	65.42	-0.2402	0.0198	0.2601	952.0298	0.113718	-453.88967	-453.882865	-453.881921	-453.920671	27.248	
O	 0.0059107043	 1.3735839304	-0.0185688912	-0.448745
C	 0.0712923168	 0.0000655328	-0.0239280032	 0.319081
C	 0.7312135603	-0.8835978964	-1.0716560945	-0.250871
N	-0.2901623318	-1.9773070614	-0.7480562652	-0.174158
C	-1.0981515246	-0.9682894941	 0.0156137189	-0.117932
C	-0.2365367675	-0.846967553	 1.2175542002	-0.012684
O	 0.4611181742	-2.0612253953	 1.4314579098	-0.240071
C	 0.323257189	-2.7943691368	 0.2631252582	 0.431868
N	 0.7237692367	-3.9717273003	 0.0876820374	-0.539933
H	 0.7732966734	 1.7202175479	 0.4509857354	 0.296635
H	 0.5611593097	-0.5254554227	-2.088950464	 0.134326
H	 1.7767658968	-1.1814312385	-0.9445667905	 0.124063
H	-2.1707626382	-0.8792165007	-0.0914475356	 0.119654
H	-0.5513078654	-0.3504008293	 2.1254296599	 0.127725
H	 1.1698031163	-4.3220416726	 0.9360293843	 0.231042
