16
gdb 123816	5.46338	0.97629	0.87645	1.6718	71.26	-0.2476	-0.0015	0.2461	1297.5654	0.124551	-437.853115	-437.845559	-437.844614	-437.886109	28.233	
C	-0.3387398322	 1.1411198235	-0.1279142592	-0.274638
C	 1.1288394725	 1.0669275293	 0.2522718219	-0.300872
C	 0.3524422494	-0.1813667144	 0.0019920957	 0.151664
O	 0.0916375127	-0.9662043306	 1.1509312412	-0.272822
C	-0.9129714746	-1.844865701	 1.0480617053	 0.481938
N	-1.6313591144	-2.0040093907	-0.0408212149	-0.235482
O	-2.542712865	-3.0171265122	 0.2797565247	-0.184048
C	-2.3278625178	-3.4128023079	 1.5422060028	 0.10089
C	-1.3094261801	-2.7193697563	 2.1028156446	-0.370297
H	-1.0387378338	 1.4078932718	 0.6551953217	 0.127245
H	-0.6145184252	 1.4770639175	-1.1207932519	 0.124916
H	 1.8800573013	 1.3572727995	-0.4730975395	 0.121287
H	 1.3833303203	 1.2826039997	 1.2837138083	 0.128457
H	 0.5358621741	-0.7760435817	-0.8866517193	 0.120548
H	-2.9767332731	-4.1953854255	 1.9049150032	 0.153105
H	-0.8928095341	-2.7984819112	 3.0917758455	 0.128108
