19
gdb 117451	5.91895	0.60961	0.56898	5.8378	74.54	-0.2645	-0.0338	0.2307	1932.9769	0.155654	-460.204859	-460.194467	-460.193523	-460.242	35.223	
C	 0.0331918958	 1.3798058039	 0.1155805951	-0.388009
C	-0.1290801571	-0.1387584069	 0.2103342702	-0.161984
C	-1.5216649281	-0.6094895148	-0.2122774455	-0.291435
C	-1.6981885802	-2.1157082737	-0.1832461721	 0.361864
O	-0.7875557214	-2.8956027111	-0.0454265607	-0.281023
C	-3.1414125568	-2.6204838675	-0.3130904645	-0.199744
O	-3.2083269533	-3.9798174665	-0.6946934987	-0.164514
C	-2.8574064139	-4.8989735473	 0.2376502284	 0.190731
O	-2.8060041905	-6.0634966391	-0.009583492	-0.271995
H	 1.0366109264	 1.6866444872	 0.4246953015	 0.121973
H	-0.1216003398	 1.7344410254	-0.9095853648	 0.116983
H	-0.6859553604	 1.9011033889	 0.7574084198	 0.114781
H	 0.6159899919	-0.6417753125	-0.4138288497	 0.124634
H	 0.0655662259	-0.4753445326	 1.2348278281	 0.111835
H	-2.3056202047	-0.1513488288	 0.4083788055	 0.119047
H	-1.7477984282	-0.2807323104	-1.2383703507	 0.133693
H	-3.6494516878	-2.442626669	 0.6476381688	 0.135675
H	-3.684531007	-2.0543415046	-1.0741427686	 0.145839
H	-2.6669857906	-4.4546996204	 1.2313651298	 0.081649
