22
gdb 57443	2.58196	1.10058	0.97231	3.1295	83.63	-0.2471	-0.0261	0.221	1341.8667	0.191636	-404.338569	-404.328335	-404.327391	-404.373846	38.245	
C	 0.5975639283	 2.0962047898	-0.3642508129	-0.431749
C	-0.0617512102	 0.7087796446	-0.3564475686	 0.244899
C	 0.0429462305	 0.0864127417	 1.048549638	-0.405124
C	-1.5471746851	 0.8612771204	-0.7491173437	-0.402941
C	 0.5542344828	-0.2723520517	-1.3549859362	 0.003395
N	 0.9922821445	 0.1696995757	-2.6687052002	-0.346483
C	 1.9964425876	-0.4331532374	-1.7719747625	-0.136975
C	 3.1341642674	 0.4395514013	-1.3583541566	 0.158008
O	 4.1191365895	 0.0161671909	-0.8043653812	-0.266057
H	 1.6044366383	 2.0712795789	 0.0627374901	 0.119468
H	 0.6595512533	 2.498267726	-1.3785924503	 0.134517
H	 0.007372915	 2.7891531704	 0.2442021817	 0.110419
H	-0.4357825749	 0.7318299573	 1.7922820182	 0.113951
H	-0.45050581	-0.8911536529	 1.0905842626	 0.10839
H	 1.0883379281	-0.0512489896	 1.3432568677	 0.125048
H	-1.6424545501	 1.3034901948	-1.7459790809	 0.123294
H	-2.0606206463	-0.1068076854	-0.7565480921	 0.105997
H	-2.0692203697	 1.5095268781	-0.0379825981	 0.113029
H	 0.0409021687	-1.2359734705	-1.319261997	 0.087495
H	 0.7202859603	-0.4781700336	-3.4018447029	 0.241596
H	 2.3069415612	-1.4637272398	-1.9364017945	 0.106085
H	 3.0249634009	 1.5084811309	-1.6311687808	 0.09374
