14
gdb 32062	3.64949	1.17239	0.89628	2.7821	68.88	-0.2514	-0.0822	0.1692	1201.2262	0.101006	-473.858177	-473.850432	-473.849488	-473.890929	28.172	
O	 0.5721388355	 0.6066304676	-0.8173085761	-0.395411
C	-0.099105906	 0.2439732559	 0.3664009358	-0.149978
C	-1.4600981245	-0.3501762448	 0.1148944399	 0.322238
C	-1.9732249085	-0.6972927395	-1.0853436371	-0.140315
N	-3.2394819729	-1.2291432658	-1.2039461544	-0.202625
C	-3.9272410335	-1.3982924538	-0.1249434431	-0.106849
C	-3.4580004301	-1.0659908284	 1.2239875664	 0.380744
O	-4.0490817191	-1.2079486259	 2.2563559252	-0.322024
O	-2.1698865191	-0.5187741138	 1.2509719681	-0.240693
H	 0.1286532627	 1.3750778046	-1.1919157358	 0.295605
H	 0.5289088498	-0.5025692321	 0.8676576279	 0.151915
H	-0.2096951569	 1.0817508609	 1.0717305349	 0.128229
H	-1.392748771	-0.5753080446	-1.9886677044	 0.133868
H	-4.9294709363	-1.8145196204	-0.1854288875	 0.145295
