17
gdb 30023	3.10735	1.65819	1.10427	2.718	74.99	-0.1825	0.0438	0.2264	1071.9455	0.1384	-418.027657	-418.019633	-418.018689	-418.061351	28.694	
C	-0.0018066821	 1.4574083465	 0.0529407665	-0.343125
N	-0.0325534744	 0.0103440518	 0.0359306424	-0.139486
C	-0.0646194481	-0.8282781168	-1.0771613066	-0.039768
N	-0.0917746128	-2.105696406	-0.7636755435	-0.34993
C	-0.0826777346	-2.1151426031	 0.6106508095	 0.171414
C	-0.0453125196	-0.8516750404	 1.0898877087	 0.419277
O	-0.0043318182	-0.6585098219	 2.4241667247	-0.304378
C	-0.1302586444	-2.0296655025	 2.9581648342	-0.095145
C	-0.0466417414	-3.0636226903	 1.7736751105	-0.365055
H	 0.8927359533	 1.8241117734	 0.5653894859	 0.148319
H	 0.0116980417	 1.8191130452	-0.9767989758	 0.145157
H	-0.884478047	 1.8635373821	 0.5564737418	 0.147469
H	-0.0697127611	-0.4142619118	-2.0744557548	 0.120935
H	 0.6668956706	-2.154066162	 3.6931589996	 0.124533
H	-1.0961682172	-2.0797919768	 3.4680189508	 0.123609
H	-0.885953256	-3.7658855605	 1.8157750338	 0.118927
H	 0.8749461014	-3.656179737	 1.8239997122	 0.117247
