18
gdb 64698	4.51738	0.81583	0.78845	2.8652	79.99	-0.2501	-0.031	0.2192	1460.617	0.144326	-401.900407	-401.890699	-401.889755	-401.935339	35.229	
C	-0.1357326055	 1.7024895053	 0.2414353902	-0.451978
C	 0.0099983186	 0.2062340958	 0.0507051942	 0.319952
C	-1.2691493392	-0.5050731338	-0.407066472	-0.427662
C	-1.6974587932	-0.0971120141	-1.7419299803	 0.309489
C	-2.0318396589	 0.2448693591	-2.8444053489	-0.440909
N	 1.2835275669	-0.2538113374	-0.4828482358	-0.353017
C	 0.9337462748	-0.6239462426	 0.9071218484	-0.174339
C	 1.7859434675	-0.0351315099	 1.9777647666	 0.168397
O	 1.8661726305	-0.4948478037	 3.0897153144	-0.25891
H	 0.8288385273	 2.1697100673	 0.4438414799	 0.13306
H	-0.545749081	 2.1516574219	-0.6682888676	 0.141019
H	-0.8173040893	 1.926838403	 1.068759298	 0.124645
H	-1.1098737355	-1.5905467477	-0.3899791709	 0.131341
H	-2.0712541222	-0.3020568079	 0.3144093111	 0.14403
H	-2.3351266936	 0.5418648835	-3.8179121109	 0.203626
H	 1.1664905469	-1.0524154629	-1.1020193174	 0.242705
H	 0.607368934	-1.6386247138	 1.1250176191	 0.100732
H	 2.3577059419	 0.866342018	 1.6700095818	 0.087818
