21
gdb 120883	4.89314	0.80516	0.76607	1.0236	80.22	-0.2445	0.0923	0.3369	1577.2334	0.180378	-424.183211	-424.173585	-424.172641	-424.218085	35.096	
C	-0.0839454575	 1.3915270161	-0.0853611426	-0.224206
O	-0.0672576272	-0.0147015485	-0.091693361	-0.235443
C	 0.7710967464	-0.5492156341	-1.0964341766	-0.065743
C	 0.6747709743	-2.0604719115	-1.0423753291	-0.025923
C	-0.6851815955	-2.7310946658	-1.4549127635	-0.300846
C	 0.0715163949	-3.4869296724	-2.5632784426	 0.421635
C	-0.2440406345	-4.8128324276	-3.1738036087	-0.499388
O	 0.6619748413	-2.4778812626	-3.4023562356	-0.287372
C	 1.3424605731	-2.8377008015	-2.1898500048	-0.071647
H	 0.9161396412	 1.812833752	 0.1070731273	 0.10094
H	-0.4469158669	 1.8018485485	-1.0413001603	 0.103693
H	-0.7587100761	 1.7090111732	 0.7137163033	 0.124229
H	 0.4627230461	-0.1937478496	-2.0917922292	 0.10185
H	 1.8152985239	-0.2249060157	-0.9380949791	 0.079151
H	 1.006612988	-2.4219988358	-0.0647235858	 0.082208
H	-1.0855103826	-3.38132766	-0.6738085451	 0.104652
H	-1.4703154665	-2.0578912148	-1.8067243628	 0.10944
H	-1.1568935283	-4.7547883436	-3.7776968142	 0.130852
H	 0.5727505715	-5.1395003599	-3.8229710834	 0.133022
H	-0.4031197698	-5.5693947315	-2.3985856133	 0.12375
H	 2.3704626239	-3.1720557548	-2.2842181929	 0.095145
