16
gdb 85649	2.03205	1.70532	1.20862	5.2895	68.58	-0.2864	-0.0177	0.2687	1065.458	0.124905	-437.949037	-437.940828	-437.939884	-437.982288	29.885	
C	 0.7188263571	 1.3694511371	-0.1645740523	-0.406296
C	 0.025934488	 0.0190093002	-0.0451957476	 0.114057
C	 0.304656531	-0.959624676	-1.2070635632	-0.260378
C	 1.4912216278	-1.7951524742	-0.6875321136	-0.291621
C	 2.7944719114	-1.3021180077	-1.1242826295	 0.292223
N	 3.813547166	-0.8925092774	-1.4843226128	-0.320369
C	 1.352836483	-1.671410218	 0.8558073182	 0.440124
O	 1.8858228874	-2.348221245	 1.6795431495	-0.321193
O	 0.4977271453	-0.668261265	 1.1403764295	-0.216443
H	 1.7921132744	 1.2528622343	-0.3421681637	 0.153314
H	 0.2912104408	 1.9344183424	-0.998668854	 0.12911
H	 0.5798139191	 1.9475756181	 0.7523310371	 0.143042
H	-1.0476557001	 0.1586486202	 0.1031593217	 0.11
H	-0.5527896067	-1.6181463757	-1.3636405432	 0.131345
H	 0.5173801393	-0.4426190491	-2.1431088393	 0.141878
H	 1.4182092862	-2.8533693143	-0.948897877	 0.161208
