16
gdb 7114	6.5033	0.91641	0.8582	2.3305	66.04	-0.2661	0.0056	0.2717	1344.4066	0.129754	-417.107069	-417.098068	-417.097124	-417.142448	30.347	
C	-0.3717920719	 1.2680181954	-0.4288664419	-0.371962
C	 0.4219280953	 0.1044611726	 0.1686303698	-0.149036
N	 1.1808772263	-0.6373157462	-0.8258982893	-0.3593
C	 0.7944878535	-1.8489183212	-1.2805796792	 0.541439
O	-0.1512147194	-2.499967848	-0.9048943596	-0.400219
O	 1.6812677054	-2.2485383817	-2.26792659	-0.232927
C	 1.4626087865	-3.468380024	-2.8451502684	 0.120636
N	 2.2552395858	-3.8482799408	-3.7462514732	-0.43287
H	 0.2884657638	 1.9863332507	-0.9263820253	 0.117205
H	-1.0966883168	 0.9049870198	-1.1629296705	 0.135987
H	-0.9146225998	 1.8003941373	 0.3583259705	 0.124102
H	 1.1134622845	 0.4690292927	 0.9368659798	 0.114531
H	-0.2487166075	-0.6151621927	 0.6425162791	 0.152004
H	 1.9707866995	-0.2084671822	-1.2810817142	 0.261552
H	 0.5911960091	-3.9774877575	-2.4322213382	 0.142803
H	 1.9730959059	-4.7676286441	-4.0825793692	 0.236055
