20
gdb 92557	2.47765	1.8412	1.75962	0.2788	76.89	-0.2279	0.0883	0.3162	934.8967	0.173918	-403.131327	-403.12405	-403.123106	-403.162935	29.462	
C	 0.0878209684	 1.5243508011	-0.1647279115	-0.406464
C	-0.0480619213	 0.0065782264	-0.0368192138	 0.05975
C	 0.3812091633	-0.8093464669	-1.290836033	-0.239572
C	 1.7359132533	-1.3998149127	-0.8801064424	 0.090083
O	 2.7417169536	-0.38125538	-1.0220330446	-0.279092
C	 3.0543434521	 0.1988686236	 0.2383892761	-0.106157
C	 2.1594119207	-0.4610205172	 1.2637214157	-0.04286
C	 1.5671358171	-1.6569174873	 0.6216380678	-0.08498
N	 0.6946963871	-0.5850821487	 1.1143259384	-0.120563
H	 1.047794518	 1.8195187021	-0.5928359833	 0.132317
H	-0.6968179537	 1.9111725629	-0.8228206071	 0.11572
H	-0.0264231037	 2.0046388715	 0.8117721424	 0.121943
H	-1.0992900818	-0.207933896	 0.1845473214	 0.083753
H	-0.3355692593	-1.6151210331	-1.484194082	 0.095537
H	 0.4687998713	-0.2055468595	-2.1974203961	 0.109302
H	 2.0418861508	-2.271274557	-1.4650241899	 0.077515
H	 4.1024680843	-0.012266156	 0.5005864233	 0.101183
H	 2.9416546108	 1.2876309193	 0.1822032286	 0.106197
H	 2.4900957977	-0.4484004196	 2.2988112545	 0.096252
H	 1.5014413813	-2.654407863	 1.0436826856	 0.090136
