15
gdb 15275	4.52951	1.15643	1.00293	3.617	72.14	-0.2611	0.0221	0.2832	1126.8718	0.117845	-325.49649	-325.488435	-325.48749	-325.529473	29.207	
C	-0.0338061227	-1.2232232505	 0.1920190977	-0.462237
C	-0.026219469	-0.0208967981	 0.1430532791	 0.326681
C	-0.0149273902	 1.4110303398	 0.0737240364	-0.208388
C	 0.6435688208	 2.2280755536	 1.1776110997	-0.279533
C	 1.2837921182	 2.1704582563	-0.1759602685	 0.00066
C	 2.577361256	 1.4021869625	-0.389268845	-0.369581
C	 3.7545572728	 2.1894610332	-0.0205356131	 0.265195
N	 4.6767336793	 2.8221402469	 0.2699639116	-0.30548
H	-0.0509751136	-2.2838752948	 0.241404419	 0.203448
H	-0.8994076636	 1.8489579843	-0.3791951913	 0.123613
H	 0.1548521248	 3.1452838199	 1.4842153703	 0.131025
H	 1.1101300148	 1.6715865362	 1.9825933108	 0.137525
H	 1.1860877806	 3.0549836569	-0.797124071	 0.115167
H	 2.5684468197	 0.477797246	 0.1974922695	 0.164099
H	 2.6737456119	 1.1009898577	-1.4389544653	 0.157806
