21
gdb 101344	2.47414	1.05198	0.89927	1.8671	75.02	-0.2537	0.0644	0.3181	1407.0965	0.180623	-461.336107	-461.325925	-461.324981	-461.371711	37.209	
C	 0.9536755035	 0.8493920187	 0.7702981392	-0.382843
C	-0.0470493533	-0.138381728	 0.1570703119	-0.226438
C	 0.3699690588	-0.5814032496	-1.2238776782	 0.086862
O	 1.3926860943	-1.5963316128	-1.3075387795	-0.276915
C	 0.0677263748	-1.9046364591	-1.7923274061	 0.007441
C	-0.7478952357	-3.0017027229	-1.0946816298	 0.050163
O	-1.5824029826	-3.6535802259	-2.0423118467	-0.423781
C	 0.1344808759	-4.0163080077	-0.34641885	-0.085273
O	 0.8567760514	-3.438720776	 0.7189079204	-0.41907
H	 1.9453526525	 0.3946997579	 0.8564382259	 0.130633
H	 1.0512768283	 1.7508245293	 0.1555625235	 0.116794
H	 0.6356325866	 1.1581858043	 1.7699334825	 0.120317
H	-0.1475430072	-1.016722618	 0.8019740894	 0.127684
H	-1.0378077634	 0.3292130175	 0.0845687984	 0.106262
H	 0.5323530426	 0.2318198673	-1.9345230404	 0.093811
H	 0.0192801409	-1.9814915011	-2.8800841397	 0.094834
H	-1.437083075	-2.5530619673	-0.37291495	 0.106352
H	-1.0191948079	-4.1793563809	-2.6223755341	 0.282488
H	-0.517378139	-4.7865373527	 0.0770482738	 0.117542
H	 0.8032494142	-4.5123678102	-1.0730608306	 0.077494
H	 1.4401455703	-2.7827935427	 0.3116890699	 0.295643
