17
gdb 14979	4.55723	1.4601	1.17478	2.4493	65.25	-0.2447	0.0243	0.269	1011.9131	0.143212	-400.995984	-400.988194	-400.98725	-401.028581	27.841	
C	-0.0870259284	 1.386523008	-0.0028654544	-0.241768
O	 0.0720455896	-0.0170126406	-0.0169433219	-0.239908
C	 0.7120744864	-0.5538284883	 1.122727788	 0.073838
C	-0.2791582304	-0.7732746184	 2.2703523418	-0.094176
O	 0.3525869129	-1.4373778729	 3.3727241281	-0.222811
C	 1.2361849634	-2.4102842249	 3.0328765768	 0.134228
N	 1.701311425	-2.7135605275	 1.8985623729	-0.272891
C	 1.310387847	-1.9080373672	 0.7446868564	-0.173344
H	 0.8799357451	 1.9006597753	 0.1040451378	 0.111907
H	-0.5315799102	 1.6665115478	-0.9607298164	 0.13343
H	-0.7521042063	 1.7302461724	 0.8024897454	 0.109196
H	 1.5127049665	 0.1194378178	 1.4681393685	 0.0794
H	-0.6736452764	 0.1630674985	 2.6703276295	 0.116414
H	-1.1178857359	-1.3819625313	 1.9094122547	 0.120445
H	 1.5395462792	-2.9558066096	 3.9244781758	 0.125222
H	 0.5776268509	-2.4613412435	 0.1434753934	 0.124665
H	 2.1894256315	-1.7681754856	 0.1074448034	 0.116154
