18
gdb 27163	2.95288	1.38839	0.99704	3.224	79.19	-0.1781	0.0379	0.216	1179.8629	0.150292	-398.153558	-398.145257	-398.144313	-398.186825	31.654	
N	-0.1223858808	 1.279933376	 0.4604942218	-0.596368
C	-0.0783799712	-0.080597444	 0.1460439868	 0.213521
C	-1.1208909738	-0.9163316599	-0.1988323677	 0.232206
N	-0.4929546824	-2.1252081329	-0.4987908416	-0.301768
C	 0.8366163391	-1.9594911595	-0.308311077	 0.002269
N	 1.1258326758	-0.7352625313	 0.0839936891	-0.307732
C	-2.5736454003	-0.7033732074	-0.3220686264	-0.147227
C	-3.5469304879	-1.5959982783	 0.4241949205	-0.265926
C	-3.3603726923	-0.168494426	 0.8588335958	-0.252995
H	 0.6729864117	 1.5480147551	 1.025640312	 0.24578
H	-0.9885691292	 1.5617067721	 0.8997293011	 0.240249
H	-0.9623497128	-2.9675348872	-0.7847360343	 0.259916
H	 1.5503694832	-2.7549501454	-0.4617287396	 0.12385
H	-2.9290140164	-0.3582593511	-1.2924704136	 0.097366
H	-4.4721538403	-1.8657242983	-0.0725687299	 0.112888
H	-3.1342788751	-2.3705653103	 1.0610309978	 0.113504
H	-2.8215565753	 0.0037675026	 1.7839504877	 0.115714
H	-4.157211442	 0.5392005258	 0.6599398075	 0.114753
