21
gdb 111286	3.01813	1.1804	1.00392	1.3839	78.13	-0.2371	0.0651	0.3022	1265.6805	0.181235	-424.194208	-424.184677	-424.183733	-424.228083	36.524	
C	-0.0264492384	 1.5732356956	-0.0284678902	-0.385342
C	-0.1363224738	 0.045736033	 0.0439048823	-0.185944
C	 0.6699446258	-0.54676868	 1.1980606246	-0.014904
C	 0.6960759787	-2.0658221471	 1.4043133446	-0.168865
C	 1.3629071298	-2.746083418	 0.2292531703	-0.332277
C	 2.2302085989	-2.0828185085	 1.2487345733	 0.376443
O	 3.208799206	-2.837717871	 1.8676736909	-0.459627
C	 2.2529524715	-0.567352967	 1.0829437247	 0.037549
O	 2.8977509713	-0.0027054951	-0.03595491	-0.427032
H	 1.0134451436	 1.8760275933	-0.1775423226	 0.138154
H	-0.6217069243	 1.9754644079	-0.8542420046	 0.10688
H	-0.3860251627	 2.0381533388	 0.8966943143	 0.107779
H	-1.1867763229	-0.2498966673	 0.1619791955	 0.095619
H	 0.1904935865	-0.3850366321	-0.9101999214	 0.082792
H	 0.3829110237	-0.0372567334	 2.124930021	 0.06682
H	 0.0756381201	-2.6202496737	 2.0977324287	 0.089637
H	 1.3975867236	-3.828664953	 0.2960110734	 0.125187
H	 1.249874967	-2.3751520748	-0.7874301472	 0.097212
H	 3.3926064167	-2.4463143722	 2.7289060819	 0.284255
H	 2.7005778801	-0.0791975123	 1.9552164722	 0.081117
H	 2.7545354889	-0.5856072632	-0.7886745718	 0.284547
