19
gdb 39325	2.86138	1.74191	1.31005	2.9942	73.58	-0.2428	0.0683	0.3111	1000.0155	0.1621	-423.000921	-422.993788	-422.992844	-423.032836	28.271	
C	 0.1766669252	 1.5875573554	 0.1637739509	-0.081369
O	 1.4929132055	 1.489988432	-0.4218161258	-0.293036
C	 1.3573233049	 0.0636104096	-0.598139426	 0.138191
C	 2.4514798717	-0.7545712015	 0.0350821883	 0.011313
O	 2.6587064072	-0.6091359291	 1.4433634186	-0.245899
C	 2.0809302549	-1.8299701636	 0.972868517	 0.061542
C	 0.6267477204	-2.053329814	 1.3446733368	-0.249936
C	-0.1319386257	-0.7187446919	 1.4100016531	-0.228782
C	-0.0314900445	 0.0580891107	 0.0911317581	-0.077069
H	 0.2119983693	 2.0117677607	 1.174837271	 0.105757
H	-0.5007882512	 2.1900447314	-0.4544731632	 0.096466
H	 1.3214812398	-0.1951453025	-1.6672424986	 0.068991
H	 3.3751738021	-0.8434599643	-0.5370998914	 0.096054
H	 2.7381158403	-2.6969287322	 1.0457673639	 0.090011
H	 0.1745569415	-2.7346613487	 0.6110890556	 0.103631
H	 0.5732096979	-2.5605115888	 2.3149753099	 0.109245
H	-1.1812749998	-0.8973996988	 1.6654854607	 0.094966
H	 0.301664979	-0.1246902746	 2.2191098669	 0.12307
H	-0.8303390684	-0.2446456698	-0.5902681658	 0.076854
