19
gdb 81691	2.77131	1.56664	1.48131	1.9325	70.31	-0.2392	0.0755	0.3147	996.6836	0.159563	-460.138651	-460.130601	-460.129657	-460.170984	31.735	
C	-0.1396443501	 1.4574620028	-0.0066997318	-0.396484
C	 0.0371485652	-0.0544697228	-0.0901733766	 0.20864
O	 0.6567870806	-0.4386750323	-1.3099548572	-0.287408
C	 1.9859178231	-0.9283056151	-1.1968640889	 0.064558
C	 2.7946607651	-0.1135945047	-0.1532185207	-0.293381
C	 2.051923133	-0.9785667826	 0.8932793434	 0.056115
O	 0.6954614223	-0.5617124393	 1.0767149829	-0.314216
C	 2.0327912788	-2.1125378295	-0.16890724	 0.156048
O	 1.0107676196	-3.0534239234	-0.1197210423	-0.440563
H	 0.8183827429	 1.9803146355	 0.0143941885	 0.123646
H	-0.7068154325	 1.8029435328	-0.8756984443	 0.128028
H	-0.6955072221	 1.7093870394	 0.9009546237	 0.125346
H	-0.9569943422	-0.5224491164	-0.0926600965	 0.090433
H	 2.3522690627	-1.0608967889	-2.2151522932	 0.08379
H	 3.8587578498	-0.3604801013	-0.1800366107	 0.113806
H	 2.6704189555	 0.9677421694	-0.1293752853	 0.114738
H	 2.4596402687	-1.1387798917	 1.8923067459	 0.08345
H	 2.9909570909	-2.6364522114	-0.2292282974	 0.089855
H	 0.2708687886	-2.6316872904	 0.3348575705	 0.293599
