21
gdb 118514	2.49901	0.86959	0.68796	2.5068	75.18	-0.2544	0.0726	0.327	1632.7801	0.180829	-461.325042	-461.314693	-461.313749	-461.361453	36.774	
O	-0.1829811024	 1.3305107797	-0.4997079517	-0.420671
C	-0.0020344363	-0.0508281305	-0.2286112665	-0.082993
C	-1.3706208834	-0.6297080093	 0.1140146003	-0.190669
C	-1.3590869353	-2.1404590248	 0.4057484518	-0.062917
C	-0.7659287031	-2.4847929367	 1.7873822558	-0.048666
O	-0.4751448046	-3.8593286502	 1.9235679753	-0.433889
C	-2.7736016685	-2.6814684361	 0.3068373808	 0.087116
C	-3.2194840834	-3.562567398	-0.7789939812	-0.186017
O	-2.9513048509	-4.0941435754	 0.524062407	-0.256419
H	 0.6779962937	 1.7166652834	-0.6845274588	 0.287293
H	 0.4119402138	-0.5791503914	-1.1032464032	 0.08838
H	 0.7015612122	-0.2014467236	 0.6040934836	 0.094012
H	-1.7785463771	-0.0827193385	 0.9735198397	 0.110083
H	-2.0394644785	-0.4191519888	-0.7292578361	 0.108624
H	-0.7393552333	-2.6550748377	-0.3404429698	 0.080642
H	 0.1794365494	-1.9529353077	 1.9372832449	 0.101665
H	-1.4588127593	-2.1318716789	 2.5723897782	 0.082416
H	-1.2512035141	-4.3436288659	 1.6134284874	 0.296492
H	-3.5315466856	-2.0781108079	 0.8106124116	 0.100478
H	-4.2673082293	-3.5824897783	-1.0726318678	 0.122851
H	-2.5120658041	-3.8522326233	-1.5543355712	 0.122191
