17
gdb 9207	6.11265	0.95378	0.85854	4.782	67.89	-0.2484	-0.0272	0.2212	1334.8811	0.13953	-401.012782	-401.003535	-401.002591	-401.047862	31.384	
C	 0.3692861127	 1.3827357967	-0.1027880744	-0.375766
C	-0.0946641851	-0.0692776287	-0.1941756674	-0.286647
C	 0.5294050819	-0.8332801636	-1.3500241569	 0.368007
O	 1.155455146	-0.3039132808	-2.2355178828	-0.282364
C	 0.3363819175	-2.3547202944	-1.3156540618	-0.195334
O	 0.5649240127	-2.9805732954	-2.5546274466	-0.165901
C	 1.8497617334	-3.051980418	-2.9778856361	 0.150296
N	 2.1023568462	-3.558652001	-4.1031863554	-0.444567
H	 1.446188328	 1.4390336328	 0.0777976826	 0.129655
H	 0.1672725931	 1.9113062595	-1.037004852	 0.14287
H	-0.1438256656	 1.9012795373	 0.7112538952	 0.116449
H	 0.1032745115	-0.6180475387	 0.736966392	 0.120354
H	-1.1847809452	-0.1248770713	-0.3295229914	 0.135675
H	 0.9921961159	-2.7571197338	-0.5258611434	 0.127489
H	-0.6909197055	-2.598087991	-1.0288091437	 0.141238
H	 2.5739219379	-2.6620766663	-2.252657846	 0.088632
H	 3.1068807045	-3.5579345032	-4.2660430119	 0.229916
