16
gdb 62540	2.43811	1.41618	1.18576	3.672	72.11	-0.2427	0.0095	0.2522	1093.367	0.12132	-437.869262	-437.859946	-437.859002	-437.903187	34.309	
C	 0.0037287634	 1.6525571099	 0.0474295415	-0.426233
C	-0.0708860301	 0.1371080164	 0.0509485423	 0.260884
O	-1.3897652447	-0.2301009692	 0.2962537981	-0.450817
C	 0.6683666968	-0.5695050249	-1.1866731211	-0.26347
N	 1.6944178964	-0.9835720246	-0.2220455738	-0.317911
C	 1.0442416503	-0.5507520843	 0.9132235251	 0.364076
O	 1.276827511	-0.6728249591	 2.083438277	-0.353412
C	-0.0837634712	-1.6526265623	-1.7944474775	 0.332009
C	-0.7390854846	-2.5503227864	-2.2550092661	-0.422582
H	 1.0169857577	 1.9962458001	-0.1762969129	 0.126726
H	-0.6875325664	 2.0584525186	-0.6966435354	 0.132495
H	-0.2834553217	 2.0306236136	 1.0320163724	 0.149329
H	-1.4743510882	-1.1866133065	 0.1987669318	 0.289865
H	 1.0374619968	 0.127941701	-1.9456436287	 0.111601
H	 2.4664198879	-1.6241404357	-0.3380521226	 0.257144
H	-1.3021052735	-3.3421848866	-2.6851331999	 0.210296
