21
gdb 93270	2.17766	1.62891	1.19639	2.5304	77.75	-0.2449	-0.0257	0.2192	1134.4454	0.181136	-424.270874	-424.261385	-424.260441	-424.304609	36.481	
C	-0.3332717296	 1.5075185478	-0.0250406701	-0.426256
C	 0.0284238992	 0.026759338	 0.0357856717	 0.008714
C	 0.9184110981	-0.4723733148	-1.1298161159	-0.235616
C	 1.4679053713	-1.8370888023	-0.6640061592	-0.334134
C	 1.3166635183	-1.8148897356	 0.8529881613	 0.365984
O	 1.4968645384	-2.7260443393	 1.6237430908	-0.341825
C	 0.7829687264	-0.4440277861	 1.298549684	 0.292549
C	 1.9770436971	 0.4482999151	 1.6914714414	-0.43435
O	-0.0834756406	-0.5978205002	 2.4028220273	-0.490923
H	 0.5586424837	 2.1416333261	-0.0578500275	 0.115483
H	-0.9235323241	 1.7235372078	-0.9217587661	 0.113345
H	-0.9272800348	 1.7998624505	 0.846163471	 0.133497
H	-0.902670962	-0.5565226621	 0.0283045069	 0.085649
H	 0.3589453935	-0.5416025755	-2.0659641617	 0.106833
H	 1.73792251	 0.2344494847	-1.3016307788	 0.106269
H	 0.8791707019	-2.6797621712	-1.0434338017	 0.140757
H	 2.5057660243	-2.030083671	-0.9516094444	 0.134256
H	 2.6573956084	 0.6422159628	 0.8558634115	 0.113482
H	 1.6063782362	 1.4046954107	 2.0682761101	 0.13419
H	 2.5454393515	-0.0374524485	 2.4901159698	 0.126758
H	 0.2153076527	-1.397018007	 2.8617949797	 0.285339
