27
gdb 101015	2.40691	0.95589	0.91936	0.2027	95.65	-0.2598	0.0859	0.3457	1556.2963	0.250716	-353.5566	-353.545323	-353.544379	-353.593261	42.368	
C	-0.1505976325	 1.6207179044	-0.1982262874	-0.391928
C	-0.0961251142	 0.0895764371	-0.1549587713	-0.176299
C	 0.8706621528	-0.5416077362	-1.1777420508	-0.01714
C	 2.3411340601	-0.2033301454	-0.8799623384	-0.406451
C	 0.6447555492	-2.0542243764	-1.3304625352	 0.391713
C	 0.8593471299	-2.8766175402	-0.058679538	-0.254205
C	 0.7965402868	-4.4023580985	-0.1897762851	-0.402386
C	-0.4437438484	-2.4535823455	-2.2992324421	-0.317416
C	 1.0084509629	-2.6289690919	-2.6799969368	-0.318008
H	 0.8109562716	 2.0732795624	 0.063367826	 0.116867
H	-0.4245302101	 1.9789960412	-1.1972795409	 0.111146
H	-0.8946318935	 2.0054470404	 0.5066011809	 0.109953
H	 0.1791093725	-0.230652668	 0.8579026601	 0.094175
H	-1.1022269216	-0.3078427986	-0.3386150472	 0.094681
H	 0.6307976841	-0.1002723456	-2.156247882	 0.060451
H	 2.6348184762	-0.5206248824	 0.1265088138	 0.113378
H	 3.0067668379	-0.6984669362	-1.5941446445	 0.113198
H	 2.5243991551	 0.8728978595	-0.9481607966	 0.111388
H	 1.8352573893	-2.6138370175	 0.3682349231	 0.097368
H	 0.1151502834	-2.5628773449	 0.6842591355	 0.099566
H	-0.1646241706	-4.7470468012	-0.5837820707	 0.118041
H	 1.5864603104	-4.7908671005	-0.8396130031	 0.119214
H	 0.927745559	-4.865535687	 0.7931033258	 0.112622
H	-1.0266690591	-3.3464820656	-2.10201822	 0.106296
H	-1.0081689469	-1.6627759983	-2.7834008856	 0.103817
H	 1.4271260143	-1.9545149854	-3.4203855318	 0.103162
H	 1.3964541814	-3.6389796897	-2.7410441578	 0.106797
