23
gdb 118544	2.75552	0.77276	0.63634	3.0887	84.34	-0.2508	-0.0218	0.229	1791.4899	0.202078	-425.428928	-425.417453	-425.416509	-425.467308	39.15	
C	-0.4097563707	 1.2974064926	-0.3363011704	-0.38434
C	-0.1176644246	-0.1724051975	-0.0161890762	-0.172383
C	 0.7936478022	-0.4218442585	 1.2051392776	-0.01949
C	 0.1046953865	-0.1757071957	 2.5505385144	-0.052431
O	-0.1915791088	 1.19440381	 2.7090842087	-0.229276
C	-0.8233726919	 1.4772130227	 3.935163856	-0.232206
C	 1.339864923	-1.8669049412	 1.1821183917	-0.288419
C	 2.312540973	-2.0961336439	 0.0472319458	 0.161106
O	 2.2501103447	-2.9929140361	-0.7530451827	-0.241269
H	 0.5188807054	 1.8484416895	-0.5229856972	 0.110288
H	-1.027902199	 1.3765062657	-1.2363464968	 0.106242
H	-0.925286574	 1.7909745808	 0.4881574592	 0.136467
H	-1.0600618544	-0.7160533932	 0.1385314911	 0.096109
H	 0.3466431245	-0.637130478	-0.895210944	 0.107678
H	 1.6487005791	 0.2680304403	 1.1543520236	 0.08585
H	-0.8187381523	-0.7791345175	 2.6159463818	 0.086486
H	 0.7631465126	-0.509760818	 3.3716694069	 0.080925
H	-0.19369775	 1.1902171874	 4.7924170172	 0.105194
H	-1.000590998	 2.5546014923	 3.9718138623	 0.12969
H	-1.787850216	 0.9535623715	 4.0292458808	 0.10616
H	 1.8927420722	-2.0637411542	 2.1127102169	 0.115437
H	 0.5344973301	-2.6046623792	 1.1069679153	 0.120385
H	 3.1382340163	-1.3458262299	 0.0020745379	 0.071799
