21
gdb 90276	4.09116	1.09801	0.90716	1.9764	84.9	-0.2184	0.0301	0.2485	1325.7142	0.184355	-387.10992	-387.101566	-387.100622	-387.143016	31.917	
C	 0.0791012348	 1.5499372847	 0.0167110584	-0.402672
C	 0.0982332946	 0.0224853625	 0.009879634	 0.056528
C	 0.8688433729	-0.6046378297	-1.1999295768	-0.365165
C	 1.4805832051	-1.8291762748	-0.5860541608	 0.239859
C	 1.4041230187	-1.8360713982	 0.7413837742	 0.239858
C	 2.0954462932	-3.0423042797	 1.2916247863	-0.184724
O	 2.5482104487	-3.7534591317	 0.1313848005	-0.274992
C	 2.2312317475	-3.0300584085	-1.0657409168	-0.184724
C	 0.7252191779	-0.6175877048	 1.293607216	-0.365164
H	 1.0959025737	 1.9552939664	 0.0773832786	 0.114333
H	-0.3832185929	 1.9469383254	-0.8934531004	 0.114012
H	-0.4848975007	 1.937768989	 0.8718368604	 0.114012
H	-0.9360470899	-0.3363434277	-0.0515564383	 0.080947
H	 0.2024126231	-0.8130976309	-2.0452684835	 0.1036
H	 1.6427306623	 0.0786594655	-1.5807409848	 0.103322
H	 2.9552315238	-2.7891658826	 1.9337638661	 0.09997
H	 1.4336449875	-3.6941910691	 1.8831927108	 0.102054
H	 1.642128152	-3.6753922457	-1.7361066796	 0.102055
H	 3.1589102274	-2.7707883519	-1.6022525464	 0.09997
H	 1.449866938	 0.0612682535	 1.7677956108	 0.103322
H	-0.0337317081	-0.8343810818	 2.0546438754	 0.1036
