17
gdb 91479	2.68284	1.68326	1.26572	2.0376	74.33	-0.2472	0.0156	0.2628	1010.7801	0.1358	-421.767422	-421.759731	-421.758787	-421.799302	30.919	
O	 0.0578489035	 1.3412220483	-0.0797523163	-0.433118
C	 0.0441365772	-0.0612083226	-0.0315771272	 0.120444
C	 0.4998144461	-0.657426586	 1.3424023782	-0.267939
C	-0.8488132291	-1.2706551485	 1.751149269	 0.061531
C	-1.2654210083	-2.0726405137	 0.5027613546	-0.280414
C	-1.4138129321	-0.6214701463	-0.0169735657	 0.250384
O	-1.8025926139	-0.2232474413	 1.3549142895	-0.34078
C	-2.3122699991	-0.2342024646	-1.0691362164	 0.117647
C	-3.0481008114	 0.0654033745	-1.9706974982	-0.337893
H	-0.5664620487	 1.6349787866	 0.597543671	 0.284537
H	 0.6250780262	-0.4144489849	-0.8859710326	 0.09514
H	 1.2993836715	-1.3980551248	 1.2584437608	 0.105469
H	 0.82436958	 0.1399644817	 2.0141391176	 0.113171
H	-0.9945290832	-1.6281967276	 2.7689715385	 0.091367
H	-0.5363178885	-2.7282791576	 0.020909326	 0.103454
H	-2.2359815964	-2.5556142393	 0.6125060829	 0.126407
H	-3.6975238136	 0.3389232161	-2.7653968216	 0.190594
