15
gdb 31679	3.38638	1.11828	0.84515	5.7455	72.27	-0.2251	-0.0331	0.192	1288.4486	0.113148	-453.990559	-453.982309	-453.981365	-454.023893	29.3	
C	 0.038882738	 1.3681635824	 0.0080670488	-0.240515
O	-0.0117350882	-0.0644309711	 0.003836539	-0.270617
C	-1.2407440563	-0.5776882467	 0.0105394229	 0.497423
N	-2.3818640169	 0.0457535137	 0.0203176804	-0.400867
C	-3.3351335275	-0.9686114109	 0.0234502012	 0.171191
C	-4.7775255097	-0.7494742211	 0.0338854544	 0.079833
O	-5.3360860956	 0.3226921484	 0.0413258182	-0.276551
C	-2.7245227214	-2.2012808749	 0.0154491782	-0.143768
N	-1.3748755239	-1.9432037694	 0.007051743	-0.334219
H	 1.0982662553	 1.6241577732	 0.0010902966	 0.135059
H	-0.4621632036	 1.7714360022	-0.8758218032	 0.150214
H	-0.4490273482	 1.7657165248	 0.9018504208	 0.150173
H	-5.3567823406	-1.7031486952	 0.0349710869	 0.054773
H	-3.1188976228	-3.2040228447	 0.014956193	 0.151115
H	-0.6201314385	-2.6090068006	-0.0002798406	 0.276758
