19
gdb 75012	3.31468	1.34644	1.16874	2.0329	76.49	-0.2477	0.0147	0.2624	1116.3541	0.160989	-423.048449	-423.040645	-423.039701	-423.081075	29.882	
C	-0.0779668747	 1.5096333704	-0.0010620703	-0.488398
C	 0.0218885632	 0.0174662918	-0.0356534482	 0.320506
C	-0.1071745906	-0.7774459799	-1.1013617641	-0.204863
C	 0.0505979474	-2.237794543	-0.7704533589	 0.041876
O	 1.1618270224	-2.872563758	-1.4121399144	-0.25064
C	 2.260779658	-2.620419151	-0.5760277808	 0.014143
O	 1.7874731416	-2.6868349266	 0.7538679049	-0.262014
C	 0.4329088343	-2.239085383	 0.744029204	 0.074012
C	 0.2669816615	-0.7815174301	 1.227788925	-0.320512
H	 0.8442228358	 1.9537721404	 0.3941506611	 0.130608
H	-0.263080947	 1.9283634588	-0.9935750608	 0.126872
H	-0.8874117641	 1.8346458071	 0.6649110783	 0.128638
H	-0.2985499085	-0.4392387993	-2.1138923411	 0.093652
H	-0.829917514	-2.8380985822	-1.0179787056	 0.088373
H	 3.0123600468	-3.4002557283	-0.7296632559	 0.116241
H	 2.6956791165	-1.6266948933	-0.7816887353	 0.082242
H	-0.1461785619	-2.9455872303	 1.343697376	 0.085289
H	 1.1586898302	-0.4515778137	 1.7733469091	 0.117858
H	-0.5774234768	-0.6841246197	 1.9234640271	 0.106117
