19
gdb 55925	4.27565	0.88716	0.82699	3.6834	77.37	-0.241	0.0277	0.2687	1435.9858	0.15921	-419.192686	-419.183591	-419.182646	-419.228973	32.627	
C	-0.0086900701	 1.5328603834	 0.0025628884	-0.486537
C	-0.0106091047	 0.014314605	 0.0881447676	 0.408369
O	 0.0866545429	-0.5747156203	 1.1485064352	-0.367939
N	-0.1480539273	-0.6351830109	-1.1117798822	-0.331084
C	-0.1778860865	-2.0715797796	-1.2228460301	 0.039488
C	-1.4171911665	-2.8099893608	-1.8140177809	-0.195127
N	-0.5600724025	-3.5656482743	-2.7963498728	-0.119092
C	 0.0215974912	-2.5331186876	-3.6647757805	-0.24594
C	 0.6301206516	-2.7348289299	-2.3322954552	-0.051973
H	 0.0971159212	 1.9166497161	-1.0156825341	 0.111113
H	-0.9447767846	 1.9116929489	 0.4240328424	 0.153648
H	 0.8065377024	 1.9160138518	 0.6197763574	 0.154975
H	-0.2067098986	-0.0883302102	-1.9550041366	 0.240109
H	 0.0743765228	-2.4559155722	-0.2351590741	 0.13481
H	-1.8990595475	-3.493641921	-1.1134538486	 0.1237
H	-2.178572616	-2.1828773147	-2.2905276769	 0.100497
H	 0.5567398576	-2.9402672026	-4.5171181056	 0.1277
H	-0.5631495468	-1.6415634613	-3.8893334468	 0.100731
H	 1.6179421113	-3.1682219599	-2.2122941565	 0.102554
