6
gdb 486	0.	1.344106	1.344106	0.	55.28	-0.3277	-0.1164	0.2113	754.2424	0.027023	-261.802956	-261.79743	-261.796485	-261.828854	17.827	
C	 0.605438995	 0.	 0.	 0.099941
C	-0.605438995	 0.	 0.	 0.099941
C	-1.9675982265	 0.	 0.	 0.2011
C	 1.9675982265	 0.	 0.	 0.2011
N	-3.1294921384	 0.	 0.	-0.301041
N	 3.1294921384	 0.	 0.	-0.301041
