17
gdb 34854	3.95083	1.27186	1.18177	1.3207	74.1	-0.245	0.0437	0.2887	1067.3472	0.136815	-421.763235	-421.75589	-421.754946	-421.794796	29.404	
C	-0.019291744	-1.1842598307	-0.0470236888	-0.432324
C	-0.0188984258	 0.0188547927	-0.0243641594	 0.303858
C	-0.0027605601	 1.4628976172	 0.0198973439	-0.218728
C	-0.1142685084	 2.0981977947	 1.4579945903	 0.11364
C	 1.4219570463	 1.921430709	 1.5837112881	-0.308666
C	 1.4276596336	 2.1242608324	 0.04557382	 0.11364
O	 1.2695639949	 3.4963022217	-0.2983967255	-0.273271
C	 0.578827507	 4.2136706276	 0.7055720568	 0.012676
O	-0.4682761825	 3.4669272469	 1.2934817512	-0.273272
H	-0.0297433845	-2.2457411272	-0.0781071736	 0.195282
H	-0.6810539637	 1.9068801813	-0.7123974658	 0.10879
H	-0.7949183269	 1.6613914932	 2.1883930938	 0.096049
H	 1.9939927996	 2.5970834586	 2.2206656714	 0.112574
H	 1.6651537467	 0.8875627579	 1.8301295253	 0.132797
H	 2.2226169857	 1.7123972914	-0.5756968054	 0.096049
H	 1.2863734081	 4.5369968752	 1.483960948	 0.095672
H	 0.1315447994	 5.0912408981	 0.2334710339	 0.125233
