20
gdb 92308	2.36056	1.68459	1.1423	3.0429	79.35	-0.2115	-0.0163	0.1951	1123.2189	0.171935	-403.15363	-403.145321	-403.144377	-403.18671	31.616	
C	 0.041522058	 1.5380420197	 0.0960809439	-0.328747
N	 0.0719083388	 0.0950471063	 0.1569972486	-0.07563
C	-1.1882584059	-0.6591421442	 0.2828050342	-0.17234
C	-0.4990953382	-1.6174166523	 1.2862310126	-0.046743
C	 0.139901339	-2.9094965987	 0.7148270726	-0.231951
C	 1.5338979349	-2.5223509826	 0.1765694283	-0.320213
C	 1.938051945	-1.280420977	 0.9775704398	 0.428541
O	 3.0564683197	-0.930206202	 1.2524990505	-0.322189
C	 0.6411951803	-0.5645711692	 1.3583763413	-0.095348
H	 1.0632044867	 1.9302203561	 0.1092062906	 0.134823
H	-0.4291993984	 1.8577845297	-0.839826121	 0.122761
H	-0.5156339642	 1.997254104	 0.9346282503	 0.092178
H	-1.99706754	-0.0768118314	 0.7530893515	 0.087582
H	-1.564684628	-1.0856359308	-0.6554867783	 0.098493
H	-1.0633187244	-1.808714209	 2.1982640311	 0.081513
H	 0.2515606288	-3.6396629029	 1.5231770755	 0.108756
H	-0.4931839287	-3.3741600342	-0.0467371688	 0.105438
H	 2.2870199375	-3.3073593733	 0.2645781398	 0.121608
H	 1.4835029073	-2.2237629174	-0.8765219505	 0.140373
H	 0.7270767719	 0.0653543692	 2.2510545079	 0.071096
