19
gdb 70937	3.41636	1.47228	1.26108	0.8943	75.04	-0.2357	0.0717	0.3074	1034.6953	0.160507	-422.953075	-422.945604	-422.94466	-422.984897	30.46	
O	 0.0083224325	 1.3939859912	-0.0916199391	-0.467966
C	 0.0486737571	 0.0185429732	-0.0109547099	 0.364388
C	 0.6043626084	-1.0098217328	-1.1114109222	-0.372615
C	-0.004467486	-1.8234675476	 0.0500547914	 0.452436
C	 0.734871018	-0.8687071869	 1.055921772	-0.37324
O	-0.3890964006	-3.1234228066	 0.3111545839	-0.32576
C	-1.6223551126	-3.0107667258	 1.0785082352	-0.084082
C	-2.0132328218	-1.4884532049	 1.2097609537	-0.325228
C	-1.2150010287	-0.8892760937	 0.0496491487	-0.047103
H	 0.911398489	 1.7291099693	-0.0713676623	 0.285386
H	 0.0707441505	-1.0306607076	-2.0641632426	 0.1015
H	 1.6895952461	-1.0364535253	-1.2407376833	 0.090665
H	 1.8274909091	-0.9013013355	 1.0388771606	 0.08593
H	 0.3542818455	-0.8112638384	 2.0760345359	 0.095493
H	-2.3914504084	-3.5796299156	 0.5447065475	 0.11148
H	-1.4687008171	-3.4754990142	 2.0578249678	 0.110787
H	-3.0916410028	-1.3527973389	 1.1036836364	 0.10789
H	-1.7296579602	-1.1025364842	 2.1905364263	 0.117226
H	-1.7864877681	-0.9017597956	-0.8833993601	 0.072816
