16
gdb 125713	3.08447	1.41506	0.97665	5.538	79.54	-0.2123	-0.0517	0.1606	1160.7475	0.12448	-434.061664	-434.053429	-434.052485	-434.094177	31.789	
C	-0.0564795487	 1.455338603	-0.0213619024	-0.495643
C	-0.0177626851	-0.0469835249	 0.0334302368	 0.33695
N	-0.0085121886	-0.6458129079	-1.1068245948	-0.128115
O	 0.0180156907	-2.0274668429	-1.1305638304	-0.296034
C	 0.0371103244	-2.8153636548	 0.0248722082	 0.400163
N	 0.0627171271	-4.081950909	-0.0814917602	-0.547852
C	 0.0334037024	-2.1098655191	 1.2779663329	-0.245287
C	 0.001069542	-0.7575429635	 1.3129256264	 0.266983
N	-0.080289461	-0.012938552	 2.4713884082	-0.586472
H	 0.8399516463	 1.8956991375	 0.433535586	 0.132431
H	-0.1037251618	 1.7774525013	-1.0618979488	 0.160455
H	-0.9286766408	 1.8458209914	 0.5142841745	 0.146012
H	 0.0642881898	-4.3580747406	-1.0639242388	 0.220878
H	 0.0523409523	-2.7184386705	 2.1740066415	 0.114245
H	 0.1317950998	-0.5025663526	 3.3277152708	 0.26191
H	 0.2932953112	 0.9222819544	 2.4447938902	 0.259378
