25
gdb 66235	2.53973	1.22949	1.17111	0.1328	91.29	-0.2657	0.0785	0.3442	1268.8823	0.230709	-352.361832	-352.352505	-352.351561	-352.395987	36.751	
C	-0.1813488641	 1.8201559026	-0.1377159448	-0.467442
C	 0.1169717787	 0.3175874284	-0.0975656431	 0.278488
C	 1.1243583773	-0.0948003112	-1.2021009178	-0.21754
C	 1.7843803107	-1.4020189304	-0.7066128679	-0.210117
C	 1.6346093295	-1.3905141163	 0.8440464222	-0.210162
C	 0.8948566571	-0.0765710017	 1.1847634826	-0.217493
C	-1.1419110883	-0.5490027871	-0.2120390017	 0.028298
C	-2.466911781	-0.1985662582	 0.4175035372	-0.28644
C	-2.3224059767	-0.2097109391	-1.0873042346	-0.286441
H	 0.7510323243	 2.3877384764	-0.0522839302	 0.109782
H	-0.6597498425	 2.1206330133	-1.0754403928	 0.113392
H	-0.8293950794	 2.1340537159	 0.6868994011	 0.113387
H	 0.6460117809	-0.2027109218	-2.1803714478	 0.092182
H	 1.882839914	 0.6914637057	-1.2996801177	 0.085378
H	 1.2850749549	-2.2768698974	-1.1342111662	 0.098505
H	 2.8305388148	-1.463891653	-1.0188854721	 0.09384
H	 1.0605793065	-2.2591725158	 1.1808564638	 0.098519
H	 2.6014728474	-1.4472873115	 1.3517246418	 0.093818
H	 1.6224020358	 0.7119302906	 1.4127812956	 0.085371
H	 0.2388882287	-0.1698784353	 2.0556698155	 0.092171
H	-0.9149303619	-1.6117361243	-0.1824051179	 0.079465
H	-3.037039302	-0.9915355945	 0.8895092663	 0.105966
H	-2.5768878859	 0.7661921004	 0.8996734031	 0.110553
H	-2.3372785648	 0.7477056848	-1.5957052743	 0.110554
H	-2.7934081242	-1.0103338206	-1.6474777402	 0.105965
