13
gdb 17017	5.84726	1.33875	1.25036	1.9756	60.86	-0.2515	-0.0359	0.2156	925.101	0.095327	-398.54086	-398.534186	-398.533242	-398.572164	24.197	
O	-0.0209887933	-0.0513769101	-0.1931542047	-0.252574
C	-0.0098680437	 1.1289670803	 0.0568743689	 0.131696
C	 1.2663375368	 1.932964143	 0.0433526332	-0.064162
C	 1.2191626914	 3.3470999047	-0.6272213533	-0.171981
N	 0.3809783381	 3.7916519231	 0.5682140753	-0.31484
C	 1.485346633	 2.955429145	 1.2088011552	-0.171973
C	 2.4492974725	 3.7028398559	 0.2494060722	 0.449012
O	 3.4458722673	 4.3489161962	 0.2427484613	-0.307287
H	-0.9317517744	 1.6831428574	 0.3086029903	 0.113418
H	 2.1127644182	 1.2956417903	-0.2153093527	 0.112238
H	 0.9518388558	 3.6002581469	-1.6510406821	 0.11806
H	 0.5119904929	 4.7877234713	 0.7617064568	 0.240332
H	 1.5215861554	 2.7619096759	 2.2788449595	 0.118061
