25
gdb 57384	2.57681	1.3048	1.19715	0.2753	91.93	-0.2434	0.0763	0.3197	1239.5664	0.227965	-352.339295	-352.329463	-352.328519	-352.373255	39.117	
C	-0.1341056452	 1.556001339	 0.026530057	-0.407128
C	 0.009772643	 0.0195163318	 0.0291461783	 0.140932
C	 0.7935027796	-0.3895489213	 1.2898730948	-0.41962
C	-1.3906569984	-0.6258622261	 0.0709774124	-0.405036
C	 0.7167269071	-0.4376784125	-1.2419032603	 0.420672
C	 1.5994964151	-1.6546575724	-1.3489480392	-0.341402
C	 2.176473414	-0.3078968546	-1.7019351664	-0.117816
C	 1.7334827936	 0.0862646096	-3.1116063239	-0.219057
C	 0.2432416963	-0.0872889765	-2.6707613964	-0.303059
H	 0.8465297923	 2.0418272923	-0.0126995715	 0.110159
H	-0.7201348669	 1.9096224587	-0.8268839387	 0.110314
H	-0.6428480671	 1.8958653186	 0.9351287873	 0.105728
H	 0.314487818	 0.0269428544	 2.1822365516	 0.108086
H	 0.8283339591	-1.4757835023	 1.4138857036	 0.113311
H	 1.8227526013	-0.015066021	 1.2625635468	 0.111294
H	-1.9871442349	-0.3383500516	-0.801341285	 0.112167
H	-1.3185006909	-1.7184226931	 0.0828541299	 0.112104
H	-1.9388094295	-0.3130473752	 0.9666373632	 0.104599
H	 1.9537148796	-2.0766377412	-0.4157569592	 0.106729
H	 1.4247260594	-2.3941379485	-2.1291153274	 0.094706
H	 3.0323071416	 0.0929813324	-1.1703155864	 0.078749
H	 1.9671451839	 1.1231501827	-3.3646114477	 0.099416
H	 2.0877918007	-0.5577644758	-3.9240029079	 0.091788
H	-0.3314458596	-0.8680970457	-3.1802041371	 0.091207
H	-0.3169402022	 0.8472669085	-2.735561838	 0.101158
