21
gdb 73785	2.03417	1.73185	0.97871	3.6679	87.77	-0.2316	-0.039	0.1926	1243.9315	0.182416	-387.149923	-387.140535	-387.139591	-387.18421	34.927	
C	 0.4696771995	 1.4917435638	 0.0481781143	-0.481551
C	 0.199779502	 0.0144146064	-0.0357126875	 0.21885
C	-0.0986727538	-0.6123357144	-1.1955810924	 0.120644
C	-0.2425888699	 0.0980003654	-2.5228745195	-0.50723
C	-0.2766155239	-2.0921077095	-1.2335502129	 0.334979
O	-0.5662479074	-2.6760206315	-2.2619786682	-0.334552
C	-0.0357820529	-2.8655614873	 0.0558308831	-0.302293
C	-0.4305654633	-2.0569658474	 1.2904037442	-0.227364
C	 0.2986063674	-0.7135110634	 1.2857092597	-0.282617
H	 1.3897093785	 1.6777284054	 0.6164899114	 0.130738
H	 0.5678766058	 1.9664791534	-0.9281718381	 0.131994
H	-0.3357130905	 1.9990370351	 0.5962189308	 0.134723
H	 0.7200814345	 0.4728769076	-2.8899975914	 0.124596
H	-0.6288639974	-0.6047727812	-3.2619631303	 0.1538
H	-0.9246232655	 0.951105058	-2.4601031758	 0.120683
H	-0.5690285908	-3.8164910565	-0.0183237103	 0.119321
H	 1.0375640181	-3.1035627213	 0.0965170276	 0.118291
H	-1.5132297153	-1.8800235769	 1.2788126561	 0.107844
H	-0.2087057627	-2.6119317762	 2.2077786249	 0.099591
H	 1.3641612831	-0.8633849422	 1.5230696651	 0.114512
H	-0.0849040954	-0.0626526074	 2.0815252093	 0.105039
