17
gdb 7253	4.18582	1.18828	1.0056	1.993	66.95	-0.2865	-0.0263	0.2603	1170.088	0.13967	-401.03455	-401.025445	-401.024501	-401.06892	31.659	
C	-0.1210623202	 0.9175666435	-0.706898595	-0.400328
C	-0.0011362083	-0.253634599	 0.2893751019	-0.037695
C	 0.6410699364	 0.180572591	 1.6084177951	-0.384148
C	-1.3490058081	-0.8970121345	 0.502793388	 0.406234
N	-1.9855166552	-0.8734856968	 1.5906912368	-0.485579
O	-1.7690539155	-1.5475634081	-0.6640690434	-0.204903
C	-3.0775272679	-1.4701070706	-1.0371084348	 0.153484
O	-3.5182467082	-2.115518662	-1.9351695577	-0.250776
H	 0.8685746684	 1.336548834	-0.9088849058	 0.12631
H	-0.5525948402	 0.5947392585	-1.657602955	 0.131476
H	-0.7466499703	 1.7152804815	-0.292603778	 0.12673
H	 0.6230153979	-1.0241084047	-0.1832651875	 0.109998
H	 0.035660124	 0.9440416457	 2.1038946922	 0.134117
H	 0.7393576649	-0.6602404632	 2.2990511976	 0.127857
H	 1.6357989551	 0.5947439887	 1.4189032754	 0.111113
H	-2.8583772341	-1.3995362091	 1.560018113	 0.232701
H	-3.6450130985	-0.7363174551	-0.439634083	 0.10341
