16
gdb 131479	3.95479	1.18294	1.01232	5.407	71.58	-0.2357	0.0045	0.2402	1148.176	0.126374	-434.046828	-434.039351	-434.038406	-434.07913	28.544	
O	-0.4538171038	 0.3767949829	 1.9503523738	-0.418437
C	-0.0578854949	-0.0850533342	 0.6885434799	 0.094132
C	-0.6501408571	-1.3803888296	 0.2549093434	-0.31446
C	-1.0672297537	-0.0933637353	-0.4538311142	-0.170408
C	-2.4159397006	 0.4664423569	-0.2907043549	 0.368514
C	-3.3157838822	 0.9871469003	-1.1973476126	-0.171022
N	-4.4427360809	 1.3749383967	-0.5384489083	-0.189592
N	-4.3003687366	 1.1279069784	 0.7313523657	-0.118394
N	-3.0806141654	 0.5746067891	 0.8890261659	-0.257961
H	-0.3663011965	 1.3370227958	 1.9582452283	 0.300058
H	 0.9804164519	 0.1207345849	 0.4350493697	 0.107335
H	-0.0308987409	-2.0871894405	-0.2847298417	 0.130201
H	-1.3807592325	-1.8266118544	 0.9207226401	 0.135301
H	-0.660681964	 0.0558697162	-1.4484081288	 0.106448
H	-3.2155631178	 1.0968974207	-2.2651869879	 0.117568
H	-2.7242595749	 0.3513314522	 1.8058945617	 0.280715
