18
gdb 70546	2.77639	1.62454	1.20828	4.4454	73.79	-0.2401	0.0478	0.288	1058.1117	0.148054	-439.089962	-439.081966	-439.081022	-439.122472	31.007	
C	-0.0361742303	 1.4635966048	-0.08483421	-0.45384
C	 0.0305459444	-0.0293930254	 0.0824390824	 0.433978
C	-0.8357165266	-0.7515146837	 1.0811957658	-0.355431
C	 0.6728979985	-0.6912970827	 1.2585945117	-0.101942
C	 1.4821847421	-1.9112536154	 0.8987330202	-0.109281
O	 0.8841223292	-2.6224257458	-0.1934373667	-0.262726
C	 0.5324097141	-1.9362718675	-1.3176911785	 0.441726
N	 0.4210469736	-2.4759410734	-2.452576874	-0.547636
O	 0.2699820775	-0.6189277167	-1.1887001655	-0.270825
H	 0.9003684856	 1.8476305717	-0.5005424736	 0.132661
H	-0.8492646177	 1.7365586362	-0.7640683886	 0.139698
H	-0.212681624	 1.944983549	 0.8804638906	 0.120195
H	-1.4522646371	-0.1468526155	 1.7367150827	 0.120929
H	-1.2713893019	-1.7018478373	 0.7946226813	 0.141889
H	 1.0883093993	-0.0725969803	 2.0481804619	 0.098753
H	 2.5087235446	-1.6257160428	 0.6305305628	 0.119241
H	 1.52958794	-2.6372711578	 1.7147474929	 0.127146
H	 0.7176471687	-3.4478325574	-2.3929048454	 0.225465
