21
gdb 78043	2.75055	1.24274	1.10417	3.3034	84.19	-0.2329	-0.0077	0.2252	1237.0394	0.180616	-387.09452	-387.085066	-387.084121	-387.128147	36.048	
C	-0.0583099725	 1.5035902187	 0.0796884793	-0.407952
C	-0.0096756608	-0.0182546558	-0.0550493354	-0.141722
C	 0.7883448949	-0.5524723466	-1.2592282153	-0.088897
C	 1.8641128093	-1.1845491377	-0.3188504371	-0.221736
C	 1.1026772096	-0.6314819114	 0.8442000405	 0.408546
O	 1.3548342182	-0.4989031884	 2.0104984725	-0.333744
C	 0.9677982028	-2.0338775414	-1.2292537678	 0.303149
C	-0.0674116801	-2.996059389	-0.6698497384	-0.460389
C	 1.7188461297	-2.6078047495	-2.422889266	-0.45168
H	 0.9328552515	 1.9467282286	-0.0640717618	 0.121153
H	-0.7365223325	 1.9409861316	-0.6598536107	 0.116825
H	-0.408266289	 1.782908563	 1.0771929	 0.136638
H	-1.0132634174	-0.4376076903	 0.0674538146	 0.089404
H	 0.9925696859	 0.0318661688	-2.1490643882	 0.094598
H	 2.9433894294	-1.2354076665	-0.4068972215	 0.101199
H	-0.5799287475	-2.6106212656	 0.2130318375	 0.130455
H	-0.8260681386	-3.2252838291	-1.4273241161	 0.117662
H	 0.4109271029	-3.9396546645	-0.3857343302	 0.123043
H	 2.2457420733	-3.5279745345	-2.1486553512	 0.12378
H	 1.0206370339	-2.8521826	-3.2312556363	 0.121661
H	 2.4554205569	-1.9006642005	-2.8158590185	 0.118008
