21
gdb 91464	2.48064	1.62098	1.20299	0.691	88.74	-0.2518	0.0483	0.3001	1113.5709	0.183418	-349.922437	-349.914133	-349.913189	-349.954732	33.843	
C	-0.1411252404	 1.5151528524	 0.007854443	-0.421199
C	 0.0579656455	 0.0023562799	 0.0242020794	-0.008965
C	 1.0094273076	-0.5626846767	-1.0849200501	-0.232128
C	 2.0167981784	-1.3245962638	-0.20385056	-0.045971
C	 1.0852172562	-2.0297733858	 0.8203942441	-0.263863
C	 0.8030156949	-0.5579239273	 1.2768216076	 0.266634
C	 2.3072062892	-0.2941617542	 0.9206973374	-0.26301
C	 0.2508074144	-0.2506839122	 2.5711487269	 0.069433
C	-0.2166314787	 0.0083048528	 3.6495937566	-0.357555
H	 0.8118644468	 2.052512636	 0.0564921682	 0.113512
H	-0.6475044831	 1.826992995	-0.9117660187	 0.112528
H	-0.7516487197	 1.8375256796	 0.8570520185	 0.126869
H	-0.925510753	-0.4767710303	-0.0341162275	 0.075718
H	 0.4893579309	-1.2177771203	-1.7898371547	 0.0956
H	 1.4867936513	 0.2377755023	-1.6595200992	 0.095436
H	 2.821329045	-1.8607919389	-0.7066230791	 0.062582
H	 0.2369140462	-2.6091351246	 0.4441416494	 0.092755
H	 1.6299396816	-2.5968330207	 1.5775980704	 0.104246
H	 2.9764084265	-0.67961076	 1.6921930134	 0.105429
H	 2.6002778111	 0.7207155358	 0.6402765705	 0.09564
H	-0.6254187406	 0.2344590007	 4.6028994338	 0.176309
