16
gdb 80115	2.74141	1.48412	1.25389	4.7682	74.69	-0.2547	-0.0174	0.2373	1026.8932	0.125303	-400.756373	-400.748765	-400.747821	-400.788252	29.621	
O	 0.0233170261	 1.373730797	-0.0727088273	-0.415546
C	-0.0248178601	-0.0045785396	 0.0068683603	 0.093379
C	-0.4171877183	-0.7533659397	 1.2568171035	-0.176377
C	-1.1429046827	 0.0470512833	 2.2821456372	-0.092519
C	-2.2991623957	 0.5345843659	 1.8199029143	-0.099239
C	-2.5930756883	 0.0847221803	 0.4060347712	-0.33473
C	-1.3614716982	-0.750296629	 0.0238204876	 0.125161
C	-1.5191996393	-1.9073496452	-0.8007864394	 0.197416
N	-1.6411715792	-2.8411051605	-1.4746941643	-0.348692
H	-0.3944862724	 1.7361350287	 0.7204952394	 0.290382
H	 0.7478054105	-0.4568106676	-0.6055956132	 0.133623
H	 0.1449618534	-1.636723037	 1.5372993274	 0.117355
H	-0.7361217049	 0.2215530071	 3.2711607746	 0.117268
H	-2.9705601947	 1.184475541	 2.3691303565	 0.115114
H	-3.5118463594	-0.5090258994	 0.3497497361	 0.139215
H	-2.7176636069	 0.9336394346	-0.2779172337	 0.138191
