16
gdb 25976	4.24648	1.02006	0.8988	3.5202	71.82	-0.221	0.0047	0.2257	1263.8749	0.125077	-437.951552	-437.943239	-437.942295	-437.985822	30.418	
N	 0.242065296	 0.1263700516	-0.9186953745	-0.512666
C	-0.2619555162	 0.2206699484	 0.3412721701	 0.39138
O	-0.0003184159	 1.1313651385	 1.1000654301	-0.356294
C	-1.2529551763	-0.8953253722	 0.734968376	-0.414929
C	-0.8926657879	-2.2791188418	 0.3220076979	 0.347462
C	-0.4741519636	-3.3801528767	 1.001233386	-0.263822
C	-0.276606755	-4.416703584	 0.0291515045	-0.165691
C	-0.5860524555	-3.8711986017	-1.1721388567	-0.024606
O	-0.9676246082	-2.5696853089	-1.0166690935	-0.1906
H	 0.8931660883	 0.8304030336	-1.2239150642	 0.260053
H	 0.0406961	-0.6598893047	-1.512508169	 0.270291
H	-1.3427845944	-0.8512996505	 1.8206693553	 0.147461
H	-2.229208237	-0.620628977	 0.3139860131	 0.141783
H	-0.3244870863	-3.4473571938	 2.0673829881	 0.117089
H	 0.048357938	-5.4293344834	 0.2089002865	 0.116607
H	-0.600216296	-4.2439449673	-2.1827051396	 0.136481
