16
gdb 62225	2.67382	0.91357	0.86174	3.5662	65.81	-0.2769	-0.0448	0.2321	1382.8077	0.121487	-475.017879	-475.008255	-475.007311	-475.054594	32.696	
O	 0.8842275062	 1.7514116686	 0.0124778869	-0.431537
C	 0.3674454479	 0.6363331767	-0.6568470753	 0.021862
C	 1.4896687848	 0.0254767149	-1.5266511639	-0.117671
O	 1.0648017236	-1.111173181	-2.2719044396	-0.231184
C	 0.6812050259	-0.872842098	-3.602165182	-0.200273
C	-0.661167902	-0.2710101208	-3.7355977749	 0.263122
N	-1.7131240481	 0.198112059	-3.8279579299	-0.302186
C	-0.1606783224	-0.383613683	 0.3334685017	 0.142647
O	-0.1194921876	-0.1745149781	 1.522784076	-0.262084
H	 0.744825406	 1.5734416933	 0.9572500926	 0.298964
H	-0.4747741392	 0.919957238	-1.3092411138	 0.125072
H	 1.8860588396	 0.8102150903	-2.183032161	 0.124313
H	 2.301677653	-0.3091701523	-0.8735258397	 0.131669
H	 1.4031308941	-0.2280608868	-4.1242853299	 0.15035
H	 0.673214086	-1.8434791769	-4.1078987645	 0.167923
H	-0.5760532079	-1.3174311038	-0.0875332129	 0.119012
