20
gdb 6990	2.42257	2.20947	1.57773	1.9488	70.2	-0.2448	0.0707	0.3155	922.9974	0.176235	-386.153302	-386.144538	-386.143593	-386.18651	33.08	
C	-0.4503767233	 1.4084286055	-0.008306641	-0.425519
C	 0.0861837018	-0.0097240304	 0.0120087823	 0.129914
O	 1.0718646633	-0.1645755691	-0.9968656464	-0.263291
C	 1.6920007708	-1.4277778387	-0.77096096	-0.072847
C	 1.633874277	-1.6795281817	 0.7553529529	-0.299327
C	 0.7894150194	-0.4927680655	 1.3048221245	 0.379969
C	 1.6767895121	 0.5780928389	 1.9408448419	-0.448796
O	-0.2354591135	-0.9006338006	 2.2047337414	-0.478394
H	 0.3568699743	 2.139995946	 0.0813655465	 0.121238
H	-0.9778146944	 1.5995904133	-0.9466629345	 0.122284
H	-1.1530896647	 1.5491757831	 0.8181379792	 0.127668
H	-0.7479677948	-0.7136636231	-0.1572000729	 0.068775
H	 1.1543123578	-2.2163174452	-1.3183401788	 0.093046
H	 2.7090329154	-1.3738849314	-1.168662093	 0.104569
H	 1.1196944187	-2.6148373217	 0.9880509972	 0.108799
H	 2.6289893427	-1.7180294804	 1.2065401762	 0.097402
H	 2.3961388868	 0.9649179265	 1.2128217187	 0.131729
H	 1.0787409881	 1.4105348251	 2.3207609784	 0.12328
H	 2.2461751548	 0.1540508103	 2.7770759368	 0.102824
H	 0.1686935678	-1.0764545309	 3.0603172605	 0.276676
