17
gdb 2108	4.65835	2.37045	1.71484	1.8636	59.82	-0.2568	0.0839	0.3408	752.9165	0.150133	-346.859945	-346.853304	-346.85236	-346.890219	25.234	
C	-0.0264182433	 1.5379299814	 0.0106418993	-0.41019
C	 0.0173107396	 0.0099477164	 0.0022942565	 0.007942
C	 0.7253532077	-0.5413039491	-1.2424898761	-0.082284
O	 0.8402698444	-1.956314388	-1.1805151868	-0.235763
C	 1.5125378124	-2.356523063	-0.016927148	 0.016247
O	 0.8505543524	-1.9687961516	 1.1567398383	-0.235763
C	 0.7362615128	-0.5545323891	 1.2348357639	-0.082285
H	 0.9829141895	 1.965894557	 0.0084099466	 0.117626
H	-0.5526327508	 1.9235141777	-0.8687106936	 0.120039
H	-0.544724465	 1.9140847834	 0.8987328463	 0.120038
H	-1.0042455668	-0.3896086007	 0.0046596027	 0.090283
H	 0.1701525142	-0.3118435719	-2.1565466908	 0.110068
H	 1.7286253073	-0.0861994049	-1.3304953235	 0.083404
H	 1.5439780658	-3.4477642656	-0.0228928746	 0.116666
H	 2.5408506169	-1.9423917429	-0.019240089	 0.070501
H	 1.7402932839	-0.1003517937	 1.3188599283	 0.083405
H	 0.1891431588	-0.3348726056	 2.1561449705	 0.110068
