19
gdb 66099	2.5583	1.49554	1.31841	1.2922	79.77	-0.2549	0.0479	0.3028	1067.3044	0.158563	-385.856451	-385.847981	-385.847037	-385.889073	33.285	
C	 0.0160951581	 1.5269535465	 0.0202502384	-0.441397
C	-0.0016134522	-0.0121746472	-0.0145005301	 0.073435
C	 0.8217616648	-0.5878104813	-1.2160420177	-0.250728
C	 1.3856193502	-1.9448388949	-0.7404375816	-0.249822
C	 1.5333218813	-1.7650632053	 0.7562735851	 0.056583
O	 2.1374160139	-0.5108926467	 1.1280910957	-0.272887
C	 0.714696509	-0.6330818557	 1.1941389573	 0.030824
C	-1.3761190347	-0.5165365329	-0.0338157102	 0.331588
C	-2.5031356602	-0.9366460692	-0.033806137	-0.49698
H	 1.0463794526	 1.8768797229	 0.1302977175	 0.1328
H	-0.4007866748	 1.9405893636	-0.9023788731	 0.123731
H	-0.5753467712	 1.9070972204	 0.8580389585	 0.122373
H	 0.210765032	-0.6725524514	-2.1160682007	 0.109278
H	 1.643315496	 0.1001814008	-1.426507595	 0.116335
H	 0.6774920626	-2.7603943817	-0.9281945445	 0.114959
H	 2.3273132484	-2.2015299885	-1.2349851764	 0.109948
H	 1.7722127105	-2.6028995566	 1.4058167605	 0.095017
H	 0.2706501578	-0.5515883061	 2.182886084	 0.099278
H	-3.4998479941	-1.3028208567	-0.0386137809	 0.195664
