20
gdb 74907	2.67822	1.53878	1.08426	1.8351	81.71	-0.2175	0.0328	0.2503	1158.626	0.172181	-403.150163	-403.141806	-403.140862	-403.183198	32.227	
C	-0.2556215963	 1.5654229265	 0.206153766	-0.433624
C	-0.0322389066	 0.1114514912	-0.1250094524	 0.373913
N	-0.8917315449	-0.7530408024	 0.2153928914	-0.297354
C	-0.9079914047	-2.1568304506	-0.0275725378	 0.023957
C	-1.6018395138	-2.7013328295	-1.2545165238	-0.298261
C	-0.1164077606	-2.9133777667	-1.0764854738	-0.041358
C	 0.9004814281	-2.175555208	-1.9264092099	-0.24615
C	 1.7704874871	-1.2489509842	-1.084364465	-0.063661
O	 1.1480865524	 0.0075547861	-0.8027706874	-0.259533
H	 0.5551511377	 1.9392651145	 0.8397942352	 0.131893
H	-0.2483284414	 2.1655120805	-0.7095757016	 0.132811
H	-1.2097019832	 1.6842099499	 0.7166524175	 0.139
H	-1.1199980288	-2.7041524882	 0.8877877809	 0.094759
H	-2.2783510262	-3.5415291876	-1.1433485054	 0.109804
H	-1.9064679948	-1.973018413	-1.9997051401	 0.114805
H	 0.1909014919	-3.912674633	-0.7784473507	 0.082649
H	 1.54747303	-2.8944592009	-2.4414522875	 0.105433
H	 0.4205330664	-1.5764712595	-2.7085986293	 0.112135
H	 2.0549278278	-1.7373891937	-0.1430933791	 0.108729
H	 2.68639344	-0.9733048015	-1.6153116971	 0.110054
