16
gdb 110162	2.65011	1.20161	0.90593	2.8477	72.26	-0.2519	-0.0154	0.2365	1265.7667	0.124213	-434.052959	-434.044183	-434.043239	-434.087016	31.147	
C	 0.189850566	 1.3857988765	-0.1403104595	-0.33015
N	-0.1531168793	 0.0184683423	 0.2644138481	-0.299811
C	 0.7219906171	-0.5018163223	 1.2906514672	-0.13833
C	 0.5620930773	-2.027664503	 1.5550826394	-0.033504
O	 1.9379583789	-2.2549520643	 1.1283945979	-0.250262
C	 2.1083494513	-0.9150614328	 0.8153321214	 0.479101
N	 3.0805444633	-0.3150951843	 0.3104503644	-0.535678
C	 0.3234435732	-2.4553303645	 2.9278760976	 0.28448
N	 0.1067917303	-2.7771850552	 4.0159693702	-0.308512
H	 1.1964414897	 1.3914428379	-0.5639606676	 0.168707
H	-0.5141305872	 1.7123034196	-0.9097343801	 0.126465
H	 0.1648703159	 2.1116849273	 0.6894922046	 0.104907
H	-1.107269782	 0.0012380942	 0.6129547468	 0.230102
H	 0.7642824659	 0.0908365621	 2.2191277254	 0.113037
H	-0.1385111178	-2.5094519868	 0.8684887974	 0.148441
H	 3.8552607675	-0.9454808366	 0.097537867	 0.241004
