16
gdb 33960	3.39927	1.43366	1.25146	2.8743	73.36	-0.2442	0.0022	0.2465	1009.3584	0.126878	-396.889033	-396.882075	-396.881131	-396.920309	27.615	
N	 0.0245593739	-1.1220359049	-0.0981901593	-0.335603
C	 0.0349837496	 0.0308694055	-0.0019582594	 0.183857
C	 0.0333727437	 1.4616587569	 0.1051374077	 0.223905
N	 0.3157942156	 2.2824084326	-1.102439433	-0.362612
C	 1.291682136	 2.2727301984	-0.0086459398	-0.089802
C	 1.1548953092	 3.4369410724	 0.9667525975	-0.171915
N	-0.1551075587	 3.3328721544	 1.648552872	-0.105098
C	-1.354622135	 3.4995004977	 0.8132926503	-0.245227
C	-0.8542898696	 2.1388343971	 1.1333821781	-0.096472
H	 0.6278697737	 1.6789198347	-1.8608842539	 0.253357
H	 2.2564621866	 1.7986552849	-0.162209901	 0.11928
H	 1.9372619154	 3.3617457078	 1.7290346821	 0.123222
H	 1.2568814775	 4.405479175	 0.4679411831	 0.127274
H	-2.2146479303	 3.8925372949	 1.3483134565	 0.119657
H	-1.2407411692	 3.8373489999	-0.2110744779	 0.146084
H	-1.3476171184	 1.4914140027	 1.851249227	 0.110092
