15
gdb 33733	3.42139	1.57213	1.3298	3.1325	70.74	-0.2501	0.0082	0.2584	952.4308	0.111992	-420.519529	-420.512745	-420.511801	-420.550519	27.674	
C	 0.0706357388	-1.173587097	-0.0475772595	-0.322311
C	 0.0564047809	 0.027498836	-0.0117780537	 0.050999
C	-0.0050052424	 1.4611537904	 0.038880701	 0.320687
C	-0.3077968903	 2.2882795838	 1.3354768422	-0.275452
C	 0.5077446614	 3.3002368633	 0.487926244	-0.002414
O	 1.2614484944	 2.1832268911	-0.0498242744	-0.287719
C	-0.4959591619	 3.6062259155	-0.6621442424	 0.022564
O	-0.1180371639	 3.0226747397	-1.9112750667	-0.218714
C	-0.8847797609	 2.2406615429	-1.0034961703	-0.034578
H	 0.095140684	-2.2349199482	-0.0844432504	 0.192486
H	-1.3509725941	 2.5107324914	 1.5764821622	 0.104746
H	 0.2414885823	 1.9115372903	 2.1987845596	 0.127158
H	 1.1191088931	 4.0967338235	 0.9067452886	 0.096965
H	-1.1375567948	 4.4797431203	-0.6834313462	 0.109944
H	-1.8592980067	 1.8888987871	-1.3210670438	 0.115638
