15
gdb 25034	4.08536	1.12993	0.94538	3.9567	69.74	-0.2138	0.0111	0.2249	1191.4625	0.114403	-453.970415	-453.962856	-453.961912	-454.002976	28.145	
O	 0.1125258734	 0.0426375605	 0.2877240552	-0.394507
C	-0.0068065982	 1.2284379733	 0.1580210875	 0.481031
N	-1.1070241474	 1.9857144719	-0.1665134619	-0.364413
C	-0.7703015536	 3.3406689339	-0.2108409927	-0.225151
C	 0.532925247	 3.4209930703	 0.0972532969	 0.382732
O	 1.0235464101	 2.1452608749	 0.3234660649	-0.257331
C	 1.4668699669	 4.5409313694	 0.2114399359	-0.105451
C	 2.6216068098	 4.4726023936	 1.1516056478	-0.24063
N	 2.849156172	 4.4156505923	-0.2984320619	-0.32251
H	-2.0051984917	 1.5746898368	-0.3476842919	 0.280211
H	-1.4812681523	 4.1109305238	-0.4531668693	 0.155649
H	 1.0072295077	 5.5053048505	 0.0129552078	 0.101537
H	 2.9646941408	 5.382149067	 1.6362021741	 0.125511
H	 2.7383127243	 3.5632549295	 1.7331265654	 0.13547
H	 3.0130196713	 3.4493788325	-0.5744137677	 0.24785
