19
gdb 94991	2.88433	1.80702	1.38442	2.3787	74.28	-0.2277	0.0782	0.3059	980.8495	0.160582	-422.984792	-422.977483	-422.976539	-423.016238	29.488	
C	 0.0532924013	 1.523593562	-0.0131968092	-0.405452
C	-0.0218672497	 0.0030281842	 0.0042682655	 0.126555
O	 0.5413007253	-0.4330130135	-1.2241663685	-0.257196
C	 0.7320726961	-1.8268290139	-1.3819207155	-0.093087
C	 1.269635518	-2.5413649925	-0.155946594	-0.080284
C	 2.2240222477	-1.9684557547	 0.8654316159	 0.095019
O	 2.1800447442	-0.5453663964	 0.9472725216	-0.291968
C	 0.7403847275	-0.6069982455	 1.1823741408	 0.086427
C	 0.7673138002	-2.1425642302	 1.2103842383	-0.187952
H	 1.0997708168	 1.8403822297	-0.0130858375	 0.141953
H	-0.4280676647	 1.9142109038	-0.9132900986	 0.123363
H	-0.4468611034	 1.9463486274	 0.8635369783	 0.108471
H	-1.0751187228	-0.3244996804	 0.0850182317	 0.061564
H	-0.2199918935	-2.3129903223	-1.6612720861	 0.085445
H	 1.4161119215	-1.9315544354	-2.2312253746	 0.111922
H	 1.383464923	-3.6152122723	-0.2890483198	 0.092955
H	 3.1222177529	-2.4642924731	 1.2149608168	 0.105541
H	 0.4796181344	-0.1292968192	 2.1316684409	 0.082032
H	 0.2577062954	-2.7863905875	 1.9141211139	 0.094691
