19
gdb 74790	2.75358	1.69056	1.46884	1.7532	79.81	-0.2237	0.0049	0.2286	994.1043	0.16107	-385.900841	-385.893415	-385.89247	-385.932338	30.07	
C	-0.0432527952	 1.5021325699	 0.0437460198	-0.503568
C	-0.0515920603	 0.0106514078	-0.020912655	 0.340699
C	-0.0546197834	-0.7982975372	-1.0797104412	-0.199066
C	 0.0536779863	-2.2324476543	-0.5616314382	-0.020387
O	-0.5184750405	-2.1246108014	 0.7470749185	-0.252324
C	 0.0260257272	-0.8895289397	 1.2144377621	-0.024965
C	 1.4948486415	-1.1555329161	 1.6328819044	-0.265649
C	 2.1839992144	-2.0627160497	 0.6333276443	-0.055356
C	 1.5275625716	-2.5837398211	-0.4033030036	-0.051179
H	 0.8599120495	 1.8787313272	 0.5409078606	 0.128524
H	-0.0840043849	 1.9462265559	-0.9543868144	 0.127794
H	-0.8964781402	 1.8808258709	 0.6209699555	 0.128486
H	-0.0287247244	-0.518629326	-2.1252470098	 0.098468
H	-0.5065046132	-2.9820021936	-1.1257088712	 0.079633
H	-0.5748601654	-0.5404966516	 2.059961674	 0.074755
H	 2.0492894231	-0.2123080691	 1.7338755781	 0.103482
H	 1.5105319006	-1.6237445288	 2.6258884849	 0.114653
H	 3.2387746918	-2.2707522464	 0.7937611323	 0.088432
H	 2.0121737712	-3.2153341066	-1.1412023412	 0.087567
