17
gdb 19950	3.74897	1.70682	1.2755	3.4207	70.23	-0.2372	0.0356	0.2728	965.272	0.14294	-363.869335	-363.861756	-363.860812	-363.902076	27.683	
O	-0.0937082904	 0.0251904292	 0.7607027978	-0.372932
C	-0.0789171533	 1.1637570986	 0.3725947283	 0.409557
C	-1.1333856812	 2.2299792362	-0.0060183125	-0.369993
C	 0.0782177413	 3.149201188	-0.3223694075	-0.16833
N	 0.9502436211	 2.0340796622	 0.0697355395	-0.074503
C	 2.3664226065	 1.9361562744	 0.1257882377	 0.025079
C	 3.0010962874	 0.6031386938	-0.162302102	-0.263797
C	 3.1478028309	 1.7260549795	-1.1554748862	-0.27405
H	-1.7583649662	 1.9612296385	-0.8593775016	 0.131616
H	-1.7654038546	 2.5484131891	 0.8246663747	 0.132622
H	 0.1849535036	 3.4466739567	-1.3710151975	 0.111225
H	 0.1765111227	 4.033570535	 0.3166629266	 0.110393
H	 2.8321702605	 2.5577647149	 0.8884736111	 0.096543
H	 3.860475782	 0.3241307822	 0.4360647326	 0.120886
H	 2.332683285	-0.2137870041	-0.4008238644	 0.150827
H	 2.5782742954	 1.6623867884	-2.0757455213	 0.118544
H	 4.1084524593	 2.2200606275	-1.2480980251	 0.116313
