15
gdb 16685	3.00922	2.28566	1.87571	3.8582	60.62	-0.2281	-0.0101	0.2181	759.9941	0.120153	-399.779328	-399.772755	-399.77181	-399.809897	25.741	
O	-0.0155066535	 1.4962838214	 0.0824251079	-0.427422
C	 0.018115826	 0.0991956264	-0.0134293477	 0.129408
C	-1.3431099445	-0.6168880432	-0.1797374509	-0.048415
C	-1.9802591572	 0.0901494414	-1.386737436	-0.313588
C	-0.7249088952	 0.0928003957	-2.2821161472	 0.484001
O	-0.564730464	 0.5473442503	-3.3791252319	-0.330551
C	 0.2806982715	-0.6256840409	-1.3765520085	-0.194842
N	-0.6176108752	-1.7463978263	-0.882447621	-0.331363
H	 0.8849825393	 1.8364618154	 0.0692433845	 0.29347
H	 0.6155770312	-0.3653889865	 0.7836235363	 0.077253
H	-1.9799654642	-0.8676238186	 0.6672241009	 0.082066
H	-2.7915491844	-0.4895466731	-1.8322040524	 0.133173
H	-2.3166623687	 1.1080524312	-1.1812177993	 0.139586
H	 1.2619344653	-0.863096759	-1.7826278002	 0.08375
H	-0.0900578464	-2.2651813643	-0.1779433544	 0.223474
