21
gdb 73708	2.65319	1.89834	1.32371	1.5205	81.7	-0.2505	0.0776	0.3281	1016.5669	0.185504	-387.060163	-387.052877	-387.051933	-387.091245	31.055	
O	-0.0284295079	 1.4205884387	 0.1116244267	-0.495873
C	 0.028670836	 0.0158024475	-0.0165752503	 0.484071
C	 1.0644727654	-0.5809245081	 0.9386474917	-0.295371
C	 1.4488128919	-2.0068920736	 0.5275412879	-0.203529
C	 0.1978323827	-2.7743266751	 0.0852683237	-0.244282
C	-0.704031575	-1.871269285	-0.7524942963	 0.021529
C	-1.3781421232	-0.6382803725	-0.0725062825	-0.089151
C	-1.5439431249	-0.0369850262	-1.4985360491	-0.246513
C	-0.0996755186	-0.6091780771	-1.4622558673	-0.146502
H	 0.8694642056	 1.7618569411	 0.0502627999	 0.273431
H	 1.9584431258	 0.0575971971	 0.9514021435	 0.078818
H	 0.6570625335	-0.5544796814	 1.9574169318	 0.105155
H	 2.1427048029	-1.9523053814	-0.3201184908	 0.099284
H	 1.9798464757	-2.5243468315	 1.3328607148	 0.090714
H	 0.4825981977	-3.6644976168	-0.4870411862	 0.093419
H	-0.3643612453	-3.1356495627	 0.9571924117	 0.095934
H	-1.3929755528	-2.4404879279	-1.383120324	 0.064114
H	-2.1124211019	-0.6563649525	 0.736458949	 0.062183
H	-2.2454410668	-0.5578660419	-2.1558702269	 0.08193
H	-1.641971732	 1.0443726527	-1.5647905802	 0.111438
H	 0.6391819412	-0.5922521932	-2.2670637872	 0.059199
