19
gdb 63209	2.81375	1.52539	1.29942	2.1827	75.59	-0.2421	0.0014	0.2436	1044.1813	0.159166	-423.013212	-423.004971	-423.004027	-423.04571	32.222	
C	-0.0078774203	 1.5783148362	-0.0773963189	-0.438214
C	 0.0070176809	 0.048478574	-0.0283886492	 0.331392
O	-1.347135754	-0.4334318082	 0.0526815803	-0.472803
C	 0.7346652333	-0.5928304967	-1.2008933981	-0.119585
C	 1.5654064503	-1.5690857367	-0.8372550618	-0.094344
C	 1.6042650031	-1.7359524592	 0.6571702242	 0.082296
O	 2.7979367032	-1.1780695183	 1.2714979237	-0.29796
C	 2.0737031227	 0.0017772452	 1.6788517718	-0.097937
C	 0.7269259628	-0.5752927544	 1.1840825871	-0.097336
H	 0.9994872958	 1.99989053	-0.1332059505	 0.123473
H	-0.5555669641	 1.9205214215	-0.9637455279	 0.105006
H	-0.512734786	 1.9811869538	 0.805461982	 0.125945
H	-1.7976331167	-0.1886995629	-0.7631409555	 0.273188
H	 0.5486704582	-0.2742760385	-2.2232112189	 0.092275
H	 2.1683019025	-2.1706983526	-1.5085329163	 0.105159
H	 1.4306137391	-2.7609567281	 1.0013339537	 0.082812
H	 2.1468198451	 0.1641080769	 2.7600513361	 0.104448
H	 2.4302261595	 0.9008594349	 1.1617814908	 0.098391
H	 0.0144975947	-0.8072408868	 1.9742157174	 0.093795
