12
gdb 48031	8.08516	0.56236	0.52747	0.6514	72.42	-0.2816	-0.1068	0.1748	1878.4009	0.073824	-435.472064	-435.462668	-435.461723	-435.508728	29.941	
O	-0.012209874	-0.1368925751	 0.0014843547	-0.219019
C	 0.0020626479	 1.0711031846	 0.0069555884	 0.022364
C	 1.2079372039	 1.8662402194	 0.0004150984	 0.081706
C	 2.1963424025	 2.5566409385	-0.0047672011	 0.083831
C	 3.3930876868	 3.373473977	-0.011419667	-0.480264
C	 3.1177570118	 4.876502511	-0.001483929	 0.307152
O	 2.0326905826	 5.3873103894	 0.0109644695	-0.232039
C	 4.3469760922	 5.6962355279	-0.0087685964	 0.224335
N	 5.3190799367	 6.3221064999	-0.0147308181	-0.284212
H	-0.9314670806	 1.6675184233	 0.0175308394	 0.113837
H	 4.0327838527	 3.1440022726	 0.8531027673	 0.191153
H	 4.0172184174	 3.1526145415	-0.8894494862	 0.191157
