19
gdb 41346	3.046	1.81604	1.52382	1.0687	73.53	-0.2438	0.0758	0.3195	921.0787	0.162807	-422.997128	-422.990646	-422.989702	-423.027611	27.528	
C	 0.0603703174	 1.483305992	 0.1102169445	-0.207034
O	 1.4887804096	 1.4244023648	-0.1747508817	-0.311386
C	 1.3053916737	 0.1094982537	-0.773531848	 0.149412
C	 2.1515941422	-1.120040772	-0.3923216863	-0.273063
C	 1.0574637753	-1.9297288772	 0.3566021254	 0.116477
C	 0.4380677441	-0.8482884392	 1.2376880635	-0.265867
C	-0.0167773283	-0.0426811487	-0.0006289856	 0.254657
C	-0.8805321522	-1.0850620336	-0.6844140702	-0.162305
O	-0.0216439428	-2.2525006264	-0.5607891525	-0.299554
H	-0.1486341292	 1.9398426031	 1.0823506427	 0.109458
H	-0.4776142173	 2.0261313866	-0.6789329114	 0.102253
H	 1.1846767063	 0.2185367276	-1.859171458	 0.07469
H	 2.5350542792	-1.6470922064	-1.2685281739	 0.107553
H	 2.9890228139	-0.8734554909	 0.2676848719	 0.112565
H	 1.3878876466	-2.8615134198	 0.8165166553	 0.077024
H	-0.3954725661	-1.2018333566	 1.8499470389	 0.101508
H	 1.1623794692	-0.3169047351	 1.8566331151	 0.114327
H	-1.8458505125	-1.2779899794	-0.1979549088	 0.095864
H	-1.0514406991	-0.8852316425	-1.7479874009	 0.10342
