15
gdb 44492	3.96008	1.66287	1.53438	4.7953	63.66	-0.2529	-0.0013	0.2515	863.7426	0.115599	-457.775232	-457.769437	-457.768493	-457.805309	24.091	
O	-0.019904346	 0.0434465187	-0.2272559983	-0.338675
C	 0.0018884253	 1.2099002404	 0.0132112081	 0.475495
O	-1.1326032198	 1.9761421577	 0.1867138079	-0.235704
C	-0.7046589723	 3.2757268029	 0.5497423046	 0.105318
C	 0.1218394951	 4.0598856305	-0.5350470312	 0.053609
C	 0.9878138269	 4.5975085216	 0.6232580628	-0.258542
C	 0.7050111445	 3.1923333423	 1.2085694417	-0.107643
C	 1.1609419316	 2.2055557263	 0.113548595	-0.077766
O	 0.944988161	 3.0193160626	-1.0780364978	-0.275455
H	-1.4959222889	 3.8107670777	 1.0681200693	 0.11075
H	-0.3071752807	 4.6612269685	-1.3327045778	 0.10001
H	 2.0144054039	 4.8689519892	 0.3758163228	 0.122056
H	 0.5009194467	 5.3817177772	 1.2071073914	 0.116153
H	 0.8551979256	 2.9110370559	 2.2488286337	 0.099105
H	 2.1589049372	 1.7756705485	 0.1250821279	 0.111287
