19
gdb 38254	3.20087	1.71507	1.41426	1.8292	73.65	-0.2488	0.0769	0.3257	955.2311	0.162449	-422.991707	-422.984956	-422.984012	-423.022764	27.875	
C	-0.0093495738	 1.693270416	 0.0417630171	-0.274973
C	 1.4747908551	 1.3024782899	-0.0408067148	 0.061923
C	 1.742731091	 0.7422878525	 1.3915199392	-0.284986
C	 0.556053066	-0.2570062283	 1.4125001561	-0.013808
C	-0.6818699092	-0.2671370204	 2.2930125882	-0.105505
O	-1.736376436	-0.7310258133	 1.4122727354	-0.28573
C	-1.3416579649	-0.6668868595	 0.0273439156	-0.186694
C	-0.0798013129	 0.1510797024	 0.0703834074	 0.418164
O	 1.066543402	 0.1187588342	-0.824506353	-0.348638
H	-0.366388666	 2.2740308453	 0.895590706	 0.100809
H	-0.3892817405	 2.0871314573	-0.9014136219	 0.111662
H	 2.2373355588	 1.9064739176	-0.5312022853	 0.08383
H	 2.7090625856	 0.2426306661	 1.4782429288	 0.109996
H	 1.6917857808	 1.5337228312	 2.1448673833	 0.106389
H	 0.9258018132	-1.2813553238	 1.3075650264	 0.091649
H	-0.6316879606	-0.9577797069	 3.1398903078	 0.106873
H	-0.9348413077	 0.7313095263	 2.6777341099	 0.093194
H	-1.1527356218	-1.6744761287	-0.3692936117	 0.109028
H	-2.1562380592	-0.2105364479	-0.5435722844	 0.106819
