17
gdb 53743	4.81512	0.63595	0.58821	2.8377	80.99	-0.2592	-0.0524	0.2068	1848.0915	0.133757	-421.790409	-421.780824	-421.77988	-421.827571	32.234	
C	 0.4283566921	 1.437736695	 0.0276931448	-0.477813
C	-0.0591359914	 0.006942161	 0.1321785267	 0.247871
O	-0.4473845819	-0.4844551403	 1.1704575135	-0.273924
C	-0.0338637879	-0.7528510352	-1.1050314504	 0.039878
C	-0.0193716195	-1.387440753	-2.1331797208	 0.076269
C	 0.0082929605	-2.1641513281	-3.3498712645	-0.225254
C	 1.2716969742	-2.105337264	-4.2570713521	-0.074044
O	 1.3538584843	-3.5398833006	-4.2958713561	-0.26391
C	 0.3513533136	-3.6801149871	-3.2729821255	-0.074258
H	 1.4607870007	 1.4575410051	-0.3378165339	 0.14607
H	-0.1780633888	 1.989464237	-0.6987629049	 0.146239
H	 0.3685080533	 1.9167978007	 1.0059611306	 0.144228
H	-0.9058762252	-1.9880845313	-3.9240339808	 0.124688
H	 1.1361524104	-1.6677107274	-5.2514101308	 0.11581
H	 2.1430207903	-1.6507535333	-3.7696049398	 0.112165
H	 0.7775152992	-3.9869267511	-2.3102783088	 0.118513
H	-0.4446949536	-4.3735284674	-3.5619307371	 0.11747
