23
gdb 60162	2.92247	1.01417	0.88012	2.5208	82.78	-0.2469	0.0736	0.3205	1443.8185	0.203732	-425.413386	-425.403293	-425.402349	-425.448917	38.065	
C	-0.1308938515	 1.2031889545	 0.243196122	-0.388381
C	 0.1216875829	-0.2224481098	-0.2531066083	 0.147989
C	-1.1431272831	-0.8732898425	-0.8017460294	-0.39478
O	 1.081617712	-0.2278578716	-1.3160017913	-0.284401
C	 2.4427281907	-0.1844960399	-0.9095470926	 0.111758
C	 2.9819919201	-1.5903209175	-0.5107456597	-0.267854
C	 3.3672443368	-1.8049448691	-2.0068462063	 0.1531
O	 2.3929015506	-2.4960857994	-2.7557549393	-0.442629
C	 3.3166555309	-0.2577641416	-2.1824456581	-0.262984
H	 0.7845193398	 1.6685986535	 0.6194493416	 0.118929
H	-0.520209408	 1.8225826212	-0.5709195621	 0.123868
H	-0.8616099486	 1.2011710539	 1.0582997939	 0.115049
H	 0.5059594564	-0.8320088456	 0.5790873597	 0.073404
H	-1.5114674965	-0.3128028264	-1.6669809198	 0.125676
H	-0.9438855979	-1.9011098295	-1.1180199352	 0.120474
H	-1.9303703638	-0.8916031402	-0.0422431074	 0.115816
H	 2.6188240919	 0.6446722173	-0.2141999051	 0.064445
H	 3.8595823607	-1.5204999671	 0.1390010856	 0.098426
H	 2.2711659098	-2.3035410334	-0.0858384967	 0.102064
H	 4.319428592	-2.3009675788	-2.2083444237	 0.078303
H	 1.5594887202	-2.0275118701	-2.6156676525	 0.282045
H	 2.8615840433	 0.1168570866	-3.1020275235	 0.108691
H	 4.2920711512	 0.2127681555	-2.0328078217	 0.10099
