20
gdb 104747	2.18621	1.20789	1.0193	3.5715	80.62	-0.2629	0.0301	0.2931	1292.823	0.168877	-403.147512	-403.137465	-403.136521	-403.182604	36.222	
C	-0.2330810959	 1.4767209796	-0.8765890916	-0.382006
C	-0.0583477588	 0.1734272458	-0.0889717145	-0.264471
C	-1.3852851881	-0.5009320296	 0.2027395238	 0.441965
C	-2.0171489545	-1.3860140141	-0.8155619699	-0.3301
C	-1.4495071636	-2.0169284675	 0.4572238756	-0.261453
C	-0.2737921684	-2.8336626799	 0.4017141241	 0.293116
N	 0.6857650679	-3.480217566	 0.3588382298	-0.350121
O	-2.3141136507	 0.2416476285	 0.9321836073	-0.280184
C	-1.9413284614	 0.5274643573	 2.2712323784	-0.257572
H	 0.7341259444	 1.9558733228	-1.0515377347	 0.11798
H	-0.6985154226	 1.2891356998	-1.8496455966	 0.121394
H	-0.8717277465	 2.1804253917	-0.3356004294	 0.129941
H	 0.5760173535	-0.5256487544	-0.6425900804	 0.125712
H	 0.4684089689	 0.3689719885	 0.8524913592	 0.110054
H	-3.0975391532	-1.366926503	-0.8907972306	 0.138298
H	-1.4840685921	-1.5672321769	-1.7413807864	 0.138493
H	-2.1829787002	-2.326413649	 1.1936504344	 0.136914
H	-1.6842295093	-0.3878692483	 2.8217645176	 0.115903
H	-1.0931219797	 1.2213491597	 2.3276698821	 0.121052
H	-2.8086348897	 0.9956320551	 2.741127042	 0.135085
