16
gdb 22648	3.09772	1.07027	1.01824	2.8424	72.07	-0.2518	-0.0105	0.2413	1208.2825	0.125234	-434.037064	-434.028741	-434.027796	-434.070511	30.683	
O	-0.1608518325	 1.2998079576	 0.2029249211	-0.391134
N	-0.0119088856	-0.0956480746	 0.1878868252	-0.216454
C	-1.122082746	-0.6657936739	-0.04484516	 0.418806
C	-2.4760291554	-0.0256571282	-0.2438573315	-0.258718
N	-3.3335841754	-1.1705780602	-0.5869513557	-0.303766
C	-2.784131504	-2.3587528564	 0.0734653767	-0.142048
C	-1.2615577508	-2.1683034697	-0.11882455	-0.294049
C	-3.1444999215	-2.4514376393	 1.5071554931	 0.262514
N	-3.4693751973	-2.4924756342	 2.6162693035	-0.320545
H	 0.7311985293	 1.6012036929	 0.405968444	 0.311762
H	-2.7655523894	 0.5001012183	 0.6798146195	 0.13519
H	-2.4646804875	 0.7142439554	-1.0504040254	 0.140423
H	-4.3077555929	-1.0158178847	-0.357111457	 0.240029
H	-3.1465331651	-3.2662675779	-0.4186372901	 0.130475
H	-0.9910892923	-2.5296312266	-1.1164932697	 0.14
H	-0.6539554037	-2.6924234384	 0.6187983063	 0.147515
