17
gdb 26682	2.27188	1.6045	0.95452	0.3562	73.75	-0.1722	0.0416	0.2138	1196.3807	0.134871	-455.164484	-455.154582	-455.153638	-455.198862	35.645	
C	 0.0392770272	 1.5513371191	 0.0889382233	-0.514425
C	 0.0526613438	 0.058680366	 0.0356584028	 0.160882
C	 0.0256006262	-0.7272379046	-1.0727619172	 0.168647
N	-0.0292629717	-0.4063976055	-2.429065145	-0.59304
O	 0.0435829274	-2.0697069631	-0.7032093546	-0.199946
C	 0.0812714341	-2.1112858428	 0.6509734397	 0.289009
N	 0.1826418812	-3.3634043303	 1.2505193736	-0.601301
C	 0.0819981907	-0.8473729035	 1.1563619366	 0.07931
O	 0.0288094326	-0.541646714	 2.4985447304	-0.453894
H	 0.9409483007	 1.9509511953	 0.5706282907	 0.112101
H	-0.0120980099	 1.9629721905	-0.9214200106	 0.141818
H	-0.818128498	 1.9237776666	 0.6613940011	 0.128758
H	-0.9009613377	-0.6929527022	-2.8651820417	 0.24071
H	 0.7312176331	-0.8244004931	-2.9566317238	 0.241657
H	-0.5278523832	-4.0111001371	 0.9255484613	 0.24859
H	 0.1152182416	-3.2666475924	 2.2567925833	 0.255931
H	 0.7956873818	-0.0054626189	 2.7267851302	 0.295193
