18
gdb 102233	2.81909	0.90322	0.78655	4.8995	72.76	-0.2649	-0.0287	0.2362	1493.5738	0.144554	-439.117789	-439.107362	-439.106417	-439.154704	35.634	
C	 0.0070388688	 1.4857333017	-0.209667703	-0.477767
C	 0.1016688604	 0.002603937	 0.0820290918	 0.393557
O	 1.1363140349	-0.5342417194	 0.3991309684	-0.284891
C	-1.202871431	-0.7890933995	-0.0330811043	-0.333674
C	-0.9882844108	-2.311024335	-0.0314377446	-0.138432
C	-2.3001961017	-3.087444791	 0.2394407327	-0.076114
O	-2.1089745607	-4.4801435478	 0.2780644708	-0.413925
C	-0.4240688583	-2.7698835123	-1.3041654207	 0.264867
N	-0.044535321	-3.1706206517	-2.320232747	-0.329409
H	 0.938503273	 1.9799338224	 0.0676321293	 0.15181
H	-0.1755923038	 1.6347531011	-1.2806064043	 0.153426
H	-0.8354882822	 1.9397049164	 0.322999393	 0.137787
H	-1.8246120696	-0.5131823261	 0.8304131065	 0.136208
H	-1.7595967731	-0.464006156	-0.9189511619	 0.135728
H	-0.2655803975	-2.5598541612	 0.7522847484	 0.156218
H	-2.6706675666	-2.7976365766	 1.2278714422	 0.120944
H	-3.0580618227	-2.7934222934	-0.5029240323	 0.103593
H	-1.8449356583	-4.7730859587	-0.6020196449	 0.300077
