20
gdb 119118	2.34978	1.15192	0.92251	2.074	75.45	-0.2456	0.0174	0.263	1364.5997	0.169399	-440.310195	-440.300191	-440.299247	-440.345673	36.396	
C	-0.0525684828	 1.6061253737	-0.225095567	-0.383465
C	-0.0598863241	 0.0791736712	-0.3263934005	-0.171867
C	-1.3271675882	-0.5439420625	 0.2757433022	-0.26073
C	-1.3599917327	-2.0500906563	 0.1519045197	 0.308662
C	-2.6076596398	-2.7655925852	-0.1776151531	-0.216705
O	-1.5899325218	-2.5885627005	-1.1654801523	-0.287043
C	-0.3243030615	-2.8006299047	 0.9769971389	 0.338436
N	 0.104070883	-3.9576665442	 0.4061291432	-0.529429
O	 0.0437164647	-2.3875031198	 2.060653409	-0.371188
H	 0.859885246	 2.0277784113	-0.6576721955	 0.112616
H	-0.9054718845	 2.0443937399	-0.7556179227	 0.112373
H	-0.1084065778	 1.9330079267	 0.8190276348	 0.119107
H	 0.0214376509	-0.2251106462	-1.3769171689	 0.104989
H	 0.8169951294	-0.326750452	 0.191023184	 0.116042
H	-1.3924455766	-0.2968735571	 1.3405477977	 0.128334
H	-2.2149545969	-0.1325190679	-0.2178462668	 0.094838
H	-2.7510906449	-3.7883825394	 0.1656897356	 0.124425
H	-3.5176358303	-2.1899238506	-0.3386953537	 0.124227
H	-0.1171403454	-4.1359929493	-0.5598872571	 0.273588
H	 0.8400399433	-4.4714665372	 0.8611231725	 0.262789
