15
gdb 131735	3.04495	1.32813	0.95572	1.3145	63.87	-0.1965	0.0258	0.2223	1152.8938	0.113379	-491.086026	-491.077494	-491.07655	-491.119048	31.686	
O	 0.1101154727	 1.1136260852	-0.7361193283	-0.420621
C	-0.0400947504	 0.0076064351	 0.1714896376	-0.189113
C	-1.429945949	-0.5392346821	 0.106698508	 0.208687
N	-2.0974147718	-0.9899248979	 1.1684223551	-0.316203
N	-3.2883975357	-1.3953804066	 0.6635165655	-0.260887
C	-3.3937240033	-1.1871393653	-0.6723676757	 0.364853
O	-4.5219777433	-1.5181075848	-1.3377316404	-0.438584
C	-2.19832975	-0.6319287455	-1.0755701806	 0.079878
O	-1.8772076201	-0.2669047786	-2.352854887	-0.472487
H	-0.4521083617	 1.8258405384	-0.4106379472	 0.292426
H	 0.696106303	-0.7286277562	-0.1694061312	 0.130036
H	 0.2178298876	 0.2851657261	 1.2006000898	 0.124605
H	-3.99099953	-1.7782090801	 1.2719403983	 0.278511
H	-4.3942729001	-1.27511981	-2.2622801001	 0.318824
H	-1.1084480178	 0.3185159224	-2.2733499038	 0.300076
