20
gdb 36797	8.01834	0.46615	0.45793	4.0882	81.03	-0.2729	0.0361	0.309	2298.0712	0.170028	-403.147596	-403.137736	-403.136791	-403.183977	34.341	
N	-0.1056720968	-1.1384219563	-0.1118703967	-0.304501
C	-0.0637510674	 0.0160839082	-0.1400622416	 0.256641
C	 0.0148122746	 1.4749508052	-0.1694920138	-0.34226
C	 1.4406397218	 1.9991925918	 0.093671223	-0.183721
C	 1.5043764578	 3.5282940028	 0.0616724402	-0.178672
C	 2.9174219884	 4.0715632984	 0.3136975263	-0.230249
C	 2.964097921	 5.5793233746	 0.2693106214	 0.097498
C	 4.0927583565	 6.3196441873	-0.3060781326	-0.180355
O	 2.86672451	 6.1786660014	-1.0268079207	-0.236433
H	-0.3423726384	 1.8228852465	-1.1458925657	 0.154336
H	-0.6807481291	 1.8745436315	 0.5780333025	 0.151581
H	 1.7843153811	 1.6271106595	 1.0656599419	 0.119847
H	 2.1189612802	 1.5788681148	-0.6574397491	 0.123021
H	 1.1555645302	 3.8956852064	-0.9113500625	 0.121001
H	 0.8157781351	 3.9391972447	 0.81289307	 0.098967
H	 3.2798104814	 3.7320020482	 1.2933561073	 0.104235
H	 3.6074562114	 3.6729421053	-0.4394281074	 0.107224
H	 2.3652460563	 6.086507271	 1.029352448	 0.091008
H	 4.3181264021	 7.3264457348	 0.0427814461	 0.116553
H	 4.9403902738	 5.7707417841	-0.7149336165	 0.11428
