16
gdb 4480	3.62774	1.68764	1.16642	0.6403	68.38	-0.1666	0.0608	0.2275	1000.8816	0.130196	-379.952436	-379.943471	-379.942527	-379.986558	31.609	
C	 0.0832149036	 1.5274057566	 0.0012804681	-0.512142
C	 0.0392134136	 0.0294528345	 0.0088199711	 0.152218
C	-0.0361302893	-0.8023034783	-1.0835943734	 0.291015
O	-0.1000515519	-0.5748290599	-2.4246766058	-0.44107
N	-0.0468871183	-2.1023043261	-0.6641876252	-0.307895
C	 0.0230964384	-2.137890557	 0.7186801031	 0.256958
N	-0.01906107	-3.3958520151	 1.3641683777	-0.610861
C	 0.0827337662	-0.8389223349	 1.1544118443	-0.293231
H	 1.025894294	 1.9202441771	 0.402450524	 0.125063
H	-0.0219022629	 1.9355629571	-1.0118599284	 0.09129
H	-0.7265293593	 1.964498457	 0.5979652721	 0.126832
H	-0.0346334958	 0.3738843737	-2.5695843935	 0.301626
H	-0.1784439467	-2.9064802041	-1.2529077661	 0.261793
H	 0.9094011039	-3.7457068237	 1.5854587135	 0.23932
H	-0.5312197018	-3.3348090574	 2.2362008189	 0.242394
H	 0.1610167164	-0.5243023395	 2.1850683995	 0.076689
