18
gdb 40009	3.33806	1.59757	1.49761	2.1355	74.83	-0.2347	0.0055	0.2403	944.6876	0.150497	-401.912131	-401.905469	-401.904525	-401.942932	27.943	
C	 0.0173081689	 1.5157100353	-0.0232374094	-0.311115
N	 1.24790959	 0.6995976091	 0.0592431637	-0.371255
C	-0.0593587938	 0.0410700187	 0.018396789	 0.401071
C	-0.4836073722	-0.8354391145	 1.2090320104	-0.3039
C	-1.1079982257	-2.0460717173	 0.4404306319	 0.016774
O	-0.2420230641	-2.1301630862	-0.7028122295	-0.244701
C	-0.5085056928	-0.810337551	-1.1923132818	-0.081057
C	-2.0362462193	-0.7753357154	-1.2061745036	-0.075849
C	-2.4097348593	-1.5489000635	-0.1876888548	-0.080799
H	-0.2018865608	 2.1034461328	 0.8644163313	 0.118017
H	-0.2149518243	 2.0186483303	-0.9602429987	 0.105484
H	 1.7016885047	 0.6550305125	-0.8509105339	 0.227814
H	 0.3988658357	-1.1434819568	 1.7733611937	 0.122696
H	-1.1905541635	-0.3503459384	 1.8857769702	 0.103278
H	-1.1303336405	-2.9938178561	 0.9761312526	 0.083942
H	 0.0186434477	-0.6197873338	-2.128177505	 0.075375
H	-2.6443067655	-0.1566464733	-1.851168078	 0.107558
H	-3.4018317153	-1.7200163523	 0.2070374116	 0.106668
