23
gdb 109670	1.96945	1.22216	1.15842	2.3818	82.28	-0.2275	0.0752	0.3027	1308.7043	0.202818	-425.401137	-425.390198	-425.389254	-425.436689	40.029	
C	-0.3302878487	 1.2043100106	-0.0805773472	-0.386973
C	 0.3214543036	-0.1853456519	-0.0810203176	-0.236989
C	 0.877953828	-0.5926899285	 1.2748061248	 0.253966
C	 2.1187830444	 0.14526262	 1.7405666012	-0.462823
C	-0.1126522743	-1.0124690517	 2.3552597785	 0.0531
O	-1.4798825289	-1.0660388554	 2.0774093529	-0.433594
C	 0.7693354223	-2.0510464859	 1.7218835909	-0.019498
O	 0.0578485666	-2.9785947149	 0.9598525598	-0.253047
C	 0.8407206391	-3.6431304666	-0.0159139797	-0.235918
H	 0.3776286104	 1.9878033838	 0.2084510139	 0.109864
H	-0.7073330126	 1.4553950305	-1.0772658492	 0.105303
H	-1.1702468214	 1.2263461561	 0.618604319	 0.139472
H	-0.4191167449	-0.9215868623	-0.4042686272	 0.100746
H	 1.1331257429	-0.2132187675	-0.8208828964	 0.085112
H	 1.9349998393	 1.2210877079	 1.833645258	 0.123076
H	 2.4520784701	-0.2122038117	 2.7208427453	 0.111685
H	 2.9497808448	 0.0055427603	 1.0384828061	 0.112695
H	 0.0883516792	-0.7085286202	 3.3801702862	 0.090444
H	-1.6343745973	-1.900295121	 1.6154161681	 0.29899
H	 1.5981975931	-2.4827410797	 2.2856860247	 0.081754
H	 1.6696868042	-4.1935573053	 0.451533405	 0.113466
H	 0.1850787755	-4.3530862605	-0.5252431369	 0.130154
H	 1.2549608246	-2.940006676	-0.7497488601	 0.119015
