23
gdb 57424	2.55603	1.13362	1.082	1.1113	82.55	-0.2406	0.0635	0.3042	1302.1429	0.201611	-425.419857	-425.408986	-425.408042	-425.454617	41.896	
C	 0.1460596569	-0.0599697659	 1.239362539	-0.413448
C	 1.5081603299	-0.5215611445	 0.6989511066	 0.303988
C	 2.548292807	 0.6054313218	 0.8110828791	-0.405792
O	 1.9714414049	-1.6555866261	 1.4461084956	-0.458001
C	 1.3872224413	-0.9471521394	-0.7597671809	-0.011793
C	 2.2670290421	-2.0196861456	-1.3733961281	-0.368819
C	 0.7686859315	-2.2150370101	-1.2803087004	 0.38131
C	 0.1751189658	-3.2994031043	-0.4105004561	-0.462641
O	 0.0378324017	-1.9863313048	-2.4666991367	-0.471445
H	-0.251517447	 0.769888696	 0.6467661564	 0.118507
H	-0.5749341905	-0.8801415744	 1.2095246056	 0.128855
H	 0.2365590773	 0.285740784	 2.2765385054	 0.096999
H	 2.6743666556	 0.9092813086	 1.8573343747	 0.096479
H	 3.5152963829	 0.2653662551	 0.4314236637	 0.126514
H	 2.2417653356	 1.489841224	 0.2434229092	 0.114576
H	 2.038428384	-1.3870548763	 2.3680127527	 0.276365
H	 1.1861364228	-0.102449042	-1.4125802125	 0.090624
H	 2.6903998872	-1.8300400022	-2.35372611	 0.101916
H	 2.8898604774	-2.5884321173	-0.6922452427	 0.123849
H	 0.7208766552	-3.3963630238	 0.5275243465	 0.145222
H	-0.8746381324	-3.0780827826	-0.1895696256	 0.115641
H	 0.2068044751	-4.2627667593	-0.9364314442	 0.095647
H	 0.0884566755	-2.7908827708	-2.9953498673	 0.275449
