16
gdb 24301	4.0414	1.60568	1.24829	2.3195	75.36	-0.2036	0.0224	0.226	965.764	0.127708	-400.766885	-400.760539	-400.759594	-400.797521	25.847	
C	-0.0442876856	 1.4676196035	-0.0053184038	-0.218503
C	 1.4304338272	 1.8745602936	-0.0242665998	 0.053591
O	 2.1627578014	 1.4731702682	 1.1276904727	-0.252409
C	 2.2580474951	 0.6532274646	-0.0727416634	-0.164643
C	 1.3221722281	-0.4830905145	-0.0696224106	 0.397656
C	 1.2540735216	-1.8577902724	-0.060119854	-0.323819
C	-0.1272711856	-2.1942632466	 0.0281931582	-0.138923
C	-0.8534493092	-1.018971299	 0.0758741953	-0.12609
N	 0.0392817881	 0.0119854368	 0.004373854	-0.013801
H	-0.558415487	 1.8477661247	 0.8836193913	 0.136918
H	-0.565572423	 1.8346706447	-0.897405253	 0.122943
H	 1.7154560191	 2.8224600441	-0.472255978	 0.106107
H	 3.241874329	 0.6073110539	-0.5251113131	 0.109216
H	 2.0865746815	-2.542982207	-0.095958206	 0.099461
H	-0.5449559544	-3.1893218871	 0.0528497356	 0.095707
H	-1.9158607962	-0.8453897777	 0.1381615345	 0.116588
