19
gdb 78330	2.86835	1.3952	1.19397	1.8056	74.31	-0.2265	0.0644	0.2908	1095.2521	0.158301	-422.957089	-422.948863	-422.947919	-422.989249	33.044	
O	 0.1411283005	 1.2854165711	-0.0736977596	-0.445631
C	 0.0233830294	-0.1074054567	 0.0097249097	 0.143522
C	-0.4432611035	-0.6992281899	 1.3102780217	-0.134944
C	-1.3546225371	-0.6961026618	 0.0555158846	-0.159682
C	-1.3612782007	-2.2363985366	 0.0525437481	 0.42158
O	-2.6759061614	-2.7057954618	 0.0437518681	-0.48459
C	-0.2729459033	-3.0074399483	-0.7605737856	-0.306716
C	 0.6676383539	-2.9863360087	 0.4910721589	-0.245694
C	-0.4303144258	-2.2432348817	 1.3122594709	-0.09999
H	-0.5835295457	 1.6853864836	 0.4190513151	 0.284185
H	 0.8202324827	-0.5557574573	-0.5749224237	 0.102937
H	-0.4903255127	-0.0764831959	 2.1977561676	 0.082861
H	-2.2320788407	-0.1027426606	-0.1786501072	 0.089103
H	-2.6571261127	-3.6618580506	 0.1603721368	 0.276659
H	-0.6069213037	-4.0160020437	-1.0260398426	 0.090232
H	 0.0939807603	-2.5258438777	-1.6705981283	 0.108137
H	 0.8967862685	-3.9821000255	 0.8770751915	 0.098403
H	 1.6096683179	-2.448053527	 0.3679285682	 0.108862
H	-0.7626855158	-2.698798211	 2.2457539657	 0.070765
