11
gdb 130797	2.66742	1.78822	1.16632	5.2883	63.54	-0.2781	-0.136	0.1421	949.9626	0.062988	-488.633435	-488.62585	-488.624906	-488.666233	26.55	
O	 0.1194976107	-0.1283216741	 0.2898532746	-0.265453
C	 0.0359835087	 1.0073606624	-0.0743773029	 0.344716
O	-1.0588478931	 1.4568686559	-0.7250486479	-0.280285
N	-1.5824524355	 2.9406333471	-0.6049865898	 0.016561
N	-0.8650978302	 3.8150895723	-1.0034735457	-0.005481
C	 0.4543682731	 3.7790463503	-1.4754898547	 0.026443
C	 1.423971989	 3.0082894255	-0.9701914945	-0.141709
C	 1.2494462879	 1.9587400096	 0.065491608	 0.231664
O	 2.0803843621	 1.7595203285	 0.9147481606	-0.255433
H	 0.6579863003	 4.5755225105	-2.1808853422	 0.166134
H	 2.4493840371	 3.185688012	-1.2803640855	 0.162843
