15
gdb 69023	2.77702	1.40682	1.17339	1.6074	76.62	-0.2338	-0.004	0.2298	1072.5825	0.111299	-416.736737	-416.728422	-416.727478	-416.769404	31.867	
N	-0.0779312447	 1.4788571093	-0.1952037241	-0.589125
C	-0.009991703	 0.0809908913	-0.0516672232	 0.121049
C	-0.2733949396	-0.848764775	-1.2286461643	-0.361799
C	-1.1291645335	-0.992172329	-0.0114134153	 0.256287
O	-0.3691759373	-1.7483609442	 0.9846385091	-0.300758
C	 0.5838314434	-0.7342363918	 1.0587712604	 0.386382
N	 1.5341509654	-0.5630162211	 1.8560078311	-0.557119
C	-2.5339315331	-0.9126459453	 0.1021065382	 0.23911
C	-3.7308099921	-0.8374681876	 0.1968720341	-0.409515
H	-0.0760927873	 1.9421941438	 0.7070492678	 0.251771
H	 0.7038899541	 1.8358791363	-0.7342953121	 0.248536
H	-0.7461103152	-0.3434659568	-2.0646530888	 0.147218
H	 0.4204830751	-1.6449206616	-1.4799826684	 0.133211
H	 1.5999877971	-1.3254757762	 2.5322940233	 0.234665
H	-4.7875567094	-0.7733007422	 0.2820138323	 0.200087
