19
gdb 52488	8.20143	0.49008	0.48	0.2233	107.28	-0.2231	-0.0014	0.2218	2329.0243	0.158325	-348.708682	-348.698795	-348.697851	-348.746752	34.423	
C	 0.1982200019	 1.6316631737	-0.2417688565	-0.517891
C	 0.128118851	 0.1845316263	-0.147035132	 0.233845
C	 0.0697810753	-1.0222248083	-0.0683878103	-0.206543
C	 0.0047280757	-2.3774147177	 0.0192888276	-0.147125
C	-0.0538441648	-3.5859310658	 0.0976697148	 0.264136
C	-0.1392240752	-5.0230033726	 0.2093321731	-0.196315
C	 0.1141627397	-5.7014551435	 1.5985483413	-0.213042
C	-1.0244847553	-6.7026815058	 1.2726427464	-0.217141
C	-1.5464962525	-5.7114212125	 0.200221506	-0.213039
H	 1.2372584375	 1.97674491	-0.2937853583	 0.154126
H	-0.317446359	 1.9964351188	-1.1375659784	 0.15415
H	-0.2674517759	 2.1105677521	 0.6272314964	 0.153768
H	 0.4999428812	-5.4945182321	-0.5464092753	 0.103647
H	 1.1165449903	-6.0937343985	 1.7815559656	 0.104764
H	-0.1572439025	-5.0246581044	 2.4121733097	 0.11551
H	-0.6392927786	-7.6217514314	 0.8217389489	 0.104868
H	-1.7048712154	-6.9722988261	 2.0825821783	 0.102004
H	-2.3067978701	-5.0375721252	 0.6021792432	 0.115515
H	-1.8946902534	-6.1118039668	-0.7540329206	 0.104763
