16
gdb 87095	2.96601	1.16658	0.9764	4.964	72.13	-0.2875	-0.0843	0.2033	1203.0822	0.121335	-437.890743	-437.881208	-437.880264	-437.92551	33.682	
C	 0.1564834905	 1.491503909	-0.3675366765	-0.49132
C	 0.0824751534	 0.0000148702	-0.1177404982	 0.165425
C	 1.3775974499	-0.8121782327	 0.0055418372	-0.349161
C	 0.5747700283	-0.5626215156	 1.2310036124	 0.106109
O	 0.9811188925	 0.3734306438	 2.1728988513	-0.415441
C	-1.0576327114	-0.7705768106	-0.672749367	 0.256768
O	-1.1737226052	-1.974833688	-0.6027689976	-0.303882
C	-2.1216222478	 0.0153910027	-1.3358153537	 0.235699
N	-2.9600087582	 0.612971389	-1.862267115	-0.319927
H	 0.9411419344	 1.930426814	 0.2498695382	 0.137795
H	 0.3725495973	 1.7096737836	-1.4178931791	 0.133109
H	-0.7835538274	 1.9861910706	-0.1065225422	 0.146129
H	 1.3653144602	-1.8103802697	-0.4170726538	 0.147628
H	 2.2918763197	-0.2429804736	-0.1248330064	 0.128106
H	-0.0160367346	-1.3917009595	 1.616867653	 0.123301
H	 1.8305126887	 0.0947084569	 2.5307872575	 0.299661
