18
gdb 74765	3.98748	1.1336	1.05753	4.3115	82.43	-0.2374	-0.0094	0.2281	1183.8361	0.148869	-364.803073	-364.795285	-364.794341	-364.835239	30.375	
C	 0.0220281155	 1.4463660683	 0.06084652	-0.518629
C	-0.0039502363	-0.0407808435	 0.0012302697	 0.335701
C	-0.0229548083	-0.8980823215	-1.0261356771	-0.208727
C	-0.0404931497	-2.276749479	-0.3539151405	-0.065503
C	-1.0857488609	-2.0272202588	 0.7839391608	-0.228795
C	-0.011205848	-0.9783517323	 1.2255287624	-0.117372
C	 1.0686627817	-2.033636597	 0.7502944262	-0.132672
C	 1.3278814381	-3.140481141	 1.6601079638	 0.260667
N	 1.54740474	-4.0188402558	 2.3803513614	-0.333075
H	 0.911534867	 1.8113195466	 0.5900251162	 0.132033
H	 0.020105631	 1.8835268019	-0.9414597952	 0.130823
H	-0.84588672	 1.8398764796	 0.6052714875	 0.132689
H	-0.019554898	-0.7053114386	-2.089549309	 0.10553
H	-0.0376264725	-3.1748049954	-0.9685924086	 0.082793
H	-2.060342622	-1.6403367787	 0.4823851661	 0.102761
H	-1.1906364045	-2.8650590742	 1.4786209089	 0.126229
H	 0.0206599882	-0.5459422661	 2.224667628	 0.080339
H	 2.0133928885	-1.6205076544	 0.3908507496	 0.115209
