14
gdb 18843	4.0281	2.37801	1.9625	3.2581	64.91	-0.2192	-0.0143	0.2049	700.637	0.108901	-345.392266	-345.386685	-345.385741	-345.421724	22.929	
O	 0.0122687537	 0.0671934292	-0.0172064109	-0.331574
C	-0.0213477996	 1.2622185184	 0.0712561006	 0.440285
C	-1.1210305284	 2.2649451654	-0.010613974	-0.202072
C	-0.7422984804	 3.5893546973	 0.6955593084	-0.078171
C	 0.2812832568	 3.5336931099	 1.7909598349	-0.091248
C	 1.3569852934	 2.8735544933	 1.3565679405	-0.090172
C	 1.0934102106	 2.3587913233	-0.0425464007	-0.215431
C	-0.0689289813	 3.2493772141	-0.5898969134	-0.074468
H	-2.1391445434	 2.071655489	-0.3219075109	 0.113395
H	-1.5462968179	 4.3168620261	 0.7100862918	 0.100133
H	 0.120828634	 3.9449925204	 2.7785565285	 0.108547
H	 2.2329649672	 2.6039877432	 1.9314309135	 0.114544
H	 1.9463261058	 2.1070976784	-0.6695216637	 0.092527
H	-0.1146865605	 3.777996262	-1.5321555746	 0.113704
