21
gdb 120384	3.31456	0.96848	0.82129	0.7008	81.12	-0.2448	0.0189	0.2638	1460.4263	0.18208	-424.221382	-424.211954	-424.21101	-424.256057	34.801	
C	-0.0563377417	 1.3965128501	-0.0073182499	-0.225227
O	 0.0332859044	-0.0072355117	-0.0023081334	-0.238002
C	 0.660655873	-0.5126045622	 1.1596903995	-0.0624
C	 0.7259110658	-2.03083877	 1.0306851736	-0.072435
C	 1.6143356056	-2.5466395083	-0.0821425666	-0.065465
C	 2.2708507528	-3.6483490008	 0.2839451387	-0.09346
C	 1.9271767644	-4.0519341149	 1.7013176348	-0.28198
C	 1.300210968	-2.7593804932	 2.2796686122	 0.099949
O	 2.273899077	-1.9740357048	 2.9603486097	-0.431552
H	 0.9372091693	 1.8711016224	 0.0352250334	 0.10222
H	-0.5486472687	 1.6915059391	-0.9374357044	 0.124746
H	-0.6486154218	 1.7715991805	 0.842593037	 0.103536
H	 1.6688507004	-0.0837551519	 1.2674450795	 0.079744
H	 0.0940461858	-0.2280705344	 2.0619259546	 0.090129
H	-0.3042879383	-2.3760766167	 0.8563390704	 0.090963
H	 1.6552918485	-2.0689882581	-1.0536577367	 0.104934
H	 2.9393308675	-4.2225457473	-0.3480445615	 0.092857
H	 1.210027736	-4.8848773758	 1.7090306647	 0.109403
H	 2.7853021008	-4.3670166713	 2.3049099916	 0.107227
H	 0.5305369581	-2.9600803484	 3.0290141725	 0.083938
H	 3.014684933	-1.8512731621	 2.3550513804	 0.280876
