19
gdb 78099	2.69419	1.14731	0.94168	3.8378	76.99	-0.2432	-0.0199	0.2233	1285.5088	0.157139	-423.002366	-422.993173	-422.992229	-423.036447	34.127	
C	-0.037803604	 1.5517606963	 0.0282219556	-0.420509
C	 0.0662306995	 0.0440773933	 0.1206340283	-0.080667
C	 1.2973775134	-0.7853136509	-0.2031534569	-0.14718
C	 2.5834592922	-0.0794575576	 0.2712087344	-0.077001
C	 2.0013988177	-0.0797871048	 1.7340240478	-0.333762
C	 0.7252749229	-0.7483569732	 1.2134956193	 0.382414
O	 0.0864748093	-1.7749562285	 1.8862502655	-0.459227
C	 3.8086147029	-0.9453166945	 0.1528580889	 0.157469
O	 4.8464307089	-0.608230674	-0.3562757753	-0.259692
H	 0.8569286717	 2.055709258	 0.4024418975	 0.125451
H	-0.1846411134	 1.8687017126	-1.0098012696	 0.125449
H	-0.8897218877	 1.9200246385	 0.6104373701	 0.116261
H	-0.8250102305	-0.4776547561	-0.2259914763	 0.094181
H	 1.263206117	-1.5751973104	-0.9441303335	 0.100127
H	 2.7970651883	 0.8962501977	-0.1708232954	 0.089056
H	 2.558180914	-0.7570773712	 2.3876876887	 0.119514
H	 1.9124625517	 0.8931490246	 2.2264798136	 0.103345
H	-0.6640540078	-1.4082038238	 2.3658928954	 0.287911
H	 3.6859728539	-1.9645977459	 0.590934542	 0.076859
