13
gdb 35456	2.4933	1.4738	1.11143	5.572	68.26	-0.3032	-0.0278	0.2754	1059.6482	0.089088	-415.584687	-415.577146	-415.576202	-415.617152	27.359	
N	 0.0456661144	-1.1742528399	-0.138807564	-0.308837
C	 0.0119130718	-0.0226397309	-0.0529652265	 0.298743
C	-0.0431370527	 1.4245954532	 0.0680390287	-0.253728
C	-0.2353925912	 2.0467368324	 1.5071310022	-0.260503
C	 1.0980775533	 2.7775422314	 1.3244324653	-0.041223
O	 2.1004651959	 1.7889948598	 1.0971316771	-0.249571
C	 1.3088990723	 2.1840473084	-0.0171791443	 0.325185
C	 1.9424426045	 2.6845498495	-1.1958732469	 0.216696
N	 2.4121170059	 3.0895672913	-2.171418987	-0.321791
H	-0.7704226478	 1.8328777399	-0.6370968302	 0.153865
H	-1.1024124237	 2.7069467992	 1.5483627841	 0.139665
H	-0.2579777706	 1.3378832566	 2.3350618912	 0.153452
H	 1.4192487178	 3.7377356291	 1.7079119603	 0.148047
