22
gdb 118204	2.79638	0.83901	0.7217	3.799	81.38	-0.2361	0.0411	0.2772	1669.5116	0.191363	-441.518613	-441.507155	-441.50621	-441.557392	39.125	
C	 0.0234878659	 1.3081021184	 0.2487571566	-0.227129
O	 0.0408355809	-0.0949746109	 0.1269608568	-0.24391
C	-1.2471088761	-0.6570146508	-0.0467982126	-0.077768
C	-1.096639746	-2.174200725	-0.1263326528	 0.032347
C	-0.3413214901	-2.6245295347	-1.3843937786	-0.390347
N	-0.447046365	-2.6375234628	 1.0924215231	-0.315636
C	-0.7619756892	-3.821411619	 1.6889449581	 0.413702
C	 0.0590998492	-4.1650546773	 2.9234114564	-0.482309
O	-1.6391357523	-4.5580433535	 1.2696886767	-0.3855
H	 1.0559137716	 1.6387432318	 0.3852575817	 0.129334
H	-0.3876396447	 1.7881078196	-0.6525928817	 0.109871
H	-0.5739851432	 1.6346586299	 1.1142368289	 0.108175
H	-1.8960505061	-0.3851093372	 0.801299824	 0.093865
H	-1.7153580344	-0.2734724487	-0.9676406197	 0.092343
H	-2.0941264888	-2.6229603866	-0.1306703476	 0.115841
H	-0.2519763606	-3.7133874703	-1.3932430425	 0.134749
H	-0.8791497531	-2.3171936877	-2.2876329296	 0.110722
H	 0.6588893881	-2.1839375821	-1.4142937455	 0.124264
H	 0.3153074176	-2.0759916784	 1.4358476387	 0.248174
H	-0.6234157698	-4.4114063836	 3.7403152479	 0.14976
H	 0.65313263	-5.0594915604	 2.7143901736	 0.149436
H	 0.7289899762	-3.3627522706	 3.2434724879	 0.110018
