17
gdb 92880	2.74218	1.40023	1.09439	2.755	78.16	-0.2512	-0.0738	0.1774	1116.7945	0.137192	-421.847615	-421.839555	-421.83861	-421.880567	30.573	
O	 0.1706045832	 1.4732701096	-0.206076572	-0.424935
C	 0.0447143106	 0.0706318672	 0.0179356976	 0.069037
C	-1.4078383001	-0.3482809753	 0.2801503728	-0.283567
C	-2.378707436	-0.1109288904	-0.8428408843	-0.070334
C	-2.2163257442	-0.3516635978	-2.1491376803	-0.149917
C	-1.0679757233	-0.9703367649	-2.8543107227	 0.338738
O	-1.2252544505	-1.3380605023	-4.0098826729	-0.334896
C	 0.275634601	-1.1364620283	-2.2434740741	-0.136704
C	 0.7543179813	-0.6996970338	-1.0729512517	-0.092607
H	-0.2429146284	 1.6654106787	-1.0559589593	 0.285396
H	 0.5932864166	-0.0993022884	 0.9506107169	 0.099207
H	-1.4209751041	-1.4128919814	 0.5556201605	 0.12931
H	-1.7488791852	 0.2011485544	 1.1631801876	 0.120311
H	-3.3460464705	 0.2833111341	-0.5378283575	 0.111319
H	-3.0424186701	-0.1577827069	-2.8278857247	 0.112291
H	 0.9541413669	-1.6336770379	-2.9320320938	 0.114229
H	 1.8150885427	-0.8551760367	-0.887346272	 0.113122
