17
gdb 39247	2.74235	2.30132	1.60674	3.9342	72.1	-0.2387	-0.0122	0.2265	851.2686	0.138951	-417.96296	-417.956576	-417.955632	-417.993536	26.337	
C	-0.0091523763	 1.4707980656	-0.3446346605	-0.05885
O	 1.0732140793	 2.1026042472	 0.3502745618	-0.280168
C	 2.0240382903	 1.1530382488	 0.8542846312	 0.085193
C	 2.1499595788	 1.3332742319	 2.4043768263	-0.176659
N	 0.8639998482	 0.7968605827	 2.9485471874	-0.22662
C	 0.4649271686	 0.0033267636	 2.047449161	 0.270956
N	-0.8318289525	-0.1934534643	 1.4304234951	-0.367021
C	-0.0977021567	 0.002580671	 0.1061594154	-0.051893
C	 1.2806311014	-0.1720573221	 0.7891374564	-0.143727
H	-0.9198666347	 2.0338473174	-0.1247405549	 0.128454
H	 0.1738420308	 1.4972245631	-1.4296554039	 0.096253
H	 2.9749066713	 1.2326427208	 0.3148099035	 0.071525
H	 3.032226855	 0.8153280754	 2.8031729294	 0.10413
H	 2.2192434792	 2.3893056928	 2.6777241438	 0.129354
H	-1.2190354441	-1.1305898894	 1.5071941734	 0.237547
H	-0.4097526048	-0.683119075	-0.6825350073	 0.088238
H	 1.8325395764	-1.0979130595	 0.6388173519	 0.093288
