14
gdb 125721	4.37247	1.10991	0.89011	4.555	65.54	-0.2752	-0.0628	0.2124	1233.0349	0.100905	-470.047571	-470.039242	-470.038298	-470.081041	29.408	
C	 0.6611391046	 1.2228497922	-0.4077579128	-0.491205
C	 0.0376241181	-0.0745576036	-0.0282407433	 0.355089
N	-1.2538924209	-0.2840825655	-0.0995556849	-0.151504
O	-1.406848603	-1.6001239874	 0.3387675887	-0.178846
C	-0.1853569168	-2.0415046325	 0.6274801461	 0.356695
N	 0.7517164952	-1.1621064286	 0.4275167165	-0.363889
C	-0.0277907856	-3.4486230646	 1.1318776278	 0.320454
N	 1.2702604367	-3.7516535129	 1.3812187469	-0.529994
O	-0.9733900248	-4.1905049447	 1.2832977441	-0.336765
H	 1.1996836947	 1.6481432972	 0.4441937875	 0.152665
H	 1.3846914763	 1.0740049256	-1.214629353	 0.152665
H	-0.1041701405	 1.9268726789	-0.7367761363	 0.157198
H	 1.9946486733	-3.0701185212	 1.2260512357	 0.283523
H	 1.4957686826	-4.6701962429	 1.7241327372	 0.273914
