17
gdb 93648	1.93736	1.7673	1.45623	4.3982	66.7	-0.2505	0.0093	0.2599	998.2199	0.137457	-455.145877	-455.137483	-455.136539	-455.178996	31.681	
O	-0.5674072197	 1.2913663096	 0.8788269473	-0.443316
C	-0.135757561	 0.1273690879	 0.1822097258	 0.074115
C	 0.7920463855	-0.8014821291	 1.0055948619	-0.212669
N	 0.0446101209	-2.044586568	 1.3107478102	-0.281406
C	-1.3686362531	-1.7644887426	 1.0459761724	-0.222068
C	-1.9874475784	-1.1299266837	 2.2243882524	 0.310838
N	-2.4267005368	-0.5696480862	 3.1356171104	-0.331609
C	-1.3570589762	-0.7662044239	-0.1609796651	 0.128143
O	-2.5302132458	-0.0490740737	-0.3811678469	-0.426427
H	-0.799792987	 1.0517908341	 1.7858169133	 0.301543
H	 0.3465636723	 0.504042057	-0.721993984	 0.103327
H	 1.715834781	-1.0418194912	 0.4742013471	 0.120633
H	 1.0783794423	-0.2916115367	 1.9333655241	 0.128427
H	 0.3462098536	-2.7985063573	 0.7060609713	 0.235578
H	-1.9154155841	-2.6825559173	 0.8196006041	 0.12905
H	-1.1394874992	-1.3675193296	-1.0525144466	 0.090482
H	-2.4062485245	 0.801668181	 0.0678358024	 0.295361
