16
gdb 133770	2.08208	1.59327	1.21848	2.2623	57.47	-0.2867	0.0711	0.3578	1059.9147	0.119149	-569.378676	-569.369834	-569.36889	-569.412908	32.03	
C	-0.3909509859	 0.8201283932	 0.5714456849	-0.386896
C	 0.3142534897	-0.5016032986	 0.2368649528	-0.284249
C	 0.6218684838	-0.6800787788	-1.239018281	 0.238186
C	 0.307083811	-1.9283874352	-1.9497700682	-0.224233
O	-0.4957172965	-0.755893593	-2.1192372001	-0.265338
C	 1.7621343659	 0.1619078533	-1.7954685581	 0.2645
F	 2.8887279735	-0.0700844866	-1.0993209891	-0.078284
F	 2.0115479262	-0.1078680529	-3.0798851633	-0.068294
F	 1.5000239802	 1.4744496659	-1.7063478149	-0.072877
H	 0.2476483574	 1.6834355908	 0.3755562059	 0.134725
H	-1.3004672912	 0.9273647761	-0.026400232	 0.136867
H	-0.6731250725	 0.8378332558	 1.6278113632	 0.116388
H	 1.2492600278	-0.5933046872	 0.8001831164	 0.120517
H	-0.3215449594	-1.3392458624	 0.5406687361	 0.110767
H	 0.8845034953	-2.2242050155	-2.8212337372	 0.135668
H	-0.1580864654	-2.7373608547	-1.3898034153	 0.122553
