20
gdb 111347	2.24316	1.6599	1.15853	1.708	78.47	-0.229	0.0633	0.2924	1117.7413	0.1711	-403.076526	-403.068072	-403.067128	-403.109404	33.011	
O	 0.4978083874	 0.4556141105	 0.9056264524	-0.41438
C	-0.078373768	 0.3088096051	-0.3873806248	-0.086659
C	-1.4200681267	-0.4095825927	-0.3347970299	-0.119031
C	-2.0799197913	-0.8759829334	-1.6363416053	-0.061361
C	-1.3593383994	-2.0039926244	-2.2622180443	-0.240473
N	-2.2524903519	-2.3007724299	-1.1244719789	-0.167066
C	-1.4872083926	-1.8846651752	 0.0857747134	 0.392681
C	-0.4595826009	-2.744178476	 0.7542887231	-0.331043
C	-1.7911610729	-2.4563741955	 1.4261118695	-0.344042
H	-0.0933347795	 1.0041215587	 1.4315547812	 0.282904
H	-0.1909678233	 1.2826372067	-0.8906329728	 0.090109
H	 0.6470804493	-0.2721441875	-0.9639196408	 0.11157
H	-2.1260458269	 0.1877071203	 0.2562707508	 0.074489
H	-2.8923032769	-0.3613005038	-2.1389940021	 0.095681
H	-1.7452115602	-2.3706370876	-3.2087219903	 0.119158
H	-0.287331458	-2.1251501343	-2.1302270976	 0.117828
H	-0.3020591825	-3.7411507713	 0.3557850009	 0.115291
H	 0.4235416025	-2.2559033331	 1.1500805836	 0.134603
H	-1.8016712499	-1.7895715528	 2.2824612947	 0.107499
H	-2.5207524581	-3.2583607036	 1.4602784873	 0.122244
