20
gdb 78383	3.86683	1.25528	1.16537	1.5901	78.5	-0.2303	0.0846	0.3149	1141.1544	0.171027	-403.078799	-403.07065	-403.069705	-403.111217	31.795	
C	-0.1417953607	 1.5524691462	-0.0966745402	-0.406851
C	 0.0739537404	 0.0561262364	 0.0105795783	 0.148839
O	 1.1427741218	-0.4310634559	-0.841843983	-0.314487
C	 1.7606598857	-1.1396094716	 0.2486928373	 0.097879
C	 2.861556031	-0.3052276936	 0.9094434147	-0.079823
C	 1.8511058508	 0.2594758904	 1.8944435028	-0.0503
C	 0.7231490565	-0.5683927806	 1.2715806505	-0.147687
N	 2.9717019954	-0.5469260453	 2.3270346917	-0.088936
C	 2.8272093786	-1.8687700431	 2.9247629638	-0.315365
H	 0.7687732021	 2.105116241	 0.1476583314	 0.127223
H	-0.4352268457	 1.8142999008	-1.1181451952	 0.127664
H	-0.9429638371	 1.8730194711	 0.5784848723	 0.115913
H	-0.8567559859	-0.4713153002	-0.2432131723	 0.076522
H	 1.9281187828	-2.1948993348	 0.0180974036	 0.079352
H	 3.6729549457	 0.1870513166	 0.3837279335	 0.099281
H	 1.7641647343	 1.2643476404	 2.2939156376	 0.094047
H	 0.0762739372	-1.1584004494	 1.921696075	 0.07578
H	 2.0269276483	-2.4921798702	 2.5035842472	 0.110444
H	 3.7736774764	-2.4061192604	 2.8103504347	 0.126227
H	 2.6363636523	-1.7477968879	 3.9957381164	 0.124275
