22
gdb 111413	1.92825	1.60825	1.01936	2.1972	82.98	-0.2222	0.0757	0.2979	1266.1319	0.193398	-404.28879	-404.2791	-404.278156	-404.323832	35.569	
C	 0.1821970754	 1.5020289889	-0.1395054855	-0.393999
C	 0.0517866635	-0.0230922959	-0.1890650859	-0.171311
C	-1.3755572401	-0.5274888949	-0.000227911	-0.040758
C	-1.6010700322	-2.0422788361	-0.1016763156	-0.071399
N	-0.765400453	-2.6550706845	 0.9561116404	-0.323645
C	-2.1097095329	-2.1276547577	 1.2967089992	-0.097514
C	-1.9854946761	-0.6191339556	 1.4732946281	 0.154087
O	-1.2199085484	-0.1939619879	 2.5681196275	-0.239096
C	-1.6560461312	 1.0085058864	 3.1626448429	-0.239857
H	 1.2152734651	 1.8137469068	-0.3239002447	 0.110293
H	-0.4488058186	 1.9839204354	-0.895755309	 0.10413
H	-0.1086749537	 1.8969604112	 0.8382185065	 0.12564
H	 0.4134716905	-0.3835706541	-1.1617079636	 0.085994
H	 0.6897057169	-0.4831502376	 0.5695700855	 0.129336
H	-2.0661778226	 0.0185012765	-0.6525020762	 0.061933
H	-1.9046487216	-2.6077242602	-0.9740661355	 0.089065
H	-0.8674341359	-3.666191209	 0.87242946	 0.227065
H	-2.8608320516	-2.7769793915	 1.7303900074	 0.087932
H	-2.9814158258	-0.1574197461	 1.4944380361	 0.065963
H	-0.985011461	 1.2156708119	 4.0000507977	 0.127534
H	-1.620545968	 1.8596785182	 2.4668165407	 0.105626
H	-2.6839119089	 0.9227745558	 3.5478085249	 0.102982
