23
gdb 104093	2.31067	1.45156	1.20896	0.9953	86.53	-0.2373	0.0265	0.2638	1192.4851	0.204601	-388.298497	-388.288745	-388.287801	-388.332498	37.515	
C	-0.0667145176	 1.4140050583	-0.0308690477	-0.246903
O	 0.0307650182	 0.0095637772	 0.0198012469	-0.285464
C	 0.6953429866	-0.5493932653	 1.1480586098	 0.406976
C	 2.1589439458	-0.0922614981	 1.2198383618	-0.440248
C	-0.0326560719	-0.2560294856	 2.4990206481	-0.311974
C	 0.0616312863	-1.5679641613	 3.2347865918	-0.067913
C	 0.4447648003	-2.5612091319	 2.4352214477	-0.066637
C	 0.647560589	-2.1117466454	 1.0073688435	-0.08196
C	-0.4588546293	-2.6414134357	 0.0795225746	-0.384576
H	 0.9086766156	 1.9036460342	-0.1602563269	 0.106873
H	-0.6877845769	 1.6527915915	-0.8983510724	 0.124323
H	-0.5474225332	 1.8334665415	 0.8649534853	 0.104504
H	 2.2456186972	 0.9770991426	 1.4343576693	 0.109917
H	 2.6758664171	-0.6322075589	 2.0186738283	 0.12396
H	 2.6682268448	-0.3004321834	 0.2737377172	 0.117257
H	 0.4233110144	 0.5754467095	 3.0495107398	 0.095635
H	-1.0799299201	 0.0211828643	 2.3175011725	 0.111157
H	-0.1799195747	-1.6655383473	 4.2877762687	 0.088876
H	 0.5576448092	-3.5986117376	 2.732835828	 0.088205
H	 1.6088111195	-2.4686430769	 0.6138045355	 0.067833
H	-1.4469623129	-2.3107398888	 0.4113484901	 0.115866
H	-0.3118133993	-2.2902312147	-0.9438337625	 0.123994
H	-0.4511171481	-3.7367139582	 0.0776806307	 0.100297
