19
gdb 113715	2.61757	0.97522	0.79809	4.0409	76.11	-0.2643	0.0311	0.2954	1455.2579	0.158891	-419.191557	-419.181769	-419.180825	-419.227214	34.978	
C	-0.3408700993	 1.3762574632	 0.2771556419	-0.399672
C	 0.1302016073	-0.0234530672	-0.1640883466	-0.143861
C	 0.909247665	 0.0472714143	-1.4059002799	 0.268309
N	 1.5337290474	 0.1086843972	-2.3764502049	-0.320585
C	 0.9505395534	-0.6942719752	 0.933368768	-0.018273
N	 0.1811384552	-1.3021218907	 2.0252616804	-0.357189
C	 1.0291620608	-2.1596647198	 1.1684947625	-0.034095
C	 0.2869126299	-3.2183263846	 0.3849991	-0.071976
O	-0.1747535764	-4.2453683664	 1.2447006954	-0.417489
H	 0.5130115331	 2.028756781	 0.4809227476	 0.134176
H	-0.9529839657	 1.8458564364	-0.496186901	 0.138438
H	-0.9352497394	 1.2783912602	 1.1888293071	 0.140358
H	-0.7532057492	-0.6382407066	-0.3613705379	 0.133305
H	 1.8401096739	-0.1255920839	 1.2018793365	 0.102789
H	 0.6247248401	-1.1259233777	 2.9218334777	 0.240923
H	 1.9594944468	-2.5168012189	 1.6068481042	 0.100664
H	-0.5430589256	-2.7724227111	-0.1808831676	 0.090629
H	 0.9604845151	-3.6942358188	-0.3346204963	 0.123735
H	-0.7368048626	-3.8156737513	 1.9000813229	 0.289812
