19
gdb 48409	3.33217	1.03702	0.92016	2.479	76.79	-0.2434	-0.0272	0.2162	1324.8425	0.156559	-422.994267	-422.985211	-422.984267	-423.028839	33.514	
O	-0.2524269367	 0.4450191992	-1.254060479	-0.268828
C	-0.1061046248	 1.0188688989	-0.2016895431	 0.102146
C	 1.1018604982	 1.8106520631	 0.1665858009	 0.304738
C	 2.4180424774	 1.447812661	-0.5007030695	-0.305081
C	 1.6932489806	 2.6854406725	-0.9233193709	-0.293989
O	 1.0757505664	 2.3524797655	 1.4531211274	-0.296065
C	 1.4538973566	 1.4642597896	 2.4737143532	 0.127285
C	 2.8590232122	 1.5152262155	 3.0143193123	-0.282379
C	 1.6972409706	 2.0784430866	 3.8112683499	-0.294247
H	-0.8932951885	 1.0195929923	 0.5852035585	 0.084665
H	 3.3081278279	 1.5545509522	 0.1057073933	 0.131185
H	 2.3902259677	 0.5893631919	-1.1623207944	 0.141947
H	 1.1779298744	 2.6821414952	-1.8766928289	 0.13827
H	 2.0728894924	 3.6426493001	-0.5859418793	 0.13224
H	 0.9570951951	 0.4963126458	 2.4307525868	 0.092248
H	 3.3255288257	 0.5927961782	 3.3422934537	 0.117442
H	 3.5339090869	 2.234602153	 2.5649176896	 0.119465
H	 1.6156500972	 3.157992541	 3.8661130832	 0.129591
H	 1.3567507106	 1.5502264284	 4.6943335961	 0.119367
