22
gdb 15901	2.52468	1.76191	1.17909	1.2398	78.1	-0.2596	0.0745	0.3341	1102.9626	0.199433	-350.19569	-350.186305	-350.18536	-350.229271	35.096	
C	-1.0008851226	 0.6682980944	-1.511886039	-0.401504
C	 0.0897520774	-0.2509222651	-0.9802553495	 0.051256
C	 1.5676782672	 0.0246103399	-1.3696318325	-0.246691
C	 1.9960544299	-0.4353072749	 0.0497106754	 0.033668
C	 3.1572586613	 0.266943363	 0.7415594477	-0.415644
C	 0.5198171326	-0.2170058164	 0.5261875172	-0.008997
C	 0.2648710677	 1.0908359344	 1.2577466947	-0.094506
O	-1.1269705128	 1.1601295567	 1.5457881854	-0.421763
H	-0.7866550343	 1.7196222497	-1.2945533072	 0.105313
H	-1.0856253687	 0.5680178489	-2.6003450108	 0.101869
H	-1.9724965679	 0.4340289725	-1.0683015492	 0.124372
H	-0.159830999	-1.2867534145	-1.2371675968	 0.068236
H	 1.9824217545	-0.5101606989	-2.2287011177	 0.088752
H	 1.7490742217	 1.0963321461	-1.5136753294	 0.089231
H	 2.1933938594	-1.5131044429	 0.0328953544	 0.071384
H	 3.019336588	 1.3530296376	 0.7726095027	 0.111336
H	 3.2876358376	-0.0833282596	 1.7718257705	 0.113087
H	 4.0945986638	 0.0732137233	 0.2078145313	 0.112378
H	 0.1028304253	-1.0189835573	 1.1434626767	 0.067227
H	 0.8578378521	 1.1138004672	 2.1860320991	 0.085609
H	 0.5846785167	 1.9520348108	 0.6497370542	 0.081899
H	-1.3031854796	 2.0021421251	 1.9756361626	 0.283487
