19
gdb 94792	2.88199	1.49394	1.09263	4.7508	77.71	-0.2311	0.0249	0.2559	1137.1746	0.160939	-419.226088	-419.217517	-419.216573	-419.259407	31.768	
C	-0.0240475545	 1.4128749266	 0.0025918194	-0.344415
N	-0.036738526	-0.0281815875	 0.0694072799	-0.091214
C	-1.1987036836	-0.8149545525	-0.3073997043	-0.167708
C	-0.8131207154	-2.2558207192	 0.1008078539	-0.329653
C	 0.7058365819	-2.2224040538	 0.1226324181	 0.194224
C	 1.5845521052	-3.2975024915	 0.627718109	-0.281841
N	 1.5534308089	-2.9960989103	-0.8135959644	-0.337581
C	 1.1007476989	-0.7675475801	 0.2713491552	 0.414249
O	 2.2048570541	-0.331692625	 0.5211511852	-0.398406
H	 0.972830419	 1.7471591909	 0.2955762261	 0.166919
H	-0.2371429311	 1.7688051377	-1.014262502	 0.122618
H	-0.7686743058	 1.8454711058	 0.6814909295	 0.121765
H	-2.0939503764	-0.4608441347	 0.2162423515	 0.111523
H	-1.3962839054	-0.7336662608	-1.3869932287	 0.108605
H	-1.202959728	-2.4741740032	 1.1002615957	 0.122803
H	-1.2197459565	-3.0028875219	-0.5857734768	 0.109257
H	 2.5089242924	-3.0150170172	 1.122761258	 0.142062
H	 1.1163354296	-4.2113399587	 0.985660788	 0.109128
H	 0.9688113626	-3.6811724147	-1.2894297334	 0.227664
