20
gdb 64348	2.55945	1.40047	1.12061	3.2333	75.27	-0.2339	0.0327	0.2666	1158.2279	0.17174	-440.341446	-440.332524	-440.33158	-440.374639	34.66	
C	-0.0209821208	 1.5645765029	 0.0216180457	-0.428864
C	-0.0055979746	 0.0338894072	-0.0051581538	 0.328607
O	-1.3469997672	-0.4689620465	-0.0477808416	-0.463344
C	 0.6647887484	-0.5044497083	-1.2752148072	-0.203445
C	 0.6020307051	-2.0296183423	-1.3169883346	-0.163392
N	 1.0799312358	-2.609278329	-0.0666610233	-0.303932
C	 0.9710597494	-2.0478280643	 1.1756113223	 0.385375
O	 1.1319678867	-2.6952486257	 2.1940634571	-0.377732
C	 0.7312711763	-0.540559612	 1.2145918747	-0.333591
H	 0.9908942185	 1.9777122231	-0.0397415679	 0.116577
H	-0.6075224196	 1.9483007633	-0.8180401208	 0.124131
H	-0.4743745197	 1.9306264118	 0.9502851126	 0.108634
H	-1.7816575801	-0.2311133136	 0.7780447624	 0.281435
H	 0.1621088085	-0.1014526693	-2.1596864805	 0.108777
H	 1.7061672573	-0.1655256733	-1.2974501866	 0.104812
H	-0.4324665972	-2.3384016	-1.5118277361	 0.127526
H	 1.2232674966	-2.407021738	-2.1363796388	 0.105578
H	 1.1974750948	-3.6125502643	-0.0342356052	 0.24291
H	 1.7135126855	-0.0623570722	 1.3158926585	 0.125715
H	 0.1887184062	-0.3250935395	 2.1408338931	 0.114222
