16
gdb 130711	3.21015	1.64491	1.11721	3.81	69.94	-0.2144	0.0224	0.2368	1034.0192	0.128429	-434.12458	-434.117391	-434.116447	-434.156374	27.169	
O	 0.0153995146	-0.0518831304	 0.0729399814	-0.432412
C	 0.0204047212	 1.1607512815	 0.0750746276	 0.442712
N	-1.0349453488	 2.0590465207	 0.1045017488	-0.318125
N	-0.6640754588	 3.397224001	 0.1117277456	-0.324339
C	 0.6280772701	 3.3312320741	 0.071969597	 0.420536
C	 1.7654741318	 4.3023643251	 0.0198471588	-0.344079
C	 2.9750209812	 3.387485655	 0.3801827376	-0.221872
C	 2.5459783427	 1.9419896016	-0.0025118494	-0.177217
N	 1.100402244	 2.0461170502	 0.0529589153	-0.11912
H	-2.0052143608	 1.8071452284	 0.1713418086	 0.277656
H	 1.8646509807	 4.7187279154	-0.9891809119	 0.136543
H	 1.6439898078	 5.1397281157	 0.7093070589	 0.14065
H	 3.8941173596	 3.6882854529	-0.1250408101	 0.119981
H	 3.1571087935	 3.4342507645	 1.4573849951	 0.128348
H	 2.8760964005	 1.6636426632	-1.01010339	 0.129135
H	 2.9154553407	 1.1871068512	 0.6950642265	 0.141602
