20
gdb 67628	2.35224	1.97004	1.60309	1.3673	81.83	-0.2153	0.0875	0.3027	974.8537	0.171448	-365.973191	-365.965374	-365.96443	-366.0049	31.617	
C	-0.049453146	 1.505497959	 0.0518585717	-0.517208
C	-0.0226313486	 0.0131477362	-0.0489969518	 0.289103
C	 0.8143624518	-0.8346348558	-1.0548665279	-0.137532
C	 1.0629627412	-2.1270637902	-0.3125534051	-0.086956
C	 0.8531456578	-1.8731827074	 1.1675198696	-0.180841
N	-0.1890241432	-0.8388374381	 1.150205222	-0.203214
C	-1.0761612877	-1.0477859142	-0.0164114305	 0.289096
C	-2.5648704084	-1.0275958153	 0.1296712492	-0.517209
C	-0.2534343771	-1.9098775845	-1.0218824217	-0.137527
H	 0.9235082211	 1.8949688461	 0.3755078748	 0.120723
H	-0.2865231805	 1.9620633413	-0.9154153056	 0.117711
H	-0.7987135092	 1.827853743	 0.7795930388	 0.130532
H	 1.3980310149	-0.467791124	-1.8874816157	 0.086242
H	 1.7763431517	-2.8472562514	-0.6952886301	 0.086967
H	 0.4937586142	-2.7549339528	 1.7087966986	 0.10245
H	 1.7484024718	-1.4914752741	 1.6699593945	 0.102453
H	-2.8703060809	-0.2583685021	 0.8437434521	 0.130533
H	-3.0526838233	-0.8234459419	-0.8298258913	 0.117711
H	-2.9369446191	-1.9926323958	 0.4948500776	 0.120723
H	-0.6412951907	-2.5213278381	-1.8244932593	 0.086245
