16
gdb 127823	4.4533	1.00987	0.83258	3.8227	74.97	-0.2344	-0.0251	0.2092	1328.9043	0.124766	-434.062096	-434.053649	-434.052704	-434.095718	30.68	
C	 0.0246305771	 1.4202812383	-0.0862291423	-0.340831
N	 0.0226046767	-0.0291996499	-0.1070969926	-0.2868
C	-1.0989704851	-0.6336198711	 0.0068896645	 0.23969
N	-2.3505560544	-0.0365946053	 0.0849151156	-0.570618
C	-1.1139875267	-2.1045956536	 0.0046179305	 0.135869
C	-0.0436263356	-2.9356015241	 0.155460248	 0.019399
O	-0.4237817743	-4.2131640234	 0.0946832171	-0.161951
N	-1.801811916	-4.271295095	-0.1118922016	-0.131882
C	-2.192199666	-3.0226631168	-0.1624626268	-0.071157
H	 1.0559903185	 1.7809815329	-0.0998286099	 0.127103
H	-0.4873876996	 1.8501067986	-0.9610593112	 0.119362
H	-0.4560366407	 1.8407271113	 0.8144468151	 0.101339
H	-2.3614495512	 0.9482054142	 0.3006114954	 0.257431
H	-3.0722775011	-0.554426531	 0.5621965817	 0.25422
H	 1.0054585589	-2.7418593853	 0.3077281293	 0.175229
H	-3.2388491604	-2.8158863598	-0.3380790127	 0.133595
