19
gdb 101071	2.21598	1.24215	1.08506	1.5877	78.09	-0.2561	0.0245	0.2805	1252.2797	0.154847	-422.955135	-422.944918	-422.943974	-422.99062	36.664	
C	 0.1607735938	 1.2592377041	 0.342068192	-0.232123
O	 0.0114384129	-0.1187874898	 0.0877803974	-0.24895
C	 0.5647516653	-0.5607653965	-1.1387633582	 0.06395
C	 2.094163725	-0.5715524499	-1.1495099982	-0.424363
C	-0.0077369872	-1.9552650192	-1.3810299123	 0.196129
C	-1.2535166354	-2.0914200569	-2.1585336756	-0.216473
O	 0.0106591443	-2.3518071403	-2.7650306635	-0.275511
C	 0.3480776362	-2.9798560926	-0.4283631549	 0.330122
C	 0.6548749899	-3.8257435196	 0.368070626	-0.441353
H	 1.207031909	 1.5486523243	 0.513602269	 0.111437
H	-0.2352651271	 1.8699946789	-0.4849080871	 0.102619
H	-0.4115233762	 1.4794142934	 1.2464689696	 0.13041
H	 0.2018653798	 0.0734754784	-1.9642503499	 0.070504
H	 2.4746705994	-1.1804692367	-0.325047913	 0.137258
H	 2.4513159635	-0.9933008589	-2.0935839484	 0.13671
H	 2.500206618	 0.4390986338	-1.0579329787	 0.116092
H	-1.8846265624	-2.9630744349	-2.0001831968	 0.126597
H	-1.7629244689	-1.1893459897	-2.4946690199	 0.117809
H	 0.9225800501	-4.575046528	 1.0715743427	 0.199138
