12
gdb 132468	3.2052	1.40058	0.97467	3.7809	62.87	-0.2225	-0.0536	0.1689	1067.0471	0.076576	-517.783946	-517.776812	-517.775868	-517.815634	26.956	
O	 0.0519422632	 1.3257079368	 0.0076320178	-0.393448
C	-0.0582916726	-0.0048450806	 0.0011101422	 0.503176
C	-1.2413429089	-0.6673217779	 0.0043019	-0.308316
C	-1.1830329091	-2.0875788017	-0.0036464154	-0.166196
C	 0.0054483295	-2.7396587866	-0.0139257772	 0.082902
F	 0.0782080524	-4.069782923	-0.0214464454	-0.059637
C	 1.2734044585	-2.0505848343	-0.0175172105	 0.350964
O	 2.3845174259	-2.4927787803	-0.0261653593	-0.327101
O	 1.1223434932	-0.6312806389	-0.0089914856	-0.26871
H	 0.9919210072	 1.5511155401	 0.0034848744	 0.319229
H	-2.1724696772	-0.1219548188	 0.0125417381	 0.130142
H	-2.096805462	-2.6716901048	-0.001554889	 0.136994
