19
gdb 61672	4.35333	0.79451	0.71283	2.3299	77.57	-0.2419	0.025	0.2669	1557.6861	0.157241	-422.959255	-422.949633	-422.948689	-422.994485	34.677	
O	-0.0605388809	 1.4229452054	-0.0241885356	-0.411356
C	 0.0178623929	-0.0016548035	 0.0267034938	-0.061097
C	 0.6329438879	-0.5918618575	-1.2579006222	-0.22923
C	-0.1079793246	-0.154972456	-2.5135102923	-0.005695
C	 0.1230628708	 1.2668894559	-3.0722277334	-0.068528
O	 0.4388075158	 0.7460721312	-4.3815841552	-0.273488
C	 0.4446703134	-0.6057715149	-3.8846367936	-0.102333
C	 0.732266338	-0.4595462098	 1.2209301016	 0.28928
C	 1.3619940875	-0.8112445793	 2.1827465226	-0.432683
H	 0.8214102544	 1.7689233516	 0.1528084745	 0.287784
H	-1.0276422595	-0.3298991633	 0.0901924086	 0.120066
H	 1.6887873532	-0.2965382897	-1.3163477545	 0.102248
H	 0.6186739704	-1.6857047501	-1.1731209931	 0.113278
H	-1.1745709463	-0.3801937666	-2.4153517965	 0.081599
H	-0.7372385274	 1.9432544724	-3.0893536747	 0.109235
H	 0.9778882724	 1.7921177663	-2.6263288614	 0.084339
H	 1.4612229092	-1.024698826	-3.8453499102	 0.092361
H	-0.1884864649	-1.2709499495	-4.4833459866	 0.102061
H	 1.8991920175	-1.1261144966	 3.0433651382	 0.202158
