17
gdb 73443	2.89927	1.93046	1.494	2.105	71.	-0.2275	0.0029	0.2304	898.0747	0.137809	-421.808551	-421.801767	-421.800823	-421.839238	28.216	
O	-0.0577654848	 1.3582923976	-0.0009723894	-0.469712
C	 0.0236871407	-0.0301999597	-0.0161919372	 0.370266
C	 1.0067398356	-0.7001676835	-0.9849352382	-0.158067
O	 0.2724749285	-1.7306396999	-1.6499450102	-0.259283
C	-0.7849651792	-2.1311238448	-0.757199483	 0.023707
C	-0.1719805807	-2.9616021593	 0.3651890441	-0.093731
C	 0.0839777952	-2.1929083617	 1.427309958	-0.088792
C	-0.4450308217	-0.8104693133	 1.2329840765	-0.158869
C	-1.2323718063	-0.8321713458	-0.057712469	-0.132616
H	 0.6819373839	 1.6993525689	 0.5129544702	 0.287031
H	 1.3427772806	 0.0238462182	-1.7333132319	 0.112079
H	 1.8839247694	-1.1196037158	-0.4729629549	 0.092221
H	-1.5382478019	-2.6359143529	-1.3640535524	 0.083017
H	 0.1613374434	-3.9810132258	 0.2151511504	 0.103053
H	 0.6358445534	-2.4945786296	 2.3105138241	 0.098721
H	-0.778892777	-0.2068742615	 2.0696792253	 0.089057
H	-2.2127802591	-0.3914066211	-0.1770508125	 0.101917
