14
gdb 28292	5.39579	1.35572	1.08499	5.0915	70.27	-0.2002	0.0276	0.2277	1031.8322	0.103977	-432.898142	-432.891263	-432.890319	-432.929248	26.791	
N	 0.1500404139	 1.3414155499	 0.1667820351	-0.591325
C	-0.0587702875	-0.018295847	 0.0498716644	 0.339371
C	-1.1677183743	-0.7957766064	-0.0006037601	-0.235985
N	-0.6881364602	-2.1176604001	 0.0103946566	-0.020029
C	-1.0179029077	-3.4612115346	-0.0362155437	-0.165534
C	 0.1988016414	-4.109034231	-0.0237686336	-0.094533
N	 1.2694767897	-3.2284535033	 0.0237114902	-0.39597
C	 0.6682514955	-2.0743874999	 0.0433778255	 0.483516
O	 1.0884509613	-0.7797205104	 0.0770009952	-0.233085
H	 0.9645370036	 1.6584960259	-0.3449531223	 0.26756
H	-0.6643961743	 1.8905821977	-0.0701070514	 0.26229
H	-2.2086258157	-0.5323272997	-0.0361604379	 0.145509
H	-2.0341896622	-3.8124517425	-0.0673963384	 0.128803
H	 0.3674736964	-5.1747606287	-0.0437761596	 0.109411
