13
gdb 9457	2.93586	1.82097	1.71453	5.3542	60.48	-0.2608	-0.0093	0.2515	824.4035	0.095346	-394.771352	-394.763702	-394.762758	-394.803276	27.553	
O	 0.2105007727	 1.4052031601	 0.1155238287	-0.445942
C	 0.0495263172	 0.0163619752	 0.0480048009	 0.189231
C	-1.440439707	-0.4344255615	-0.1116754395	-0.196825
N	-1.0358079308	-1.0861133283	-1.3697069539	-0.329755
C	 0.2426145173	-0.5644209886	-1.3722139838	 0.341362
N	 1.2309411807	-0.434398687	-2.1429058926	-0.545033
C	 0.7873908172	-0.6825521232	 1.109355307	 0.253075
N	 1.3680597556	-1.2269064412	 1.9468541905	-0.330792
H	 1.0249890001	 1.6145379268	-0.3618861672	 0.308478
H	-1.8287032863	-1.1175306754	 0.6460808156	 0.139125
H	-2.093356573	 0.4345643366	-0.2301452966	 0.138125
H	-1.6166739141	-1.2997732779	-2.1672115544	 0.25399
H	 1.0696181704	-0.8145640255	-3.0757398746	 0.22496
