21
gdb 121211	2.46036	0.94181	0.73268	1.3963	80.12	-0.2483	-0.0328	0.2155	1593.3203	0.180665	-424.219654	-424.209673	-424.208729	-424.256107	34.962	
C	-0.1329656669	 1.5163622632	-0.0232260485	-0.384944
C	-0.0044072392	-0.0075938993	-0.0805174326	-0.169012
C	 0.8135924333	-0.4938491227	-1.2837557787	-0.195467
C	 0.9042478693	-2.0085970514	-1.3346034735	 0.134837
O	-0.3719923773	-2.6480553482	-1.575254918	-0.28554
C	 0.1948079802	-3.4960574765	-2.5878527665	-0.089771
C	 1.5431145692	-2.7379532296	-2.5637731348	-0.174985
C	 1.8023254499	-1.8852286144	-3.7775010963	 0.163382
O	 2.886830513	-1.7190840355	-4.2741221158	-0.254099
H	 0.8495568108	 1.9962727636	 0.0481278768	 0.114856
H	-0.6262965744	 1.9063819156	-0.9203352844	 0.116873
H	-0.7217146975	 1.8320918891	 0.8434116539	 0.115043
H	 0.4622682966	-0.3738863004	 0.8434884206	 0.095982
H	-0.9990128819	-0.4657032431	-0.1253846171	 0.121037
H	 0.3598157035	-0.119317627	-2.2089203804	 0.099956
H	 1.832893331	-0.0859300702	-1.2382596149	 0.106591
H	 1.3430854103	-2.381767696	-0.396876364	 0.08185
H	 0.2667268707	-4.542114834	-2.2654304628	 0.110921
H	-0.3719096812	-3.4500088334	-3.5263487008	 0.109954
H	 2.4363489275	-3.322478096	-2.342593675	 0.099945
H	 0.8943244432	-1.4072906239	-4.2128339972	 0.08259
