18
gdb 124853	3.58085	1.13691	1.0496	3.2568	76.8	-0.2512	-0.0093	0.2419	1198.7475	0.147981	-401.932638	-401.924541	-401.923596	-401.966035	30.638	
C	-0.1561280334	 1.475193587	 0.2855008251	-0.458824
C	 0.0054891877	-0.0170500849	 0.0350968539	 0.228376
C	 1.3698168504	-0.5130919133	-0.4030539113	-0.290571
C	 0.8716622974	-0.8055574376	 0.9905469513	-0.306295
C	-1.193803964	-0.6815255363	-0.540733823	 0.08695
C	-2.038765195	-1.5905175204	 0.0169682136	-0.013164
O	-3.0197074674	-1.9267914584	-0.834205877	-0.165506
N	-2.8475303857	-1.2181568458	-2.0192651424	-0.131764
C	-1.7750697266	-0.4920983584	-1.8326554874	-0.050379
H	 0.7655610351	 1.9048030352	 0.6900136227	 0.11558
H	-0.3957587479	 2.0099146429	-0.6402949608	 0.120449
H	-0.9637291353	 1.6687292494	 0.9994986718	 0.123557
H	 1.4104424955	-1.3361119149	-1.1075566109	 0.119099
H	 2.1579054339	 0.2224881498	-0.5243083625	 0.113979
H	 1.3208579226	-0.2702251999	 1.8201170576	 0.114356
H	 0.592790031	-1.8275637814	 1.2205866643	 0.113797
H	-2.0664275962	-2.0751688317	 0.9804398529	 0.149751
H	-1.433798912	 0.1512216986	-2.6320948279	 0.130611
