19
gdb 70282	3.749	1.01697	0.91231	2.5531	76.24	-0.2485	-0.0213	0.2271	1291.6833	0.158995	-423.033858	-423.025413	-423.024469	-423.067146	32.451	
O	-0.0755919844	 1.3774603032	 0.19061043	-0.468143
C	-0.0154267531	-0.004113736	 0.0089112174	 0.410427
C	-0.5197778247	-0.6111472094	-1.2771734562	-0.354635
C	-1.28560184	-0.806830174	 0.02215927	-0.0717
C	-1.0410715997	-2.0869312003	 0.8022250708	-0.246926
C	 0.5089802483	-2.2315856182	 0.862622063	-0.07453
C	 1.0402911166	-0.7762823157	 0.7903607394	-0.311171
C	 0.9557309591	-2.9345686547	 2.1222018214	 0.150891
O	 1.5779540367	-3.9633897916	 2.166191248	-0.249798
H	 0.6124434316	 1.7812602582	-0.3494912828	 0.283686
H	-0.9628100916	 0.0847692376	-1.9809945313	 0.115437
H	 0.0022368712	-1.4468968881	-1.7327144567	 0.112666
H	-2.2400426834	-0.3027786744	 0.1199781642	 0.098035
H	-1.4509624593	-1.9776365642	 1.8153020186	 0.106536
H	-1.5049577004	-2.9739097502	 0.3599704025	 0.114721
H	 0.8727366386	-2.8194546291	 0.0167826269	 0.096823
H	 2.0426594376	-0.7312442642	 0.3510833386	 0.10599
H	 1.0987914492	-0.3338954087	 1.7934954637	 0.111546
H	 0.6498528476	-2.4062445503	 3.0583472324	 0.070142
