18
gdb 24344	3.51696	1.48596	1.08349	2.8015	78.1	-0.2	0.0418	0.2418	1086.0736	0.151692	-401.989094	-401.981947	-401.981003	-402.02052	28.766	
C	-0.0235434974	 1.4045677769	 0.0282968647	-0.075527
C	 1.4142569406	 1.9472578813	 0.0140443792	-0.33364
C	 2.1708512454	 1.2539500011	-1.0816630625	 0.221787
C	 3.3558191262	 1.5608082515	-1.7104389745	-0.210506
N	 3.6051453645	 0.5739334717	-2.6322237891	-0.241227
C	 2.6008198515	-0.3624931056	-2.6034119345	-0.201824
C	 1.6948108309	 0.0344753357	-1.6477562371	 0.193927
C	 0.3906667808	-0.5682613455	-1.2083716958	-0.197302
O	-0.0427133008	-0.0140946208	 0.0270365601	-0.24699
H	-0.5523857861	 1.7148466024	 0.9340999123	 0.101383
H	-0.5798714368	 1.7930063641	-0.8415403646	 0.085257
H	 1.3980224552	 3.0357428657	-0.1194849243	 0.097611
H	 1.8741058552	 1.7530107285	 0.9919049142	 0.111155
H	 4.038495059	 2.385463316	-1.5798048095	 0.115449
H	 4.4096611862	 0.5362661345	-3.2323264875	 0.259647
H	 2.6181966776	-1.2165913185	-3.2616936034	 0.116248
H	-0.3904932579	-0.4134755204	-1.9744679781	 0.091942
H	 0.4708412159	-1.6475267786	-1.0407569695	 0.11261
