16
gdb 46217	3.13785	1.59124	1.26064	3.2217	68.68	-0.2574	-0.0072	0.2502	992.3453	0.125466	-437.855647	-437.848454	-437.84751	-437.887419	27.391	
O	-0.0115806533	 0.0656568469	-0.3473971091	-0.345354
C	 0.0566505466	 1.2130242986	-0.0369907298	 0.433193
O	-0.9407036893	 2.0182843981	 0.4619641366	-0.25176
C	-0.0599135413	 3.1930937165	 0.5083128922	-0.172392
C	 1.0800824107	 2.3251383179	-0.0023184855	 0.151774
C	 2.5117210317	 2.3093273443	 0.359551492	-0.106054
C	 3.2041957099	 1.0560245247	-0.1702467736	-0.253674
C	 2.6581865711	 1.4686872366	-1.5642782174	-0.161357
N	 2.051129728	 2.745759963	-1.0148268971	-0.18806
H	-0.4027975885	 3.9668125124	-0.1806265047	 0.141668
H	 0.0211459939	 3.574849257	 1.5279050717	 0.130721
H	 2.9084933212	 3.0168940412	 1.0816467641	 0.107475
H	 4.2916261481	 1.113490484	-0.1041743119	 0.118949
H	 2.8650267744	 0.1033198147	 0.2408954559	 0.133929
H	 3.4330325933	 1.7279256917	-2.286530518	 0.120737
H	 1.9289513335	 0.8007983722	-2.0257505656	 0.140206
