17
gdb 74341	4.41515	0.99352	0.86371	2.272	70.05	-0.2275	0.0515	0.279	1309.0685	0.137206	-455.141104	-455.132815	-455.13187	-455.17516	30.309	
N	 0.1835282556	 1.3290339167	 0.2159122232	-0.573766
C	-0.0214374874	-0.0154714541	 0.0899454704	 0.470846
N	-1.1233300497	-0.596123782	-0.1909612617	-0.356902
C	-0.8614684435	-2.0361081563	-0.094027664	-0.020005
C	 0.6686697534	-2.1345882725	 0.1830065498	-0.128703
O	 1.0859510222	-0.7623811498	 0.3452607883	-0.252612
C	-1.6932147821	-2.6645515987	 1.0037695758	 0.097305
C	-2.9489507107	-3.3620554586	 0.7220269929	-0.17766
O	-1.7512108437	-4.0944523571	 1.0013134111	-0.245948
H	 1.127567714	 1.642646988	 0.0541388975	 0.264532
H	-0.5367682697	 1.8990818796	-0.1980904309	 0.269806
H	-1.1191099341	-2.5376597462	-1.0343443541	 0.081414
H	 0.9101942453	-2.6811803917	 1.098713427	 0.127824
H	 1.227828156	-2.5706019731	-0.6492508312	 0.118934
H	-1.5588751795	-2.2177971885	 1.9910071989	 0.09237
H	-3.7205438544	-3.4196642709	 1.487950671	 0.115985
H	-3.3066118316	-3.4247696347	-0.304854314	 0.11658
