18
gdb 12832	3.18026	2.26268	1.712	1.4065	73.37	-0.2339	0.0071	0.241	833.391	0.154527	-347.778092	-347.770982	-347.770038	-347.808915	28.211	
C	-0.1018443058	 1.6112400466	-0.119733329	-0.443191
C	 0.0426523944	 0.1025646191	 0.0119935669	 0.42614
C	 0.7474317413	-0.579115701	-1.1774264487	-0.286867
C	 2.1778510886	-0.8599210711	-0.6050735355	-0.246467
C	 1.9055952207	-1.0718728301	 0.8864341904	-0.20249
C	 0.7590878723	-0.4792188041	 1.1945358	 0.161696
C	-0.5758482528	-0.6654725135	 1.8673598474	-0.170335
O	-1.2097373999	-0.4682670491	 0.5668930297	-0.34533
H	 0.8412077018	 2.0668240467	-0.4402779657	 0.117133
H	-0.8654634024	 1.8451278148	-0.8691194224	 0.126469
H	-0.4024582984	 2.0692704182	 0.8267674871	 0.116938
H	 0.2473258485	-1.5297171619	-1.3849689903	 0.117113
H	 0.7558450707	 0.0171011555	-2.0948867972	 0.090844
H	 2.6356941509	-1.74560205	-1.0572557713	 0.107648
H	 2.8627316425	-0.0236516307	-0.8009298615	 0.108713
H	 2.5081623269	-1.7176063034	 1.5143510715	 0.098438
H	-0.7824371426	-1.6517554084	 2.2957181054	 0.117681
H	-0.8816700266	 0.1127805826	 2.5789067132	 0.105869
