20
gdb 78355	2.73484	1.36542	1.11576	2.8877	79.56	-0.2441	0.0759	0.32	1176.1809	0.17111	-403.091858	-403.083322	-403.082378	-403.1247	33.418	
C	-0.0938355907	 1.4045863135	-0.0048689079	-0.42671
C	 0.0982883208	-0.0951054725	 0.0635229614	-0.007231
C	 1.4638932088	-0.6422791851	-0.2243682518	-0.075004
C	 0.9053317144	-0.6518685856	 1.2151971279	-0.178754
C	 0.8576286063	-2.1584497928	 1.1726019876	 0.31335
C	 0.9766037987	-3.1621304617	 2.2422006427	-0.322805
N	-0.2839983916	-3.0272100674	 1.474486946	-0.373165
C	 1.4579159803	-2.1821919839	-0.2478574335	 0.062868
O	 0.67895795	-2.8361397425	-1.2142230645	-0.447915
H	 0.7926803269	 1.9352976502	 0.3589089538	 0.114974
H	-0.2766854033	 1.7295355836	-1.0345293673	 0.124755
H	-0.9464542907	 1.7244060029	 0.6037867351	 0.117232
H	-0.7531969217	-0.6765240845	-0.2848780666	 0.087338
H	 2.2546444322	-0.0200008726	-0.6254787866	 0.084544
H	 1.2000742881	-0.0437100329	 2.0626918564	 0.0852
H	 1.5223666187	-4.0861211981	 2.0684628407	 0.124051
H	 0.9890388856	-2.8170950901	 3.2734617403	 0.11588
H	-0.9838404273	-2.5278286886	 2.0180700287	 0.234859
H	 2.4824480102	-2.5775004442	-0.2561629353	 0.074339
H	-0.0284794457	-3.2740038077	-0.7172712071	 0.292194
