16
gdb 67346	2.9056	1.91452	1.33118	2.2459	67.96	-0.2384	0.0012	0.2396	929.4619	0.124497	-437.852065	-437.844893	-437.843949	-437.883334	28.546	
C	-0.0649064428	 1.537516072	 0.033452917	-0.509308
C	-0.0444489166	 0.0353141804	 0.0518581335	 0.180338
C	 1.0836511366	-0.8061435038	-0.6717881839	 0.011714
O	 2.0477335817	-0.5130033533	 0.3876230523	-0.315241
C	 0.7929105399	-0.7891325054	 1.0969203105	 0.023717
C	 0.4900955885	-1.9888496896	 0.1638047225	-0.035207
N	-0.9495589762	-2.0602749729	 0.0061286641	-0.35235
C	-1.3423047713	-0.7392904565	-0.1911022504	 0.382145
O	-2.4284636182	-0.3266431798	-0.5135968037	-0.361404
H	 0.9456676171	 1.9295449946	 0.1740405294	 0.13519
H	-0.4624005123	 1.9057559532	-0.9167892652	 0.135903
H	-0.7085624189	 1.9266730335	 0.8282349078	 0.133275
H	 1.4241375736	-0.7543149909	-1.7073790787	 0.102175
H	 0.7850070114	-0.724908947	 2.1856928528	 0.10499
H	 1.0278075071	-2.9267497616	 0.27281589	 0.109383
H	-1.4140123996	-2.807872863	-0.4871016079	 0.25468
