17
gdb 68123	4.03815	1.25761	1.12757	2.9025	73.3	-0.2461	-0.0389	0.2072	1101.5015	0.133745	-421.790571	-421.782493	-421.781549	-421.82313	31.023	
C	-0.1006349122	 1.5438186551	 0.2423487782	-0.510863
C	-0.0226880865	 0.0576482928	 0.0444688502	 0.357535
C	 0.9529614741	-0.6602967091	-0.946985692	-0.288939
C	 0.6749410913	-1.7629416882	 0.1340197624	 0.290709
O	 0.6520694305	-0.6896420803	 1.1264644247	-0.349993
C	 1.6361436484	-2.8778446373	 0.4066709712	 0.039239
O	 1.5301964011	-3.9772310805	-0.0748029125	-0.251148
C	-0.8244049548	-2.0341634171	-0.0954956489	-0.12481
C	-1.3038536761	-0.7922784937	-0.1449759851	-0.125697
H	 0.8963053907	 1.9729673827	 0.3712281517	 0.132199
H	-0.5755149469	 2.017689762	-0.6226923814	 0.127754
H	-0.6952631531	 1.778680688	 1.1306512587	 0.13861
H	 0.6301087556	-0.853092301	-1.9709691879	 0.112769
H	 1.9701991635	-0.2628485867	-0.8950456889	 0.109863
H	 2.4771794253	-2.5993734759	 1.0781553367	 0.095157
H	-1.2918195195	-3.0025682764	-0.1837934328	 0.132045
H	-2.3096121713	-0.4234651744	-0.2857726742	 0.115571
