17
gdb 50680	2.13454	1.5189	1.06775	5.1899	72.73	-0.2429	-0.0358	0.2071	1144.3307	0.136743	-418.026078	-418.017371	-418.016427	-418.060718	30.714	
O	-0.6393037706	 0.9505033405	 1.0085998877	-0.249842
C	 0.1747223163	 0.8624728528	 0.1277675119	 0.158834
C	 1.3807191539	 1.7881220716	-0.005242196	-0.063492
N	 2.580577808	 1.0129835963	-0.2986367945	-0.308635
C	 3.499561082	 1.7794375826	-1.1645835857	-0.155967
C	 2.782215045	 3.113898835	-1.432248742	-0.226936
C	 1.2884543978	 2.7687217787	-1.2081740113	-0.180318
C	 0.699020363	 2.1577670888	-2.4036265475	 0.288839
N	 0.2439052839	 1.6971421094	-3.361035431	-0.325821
H	 0.1308858867	 0.0765715634	-0.6548877274	 0.109791
H	 1.432975129	 2.391662337	 0.9132142938	 0.090721
H	 3.0230218615	 0.6580975895	 0.5370625174	 0.235838
H	 4.4738275691	 1.9376839099	-0.6899373192	 0.108831
H	 3.6754116458	 1.234495847	-2.0996108041	 0.126942
H	 3.0708291882	 3.8668584949	-0.693238275	 0.118711
H	 2.9752464119	 3.5179866069	-2.427317048	 0.131902
H	 0.6911962986	 3.6451075257	-0.9453753093	 0.140603
