21
gdb 109898	2.70664	1.42477	1.1956	1.5707	77.92	-0.245	0.0605	0.3055	1140.4037	0.182994	-424.184779	-424.176	-424.175055	-424.218641	33.49	
C	-0.500602237	 1.6570361997	-0.0734569217	-0.251012
O	-0.2182625445	 0.3185958087	 0.3027970588	-0.248735
C	-1.3043472296	-0.5606481619	 0.1131424468	 0.088366
C	-1.3665383686	-1.2241020649	-1.3114466913	 0.096965
O	-0.3406025685	-0.8253845104	-2.1858660126	-0.434366
C	-1.2682437599	-2.6353818686	-0.6463178815	-0.049439
C	 0.1703845219	-3.1884505	-0.5195411161	-0.231098
C	 0.3344230747	-2.4631145224	 0.8515158625	-0.233714
C	-1.1297510307	-1.9482155085	 0.7665224859	-0.069741
H	 0.4004103325	 2.2429651886	 0.1235803244	 0.129141
H	-0.7551365142	 1.735092062	-1.1383597197	 0.126645
H	-1.3304743436	 2.0667083354	 0.5204418834	 0.113516
H	-2.2438562998	-0.0683548576	 0.3988420098	 0.062961
H	-2.3173965017	-1.0688532211	-1.8301767044	 0.077692
H	 0.3620135787	-0.4666325007	-1.6270328207	 0.289397
H	-2.0634019803	-3.3368661671	-0.9012350989	 0.058147
H	 0.2064358837	-4.2770434109	-0.4379506111	 0.097072
H	 0.8466449003	-2.8809782191	-1.3206599564	 0.105753
H	 0.5010620918	-3.1423234394	 1.6903285392	 0.098915
H	 1.0895247403	-1.6760695261	 0.89471444	 0.112581
H	-1.7773863854	-2.1637547458	 1.6168939735	 0.060956
