25
gdb 87205	3.87766	0.82513	0.77255	0.0493	93.69	-0.2527	0.088	0.3407	1630.5873	0.227894	-352.33899	-352.328674	-352.32773	-352.374214	39.301	
C	-0.0068726727	 1.4530242911	-0.2819798749	-0.414511
C	 0.155251445	-0.0282271127	-0.0156987173	-0.039503
C	 1.5221143532	-0.6694244693	 0.0718793181	-0.329585
C	 0.6379477155	-0.6061273058	 1.3012358894	 0.369302
C	 1.0387434502	 0.3202024761	 2.435153276	-0.462843
C	-0.0183004655	-1.9109971031	 1.7430588483	-0.282383
C	 0.8722717418	-2.8161354464	 2.5737467758	 0.04071
C	 0.8630730409	-2.7571646509	 4.082142667	-0.251415
C	 0.2703087268	-3.9468473766	 3.3689298744	-0.28264
H	 0.8022649943	 2.0430922073	 0.1565941583	 0.114738
H	-0.0035615433	 1.6515722654	-1.3597442173	 0.115711
H	-0.9524256555	 1.8340343034	 0.120934699	 0.113927
H	-0.6008557632	-0.6340279608	-0.5114104916	 0.075543
H	 1.6817956375	-1.6293662131	-0.4095011673	 0.102037
H	 2.3855052045	-0.0112854794	 0.0373825969	 0.101368
H	 1.5215942619	 1.2307107949	 2.072247477	 0.109694
H	 0.1657572538	 0.6207127797	 3.0279434813	 0.107543
H	 1.7404097946	-0.1755690959	 3.1129607111	 0.124505
H	-0.9316306482	-1.6870538582	 2.3134628406	 0.085326
H	-0.3454446419	-2.4585665678	 0.8490766622	 0.090046
H	 1.837297993	-3.0241637637	 2.1175733045	 0.080871
H	 1.7991893485	-2.8877760804	 4.6143307743	 0.107757
H	 0.1789813972	-2.0611279057	 4.5571856144	 0.108765
H	-0.8106927492	-4.0463055059	 3.3643312678	 0.107517
H	 0.8004309107	-4.8919848923	 3.411227562	 0.107517
