18
gdb 37926	2.9344	2.12919	2.01086	1.2149	71.99	-0.2277	0.0614	0.289	806.991	0.152063	-401.891055	-401.885307	-401.884363	-401.920855	24.949	
C	-0.0600410028	 1.5209945162	 0.0374523697	-0.246892
C	 1.4794113149	 1.5006092488	-0.0247662025	-0.010146
C	 2.186599231	 1.0058482016	 1.2787177177	-0.058591
C	 1.3929691637	 1.0779839274	 2.5797865419	-0.104506
O	 0.3521609568	 0.091086475	 2.4708536285	-0.271522
C	 0.5366448431	-0.6549763415	 1.2804534533	 0.097866
C	 0.0195071364	-0.0077551577	-0.0478600978	-0.018462
N	 1.4522201412	 0.0746321249	-0.6005309591	-0.173367
C	 1.9606163661	-0.4230012332	 0.7467192591	-0.033154
H	-0.5576329258	 1.9604913197	 0.9046910363	 0.115466
H	-0.477219233	 1.9469078759	-0.8783330124	 0.111472
H	 1.9952637766	 2.2749744328	-0.5950479859	 0.074965
H	 3.2193186467	 1.3420126602	 1.3744247552	 0.080318
H	 2.0224388405	 0.8408509892	 3.4483488525	 0.102224
H	 0.9378411443	 2.0617641018	 2.7474557628	 0.106439
H	 0.2033431725	-1.6798306407	 1.4525921768	 0.084031
H	-0.7253894082	-0.5638094188	-0.619596378	 0.070444
H	 2.7313339962	-1.1927833217	 0.795342432	 0.073415
