21
gdb 65342	3.00272	0.96044	0.92995	0.9474	90.86	-0.2316	0.0576	0.2892	1408.2059	0.180522	-349.898421	-349.888734	-349.88779	-349.933017	36.915	
C	-0.0813389216	 1.5564102622	-0.0745600411	-0.457083
C	 0.0083891944	 0.0383534424	-0.002965518	 0.130332
C	 1.3569462187	-0.6339779709	-0.241327498	-0.334212
C	 0.7674499266	-0.6446861822	 1.1414850476	-0.033859
C	 1.377304841	 0.120588717	 2.2721319073	 0.011812
C	 0.6850926655	 0.1706787197	 3.6133518487	-0.267015
C	 1.9533617508	-0.6284590022	 3.4516505633	-0.274597
C	-1.1603187322	-0.6477001558	-0.488639167	 0.273593
C	-2.1474892619	-1.205752703	-0.8922283171	-0.464267
H	 0.8429824767	 2.0274602229	 0.2679566462	 0.113622
H	-0.2613070872	 1.8779358937	-1.1049350557	 0.126538
H	-0.9036698664	 1.9295221732	 0.5435318119	 0.128762
H	 1.3744023831	-1.555134593	-0.8116627837	 0.12111
H	 2.1966190857	 0.0290917727	-0.4265794261	 0.111776
H	 0.3264811956	-1.5895726977	 1.4482057511	 0.091649
H	 1.9167830793	 1.0174977969	 1.9843052656	 0.081439
H	 0.7244804903	 1.0946769396	 4.1795504018	 0.111356
H	-0.2474208905	-0.3739702714	 3.7177738966	 0.116149
H	 1.8750452691	-1.7107013803	 3.447324874	 0.113087
H	 2.8640081667	-0.2522459193	 3.904530425	 0.111414
H	-3.0157067438	-1.7015047944	-1.2488643025	 0.188394
