11
gdb 133386	3.21654	1.4883	1.01884	6.1398	57.13	-0.263	-0.0977	0.1653	1021.7071	0.064842	-529.968647	-529.961395	-529.960451	-530.000742	26.663	
N	 0.0401378644	 1.3970180163	 0.1565893144	-0.561593
C	-0.0247609604	 0.0339832765	 0.0317875717	 0.290458
N	-1.1646553581	-0.5760401508	-0.0035524062	-0.140943
O	-1.1264408222	-1.9633929376	-0.0206059116	-0.247811
C	 0.0493374464	-2.7066263159	-0.0166431715	 0.486278
O	-0.0385517891	-3.8951897968	 0.0013094033	-0.314477
N	 1.2625689493	-2.0045499853	-0.045111426	-0.365392
C	 1.2040360244	-0.743687272	-0.0147069711	 0.341096
F	 2.3210926547	-0.0354053023	-0.0497001401	-0.043747
H	 0.8603298052	 1.8427017206	-0.2233644899	 0.276854
H	-0.8293389046	 1.8865738373	 0.001037367	 0.279276
