16
gdb 12881	2.63864	2.48255	1.81913	2.341	59.9	-0.2322	0.0781	0.3103	796.2412	0.129912	-420.844852	-420.837471	-420.836527	-420.876122	27.932	
C	-0.0795598337	 1.486740423	-0.0364461218	-0.473234
C	 0.0770875949	-0.0019497802	 0.0620328291	 0.308402
O	-1.0826428329	-0.7679379538	-0.2645909816	-0.303338
C	-1.3601582265	-1.5331286942	 0.9003979671	 0.007249
O	-0.111997345	-1.881530094	 1.4584620081	-0.246297
C	 0.7386685859	-0.7948812984	 1.1654068036	-0.039059
C	 1.3373326421	-0.7878943953	-0.2409982603	 0.063258
O	 1.2885189453	-1.900256986	-1.0602820488	-0.425647
H	 0.8538009501	 1.9848267163	 0.24248208	 0.12458
H	-0.3282610689	 1.7836737835	-1.0605012687	 0.135649
H	-0.8720990106	 1.8458592567	 0.6287735064	 0.12533
H	-1.9537553437	-0.9341762915	 1.6116801612	 0.096447
H	-1.8986207036	-2.4404175984	 0.6143571442	 0.124605
H	 1.2445427625	-0.3529832083	 2.0182753581	 0.103249
H	 2.2581090212	-0.2234299388	-0.3651105114	 0.105232
H	 0.352132723	-2.0623543505	-1.2386856253	 0.293573
