16
gdb 71423	4.92722	1.16039	1.07531	3.7702	73.03	-0.2515	0.0287	0.2802	1116.2307	0.124063	-400.698884	-400.691376	-400.690432	-400.73079	28.88	
C	-0.1037918787	 1.4279324362	-0.044377819	-0.506764
C	 0.0193330621	-0.0551026527	 0.0167198121	 0.448518
O	-1.1267587027	-0.8664870109	-0.2885628083	-0.312719
C	-0.392428224	-1.9799151586	 0.2603759725	 0.068767
C	 0.5933167708	-1.0135763338	 1.006398652	-0.19229
C	 1.2664235881	-0.8821819873	-0.3610607365	-0.145028
C	 0.7095214605	-2.2337288428	-0.8314730266	-0.190029
C	 1.5814595102	-3.3549108872	-0.5202276743	 0.275994
N	 2.2615484088	-4.2559497801	-0.2695488587	-0.328756
H	 0.8360764666	 1.8982084337	 0.2586421841	 0.134138
H	-0.336880978	 1.7531890636	-1.0634105019	 0.140927
H	-0.8980216453	 1.7779609193	 0.6215045123	 0.14062
H	-1.0069945524	-2.7832559361	 0.6572375692	 0.113056
H	 0.9609533512	-0.9337378248	 2.0188700922	 0.115685
H	 2.2243611669	-0.4417347902	-0.6027929135	 0.113034
H	 0.3342190558	-2.3124438784	-1.8566194156	 0.124845
