17
gdb 67118	2.82924	1.6437	1.38281	4.174	81.55	-0.2305	-0.0707	0.1598	986.9751	0.135793	-384.622475	-384.615131	-384.614187	-384.654007	29.212	
C	-0.1822991344	 1.6246954642	-0.240520032	-0.514386
C	-0.0613614199	 0.1478066353	-0.01976077	 0.291428
C	 0.5176857574	-0.9706369789	-0.8109008264	-0.120959
C	 1.5489813107	-1.3177953707	 0.3405863835	-0.268494
C	 0.5010733923	-0.6174933106	 1.1883029507	 0.053425
C	-0.4474743494	-1.3208018647	 1.8487012121	-0.247527
C	-1.5768863266	-1.51888026	 0.8694675431	 0.387809
O	-2.5920854018	-2.15623006	 1.0088080187	-0.338173
C	-1.025392501	-0.9431108193	-0.4210581708	-0.202407
H	 0.7855213757	 2.1254931013	-0.1299035659	 0.127907
H	-0.555979503	 1.8335429429	-1.2475124574	 0.129654
H	-0.8771422085	 2.0727307748	 0.4773590357	 0.13794
H	 0.776531676	-0.9838127628	-1.8673194978	 0.104692
H	 1.7765572302	-2.3577570552	 0.5878319198	 0.117942
H	 2.4665851771	-0.760267945	 0.126337711	 0.123261
H	-0.2436457029	-2.1108068193	 2.5650427535	 0.117527
H	-1.6863320819	-0.822741052	-1.2753897578	 0.100363
