21
gdb 101151	3.68747	0.85445	0.8233	2.6752	81.39	-0.2377	0.0142	0.2519	1494.8511	0.182845	-424.234636	-424.225171	-424.224227	-424.269596	35.128	
O	 0.0864050763	 1.4156489156	-0.1066047982	-0.424147
C	 0.0862032759	 0.0144414536	 0.0493467308	-0.064929
C	-1.3519316164	-0.5290432312	 0.0442515071	-0.036679
O	-2.0240924904	-0.0106783094	-1.1181258039	-0.442341
C	-1.4282357159	-2.024339499	 0.1411195529	 0.352875
C	-1.8674679031	-2.7190139829	 1.192664504	-0.176069
C	-1.7455337881	-4.2102268687	 1.0017698011	-0.247872
C	-1.4721489616	-4.3396631025	-0.5181191012	-0.206288
C	-0.9300293611	-2.9552682517	-0.9543704282	-0.320825
H	-0.6031490439	 1.5943967532	-0.7604137661	 0.284192
H	 0.6654768844	-0.480019068	-0.7514232341	 0.073062
H	 0.5739570923	-0.2203753816	 1.0013563023	 0.110121
H	-1.8854739005	-0.0781281077	 0.8872541232	 0.097252
H	-1.6870364187	-0.4839526829	-1.8875813222	 0.283368
H	-2.2413136622	-2.2732560935	 2.108855084	 0.091045
H	-0.9166799548	-4.6113322742	 1.6027965979	 0.108056
H	-2.6419032886	-4.7564262908	 1.3158306493	 0.105921
H	-0.7888171132	-5.1564972659	-0.7624247335	 0.09991
H	-2.414343969	-4.5376052578	-1.0384197133	 0.109639
H	-1.2813318457	-2.6789513908	-1.956750951	 0.091507
H	 0.1679612343	-2.9449725938	-1.003437611	 0.112202
