19
gdb 121097	4.68299	0.81957	0.75884	0.9683	74.07	-0.2225	0.0578	0.2803	1529.6979	0.159882	-456.356689	-456.347317	-456.346373	-456.391907	33.37	
C	-0.1024722898	 1.4229131312	-0.8411439484	-0.225165
O	-0.1954563816	 0.0192907558	-0.8696802389	-0.238034
C	 0.8579681293	-0.6195530153	-0.1790755859	-0.057413
C	 0.6499408622	-2.1275658289	-0.2947359799	-0.013524
C	 0.748337868	-2.6396135557	-1.7584768864	-0.115713
O	 1.935918372	-3.4646539469	-1.7611650066	-0.254466
C	 2.3453940879	-3.5080179589	-0.4657822145	 0.468134
N	 3.4775577186	-4.2504617027	-0.2722994377	-0.574668
N	 1.7045415492	-2.8511669685	 0.4215738181	-0.362451
H	-0.1395656626	 1.813731357	 0.1879758494	 0.10544
H	 0.8287496262	 1.7812071862	-1.3082536978	 0.103689
H	-0.9533172162	 1.8205646756	-1.4001698551	 0.125142
H	 1.8349392234	-0.3422548418	-0.6118147339	 0.085068
H	 0.8728298256	-0.3286204248	 0.8826823922	 0.09923
H	-0.3315582118	-2.3594759053	 0.1346665963	 0.085945
H	-0.1011678831	-3.2600306462	-2.0574024651	 0.114174
H	 0.8772004935	-1.8365077156	-2.4877676866	 0.124235
H	 3.6217174621	-4.9986193722	-0.9323366768	 0.262498
H	 3.650791887	-4.491229793	 0.6907934378	 0.267877
