19
gdb 83749	2.70398	1.60431	1.3618	1.8342	74.19	-0.2322	0.0762	0.3084	1018.7099	0.160127	-422.986444	-422.978729	-422.977785	-423.018489	30.99	
O	-0.0766458719	 1.194683379	-0.5375157035	-0.427344
C	-0.0989425386	-0.1405813331	-0.1584085704	 0.107601
C	-0.3676462764	-0.4881891668	 1.2779281978	 0.012929
O	-0.8525285218	 0.6141906545	 2.0187760212	-0.278354
C	-2.2858342769	 0.6220581635	 1.9102404442	-0.153012
C	-2.5940963252	 0.0279081706	 0.5380366325	 0.348175
C	-3.9943012592	-0.3394866122	 0.1310372334	-0.341707
C	-3.2982533216	 0.8249753623	-0.5314142559	-0.290203
C	-1.3994120068	-0.8452363917	 0.2302331248	-0.233286
H	-0.2203167875	 1.7003629995	 0.2753552232	 0.292455
H	 0.6283146308	-0.7381032951	-0.7014541472	 0.099907
H	 0.2174597258	-1.201795174	 1.8496152818	 0.096816
H	-2.7162618886	 0.0079177067	 2.7156977948	 0.100756
H	-2.6245342779	 1.6547595281	 2.036057103	 0.110343
H	-4.1391060865	-1.249999405	-0.4412375108	 0.115205
H	-4.7971789728	-0.12570972	 0.8301385077	 0.111814
H	-3.635284445	 1.8271628567	-0.2854574746	 0.109092
H	-2.9526878824	 0.7072667835	-1.551722831	 0.126522
H	-1.5532884776	-1.8715038866	-0.0846362512	 0.092293
