16
gdb 49603	2.96474	1.56449	1.11441	6.3093	72.38	-0.2334	-0.004	0.2293	1054.7306	0.125893	-434.080234	-434.072631	-434.071687	-434.1126	28.974	
N	 0.0478536245	 1.3209218329	 0.1852244045	-0.5269
C	 0.0600575391	 0.064977176	 0.0231313535	 0.41481
N	 1.1458726554	-0.8057719921	-0.168041442	-0.358106
C	 0.7525544628	-2.1826747088	-0.063710936	-0.021051
C	 0.059310228	-2.6512946616	 1.2042597921	-0.326131
C	-0.7416059609	-2.1480507566	 0.0221987339	-0.003502
N	-1.0999932434	-0.7504524575	 0.0102672735	-0.098794
C	-2.4229951312	-0.3414716757	-0.0228439119	 0.156565
O	-2.8320473823	 0.7866757248	-0.0688871867	-0.274418
H	 0.9939256946	 1.6974965675	 0.1436710381	 0.212584
H	 2.0196643735	-0.5156492287	 0.24502976	 0.248599
H	 1.2812840867	-2.887483405	-0.6949189922	 0.1169
H	 0.0393030749	-3.7202191148	 1.3872251202	 0.127001
H	 0.1156463501	-2.0260988834	 2.0887587123	 0.13315
H	-1.3843289252	-2.8092003516	-0.5447472607	 0.125478
H	-3.0881166267	-1.2299407254	-0.0092160488	 0.073814
