22
gdb 94106	3.77611	0.818	0.75636	3.7995	84.42	-0.2465	0.0354	0.2818	1585.2022	0.195475	-404.399428	-404.389939	-404.388995	-404.435342	35.013	
C	 0.0770584557	 1.6033410032	 0.1433879706	-0.408082
C	 0.0289368906	 0.0833579973	-0.0019369548	 0.06037
C	 0.7340472605	-0.4632408659	-1.2615368791	-0.207556
C	 0.961554357	-1.9414998283	-0.9331513736	-0.230949
C	 1.4316734242	-1.9092817325	 0.5365906112	 0.059084
C	 0.6917595604	-0.6913272628	 1.1696545957	-0.240459
N	 1.2347956939	-3.162919328	 1.2439376434	-0.287906
C	 2.2404112868	-3.873192624	 1.8210922376	 0.150185
O	 3.4130538907	-3.5618839575	 1.8241798342	-0.32489
H	 1.1130742037	 1.9565531727	 0.2061869352	 0.114913
H	-0.3938746331	 2.1004926151	-0.7116572706	 0.112027
H	-0.4422561282	 1.936209513	 1.0484212244	 0.113579
H	-1.0245064458	-0.2222687471	-0.0603287024	 0.066938
H	 0.1530480617	-0.3040384777	-2.1747698841	 0.094675
H	 1.6991925572	 0.0430886512	-1.3977648771	 0.099346
H	 0.0124316025	-2.4902901275	-1.0062723767	 0.086405
H	 1.679239651	-2.4430763502	-1.5876767118	 0.106433
H	 2.5099660683	-1.7416869596	 0.5681659568	 0.125096
H	 1.4017166903	-0.0570269344	 1.710091224	 0.108546
H	-0.048081324	-1.0239622547	 1.9044740724	 0.092365
H	 0.2988766901	-3.5328319185	 1.313401807	 0.240323
H	 1.8614423766	-4.7969700239	 2.3032391877	 0.069558
