20
gdb 122243	2.78962	0.89574	0.752	3.6464	81.06	-0.2722	0.0198	0.2921	1586.3945	0.168976	-403.144582	-403.134607	-403.133663	-403.180368	35.678	
C	 0.1257930913	 1.4248531952	 0.2573763605	-0.384675
C	-0.1107888041	-0.0408995441	-0.115801038	-0.184059
C	 0.8310785663	-0.512988192	-1.2127218407	-0.070159
O	 0.537445414	-1.8850913405	-1.4892694469	-0.27964
C	 1.3284950711	-2.4578692398	-2.474834426	 0.301517
C	 2.7170001425	-2.9565236527	-2.1030799658	-0.313826
C	 1.5932036604	-3.9337889728	-2.3210156181	-0.309459
C	 1.1311650677	-1.9276339721	-3.8108923244	 0.239676
N	 0.969364282	-1.4842818097	-4.8670006232	-0.354135
H	 1.1464258671	 1.5855030307	 0.6216486644	 0.117607
H	-0.0274630791	 2.0854792894	-0.602705864	 0.123386
H	-0.5615725181	 1.7423673462	 1.0463214178	 0.121153
H	 0.022743337	-0.6838781417	 0.7618215012	 0.106398
H	-1.141952487	-0.1856717103	-0.4566818023	 0.114743
H	 0.6985019849	 0.0874979092	-2.1244217951	 0.116024
H	 1.8814027473	-0.4138570946	-0.8988039922	 0.093496
H	 3.5047550526	-2.8895938911	-2.8439169601	 0.140965
H	 3.0191459814	-2.7575107099	-1.0814568059	 0.135843
H	 1.1368410891	-4.3842190307	-1.4476658286	 0.143015
H	 1.5965641837	-4.5450794288	-3.2150927627	 0.142129
