18
gdb 45085	2.41098	2.05008	1.422	3.7669	74.96	-0.2422	0.0076	0.2498	949.0135	0.150481	-401.949114	-401.94211	-401.941166	-401.980314	28.471	
O	-0.3037929725	 0.6960604498	 1.2557459007	-0.340897
C	-0.1563823941	 1.3654526795	 0.2599399605	 0.337525
C	-1.2845758845	 1.769251329	-0.684717268	-0.305286
C	-1.3596990543	 3.2907393469	-0.7918307142	-0.031823
C	-1.0451137674	 4.1065909567	 0.435555192	-0.315761
C	-0.0473819274	 4.0480572789	-0.699277254	-0.029727
C	 1.2054871177	 3.219967406	-0.644851011	-0.035078
C	 1.881409407	 2.7826304532	 0.6262853838	-0.254797
N	 1.0837278561	 1.8552951935	-0.1560035642	-0.076685
H	-1.0990178063	 1.3367023101	-1.6755576656	 0.123499
H	-2.2142523221	 1.3492064545	-0.2939561586	 0.128162
H	-2.1190695383	 3.6693834168	-1.4688424723	 0.092098
H	-1.5652663073	 5.045827638	 0.5848589401	 0.116795
H	-0.8363038244	 3.5718156884	 1.3566979411	 0.138422
H	 0.0461798142	 4.9477942047	-1.2983502803	 0.092798
H	 1.8345971245	 3.316926721	-1.5286193258	 0.099726
H	 2.9520199898	 2.5985209457	 0.6317412074	 0.126732
H	 1.4661517893	 3.1183541274	 1.5725096983	 0.134297
