15
gdb 129952	3.20146	1.41263	1.04935	3.1915	67.69	-0.214	-0.0115	0.2025	1085.6766	0.113415	-453.903099	-453.895411	-453.894467	-453.935713	28.783	
N	 0.5780377417	 0.8920874243	-1.0032742606	-0.623881
C	 0.1754970213	-0.1948143169	-0.2270548102	 0.051221
C	-1.0304631771	-0.8278430598	-0.1697119878	 0.011012
O	-1.0172589597	-1.7817220356	 0.7877602375	-0.166646
N	 0.212754353	-1.7839420261	 1.4048487798	-0.214925
C	 0.9251960806	-0.8615407256	 0.7969845221	 0.34702
C	 2.3342465887	-0.6497284392	 1.1996146883	-0.025655
C	 3.442340479	-0.7593416867	 0.2341305287	-0.180272
O	 2.9870506621	 0.5203855845	 0.6814444363	-0.234978
H	 1.5509100223	 1.126499098	-0.8617523697	 0.264006
H	 0.3346501121	 0.8306443459	-1.9811101559	 0.247569
H	-1.9535113044	-0.7153377922	-0.7147445302	 0.142714
H	 2.5494872464	-0.8668533684	 2.243823125	 0.126769
H	 4.4300208648	-1.0504595873	 0.5859076314	 0.133379
H	 3.2220327593	-0.9963624351	-0.8049331847	 0.122667
