16
gdb 7314	3.97309	1.22286	1.01082	4.2698	63.07	-0.2395	-0.0288	0.2108	1126.1477	0.128749	-417.098122	-417.08893	-417.087985	-417.133104	31.263	
C	-0.0406115346	 1.3039706285	 0.1865096024	-0.358239
N	-0.0317001153	-0.1284561657	-0.0656481699	-0.110818
C	-0.1529401841	-1.0334840247	 1.0593699004	-0.2584
C	-1.5638005949	-1.0771889012	 1.624637078	 0.157355
O	-1.8257187882	-1.1865631641	 2.7930956991	-0.233916
C	 0.180570129	-0.6731245071	-1.3191092721	 0.457451
N	 0.2737759457	 0.2464228978	-2.3542509351	-0.570912
O	 0.3211906208	-1.8701339118	-1.5060785115	-0.403063
H	 0.71691826	 1.8062945966	-0.4216548388	 0.149417
H	-1.0171355031	 1.7699009304	-0.0092075959	 0.126491
H	 0.2034833272	 1.4828291491	 1.2365386549	 0.146058
H	 0.0895943687	-2.0344774747	 0.6835839084	 0.178035
H	 0.5469727995	-0.7805993998	 1.8639115443	 0.123303
H	-2.3592027058	-1.0079576391	 0.8457237989	 0.07848
H	-0.2689539065	 1.0941695095	-2.3057004679	 0.254039
H	 0.2557406917	-0.2053476236	-3.2558527053	 0.26472
