18
gdb 111028	2.06174	1.69468	1.10487	1.8892	80.38	-0.237	0.0255	0.2625	1137.1273	0.146628	-401.831173	-401.822612	-401.821667	-401.864461	32.407	
C	 0.4059925439	 1.1221387897	-0.3377029835	-0.25128
O	-0.3279623481	 0.1762587829	 0.4211401342	-0.251276
C	 0.4542850983	-0.5479092413	 1.3107038502	 0.127981
C	-0.2055182459	-1.7436883125	 2.0294952452	-0.09587
C	-0.1782269438	-2.5338894243	 0.697270073	-0.233786
C	 1.2187923199	-1.8598969318	 0.8557294889	 0.212222
N	 1.1717757099	-2.3212619336	 2.3092978115	-0.342179
C	 2.384519078	-1.9832748684	 0.0325295472	 0.048124
C	 3.3609406149	-2.0634099655	-0.6661980356	-0.36405
H	 1.1553846641	 0.6351844461	-0.9748582477	 0.12916
H	-0.3108254489	 1.654472827	-0.9662369707	 0.131381
H	 0.9171168243	 1.8464317098	 0.3139773551	 0.110386
H	 1.0647517071	 0.1110267871	 1.949143321	 0.065215
H	-0.9835337014	-1.726092857	 2.7912853002	 0.090404
H	-0.1716723581	-3.6189279298	 0.7968884372	 0.112969
H	-0.8064006443	-2.163478328	-0.1100214071	 0.11855
H	 1.7104199299	-1.6645111327	 2.8873675904	 0.208181
H	 4.2234143	-2.1441235878	-1.2806169597	 0.183869
