16
gdb 23406	2.93426	1.42529	1.37745	0.7364	67.94	-0.2516	-0.0075	0.2442	996.0702	0.125493	-474.958165	-474.950936	-474.949992	-474.989863	28.103	
O	-0.1442137564	 1.3183800037	-0.0280921909	-0.388573
N	-0.0096267452	-0.0800578298	 0.0159716174	-0.292975
C	-1.1321675895	-0.6566941074	 0.0162077026	 0.482223
C	-2.5914252435	-0.2479232037	 0.0189711088	-0.024792
C	-3.0622364138	-1.032930775	-1.2132489493	-0.082628
O	-2.282264931	-2.2561868681	-1.1436115437	-0.289522
C	-1.4428836381	-2.1330879586	 0.0176269786	-0.020315
C	-2.3543406924	-2.1928041971	 1.2514519362	-0.081488
O	-3.0796164642	-0.9366575677	 1.1826670254	-0.290203
H	 0.7735766139	 1.6115337084	-0.0089117705	 0.310702
H	-2.8472872009	 0.8060849307	 0.0720553275	 0.114352
H	-4.1291066499	-1.2700069716	-1.1520186573	 0.116029
H	-2.8501874406	-0.5134046178	-2.1557531454	 0.113233
H	-0.6237870758	-2.8457736612	-0.0346095877	 0.106089
H	-3.0566350047	-3.0302149837	 1.1926880558	 0.11595
H	-1.7929632878	-2.242627641	 2.1925536325	 0.111919
