16
gdb 23465	3.29431	1.38572	1.04673	1.7941	74.08	-0.2373	-0.0085	0.2288	1099.8974	0.125382	-434.00073	-433.993094	-433.99215	-434.033362	29.03	
O	-0.0713945426	 1.327051723	-0.2443777445	-0.392028
N	 0.0089093844	-0.0731854749	-0.2583130169	-0.197895
C	-1.1028694454	-0.6054869261	 0.0783928181	 0.33974
C	-2.3297870904	 0.1636417927	 0.5077979254	-0.245948
N	-3.4399348877	-0.6075777424	 1.0458383586	-0.212968
C	-3.3715086356	-1.8703851487	 1.1009464067	 0.047527
N	-2.2887781343	-2.7285202838	 0.7725993648	-0.124684
C	-2.0723126657	-2.9117639791	-0.6760444564	-0.252088
C	-1.1303312118	-2.086898551	 0.1411280246	-0.081394
H	 0.8246970194	 1.5858677625	-0.4837564883	 0.310771
H	-2.02680761	 0.9126306121	 1.2498645527	 0.15188
H	-2.7082190167	 0.7563992238	-0.3353832726	 0.146085
H	-4.2370102359	-2.4240941873	 1.4662201929	 0.121506
H	-1.7724911395	-3.9089554306	-0.9835089622	 0.134594
H	-2.7528545004	-2.3970044334	-1.3486303817	 0.134283
H	-0.1786072876	-2.5423546266	 0.3987325489	 0.120616
