21
gdb 56197	4.59728	0.71728	0.65559	2.06	80.34	-0.2645	0.02	0.2844	1754.4808	0.18121	-424.258668	-424.248686	-424.247742	-424.295851	34.819	
C	-0.1985046331	 1.4312057228	-0.1235732436	-0.477272
C	 0.0498515099	-0.043622677	 0.088300529	 0.430301
O	 1.1226892882	-0.5525219101	 0.2942216273	-0.350393
O	-1.1053881695	-0.7367819176	 0.014403193	-0.244732
C	-0.9964151216	-2.1635580681	 0.1937565306	-0.084457
C	-2.3810176724	-2.7518822111	 0.0599651755	 0.029853
C	-3.0703988645	-2.7556786303	-1.3336278486	-0.214769
C	-3.5876413816	-4.1882014521	-1.0310423539	-0.209131
C	-2.5110255003	-4.3016288456	 0.0830277946	-0.237951
H	 0.7414447352	 1.9741210209	-0.0329809921	 0.146959
H	-0.6311916373	 1.5988949206	-1.1141276114	 0.148691
H	-0.9183090283	 1.8017006714	 0.6115735519	 0.147795
H	-0.3130104724	-2.5668118112	-0.5621146663	 0.113509
H	-0.5568648009	-2.3692619633	 1.176306154	 0.117883
H	-3.0406548263	-2.3008691999	 0.8089453697	 0.078943
H	-3.8068281103	-1.975702831	-1.5375991535	 0.100444
H	-2.330170075	-2.7535960623	-2.1405772094	 0.099452
H	-4.5992991879	-4.1755475522	-0.6156536719	 0.103841
H	-3.5563314012	-4.9213082342	-1.8400586441	 0.098602
H	-1.5994501019	-4.7844301226	-0.2850304738	 0.102556
H	-2.7938399486	-4.7727941572	 1.0272048229	 0.099876
