18
gdb 86072	2.33201	1.27677	0.84701	6.2946	79.71	-0.2126	-0.0305	0.1821	1313.9379	0.147325	-439.116798	-439.107683	-439.106739	-439.150597	34.006	
N	 0.0637574928	 1.3486738425	 0.3712411058	-0.588734
C	-0.0430150363	 0.0497424974	-0.0262185341	 0.285992
C	-1.1436948335	-0.7592694874	-0.0612131844	 0.142217
C	-0.7744111888	-2.1452783472	-0.5435341455	-0.313998
C	 0.7559068871	-2.1802486025	-0.3838379593	 0.120417
O	 1.3319907816	-3.0196438813	-1.3664262328	-0.427738
C	 1.1879434767	-0.6938906687	-0.482483281	-0.34139
C	-2.4911631981	-0.3767066157	 0.2736569814	 0.044431
O	-3.4627895728	-1.1096956757	 0.2152101415	-0.300467
H	 0.8849094453	 1.8633717689	 0.1011171185	 0.262039
H	-0.7699403302	 1.9015234033	 0.4862747508	 0.265896
H	-1.2767600106	-2.9369965733	 0.0178993371	 0.119419
H	-1.0302338401	-2.2945897162	-1.6008315357	 0.118035
H	 0.9991442985	-2.5446869136	 0.6252725614	 0.077446
H	 2.2581295183	-3.1563796476	-1.1449076835	 0.283026
H	 1.4122318904	-0.4515892025	-1.5308072114	 0.127123
H	 2.0758025159	-0.4490661297	 0.1125016271	 0.104376
H	-2.6179640662	 0.6814054095	 0.6136893539	 0.021911
