14
gdb 61323	6.95287	0.58664	0.55317	2.6062	85.19	-0.257	-0.0304	0.2266	1852.3926	0.09799	-399.497413	-399.487847	-399.486902	-399.53262	33.441	
O	-0.0817853438	 1.4379494555	 0.055060648	-0.393514
C	 0.024209929	 0.0356357762	 0.0337298392	-0.006705
C	 0.6677249607	-0.5148696937	-1.2690902538	-0.420947
C	-0.0728840171	-0.1243877552	-2.4549144217	 0.374777
C	-0.6949745291	 0.1966837358	-3.4411016193	-0.211689
C	-1.394544427	 0.5583257837	-4.5505041696	 0.294304
C	-2.0147627818	 0.8789285459	-5.5353691717	-0.548933
C	 0.7746505665	-0.471201305	 1.203059089	 0.256466
N	 1.3919414521	-0.8494646709	 2.1035353564	-0.308198
H	 0.8045614502	 1.8181056567	 0.0366596287	 0.299028
H	-1.0030332519	-0.3365528255	 0.0994909897	 0.157783
H	 1.7036764398	-0.1545898046	-1.3271768208	 0.148586
H	 0.7268590637	-1.6081702351	-1.1952863264	 0.16237
H	-2.5608937013	 1.1616425562	-6.4010332578	 0.196672
