14
gdb 132061	2.33768	1.86783	1.03908	5.5683	69.91	-0.2029	-0.0199	0.1831	1046.8324	0.10239	-478.038587	-478.031067	-478.030123	-478.070339	29.225	
N	 0.0014118794	 1.3993877427	 0.1662261036	-0.586229
C	 0.0267479997	 0.0235703351	 0.0629773985	 0.239257
C	-1.1395417858	-0.6998168907	 0.0377079173	 0.046509
F	-2.3072660303	-0.0351695017	 0.0521451684	-0.086769
C	-1.2081349169	-2.1359114798	-0.0114604988	 0.34651
O	-2.2116855167	-2.8290162478	-0.039993744	-0.402806
N	 0.0769720198	-2.7219308072	-0.033816719	-0.380682
C	 1.2538175265	-2.0399572066	-0.0154640549	 0.047313
C	 1.2718517279	-0.6845786713	 0.0328150742	-0.246911
H	 0.7939590268	 1.8916241878	-0.2151101636	 0.256185
H	-0.8865646866	 1.8273487152	-0.0486830227	 0.26537
H	 0.0641290407	-3.7311323476	-0.0706248269	 0.262694
H	 2.1554713806	-2.6389210892	-0.0392022863	 0.135396
H	 2.2095517849	-0.145856079	 0.0606688742	 0.104164
