19
gdb 78386	2.79737	1.45146	1.22122	2.5485	74.34	-0.2262	0.0658	0.292	1076.7926	0.159307	-422.952551	-422.944581	-422.943637	-422.984566	32.134	
O	-0.0440509761	 1.3546765439	 0.0039555692	-0.438123
C	 0.0113477596	-0.0470136983	 0.0379199179	 0.084216
C	-0.5057412113	-0.6726758644	 1.3097078418	-0.122047
C	-1.3507189393	-0.6589502677	 0.015428247	-0.060945
C	-1.3428185228	-2.1999690621	-0.0140117797	-0.05779
C	-0.2319430158	-2.9838314746	-0.770259632	 0.107568
O	 0.2225485853	-2.3727714044	-1.956771659	-0.419924
C	 0.6799770861	-2.9326089154	 0.5092549535	-0.300613
C	-0.4712618298	-2.2151087239	 1.2789738295	-0.030231
H	 0.6849727374	 1.6886957714	 0.5366530612	 0.284256
H	 0.8237167078	-0.4816057747	-0.5380080511	 0.096224
H	-0.6169896179	-0.062484661	 2.199128205	 0.081014
H	-2.2018906888	-0.0391224423	-0.237881546	 0.094146
H	-2.3400090803	-2.6403454822	-0.029540999	 0.067349
H	-0.5618411329	-4.0134541041	-0.9691097813	 0.068235
H	 0.8800399441	-2.9492948107	-2.3589484511	 0.283755
H	 0.9358918782	-3.9191735658	 0.9044208232	 0.094103
H	 1.6008937297	-2.3566110873	 0.390296717	 0.100232
H	-0.8334899333	-2.6969795263	 2.186636074	 0.068573
