21
gdb 113246	4.41457	0.79386	0.75521	1.9744	85.52	-0.2538	0.0499	0.3037	1597.4073	0.178605	-387.050343	-387.039772	-387.038828	-387.086266	38.477	
C	 0.672217739	 1.4765917836	 0.0729807162	-0.371856
C	-0.1855728512	 0.2209300771	-0.1304065902	-0.223217
C	 0.2603009448	-0.5665746854	-1.3393854206	 0.025183
O	 1.498468421	-1.2889675346	-1.2429726997	-0.292282
C	 0.2944141191	-2.0366248118	-1.459142841	 0.376172
C	-0.127497506	-2.9638181728	-0.3417541548	-0.46528
C	 0.1741727079	-2.6251124057	-2.8693698896	-0.418611
C	 0.9330230021	-3.8574705374	-3.0559306332	 0.314964
C	 1.5573644213	-4.8744728109	-3.1982765771	-0.448255
H	 1.7211803324	 1.2031198406	 0.2196705921	 0.136401
H	 0.6173342189	 2.1405101386	-0.7966840464	 0.11529
H	 0.3398829242	 2.0427679985	 0.9478921521	 0.113505
H	-0.1414898146	-0.4037132468	 0.7657807238	 0.10492
H	-1.2370219476	 0.5040437573	-0.2713972521	 0.100432
H	 0.1653265919	-0.008995007	-2.2766326677	 0.077939
H	 0.0561857222	-2.519371596	 0.6366644852	 0.129126
H	-1.1925838255	-3.2078217226	-0.423215038	 0.118298
H	 0.4362801674	-3.8990461546	-0.404783206	 0.143556
H	-0.8864800902	-2.8135673157	-3.0847950545	 0.130295
H	 0.5146615994	-1.8733711028	-3.5898814655	 0.136685
H	 2.1148349633	-5.7680996716	-3.3322336931	 0.196736
