23
gdb 86199	2.37631	1.37945	1.09787	2.3198	81.34	-0.2513	0.062	0.3133	1237.122	0.205051	-425.440713	-425.430553	-425.429609	-425.475413	38.588	
C	-0.443926962	 1.4823825124	 0.0101370248	-0.433504
C	-0.006785764	 0.0204960534	 0.0827083597	 0.029137
C	 0.6096955123	-0.5296588272	-1.2201446824	-0.247575
C	 1.489680232	-1.7414426373	-0.8091103812	 0.116378
O	 2.8124713601	-1.6566535431	-1.3251906966	-0.4264
C	 1.5362919801	-1.7082147892	 0.7466842677	 0.011527
C	 2.8533813764	-2.1666907362	 1.369110731	-0.400338
C	 1.0839780728	-0.2894619086	 1.1315120034	 0.090154
O	 2.2011905411	 0.5851243763	 1.0194251022	-0.429906
H	 0.4019724458	 2.1315922795	-0.2413796675	 0.115511
H	-1.2057836953	 1.6291737543	-0.7622213177	 0.117554
H	-0.8705821001	 1.8244148375	 0.960475093	 0.108055
H	-0.8805385263	-0.5908605563	 0.3487422773	 0.068217
H	-0.1476344631	-0.7802895405	-1.9693798727	 0.085369
H	 1.2758855849	 0.2247642659	-1.6520264368	 0.108189
H	 1.0340241792	-2.6867949649	-1.1398179026	 0.053828
H	 2.7532223314	-1.6638096501	-2.2852036621	 0.278848
H	 0.7341304603	-2.3730373664	 1.0926822124	 0.069
H	 3.6693786124	-1.5077589519	 1.0736653592	 0.14894
H	 2.7814797667	-2.1620327239	 2.4619049338	 0.097417
H	 3.1018176125	-3.1828388441	 1.0489998984	 0.10759
H	 0.6832348988	-0.2621777506	 2.1566343172	 0.048754
H	 1.926005924	 1.4587145213	 1.3122337597	 0.283251
