17
gdb 69153	2.6006	1.65921	1.29193	2.5959	71.91	-0.2318	-0.0203	0.2115	1003.904	0.136424	-421.816498	-421.809109	-421.808165	-421.848028	30.009	
O	-0.1127777647	 1.3679325721	 0.0334830255	-0.46458
C	-0.0073763557	-0.0172053256	 0.0457918644	 0.417279
C	-0.496850805	-0.7191672703	 1.2562958968	-0.33301
C	 0.9969294173	-0.7751906732	 0.9036944436	-0.238036
C	 1.5677957458	-1.8839535991	 0.0560451513	 0.401631
O	 2.5296426268	-2.5553093713	 0.3454669872	-0.332661
C	 0.8907162269	-1.8894685484	-1.2982873458	-0.144698
C	-0.6077190947	-2.1336765305	-1.38764789	-0.29999
C	-0.0843581621	-0.7312420262	-1.3127788539	-0.126505
H	 0.6365503645	 1.7234483272	-0.4581163307	 0.286425
H	-0.7122474219	-0.0796786663	 2.1054052423	 0.134398
H	-1.1206466892	-1.601548033	 1.195541212	 0.125853
H	 1.6762601494	-0.2946868462	 1.5975527802	 0.113421
H	 1.5091094232	-2.1771726222	-2.1399151658	 0.11006
H	-0.9636928086	-2.4767652657	-2.353374609	 0.125413
H	-1.1362653927	-2.5747898844	-0.5523989329	 0.128024
H	-0.1940859493	-0.0817253471	-2.1736586454	 0.096976
