22
gdb 112662	3.11201	1.02557	0.82262	3.8417	83.54	-0.2352	0.0373	0.2725	1469.8085	0.194833	-404.41553	-404.40588	-404.404936	-404.450196	36.	
C	 0.0486113602	 1.617870529	-0.0663274361	-0.394569
C	 0.0394154503	 0.0860552283	-0.0716782914	-0.177664
C	-1.3524853805	-0.5308120355	 0.0811229108	 0.051655
C	-1.3624263342	-2.0763681277	 0.0337215927	-0.240661
C	-2.5481342883	-2.4918882257	 0.9207051277	-0.101545
C	-2.4338340677	-3.8367005405	 1.6325046946	-0.399884
C	-2.6866588031	-1.3148354897	 1.8992701276	 0.4148
O	-3.3303784713	-1.2949725691	 2.9266021118	-0.390451
N	-1.9556580093	-0.2778497899	 1.3845769634	-0.321504
H	 1.0591988794	 2.0046866882	-0.2266471148	 0.122195
H	-0.592175792	 2.0222299446	-0.8577737883	 0.119115
H	-0.3034999621	 2.0233936268	 0.8886474268	 0.115193
H	 0.463641321	-0.2772599429	-1.016255068	 0.101845
H	 0.6804616992	-0.2970645424	 0.731692963	 0.103769
H	-1.99780256	-0.1310121571	-0.7192318058	 0.073431
H	-1.4255916681	-2.4522526162	-0.990148222	 0.104457
H	-0.4287351919	-2.4525613775	 0.4695398941	 0.105079
H	-3.471717045	-2.4831712922	 0.3237515687	 0.099247
H	-1.4947725415	-3.9042415179	 2.1923464279	 0.117032
H	-3.2558145639	-3.9500853835	 2.3439880695	 0.14146
H	-2.4657606452	-4.6682275288	 0.9219376447	 0.109524
H	-2.0439075358	 0.6431040896	 1.7844235333	 0.247476
