20
gdb 98599	2.58136	1.28499	1.02451	2.4527	77.09	-0.2457	0.0419	0.2876	1256.588	0.168721	-440.304277	-440.293987	-440.293043	-440.339816	36.015	
C	 0.0123354995	 1.0457252396	 0.3354049593	-0.229595
O	-0.0517483295	-0.3332419426	-0.0376638021	-0.244871
C	-1.3042490039	-0.8504459153	-0.0693025031	 0.485641
O	-2.3032722683	-0.2293863284	 0.2105511023	-0.408005
N	-1.2730764466	-2.1421880203	-0.5487136807	-0.149243
C	-0.5044402952	-3.2636551546	-0.0281058978	-0.011435
C	 0.3648376979	-3.1335493605	 1.1998040783	-0.408836
C	-2.0154382128	-3.2573116433	 0.0108929293	-0.008918
C	-2.8233456276	-3.1168503041	 1.2793538952	-0.406989
H	 1.0707264695	 1.3077879629	 0.3167078775	 0.128474
H	-0.5453241663	 1.665359854	-0.3715880958	 0.140027
H	-0.4009390336	 1.2002516004	 1.3356832942	 0.135288
H	-0.0487311539	-3.8591181699	-0.8190347715	 0.097965
H	-0.1252173366	-2.582279188	 2.0051342578	 0.125721
H	 0.6271160983	-4.1282045854	 1.5751056908	 0.122509
H	 1.2905531086	-2.6059325327	 0.9538544188	 0.139724
H	-2.5131707605	-3.8512736043	-0.75546641	 0.098067
H	-2.2843803878	-2.585249715	 2.0655324001	 0.125919
H	-3.7406299773	-2.5569085777	 1.0797363802	 0.150468
H	-3.0955408339	-4.1082652047	 1.6557030873	 0.118092
