19
gdb 68792	2.67821	1.31005	1.13512	3.887	80.65	-0.2388	0.0313	0.2701	1164.087	0.158694	-382.058303	-382.049273	-382.048329	-382.091736	33.983	
C	-0.1344838677	 1.5515629982	 0.0686163674	-0.511052
C	 0.1260361301	 0.0789702395	 0.0196269064	 0.301382
C	 0.6992233322	-0.709512336	-1.1647200196	-0.280918
C	 1.3187703768	-1.7367271928	-0.1387741222	-0.183587
C	 2.7693421118	-1.8051063482	-0.1688012584	 0.266905
N	 3.9254363541	-1.84179835	-0.1750839989	-0.337592
C	 0.7320761709	-0.865390697	 1.0061624491	 0.278389
C	 1.3089763197	-0.6909868441	 2.3750820384	-0.516464
N	-0.7289211221	-0.8999172101	 0.7472159815	-0.411011
H	 0.7195409295	 2.1150603698	-0.3213282139	 0.133243
H	-1.0130091643	 1.8161819259	-0.5314081582	 0.134681
H	-0.3186302539	 1.8870816261	 1.0948926367	 0.121382
H	-0.0312738247	-1.1274621045	-1.8603808061	 0.117351
H	 1.4725240859	-0.1662497062	-1.7102733585	 0.126629
H	 0.8952593636	-2.7435097595	-0.1789901937	 0.127705
H	 2.3884050915	-0.5182475759	 2.3260884913	 0.151102
H	 0.8500434646	 0.1620105031	 2.8860760152	 0.121561
H	 1.138796659	-1.5818703788	 2.9909034687	 0.135852
H	-1.1726729469	-0.3962795296	 1.5163160446	 0.224441
