15
gdb 27835	1.96254	1.81416	0.94329	4.0295	73.93	-0.1951	-0.0028	0.1923	1155.842	0.11381	-454.022927	-454.014737	-454.013792	-454.055369	31.543	
N	 0.0182010689	 1.3820863256	-0.138537447	-0.584492
C	 0.0025648624	 0.0054254672	-0.0553652858	 0.424063
C	-1.1855970719	-0.6971156076	-0.0297435249	-0.385019
C	-1.2225300073	-2.1245273099	-0.0020434311	 0.430451
O	-2.1921510834	-2.8670353696	 0.0247628941	-0.418244
N	 0.0797917797	-2.7229615814	 0.0014036816	-0.466575
C	 1.250392656	-2.0374189136	-0.019104714	 0.527016
O	 2.4106974766	-2.7281439097	-0.0088538161	-0.417956
C	 1.2578313397	-0.6754552916	-0.0476568055	-0.363245
H	 0.8506977927	 1.8488027188	 0.184295701	 0.254123
H	-0.8351308644	 1.8579021218	 0.108671124	 0.256982
H	-2.1410077631	-0.1874604805	-0.0323696534	 0.09063
H	 0.0551285376	-3.7328272101	 0.0355508149	 0.246614
H	 2.2435647744	-3.6763871401	-0.0242416426	 0.304296
H	 2.200078692	-0.1473456094	-0.0821692152	 0.101354
