19
gdb 85235	2.66531	1.57446	1.14206	4.0277	76.23	-0.2293	0.0279	0.2572	1115.2354	0.160018	-419.23727	-419.228572	-419.227628	-419.270244	33.206	
C	-0.0624792072	 1.5991251444	 0.0539049865	-0.397482
C	 0.0186579041	 0.0728794833	 0.0144728836	 0.043999
N	 0.7826701514	-0.4285604705	-1.1252129299	-0.332557
C	 1.7896476869	-1.3111789195	-0.8437906308	 0.4164
O	 2.4860041963	-1.8988878055	-1.6432473473	-0.390489
C	 1.8451111764	-1.4281143419	 0.6712173424	 0.20239
C	 2.3474326731	-2.7065247264	 1.275613885	-0.493367
N	 2.1811742402	-0.0973132112	 1.2536378348	-0.360794
C	 0.7760910905	-0.5435514665	 1.1911514235	-0.116089
H	 0.9397071442	 2.0221533352	 0.1512268672	 0.148854
H	-0.5285530878	 1.991272718	-0.8560743257	 0.112294
H	-0.6701251045	 1.9252125751	 0.9043119176	 0.11659
H	-0.9988106863	-0.3452047899	-0.0050051547	 0.083056
H	 0.6220936517	-0.1207837938	-2.0710668983	 0.248479
H	 3.3732556636	-2.8982742693	 0.9472154609	 0.150139
H	 2.3293710322	-2.6602797121	 2.369262663	 0.109457
H	 1.7368719002	-3.5576370603	 0.9582516563	 0.135088
H	 2.5300839177	-0.2471486705	 2.1994123944	 0.230348
H	 0.2393784974	-0.7576569085	 2.1088454616	 0.093685
