18
gdb 19568	3.84979	1.99178	1.83557	1.6763	71.01	-0.2406	0.0884	0.329	813.4276	0.155772	-347.763752	-347.757298	-347.756354	-347.793995	26.496	
C	-0.0135354823	 1.561978823	 0.011019012	-0.35916
C	 1.2885462716	 0.7692870321	-0.0064418984	-0.358297
C	-0.024510695	 0.0713476502	 0.0025166827	 0.455679
C	-0.5391208577	-0.9865146164	 0.9804239839	-0.014369
C	-2.0721462237	-0.9212472316	 0.7999808802	-0.21513
C	-2.0876496831	-0.9122486206	-0.7656146206	-0.215129
C	-0.5585040199	-0.9752487231	-0.9771192813	-0.014378
O	-0.1646877457	-2.0009497558	-0.0080240682	-0.301559
H	-0.2822746254	 2.0778089752	 0.9277996157	 0.113601
H	-0.3002871397	 2.0883457733	-0.8942429441	 0.113601
H	 1.8696253354	 0.7683090518	-0.9231757964	 0.115747
H	 1.8876631784	 0.7577773585	 0.8985336049	 0.115747
H	-0.1193984775	-1.1484340005	 1.9735642628	 0.077613
H	-2.5614250262	-1.8011269407	 1.2226126668	 0.105855
H	-2.5128175719	-0.024385172	 1.2433472795	 0.098356
H	-2.5852945888	-1.7872728996	-1.1885598185	 0.105856
H	-2.5369195782	-0.0104041012	-1.1898298098	 0.098355
H	-0.1585508703	-1.1256803628	-1.9801746413	 0.077613
