16
gdb 99451	2.6634	0.82356	0.70002	2.3544	82.49	-0.2463	-0.0669	0.1795	1596.6442	0.120776	-400.66484	-400.654536	-400.653592	-400.701968	34.736	
C	 0.2627909884	 1.3190453342	-0.0424581095	-0.329488
N	-0.0363597343	-0.1098003864	 0.0543887256	-0.263969
C	-1.4656805577	-0.4407096649	 0.0875120928	-0.376162
C	-2.1077939652	 0.0771479375	 1.3028181956	 0.385248
C	-2.6435104273	 0.4892956145	 2.2946507346	-0.449239
C	-2.2218477748	-0.0124782969	-1.1092148437	 0.195522
C	-2.767562299	 0.331420885	-2.1311498031	-0.042254
C	-3.466678465	 0.7254235571	-3.3281693893	 0.026789
O	-2.9773401232	 1.3747710095	-4.2235047618	-0.227593
H	 1.3477097909	 1.4428203254	-0.0855935488	 0.126522
H	-0.1826111806	 1.8130855398	-0.9196347578	 0.120503
H	-0.1004891154	 1.8229119502	 0.8573966722	 0.14129
H	 0.3762062962	-0.5998000515	-0.7329928598	 0.231673
H	-1.5262887606	-1.5384093669	 0.1248653497	 0.14901
H	-3.1143167886	 0.8537599933	 3.1744600395	 0.208809
H	-4.5192775138	 0.37951205	-3.3712498262	 0.103337
