18
gdb 35183	3.37624	1.19401	1.09225	2.4492	83.4	-0.2226	0.0523	0.2749	1165.4932	0.147081	-364.711997	-364.703937	-364.702993	-364.744535	31.876	
C	-0.0353386139	-1.1544546469	-0.1043464221	-0.467301
C	-0.0152710944	 0.0477212453	-0.0516115781	 0.338873
C	 0.0200764633	 1.4781942172	 0.0087030292	-0.258374
C	 0.5339296893	 2.1748944274	 1.2687069128	-0.36939
C	 1.3519897892	 2.2006475576	 0.0229375959	 0.407773
C	 2.768818738	 1.6113390099	-0.1730201902	-0.312555
C	 3.1101553709	 2.8793103802	-0.973937436	-0.036875
N	 2.1665182017	 2.925109881	-2.1169762104	-0.330222
C	 1.7366333849	 3.4243298272	-0.7827882086	-0.159785
H	-0.0571542401	-2.2144805478	-0.1548980337	 0.192172
H	-0.7828537758	 1.9827502873	-0.5217935916	 0.111607
H	 0.0217734912	 3.0820085069	 1.5740269016	 0.115841
H	 0.8613791792	 1.5403642402	 2.0851047324	 0.125319
H	 3.3233214263	 1.5311430699	 0.7653576914	 0.105578
H	 2.8307942225	 0.6725112948	-0.7277547825	 0.122573
H	 4.0599163389	 3.3972714727	-1.0141280251	 0.095565
H	 2.4135815876	 3.7470086198	-2.6695413394	 0.226697
H	 1.3933365111	 4.4430991072	-0.6469085657	 0.092503
