14
gdb 129990	7.07935	0.87477	0.78211	5.9581	67.79	-0.2278	0.0061	0.234	1369.368	0.102778	-466.205915	-466.197719	-466.196775	-466.23929	29.217	
N	 0.004392626	 1.3108521906	 0.2148082935	-0.597928
C	-0.0331548502	-0.0521059726	 0.0327468642	 0.441708
N	-1.126480021	-0.7977168291	 0.0452807432	-0.381124
C	-0.6183726338	-2.047364808	-0.0967350611	 0.454872
O	-1.469957266	-3.0930468505	-0.1421770282	-0.206508
C	-0.9584553217	-4.3477743899	 0.0389904864	 0.116802
N	-1.7083840313	-5.3340137456	-0.1795669506	-0.426157
N	 0.6897160688	-2.1522406398	-0.2119824255	-0.324296
N	 1.0605689629	-0.8280350752	-0.115228655	-0.261686
H	 0.7004808624	 1.8069017217	-0.3231996745	 0.259864
H	-0.9129717498	 1.7253943842	 0.1278283483	 0.276618
H	 0.0791289359	-4.3427063239	 0.378885326	 0.135072
H	-1.2078549192	-6.1966549275	 0.0266973631	 0.235212
H	 2.0353195769	-0.5823624745	-0.1072541798	 0.277551
