17
gdb 112228	2.01309	1.50288	0.97736	3.5159	76.47	-0.2404	-0.0261	0.2144	1226.337	0.132335	-421.781365	-421.772044	-421.7711	-421.816022	33.572	
C	-0.1274139198	 1.4500454745	-0.2072980011	-0.239321
O	-0.0897471577	 0.1378718202	 0.3108392752	-0.230292
C	-1.2783625695	-0.5743658112	 0.120851376	 0.117186
C	-1.4138625669	-1.1922964349	-1.3085174018	-0.38326
C	-0.9070335282	-2.5202174479	-0.7244836104	 0.401826
O	-0.4540852646	-3.5196372947	-1.1862947575	-0.277674
C	-1.1356897362	-2.0118539494	 0.7337808537	-0.34759
C	-0.1688393247	-2.2823252461	 1.7678805812	 0.345314
C	 0.641940348	-2.5327839228	 2.6184840147	-0.426295
H	 0.8338777149	 1.9128274008	 0.025183297	 0.137661
H	-0.2724059409	 1.4631373315	-1.2978196966	 0.108983
H	-0.9323411818	 2.0416129502	 0.2551196038	 0.110617
H	-2.1448637606	-0.0026660997	 0.477323331	 0.075066
H	-2.4436972689	-1.2698178812	-1.6716348545	 0.133222
H	-0.7904403463	-0.7514944749	-2.0892016797	 0.141721
H	-2.1338056441	-2.3607927375	 1.033002495	 0.134858
H	 1.3645809973	-2.7464425868	 3.3664172739	 0.197979
