18
gdb 47266	2.65583	1.53328	1.13294	3.7241	79.29	-0.234	-0.0183	0.2157	1095.3413	0.149843	-401.977945	-401.969975	-401.96903	-402.010443	30.869	
O	 0.428673805	 0.035907835	 0.5962334277	-0.374886
C	 0.149050512	 1.096309469	 0.0639617754	 0.349295
N	-0.9965400516	 1.7889572184	 0.3755097866	-0.29535
C	-1.6721012981	 2.7657393393	-0.4764239138	-0.22499
C	-1.3266297489	 4.2235432912	-0.2651910984	-0.026665
C	-0.1412588455	 4.740031572	 0.053825067	-0.057257
C	 1.1355806466	 3.9589142459	 0.3060468937	-0.312759
C	 1.4922690312	 3.0047967339	-0.8140254134	-0.043643
C	 1.0481885975	 1.7517038088	-0.9325774109	-0.162295
H	-1.5618705054	 1.3187197615	 1.067868957	 0.2451
H	-1.5015601181	 2.5066384248	-1.5301498571	 0.134838
H	-2.7461851535	 2.637612554	-0.3095720213	 0.117334
H	-2.1553972434	 4.9073901663	-0.4360991728	 0.091238
H	-0.0664813202	 5.8204718982	 0.1475373349	 0.093944
H	 1.9603605775	 4.6642892803	 0.4415556736	 0.107667
H	 1.0437119019	 3.4049014632	 1.2463771149	 0.140872
H	 2.1846899717	 3.3834252492	-1.5628423724	 0.103682
H	 1.4186663212	 1.1023881591	-1.7196021907	 0.113875
