18
gdb 71996	1.97173	1.79691	1.73213	2.1033	72.32	-0.2142	0.0495	0.2636	970.4745	0.146429	-439.001568	-438.993067	-438.992123	-439.034008	32.98	
C	-0.0325223578	 1.4866402763	 0.1055852466	-0.53006
C	-0.0263432996	 0.0005105655	 0.0621546969	 0.231316
N	 0.3421624932	-0.8823078321	-1.1643885906	-0.195903
C	 1.3426027138	-1.6188509839	-0.2872647938	-0.246042
C	 0.5548943963	-1.1095163648	 0.89700815	 0.229848
O	 0.8521451533	-1.0347005876	 2.250092942	-0.471533
C	-0.9376058117	-1.1350490944	 0.4700568672	 0.303591
O	-1.9361226954	-1.1872416148	 1.416707565	-0.47367
C	-0.9463117734	-1.667326824	-0.9371341882	-0.228652
H	 0.961284626	 1.9015005399	-0.0952922176	 0.129165
H	-0.729559205	 1.8996462644	-0.6312458818	 0.131748
H	-0.3475218885	 1.8276313483	 1.0970421519	 0.1332
H	 1.4125093721	-2.6956024802	-0.482250999	 0.094374
H	 2.3290172159	-1.1576453234	-0.3898167049	 0.113032
H	 0.8858894503	-1.9330855211	 2.6021567355	 0.290039
H	-1.5078836941	-1.1314999996	 2.2825087157	 0.279838
H	-1.7393957105	-1.2524169762	-1.565054574	 0.114695
H	-0.860722695	-2.7460074925	-1.1131860309	 0.095014
