21
gdb 40356	3.69721	1.23246	1.14791	1.7543	81.29	-0.2349	0.0878	0.3227	1154.2197	0.184595	-387.054306	-387.046704	-387.04576	-387.086516	31.053	
C	-0.2225164766	 1.3325027527	-0.3190347313	-0.274155
C	 1.1840372347	 1.0929747069	 0.169151676	-0.268744
C	 0.2081344729	-0.0574223322	 0.0776773508	-0.119158
C	-0.3151531986	-0.7247622676	 1.3097534361	 0.309477
C	-0.6985365646	 0.0187698428	 2.6370612386	-0.282111
C	-1.3949926321	-1.3363607928	 2.9078080835	 0.101639
C	-1.7387577187	-1.3809679268	 1.4018579577	-0.27345
O	-0.2995807547	-2.2578834257	 3.0293570644	-0.280873
C	 0.5223630893	-1.872216708	 1.9068416143	-0.107722
H	-0.9001116222	 1.8645192146	 0.3398249959	 0.110553
H	-0.3760503213	 1.5376492938	-1.3726189185	 0.11157
H	 1.9973161003	 1.1377338354	-0.5465195289	 0.111961
H	 1.4410865692	 1.4593057647	 1.1573224816	 0.114502
H	 0.3747780378	-0.7451599227	-0.7490521783	 0.081244
H	 0.1025130138	 0.3116345038	 3.320611767	 0.098486
H	-1.4000205828	 0.8399018103	 2.478353002	 0.100498
H	-2.1111070005	-1.5064149147	 3.7098152074	 0.077841
H	-2.5326622572	-0.6910884106	 1.1101769342	 0.099227
H	-1.8871728274	-2.366287318	 0.9525114051	 0.096008
H	 0.6453026017	-2.7172272913	 1.2179702513	 0.094786
H	 1.511254487	-1.5475419348	 2.2519895812	 0.09842
