20
gdb 82487	3.29141	1.52555	1.43698	0.6498	78.15	-0.2077	0.0717	0.2794	1019.4942	0.170988	-403.08804	-403.08015	-403.079205	-403.119886	31.662	
C	-0.2457704934	 1.5786675385	-0.0557601346	-0.420947
C	 0.0177771409	 0.0870392313	-0.0588962066	 0.052073
C	 0.6836057733	-0.5781412707	-1.280519932	 0.072416
O	 1.8556454187	 0.1565000043	-1.7053587496	-0.342623
C	 2.6752214368	-0.4392896379	-0.6549033259	 0.432714
C	 4.0647375317	-0.7635467669	-1.1260358488	-0.490286
C	 2.3970456961	 0.2664997452	 0.6864356181	-0.218593
N	 1.0927094472	-0.4713767638	 0.8624734305	-0.183173
C	 1.5158986282	-1.4026547347	-0.2797180552	-0.105966
H	 0.5761037663	 2.128356594	-0.5203151904	 0.133877
H	-1.1581516009	 1.8018997158	-0.6186318546	 0.117774
H	-0.3836732939	 1.9433059017	 0.9677484401	 0.125126
H	-0.8977775052	-0.4627456707	 0.1941980722	 0.081666
H	 0.0902197322	-0.9360777379	-2.1257746477	 0.074492
H	 4.589888948	 0.1559464744	-1.4081436713	 0.131511
H	 4.6381605894	-1.2564590513	-0.3348579936	 0.121025
H	 4.0359529681	-1.4181744187	-2.0018817173	 0.127321
H	 3.0871964133	-0.0545720373	 1.4747473371	 0.10483
H	 2.3412278464	 1.3578054416	 0.6822123287	 0.108383
H	 1.5455622768	-2.4805011767	-0.1318774289	 0.078378
