25
gdb 94693	3.12923	1.29457	1.12714	0.083	92.07	-0.2717	0.0809	0.3526	1240.9606	0.2312	-352.372663	-352.363937	-352.362993	-352.405133	36.069	
C	-0.7943310921	 1.2607616907	 0.1703913394	-0.407949
C	 0.0767313345	 0.0196128373	-0.0491030208	 0.050847
C	 0.9429205152	 0.1673409547	-1.3246957083	-0.214555
C	 2.2304954679	-0.6880948678	-1.2976345193	-0.247565
C	 2.7706835689	-0.8658412259	 0.1367492779	 0.355853
C	 4.2045064635	-1.3670987532	 0.1607173896	-0.478795
C	 1.6977482109	-1.6411802243	 0.9574445961	-0.260441
C	 0.9860097529	-0.2790366389	 1.1601726404	-0.005514
C	 2.3875457253	 0.3805748121	 0.9986298572	-0.266262
H	-0.1753687854	 2.1448936496	 0.3652055892	 0.112804
H	-1.4098009496	 1.476089312	-0.7100214313	 0.108155
H	-1.4663273064	 1.1290295202	 1.0252100794	 0.107693
H	-0.5923595001	-0.8441678165	-0.1698856708	 0.065553
H	 0.3494510231	-0.0519450704	-2.2185308551	 0.089582
H	 1.2312247951	 1.2213086876	-1.4140271307	 0.097547
H	 2.0500579995	-1.68254298	-1.7262862046	 0.091549
H	 2.9908600059	-0.2144585651	-1.9310817474	 0.086563
H	 4.8849153149	-0.6504567976	-0.3147788404	 0.109574
H	 4.5515483644	-1.528669482	 1.1872392093	 0.105321
H	 4.3006311203	-2.3180708577	-0.3775691425	 0.110272
H	 1.1433197823	-2.4387225311	 0.4502925229	 0.080119
H	 2.1124359487	-2.0301918178	 1.8928301958	 0.084477
H	 0.4547042894	-0.1211466635	 2.1029825569	 0.05079
H	 2.9358707274	 0.3825455548	 1.9453313578	 0.08834
H	 2.4596870835	 1.3752751127	 0.5488534094	 0.086043
