18
gdb 133750	3.22912	0.80542	0.75373	3.0155	61.27	-0.2751	0.0676	0.3427	1494.2587	0.142286	-570.600585	-570.590641	-570.589697	-570.636533	35.246	
C	-0.5354723752	 1.2879516051	-0.2144913029	-0.400263
C	-0.1065906881	-0.1771787819	-0.0571361512	 0.025124
C	 0.5943649579	-0.6805897829	-1.322762533	-0.083623
O	-0.3173635829	-0.5786600065	-2.4034802014	-0.420429
C	 0.8119906626	-0.4205215405	 1.1527485147	-0.351044
C	 0.1342237658	-0.3005264969	 2.5032846682	 0.285374
F	-0.9556643808	-1.0821048588	 2.5857613205	-0.083344
F	 0.9689486312	-0.675709419	 3.4877945323	-0.079651
F	-0.2576064547	 0.9550240972	 2.7814721896	-0.078669
H	 0.3415802924	 1.9430858156	-0.2873117366	 0.106482
H	-1.1195018082	 1.4033443366	-1.1294526525	 0.137022
H	-1.13580031	 1.6278743539	 0.63076676	 0.127413
H	-1.0035536294	-0.7952227051	 0.0707176358	 0.102924
H	 1.5007394992	-0.0786336379	-1.505876912	 0.085115
H	 0.9167797107	-1.7242880306	-1.1760310467	 0.085325
H	 0.1442644859	-0.811962515	-3.2136891392	 0.28958
H	 1.2257733728	-1.4341731744	 1.1170127068	 0.125644
H	 1.6578996407	 0.2755700112	 1.1534097873	 0.127019
