16
gdb 33322	4.4372	0.82619	0.78041	5.7998	88.64	-0.2649	-0.038	0.2268	1448.6851	0.125349	-363.573285	-363.565401	-363.564457	-363.606382	29.377	
N	 0.0191821797	-3.726417906	-0.0407126259	-0.341911
C	 0.0278623749	-2.5641426832	-0.0182014656	 0.199909
C	 0.0393056061	-1.2008478707	 0.009223024	 0.036198
C	 0.0465355186	 0.0097929392	 0.0316148882	 0.124223
C	 0.0572778605	 1.4363600183	 0.0594508401	-0.234264
C	 0.4902398652	 2.2461155366	 1.2748455403	-0.057051
C	 1.6077931863	 1.5287689046	 2.0402991866	-0.236865
C	 2.4787071531	 1.5476859775	 0.7383127509	-0.236859
C	 1.334951659	 2.2644094601	 0.011968283	-0.057059
H	-0.7651574176	 1.8948993679	-0.4839985686	 0.130055
H	-0.1771128848	 3.0021712777	 1.6707783936	 0.102849
H	 2.0345452981	 2.1497264684	 2.829775083	 0.114901
H	 1.3549949706	 0.5503880585	 2.4566005031	 0.119061
H	 3.3628902676	 2.178595201	 0.843918166	 0.114905
H	 2.7800497814	 0.5813383943	 0.3262395017	 0.119057
H	 1.4358657613	 3.037105016	-0.7406943002	 0.10285
