20
gdb 33067	4.64567	0.74465	0.67646	2.6907	83.87	-0.1928	0.048	0.2408	1684.8079	0.171005	-403.188445	-403.178646	-403.177702	-403.223955	35.305	
C	 0.0211345798	 1.5085083321	 0.03117494	-0.501582
C	 0.0208317647	 0.0166788703	-0.0330519684	 0.328094
C	 0.0768052119	-0.8447167202	-1.1057252101	-0.327084
C	 0.0361149439	-2.1865153878	-0.613144761	 0.276435
C	 0.0980022836	-3.4481789364	-1.4223850091	-0.301586
C	 1.4960880405	-3.7255001164	-1.977939191	-0.05841
O	 1.4353788387	-4.9238450283	-2.7384993421	-0.420637
C	-0.0422708957	-2.0943143902	 0.7575766206	-0.191839
N	-0.0497328708	-0.7621445228	 1.0981220237	-0.296097
H	 0.8744961103	 1.9007534433	 0.5991113247	 0.123906
H	 0.0801495105	 1.9226920657	-0.9778916806	 0.137053
H	-0.8897987407	 1.905157206	 0.4975357145	 0.124344
H	 0.1331414841	-0.5447661226	-2.1424027354	 0.083468
H	-0.2049123464	-4.307313834	-0.8137483041	 0.101367
H	-0.5980275913	-3.4036109897	-2.2688006007	 0.10668
H	 1.8227334946	-2.874265602	-2.5960257425	 0.085248
H	 2.2087580272	-3.8132432547	-1.1426623202	 0.083587
H	 2.3130133546	-5.101220179	-3.088562089	 0.282995
H	-0.0988854168	-2.8639299956	 1.5113825263	 0.110663
H	-0.1162679327	-0.4070034877	 2.0359552442	 0.253394
