23
gdb 64251	2.9156	1.24408	1.17999	1.3296	85.8	-0.2214	0.0808	0.3021	1222.3091	0.204792	-388.29951	-388.290237	-388.289293	-388.33344	36.744	
C	 0.0355698817	 1.5555234212	 0.0514444257	-0.41189
C	 0.0386517669	 0.0254312573	-0.0247333275	 0.395383
C	-1.3826016568	-0.532836898	 0.0665048558	-0.420823
C	 0.8053361337	-0.4962866938	-1.2692524896	-0.268457
C	 2.2094747726	-0.7993667687	-0.7238056729	-0.298734
C	 1.8767173343	-1.2426998433	 0.6842873438	 0.470377
C	 1.9234854538	-2.687552299	 1.1183576587	-0.328295
C	 2.8662561798	-1.6535933751	 1.7200371309	-0.341569
O	 0.7935832173	-0.4542399901	 1.116362495	-0.337705
H	 1.0488332046	 1.953289294	-0.0603418771	 0.112028
H	-0.5941048246	 1.9857879066	-0.7344345754	 0.107609
H	-0.3499481068	 1.8829024978	 1.0213913828	 0.121201
H	-1.9833878044	-0.2124343314	-0.7916576968	 0.109303
H	-1.3632300456	-1.6263523801	 0.0844049021	 0.115846
H	-1.8750497063	-0.1834741425	 0.9790076863	 0.118187
H	 0.3403462551	-1.4158566749	-1.6387459092	 0.100826
H	 0.8036023975	 0.229891069	-2.0858473121	 0.099037
H	 2.7452724778	-1.5573599951	-1.2996686269	 0.100772
H	 2.8248280669	 0.1077915802	-0.7010253312	 0.104425
H	 1.1126728625	-3.0371005329	 1.747529879	 0.115812
H	 2.3335613561	-3.4304207808	 0.4412615697	 0.104834
H	 3.9167668594	-1.6875202149	 1.4500478765	 0.110065
H	 2.6696658545	-1.3358618457	 2.7378877726	 0.121769
