23
gdb 122747	6.25729	0.41649	0.40601	0.699	94.17	-0.2409	0.0436	0.2844	2809.513	0.202589	-388.26291	-388.251126	-388.250182	-388.302997	39.766	
C	 0.32372074	 1.4232511646	 0.2205186213	-0.383137
C	 0.4231724599	-0.0987747986	 0.0930727005	-0.183793
C	 0.553323008	-0.5536830343	-1.3536502617	-0.016193
O	 0.6389415515	-1.9636892238	-1.3789699201	-0.245671
C	 0.7630076925	-2.4746069654	-2.6928228852	-0.208144
C	 0.8468754033	-3.9284030289	-2.6652720909	-0.022446
C	 0.9095399633	-5.1306318191	-2.6661200556	 0.158433
C	 1.0127631186	-6.5857210586	-2.6567468425	-0.316286
C	 2.4655689029	-7.0926993685	-2.6100359778	-0.364585
H	 1.2114215444	 1.9178718315	-0.1892137733	 0.115892
H	-0.5490686039	 1.8133478854	-0.3148348099	 0.115944
H	 0.2311102495	 1.7241204099	 1.2679595566	 0.117568
H	 1.2875471245	-0.4726642541	 0.6534582101	 0.108643
H	-0.4616577189	-0.5765205717	 0.5287216175	 0.10879
H	-0.3153950106	-0.2108493576	-1.9439018888	 0.081653
H	 1.450199546	-0.1058894079	-1.8181138994	 0.081535
H	-0.0991661668	-2.1605790326	-3.307674811	 0.110591
H	 1.6608798742	-2.0565044116	-3.1817118209	 0.110117
H	 0.4583352468	-6.9789789824	-1.7949555075	 0.132265
H	 0.5102083113	-6.9901551183	-3.5449343341	 0.128498
H	 3.0275886622	-6.7423051396	-3.4800421958	 0.126736
H	 2.9738326061	-6.7301930393	-1.7125487911	 0.13039
H	 2.4883655553	-8.1865957792	-2.6023289404	 0.113199
