18
gdb 91281	3.52451	1.27734	1.10147	4.7466	72.61	-0.2289	0.0164	0.2453	1133.4794	0.148454	-439.108221	-439.100419	-439.099475	-439.140804	29.628	
C	-0.0159183418	 1.4444160315	-0.107887263	-0.328774
N	 0.0159650712	 0.0147953978	 0.0977072085	-0.075133
C	-1.2330539103	-0.6889873117	 0.4516505658	-0.191017
C	-0.4312622724	-1.5625479195	 1.4335142878	 0.090743
O	 0.0483408394	-2.7801971675	 0.8712616506	-0.230832
C	 1.3760665463	-2.7142400934	 0.5388255344	 0.428744
O	 1.9426590985	-3.6304090161	 0.0242255057	-0.326047
C	 1.9489949849	-1.3562010611	 0.9521471581	-0.367229
C	 0.7188808007	-0.530750418	 1.2803164949	-0.011758
H	 0.9981917507	 1.8187350457	-0.2822947439	 0.125577
H	-0.6130760546	 1.6763636905	-0.9957521163	 0.129161
H	-0.4454315408	 2.0003190554	 0.7475464722	 0.092611
H	-1.9624213451	-0.0574353193	 0.9844530708	 0.09159
H	-1.7314262529	-1.2010984893	-0.3772589804	 0.12135
H	-0.8645254863	-1.7702948954	 2.4116168063	 0.099103
H	 2.6054939337	-1.5064378134	 1.8162457171	 0.13449
H	 2.5460503144	-0.9464661537	 0.1359340541	 0.14601
H	 0.8379217746	 0.1773815875	 2.1097070572	 0.071412
