20
gdb 59222	2.58207	1.43407	1.16726	3.5493	79.51	-0.23	0.0156	0.2456	1152.481	0.170227	-403.146803	-403.137803	-403.136859	-403.180852	33.892	
C	 0.0653217136	 1.5257020889	 0.3163813749	-0.38468
C	-0.097647783	 0.0485674614	-0.0618163649	 0.036452
C	 0.6401708566	-0.8773940922	 0.9182824675	-0.396485
N	-1.5224199276	-0.2669556047	-0.1817325562	-0.100652
C	-2.1636978382	-1.3747005175	-0.896944007	-0.007365
C	-2.4002279579	-2.5588297447	-0.0053381098	-0.291221
C	-3.3106888725	-1.3348344986	 0.0893118498	-0.21719
C	-2.5284762575	-0.2191462017	 0.7860409165	 0.415774
O	-2.6593183014	 0.4445269847	 1.7805454032	-0.373638
H	 1.126338875	 1.7897928278	 0.357033577	 0.10882
H	-0.426337717	 2.1683116978	-0.4189602736	 0.118398
H	-0.3846882627	 1.7215728253	 1.2924396465	 0.152752
H	 0.3207105454	-0.1019257724	-1.065011262	 0.086019
H	 0.2250369334	-0.7765580879	 1.9261120752	 0.137246
H	 0.5627186379	-1.9244827065	 0.6116421044	 0.115944
H	 1.7031655158	-0.6189064208	 0.9607686986	 0.116039
H	-2.2086627267	-1.3853082423	-1.9782494212	 0.113686
H	-2.8596180155	-3.428844366	-0.4676107053	 0.123928
H	-1.7100992433	-2.7871447104	 0.8003771729	 0.128468
H	-4.3741191444	-1.3751537602	-0.0947016666	 0.117706
