19
gdb 62624	2.33614	1.85082	1.61355	1.7856	73.91	-0.2467	0.0703	0.317	951.9914	0.158586	-422.978794	-422.970794	-422.96985	-423.010448	33.092	
C	 0.0096129692	 1.6187098011	 0.0198549937	-0.449325
C	 0.1033133139	 0.105334253	 0.0455220494	 0.360805
O	-1.2042298208	-0.3730682737	 0.3849537788	-0.500111
C	 0.7399227396	-0.6798223468	-1.0960652257	-0.134617
C	 2.2353658051	-0.8201790477	-0.7769715682	-0.070998
C	 2.5217933234	-0.1201826083	 0.558023813	-0.294076
C	 1.1299808837	-0.6147893859	 0.9793438984	 0.368272
O	 0.805581558	-0.7483529082	 2.3054323153	-0.479907
C	 1.2381800464	-1.7613082668	-0.1575501195	-0.212052
H	 0.9583747382	 2.0713113818	-0.2743196478	 0.12215
H	-0.7592515105	 1.9323007043	-0.6922142488	 0.123493
H	-0.2694455791	 2.0001941276	 1.0072935524	 0.12555
H	-1.2469214537	-1.2989104554	 0.1162499567	 0.282491
H	 0.3653809999	-0.790580914	-2.1067749696	 0.087557
H	 2.9410399423	-1.0452644712	-1.5655113295	 0.092212
H	 3.3094924086	-0.6459343334	 1.1047162567	 0.10889
H	 2.7118972666	 0.9581149955	 0.5840846001	 0.092856
H	-0.1635285106	-0.7501963148	 2.3364531313	 0.283291
H	 1.16573949	-2.8391822371	-0.1723249167	 0.093519
