21
gdb 107509	1.95802	1.60904	1.08268	0.8448	88.44	-0.2495	0.0496	0.2991	1219.3984	0.181344	-349.900809	-349.891516	-349.890572	-349.934821	35.645	
C	 0.1718793901	 1.5244331169	-0.1679077838	-0.372508
C	-0.1155149579	 0.0358359015	 0.0753285713	-0.302106
C	 0.641976189	-0.5252127366	 1.2471463649	 0.396576
C	 2.0669980527	-0.998523901	 1.1695308442	-0.333785
C	 1.0036264295	-1.9654614334	 1.6191721665	-0.121628
C	 0.6651604988	-1.715874808	 3.0896554591	-0.242395
C	 0.2763908503	-0.2313324686	 2.7269693377	-0.242908
C	 0.9638459259	 0.8514440549	 3.4069279339	 0.341693
C	 1.5540850742	 1.7367442149	 3.9691781081	-0.481018
H	 1.2322567822	 1.6866655217	-0.3857526402	 0.119999
H	-0.4117007181	 1.9058172959	-1.011584034	 0.107964
H	-0.0771188385	 2.1237732092	 0.713498728	 0.127799
H	-1.1931969094	-0.1078568619	 0.2342296243	 0.093334
H	 0.1399448296	-0.541264893	-0.8226348286	 0.096156
H	 2.4386583341	-1.1528346498	 0.1609432495	 0.108218
H	 2.8149652335	-0.6348902391	 1.8702095079	 0.115268
H	 0.7912569131	-2.8771223295	 1.0730996523	 0.085208
H	-0.1966420269	-2.2802824564	 3.45112959	 0.106325
H	 1.4888246479	-1.8297123241	 3.8000921713	 0.105839
H	-0.8061803831	-0.0991448955	 2.8252684171	 0.099038
H	 2.0675908631	 2.5228399219	 4.4647378205	 0.192931
