22
gdb 88998	4.03961	0.80967	0.75202	2.1085	82.74	-0.2282	0.0829	0.3112	1587.3463	0.193748	-404.29086	-404.28133	-404.280385	-404.326625	34.428	
C	 0.1078982309	 1.54332063	-0.3453199967	-0.411988
C	 0.0945089189	 0.057641787	-0.0555450822	 0.03041
C	 1.3583324614	-0.7276502647	 0.0331616845	-0.254689
N	 0.5317032022	-0.5145455087	 1.2197900815	-0.086835
C	 1.0422230823	 0.3525903719	 2.2752822673	-0.16444
C	 1.6511090654	-0.4790792508	 3.3962383251	-0.018814
C	 3.0686677142	-1.0588207269	 3.1803706725	-0.074013
O	 3.5998029238	-0.3008374261	 4.2870585067	-0.272553
C	 2.3174763826	 0.3030082226	 4.549730905	-0.09156
H	 1.0329075457	 2.0247501131	-0.0193954217	 0.1217
H	 0.0086913271	 1.7120169193	-1.4227763148	 0.123707
H	-0.7309265492	 2.0502137192	 0.1448696579	 0.123178
H	-0.7819968521	-0.4533800804	-0.4531678993	 0.089852
H	 1.4183875339	-1.7484378305	-0.3358242989	 0.11324
H	 2.2879881215	-0.1634759594	-0.0455583883	 0.105722
H	 1.7905628252	 1.0825415358	 1.9211932991	 0.08574
H	 0.1988485403	 0.9287793444	 2.6781335452	 0.102865
H	 0.9243052524	-1.2243492793	 3.725064494	 0.089517
H	 3.1753929081	-2.1392968776	 3.3345783671	 0.101381
H	 3.5513174014	-0.7885562729	 2.2316162695	 0.09469
H	 2.343529945	 1.3944081994	 4.4216188466	 0.093468
H	 1.953985879	 0.0764460244	 5.5597054798	 0.099423
