18
gdb 16373	2.34562	2.29608	1.46657	1.6379	67.78	-0.2503	0.0792	0.3295	930.6637	0.151821	-384.907993	-384.89975	-384.898805	-384.940545	30.524	
C	-0.3632057903	 1.273927664	-1.2907276878	-0.408846
C	 0.2359264175	-0.0388620721	-0.8304844883	 0.085226
O	 1.6252602806	-0.1956209344	-1.2239001264	-0.323143
C	 2.0453958228	-0.5623730272	 0.1172101538	 0.085226
C	 3.2430010484	 0.2305893786	 0.597993359	-0.408846
C	 0.647387334	-0.2189225759	 0.6303179102	 0.334946
C	 0.2036752797	 0.4537254453	 1.8490880354	-0.258205
O	-0.071018059	-0.9378372008	 1.6048649071	-0.264796
H	 0.2107815894	 2.1217675829	-0.9059411469	 0.119168
H	-0.3642538939	 1.3259763868	-2.3838465944	 0.132028
H	-1.3995242882	 1.3619053335	-0.9470115007	 0.121164
H	-0.3667154146	-0.88750957	-1.1858235749	 0.086661
H	 2.2427764576	-1.6424809515	 0.1808762697	 0.086661
H	 3.0361085935	 1.3043514035	 0.5738	 0.119168
H	 3.5052786034	-0.0571390211	 1.6218389436	 0.121164
H	 4.1088373643	 0.031832955	-0.0411016647	 0.132028
H	 0.9141173153	 0.6539766469	 2.6497365321	 0.120197
H	-0.6644262906	 1.1106766365	 1.822987283	 0.120197
