22
gdb 120442	3.4319	0.85149	0.81479	2.6407	79.83	-0.2178	0.0676	0.2854	1522.2402	0.192227	-441.452883	-441.442657	-441.441712	-441.488621	37.947	
C	-0.120853454	 1.5479396853	-0.0147093496	-0.451133
C	-0.1012460927	 0.0272845515	-0.0754477598	 0.394446
O	-1.3640014043	-0.5060937085	-0.4085421399	-0.470934
C	 1.1295588125	-0.5599003834	-0.8307840504	-0.223219
N	 1.8004792038	-0.7465561452	 0.4721844161	-0.094978
C	 2.6182348843	-1.935143367	 0.6465445528	-0.139475
C	 3.4809698496	-1.8654025152	 1.9044906413	-0.067447
O	 2.7176823549	-1.789786216	 3.1004348851	-0.416016
C	 0.49848513	-0.6549187588	 1.1738544204	-0.211543
H	 0.8556707575	 1.9325226976	 0.2925702057	 0.133421
H	-0.3538311109	 1.9741179805	-0.9990474807	 0.106382
H	-0.8767993993	 1.8933605828	 0.6977391224	 0.12341
H	-1.7316430245	 0.0146095175	-1.1305835105	 0.276233
H	 0.8530575598	-1.5054860374	-1.321784331	 0.090558
H	 1.6689743952	 0.0797917492	-1.5394170468	 0.090646
H	 2.0023886453	-2.8539622279	 0.6754686215	 0.084695
H	 3.2852439561	-2.0158616576	-0.221761046	 0.097115
H	 4.0805509104	-2.7790898796	 1.982971548	 0.104113
H	 4.1723853348	-1.0141348383	 1.8220508801	 0.091081
H	 2.3557213004	-0.9005228237	 3.1534060396	 0.289953
H	 0.4992632931	-0.0823357442	 2.1087727999	 0.084993
H	 0.0248696881	-1.6316703616	 1.3486837919	 0.107698
