13
gdb 20344	5.37952	2.22959	1.59202	5.0113	65.87	-0.2339	-0.0407	0.1932	737.6307	0.099273	-357.647659	-357.642231	-357.641287	-357.67708	21.158	
C	-0.053218352	 1.4586831954	 0.0105500762	-0.234994
C	 1.4026440431	 1.8839142139	-0.0011876134	-0.094696
C	 2.2140758792	 0.810890526	-0.0149202884	-0.207832
C	 1.3930871396	-0.3905055948	-0.0136135574	 0.358479
C	 1.3007526878	-1.7661037178	-0.0200811935	-0.208744
N	-0.0236574209	-2.1013845119	-0.0100223698	-0.189129
N	-0.7608570981	-1.0165451374	 0.0038562055	-0.169804
N	 0.0951470604	 0.0121386774	 0.0010985517	 0.053842
H	-0.5899839391	 1.7958736959	 0.9043395133	 0.157348
H	-0.6071477159	 1.8057234166	-0.8688832427	 0.157345
H	 1.7010989334	 2.9229547316	 0.0017083439	 0.124177
H	 3.2942709167	 0.8189659479	-0.0252377636	 0.128801
H	 2.0704863256	-2.5194418629	-0.0315304018	 0.125208
