23
gdb 76643	2.81412	1.06135	0.90761	1.1832	86.3	-0.2412	0.0675	0.3087	1405.7225	0.205521	-388.263036	-388.253314	-388.25237	-388.298058	36.564	
C	-0.1003612612	 1.5970986317	-0.2399489633	-0.406123
C	-0.0000835551	 0.094354721	-0.0829443211	-0.05052
C	 1.3172378701	-0.61773015	-0.2202620254	 0.065988
O	 2.4387508194	 0.1884847908	-0.4563829879	-0.417923
C	 0.6350177321	-0.5696466135	 1.1343773971	-0.088862
C	 1.2226831334	 0.2127436141	 2.2769647229	 0.047497
C	 0.3036474354	 0.6364970886	 3.4616631417	-0.230402
C	 1.4734630215	 0.3240575865	 4.4325946628	-0.208686
C	 2.1185954018	-0.5345706962	 3.3125021625	-0.236731
H	 0.8310173975	 2.0953626423	 0.0326257399	 0.135039
H	-0.3142043551	 1.8568351744	-1.282331005	 0.115448
H	-0.907323915	 2.0064415986	 0.3772482635	 0.112602
H	-0.8495837882	-0.4449743062	-0.4946251423	 0.08118
H	 1.3313926066	-1.568806032	-0.7530605832	 0.079155
H	 3.1834126218	-0.1929936617	 0.0200544423	 0.28873
H	 0.1640085734	-1.5003856634	 1.4474321367	 0.071278
H	 1.7617500748	 1.0856893509	 1.900596726	 0.076587
H	-0.1046710814	 1.6502801601	 3.4528331778	 0.094358
H	-0.5236923356	-0.0694141046	 3.5897688365	 0.095491
H	 2.067575232	 1.216554194	 4.6499095065	 0.100571
H	 1.2339284751	-0.1694195037	 5.3773675758	 0.094165
H	 1.8289225215	-1.5875987325	 3.3965611408	 0.09544
H	 3.2038236353	-0.4842012592	 3.1844587155	 0.085717
