19
gdb 73967	3.38794	1.8	1.51085	0.9917	86.21	-0.1855	-0.0274	0.1581	935.9567	0.15967	-348.638127	-348.631115	-348.630171	-348.669206	29.198	
C	-0.089455519	 1.3039060698	-0.3338066581	-0.469502
C	-0.0275826012	-0.0455349649	 0.3013932852	 0.258589
C	-1.0574163022	-0.9220653956	 0.3677000893	-0.037359
C	-1.66318362	-1.5350268707	-0.8886198104	-0.112943
C	-0.370355064	-2.3605302608	-1.3224357037	-0.085903
C	-1.4496827922	-2.9405014762	-0.4288129113	-0.08966
C	-0.6007318645	-2.3603158767	 0.7407524133	-0.092604
C	 0.6634145421	-2.2537338523	-0.1404361901	-0.014
C	 1.2604586077	-0.8751246839	 0.3056010017	-0.316834
H	 0.5152599715	 1.3374227673	-1.2517367727	 0.119041
H	-1.1189471969	 1.5806444803	-0.5804023226	 0.121765
H	 0.3124886259	 2.0849451528	 0.3256589242	 0.127104
H	-2.3369215078	-1.1563681029	-1.6476680813	 0.08807
H	-0.1769590903	-2.5778268181	-2.366375138	 0.08133
H	-2.0538783365	-3.8314678773	-0.522593555	 0.086863
H	-0.5908991911	-2.7077898161	 1.772281193	 0.068208
H	 1.3646564624	-3.0949350733	-0.1445833207	 0.059204
H	 1.9866763884	-0.4234011611	-0.3814522362	 0.101591
H	 1.7793706778	-1.0063238603	 1.2661333637	 0.10704
