15
gdb 54653	4.08142	1.1216	0.88463	2.1903	70.02	-0.2376	-0.0494	0.1882	1231.2265	0.11431	-450.191427	-450.183234	-450.18229	-450.224517	30.29	
N	-0.0629947013	 1.2943887411	 0.0066585832	-0.525931
C	 0.0285784092	-0.0514617832	 0.0016803679	 0.35602
O	 1.0587912105	-0.7032315237	-0.0082278289	-0.374892
C	-1.307332114	-0.7396671518	 0.0106091587	 0.30481
N	-2.4482862376	-0.1580636287	 0.0209489725	-0.328443
C	-3.4403889516	-1.2433018814	 0.0259806927	-0.244923
C	-2.6493098972	-2.555112459	 0.0163412834	 0.387889
N	-3.1386538039	-3.7247675503	 0.0169443014	-0.550345
N	-1.3230999592	-2.1175336543	 0.0072977083	-0.372841
H	 0.7750369372	 1.8502543106	 0.0008488849	 0.271506
H	-0.973935868	 1.7255068578	 0.0144741532	 0.284775
H	-4.0818733087	-1.1748418055	 0.9110527969	 0.151541
H	-4.0958331692	-1.1702870896	-0.848430988	 0.15154
H	-2.4132623048	-4.4432933797	 0.0094222239	 0.213801
H	-0.4829972715	-2.6733689322	-0.0012313402	 0.275494
