24
gdb 60487	3.98231	0.5328	0.51183	3.734	88.16	-0.2489	0.0345	0.2833	2239.0651	0.215874	-405.589995	-405.578598	-405.577653	-405.628966	39.959	
C	 0.2718938722	 1.6717094505	 0.1691408463	-0.380802
C	 0.043827243	 0.1586850614	 0.0419771734	 0.039583
C	 0.6411872666	-0.367651893	-1.2702988205	-0.388453
C	 0.6098891548	-0.6252559814	 1.2404807841	-0.161225
C	-0.0511760435	-0.3192475158	 2.5891143903	-0.197194
C	 0.4944796899	-1.2071381704	 3.7141281708	-0.1629
N	-0.126698475	-0.942741808	 5.0028878396	-0.274141
C	 0.5239706659	-0.347084673	 6.0378212721	 0.153086
O	 1.6871320382	-0.0031153127	 6.0339454138	-0.322806
H	 1.3426245667	 1.8998006575	 0.2356663384	 0.113818
H	-0.1254690079	 2.2006445371	-0.7034054755	 0.110354
H	-0.2130390814	 2.0900820025	 1.0558103135	 0.113894
H	-1.0416117505	-0.0184429744	 0.0116168161	 0.068316
H	 1.7278589809	-0.2213260872	-1.2918075871	 0.113164
H	 0.4481269002	-1.4382064026	-1.3973801342	 0.108118
H	 0.2202908687	 0.1546352369	-2.1357396025	 0.10948
H	 0.5073001529	-1.6996658693	 1.0338281086	 0.088103
H	 1.6901657606	-0.4343421954	 1.3144604403	 0.098494
H	 0.1046558628	 0.7276138865	 2.8708430787	 0.11628
H	-1.1380399377	-0.4632913745	 2.5061111989	 0.085089
H	 0.3596372089	-2.2658443899	 3.4573086306	 0.105139
H	 1.564154339	-1.0333843251	 3.8536961521	 0.150046
H	-1.105723467	-1.1506517944	 5.1207810812	 0.244053
H	-0.1417906582	-0.2122839852	 6.914136231	 0.070502
