16
gdb 32124	3.78344	1.19719	0.91493	1.6498	77.01	-0.2132	-0.0112	0.2021	1229.4082	0.126707	-434.147038	-434.138843	-434.137898	-434.180349	29.949	
C	-0.0679434409	 1.4046179364	-0.0129757117	-0.309826
N	 0.0631645434	-0.0348762661	 0.0529149415	-0.346303
C	 0.6542445666	-0.6880787091	 1.0850794192	 0.466242
N	 1.2531077798	 0.0493492925	 2.0319058313	-0.343083
C	 1.8404316302	-0.6469842718	 3.0103102508	 0.019587
C	 1.8481200129	-2.0279372441	 3.0829722828	-0.239651
C	 1.1805528775	-2.6779734163	 2.0378604219	 0.434789
O	 1.1294410891	-4.0208536338	 2.0263148312	-0.412381
N	 0.5864290143	-2.0367839698	 1.0458386444	-0.432344
H	 0.9019258727	 1.8813985026	 0.1465273171	 0.150224
H	-0.4382052739	 1.6756494299	-1.0041693532	 0.120014
H	-0.7603052841	 1.7979728098	 0.7425700521	 0.127646
H	-0.4599191171	-0.6134438615	-0.581528235	 0.250751
H	 2.3312018467	-0.0571632243	 3.781907299	 0.111027
H	 2.324307019	-2.577388929	 3.8822387269	 0.106819
H	 0.6319796538	-4.2631517853	 1.2320957318	 0.29649
