18
gdb 95419	3.14591	1.19338	0.96105	5.6327	79.78	-0.2409	-0.031	0.2099	1237.6479	0.149289	-398.162053	-398.153376	-398.152432	-398.195576	32.206	
C	-0.2910829368	 1.5838802718	-0.0627654231	-0.379135
C	 0.0564438908	 0.093319162	 0.0374618146	 0.029005
C	 0.813809198	-0.4391812161	-1.1906209791	-0.227393
C	 2.2981684889	-0.0514277978	-1.1320495354	-0.167774
N	 2.9517764922	-0.4608000109	 0.1051506724	-0.299385
C	 2.1996752082	-0.4974568263	 1.1389231713	 0.283828
N	 0.8648914281	-0.192014761	 1.2241476746	-0.35173
C	 2.7896580451	-0.8965973699	 2.4049727178	 0.258899
N	 3.2194753854	-1.2092839675	 3.431110919	-0.323685
H	 0.6057283702	 2.1911742259	-0.2173628158	 0.130567
H	-0.9765760301	 1.7573438036	-0.8987898644	 0.121101
H	-0.7771700768	 1.9330281072	 0.853406503	 0.118872
H	-0.8796233912	-0.4691968409	 0.1403858574	 0.09257
H	 0.7367972868	-1.531585436	-1.2132516965	 0.11583
H	 0.3491704322	-0.0586609534	-2.1050081964	 0.106338
H	 2.8407033506	-0.5011914489	-1.9694035201	 0.115761
H	 2.4136797925	 1.0368001072	-1.24493624	 0.116225
H	 0.4049985361	-0.3218848991	 2.1098519007	 0.260107
