25
gdb 106317	2.61479	1.15643	0.99025	0.2448	93.45	-0.2377	0.084	0.3217	1388.8473	0.228361	-352.340527	-352.330366	-352.329421	-352.375119	38.978	
C	-0.6592945191	 1.9077261172	-0.7459575586	-0.371071
C	-0.5816307117	 0.3749391023	-0.6998678784	-0.293662
C	 0.2685898005	-0.2042644015	-1.7995483312	 0.367035
C	-0.1773958169	-0.2794563015	-3.2739447764	-0.328082
C	 0.3640579291	-1.747199346	-3.3532754426	 0.054794
C	 1.2649970325	-2.1951869164	-4.5004329556	-0.41451
C	 0.9121248221	-1.5993896411	-1.9253800674	-0.16992
C	 1.7615830185	-0.3698254257	-1.6915558774	-0.036362
C	 2.8096714023	 0.2357053965	-2.6053679611	-0.423352
H	 0.333775833	 2.354592952	-0.6309868197	 0.115709
H	-1.0690531617	 2.2534644906	-1.7011606511	 0.116873
H	-1.299835791	 2.2974227178	 0.0515732477	 0.108223
H	-0.1808182786	 0.0578135126	 0.2714203026	 0.092291
H	-1.5969351415	-0.0408886052	-0.7629741617	 0.090373
H	-1.2622314138	-0.2216681306	-3.3965594153	 0.0954
H	 0.2780214162	 0.4468781773	-3.9549696542	 0.091553
H	-0.497168553	-2.4235347039	-3.3138465467	 0.072759
H	 2.1432816011	-1.5562697642	-4.6190578107	 0.116746
H	 1.6220334571	-3.2179410826	-4.3334488153	 0.111565
H	 0.7171098428	-2.188958325	-5.4499101991	 0.109008
H	 0.9116810859	-2.4031634161	-1.1950184889	 0.071332
H	 2.0726634214	-0.338473785	-0.6467193675	 0.077251
H	 2.4525682073	 0.378908258	-3.6271298598	 0.120819
H	 3.1148410822	 1.2191952363	-2.2298045287	 0.110509
H	 3.7065187854	-0.3922018656	-2.6518062631	 0.114718
