17
gdb 11703	5.73541	1.37796	1.25686	1.7027	76.4	-0.2309	0.0226	0.2536	998.5569	0.141179	-326.650494	-326.642721	-326.641776	-326.682121	30.031	
C	-0.2677547114	 1.5159910665	 0.0558169845	-0.409076
C	 0.1036888895	 0.045300921	-0.0078953808	 0.08999
C	 1.2158813444	-0.4502817138	-0.9732191073	-0.334951
C	 1.9144469867	-1.0323283747	 0.2626521696	 0.181124
C	 2.148334285	 0.0419740571	 1.2573922784	-0.26979
N	 0.7992235104	-0.5365422654	 1.206434961	-0.176974
C	 2.5014982913	-2.3281263817	 0.3389185854	 0.194495
C	 3.0091024237	-3.4189304678	 0.363028147	-0.39676
H	 0.6058021382	 2.1675179031	 0.1520954708	 0.116946
H	-0.7984995651	 1.8091975212	-0.8562803138	 0.121871
H	-0.9289680754	 1.7046850525	 0.9078292574	 0.131044
H	-0.8049423123	-0.5468761348	-0.1448549561	 0.092813
H	 0.870982452	-1.2101399497	-1.6749464982	 0.121834
H	 1.788980919	 0.3054713073	-1.5188765792	 0.104089
H	 2.6810362893	-0.2313597747	 2.1623079774	 0.131932
H	 2.3303489614	 1.0571221483	 0.9121499295	 0.111992
H	 3.4540315633	-4.3823813745	 0.3964798144	 0.18942
