15
gdb 61757	2.4058	1.06535	0.78933	2.8907	65.3	-0.2548	-0.1208	0.134	1363.4006	0.107861	-494.915348	-494.905623	-494.904678	-494.951552	32.509	
O	-0.0659859385	 1.455145875	 0.1451438302	-0.431939
C	 0.1001846937	 0.0619264906	 0.1311179113	 0.02246
C	 0.7045496249	-0.4127769858	-1.2162639076	-0.313226
C	-0.1511405448	 0.0288524798	-2.3921522653	 0.156062
O	-0.4264644618	-0.6866188561	-3.3195506883	-0.233441
C	 1.003847853	-0.3608389985	 1.2773003005	 0.2698
O	 1.6175336461	 0.4565799147	 1.9278355292	-0.295045
C	 1.1359843958	-1.8431491718	 1.6327579856	 0.097563
O	 0.5252162645	-2.7126318032	 1.0707267434	-0.20956
H	 0.5864200327	 1.8018710401	 0.7732531775	 0.298362
H	-0.8741757258	-0.4287895447	 0.2673327617	 0.125756
H	 1.6916191907	 0.0571373229	-1.3294233994	 0.131556
H	 0.8174347531	-1.4981510849	-1.2497961094	 0.147891
H	-0.5011840468	 1.0798386454	-2.3392330843	 0.109147
H	 1.8360811733	-2.0245912435	 2.4736675248	 0.124615
