24
gdb 6417	4.03347	0.89654	0.87658	1.3154	82.13	-0.2613	0.0703	0.3316	1498.9312	0.220968	-351.421805	-351.411033	-351.410089	-351.457697	39.155	
C	 0.022033502	 1.5691175522	 0.1838042064	-0.381362
C	 0.0089249329	 0.0456249488	 0.0401690853	-0.183558
C	 0.6677152046	-0.4460073153	-1.2559602738	 0.127195
O	 2.0182116636	 0.0110510495	-1.3583627307	-0.427399
C	 0.580100676	-1.9709850511	-1.4047760457	-0.196283
C	 1.211739628	-2.5422786481	-2.6875428111	 0.050254
C	 1.299941725	-4.0721371622	-2.6085753124	-0.391467
C	 0.4541154317	-2.1098422864	-3.9506418564	-0.386822
H	 1.0432876567	 1.9525276527	 0.1145937163	 0.126674
H	-0.5634862321	 2.0436701706	-0.6115824779	 0.113002
H	-0.402144269	 1.8824324916	 1.1425086069	 0.107141
H	 0.5287599864	-0.4161839952	 0.8929492008	 0.082357
H	-1.0218850423	-0.3289661535	 0.0755100174	 0.094762
H	 0.1617119071	 0.034489747	-2.1026516673	 0.086478
H	 2.5148893762	-0.3958608237	-0.6388737552	 0.27448
H	 1.0709480188	-2.4259172722	-0.5304305854	 0.075859
H	-0.4751088801	-2.2732752765	-1.3480716788	 0.089617
H	 2.2303761644	-2.1401516715	-2.7516504169	 0.082021
H	 0.301993291	-4.5215257651	-2.5334750717	 0.108755
H	 1.7818651985	-4.4872086446	-3.5001140802	 0.108663
H	 1.875539074	-4.3967418037	-1.7348968254	 0.104772
H	 0.9172519442	-2.5364343045	-4.8464818473	 0.109256
H	-0.5872462548	-2.4541617343	-3.9207925869	 0.106162
H	 0.445491187	-1.0230254544	-4.0729888402	 0.119444
