17
gdb 16157	4.48926	1.62369	1.39212	2.043	68.14	-0.2321	0.0031	0.2351	910.0705	0.143902	-363.841587	-363.834425	-363.83348	-363.873135	27.722	
O	 0.085479304	 1.2970249837	-0.4720244042	-0.42209
C	 0.0514121127	 0.0303490476	 0.1681041058	-0.133277
C	-1.3552239294	-0.5061477574	 0.2437781659	 0.306597
C	-2.3648040432	 0.1091143819	 1.217793837	-0.329996
C	-3.325496434	-1.026451227	 1.5021119813	-0.089348
C	-2.9465428446	-2.1605040968	 0.9049025833	-0.08001
C	-1.725658388	-1.9459928905	 0.0713487752	-0.117107
N	-1.8707239109	-0.9845886246	-1.0527106515	-0.37781
H	-0.2938715573	 1.1584027117	-1.3479883002	 0.288962
H	 0.6904967062	-0.6979914835	-0.3523927235	 0.091351
H	 0.4608434667	 0.1834927293	 1.1724634834	 0.103906
H	-1.8641654711	 0.4493698609	 2.1343172476	 0.116856
H	-2.8621316046	 0.9928207965	 0.7990755917	 0.119605
H	-4.2183695241	-0.8994007739	 2.1037570611	 0.101105
H	-3.4566015654	-3.1144752679	 0.9674012752	 0.103113
H	-1.0068668355	-2.7421907843	-0.0943107425	 0.09323
H	-2.8560806816	-0.7480704257	-1.1567663755	 0.224913
