14
gdb 28858	3.35717	1.40742	1.05031	0.9215	78.34	-0.234	-0.0816	0.1524	1074.7145	0.103184	-432.886765	-432.879633	-432.878689	-432.918676	27.126	
O	-0.1693746611	 1.2217113493	-0.3633242431	-0.36446
C	 0.0273109609	-0.051355069	 0.0041249653	 0.466004
N	 1.240221091	-0.4966194717	 0.0226049335	-0.362517
C	 1.5804168851	-1.8132715937	 0.1810883489	 0.001478
C	 0.8299524552	-2.9342385523	 0.0444270806	-0.111972
C	-0.6086902887	-3.0007747518	-0.1664226365	 0.231819
N	-1.160985951	-4.054137785	-0.6513933365	-0.495386
C	-1.4052233	-1.8708946376	 0.3874547631	-0.032389
N	-1.1532241625	-0.6189299628	 0.4261923671	-0.23635
H	 0.7021095937	 1.5639654659	-0.6106679973	 0.309996
H	 2.6439962583	-1.9487961594	 0.3646735696	 0.11889
H	 1.3297751099	-3.8962946252	 0.0974688722	 0.119638
H	-2.1809931403	-3.9662596772	-0.6422051811	 0.217756
H	-2.3628663605	-2.1743686095	 0.8233975942	 0.137494
