23
gdb 114122	3.88033	0.85259	0.78457	1.5756	86.18	-0.2463	0.0782	0.3246	1563.4161	0.205321	-388.2637	-388.253918	-388.252974	-388.298526	36.885	
C	 0.0372666891	 1.5441912807	-0.0029636377	-0.378069
C	 0.0421512594	 0.017625886	 0.1294293199	-0.192143
C	-1.3515239138	-0.5928655048	 0.0098835354	 0.047738
C	-2.0926772847	-0.5715467577	-1.3748734728	-0.312622
C	-2.2830221908	-2.0940813211	-1.2801555785	 0.349014
C	-3.5229172382	-2.8346202768	-1.6783420967	-0.175442
O	-3.7015326436	-2.8896744853	-3.089735859	-0.415162
C	-0.9308782961	-2.75804951	-1.2017520286	-0.338087
C	-1.5025758281	-2.122878661	 0.0380760938	-0.1417
H	 1.0474508304	 1.9561461542	 0.0837137825	 0.111015
H	-0.3673753035	 1.8574923872	-0.9715970106	 0.118715
H	-0.5791390153	 2.0068063235	 0.7761317919	 0.112543
H	 0.7024570968	-0.4135672132	-0.6332355521	 0.092373
H	 0.4720868268	-0.2668659352	 1.0990950431	 0.093794
H	-2.0010836275	-0.1458222106	 0.7708296094	 0.070215
H	-3.0333179361	-0.0166068055	-1.3473522403	 0.103986
H	-1.5103566932	-0.2207449186	-2.233717683	 0.092259
H	-3.5077386066	-3.844914933	-1.2358176888	 0.08081
H	-4.4158236431	-2.3265758282	-1.2958899494	 0.10537
H	-2.8916667205	-3.2546508486	-3.4620179635	 0.279811
H	-0.9441507553	-3.8445029169	-1.1988387762	 0.107314
H	-0.0701601766	-2.3292851819	-1.7091427494	 0.106277
H	-1.7007073895	-2.7141938933	 0.9254374309	 0.08199
