22
gdb 60354	3.48892	0.69732	0.66755	4.0369	84.17	-0.2679	0.0374	0.3053	1789.3524	0.191302	-404.371497	-404.360375	-404.359431	-404.408886	39.128	
C	-0.2509229088	 1.4868083713	-0.0185865381	-0.394971
C	 0.0175045131	-0.0202346515	-0.0190621465	 0.154476
C	 0.9514811209	-0.4386142663	-1.1485035889	-0.388495
O	 0.6404196564	-0.4496318652	 1.1932197077	-0.263409
C	-0.2011994278	-0.5093765478	 2.3176283565	-0.061675
C	 0.6161572532	-1.1441436122	 3.4584415355	-0.146826
C	 1.8428254405	-0.2938133324	 3.8381235525	-0.387986
C	-0.2519841544	-1.3716787252	 4.616469614	 0.255329
N	-0.9426009053	-1.5380200564	 5.5281843546	-0.321357
H	 0.6867389435	 2.0376925848	 0.1072784961	 0.123923
H	-0.7054041902	 1.7907074576	-0.9666742514	 0.119907
H	-0.9341664271	 1.7813511803	 0.7829262896	 0.120116
H	-0.9408064387	-0.5555010907	-0.1259288269	 0.070392
H	 1.9165574586	 0.0685605771	-1.050261945	 0.124187
H	 1.1265684367	-1.5171394934	-1.1207986034	 0.122235
H	 0.5218160735	-0.1780723336	-2.1199989537	 0.116848
H	-0.5482179337	 0.4869679138	 2.631162217	 0.10611
H	-1.0925880157	-1.1217214623	 2.1098495204	 0.105685
H	 0.9585602782	-2.1237261761	 3.103091418	 0.134872
H	 2.4422999277	-0.7924833772	 4.6031358231	 0.133613
H	 2.4540490564	-0.1365971996	 2.9482159654	 0.144695
H	 1.5315335629	 0.6801084852	 4.2271114936	 0.132332
