18
gdb 37788	2.49635	2.22342	1.70771	2.2236	74.08	-0.2339	0.0242	0.2581	869.091	0.152418	-401.954968	-401.948634	-401.94769	-401.985409	26.507	
C	-0.0570686219	 1.5182170775	 0.0892886832	-0.231969
C	 1.3712042319	 2.018197622	-0.0779176475	-0.096242
C	 2.3079637626	 0.8422761753	 0.2237710283	-0.096241
C	 1.4371006267	-0.3574229528	 0.5704964422	-0.231969
C	 0.0471491749	-0.0220780261	-0.0222946337	-0.012279
N	-0.0935843521	-0.4880620767	-1.4016505944	-0.261208
C	 0.6860883078	-0.1007666865	-2.3131319775	 0.125773
O	 1.7480702523	 0.7446582573	-2.3152215718	-0.230453
C	 2.2181574687	 1.4156563263	-1.1593934794	 0.117837
H	-0.4252101098	 1.8068494438	 1.0813358226	 0.10111
H	-0.7539582679	 1.9208773449	-0.6511410469	 0.113857
H	 1.604248994	 3.0297783775	 0.2388923636	 0.086609
H	 3.238723281	 0.9780096061	 0.7652849608	 0.086609
H	 1.8156378464	-1.3047548707	 0.1764178683	 0.113857
H	 1.3757116881	-0.4538495743	 1.6613346956	 0.101111
H	-0.7465655518	-0.507395333	 0.550568252	 0.081793
H	 0.5538728617	-0.4672365332	-3.3305550224	 0.121484
H	 3.0663840975	 2.0089176227	-1.4807341129	 0.110322
