19
gdb 97540	2.57123	0.82805	0.72974	3.0319	85.85	-0.2658	0.0126	0.2784	1664.3587	0.157153	-382.054844	-382.044013	-382.043069	-382.092032	38.064	
C	 0.3054157959	 1.4674587256	 0.2827805054	-0.366491
C	-0.1991116028	 0.085253022	-0.1707972174	-0.318886
C	 0.5375514008	-0.4448648796	-1.3130817534	 0.057321
C	 1.1589428361	-0.8586527847	-2.2569850102	 0.150149
C	 1.9147996951	-1.3821289315	-3.4009374296	-0.116944
C	 2.0944308115	-2.9127261221	-3.2839313482	-0.382139
N	 1.1794342179	-1.0937766587	-4.6447328941	-0.504704
C	 3.263453604	-0.7439325613	-3.4058497678	 0.268995
N	 4.3066890925	-0.2494974505	-3.4719461117	-0.346248
H	 1.357850774	 1.4208993695	 0.5742060191	 0.135932
H	 0.2105362606	 2.1998170419	-0.5232161021	 0.131208
H	-0.2759191743	 1.8194632211	 1.1397521884	 0.118871
H	-0.1296532691	-0.6256527645	 0.662193786	 0.13575
H	-1.2640811803	 0.1454228504	-0.4282450602	 0.136401
H	 1.1066527855	-3.3763099611	-3.2818898901	 0.14504
H	 2.6678273812	-3.2883097705	-4.136507617	 0.127883
H	 2.6240435661	-3.1691794016	-2.3648088255	 0.142141
H	 1.0167343714	-0.0937242562	-4.7193914373	 0.245557
H	 1.7520756137	-1.3614976882	-5.4416343044	 0.240164
