18
gdb 77371	2.57218	1.68456	1.35916	2.0758	71.47	-0.2329	0.0647	0.2976	1007.375	0.146526	-439.019642	-439.011297	-439.010353	-439.051829	32.805	
C	-0.0263101893	 1.4954150125	-0.0341613648	-0.507637
C	-0.0576994463	 0.0003388669	-0.0429887035	 0.334554
C	 0.5681771252	-0.9950123694	-0.9546906538	-0.209392
N	 1.1936659926	-0.7356402326	 0.3707658098	-0.18426
C	 0.7273681018	-2.0707225869	 0.878261202	-0.209797
C	-0.3403005179	-2.0820813884	-0.2219147086	 0.301946
O	-0.9648437567	-3.2135787128	-0.7104893304	-0.479222
C	-1.2569055908	-0.9057510449	 0.1891883683	 0.050573
O	-1.8229022152	-0.8786051893	 1.4772162764	-0.443049
H	 0.9636675748	 1.8570206841	-0.3236565981	 0.132573
H	-0.7665027727	 1.9076001325	-0.728275769	 0.117157
H	-0.2494467233	 1.8786416979	 0.9669378415	 0.136033
H	 1.0700705738	-0.9091180831	-1.9094912357	 0.098161
H	 1.5284106856	-2.7991647292	 0.7135654647	 0.09366
H	 0.3895792756	-2.090545621	 1.918530779	 0.114551
H	-0.3028241921	-3.9000176205	-0.8461831453	 0.287004
H	-2.0095236358	-0.7364030041	-0.5938489129	 0.077659
H	-2.5803253193	-1.4728616917	 1.4854505204	 0.289486
