19
gdb 70069	2.80178	1.47401	1.12897	3.7702	82.81	-0.2338	-0.0481	0.1857	1120.9196	0.160084	-385.923125	-385.915122	-385.914178	-385.955403	31.697	
C	 0.0405214634	 1.5049044981	-0.033241358	-0.462452
C	-0.0513456399	-0.005536875	 0.0647404373	 0.316655
C	-0.8085367471	-0.5825290383	 1.2235272095	-0.317579
C	 0.7189193229	-0.690452207	 1.1843792177	-0.116411
C	 1.3116294594	-2.0127653317	 0.9220208181	-0.033611
C	 1.0469248011	-2.7374603729	-0.1768821532	-0.18118
C	 0.2012053723	-2.2246649422	-1.2684317303	 0.354687
O	-0.1975541116	-2.9383267946	-2.1686886335	-0.337728
C	-0.08808797	-0.7211574487	-1.2762693802	-0.385473
H	 0.9413321749	 1.811287021	-0.5769125904	 0.120549
H	-0.8254356537	 1.9150512441	-0.5658818783	 0.123534
H	 0.071413239	 1.9688904314	 0.9575560331	 0.115285
H	-1.2420524396	 0.1039153314	 1.9431876432	 0.116337
H	-1.3582685038	-1.5079968194	 1.0874044699	 0.1263
H	 1.2582474781	-0.0579510742	 1.8821118687	 0.090048
H	 1.9640045695	-2.4209738176	 1.6910782192	 0.108212
H	 1.4371138274	-3.7408758296	-0.3104639372	 0.107081
H	-1.046104724	-0.5666542486	-1.7834758792	 0.128536
H	 0.6761368819	-0.2829725563	-1.9350547263	 0.127212
