17
gdb 72895	3.11612	1.43708	1.18069	3.4469	68.39	-0.2427	0.0423	0.285	1055.341	0.134571	-458.891851	-458.883974	-458.88303	-458.924446	30.323	
O	 0.4069344202	 1.3547357432	-0.4283875202	-0.468276
C	 0.059190292	 0.0720157511	-0.029665376	 0.358288
C	 0.2873354596	-1.0011158981	-1.0986679383	-0.103103
O	-1.0062392153	-1.5987978466	-0.8476566551	-0.279938
C	-1.3880727906	-0.5589064671	 0.0720030194	-0.083133
C	-1.081143077	-0.9217562487	 1.5240469952	 0.471466
C	-1.9822326872	-0.9031707412	 2.6800060457	-0.265618
O	-1.4653936254	-2.1276774445	 2.1444661413	-0.2554
C	 0.3622816224	-0.3957297681	 1.425640477	-0.419557
H	 0.2951634662	 1.9570835182	 0.3142142854	 0.284452
H	 0.3474997608	-0.5788689348	-2.1091347579	 0.112865
H	 1.1141469911	-1.7023489823	-0.93834984	 0.107051
H	-2.3402168047	-0.0877646477	-0.1859577551	 0.079491
H	-1.5954288358	-0.618910653	 3.658337752	 0.115141
H	-3.0503716571	-0.7448810786	 2.535378927	 0.119826
H	 1.1475173368	-1.1496189008	 1.5251990793	 0.124638
H	 0.5810813938	 0.4297377091	 2.11184445	 0.101807
