21
gdb 106044	2.54591	1.54642	1.2405	1.5897	81.43	-0.2473	0.0741	0.3214	1114.3551	0.182898	-387.047246	-387.038746	-387.037802	-387.080123	33.556	
C	 0.072187945	 1.4903613086	 0.2158119419	-0.380881
C	-0.054538161	-0.0068959891	-0.1032486231	-0.312357
C	-1.4781348478	-0.4879990656	-0.072505547	 0.322281
C	-2.1792700491	-0.9221439796	 1.2300076074	-0.117209
C	-3.6908666639	-0.8466972404	 1.0149936617	-0.252942
C	-3.4006786112	-1.3290369022	-0.4302837607	-0.10818
C	-2.0179383974	-1.8951992418	 0.0842252034	-0.152953
C	-2.585873221	-0.1699152148	-1.0747224285	 0.109836
O	-3.1286243907	 1.125881971	-1.1847696581	-0.445384
H	 1.1115231564	 1.8246075622	 0.1410646681	 0.108522
H	-0.5294969458	 2.0845980579	-0.4782560091	 0.13332
H	-0.2785087073	 1.7055687883	 1.230949101	 0.111165
H	 0.3706234293	-0.205175463	-1.0961847223	 0.09914
H	 0.5452323436	-0.5912473948	 0.6066449789	 0.09496
H	-1.6359308885	-0.9124830314	 2.166968624	 0.083941
H	-4.2114386271	-1.6144231888	 1.5937756408	 0.10374
H	-4.2151484895	 0.1100792452	 1.1457122432	 0.074601
H	-4.1516227566	-1.866855694	-1.0047823301	 0.07005
H	-1.5303084065	-2.8553554002	 0.0048113894	 0.091532
H	-2.2707561334	-0.445834921	-2.0859668817	 0.084602
H	-3.3311931474	 1.4411767635	-0.2981587491	 0.282216
