16
gdb 126442	2.14484	1.51051	0.94805	3.3928	73.23	-0.2572	-0.0607	0.1964	1211.254	0.125347	-434.087049	-434.078659	-434.077715	-434.121046	29.533	
C	 0.0598689685	 1.5504394533	 0.0938308496	-0.376281
C	-0.0448892636	 0.0219304546	-0.0542478772	-0.301407
C	 0.7089748341	-0.5020438175	-1.2377025739	 0.262087
N	 0.101648079	-0.7466763721	-2.3999923972	-0.262222
N	 1.0973512529	-1.1585039363	-3.1847905222	-0.062937
N	 2.2963011623	-1.2119623237	-2.6572004605	-0.236054
C	 2.089420095	-0.7926748311	-1.3969371247	 0.144331
C	 3.1698450087	-0.6910371348	-0.4062124906	 0.082812
O	 4.3328110289	-0.9405879926	-0.6112153403	-0.256118
H	 1.0986231971	 1.8669542552	 0.2305405369	 0.124708
H	-0.3301236826	 2.0531402603	-0.7957696175	 0.13405
H	-0.5146168991	 1.8911708431	 0.9599521518	 0.123289
H	 0.3220543526	-0.4619949575	 0.8573100015	 0.117747
H	-1.0940194108	-0.2662579166	-0.1675263872	 0.130686
H	 0.9310296583	-1.4287272499	-4.1423728075	 0.301706
H	 2.8216068487	-0.3520021743	 0.5945744591	 0.073603
