16
gdb 60779	2.11614	1.31758	0.85768	4.9418	75.75	-0.267	-0.0445	0.2225	1293.335	0.120341	-400.729476	-400.719526	-400.718582	-400.765182	34.442	
C	-0.0185844582	 1.4806058948	-0.0924427749	-0.422919
C	-0.019190759	-0.0552948496	-0.0052864662	-0.063923
C	 0.6866212286	-0.6037901403	-1.2392270875	 0.163219
O	 0.120689045	-0.9081208583	-2.2531912414	-0.237345
C	 0.6922157773	-0.5471713067	 1.294432654	-0.346679
C	 0.0474986815	-0.0477586147	 2.5082739492	 0.316064
C	-0.4943239637	 0.371075047	 3.4938508028	-0.402308
C	 0.7697032345	-2.0185167472	 1.3172738628	 0.293589
N	 0.8365425635	-3.1713796842	 1.3036368789	-0.311423
H	 1.0025421165	 1.8742396797	-0.1543981772	 0.126476
H	-0.5623695789	 1.801522489	-0.9839180652	 0.147772
H	-0.4983714357	 1.9133718251	 0.788356044	 0.149104
H	-1.0466342362	-0.4281950115	-0.0144145261	 0.130591
H	 1.7986397744	-0.6545167912	-1.1579112972	 0.083993
H	 1.7278069548	-0.1760627838	 1.2684021858	 0.159064
H	-0.9669395544	 0.7337698919	 4.3737734781	 0.214725
