17
gdb 83675	2.35664	1.71077	1.35192	3.6916	71.7	-0.2438	0.0176	0.2614	995.8515	0.137713	-417.977284	-417.969386	-417.968442	-418.009943	29.905	
N	-0.3756268612	 1.488705244	-0.0014769026	-0.506242
C	-0.0544689469	 0.1003107302	-0.0887676128	 0.010318
C	-1.2613523935	-0.8458079324	 0.082166758	 0.11855
O	-2.4507914382	-0.3194790932	-0.5410806928	-0.294025
C	-2.2686022348	-1.160324955	-1.7109523856	-0.090859
C	-0.9004681844	-1.6351164676	-1.208521381	-0.097763
C	 0.2784348773	-0.6445865847	-1.4835906701	-0.229666
C	 0.2007386416	 0.1723316983	-2.6757454148	 0.294128
N	 0.1159232324	 0.8668053472	-3.5977119892	-0.342069
H	 0.3760121629	 2.0823625617	-0.3335343573	 0.240726
H	-1.2113701567	 1.6866743639	-0.5428029014	 0.250455
H	 0.7456905204	-0.1463754674	 0.6163760601	 0.096078
H	-1.4602083023	-1.2721930822	 1.0680265005	 0.088594
H	-3.0262930611	-1.9522698396	-1.7452883181	 0.110767
H	-2.2912240131	-0.5898066142	-2.6450040617	 0.136217
H	-0.6627721521	-2.6955874061	-1.2510357842	 0.093328
H	 1.2522927696	-1.1385081328	-1.450400197	 0.121461
