19
gdb 14132	3.85342	1.59601	1.44536	2.0879	71.3	-0.2097	0.0735	0.2832	955.4481	0.16437	-364.993	-364.984793	-364.983849	-365.02579	30.804	
C	-0.1115094008	 1.5040036784	 0.384282771	-0.329049
N	-0.0417145473	 0.0937401141	 0.0218611774	-0.141171
C	 0.8946290998	-0.645131878	 0.8525572873	-0.332431
C	-1.3321544913	-0.4941707433	-0.109183189	 0.310863
C	-2.2919661434	-0.8689897525	 1.0230131803	-0.343516
C	-1.8458845768	-1.9034703577	 0.0268731095	 0.026664
O	-2.6305060108	-1.8245306709	-1.1647049105	-0.287357
C	-2.1226533085	-0.4857746141	-1.4198006469	-0.123157
H	 0.8840328669	 1.9524212401	 0.3061683505	 0.116723
H	-0.7756469193	 2.0318083669	-0.3066642577	 0.12149
H	-0.4854780953	 1.6697433374	 1.411021894	 0.098004
H	 0.6372917733	-0.6410567122	 1.9285094628	 0.095161
H	 0.950325156	-1.6832823032	 0.5154830942	 0.124383
H	 1.8904624764	-0.200956955	 0.7540666431	 0.120998
H	-1.8246907634	-0.9431715336	 2.0006081742	 0.113747
H	-3.3289286982	-0.5431235177	 1.026130924	 0.11019
H	-1.3798933875	-2.8528125482	 0.2659180141	 0.107263
H	-2.9281631234	 0.248060561	-1.5394142203	 0.100212
H	-1.4667140162	-0.4795661315	-2.2968964779	 0.110981
