15
gdb 34170	3.92524	1.58766	1.39511	3.3137	72.34	-0.2445	0.0097	0.2541	908.6866	0.114794	-379.585828	-379.57964	-379.578695	-379.616333	25.234	
N	 0.0422527224	-1.1242779202	-0.0290348818	-0.340166
C	 0.0117087637	 0.0321603695	-0.003123343	 0.14152
C	-0.0545875604	 1.4677847088	 0.0288789841	 0.211378
C	-1.0365664789	 2.2871109764	 0.9032323524	-0.221091
N	-0.8574999704	 3.4178635816	-0.0726688741	-0.155954
C	 0.6111891057	 3.700147737	-0.0555777607	-0.031715
C	 0.9126503853	 2.9790402633	-1.3353366744	-0.102005
C	 1.251367869	 2.3104551836	-0.0140433937	-0.131795
C	-0.5062249683	 2.3978656789	-1.167951744	-0.05717
H	-2.061359169	 1.9111426891	 0.8503944871	 0.130413
H	-0.7558087558	 2.5034040528	 1.9367238136	 0.12063
H	 1.0403102116	 4.5902051174	 0.3840622868	 0.108131
H	 1.5153483906	 3.23764422	-2.193486855	 0.111408
H	 2.2119426324	 2.0809191809	 0.4236280927	 0.11329
H	-1.248826118	 2.1382288207	-1.91830652	 0.103125
