19
gdb 72083	2.95471	1.77851	1.61427	1.4341	78.6	-0.2215	0.0154	0.2368	934.3249	0.161893	-385.899402	-385.892508	-385.891563	-385.9301	29.228	
C	-0.0349271957	 1.5135596922	 0.0157756063	-0.493207
C	 0.0426159796	 0.0090591882	 0.0194891418	 0.275703
C	 1.2432206583	-0.7055717542	-0.5790998085	-0.28355
C	 0.994411611	-2.1555941711	-0.0915650676	 0.006869
O	 0.5054844202	-1.9603696259	 1.2671206961	-0.25905
C	-0.3389103499	-0.8534680449	 1.1798375377	 0.066067
C	-1.2575797432	-0.8273672919	-0.0606002554	-0.182393
C	-1.2621897007	-2.0644520328	-0.8606046136	-0.042018
C	-0.1226400064	-2.7655174009	-0.89383409	-0.097722
H	 0.856563841	 1.956325133	 0.4752543317	 0.119379
H	-0.1153194181	 1.9070149019	-1.0041227296	 0.121103
H	-0.9071741677	 1.8682577701	 0.5746496849	 0.116142
H	 1.3036343659	-0.6501891819	-1.6693113313	 0.104829
H	 2.1645372614	-0.2987891294	-0.1483444906	 0.102123
H	 1.8885756977	-2.7745452585	-0.0269040674	 0.079498
H	-0.6884443335	-0.5062050145	 2.1440259818	 0.102962
H	-2.1800212006	-0.2649345976	 0.0298476718	 0.079932
H	-2.177170303	-2.3901989714	-1.3445480579	 0.093481
H	-0.0036457863	-3.7112351704	-1.4082480703	 0.089852
