19
gdb 112002	2.76087	1.48603	1.24714	2.4046	76.58	-0.2241	0.0035	0.2276	1081.8229	0.159653	-422.999884	-422.991608	-422.990664	-423.032614	32.01	
C	-0.2282238597	 1.3051745701	 0.0380754141	-0.23953
O	 0.1451668145	-0.0511045172	-0.0838460091	-0.254992
C	 0.7271971997	-0.6157445629	 1.1050375087	 0.060046
C	-0.2867714248	-0.8916136994	 2.2055556201	-0.121267
C	-0.3288772605	-2.1865287504	 2.5201272948	-0.044718
C	 0.5986677867	-2.9991490411	 1.6868966356	-0.152826
C	 0.3208878944	-2.993800705	 0.1834820706	 0.132826
O	-0.9019580372	-2.6242180507	-0.3542516665	-0.428331
C	 1.2883763761	-1.9968601428	 0.7657426183	-0.153841
H	 0.6246340046	 1.9230157819	 0.3570196603	 0.110788
H	-0.5569008272	 1.6386548047	-0.9490362888	 0.133026
H	-1.0506121365	 1.4522684075	 0.7518669648	 0.114617
H	 1.520848255	 0.0706269374	 1.4414637196	 0.076959
H	-0.9114193821	-0.1160719509	 2.6320240164	 0.096515
H	-0.9900683863	-2.6306747899	 3.2558215968	 0.103242
H	 1.1223848287	-3.8468679228	 2.1138944047	 0.087676
H	 0.7781116862	-3.8228525615	-0.3541556395	 0.094841
H	-0.8665327007	-1.6700268248	-0.5092524119	 0.296201
H	 2.3382195591	-2.0727499324	 0.510582991	 0.088769
