21
gdb 89483	2.87601	1.54521	1.35756	1.7608	76.69	-0.249	0.0813	0.3303	1063.4133	0.183894	-424.251051	-424.242908	-424.241964	-424.283207	32.59	
C	-0.215452754	 1.5444646498	 0.038893776	-0.408676
C	 0.0295710266	 0.0391593588	-0.0103467951	 0.013672
C	 0.8959759322	-0.4695432056	-1.2066809898	-0.284337
C	 2.0148893893	-1.2539432933	-0.4734433174	 0.362749
C	 2.7113640993	-2.3524803468	-1.2374489149	-0.488844
C	 2.9200956831	-0.2272250838	 0.2444370658	-0.106852
O	 2.0684218365	 0.2506324713	 1.2957255965	-0.274896
C	 0.8739081333	-0.5207567281	 1.1566749037	 0.1684
O	 1.3051491555	-1.7743788326	 0.6766122111	-0.278819
H	 0.7308537769	 2.0901955737	 0.083206122	 0.128248
H	-0.7703312597	 1.8809049597	-0.8426521655	 0.112401
H	-0.7999447902	 1.8210933311	 0.9233688345	 0.113652
H	-0.9306208918	-0.4877391433	-0.0048783649	 0.077974
H	 0.3311024573	-1.1347354517	-1.8644636451	 0.101368
H	 1.2961486221	 0.3475660056	-1.8140531133	 0.098269
H	 3.260167027	-1.9364783811	-2.0882833326	 0.123092
H	 3.4205100863	-2.8821282132	-0.5947965153	 0.130204
H	 1.9842119337	-3.074068232	-1.6203929825	 0.129728
H	 3.8102238462	-0.7010746331	 0.676180868	 0.09938
H	 3.2290901324	 0.6007946184	-0.4032105784	 0.098223
H	 0.386623858	-0.6115628938	 2.127987027	 0.085064
