20
gdb 100391	1.78768	1.36634	0.95041	1.1563	78.81	-0.2582	-0.0439	0.2143	1330.3395	0.166851	-440.295835	-440.285149	-440.284205	-440.331994	37.51	
C	 0.1406231056	 1.6289757995	 0.132172525	-0.402714
C	 0.1251276344	 0.1000636017	 0.0321079789	-0.205497
C	 0.7158944664	-0.461182787	-1.2815696596	 0.247334
C	-0.0808943091	-0.0567968913	-2.5202104358	-0.422579
O	 2.0674222327	 0.0406036586	-1.3227461541	-0.226713
C	 2.9026594755	-0.4544645814	-2.2610472933	 0.117901
N	 4.0528552294	 0.0442469858	-2.3986874034	-0.443786
C	 0.7588403279	-1.9826788328	-1.1024128951	 0.122377
O	-0.0484712258	-2.7476022984	-1.5585707135	-0.246959
H	 1.1527277714	 2.0160638225	-0.0028871565	 0.150409
H	-0.5086339512	 2.0934794459	-0.615338778	 0.121693
H	-0.2178568786	 1.9389678658	 1.1179819119	 0.120326
H	 0.7012008239	-0.320545745	 0.8652037852	 0.112509
H	-0.8970695994	-0.2826902697	 0.1260625594	 0.117386
H	-0.0974796969	 1.0293464668	-2.6268447746	 0.135839
H	 0.3525455994	-0.4862358398	-3.4272098782	 0.125485
H	-1.1041413902	-0.4291939871	-2.4390592376	 0.14307
H	 2.4879079904	-1.2933182652	-2.836294659	 0.102123
H	 4.5642273816	-0.4517417339	-3.1257470126	 0.232411
H	 1.6017819428	-2.3253094251	-0.4593696692	 0.099386
