23
gdb 122488	4.12166	0.57451	0.53026	3.4082	89.04	-0.2438	-0.0152	0.2286	2129.6205	0.203999	-388.300001	-388.289489	-388.288545	-388.336714	37.614	
C	-0.2709860926	 1.6072425217	 0.1606494769	-0.380987
C	 0.0779716385	 0.1281577927	-0.0249157623	-0.167245
C	 0.6793130917	-0.5102767338	 1.2316514332	-0.153289
C	 1.0303864172	-1.9933680593	 1.0483753331	-0.220703
C	 1.6445500717	-2.5948262787	 2.2979532249	 0.002409
C	 0.8131403202	-3.2164755598	 3.3682606793	-0.29721
C	 1.7466333582	-4.1028899478	 2.5469860361	-0.121145
C	 1.1550007473	-5.0841684327	 1.6128394379	 0.165605
O	 1.6526710566	-6.1493494905	 1.3380734992	-0.272808
H	 0.6174041558	 2.1944074377	 0.4186560475	 0.114389
H	-0.6984955457	 2.034584769	-0.7516503101	 0.113366
H	-1.0012242748	 1.7437859513	 0.9660585813	 0.114134
H	-0.8229041021	-0.4276922992	-0.317093123	 0.095724
H	 0.7838948344	 0.0186730394	-0.8587111724	 0.096998
H	 1.5828451491	 0.0429351565	 1.5238483729	 0.093499
H	-0.0232698245	-0.4053266574	 2.0692495861	 0.097272
H	 0.1249408077	-2.5427395222	 0.7653863541	 0.098752
H	 1.728956034	-2.1015279807	 0.2081056182	 0.105769
H	 2.5260188363	-2.0602610412	 2.6451667103	 0.098312
H	 1.0660705739	-3.0652176915	 4.4112797475	 0.126568
H	-0.2506869566	-3.3270075755	 3.1770982896	 0.121479
H	 2.6550465457	-4.4560569593	 3.022905975	 0.105245
H	 0.1771133478	-4.7825092885	 1.1717386247	 0.063867
