21
gdb 120575	4.04171	0.73108	0.70058	1.0657	87.47	-0.2381	0.0367	0.2748	1711.6529	0.179196	-387.045261	-387.034767	-387.033823	-387.08097	38.76	
C	 0.0980435625	 1.579104368	-0.0178252972	-0.379933
C	 0.2437396407	 0.0553225689	-0.0379482412	-0.16019
C	 0.4623015805	-0.5396786625	 1.359933995	-0.194531
C	 0.5943783449	-2.0481873643	 1.3361974346	-0.045432
C	 1.9155849105	-2.7130420732	 1.0308192892	-0.343684
C	 1.3331786051	-2.780271361	 2.4368819826	 0.178426
O	 1.905229486	-1.9549904958	 3.4188557096	-0.447985
C	 0.8214945652	-4.037166959	 2.920411664	 0.303376
C	 0.422991932	-5.0918267068	 3.3408088125	-0.470503
H	 0.9934576915	 2.0566077647	 0.3954813359	 0.114267
H	-0.0582325696	 1.9790280893	-1.0245946822	 0.110331
H	-0.7532894576	 1.8876248739	 0.5991643263	 0.114575
H	-0.6515298461	-0.3932700706	-0.4885145827	 0.093335
H	 1.0829714246	-0.2284807986	-0.6857020961	 0.097086
H	 1.3563245225	-0.1038339142	 1.8170075604	 0.111187
H	-0.3780391693	-0.2614399741	 2.009643113	 0.100244
H	-0.2833980348	-2.5738204267	 0.969913457	 0.09937
H	 1.9340225585	-3.6172780403	 0.4336046389	 0.120389
H	 2.7814974753	-2.0670248248	 0.9267362129	 0.117185
H	 2.6591735186	-2.4259726221	 3.7909371449	 0.287363
H	 0.0573767487	-6.0166584308	 3.7128884028	 0.195124
