17
gdb 56436	2.19404	1.35966	1.06725	1.9264	74.92	-0.2475	-0.0359	0.2117	1196.8541	0.132253	-421.780179	-421.770588	-421.769644	-421.81527	34.083	
C	-0.5940191973	 1.6528610613	 0.6226001333	-0.393173
C	-0.4704250168	 0.283884765	-0.0643712682	-0.246195
C	 0.8556143275	-0.3072649049	 0.1067719671	 0.345329
C	 1.9378987947	-0.7970957841	 0.2890057585	-0.474464
C	-1.4945226424	-0.720562567	 0.5090233341	 0.354052
O	-1.9882230515	-0.5940967289	 1.6022721353	-0.304096
C	-1.8639582932	-1.8996557535	-0.3501673564	-0.004921
C	-2.4953623636	-1.6876665261	-1.669878536	-0.172764
O	-1.1460809294	-2.1156393785	-1.5616570416	-0.209279
H	 0.1713353621	 2.3340670688	 0.2445658737	 0.125178
H	-1.5798092685	 2.0860840423	 0.4316885352	 0.119122
H	-0.473560013	 1.5448353106	 1.701592549	 0.149327
H	-0.6555743637	 0.3796902607	-1.1415373779	 0.122997
H	 2.898053344	-1.2279347155	 0.4308666353	 0.202451
H	-2.1351753009	-2.7908774394	 0.2129161071	 0.125209
H	-3.2040522171	-2.4297369915	-2.0326948969	 0.13517
H	-2.6421161408	-0.6758903691	-2.0454281215	 0.126054
