15
gdb 76359	2.05865	1.42937	1.20263	4.3737	72.09	-0.2856	-0.0121	0.2735	1105.4242	0.111069	-416.814698	-416.805542	-416.804598	-416.848517	32.606	
C	-0.0636257517	 1.5337195609	-0.0229026349	-0.420695
C	 0.0505810629	 0.0280691961	-0.0082069538	-0.079262
C	 1.340040313	-0.6606841362	-0.2505326822	 0.076198
O	 2.4382349318	 0.1363987497	-0.4681267829	-0.387067
C	 0.7228328977	-0.6954658083	 1.1944828597	-0.058461
C	 1.3835840843	 0.0935857638	 2.1969327405	 0.256523
N	 1.9346653979	 0.7282589736	 2.9909663209	-0.334287
C	 0.1455867298	-1.9353544496	 1.6356086865	 0.246355
N	-0.3246005251	-2.9473782679	 1.9401425583	-0.327782
H	 0.8482303978	 2.0112802747	 0.3367410369	 0.164296
H	-0.2440881828	 1.8741401774	-1.0470382706	 0.140106
H	-0.9011123143	 1.86091705	 0.5989364976	 0.142252
H	-0.82635126	-0.508391751	-0.3569470607	 0.135359
H	 1.3284112803	-1.6267894989	-0.7524088765	 0.13417
H	 3.2335402585	-0.3215874341	-0.1727120787	 0.312295
