19
gdb 79875	2.46342	1.73346	1.42539	2.9877	75.21	-0.2331	0.0635	0.2966	1008.6964	0.158898	-422.951827	-422.943745	-422.942801	-422.983882	31.918	
C	-0.0469234008	 1.5151984756	-0.0095695879	-0.501472
C	-0.0147361029	 0.0113455367	 0.0077378118	 0.282173
C	-0.8875120432	-0.8016440848	 0.8963620977	 0.049751
O	-1.8171004665	-1.7376545342	 0.4278144025	-0.413404
C	 0.5908218552	-1.009266253	 1.0587033334	-0.191552
C	 1.2739551635	-1.7858932139	-0.0859863406	-0.079677
C	 0.5094192742	-2.8616925103	-0.9009205618	-0.089173
O	-0.0274672383	-1.8498124731	-1.7951443136	-0.291309
C	 0.6895022393	-0.8085387478	-1.107066594	 0.069194
H	 0.9305476284	 1.9360874643	-0.2715363443	 0.117452
H	-0.7730515907	 1.8795296091	-0.7468563868	 0.131625
H	-0.3335864247	 1.9206974226	 0.966106538	 0.117271
H	-1.2845613138	-0.1847687787	 1.7078758568	 0.087523
H	-2.0295519428	-2.3234352899	 1.1626417489	 0.283974
H	 1.0794998403	-0.798727583	 2.0047801344	 0.082368
H	 2.3484771015	-1.9149848894	 0.0325161704	 0.079294
H	 1.1679442884	-3.5500197882	-1.4451653329	 0.093322
H	-0.2784461085	-3.4196128876	-0.3919566221	 0.098669
H	 1.2996568914	-0.1955499745	-1.7779204899	 0.07397
