18
gdb 78886	2.59895	2.13701	1.47288	1.1785	72.7	-0.2235	0.0612	0.2846	918.6537	0.148283	-401.883197	-401.875935	-401.874991	-401.914347	29.818	
C	 0.0825167746	 1.5707432301	-0.0331890518	-0.418982
C	-0.0145002117	 0.0445036253	-0.0144046376	-0.062177
C	 0.7868946383	-0.6569983685	-1.0863359401	-0.057167
C	 1.2098240905	-2.0141370211	-0.6529355221	-0.059903
C	 1.1289878408	-2.0039521694	 0.8796277409	-0.160245
C	 2.1202336505	-0.8647079576	 0.8418386967	-0.099511
N	 2.2146306312	-0.8991877519	-0.664112127	-0.166969
C	 0.6719725126	-0.5916593343	 1.1881991632	 0.381851
O	 0.2883665284	-0.3162456745	 2.4918105209	-0.480924
H	 1.1280822069	 1.8966806016	-0.0295467577	 0.127224
H	-0.3967535308	 1.989584911	-0.9231739875	 0.11963
H	-0.4173401555	 2.0017475475	 0.8414911519	 0.111384
H	-1.0653914164	-0.2674818857	-0.0594754419	 0.085753
H	 0.6693183719	-0.4155333283	-2.1368812491	 0.09564
H	 1.3117862428	-2.8817470883	-1.2947439478	 0.096607
H	 1.031040077	-2.832789602	 1.5652837005	 0.101969
H	 2.9807490298	-0.6269442887	 1.4533211936	 0.097114
H	 0.6119234991	 0.5619554249	 2.7222868051	 0.288705
