14
gdb 50899	5.67744	0.68599	0.6706	2.0789	64.5	-0.2728	-0.0452	0.2277	1594.5967	0.097926	-473.864625	-473.85533	-473.854386	-473.901384	30.452	
O	-0.1619822089	 0.102215508	-0.0061985374	-0.226583
C	 0.0909583422	 1.2742046719	-0.0633278912	 0.163812
C	 1.4855682887	 1.8100000495	-0.377184094	-0.401772
C	 1.4245690868	 3.0781845154	-1.1943361288	 0.446347
O	 0.643600047	 3.9756641079	-1.0217895305	-0.341791
O	 2.3686299446	 3.0730001156	-2.172487033	-0.230854
C	 2.4092718328	 4.246528309	-2.9937386716	-0.201501
C	 3.2597213595	 5.284222264	-2.4023971371	 0.270324
N	 3.9378805893	 6.1023609065	-1.9510428191	-0.287205
H	-0.6690090346	 2.059731829	 0.1224761661	 0.11826
H	 1.9461401062	 2.0769735804	 0.5848715719	 0.176772
H	 2.0978096751	 1.0390307092	-0.8447925774	 0.157319
H	 2.8272132065	 3.9291524068	-3.9510146478	 0.172427
H	 1.4009246348	 4.6422503971	-3.1377930102	 0.184446
