19
gdb 105006	2.32011	1.35381	0.97364	3.4098	75.35	-0.2675	0.0244	0.2919	1250.5292	0.158532	-419.195307	-419.185644	-419.1847	-419.229919	35.408	
C	-0.5171737569	-1.6309557462	 0.6541523848	-0.404217
C	 0.5898731181	-0.6547220224	 0.2495835929	-0.262429
C	 0.9334989488	-0.646577809	-1.2311086285	 0.400468
C	 0.6809559076	-1.7951706579	-2.1107467981	-0.229205
O	-0.1640448576	-0.6292190732	-2.1462464881	-0.271189
C	 2.0708813152	 0.3157490172	-1.6261477603	-0.183071
N	 2.2527161334	 0.3392565587	-3.0738478401	-0.510969
C	 1.8285205375	 1.6660243209	-1.0629556223	 0.265643
N	 1.6640434194	 2.7410588544	-0.6699132367	-0.332838
H	-1.4005377199	-1.4927838309	 0.0248641646	 0.142449
H	-0.1953604835	-2.6736272402	 0.5733157406	 0.118023
H	-0.8093598621	-1.4577706336	 1.6932203884	 0.121524
H	 0.2948518333	 0.3634718109	 0.5288235769	 0.139375
H	 1.5082636113	-0.8685190083	 0.8122117902	 0.106734
H	 1.3015392544	-1.9366488916	-2.9900800459	 0.138768
H	 0.2095091691	-2.685696651	-1.703646084	 0.119808
H	 2.9939686212	-0.0593599349	-1.1656678605	 0.136861
H	 1.3778139625	 0.6250487726	-3.504980782	 0.256435
H	 2.9619603682	 1.0179407845	-3.3287833721	 0.24783
