17
gdb 37809	2.53686	2.22694	1.71498	0.7231	66.01	-0.23	0.0712	0.3012	849.5759	0.138823	-458.933468	-458.927115	-458.926171	-458.963972	26.248	
C	-0.0466221055	 1.3919031873	 0.0858615076	-0.078061
C	 1.3513114237	 2.0039038555	-0.0171615541	-0.233008
C	 2.0917353173	 1.5534336531	-1.2842286129	 0.176035
O	 1.1996607474	 1.4737780662	-2.389297634	-0.256188
C	 0.7708665121	 0.1377072463	-2.4625566467	-0.029455
C	 1.7711122157	-0.6735039775	-1.6715025751	 0.017128
O	 2.6648601	 0.2609695847	-1.1259141818	-0.258542
C	 0.3305392067	-0.5945661531	-1.1986046316	 0.044055
O	-0.0403198771	-0.0280039906	 0.0161895198	-0.256523
H	-0.492750014	 1.63020751	 1.0549894506	 0.110439
H	-0.6909000132	 1.8059243608	-0.7000324772	 0.112604
H	 1.2523952828	 3.096268697	-0.0307198057	 0.103418
H	 1.9643243414	 1.7324621429	 0.8477695895	 0.120386
H	 2.8979051178	 2.2481287805	-1.5407334625	 0.099733
H	 0.3621991837	-0.1073870524	-3.4350285661	 0.113268
H	 2.2568464657	-1.5922304614	-1.9762021939	 0.108799
H	-0.2557901144	-1.4879398194	-1.4071320558	 0.105913
