16
gdb 74345	3.19916	1.20687	0.97101	2.6957	80.33	-0.2519	-0.0289	0.223	1216.8276	0.123181	-400.741682	-400.733128	-400.732184	-400.775057	31.669	
C	 0.0117315825	 1.5270677052	-0.0775129211	-0.486613
C	-0.0070389045	 0.0371984245	-0.0218402167	 0.270128
C	-1.0303955635	-0.8168491721	-0.0640471247	-0.219881
C	-0.5162924271	-2.2352135844	 0.0325408948	-0.111717
O	 0.9138109668	-2.0851589955	 0.1312089901	-0.241191
C	 1.2366002429	-0.7500971404	 0.1001704787	 0.338668
N	 2.4104598645	-0.2823852236	 0.1588530617	-0.543445
C	-1.0459066031	-2.9758738929	 1.1752559456	 0.336588
C	-1.509753417	-3.5815045788	 2.1026649354	-0.462171
H	 0.6258631419	 1.8688381605	-0.9167670059	 0.150517
H	-0.994751982	 1.9387748359	-0.1798146397	 0.122552
H	 0.4735587447	 1.9347685116	 0.8275432695	 0.151701
H	-2.0850741586	-0.5909585326	-0.1410635731	 0.128487
H	-0.724082526	-2.799945082	-0.8880533075	 0.131351
H	 3.0984618723	-1.0317710464	 0.2432239667	 0.226412
H	-1.9112126139	-4.118682819	 2.9265662059	 0.208612
