16
gdb 14065	3.5244	1.58839	1.46445	3.2344	60.84	-0.2354	0.0421	0.2776	907.0374	0.129528	-420.814289	-420.80647	-420.805526	-420.846511	28.744	
O	 0.085131713	 1.3860221702	 0.0103507152	-0.431427
C	 0.0578541569	-0.0079962644	-0.0082102458	 0.028585
C	-0.4618860403	-0.7225716489	 1.2222191103	-0.046948
O	-0.9551597941	 0.1040677224	 2.2483375858	-0.426644
C	-1.2723779231	-0.7134053415	-0.0365065934	 0.212775
C	-2.6337879483	-0.0701092463	-0.2616491835	-0.130527
O	-3.0397475552	-1.1841931625	-1.0932543835	-0.276525
C	-1.7833734092	-1.8653106525	-0.8924195081	-0.143879
H	-0.3523456291	 1.6506157693	 0.8318847982	 0.28546
H	 0.8948748955	-0.4271843419	-0.5603271447	 0.104741
H	-0.0075623535	-1.6571162847	 1.5496461661	 0.095725
H	-0.2338324316	 0.2730183303	 2.865240253	 0.298904
H	-3.2661456779	 0.0326324949	 0.6280553642	 0.112962
H	-2.6164325345	 0.8773615166	-0.8136671987	 0.11349
H	-1.2491328157	-2.0356405728	-1.8366066508	 0.103696
H	-1.9130378629	-2.8248176981	-0.3729263842	 0.099612
