17
gdb 120185	5.2092	0.78179	0.75799	3.0964	69.67	-0.2597	-0.0139	0.2458	1479.4452	0.134079	-458.888803	-458.88018	-458.879236	-458.922872	31.214	
O	-0.0708164596	 1.4468753544	-0.0054848864	-0.416358
C	 0.0001772516	 0.0386930744	 0.1387030196	-0.070834
C	-1.3884759863	-0.5213129609	-0.1537350895	-0.221607
C	-1.4259152289	-2.0416081817	-0.1136039549	-0.004249
C	-1.4722800157	-2.7437853691	 1.2795369177	-0.089615
O	-2.8828113157	-2.2959361979	 1.4264854158	-0.298466
C	-2.8204449497	-2.7230382775	 0.002275177	-0.100992
C	-2.1022647859	-3.9753917464	 0.5741456794	 0.478737
O	-2.1230597297	-5.1601495174	 0.5773340192	-0.307367
H	 0.7937730001	 1.8164630432	 0.1957641846	 0.288239
H	 0.7354428769	-0.3982472122	-0.5578818975	 0.085039
H	 0.3104523219	-0.2447052764	 1.1576975328	 0.088298
H	-2.1023381611	-0.1110836263	 0.5645743264	 0.13216
H	-1.6923128135	-0.1785349043	-1.1497841175	 0.113044
H	-0.7438525754	-2.4986204393	-0.840429773	 0.091439
H	-0.8195117278	-2.648328698	 2.1446588246	 0.115688
H	-3.7155364314	-2.5970994047	-0.6033961284	 0.116843
