18
gdb 44356	3.43827	1.60343	1.34007	3.4563	75.66	-0.2473	0.0316	0.2789	978.4045	0.150847	-401.939145	-401.932365	-401.931421	-401.970418	27.841	
N	-0.038192408	 1.0564965099	 0.9985094082	-0.520056
C	 0.0196607694	 0.1331354874	 0.133149613	 0.395027
C	-1.2506064284	-0.4980851567	-0.4067397774	-0.32482
C	-1.0918042405	-1.9528801085	-0.8389935341	-0.041696
C	-0.4892933237	-2.3501029371	-2.1640424171	-0.067145
C	 0.5132246287	-1.2876336041	-2.6145715565	-0.269786
C	 1.230448778	-1.4359294765	-1.2298981295	 0.100167
O	 1.2171960108	-0.3088996966	-0.3516242167	-0.25535
C	 0.2784625451	-2.5701764205	-0.8581025919	-0.10132
H	 0.90556113	 1.3724770704	 1.2328907393	 0.214921
H	-1.9979457651	-0.4034891299	 0.3821687452	 0.140043
H	-1.6115165535	 0.1161757312	-1.2413350483	 0.131224
H	-1.8760391457	-2.6222412501	-0.5006088227	 0.098177
H	-0.9535479799	-3.0937543145	-2.7991338441	 0.092235
H	 1.1590385684	-1.6237548913	-3.4287336497	 0.111511
H	 0.1255910039	-0.2944809347	-2.8615368074	 0.106828
H	 2.2810915145	-1.7103564478	-1.3148747394	 0.098013
H	 0.5378873162	-3.4791796705	-0.3311327309	 0.092027
