16
gdb 117438	5.78015	0.62511	0.57015	2.9472	68.38	-0.277	-0.0089	0.2681	1851.7731	0.12109	-475.040184	-475.030123	-475.029178	-475.077945	32.64	
C	 0.0665963495	 1.3930775437	-0.1509298127	-0.227828
O	 0.0125836529	-0.0118803544	-0.0299082242	-0.213495
C	 0.6274379771	-0.6652385752	-1.095377674	-0.170979
C	 0.5240106944	-2.1642038846	-0.8845337796	 0.427937
O	 0.007774188	-2.7357623837	 0.0323275638	-0.321006
O	 1.1253895141	-2.7984514444	-1.9271247999	-0.241141
C	 1.0904163248	-4.2261198086	-1.8380663511	-0.201772
C	 1.762515186	-4.7688150002	-3.0165700466	 0.268867
N	 2.2866498909	-5.231785526	-3.9348609222	-0.287141
H	 1.1043035038	 1.7600426156	-0.1758992149	 0.111373
H	-0.4460931155	 1.7435000913	-1.0600358662	 0.111382
H	-0.4368121573	 1.8085101593	 0.7240578293	 0.14004
H	 0.1610195493	-0.4221149469	-2.0656304456	 0.126727
H	 1.6957200216	-0.4049169324	-1.1905165856	 0.1267
H	 1.5924243403	-4.565343571	-0.9262011543	 0.175098
H	 0.0559706301	-4.5818741724	-1.7946255461	 0.175238
