23
gdb 68405	2.1181	1.82085	1.52819	1.5416	84.5	-0.2325	0.0792	0.3116	1056.1613	0.205285	-388.286153	-388.277184	-388.27624	-388.318736	36.443	
C	 0.025664854	 1.5382964399	 0.0355676352	-0.506405
C	 0.0434255232	 0.0274475038	 0.0317936723	 0.270885
C	 0.891017818	-0.812240575	-0.9906060483	-0.284061
C	 0.6135414329	-1.9135671081	 0.0547797447	 0.110265
C	 0.7827945729	-0.8189021674	 1.1298805232	-0.28408
O	-0.8072865426	-2.1070034198	-0.0184124382	-0.330156
C	-1.3156504554	-0.737462072	-0.0399913171	 0.389086
C	-2.2441676715	-0.521165063	 1.1599964477	-0.439358
C	-2.1172692222	-0.5132263293	-1.3268609282	-0.439365
H	 1.0419424641	 1.941853013	 0.0888033173	 0.115997
H	-0.4409657856	 1.9347856007	-0.872996462	 0.120206
H	-0.5313610255	 1.9293552148	 0.8941882627	 0.120201
H	 0.5177723286	-0.9667028353	-2.0035109864	 0.096601
H	 1.9344209069	-0.4910392142	-1.0139750534	 0.094533
H	 1.1140373517	-2.8804674694	 0.0772906655	 0.074515
H	 1.818314561	-0.4982325354	 1.2613274886	 0.094533
H	 0.3084585585	-0.9795203107	 2.0985647407	 0.096593
H	-1.7333123454	-0.650483229	 2.1152969904	 0.115658
H	-2.6834760728	 0.4816570629	 1.137190854	 0.110927
H	-3.0625172596	-1.2463105613	 1.12037613	 0.123419
H	-2.9337913257	-1.2398170864	-1.3763421726	 0.12346
H	-2.5587832414	 0.488778915	-1.3414971171	 0.110921
H	-1.5113451539	-0.6344476137	-2.2260131589	 0.115624
