14
gdb 26077	3.3384	1.20625	0.95328	1.4997	67.72	-0.2496	-0.0017	0.2479	1169.2503	0.100269	-436.665412	-436.657276	-436.656332	-436.698857	29.457	
O	-0.0476960119	 1.4328503617	 0.008648089	-0.408819
C	 0.0601359189	 0.0121945573	 0.0011704794	-0.158853
C	 0.6983179053	-0.4810445892	-1.2230662851	 0.311201
C	 1.2458652252	-0.8346682574	-2.232168864	-0.457363
C	 0.7708787998	-0.4731575031	 1.2402987208	 0.244759
C	 1.2215728447	 0.2610636745	 2.2849337352	-0.113668
O	 1.7764993695	-0.5989543467	 3.1938395468	-0.139231
C	 1.6188960759	-1.8191407119	 2.6355836055	 0.073151
N	 1.0326972461	-1.816726951	 1.4844225889	-0.30003
H	 0.7850194633	 1.7834438259	-0.3269634643	 0.290561
H	-0.9738681871	-0.3564325149	 0.0288511199	 0.140767
H	 1.720180294	-1.1640036102	-3.1237033874	 0.205084
H	 1.2191856871	 1.3056453848	 2.5368189634	 0.158464
H	 1.9918444292	-2.6620988897	 3.1959274218	 0.153977
