18
gdb 2344	5.37946	1.56537	1.34883	2.1194	65.49	-0.2241	0.0811	0.3053	944.1635	0.158583	-326.927446	-326.919156	-326.918212	-326.960364	28.914	
C	 0.1485743073	 1.3580245779	 0.0059830654	-0.224456
O	 0.3756085978	-0.0303919946	 0.0037183145	-0.232392
C	 0.398384274	-0.580033247	-1.298470274	-0.080167
C	 0.5550121555	-2.0740373284	-1.1825615796	 0.008535
C	 1.2588819131	-2.8419319238	-2.2514843755	-0.26128
N	 1.8368796551	-2.7249424155	-0.9210826842	-0.069604
C	 3.0386257287	-1.9194179356	-0.7605225289	-0.310315
H	 0.9363022461	 1.9042119054	-0.5377941778	 0.10202
H	-0.8206739374	 1.6150067007	-0.4510062875	 0.102924
H	 0.1460361807	 1.6883653466	 1.0475201874	 0.128328
H	-0.5451390612	-0.3553504678	-1.8262668054	 0.089756
H	 1.2100327528	-0.1317692481	-1.8929393594	 0.084776
H	-0.2754027688	-2.5481201424	-0.6616027433	 0.095096
H	 0.913175935	-3.8294763191	-2.5461039897	 0.114733
H	 1.7124410585	-2.2632217914	-3.0572355345	 0.102072
H	 3.1567238019	-1.1160177248	-1.504837321	 0.095278
H	 3.0346338624	-1.4656100832	 0.234452497	 0.1346
H	 3.9110183084	-2.5757331988	-0.8412726736	 0.120095
