16
gdb 18830	4.35986	2.13699	1.77889	1.3618	69.02	-0.2183	0.0084	0.2267	776.815	0.13134	-346.561421	-346.555136	-346.554192	-346.591509	25.391	
C	-0.0068540115	 1.5004940551	 0.0726536177	-0.50284
C	-0.1005608388	 0.0117568646	-0.0083458511	 0.318023
C	-0.0440755637	-0.7846771897	-1.0890082308	-0.162616
C	-0.0367963693	-2.2088656366	-0.6778068647	-0.130411
C	 0.9108964783	-2.5662724128	 0.530273802	 0.101704
O	 1.3795631669	-1.4157702043	 1.1937159696	-0.296801
C	-0.020586368	-0.8923709249	 1.2029351914	-0.017619
C	-0.531813627	-2.2893345784	 0.749217366	-0.158033
H	 0.9162737327	 1.8132814704	 0.5769662605	 0.136599
H	-0.0151917523	 1.9542272533	-0.9222482276	 0.124289
H	-0.8394230736	 1.9271101428	 0.6467276218	 0.121092
H	 0.0877244386	-0.453025751	-2.112320537	 0.095425
H	-0.25227364	-3.0169717913	-1.3664868053	 0.086355
H	 1.5293271841	-3.4552766151	 0.5528566028	 0.109923
H	-0.2701120639	-0.4896021602	 2.1841711273	 0.077224
H	-1.3615376125	-2.8738925718	 1.1249730673	 0.097687
