16
gdb 6182	3.82342	1.67463	1.55834	4.7885	66.96	-0.2651	-0.0416	0.2235	886.1646	0.129872	-383.802685	-383.79517	-383.794226	-383.834106	28.59	
C	-0.0038746329	 1.5345091094	-0.0194930998	-0.409794
C	-0.0076123232	 0.0021787135	 0.0356117758	 0.298259
C	-1.4283302687	-0.5667768637	-0.0589686506	-0.4098
O	 0.752335103	-0.4919125076	-1.0887013421	-0.250065
C	 1.828046778	-1.2290725457	-0.6624949661	 0.402603
O	 2.6039604491	-1.7408343311	-1.4189924437	-0.346924
C	 1.7985771472	-1.2369073602	 0.8220381442	-0.232968
C	 0.7469902044	-0.531717399	 1.2290490742	-0.090768
H	 1.0193699112	 1.916864772	 0.0081860273	 0.133367
H	-0.4794644602	 1.8749768047	-0.943146759	 0.136454
H	-0.5561691892	 1.9501141082	 0.8289205576	 0.12043
H	-1.9041826511	-0.2279293796	-0.9830807086	 0.136474
H	-1.4049631786	-1.6592252336	-0.0581673983	 0.133355
H	-2.0339593595	-0.2287541037	 0.7875027143	 0.12043
H	 2.5442180775	-1.7533398209	 1.4083540678	 0.134022
H	 0.4304113633	-0.3361633627	 2.2461333271	 0.124926
