17
gdb 32685	3.77401	1.25906	0.99891	3.2479	75.85	-0.2229	0.0316	0.2545	1169.0138	0.137817	-417.991486	-417.983675	-417.982731	-418.024462	28.463	
C	-0.286345234	 1.3279751328	-0.1972476891	-0.241553
O	 0.3963229313	 0.1253279557	 0.0944863944	-0.223058
C	 0.8162412298	-0.55466325	-1.0530130504	-0.0645
C	 1.3580904553	-1.9853879762	-0.7043218288	-0.199449
N	 0.2676957363	-2.5138729702	-1.5556136739	-0.011253
C	-0.4209778083	-3.4681341919	-2.2308019526	-0.026291
N	-1.3610205673	-2.8942482678	-2.9662464945	-0.26203
C	-1.2605063728	-1.5316379392	-2.7797735471	-0.232415
C	-0.2397175335	-1.2901598446	-1.8913716626	 0.288722
H	 0.3490775986	 2.0270250349	-0.7625085152	 0.108408
H	-1.2017605538	 1.1389412383	-0.775968955	 0.121429
H	-0.5555904371	 1.7843364689	 0.757387427	 0.134111
H	 1.5109911925	 0.0634069354	-1.6404107672	 0.087824
H	 2.358773838	-2.224506618	-1.0702282366	 0.133558
H	 1.2562565523	-2.2394719242	 0.3521297473	 0.143255
H	-0.2298817565	-4.5272996349	-2.1619775347	 0.134505
H	-1.9231269307	-0.848519709	-3.2869542611	 0.108738
