16
gdb 14541	4.70686	1.56451	1.44118	1.2007	71.62	-0.2393	0.0335	0.2728	905.4089	0.12935	-346.532756	-346.525211	-346.524267	-346.564046	29.45	
O	-0.1384515196	 1.3631594149	-0.0210837953	-0.462261
C	-0.0630329497	-0.0382392741	 0.0223111549	 0.226828
C	 1.0293130837	-0.605523601	-0.7308824295	 0.262306
C	 1.966017556	-1.0478593578	-1.3424816499	-0.424291
C	-0.4656482475	-0.8133431735	 1.265457646	-0.124004
C	-1.5345910581	-0.0343469422	 2.040180681	-0.239853
C	-2.4397015094	-0.0343986964	 0.7666343085	-0.239763
C	-1.3538590245	-0.8090935348	 0.0091631812	-0.09811
H	 0.6768705918	 1.7120119494	 0.356508673	 0.285977
H	 2.7837872337	-1.4399121429	-1.8948035821	 0.192718
H	 0.1742410922	-1.594729116	 1.6575179156	 0.095517
H	-1.9641784781	-0.6176177332	 2.8569289755	 0.104448
H	-1.2282544874	 0.9429131026	 2.4214582993	 0.100357
H	-3.3453563138	-0.628368129	 0.9045106221	 0.103974
H	-2.7059321385	 0.9392913969	 0.3513037008	 0.11731
H	-1.5191804409	-1.587658853	-0.725406541	 0.098846
