22
gdb 113592	4.09844	0.91311	0.8361	2.5234	82.16	-0.2409	0.0724	0.3134	1449.9002	0.196079	-404.336658	-404.327657	-404.326713	-404.371239	34.281	
O	-0.0930209244	 1.2365999628	-0.9621768652	-0.422123
C	 0.0009354448	 0.2723834357	 0.0734336251	-0.064309
C	-1.3205004329	-0.4320413687	 0.2758986463	-0.113704
N	-1.7102960129	-1.3077662661	-0.8535991797	-0.388622
C	-1.4623110259	-1.8936913993	 0.4830083049	 0.352936
C	-0.2983356534	-2.8948428947	 0.5924183812	-0.267345
C	-0.8803832415	-4.1217034331	 1.3417325434	-0.207805
C	-2.4071708773	-3.9897387474	 1.1895856377	-0.204385
C	-2.628027205	-2.471984197	 1.2841419218	-0.281322
H	-0.4301904819	 0.7571590167	-1.7288188633	 0.288502
H	 0.7875908677	-0.465355642	-0.1412763404	 0.088144
H	 0.2904136287	 0.8162911846	 0.9791001126	 0.103739
H	-2.1027999917	 0.199405858	 0.6968333285	 0.081705
H	-2.7108633737	-1.2321419371	-1.0225284251	 0.224928
H	 0.0366650069	-3.1577403338	-0.4142870654	 0.116298
H	 0.563003775	-2.4753620012	 1.1202878952	 0.102923
H	-0.4927766929	-5.0694796646	 0.9593953948	 0.098939
H	-0.6155554192	-4.072666371	 2.4042871146	 0.099489
H	-2.7217451854	-4.3504489428	 0.2028284387	 0.10268
H	-2.9642699293	-4.5558354353	 1.9409706604	 0.095229
H	-2.5535877169	-2.1534916935	 2.3324713136	 0.104233
H	-3.6014854785	-2.1362298103	 0.9120724002	 0.089868
