23
gdb 118247	4.14279	0.64066	0.60768	2.3716	83.81	-0.2532	0.0832	0.3364	1918.9454	0.203325	-425.395164	-425.384407	-425.383463	-425.432171	37.883	
C	-0.0881686177	 1.3398255847	-0.1792703704	-0.227021
O	-0.0544645664	-0.0644506029	-0.1179068109	-0.233269
C	-1.329789934	-0.6397279867	 0.0651063095	-0.057411
C	-1.189106373	-2.160176545	 0.1457693665	 0.017122
C	-0.2878669089	-2.5645706393	 1.3197726551	-0.397798
C	-2.5871167283	-2.8051674619	 0.2145716268	-0.234181
C	-2.5679618145	-4.3060006588	 0.050944918	 0.093382
C	-3.6021575752	-5.0236150843	-0.7041757418	-0.181327
O	-2.3109053621	-4.7949318447	-1.2704721428	-0.236409
H	 0.9378105247	 1.6874006759	-0.3236784564	 0.126281
H	-0.7057266251	 1.6984530039	-1.0184729429	 0.102605
H	-0.4857840107	 1.7813348382	 0.748861556	 0.101795
H	-1.7960360235	-0.2501298278	 0.9892743083	 0.07733
H	-1.9944666939	-0.363462197	-0.7719254222	 0.081839
H	-0.7172275453	-2.487898037	-0.7892244195	 0.101282
H	 0.6661263056	-2.0366643221	 1.2608630038	 0.135515
H	-0.7569257783	-2.3087286438	 2.2783330816	 0.103962
H	-0.082161806	-3.6387752495	 1.3229644615	 0.114463
H	-3.0611417291	-2.5602391475	 1.1758482804	 0.096892
H	-3.2234921353	-2.3841160351	-0.5732874031	 0.097747
H	-2.0456444743	-4.8644993851	 0.8289110439	 0.093856
H	-3.8319928228	-6.0609815748	-0.4637492386	 0.112715
H	-4.4181498059	-4.4632427596	-1.1597123428	 0.110631
