20
gdb 111454	2.54069	1.49335	1.04571	1.2815	80.85	-0.2207	0.0221	0.2427	1175.8451	0.171513	-403.127247	-403.11844	-403.117496	-403.160554	33.632	
C	 0.0221264391	 1.5018972801	-0.0302381502	-0.47471
C	-0.013537952	 0.0064057971	-0.0377143839	 0.310697
C	-0.1337582457	-0.7825382197	-1.1129501428	-0.163008
C	-0.078052462	-2.2237979446	-0.7423697254	-0.080464
N	 1.2276164093	-2.6128051485	-0.1247263987	-0.338343
C	 0.0693086046	-2.2614575919	 0.7328636258	-0.076322
C	 0.0927663608	-0.8215751047	 1.2459259609	-0.081313
C	 1.3306718776	-0.5390956393	 2.1025218849	-0.082518
O	 1.1905302422	 0.747144367	 2.6956885339	-0.422853
H	 0.9605480176	 1.8760085301	 0.3901077465	 0.134952
H	-0.0996835894	 1.9043919477	-1.0399218306	 0.109741
H	-0.7725034176	 1.9102257601	 0.6064190022	 0.124088
H	-0.2247678781	-0.4313854068	-2.1346797492	 0.086586
H	-0.6290433989	-2.9764164025	-1.2963324479	 0.085163
H	 1.3026142267	-3.6293341455	-0.1425892996	 0.223269
H	-0.3781621987	-3.0395991435	 1.3422928627	 0.083408
H	-0.7840506958	-0.6353883168	 1.8832623811	 0.082978
H	 1.4108847913	-1.3178511185	 2.8781356117	 0.08158
H	 2.2269020113	-0.6039859113	 1.4727260781	 0.110981
H	 2.0149808176	 0.9610965114	 3.1417229305	 0.286085
