14
gdb 4263	4.01161	1.85163	1.27698	7.8231	66.92	-0.2277	-0.021	0.2067	900.7779	0.10907	-378.787302	-378.780346	-378.779402	-378.818559	25.692	
C	-0.0244275795	 1.5277693546	 0.0618623182	-0.496445
C	 0.0010838185	 0.0330929208	-0.0391152755	 0.382919
C	-0.0274608052	-0.6826263603	-1.1834853826	-0.29493
C	 0.001207396	-2.1503995326	-1.1791366519	 0.383367
O	-0.0235664442	-2.8148340951	-2.1953385886	-0.362522
N	 0.0606706151	-2.7739128742	 0.0977909993	-0.305808
C	 0.085196553	-2.0348193096	 1.144866141	 0.094835
N	 0.0588841202	-0.6664771684	 1.1523166083	-0.351674
H	 0.8714404123	 1.9048608804	 0.5693505638	 0.143306
H	-0.0685569571	 1.9747951704	-0.9319052615	 0.155553
H	-0.8959356989	 1.8704021258	 0.6323075942	 0.143396
H	-0.0727606972	-0.1841795733	-2.1437515405	 0.112378
H	 0.1307099375	-2.489930903	 2.1342768699	 0.131226
H	 0.0818489594	-0.1711511454	 2.0295781958	 0.264399
