18
gdb 48277	2.4113	1.13882	0.84549	4.127	76.03	-0.2534	-0.0283	0.225	1362.3283	0.148004	-435.256863	-435.247664	-435.24672	-435.292471	32.277	
N	 0.1826013846	 1.133825497	-0.0434774695	-0.454853
C	 0.0160568363	-0.1230787191	-0.0905278697	 0.10841
N	-1.2311671002	-0.7326554444	 0.0375919975	-0.063061
C	-1.3408735183	-2.1939248219	 0.0768231662	-0.230248
C	-1.2980182878	-2.757834831	 1.4794560746	 0.036401
C	-0.7926904808	-4.1328619103	 1.7031250102	-0.243403
N	-0.0186572981	-2.9704472189	 2.1760652721	-0.3103
C	-2.3945571419	 0.0158736687	 0.1598854461	 0.165189
O	-3.486616286	-0.4841812657	 0.3057796552	-0.325137
H	 1.1622541553	 1.3699988822	-0.1797636646	 0.236705
H	 0.8117852448	-0.8615109806	-0.2440149264	 0.095472
H	-2.2925430699	-2.4522174169	-0.3935180117	 0.152377
H	-0.5309029561	-2.6168822813	-0.5283334525	 0.104813
H	-2.0867798998	-2.3830726953	 2.1265929798	 0.121689
H	-1.2222906407	-4.7500052008	 2.4862808306	 0.129013
H	-0.4269459514	-4.6883252466	 0.8423427432	 0.111579
H	 0.7612487274	-2.8007856238	 1.5440744282	 0.222063
H	-2.2015888176	 1.0950921989	 0.1019796708	 0.143291
