20
gdb 105688	3.08086	0.90698	0.80425	2.7017	76.65	-0.252	0.0301	0.2821	1487.6048	0.16962	-440.296232	-440.28635	-440.285406	-440.332231	35.243	
C	 0.4221745637	 0.7042783935	 0.8667154096	-0.384224
C	 0.050396738	-0.2634725031	-0.2647809149	-0.258202
C	-1.3845804634	-0.7556165979	-0.1936460349	 0.395663
C	-2.4562820916	 0.274508119	-0.5339216052	-0.230693
N	-3.7791296618	-0.1814129725	-0.1629644554	-0.277559
C	-4.8613807712	-0.0658000578	-0.975561345	 0.152297
O	-4.8610206586	 0.4508192059	-2.0734249065	-0.32518
C	-1.6807621636	-2.1860642026	-0.3391883127	-0.225338
O	-1.6883276288	-1.5663703284	 0.9579037234	-0.283816
H	 1.483179743	 0.964270117	 0.8145633718	 0.119087
H	-0.1462011994	 1.6379433178	 0.8174342022	 0.121894
H	 0.2315309745	 0.2417537758	 1.8393317013	 0.136548
H	 0.2112986509	 0.2117570562	-1.240893166	 0.107914
H	 0.7149295913	-1.1326335326	-0.2260828438	 0.107156
H	-2.2223176277	 1.2200258746	-0.0274737548	 0.117901
H	-2.4668881373	 0.4769965016	-1.6084505161	 0.153201
H	-3.861608893	-0.6602125776	 0.7212727894	 0.259193
H	-5.7678598252	-0.5046139717	-0.5135092486	 0.076082
H	-2.6551290181	-2.5053923176	-0.7025822725	 0.119779
H	-0.8648923617	-2.8859205494	-0.5109775413	 0.118298
