17
gdb 27161	2.99524	1.3301	0.9809	0.3358	77.86	-0.1773	0.0358	0.2131	1183.3915	0.137401	-418.011281	-418.002945	-418.002	-418.044498	31.348	
N	 0.2545560314	 1.5107921094	 0.1734849776	-0.611653
C	 0.1123145629	 0.1133307444	 0.0614954504	 0.154498
C	-1.0576099776	-0.5962161055	-0.1463804893	 0.275008
N	-0.7108898833	-1.9252452631	-0.3144299467	-0.306738
C	 0.638139823	-2.0715349961	-0.1795515945	-0.081593
C	 1.1845131542	-0.8259008633	 0.0359496007	-0.207614
C	-2.4599000283	-0.173662176	-0.2450906571	-0.051757
C	-3.3569244645	-0.5752642762	-1.3473815455	-0.180892
O	-3.4401193191	-1.215227659	-0.0694541507	-0.252675
H	 1.024506589	 1.7617195927	 0.7814587513	 0.240923
H	-0.5835189594	 1.9653778928	 0.5149156267	 0.235548
H	-1.3975888461	-2.6601518376	-0.3175799494	 0.265401
H	 1.1042706001	-3.0417823512	-0.2399224769	 0.116093
H	 2.2341591076	-0.5998617933	 0.1488511352	 0.086983
H	-2.7038553382	 0.7577802577	 0.2687801194	 0.088348
H	-4.2111195836	 0.0475481325	-1.6114483384	 0.115962
H	-2.9576321781	-1.1893918983	-2.152850073	 0.11416
