23
gdb 117680	2.94748	0.94799	0.87027	1.0858	82.56	-0.2548	0.0806	0.3354	1474.2255	0.202789	-425.396751	-425.386059	-425.385115	-425.432423	38.944	
C	-0.0742637825	 1.3766126282	-0.2085983555	-0.228546
O	-0.0040288621	-0.0185876465	-0.0433334989	-0.241305
C	 0.6115097472	-0.6723315102	-1.1323615955	-0.06164
C	 0.6242507106	-2.1931425955	-0.8834571626	 0.20426
C	 1.3988282705	-2.5036717153	 0.410538858	-0.417272
C	-0.8214018802	-2.7067666999	-0.7884339605	-0.440092
C	 1.3805855368	-2.8109312236	-2.0548234693	 0.076533
C	 1.0627749897	-4.1038419818	-2.6728620313	-0.191464
O	 0.7251564621	-2.876436149	-3.3251785913	-0.247381
H	 0.9264866984	 1.8280825387	-0.3010395382	 0.103537
H	-0.6571063682	 1.6537339797	-1.1012048654	 0.106237
H	-0.5661146088	 1.7877332128	 0.6764717227	 0.126027
H	 0.070620034	-0.4557170808	-2.068087992	 0.101448
H	 1.6452999324	-0.3043969789	-1.2584430402	 0.077427
H	 0.9294316773	-2.003943798	 1.2604513444	 0.135366
H	 1.4176473467	-3.5808632308	 0.6044687413	 0.109741
H	 2.4358204305	-2.1538385097	 0.3475293084	 0.106357
H	-1.3112402467	-2.659454843	-1.7653524791	 0.128376
H	-0.8560239479	-3.7407468221	-0.4320098827	 0.105636
H	-1.3849914952	-2.0880345019	-0.0872021099	 0.132207
H	 2.4199420049	-2.4794002606	-2.1265617929	 0.085539
H	 1.8561316081	-4.6803358313	-3.146970765	 0.112999
H	 0.2171167425	-4.6873842505	-2.3167620444	 0.116009
