22
gdb 110564	3.1025	1.29075	1.07905	1.1794	87.81	-0.2033	0.0904	0.2937	1233.9298	0.193234	-367.11996	-367.111124	-367.11018	-367.153459	34.359	
C	-0.6767704974	 1.2475597155	 0.0633327996	-0.37219
C	 0.7536277318	 0.771684942	-0.1882415962	-0.131323
N	 1.2111866017	-0.0693761783	 0.915823026	-0.10881
C	 2.5268811682	-0.7624879775	 0.7977863006	-0.061602
C	 2.0882922301	-1.8394285987	 1.8346085763	-0.049122
C	 2.5645626374	-3.0052701935	 0.9595532127	-0.307649
C	 2.0260659343	-1.9914695694	-0.0769745071	 0.328719
C	 2.0264400715	-2.2078168752	-1.5694782368	-0.526814
C	 0.871761609	-1.5262035579	 0.9140232537	-0.065634
H	-0.7426400771	 1.7644996951	 1.0247627811	 0.124009
H	-1.0070314221	 1.9288862962	-0.7270415167	 0.107613
H	-1.3744083089	 0.403229194	 0.0878325695	 0.112366
H	 0.8082166334	 0.2836805626	-1.1739645582	 0.08043
H	 1.4260911203	 1.6383107036	-0.2302807489	 0.0956
H	 3.48028701	-0.2318262041	 0.7395529952	 0.072368
H	 2.1042426974	-1.7107967767	 2.9157563505	 0.078207
H	 3.6426214812	-3.1964352589	 0.9377616494	 0.089886
H	 2.0142653399	-3.9476140426	 1.0509905403	 0.089873
H	 1.4320890504	-3.092614042	-1.8266278662	 0.120593
H	 1.6235117397	-1.3605463384	-2.1281285733	 0.128263
H	 3.0477833968	-2.387036568	-1.9260040276	 0.120503
H	-0.1467017275	-1.9114437378	 0.9970133762	 0.074715
