19
gdb 66433	2.57606	1.67545	1.3456	1.4166	79.72	-0.2078	0.0683	0.2761	1047.2539	0.156767	-385.786598	-385.777942	-385.776998	-385.819176	33.763	
C	 0.0129780849	 1.5198879636	 0.0055366105	-0.5246
C	-0.0197101599	 0.0265695072	 0.0074701493	 0.269009
C	 0.8187947356	-0.9816076987	-0.7691217349	-0.135505
C	 0.8471438481	-0.9826175376	 0.7549889041	-0.214494
C	-0.3247764065	-2.0147090142	 0.7882158815	 0.262454
C	-0.6834288173	-3.1064379722	 1.7412940624	-0.531761
C	-0.3533335627	-2.0020801496	-0.7517955214	-0.202066
C	-1.1998906444	-1.0214883529	 0.0292952048	 0.267324
O	-2.5643280865	-0.8870716048	-0.0327827067	-0.447998
H	 1.0471506555	 1.8810818042	-0.0259062285	 0.121896
H	-0.5094857649	 1.9324428782	-0.8652067752	 0.126339
H	-0.4541725038	 1.9394116927	 0.9048940821	 0.113783
H	 1.6165616926	-0.8024970328	-1.4795498055	 0.080048
H	 1.6679232274	-0.796363545	 1.4377897086	 0.07793
H	-0.8261414212	-2.7245131875	 2.7601156059	 0.114066
H	-1.6177373254	-3.5891532799	 1.4338665563	 0.126391
H	 0.0918972128	-3.8804828918	 1.7845839342	 0.123353
H	-0.6615516829	-2.7859615476	-1.4310094974	 0.086169
H	-2.8866505614	-0.625196981	 0.8376953199	 0.28766
