16
gdb 54581	3.75635	1.42271	1.19271	2.5052	69.06	-0.2412	0.02	0.2613	1025.3745	0.124551	-437.852658	-437.845048	-437.844104	-437.884967	29.272	
N	-0.1526557999	 1.2561839454	 0.1561281237	-0.542793
C	-0.0306791825	-0.0781913964	-0.0691401637	 0.288344
O	 1.0230416607	-0.6602688923	-0.2550015194	-0.377631
C	-1.330542894	-0.7944070946	-0.0724352405	 0.401721
O	-2.5668150047	-0.1183309214	 0.1738456195	-0.350795
C	-3.1507575622	-1.4451633815	 0.352491844	 0.04594
C	-3.1454144182	-2.0339558101	-1.083399925	-0.237012
C	-1.6247065373	-2.0467703503	-0.9294026484	-0.141847
C	-1.7278916538	-2.0793284333	 0.5837696149	-0.174686
H	 0.6793163501	 1.8196419343	 0.2052958023	 0.263598
H	-1.0506102249	 1.6593496673	 0.3645487606	 0.27691
H	-4.0176176595	-1.4520021455	 1.0088961646	 0.093826
H	-3.5494887725	-3.0489454923	-1.1051074841	 0.111828
H	-3.6018916004	-1.4160085186	-1.8622285516	 0.10658
H	-0.8576359743	-2.4810303682	-1.5551618787	 0.120099
H	-1.2588336266	-2.6737769726	 1.3542742716	 0.115919
