19
gdb 28932	2.94529	1.4652	1.03602	2.3257	82.48	-0.1698	0.0569	0.2267	1161.3689	0.161105	-382.08196	-382.073541	-382.072596	-382.115137	32.558	
N	 0.2644663767	 1.2635669316	-0.3348550998	-0.603252
C	 0.0504101933	-0.1108471176	-0.1357634053	 0.295799
C	-1.1065063907	-0.8531599298	-0.0626283458	-0.242043
C	-0.729466782	-2.1811381794	 0.3013989097	-0.157945
C	 0.6328379198	-2.2079974112	 0.4284350403	-0.117903
N	 1.116365207	-0.9348687647	 0.1549198067	-0.023547
C	 2.4697224425	-0.4936827986	 0.2813628161	 0.032849
C	 3.5802667969	-1.39841495	-0.1695436896	-0.283682
C	 3.2669073764	-0.1512586564	-0.9581026228	-0.273402
H	 0.9602954647	 1.4526727607	-1.0488760675	 0.244329
H	-0.5988243197	 1.7250853643	-0.5912724256	 0.246002
H	-2.1036973937	-0.4863139633	-0.2532643224	 0.077314
H	-1.3921925114	-3.0221681903	 0.4372932616	 0.087238
H	 1.3136103511	-3.0033235144	 0.6809542832	 0.109598
H	 2.6568802343	 0.1212747365	 1.1580756579	 0.112386
H	 4.4826893413	-1.4245487631	 0.4298004371	 0.122355
H	 3.3040777895	-2.3470804971	-0.6136284751	 0.130468
H	 2.7783763877	-0.2864610783	-1.9167753615	 0.123643
H	 3.9524963965	 0.6870541412	-0.9067985672	 0.119791
