15
gdb 21226	3.39569	1.85951	1.22184	4.8762	63.99	-0.2319	-0.0206	0.2113	960.0246	0.118626	-395.946049	-395.938113	-395.937169	-395.978465	28.044	
C	 0.0637657642	 1.4533356007	 0.0013799122	-0.32408
N	-0.0876866821	 0.005879482	-0.053609888	-0.381094
C	 0.5624136057	-0.6894994625	-1.0405756317	 0.331718
N	 1.1407354939	-0.1267969155	-2.072737068	-0.185755
O	 1.5971433644	-1.1802328437	-2.8455617175	-0.171986
N	 1.3071529093	-2.3789451042	-2.2678832488	-0.133667
C	 0.6721046562	-2.1177842287	-1.1609017674	 0.273484
C	 0.16775966	-3.1718877655	-0.2351038853	-0.513012
H	 1.1050157092	 1.7692220494	 0.1528755919	 0.130744
H	-0.2823007548	 1.8862764806	-0.9402960229	 0.159186
H	-0.5532311855	 1.8415541881	 0.8141983785	 0.125775
H	-0.1012082233	-0.4596498418	 0.8408611836	 0.246928
H	 0.642068256	-3.0971184572	 0.7506870214	 0.135375
H	-0.9137878445	-3.0783359732	-0.0882957901	 0.145115
H	 0.3812567014	-4.1614978685	-0.642049698	 0.161269
