15
gdb 4164	3.18147	1.5787	1.1449	0.4096	73.05	-0.2331	-0.0335	0.1996	1029.0079	0.116749	-362.571238	-362.562982	-362.562038	-362.604466	30.177	
O	-0.1530905244	 1.3118378639	 0.3998808157	-0.385118
N	-0.09821987	-0.0755395083	 0.4432714209	-0.178947
C	-1.2191336059	-0.6274030272	 0.1338065643	 0.181305
C	-2.3877502837	 0.0976067392	-0.2457120409	 0.327261
C	-3.3987186969	 0.6578658259	-0.5821567287	-0.456762
C	-1.3260307301	-2.1127236495	 0.2032945029	-0.078019
C	-0.1287215927	-2.9655392521	 0.5342462281	-0.265299
C	-1.2218844484	-2.809064389	 1.5520511265	-0.248623
H	 0.7492597619	 1.560312319	 0.6292759424	 0.309103
H	-4.2825270281	 1.1700455392	-0.8733676921	 0.204496
H	-2.0551527573	-2.5221172477	-0.4869183072	 0.098601
H	-0.0375539578	-3.912715451	 0.0147361813	 0.112904
H	 0.8048066418	-2.4468411778	 0.7117251801	 0.137288
H	-1.0228323814	-2.176620751	 2.4097775946	 0.125577
H	-1.8876715673	-3.6432836134	 1.7431907019	 0.116231
