18
gdb 84742	2.07006	1.88464	1.15471	3.3424	74.12	-0.2288	-0.0168	0.212	1078.7076	0.148486	-439.135192	-439.126527	-439.125583	-439.168399	32.816	
C	-0.062586854	 1.5694984201	 0.0108752215	-0.391855
C	 0.0975849146	 0.0500773798	 0.0069426317	-0.142175
C	 0.737981964	-0.492489775	-1.295734371	 0.065962
O	 1.9081727932	 0.2346168669	-1.6827158383	-0.426691
C	 1.0260204886	-1.9643130793	-1.1758579037	-0.174399
C	 1.2868326508	-2.4983224911	 0.0214409414	 0.02219
N	 1.23206821	-1.7575254286	 1.200853001	-0.33933
C	 0.7936876506	-0.4463733048	 1.2745147543	 0.402
O	 0.9152358475	 0.1981996611	 2.2949409057	-0.359898
H	 0.9069366552	 2.0543126963	-0.1188355577	 0.135244
H	-0.7111758465	 1.8849553946	-0.8119010591	 0.10681
H	-0.4943373567	 1.9062037158	 0.954372617	 0.133486
H	-0.8976886967	-0.4212499134	 0.0523531227	 0.110795
H	 0.0262436339	-0.3058585153	-2.1071703114	 0.095162
H	 2.6523744182	-0.1306458005	-1.1917377976	 0.282548
H	 1.1045304893	-2.5699173899	-2.069655945	 0.102321
H	 1.5606704987	-3.5388862655	 0.1559302652	 0.122028
H	 1.6191797493	-2.1333674311	 2.0534962135	 0.255802
