20
gdb 93624	2.16479	1.53315	1.24021	5.2337	78.38	-0.278	0.0361	0.3141	1120.406	0.171822	-403.181689	-403.172569	-403.171624	-403.215747	34.224	
C	-0.3754632918	 1.4998876616	-0.0747933179	-0.41873
C	 0.0541712541	 0.0355192556	-0.0873290605	 0.01337
C	 0.9551383045	-0.3745191496	-1.2622668501	 0.12019
O	 2.0070710865	 0.5787677059	-1.3379689913	-0.429853
C	 1.4705825319	-1.7546858116	-0.8364307669	-0.243065
C	 1.8156102111	-1.579073816	 0.6565041923	-0.218787
C	 0.8400594391	-0.4672519062	 1.1770390048	-0.151557
C	 1.5593167925	 0.5912536457	 1.8832584878	 0.291487
N	 2.1256742396	 1.4131755496	 2.4668314706	-0.347539
H	 0.4913784765	 2.162266687	-0.0525636133	 0.160729
H	-0.959826418	 1.7306869472	-0.9711848495	 0.111039
H	-0.9987477323	 1.7196797854	 0.7974535726	 0.118321
H	-0.8409024201	-0.5943824009	-0.1550977429	 0.082228
H	 0.3907744696	-0.4082442259	-2.2058090066	 0.062573
H	 2.6474572463	 0.2760401542	-1.9890522844	 0.286575
H	 0.6756692818	-2.4969769076	-0.9736714562	 0.103257
H	 2.3279366474	-2.0865503118	-1.4310695927	 0.094895
H	 1.7079854777	-2.5044233301	 1.2259580754	 0.110976
H	 2.8471714911	-1.243090978	 0.7710360218	 0.133817
H	 0.1283958624	-0.8871136846	 1.8947034668	 0.120074
