16
gdb 4779	5.7133	1.29009	1.13237	1.3704	67.85	-0.1967	0.0168	0.2135	1067.6646	0.131551	-379.962675	-379.954743	-379.953799	-379.995527	28.889	
C	 0.1669806921	 1.5022867412	-0.1363997848	-0.378106
C	-0.0742369283	 0.005066595	 0.1206653795	-0.287061
C	 0.6261500667	-0.501650007	 1.3346536443	 0.399392
N	 0.0991583072	-0.984194634	 2.4206227679	-0.346766
C	 1.1801311134	-1.2949084342	 3.2341349135	 0.257564
N	 0.9648049821	-1.9020731928	 4.4663401395	-0.597694
C	 2.3296200793	-0.9728300626	 2.5846107764	-0.128237
O	 1.9734093711	-0.458776791	 1.3523994813	-0.180582
H	 1.2329419813	 1.70886291	-0.264433751	 0.133132
H	-0.3549629422	 1.82322559	-1.0424031459	 0.117594
H	-0.1976616579	 2.1060988325	 0.6998826626	 0.127461
H	-1.1388494256	-0.1976710026	 0.2587461454	 0.132711
H	 0.2582397633	-0.5721749534	-0.7509337966	 0.122787
H	 0.0394136437	-1.6993339971	 4.8199847253	 0.253858
H	 1.6711428511	-1.6965573809	 5.1587133515	 0.246462
H	 3.3805602027	-1.0338652233	 2.8007859409	 0.127483
