18
gdb 48737	3.40653	1.3713	1.18075	3.3411	77.39	-0.2282	-0.0238	0.2044	1075.2659	0.148286	-401.887932	-401.880506	-401.879562	-401.919829	29.189	
O	-0.1513290035	-0.0022084919	 0.0659678432	-0.27123
C	-0.0391170115	 1.196640888	-0.0462968202	 0.050411
C	 1.2324583872	 1.9194774447	 0.0299259246	 0.245206
C	 1.3193246083	 3.399576776	 0.3486591321	-0.35973
C	 1.7985614159	 2.9606839626	-0.9898477364	-0.048691
N	 3.099647206	 2.2718435245	-1.0316985757	-0.123023
C	 4.1551947057	 2.7581665544	-0.0722884144	-0.175198
C	 3.7318602518	 1.697444451	 0.9847786307	-0.265926
C	 2.6197821316	 1.2707813952	-0.0083244645	-0.035158
H	-0.9264494393	 1.8460959583	-0.2329987659	 0.063735
H	 0.3627909125	 3.9143700594	 0.3367401865	 0.129163
H	 1.9922880473	 3.7389459426	 1.1284424928	 0.127136
H	 1.3396286491	 3.3147399973	-1.9067449837	 0.112207
H	 5.1557437383	 2.6182227531	-0.4888702431	 0.113561
H	 4.0475672832	 3.8058469352	 0.2244658809	 0.107465
H	 4.4771278237	 0.9214312716	 1.1675971998	 0.115622
H	 3.3891498863	 2.0827775515	 1.9480956219	 0.110351
H	 2.5915938775	 0.2271576468	-0.3258829885	 0.104099
