20
gdb 102061	2.18468	1.1892	0.8205	5.2996	80.13	-0.2596	-0.0362	0.2234	1416.2912	0.167841	-403.179131	-403.16839	-403.167445	-403.215972	37.12	
C	-0.0590819994	 1.5925891304	 0.012761458	-0.393501
C	-0.1012999707	 0.0637374105	 0.0947519487	-0.209161
C	 0.7706708896	-0.5156577005	 1.2364803034	-0.047765
C	 0.1018588391	-0.155436398	 2.5558398185	 0.161042
O	 0.3570918316	 0.8248445367	 3.2031741907	-0.244599
C	 0.9474159162	-2.0548429736	 1.1103452818	-0.167079
C	 1.8135693647	-2.4810429835	-0.0925790298	-0.402895
C	 1.5272715494	-2.6031831575	 2.3441726459	 0.268575
N	 1.9927434573	-3.0289634065	 3.3127769539	-0.318754
H	 0.9539505465	 1.9438253624	-0.208547087	 0.124342
H	-0.7200220071	 1.9510793026	-0.7816366516	 0.119414
H	-0.3700742958	 2.0576182256	 0.9517753971	 0.145721
H	-1.1367581221	-0.2780162589	 0.2320091361	 0.107051
H	 0.2318824996	-0.3584749248	-0.8584588675	 0.110913
H	 1.7549527927	-0.0350059417	 1.2249657477	 0.110332
H	-0.7083785724	-0.8563413419	 2.8681512813	 0.084396
H	-0.0484084125	-2.5063774851	 1.0035626843	 0.130401
H	 1.3541238857	-2.1704675823	-1.0328735701	 0.133673
H	 2.810026364	-2.0356009213	-0.0268493487	 0.143572
H	 1.9276640434	-3.5674272628	-0.1136153928	 0.144322
