21
gdb 113403	3.98358	1.08759	0.99528	0.9104	85.09	-0.2406	0.0895	0.3301	1288.2971	0.182358	-387.002829	-386.994427	-386.993483	-387.035929	32.621	
C	 0.3312611785	 1.2088444227	 0.3322492186	-0.227813
O	-0.3590817498	 0.195886614	-0.3705884759	-0.244103
C	 0.4211763174	-0.4171635673	-1.348832793	-0.013441
C	 1.381573119	-1.5410885439	-0.9410241057	-0.438864
C	 0.1097622228	-1.8222080784	-1.679509287	 0.445762
C	-1.1037430159	-2.7050003956	-1.3364855151	-0.109218
C	-1.7154650912	-2.2321283068	-2.6911260109	-0.215001
C	-0.2185180248	-2.5465803366	-2.9996843349	-0.135358
C	-0.3913861124	-3.8376146166	-2.1410464142	-0.216724
H	 1.2159568019	 0.8128236319	 0.851552519	 0.107947
H	 0.6590064908	 2.0168290672	-0.3398140981	 0.104007
H	-0.3624210522	 1.6215508612	 1.068710825	 0.125175
H	 0.7554160755	 0.2551437929	-2.1432649803	 0.079618
H	 2.3363935448	-1.6167928933	-1.4533106531	 0.107712
H	 1.4118043353	-1.7870954622	 0.1164866917	 0.116148
H	-1.605630073	-2.7848565768	-0.3726350751	 0.077733
H	-2.4517039976	-2.8993938858	-3.1481318835	 0.085445
H	-2.0215857325	-1.1854841469	-2.7494383692	 0.102089
H	 0.2990842791	-2.4477000677	-3.9550044541	 0.069479
H	 0.5148637715	-4.2579599715	-1.6988104061	 0.09317
H	-1.0378289171	-4.6141602105	-2.5596467982	 0.086235
