16
gdb 28039	4.10135	0.96855	0.85057	2.8233	77.74	-0.1859	0.0229	0.2088	1337.2242	0.125019	-396.92092	-396.912315	-396.911371	-396.954947	31.81	
N	-0.0601750994	 1.4070444937	 0.066902764	-0.594982
C	-0.0563457094	 0.0104174339	 0.0495708927	 0.290885
C	-1.1005752344	-0.8621412065	-0.1505555348	-0.208909
N	-0.5488611974	-2.1271126668	 0.0112216647	 0.035378
C	-1.249164559	-3.3957200305	-0.0919711681	-0.328997
C	-1.765383962	-3.6742215111	-1.4313755107	 0.322236
C	-2.2033729688	-3.9080571243	-2.5245797458	-0.446405
C	 0.7655798165	-1.9488175137	 0.2955893486	 0.004511
N	 1.1002265695	-0.676254568	 0.3272370088	-0.32341
H	 0.8796490296	 1.7652639893	-0.0444910131	 0.248332
H	-0.6778402559	 1.8195830514	-0.6189431897	 0.2409
H	-2.1402737684	-0.7237621213	-0.3919613059	 0.120539
H	-0.5483644225	-4.1812025925	 0.2099678933	 0.15263
H	-2.074740709	-3.415822726	 0.6310221736	 0.15289
H	-2.5833041864	-4.1144308621	-3.4947897776	 0.208575
H	 1.4300721569	-2.7824445954	 0.47041155	 0.125826
