19
gdb 68637	2.42521	1.62366	1.35611	2.582	75.03	-0.2432	-0.0246	0.2186	1026.3717	0.159475	-423.025436	-423.017216	-423.016271	-423.058399	31.67	
O	 0.1847428316	 1.3980931731	 0.0602632923	-0.485144
C	 0.0895940547	 0.012094256	 0.0007982801	 0.395422
C	 0.3349912803	-0.8146233214	-1.302372199	-0.286199
C	-0.5636561688	-1.8470291353	-0.563113715	-0.047129
C	 0.3467939787	-2.2516656769	 0.6205573714	-0.212051
C	 0.8231683657	-0.832184674	 1.0636137913	-0.282863
C	-1.348565746	-0.620262154	-0.0147582073	-0.102271
C	-2.1647888512	-0.648071946	 1.2438668147	 0.118901
O	-2.3040330886	-1.5986518184	 1.9761029727	-0.252813
H	 1.0878847115	 1.6343092158	 0.2969259751	 0.284104
H	-0.1444616795	-0.3584119074	-2.1706349658	 0.102803
H	 1.3621725843	-1.1112659646	-1.5358416629	 0.087168
H	-1.0796706707	-2.6412065357	-1.09874683	 0.073041
H	-0.1992584294	-2.7726683348	 1.405539117	 0.133112
H	 1.1749957416	-2.8820667404	 0.2849026628	 0.094125
H	 1.9087032317	-0.7021517916	 0.9943063972	 0.089894
H	 0.5139865168	-0.5740423498	 2.0801278039	 0.112368
H	-1.9310529634	-0.1197191779	-0.7966546596	 0.094559
H	-2.660241319	 0.3221868135	 1.4800083211	 0.082973
