23
gdb 91754	2.34776	1.66997	1.50398	1.441	83.39	-0.2367	0.072	0.3087	1052.4943	0.209867	-388.315822	-388.308112	-388.307168	-388.347382	32.387	
C	-0.4362103038	 1.5031533204	-0.008131485	-0.423608
C	-0.0188240104	 0.0318474263	-0.014153877	 0.055761
C	 0.7307141386	-0.4440357606	-1.3003447676	-0.260372
C	 1.9173491113	-1.2989183537	-0.7897593852	 0.129947
C	 1.4345565695	-1.7698225956	 0.5906240376	-0.226297
C	 0.9052875775	-0.4347839773	 1.146593431	-0.017772
C	 2.1273812326	 0.475138659	 1.3896490568	-0.224591
C	 2.9648966875	 0.6518964363	 0.1117281931	-0.069925
O	 3.1223774921	-0.5463661779	-0.6356332942	-0.27123
H	 0.4147617499	 2.1778950726	-0.1446809403	 0.117437
H	-1.1462852959	 1.7075914488	-0.8165453076	 0.113627
H	-0.9249418623	 1.7720046576	 0.9349346949	 0.111318
H	-0.9371714568	-0.5626070453	 0.0738553235	 0.070862
H	 0.078649193	-1.0494013519	-1.9366704595	 0.095758
H	 1.088332113	 0.3875917707	-1.914747927	 0.106597
H	 2.1816994663	-2.1102038121	-1.4717955217	 0.070495
H	 0.6299455624	-2.508109916	 0.4923308521	 0.086505
H	 2.2440694204	-2.2095984449	 1.1792414872	 0.094381
H	 0.342148571	-0.5470108634	 2.0785225187	 0.055876
H	 1.8271265373	 1.4629833625	 1.7574142681	 0.094263
H	 2.7419146235	 0.0179072473	 2.1741739337	 0.098414
H	 2.5133859909	 1.4309506408	-0.5212650693	 0.08862
H	 3.9780175124	 0.9876066862	 0.3533985476	 0.103933
