15
gdb 29329	3.37906	1.29137	0.93733	2.3712	81.74	-0.1892	-0.003	0.1862	1180.183	0.112693	-416.795226	-416.786516	-416.785572	-416.828197	32.907	
N	 0.0527126216	 1.4315885544	 0.0851299993	-0.622254
C	 0.0081081782	 0.0285042897	 0.0102866512	 0.205044
C	-1.0488240062	-0.8337557993	 0.0285279279	-0.119576
O	-0.6289463242	-2.1249006493	 0.0131750745	-0.196332
C	 0.7476212148	-2.0973166684	-0.02028824	 0.208903
C	 1.4666276564	-3.2977286296	-0.0422046888	 0.218737
C	 2.1296975884	-4.3066221871	-0.0532424697	-0.422227
C	 1.1822189093	-0.7924645513	-0.0202086835	 0.04692
N	 2.4814664138	-0.2981194987	-0.1029828993	-0.632039
H	 0.6374665946	 1.823635053	-0.6460632122	 0.250687
H	-0.8657024548	 1.8533650026	 0.0262186069	 0.244819
H	-2.1153594299	-0.6825203345	 0.0616367171	 0.124457
H	 2.7021361451	-5.2002370585	-0.0730767116	 0.187238
H	 3.1826311547	-1.0115495349	 0.0531543973	 0.253142
H	 2.6338384284	 0.4884682419	 0.517972561	 0.252482
