17
gdb 32262	2.58018	1.6522	1.01999	1.4274	79.82	-0.2335	-0.0341	0.1994	1143.5384	0.13674	-418.066352	-418.05799	-418.057046	-418.099501	30.391	
C	-0.0005241338	 1.4045305473	-0.0325838346	-0.235774
O	-0.0256686963	-0.0233186102	-0.0184722963	-0.257175
C	-1.2343157301	-0.6144366222	 0.0047296345	 0.395896
N	-2.3325980499	 0.1152267691	 0.0135594306	-0.34406
C	-3.494688749	-0.5575470161	 0.036685887	-0.030586
C	-3.5334924514	-1.9378393267	 0.0505296043	-0.041032
N	-2.4082558963	-2.6737208992	 0.0416035649	-0.289104
C	-1.2487142015	-2.0346006385	 0.0187466828	 0.237983
C	 0.0284067548	-2.8232385561	 0.0079650567	-0.474789
H	 1.0553509429	 1.6769406528	-0.0510591648	 0.1308
H	-0.5113313437	 1.7973183219	-0.9162504115	 0.137217
H	-0.4846308889	 1.8143778587	 0.8583522175	 0.137183
H	-4.404421395	 0.0364612601	 0.0440605767	 0.112853
H	-4.4756034687	-2.4769733757	 0.0692455267	 0.109513
H	 0.6223245714	-2.5974532753	-0.8844746989	 0.136874
H	 0.6546668557	-2.5692511975	 0.8700605022	 0.136853
H	-0.2039755301	-3.8886846622	 0.0288060824	 0.137347
