16
gdb 125416	3.21721	1.41943	0.99699	1.6844	76.96	-0.2567	-0.0522	0.2045	1160.8834	0.123505	-434.071664	-434.063158	-434.062214	-434.105098	30.888	
C	-0.00914302	 1.5015906483	-0.1041092662	-0.466227
C	-0.0661563839	 0.0122200296	 0.0256084702	 0.427567
N	-1.120558021	-0.665733137	-0.232316861	-0.358179
C	-1.0492544488	-2.0528197578	-0.073335997	 0.268868
N	-2.019918975	-2.8527858174	-0.2939347099	-0.508853
C	 0.2455675	-2.6021040196	 0.3807039381	 0.356296
C	 0.402471788	-4.0774828168	 0.5752121867	-0.457499
N	 1.2759907314	-1.8747019293	 0.6264242863	-0.157002
O	 1.1196995615	-0.48215164	 0.4399762894	-0.257802
H	 0.7676036574	 1.7878906399	-0.8196874195	 0.157307
H	-0.9774097455	 1.8704488818	-0.4394964785	 0.158333
H	 0.2502697422	 1.9540824268	 0.8577534771	 0.157315
H	-2.8322398899	-2.3101849399	-0.5982769298	 0.226265
H	 0.1840801561	-4.5985264569	-0.361335629	 0.156765
H	 1.413786447	-4.3110310032	 0.9103103302	 0.140109
H	-0.3300064594	-4.4334253286	 1.3053428129	 0.156736
