16
gdb 34261	4.24569	1.30772	1.18652	3.0428	73.24	-0.263	0.0134	0.2764	1027.6367	0.126724	-400.735862	-400.729084	-400.728139	-400.767026	26.849	
N	 0.0964290512	-1.122610875	-0.0647499198	-0.34735
C	 0.0411081828	 0.0328073855	-0.01657762	 0.17038
C	-0.038871305	 1.455429436	 0.0530424093	 0.200949
C	-1.2250743659	 2.2659453436	 0.5976034176	-0.308293
C	-0.7420425051	 3.4564976863	-0.293770151	 0.076741
O	 0.0908256812	 4.3485544124	 0.4225090572	-0.258668
C	 1.2234045704	 3.5910356066	 0.8656211356	-0.109099
C	 1.222062564	 2.3315325837	 0.006802788	-0.117295
C	 0.194197398	 2.4850048539	-1.061625338	-0.121213
H	-2.1736873224	 1.8520831585	 0.2486794329	 0.125672
H	-1.2751865335	 2.4502134544	 1.6741965454	 0.116349
H	-1.4951982533	 4.0291788974	-0.8304082217	 0.101164
H	 2.1283397989	 4.1863666785	 0.7032928919	 0.120127
H	 1.143442487	 3.3697604944	 1.9376847828	 0.11224
H	 2.1505817707	 1.8175705779	-0.2072570156	 0.121045
H	 0.3311794408	 2.3393619559	-2.1234785946	 0.117253
