19
gdb 55459	3.37076	1.05103	0.96983	1.6309	72.02	-0.2484	-0.0249	0.2235	1281.4037	0.159465	-460.181385	-460.172626	-460.171681	-460.216069	31.917	
C	-0.2416432342	 1.4741896111	 0.0346128576	-0.484826
C	 0.2282332475	 0.0350953392	 0.006651643	 0.381219
O	 0.6365892738	-0.5324491634	 0.9967637887	-0.315984
C	 0.1723150964	-0.690991702	-1.3327606786	-0.119464
C	 1.5842866437	-1.1517779246	-1.757677531	-0.092345
O	 1.5159361728	-1.9574238144	-2.9217300754	-0.234944
C	 0.68816575	-3.0721425245	-2.718899717	 0.012892
O	-0.6357806434	-2.7122842088	-2.425862828	-0.235016
C	-0.7084441754	-1.9553535092	-1.2295564519	-0.092665
H	 0.3458130305	 2.0762483612	-0.6687826043	 0.143737
H	-1.2844703778	 1.536206004	-0.2985563598	 0.144001
H	-0.1486800282	 1.8831096605	 1.04128866	 0.143947
H	-0.2346229387	-0.0395718322	-2.1124233014	 0.086933
H	 2.2275913682	-0.302915245	-2.0038961536	 0.115092
H	 2.0399305695	-1.7075250486	-0.9239275442	 0.11558
H	 0.6692403098	-3.6328160914	-3.6550067334	 0.120153
H	 1.0959716496	-3.6965947715	-1.9007134751	 0.080593
H	-0.3707073729	-2.5514325779	-0.3681939222	 0.115988
H	-1.7618557314	-1.7010499926	-1.0859044534	 0.115109
