16
gdb 22324	3.44171	1.16612	0.88044	2.9199	81.62	-0.2285	-0.0655	0.163	1271.568	0.122918	-437.881379	-437.87286	-437.871916	-437.914595	31.531	
C	-0.0272108022	 1.4579201872	 0.0134069905	-0.486128
C	-0.0001292722	-0.0337061545	-0.0170616159	 0.288555
C	-0.026023072	-0.8216064586	-1.1079448982	-0.226836
C	 0.0134147437	-2.2343712423	-0.7599863079	 0.286753
N	-0.0021935608	-3.1644382367	-1.6490914885	-0.238789
O	 0.0416041528	-4.4372740196	-1.1148025435	-0.347219
C	 0.0712379081	-2.311496174	 0.7533337587	 0.330465
O	 0.115130915	-3.2938987886	 1.4458896689	-0.29263
C	 0.0626452636	-0.8558161485	 1.247705049	-0.421923
H	 0.8626051178	 1.8570618634	 0.5170880544	 0.135191
H	-0.0719244939	 1.8817894319	-0.9930810915	 0.131501
H	-0.8925144907	 1.8238370291	 0.5809989077	 0.135225
H	-0.0707600523	-0.4770461215	-2.1336949966	 0.111128
H	 0.0227346255	-4.9912993604	-1.9040322211	 0.314293
H	 0.9601175167	-0.6569135072	 1.8474880065	 0.140214
H	-0.793825079	-0.6895190598	 1.9136722676	 0.1402
