14
gdb 25857	4.2865	1.08208	0.86865	4.2429	67.14	-0.238	-0.0665	0.1714	1239.7661	0.100265	-473.902889	-473.894662	-473.893718	-473.936924	29.047	
C	 0.0570923207	 1.5269094612	 0.0073143483	-0.499156
C	 0.0407990236	 0.0125118726	 0.0017638681	 0.314075
O	 1.0556098588	-0.6598692168	-0.008749519	-0.33155
C	-1.2617035769	-0.6586233026	 0.0099760549	 0.21265
C	-2.5357189659	-0.2133768892	 0.0219860823	-0.096632
O	-3.4026557541	-1.2588485931	 0.0252055847	-0.204646
C	-2.6587452232	-2.4564706356	 0.0149050618	 0.504713
O	-3.1549472331	-3.5435276392	 0.0148078101	-0.382166
N	-1.3513671047	-2.0506102505	 0.0055947028	-0.42894
H	 1.0916941356	 1.8702321031	 0.0003964508	 0.154991
H	-0.4649135947	 1.9222770667	-0.8704495339	 0.147491
H	-0.4509240789	 1.9156904124	 0.8961586237	 0.147494
H	-2.9575913143	 0.7773709543	 0.0290075574	 0.169151
H	-0.5562763228	-2.6672350535	-0.003251812	 0.292524
