15
gdb 20940	7.4506	1.16163	1.02481	3.6071	64.46	-0.2318	0.0087	0.2404	1118.6325	0.120113	-395.988259	-395.98068	-395.979736	-396.020991	26.616	
C	 0.0047183886	 1.4777775306	 0.1434960328	-0.398702
C	-0.0141690588	-0.0083595212	-0.1969611024	-0.127696
N	-1.3679876026	-0.539884218	-0.0850136532	-0.400889
C	-1.6457880187	-1.8568726317	-0.0258638351	 0.559517
N	-2.8246313376	-2.4249417507	-0.1344076343	-0.38129
C	-2.4968410595	-3.7384058087	 0.0522295245	 0.053431
N	-1.2373521546	-4.0081387295	 0.2554701819	-0.143148
O	-0.641654609	-2.7124156856	 0.1989133876	-0.219896
H	 1.020911854	 1.8708471485	 0.0563130806	 0.132974
H	-0.6312818291	 2.0494259894	-0.5418399005	 0.12284
H	-0.3490785886	 1.6506204884	 1.1637382826	 0.136451
H	 0.3903773457	-0.1725491825	-1.2062171186	 0.117582
H	 0.6211466622	-0.5673662057	 0.4950737816	 0.144554
H	-2.1328405369	 0.0300940985	-0.4117593561	 0.264844
H	-3.228840895	-4.5341569218	 0.0351520386	 0.139429
