23
gdb 102615	1.61676	1.38299	0.89459	1.8965	82.75	-0.2653	0.0205	0.2859	1457.264	0.202208	-425.484672	-425.473053	-425.472109	-425.524458	39.887	
C	 0.2665027725	 1.5618736853	-0.0324069133	-0.390818
C	 0.1201922151	 0.038302897	-0.0207039836	-0.177159
C	-1.3293129824	-0.4483169525	-0.0108303519	 0.120751
C	-1.4455583463	-1.9723596158	-0.0349237397	-0.176529
C	-2.8874740007	-2.4840251598	-0.0739405885	-0.391397
O	-1.9606596339	 0.0258630472	 1.2096720518	-0.263483
C	-2.9801157346	 0.9071554539	 1.1079257848	 0.440177
C	-3.4970504919	 1.2648103947	 2.4824826067	-0.482691
O	-3.4134076004	 1.3420873222	 0.0708394057	-0.354843
H	 1.320529212	 1.8511910351	-0.080502536	 0.111758
H	-0.245451728	 2.004554067	-0.8928909492	 0.126775
H	-0.1582566507	 2.0057132281	 0.8726369097	 0.120619
H	 0.6040351703	-0.3870810644	-0.9085092918	 0.099694
H	 0.6397796082	-0.3826748326	 0.849315965	 0.101388
H	-1.8784696957	-0.0126530105	-0.8506009787	 0.113934
H	-0.9002027782	-2.3315992546	-0.9161549947	 0.099674
H	-0.9256096969	-2.3796802047	 0.8412771933	 0.101968
H	-3.4387321805	-2.1737761988	 0.8183788422	 0.121309
H	-3.4225949558	-2.0993812319	-0.948509303	 0.123979
H	-2.9128073594	-3.5768941197	-0.1179204743	 0.112759
H	-3.8566207333	 0.3665989867	 2.9926323188	 0.148096
H	-2.689720291	 1.6811684189	 3.0913811572	 0.14762
H	-4.3060616885	 1.9882209891	 2.3894294395	 0.146419
