16
gdb 121789	2.37815	0.98904	0.72479	2.1427	72.23	-0.2772	-0.0207	0.2566	1493.0203	0.12117	-437.830699	-437.820841	-437.819897	-437.866692	34.16	
O	-0.1275828042	 1.395369298	 0.2435241209	-0.417473
C	 0.038502615	 0.0369635989	-0.1039320957	-0.065393
C	-1.2913709182	-0.6956758638	-0.1677459291	-0.085276
O	-2.0549032092	-0.0467586714	-1.1889179415	-0.255429
C	-3.3978862819	-0.4682074658	-1.2688655572	-0.173439
C	-4.1386471889	 0.4339849492	-2.1477916567	 0.296561
C	-4.7666773736	 1.1751568794	-2.8507750873	-0.375749
C	-3.4952533766	-1.8706022165	-1.754922235	 0.283809
N	-3.5440163807	-2.9714808888	-2.1003011043	-0.319226
H	-0.7444239492	 1.7667726652	-0.3973970486	 0.292681
H	 0.5565425224	-0.0780675119	-1.0685891248	 0.105642
H	 0.6635708546	-0.4204808604	 0.6694784628	 0.118626
H	-1.1491323235	-1.7586529102	-0.4072188454	 0.121356
H	-1.8166091681	-0.6135137804	 0.7956155826	 0.107841
H	-3.8601834539	-0.4512652121	-0.2665771927	 0.148487
H	-5.3181540141	 1.8299475905	-3.4805438381	 0.216981
