20
gdb 122856	5.20848	0.53764	0.53217	1.9319	73.89	-0.2489	0.0637	0.3126	2108.3228	0.169156	-477.456853	-477.445731	-477.444786	-477.495513	37.111	
C	 0.1085842256	 1.0981560866	 0.4132023977	-0.231241
O	-0.1637159787	-0.094348068	-0.3244157868	-0.267155
C	-1.3723900701	-0.6578766807	-0.0610416357	 0.519423
O	-2.173838077	-0.2161072191	 0.7331467059	-0.417544
N	-1.5374497037	-1.7675460621	-0.8310968163	-0.363415
C	-2.6818149198	-2.6465952624	-0.6882894003	-0.167712
C	-2.3485892919	-3.957628601	 0.0326622798	-0.170566
C	-3.5595267458	-4.8720970739	 0.1640025847	-0.069705
O	-3.1340778015	-6.0661564977	 0.8015401152	-0.42016
H	 1.1027998706	 1.4186727554	 0.09958377	 0.127275
H	-0.6280246252	 1.87401778	 0.1880670693	 0.137076
H	 0.0942424584	 0.9048290779	 1.4890463874	 0.137619
H	-0.7528214235	-2.0565942728	-1.392057274	 0.250386
H	-3.4319914602	-2.0812543634	-0.1296974277	 0.147458
H	-3.0989436185	-2.8579055398	-1.6816041747	 0.104048
H	-1.5622238806	-4.4974152281	-0.5096812443	 0.100832
H	-1.9551014633	-3.737063902	 1.0307044424	 0.120843
H	-4.3459226182	-4.3650068425	 0.746398951	 0.092631
H	-3.979864836	-5.081548392	-0.8342132388	 0.083337
H	-3.9010091204	-6.6341253844	 0.9190226652	 0.28657
