18
gdb 34434	2.97784	1.72282	1.27088	4.3009	80.13	-0.2945	0.0273	0.3218	998.8054	0.15071	-364.799288	-364.792386	-364.791442	-364.830438	28.045	
N	 0.0004906445	-1.1324481567	 0.022938399	-0.350088
C	 0.0017570409	 0.0243531349	 0.026162314	 0.181473
C	-0.0089668769	 1.4715631015	 0.0441267744	 0.246235
C	-0.9196005101	 2.1615360606	 1.0720811033	-0.297883
C	-0.6147238629	 3.6465049197	 0.7350222949	-0.25553
C	 0.3909203261	 3.4589110043	-0.3979372071	-0.018595
C	 1.3463993228	 2.2673745694	-0.0619328752	-0.082329
C	 1.4248138705	 1.9259419575	-1.5681482014	-0.258747
C	-0.0602484779	 2.2724737298	-1.311405307	-0.082332
H	-1.9690061072	 1.8930173406	 0.9234731312	 0.118176
H	-0.6495462702	 1.8881564763	 2.0956851385	 0.118177
H	-1.5047647555	 4.1934606396	 0.4101507901	 0.107933
H	-0.184805397	 4.1885379528	 1.5825202489	 0.107933
H	 0.8191731352	 4.3404892104	-0.8764679381	 0.075635
H	 2.1449417969	 2.2490845312	 0.6814162221	 0.084503
H	 1.9827973894	 2.6268098364	-2.1934598853	 0.099201
H	 1.6543696211	 0.890996386	-1.8308067365	 0.121736
H	-0.8926444298	 2.2600952657	-2.0167680659	 0.084502
