19
gdb 47701	2.17042	1.5841	1.1003	1.9798	75.25	-0.2408	-0.037	0.2038	1139.2375	0.159954	-423.080833	-423.072428	-423.071484	-423.114511	31.628	
O	 0.025506556	-0.0574260863	-0.0270049051	-0.304531
C	-0.0075283968	 1.1499528537	 0.0145118331	 0.373666
C	-1.3265957423	 1.9088885243	 0.0742223107	-0.28879
C	-1.8272929811	 2.2594295487	-1.3478347038	-0.198147
C	-1.0420908422	 3.3686251769	-2.0625806575	-0.198121
C	 0.4735381889	 3.1015425577	-2.2278506516	-0.288753
C	 1.1973347149	 3.2340845355	-0.8944038735	 0.373633
O	 1.6719619973	 4.2857797549	-0.5348672414	-0.304572
C	 1.2731807748	 1.9840195408	-0.0178985333	-0.392035
H	-2.0549188295	 1.2572871412	 0.5633328587	 0.126519
H	-1.2199171948	 2.8253577481	 0.6676789465	 0.112957
H	-1.8140924334	 1.3441100484	-1.9523760142	 0.119037
H	-2.8758957257	 2.5671512792	-1.2754266835	 0.110103
H	-1.4746294168	 3.5145736616	-3.058127991	 0.110085
H	-1.1675553682	 4.3183248228	-1.5280016356	 0.11906
H	 0.6311092048	 2.1043084309	-2.6569994827	 0.112896
H	 0.8999118691	 3.8459343832	-2.9048734148	 0.126526
H	 1.5233512362	 2.3055014836	 0.9992310267	 0.14524
H	 2.0821512489	 1.3375234249	-0.3757933079	 0.145226
