16
gdb 21942	6.71017	1.0368	0.96478	2.4235	66.64	-0.2342	0.0241	0.2583	1178.5003	0.132473	-379.937415	-379.929613	-379.928669	-379.970684	27.678	
O	-0.090266886	 1.4546747814	 0.0889823161	-0.416757
C	 0.0293004115	 0.0458404061	-0.0036671196	-0.061058
C	-1.3903184429	-0.5310045496	-0.0382526772	-0.305996
C	-1.4074676168	-2.0239404448	-0.1175617841	 0.357245
C	-1.3730994978	-2.8974685283	-1.1895748894	-0.296506
C	-1.3648619113	-4.1849628076	-0.6134146523	-0.001929
N	-1.3922706202	-4.1351193584	 0.7152535158	-0.230353
N	-1.4132856868	-2.8156945581	 0.9882515282	-0.242359
H	 0.7928845605	 1.8349189352	 0.0818000808	 0.289481
H	 0.5681969321	-0.2599918426	-0.9131534456	 0.098479
H	 0.5764213344	-0.3723254671	 0.8562962281	 0.088753
H	-1.9247931288	-0.1847032622	 0.8541551104	 0.113746
H	-1.9140098069	-0.1079554091	-0.9005895748	 0.129654
H	-1.3625323204	-2.6337306023	-2.2350872849	 0.099846
H	-1.3458333566	-5.1437005952	-1.110911662	 0.108738
H	-1.452710624	-2.5185295573	 1.9490818404	 0.269016
