14
gdb 4437	3.56082	1.86233	1.24038	4.1842	60.71	-0.2073	0.032	0.2393	922.6962	0.107663	-415.919852	-415.912126	-415.911182	-415.951648	28.18	
C	 0.108873319	 1.5564879777	 0.0583099282	-0.504917
C	 0.001780121	 0.0752277418	 0.0151051323	 0.301556
C	-1.0762263378	-0.7229076439	 0.0393427606	 0.18629
N	-2.429952579	-0.4146652738	 0.1124435418	-0.591484
O	-0.6652937097	-2.0626072561	-0.0234962893	-0.23361
C	 0.710734533	-2.0972544711	-0.0885021283	 0.473635
O	 1.3733685221	-3.0975132102	-0.1522781141	-0.406451
N	 1.1092353059	-0.7786037315	-0.064381231	-0.427338
H	 0.6846481553	 1.8950055573	 0.9280853936	 0.134834
H	 0.6027260027	 1.9524047718	-0.8372216225	 0.134832
H	-0.8927512456	 1.9853371463	 0.1187432745	 0.160067
H	-2.9444747355	-0.7534630685	-0.695559127	 0.251106
H	-2.8681235415	-0.8062909037	 0.9413115328	 0.2511
H	 2.07731985	-0.512262396	-0.1009185015	 0.27038
