17
gdb 113694	2.78853	0.93076	0.85188	1.8474	65.93	-0.2745	-0.0464	0.2281	1392.892	0.132917	-496.075229	-496.065674	-496.06473	-496.110735	33.598	
O	-0.6084620715	 0.5378219649	-1.8727137387	-0.410051
C	-0.0110995168	-0.0796610678	-0.7484349707	-0.099681
C	-1.020221147	-0.2717137824	 0.3561027775	 0.048886
O	-1.9608023851	-1.3428880421	 0.1989176614	-0.251618
C	-1.0482368714	-1.4141114493	 1.2946532938	-0.050818
C	-0.0388469852	-2.5272866075	 1.2996632937	 0.31197
O	 0.7926869028	-2.603601108	 2.1797692948	-0.322681
C	-0.1325405664	-3.617175654	 0.244830505	-0.133499
O	 0.8757141416	-4.5657321551	 0.4144064577	-0.41998
H	-1.3053418402	-0.0486840547	-2.1877304867	 0.295796
H	 0.4653034469	-1.0337523082	-1.0108645725	 0.102214
H	 0.7754027569	 0.6001592172	-0.4040968161	 0.130073
H	-1.4759662706	 0.6548618885	 0.7078077031	 0.118204
H	-1.4781020289	-1.2303839401	 2.279883095	 0.130051
H	-1.1406624513	-4.0601800194	 0.3325163018	 0.128262
H	-0.0960371373	-3.1723622293	-0.7594907701	 0.12709
H	 1.3370597435	-4.3102969727	 1.229258091	 0.295781
