14
gdb 128570	4.10263	1.18648	0.9257	2.7441	69.8	-0.2495	-0.077	0.1725	1180.9332	0.101673	-470.007587	-469.999902	-469.998958	-470.040152	27.803	
C	-0.0031457764	 1.4192342821	-0.0134309815	-0.235697
O	 0.0239424652	-0.0145332908	-0.0419858007	-0.256391
C	 0.6119784489	-0.6263260898	-1.0703884494	 0.528635
C	 0.6432566808	-1.9931961135	-1.1072947893	-0.39837
C	 1.2783246322	-2.6374592468	-2.2170398717	 0.487598
O	 1.4216983269	-3.8188736449	-2.4573825166	-0.388037
N	 1.7873977814	-1.6668376852	-3.1294542284	-0.260211
N	 1.7329427815	-0.3463359686	-3.0509319548	-0.044623
N	 1.1572853254	 0.1875221691	-2.0423481478	-0.290751
H	 1.0082589642	 1.8318059102	 0.0007963254	 0.147033
H	-0.5385670612	 1.8200580414	-0.8771524015	 0.147042
H	-0.5281784464	 1.6709793279	 0.9082479154	 0.139948
H	 0.2018919323	-2.5915453686	-0.3220252099	 0.138159
H	 2.2578047253	-2.0172556226	-3.9554093694	 0.285665
