14
gdb 127757	3.66996	1.66247	1.15253	5.0063	70.19	-0.2318	-0.025	0.2069	984.8348	0.103569	-432.859906	-432.853123	-432.852179	-432.891287	25.438	
C	-0.0144993848	 1.4515439912	-0.0859115339	-0.345374
N	-0.0064034386	 0.0131132914	 0.0583526772	-0.120186
N	-0.0413351591	-0.7780736833	-1.0623027317	-0.15616
N	-0.0275590129	-2.0412358894	-0.7054964918	-0.298283
C	 0.0164868281	-2.0425147841	 0.634048411	 0.380129
C	 0.0313452379	-0.7707191301	 1.1615752718	 0.32069
C	 0.0783549986	-0.9185242379	 2.5844260496	-0.347431
C	 0.0871809214	-2.272244065	 2.7717687199	 0.015099
O	 0.0500654628	-2.9903105122	 1.6003359539	-0.1917
H	 0.8896476699	 1.889375227	 0.347413644	 0.146669
H	-0.0472947576	 1.6673084257	-1.1539557431	 0.172415
H	-0.8930393465	 1.884984259	 0.4012148139	 0.146702
H	 0.1023767443	-0.1725356959	 3.3615920529	 0.128232
H	 0.1177652065	-2.8699979265	 3.6682836163	 0.149198
