22
gdb 122075	2.98331	0.69905	0.58734	3.4295	84.52	-0.2847	0.0196	0.3043	1936.4019	0.191866	-404.361172	-404.350049	-404.349105	-404.398503	38.415	
C	 0.1346338948	 1.5770342793	 0.0475767008	-0.381225
C	 0.0583422252	 0.0501071379	-0.0316537339	-0.170846
C	-1.377515392	-0.4803087784	 0.0395706154	-0.172141
C	-1.4488521922	-2.0083560583	-0.0347745056	-0.205233
C	-2.88969373	-2.5324980441	 0.0116278229	-0.028299
O	-3.5699174079	-2.0704961384	-1.1320673116	-0.229431
C	-4.9673829789	-2.3033872183	-1.1136600975	-0.248418
C	-2.9109246797	-4.0139213468	 0.0823398673	 0.271597
N	-2.934772348	-5.1682302675	 0.1327532585	-0.325774
H	 1.169834502	 1.9274861476	-0.0066709815	 0.114498
H	-0.4191243606	 2.0438160851	-0.7744747478	 0.116616
H	-0.293473672	 1.9470225343	 0.9858844535	 0.114341
H	 0.523869839	-0.2929707551	-0.964841538	 0.100464
H	 0.6503432929	-0.3902193225	 0.7817268669	 0.09669
H	-1.8453087987	-0.1396544387	 0.9742376856	 0.091378
H	-1.9718689248	-0.0549519976	-0.7763954164	 0.117974
H	-0.9883700585	-2.3692769708	-0.9612474816	 0.125475
H	-0.8936442642	-2.4591293411	 0.7957221252	 0.117063
H	-3.385326063	-2.161548001	 0.9254841679	 0.108924
H	-5.3691152306	-1.8738849136	-2.0331938936	 0.138477
H	-5.1992576359	-3.3764235421	-1.085866547	 0.135464
H	-5.4429660172	-1.8155218498	-0.2499205193	 0.112404
