15
gdb 25232	3.2431	1.64554	1.10117	5.8828	74.86	-0.1952	-0.0055	0.1897	1022.3442	0.116251	-416.862452	-416.855584	-416.85464	-416.893608	27.211	
O	-0.109710172	-0.0446237148	-0.0166232091	-0.357331
C	-0.0006401182	 1.1627722433	-0.0058506813	 0.261278
C	-1.2253369118	 2.1401663247	 0.0024059481	-0.286253
N	-0.6785556509	 3.5149151205	-0.1196213651	-0.422479
C	 0.6911739722	 3.3404141549	-0.0228736069	 0.388161
C	 1.1539982772	 2.0368116233	-0.0126162308	 0.170272
C	 2.5865528526	 2.1026868373	-0.0062847559	-0.3273
C	 2.9173472861	 3.4285126968	-0.0030139612	-0.067559
N	 1.7382155431	 4.1950407201	-0.01656068	-0.383942
H	-1.8920248618	 1.9089721995	-0.8329656352	 0.141674
H	-1.7860375128	 2.0113414168	 0.9340557846	 0.133789
H	-1.0925116975	 4.1980238548	 0.5023628018	 0.241797
H	 3.2804125855	 1.277366539	 0.0022461213	 0.116361
H	 3.8759317542	 3.9212709349	 0.0105962696	 0.126092
H	 1.6979804939	 5.198802199	-0.0541259699	 0.265439
