22
gdb 100793	2.57547	0.99335	0.89829	3.2066	78.95	-0.2381	0.0744	0.3126	1445.5769	0.192222	-441.443825	-441.433189	-441.432245	-441.480299	38.09	
C	 0.0670466926	 1.5346810277	 0.3440623961	-0.236316
O	-0.020354484	 0.1553462425	 0.0680813406	-0.268852
C	 0.6548258513	-0.7014574655	 0.9889894882	 0.120146
C	-0.1082757689	-0.8464677378	 2.3056476256	-0.410937
C	 0.7828560311	-2.0438837705	 0.2444859613	 0.088953
O	-0.4991161524	-2.4993149414	-0.166346359	-0.441896
C	 1.7467872421	-1.9476052646	-0.9214055739	 0.012301
C	 3.1418242226	-2.4350883074	-0.7696233024	-0.248249
N	 2.1808778676	-3.1694260295	-1.6081175435	-0.320099
H	 1.1143842208	 1.8651577167	 0.4154114143	 0.109069
H	-0.4118945168	 2.0591433006	-0.4864799933	 0.130878
H	-0.4480212773	 1.8117578594	 1.2742200653	 0.11292
H	 1.6648072169	-0.3038444329	 1.1800220448	 0.069728
H	 0.4576537929	-1.4734952517	 3.0021897988	 0.11659
H	-0.2685908118	 0.1212282068	 2.7885087355	 0.113844
H	-1.0767047909	-1.3182603302	 2.1226840533	 0.138119
H	 1.1532198319	-2.8014816011	 0.9474283945	 0.072244
H	-0.9078666884	-1.755710981	-0.6275108423	 0.290723
H	 1.5543833728	-1.1125698422	-1.5910841977	 0.095974
H	 3.9522026541	-1.9556193305	-1.3115185165	 0.116474
H	 3.4324392596	-2.8576613181	 0.1899218102	 0.105021
H	 1.8244371041	-3.9829350194	-1.11066104	 0.233365
