23
gdb 62924	2.54849	1.58534	1.48269	1.3474	84.14	-0.2311	0.079	0.3101	1064.7875	0.207257	-388.283747	-388.275241	-388.274297	-388.31599	34.673	
C	-0.0825306803	 1.4892891179	 0.0119132821	-0.45406
C	-0.0214861422	-0.042972242	 0.0012053286	 0.332861
C	-1.4238274141	-0.6001349813	 0.2344590409	-0.463546
C	 0.8421230632	-0.5987246863	-1.1940866512	-0.051188
C	 2.1008329656	-0.3890766318	-0.3008573479	-0.277441
C	 1.1339741659	-0.6199712323	 0.8897408398	 0.104255
O	 0.9190881275	-2.0055879266	 1.1322266252	-0.280425
C	 1.0371930428	-2.82520295	-0.0336691266	-0.06748
C	 0.6151269924	-2.1116775773	-1.3419942345	-0.246269
H	 0.8810212094	 1.9649154524	-0.1862643438	 0.111779
H	-0.7858575212	 1.8459615535	-0.7495110195	 0.113089
H	-0.4382694646	 1.8539828755	 0.9824582912	 0.113291
H	-2.0744940708	-0.3933815488	-0.6236829096	 0.106619
H	-1.4226012473	-1.6754122583	 0.4170783646	 0.124385
H	-1.8797178588	-0.1241539962	 1.1102133144	 0.109175
H	 0.7774677828	-0.0750902074	-2.1523661148	 0.054606
H	 2.9389222934	-1.0798474002	-0.4150847291	 0.096236
H	 2.4846896986	 0.6300242774	-0.3272896669	 0.104019
H	 1.3390021464	-0.1628670384	 1.8617732777	 0.065584
H	 2.0772701103	-3.1676547969	-0.1247881537	 0.09772
H	 0.4244665642	-3.7118479054	 0.1547258379	 0.105408
H	-0.4319032763	-2.314285137	-1.5877992817	 0.105235
H	 1.2178387429	-2.5083071106	-2.1672972232	 0.096147
