21
gdb 110666	2.99496	1.44115	1.29019	1.4967	80.48	-0.2237	0.0836	0.3073	1094.1443	0.184465	-387.062621	-387.054892	-387.053948	-387.094714	31.133	
C	 0.0256814848	 1.5786345976	 0.0233349898	-0.380556
C	 0.040310798	 0.0552703902	-0.1462950893	-0.207772
C	-1.3348311145	-0.5850115832	 0.0327973712	 0.038704
C	-1.4859464146	-2.1046335203	-0.0789964125	-0.136443
C	-1.1425290446	-2.762370876	 1.2442518254	 0.116655
O	-0.3048596417	-2.0900667077	 2.162566081	-0.269915
C	-1.0028251513	-0.8988291279	 2.5554101426	-0.084623
C	-2.0280359405	-0.6716817053	 1.4467128678	-0.099895
C	-2.473705544	-2.1199051903	 1.0983372575	-0.129041
H	 1.0213101977	 2.0065216497	-0.129163076	 0.112856
H	-0.653060112	 2.0509138085	-0.6963140827	 0.110816
H	-0.3079212393	 1.8698767459	 1.0255934604	 0.112921
H	 0.4005727325	-0.1927629312	-1.1538752929	 0.089901
H	 0.7535253679	-0.4014304779	 0.5475228157	 0.118276
H	-2.0454899432	-0.1118350382	-0.6559519378	 0.069329
H	-1.5236892002	-2.6748107503	-1.0017021482	 0.077962
H	-1.0276377288	-3.8393724904	 1.2700566439	 0.101186
H	-1.4920621794	-1.0481774436	 3.5304061548	 0.091644
H	-0.2706154208	-0.0913849874	 2.6535868259	 0.108682
H	-2.7866049965	 0.0762489419	 1.6740915516	 0.071291
H	-3.4467269495	-2.5756694441	 1.2216812219	 0.088024
