19
gdb 77069	3.00684	1.19018	1.05689	4.5286	76.36	-0.248	0.0124	0.2604	1207.8459	0.157558	-419.200757	-419.191088	-419.190144	-419.23493	35.88	
C	-0.7951156053	 1.515484108	 0.0938255052	-0.421696
C	-0.1263040441	 0.1486143273	 0.0644516955	 0.300555
C	-1.1098449887	-0.960348942	-0.3161837349	-0.447083
N	 1.128295978	 0.1394211755	-0.7560454668	-0.33374
C	 1.8657682426	-0.5957991622	 0.2859781457	-0.175284
C	 3.1940573117	-0.0811056493	 0.615011084	 0.290306
N	 4.2306957288	 0.3107505734	 0.9443335491	-0.328065
C	 0.7320695547	-0.238008282	 1.3127367335	 0.088334
O	 0.9910523491	 0.8627922402	 2.1333591557	-0.415068
H	-0.0816262299	 2.2831563715	 0.392759555	 0.14388
H	-1.1763065943	 1.7604721619	-0.9034898276	 0.110755
H	-1.6377308398	 1.5271853852	 0.792825075	 0.115252
H	-1.5198397256	-0.7798131613	-1.3160589463	 0.122807
H	-0.630519139	-1.9456015893	-0.3196251232	 0.112934
H	-1.9492788083	-0.9971043643	 0.3860935858	 0.127855
H	 1.0675396674	-0.3385551596	-1.6492686981	 0.220663
H	 1.9447548541	-1.6802519357	 0.1321290739	 0.110264
H	 0.363118703	-1.09867783	 1.8849093786	 0.076953
H	 1.7788430355	 0.6866801027	 2.66070613	 0.300378
