18
gdb 78188	2.1027	1.66009	1.41184	4.9378	75.64	-0.2507	0.0125	0.2633	1031.857	0.148416	-398.081369	-398.072582	-398.071637	-398.114684	32.833	
C	-0.3522130272	 1.4872744986	 0.0213242295	-0.445205
C	-0.0123217097	 0.0172004817	-0.1069386642	 0.024754
C	 0.6218264558	-0.689655029	-1.2403414454	-0.084561
C	 1.7494736733	 0.0908036404	-1.9249926832	 0.003322
N	 1.5167181833	 1.2653851121	-2.7281427671	-0.517929
C	 2.3930578633	 0.2112394251	-0.4896248893	-0.146407
C	 2.6804934851	 1.5171377461	 0.0863801905	 0.321677
N	 2.9383493151	 2.5468062202	 0.5450442692	-0.34076
N	 1.3014349879	-0.6212259262	 0.1381844439	-0.156699
H	 0.3484693288	 2.1622184157	-0.4689317871	 0.14981
H	-1.3486223025	 1.6584454644	-0.4011568593	 0.121257
H	-0.3859022678	 1.7723118356	 1.0774313445	 0.14362
H	-0.7626477643	-0.6053060468	 0.3797962167	 0.108641
H	 0.2251353632	-1.6275014797	-1.6186092867	 0.098741
H	 2.3796525984	-0.5882340766	-2.5028322554	 0.104654
H	 1.5064494744	 1.0429503255	-3.7155902409	 0.238688
H	 0.6429823318	 1.7230704595	-2.5032872081	 0.240621
H	 3.3155064412	-0.3730808267	-0.4359168075	 0.135776
