18
gdb 11987	2.6516	2.13731	1.77017	1.3948	67.08	-0.2474	0.0727	0.3202	850.7428	0.152425	-384.90716	-384.899012	-384.898068	-384.938893	31.767	
C	-0.1137052934	 1.5932024371	 0.0034777585	-0.447888
C	 0.0282618672	 0.0795578503	 0.0124404641	 0.35731
O	-1.1905455771	-0.5454962428	 0.3992393672	-0.483618
C	 0.6711630416	-0.6143511755	-1.2028690148	-0.107058
C	 2.1120716626	-0.2194869405	-1.3574912035	-0.295398
C	 1.7515820033	-1.2361032979	-0.3117609444	-0.053708
C	 1.1570577787	-0.5553592155	 0.91187404	 0.076287
O	 2.0552179733	 0.2960420742	 1.5879304242	-0.430123
H	 0.8399302936	 2.0910181515	-0.1831783978	 0.129729
H	-0.8201570596	 1.9102508492	-0.7737182235	 0.103783
H	-0.4977551378	 1.9386216466	 0.9690782006	 0.112996
H	-1.8624251332	-0.308084791	-0.2494268355	 0.273337
H	 0.1061538855	-1.0854459289	-1.9992015941	 0.079274
H	 2.6079382871	-0.6236565427	-2.2344046807	 0.111041
H	 2.4632997267	 0.7651411468	-1.0665292026	 0.1216
H	 2.1544269068	-2.2408791716	-0.3262195336	 0.084773
H	 0.6803889725	-1.2723473154	 1.5906785513	 0.082954
H	 1.611829732	 0.639921796	 2.3699939246	 0.284708
