16
gdb 43704	4.81429	1.21228	1.0898	2.9046	70.93	-0.2527	0.0215	0.2743	1092.6957	0.124277	-437.806857	-437.799882	-437.798938	-437.838346	27.695	
N	 0.0688760824	 1.2016951529	 0.6631647239	-0.540962
C	-0.025111497	 0.0916029791	 0.0919182998	 0.414474
C	-1.160750725	-0.8512988782	-0.2459242461	-0.472165
C	-0.0359967506	-1.7035853785	-0.8515700143	 0.532845
O	 0.9479945546	-0.718450928	-0.4703295322	-0.281598
C	 0.2754858759	-3.2007582182	-0.6547418204	-0.039719
C	-0.8213521675	-3.5229130212	-1.6996651777	-0.233079
C	 0.054060577	-2.3656771006	-2.2411072208	-0.039719
O	 1.2530786048	-3.0952362052	-1.7640807015	-0.310279
H	 1.0388408089	 1.5207504808	 0.6957310761	 0.232219
H	-1.6753675638	-1.2775035707	 0.6171169046	 0.144533
H	-1.8940190005	-0.4528664052	-0.9494087471	 0.144533
H	 0.5765313956	-3.7411343993	 0.2418229631	 0.109222
H	-0.6703491681	-4.4685171424	-2.2185191211	 0.123015
H	-1.8674982702	-3.3275120642	-1.4507824263	 0.107457
H	 0.0917804935	-1.9129495612	-3.2310962399	 0.109222
