17
gdb 93457	2.92188	1.41691	0.98733	1.0048	72.3	-0.2591	-0.0203	0.2388	1159.1254	0.136977	-455.193731	-455.185494	-455.18455	-455.226802	30.914	
C	 0.077069365	 1.5619881622	-0.0851440189	-0.396745
C	 0.0735340327	 0.0474329951	 0.018308271	 0.057021
O	 0.7167741796	-0.4778205524	-1.1361854954	-0.248634
C	 0.6600046822	-1.8820368053	-1.2002130239	-0.198853
C	 1.2464297317	-2.5606810314	 0.0303690346	 0.386548
O	 1.6418760407	-3.7034811259	 0.0442702372	-0.342824
N	 1.2800020198	-1.7564441941	 1.1575520025	-0.380457
C	 0.7607881168	-0.4644770684	 1.2813858072	 0.394863
N	 0.7973049612	 0.2416747905	 2.3364597646	-0.51186
H	 1.1031568253	 1.9312881013	-0.1541225319	 0.134392
H	-0.4705533454	 1.8680153017	-0.979521343	 0.121776
H	-0.3870544164	 1.9983717852	 0.7995404058	 0.149321
H	-0.968285208	-0.321569954	 0.0483825439	 0.094883
H	-0.3759219083	-2.2430596897	-1.3243181955	 0.12396
H	 1.2352773558	-2.2037450069	-2.0703254799	 0.151204
H	 1.7013462871	-2.1858563085	 1.9726734112	 0.253085
H	 1.2527701702	-0.2451934094	 3.1113921104	 0.21232
