20
gdb 13217	3.91014	1.31441	1.06756	1.3934	71.57	-0.2418	0.0809	0.3227	1157.3487	0.175469	-386.112665	-386.103446	-386.102501	-386.147271	32.321	
C	 0.1200615651	 1.426366832	 0.088776586	-0.232724
O	-0.0714250311	 0.0368464329	-0.0350298781	-0.251723
C	 0.5637031892	-0.5560605606	-1.1582820005	 0.127462
C	 2.0820661479	-0.6600156681	-1.0128191762	-0.416711
C	-0.0752923323	-1.933627441	-1.292863842	 0.151163
C	-1.5347285814	-1.9934394874	-1.7860994827	-0.293096
C	-0.9500199249	-2.7838156818	-2.9737976177	-0.062694
O	 0.3959703847	-2.6318659533	-2.4692780159	-0.297702
H	 1.1642439016	 1.6919998377	 0.3074631613	 0.108898
H	-0.1869531368	 1.9621440681	-0.8234977471	 0.101692
H	-0.5035025013	 1.7641126888	 0.9205964916	 0.12616
H	 0.3232552736	 0.0231772993	-2.0671422557	 0.059269
H	 2.337845807	-1.1704919752	-0.0784544081	 0.119992
H	 2.4868774926	-1.2354789269	-1.8496916663	 0.141619
H	 2.5606741239	 0.3232100886	-1.0122281208	 0.112114
H	 0.1225683611	-2.510651906	-0.3790502166	 0.078363
H	-2.2308709417	-2.5375981072	-1.1473971059	 0.111877
H	-1.9628053702	-1.0208476431	-2.0348937152	 0.11159
H	-1.2448549836	-3.8390584707	-3.0281270228	 0.101869
H	-1.0669940034	-2.3334939261	-3.9667096172	 0.102582
