21
gdb 75383	2.54285	1.67799	1.19796	1.635	83.49	-0.2311	0.0286	0.2597	1104.5297	0.184833	-387.121776	-387.113717	-387.112772	-387.154579	31.521	
C	 0.4408012919	 1.3485344706	-0.0502996227	-0.496833
C	 0.1317131414	-0.1167637583	-0.033873673	 0.331628
C	 0.0536431822	-0.9287395077	-1.0908723574	-0.17177
C	-0.3361682364	-2.3373476764	-0.7315159342	-0.274433
C	-0.3385923981	-2.3413932199	 0.8190713901	 0.110983
O	 0.7724414418	-3.0596321013	 1.3618091961	-0.26623
C	 1.7699984025	-2.1380100627	 1.7832622699	-0.075343
C	 0.9962844368	-0.9112790685	 2.268692629	-0.230728
C	-0.1718184323	-0.8526993104	 1.2587834946	-0.140652
H	 1.3354162199	 1.5845183895	 0.539373715	 0.125033
H	 0.6057918129	 1.7109119742	-1.0686232887	 0.123446
H	-0.3803508159	 1.930384377	 0.3885403878	 0.123253
H	 0.2208495375	-0.6131516155	-2.1164573129	 0.083017
H	-1.3233371865	-2.5963706554	-1.1379588125	 0.100377
H	 0.3625465392	-3.0955621696	-1.1034121893	 0.114616
H	-1.2404007514	-2.8138786905	 1.2195106738	 0.074235
H	 2.3660621024	-2.6221734048	 2.5622214223	 0.103667
H	 2.4402059647	-1.8742238684	 0.9502110487	 0.09103
H	 0.6145454233	-1.0839151542	 3.279714186	 0.103664
H	 1.6013847907	-0.0010746405	 2.2852010374	 0.097988
H	-1.0742607165	-0.4483683272	 1.7321427997	 0.073052
