21
gdb 70996	3.05263	1.54025	1.4235	1.4507	83.58	-0.2271	0.0701	0.2972	1037.4708	0.183684	-387.004298	-386.996778	-386.995833	-387.035554	31.795	
C	-0.1473677957	 1.5816915848	-0.0338402368	-0.487029
C	 0.0275242656	 0.0891471867	-0.000707602	 0.377765
C	 1.129893862	-0.7114693562	-0.859310084	-0.365199
C	 0.6904009269	-1.8321874556	 0.149732049	 0.237608
C	 1.0968862784	-2.8418159533	 1.2669386882	-0.324844
C	 0.3472975284	-1.8626681469	 2.2767324584	-0.308292
C	 0.6212268948	-0.7485012884	 1.2046383596	-0.005532
C	-0.7871549283	-1.9564209894	-0.2832944173	-0.098646
O	-1.1794764544	-0.5742385216	-0.365428248	-0.29378
H	 0.7748609442	 2.0851029648	 0.2680937347	 0.116291
H	-0.4135110981	 1.9161161695	-1.041474594	 0.127276
H	-0.9499942549	 1.8815475632	 0.6470026234	 0.130333
H	 0.8989750389	-0.8277293484	-1.9231502846	 0.095222
H	 2.14868311	-0.3522247437	-0.7133589976	 0.101895
H	 0.7381539048	-3.8720008062	 1.18439606	 0.099292
H	 2.1714773701	-2.8535629858	 1.4647189216	 0.110811
H	-0.6996425881	-2.1294582879	 2.4220569656	 0.119406
H	 0.8113676688	-1.7148138629	 3.2543875998	 0.099678
H	 1.6304615631	-0.369359396	 1.3943102024	 0.076469
H	-0.884543077	-2.4371893454	-1.2648610801	 0.095324
H	-1.4312927394	-2.4866653813	 0.4252683115	 0.095951
