18
gdb 3079	9.73433	1.01065	0.96884	2.1266	65.16	-0.2311	0.0791	0.3102	1196.3784	0.159372	-326.93544	-326.927237	-326.926293	-326.968496	28.743	
O	-0.1592980621	 1.415518297	-0.237246542	-0.420066
C	-0.0124343633	 0.0375692698	 0.0718408139	-0.072612
C	-1.3870550396	-0.6104985382	-0.0205620222	-0.164333
C	-1.3548402569	-2.1095222957	 0.2726757065	-0.14261
N	-2.6981714006	-2.6760920094	 0.221542883	-0.057569
C	-3.1509362087	-3.1460461179	-1.0834320147	-0.218396
C	-2.7870796789	-4.1119785069	-0.0100791113	-0.221074
H	 0.7049685108	 1.8316531073	-0.1714354016	 0.28469
H	 0.6825317894	-0.4547340211	-0.6290046157	 0.081701
H	 0.398918818	-0.1014306657	 1.0855524803	 0.083945
H	-2.0663179784	-0.1172731142	 0.6823646948	 0.117803
H	-1.789385828	-0.4365107413	-1.0254893427	 0.107098
H	-0.6691925577	-2.6170799294	-0.4332384663	 0.07423
H	-0.9590773855	-2.287025101	 1.2809595638	 0.101166
H	-4.1917024483	-2.9507253959	-1.3251230123	 0.116888
H	-2.4639240491	-3.058916006	-1.9246318358	 0.107132
H	-1.8591523763	-4.6681084367	-0.1379885568	 0.106148
H	-3.5569712749	-4.635944455	 0.549354349	 0.115861
