19
gdb 91485	2.49745	1.61811	1.23096	1.5912	75.73	-0.248	-0.0309	0.2171	1062.7093	0.159094	-423.01668	-423.008554	-423.00761	-423.049462	31.301	
C	-0.1261033131	 1.5135727009	-0.1698080413	-0.417227
C	 0.0524369204	 0.015909771	 0.0131119378	 0.110443
O	 0.9275753361	-0.5387276799	-1.0007709124	-0.294301
C	 1.9110700106	-1.2290607432	-0.2137726355	 0.101858
C	 1.06304391	-1.9588575552	 0.8553130935	-0.283698
C	 0.8079667573	-0.4618071089	 1.2831597213	 0.19496
C	 2.2891405529	-0.2014336698	 0.8787239266	-0.277194
C	 0.2381607632	-0.1354255207	 2.6199776485	 0.041812
O	 0.8331604825	 0.4362047579	 3.5002453348	-0.24792
H	 0.8109915856	 2.0578199305	-0.0302528916	 0.128694
H	-0.4905640221	 1.7180521225	-1.1805552593	 0.133536
H	-0.8628331307	 1.9011036386	 0.5422091951	 0.119895
H	-0.9276164193	-0.4764947519	-0.0582146875	 0.079478
H	 2.6257378802	-1.7271641916	-0.8663463807	 0.087577
H	 0.2116530345	-2.5467976894	 0.5054543815	 0.108834
H	 1.6526629971	-2.5073397938	 1.5911585693	 0.115318
H	 2.986257993	-0.5833382954	 1.6248491489	 0.11673
H	 2.5787290645	 0.7976882406	 0.5519720582	 0.110353
H	-0.8119004128	-0.4813834924	 2.7710885827	 0.070852
