22
gdb 107124	3.33033	1.11258	1.07768	1.7504	86.7	-0.1987	0.0828	0.2814	1287.7671	0.193276	-367.140487	-367.131399	-367.130455	-367.173947	35.672	
C	 0.059370441	 1.5401402789	 0.2412845092	-0.370502
C	-0.0016250874	 0.0422674638	-0.0905314163	-0.292535
C	-1.401967336	-0.5039491179	-0.0768278868	 0.387548
C	-2.1205559906	-0.9862550301	 1.1562597085	-0.341544
C	-1.8954336805	-1.9435161703	 0.0108798901	-0.186354
C	-2.8488696466	-1.6760447898	-1.1976675644	 0.355302
C	-3.1668764803	-2.6776707918	-2.261111739	-0.508524
N	-3.7847227619	-0.5862940877	-0.8135112539	-0.380873
C	-2.3972366164	-0.2726325146	-1.2598144427	-0.18461
H	 1.087610958	 1.9135119982	 0.2026869301	 0.107487
H	-0.5354083898	 2.1268494105	-0.4671620196	 0.115552
H	-0.3367284297	 1.7345126631	 1.2430445605	 0.121008
H	 0.4528004396	-0.1320936593	-1.076144828	 0.091435
H	 0.6073264839	-0.5197826491	 0.6285001712	 0.095695
H	-1.4704926185	-1.157134827	 2.0101113797	 0.099511
H	-3.1187505768	-0.6432235656	 1.3954760661	 0.137604
H	-1.3073130361	-2.8486772943	 0.1052083409	 0.081823
H	-3.8616801635	-3.4424603654	-1.8929768224	 0.12772
H	-3.6256705159	-2.1951712161	-3.1312511944	 0.114393
H	-2.2600444454	-3.1903276066	-2.6011444365	 0.125094
H	-4.393542504	-0.4248011593	-1.6163691977	 0.220643
H	-2.2165878131	 0.3708544904	-2.1130164247	 0.084127
