10
gdb 516	23.98185	1.28659	1.23046	3.9039	50.43	-0.2682	-0.0625	0.2057	870.3354	0.07066	-305.129953	-305.123003	-305.122059	-305.161238	21.633	
O	-0.0255777891	 1.4680065494	 0.0103716352	-0.40429
C	 0.0035183071	 0.050702362	 0.0022728179	-0.216785
C	-1.3538276947	-0.4721031122	 0.0124108092	 0.143466
C	-2.4648721893	-0.944411672	 0.0204377848	 0.010647
C	-3.8083709546	-1.461557036	 0.0304252115	 0.024969
O	-4.0898374179	-2.6379463738	 0.0268431885	-0.22935
H	 0.8863079352	 1.7767352136	 0.0043576982	 0.29698
H	 0.518420956	-0.3438737209	-0.8892405718	 0.135024
H	 0.5354105289	-0.353646984	 0.8793052952	 0.135025
H	-4.5912501215	-0.676340726	 0.0420342813	 0.104314
