17
gdb 93617	2.63121	1.35482	1.06382	2.4324	73.84	-0.2503	-0.0372	0.2131	1149.8262	0.134764	-421.818153	-421.80951	-421.808566	-421.851919	32.52	
O	 0.3872990198	 1.1330152714	 0.7020194072	-0.441188
C	 0.071520104	-0.1155601228	 0.1594151209	 0.072928
C	-1.4192078935	-0.4585285719	 0.0791971448	-0.24335
C	-1.4418486234	-1.6376015829	-0.9172537055	-0.23671
C	-0.3980410824	-1.2646794551	-2.0149453994	-0.292226
C	-0.9882729546	-0.6705412195	-3.2048377619	 0.349862
C	-1.4958628355	-0.1660197062	-4.1700313686	-0.4639
C	 0.5217714353	-0.2430170733	-1.2942142154	 0.371032
O	 1.4013157508	 0.4184153552	-1.7777274714	-0.320246
H	 1.0869399114	 1.4989025301	 0.1404507235	 0.293559
H	 0.5818685331	-0.9295296204	 0.7127650931	 0.092193
H	-1.8534681247	-0.7112979373	 1.0482612381	 0.115447
H	-1.9612116473	 0.4041221035	-0.3240418055	 0.126493
H	-1.1255839361	-2.5581598296	-0.4159006971	 0.111129
H	-2.4298466977	-1.8146941004	-1.3425239141	 0.126675
H	 0.2097979171	-2.129420297	-2.3073237181	 0.134756
H	-1.9323607864	 0.2763687763	-5.0311253506	 0.203546
