18
gdb 42880	2.27871	1.78918	1.52426	1.7651	77.09	-0.2405	-0.0164	0.2242	975.2698	0.150019	-401.951605	-401.944272	-401.943328	-401.983272	29.121	
O	 0.0082795306	 0.1345549046	 0.5370830135	-0.305262
C	-0.0116988096	 1.2909048842	 0.2366545924	 0.41042
C	-1.106739484	 2.3077212529	-0.1394957411	-0.140617
C	-1.6780645055	 3.063836305	 1.0555432678	-0.236762
C	-0.6833645739	 3.610062618	 2.0468108084	-0.047522
C	 0.6521875857	 3.627894839	 2.0266335486	-0.047521
C	 1.6307203669	 3.1080144176	 1.0055554056	-0.236762
C	 1.0439491213	 2.3364369683	-0.1719877126	-0.140617
N	-0.0524339834	 3.1096306512	-0.8523111554	-0.319948
H	-1.9120583469	 1.9259229275	-0.7753241731	 0.091103
H	-2.2875394329	 3.8970568013	 0.6774869874	 0.120513
H	-2.3753056767	 2.3976640069	 1.5827942802	 0.119675
H	-1.1593353311	 4.0746977635	 2.909053207	 0.087971
H	 1.1414115668	 4.1054171248	 2.8742940656	 0.087971
H	 2.2060422871	 3.9570536204	 0.6096011466	 0.120513
H	 2.3611000285	 2.4609020696	 1.5112387041	 0.119675
H	 1.8396009151	 1.9760149398	-0.8320031923	 0.091103
H	-0.064193638	 2.8725947653	-1.8402316527	 0.226066
