8
gdb 113	46.2984	2.58674	2.44986	4.2338	35.69	-0.2934	-0.0298	0.2636	460.7073	0.055229	-283.156647	-283.151564	-283.15062	-283.184645	15.704	
N	-0.0945641623	 1.2931489773	 0.0101823844	-0.406913
C	-0.0187057301	 0.0405322757	 0.0023571532	 0.138479
O	-1.1759608185	-0.6914389492	 0.0094164635	-0.133011
C	-1.0773678574	-2.051895559	 0.001395085	 0.191819
O	-2.0363847452	-2.7538473724	 0.0068524412	-0.24744
H	 0.8374429504	 1.7042323309	 0.0035437085	 0.245625
H	 0.8875611516	-0.5758977244	-0.0098076536	 0.113585
H	-0.0311211186	-2.4080111489	-0.0104199222	 0.097856
