16
gdb 124714	5.04022	1.06949	0.88717	9.3376	79.72	-0.2011	-0.0379	0.1632	1259.036	0.125839	-430.274117	-430.266095	-430.265151	-430.307373	29.275	
C	 0.0744227464	 1.3741048364	 0.0643160802	-0.496336
C	 0.0240762346	-0.119298069	-0.043257759	 0.440547
N	 0.0827030356	-0.8913440166	 1.0278873206	-0.499997
N	-0.081558577	-0.6920116599	-1.2332678427	-0.374372
H	-0.1272403499	-0.1199108928	-2.0630943189	 0.28469
C	-0.1378928594	-2.080424043	-1.4561251536	 0.418025
N	-0.2446276168	-2.5984472184	-2.6770217321	-0.377839
C	-0.2577540564	-3.914370167	-2.350844611	 0.006253
N	-0.1668290512	-4.1782459269	-1.0442808553	-0.248712
N	-0.0869909169	-2.9584671052	-0.4474143536	-0.327332
H	 1.0066642128	 1.6876522742	 0.5444444024	 0.168639
H	 0.0144035385	 1.8482450784	-0.9165290374	 0.152942
H	-0.7569615496	 1.7375529394	 0.6763736116	 0.168629
H	 0.161923432	-0.4757023088	 1.9403881019	 0.270193
H	 0.0382381152	-1.9407723174	 0.8355962817	 0.317639
H	-0.3358578777	-4.6990543534	-3.0902611647	 0.097031
