16
gdb 127310	5.15029	0.89627	0.81529	5.2568	76.44	-0.2515	0.0066	0.2582	1382.1099	0.12548	-396.969649	-396.961044	-396.9601	-397.005169	29.816	
C	-0.4252380636	 1.4281766862	-0.191788045	-0.318632
N	-0.1255141732	 0.0174453395	-0.0665315975	 0.058676
C	 0.367693692	-0.8195101964	-1.0116778826	-0.01153
C	 0.5251042403	-2.0530786732	-0.4160674907	-0.307006
C	 0.095157324	-1.853795828	 0.9121188962	 0.356989
C	-0.0004679219	-2.8476376639	 2.0396354558	-0.440634
C	 1.2006605953	-3.6722535304	 2.1831811791	 0.263778
N	 2.1429739409	-4.3327609447	 2.2852383059	-0.313501
N	-0.2943564815	-0.5969394788	 1.1193423838	-0.330501
H	 0.2667695146	 2.023383975	 0.4107511231	 0.152627
H	-0.330964981	 1.7172460323	-1.2396102551	 0.14164
H	-1.4454152944	 1.6222479624	 0.1470780418	 0.154501
H	 0.5678469768	-0.4777653933	-2.0150185164	 0.136229
H	 0.9008089581	-2.9569537112	-0.86671862	 0.122917
H	-0.1786768274	-2.3041144014	 2.9724439989	 0.171851
H	-0.855388239	-3.520935254	 1.8962200227	 0.162595
