16
gdb 16035	3.5249	1.72581	1.40567	1.0038	72.54	-0.233	0.0311	0.2641	920.4949	0.129013	-346.527697	-346.52	-346.519055	-346.559369	29.226	
C	 0.0006502293	 1.5563778585	 0.0151437282	-0.424541
C	 0.0726458363	 0.0473553614	 0.0607329748	-0.080497
C	 1.3247472372	-0.7295156478	-0.1756770885	 0.038491
O	 2.4757332765	-0.0317459765	 0.2900584279	-0.279294
C	 1.9924179142	-0.0914056854	 1.6566481695	-0.139156
C	 0.6818423638	-0.7553931864	 1.2189918586	 0.089374
C	-0.0121944843	-1.7680098292	 1.9301613539	 0.177249
C	-0.5994718458	-2.618318356	 2.548354192	-0.405768
H	 0.9741487233	 2.0027469919	 0.229685048	 0.13888
H	-0.3007767273	 1.8895365665	-0.9834088866	 0.123442
H	-0.7293733111	 1.9428978632	 0.7332928112	 0.123648
H	-0.804485336	-0.4705197392	-0.3214012672	 0.103567
H	 1.4694956901	-1.5100659712	-0.914306692	 0.115812
H	 2.620053909	-0.7580557939	 2.2557939181	 0.122376
H	 1.9315265551	 0.8959793561	 2.127246593	 0.110522
H	-1.1176791403	-3.370432452	 3.089571419	 0.185894
