18
gdb 48445	2.28019	1.49322	1.10586	2.4606	71.82	-0.2573	-0.0384	0.2189	1129.7151	0.146881	-439.03031	-439.021588	-439.020644	-439.065057	31.038	
O	 0.044618627	-0.226365934	-0.1012986934	-0.240326
C	-0.0230239573	 0.9728223952	-0.0294873651	 0.104901
C	 1.166159879	 1.9123415974	 0.0136767687	 0.16128
C	 1.3759037941	 2.5345323902	 1.4256583211	-0.140673
O	 2.6459390972	 1.8868822188	 1.5684429813	-0.26703
C	 2.5292816046	 1.2360435712	 0.2813676233	-0.12161
C	 1.0931703285	 2.8509423425	-1.1765844788	-0.066576
C	 0.3955635748	 4.1606829045	-1.0989867535	-0.250133
N	 1.8588106555	 4.1001235353	-1.2363200097	-0.323136
H	-1.0068119227	 1.4941213945	 0.0117651743	 0.086292
H	 1.4571083374	 3.6293327738	 1.4663491988	 0.099242
H	 0.6526691308	 2.2154996787	 2.1879609674	 0.113532
H	 2.4827067434	 0.146433041	 0.3675557688	 0.131314
H	 3.3375668949	 1.5274865565	-0.3979135146	 0.114549
H	 1.0785871082	 2.3234489353	-2.1295419246	 0.11033
H	-0.1330340747	 4.5511590809	-1.9633185971	 0.12989
H	-0.0272356326	 4.4559190644	-0.141356448	 0.115999
H	 2.3123732318	 4.2932722437	-0.3460961688	 0.242155
