22
gdb 81804	2.01292	1.78675	1.30983	1.4448	86.24	-0.2209	0.0859	0.3068	1122.3457	0.193308	-367.165126	-367.156091	-367.155147	-367.198154	35.625	
C	 0.0822123738	 1.5346793389	-0.0364275955	-0.397069
C	 0.0405615773	 0.0193319055	 0.0170685382	-0.02041
N	 1.0703542832	-0.5874732275	-0.9134370864	-0.178345
C	 0.9395487206	-2.0514253849	-0.7555844538	-0.288541
C	 1.686080256	-1.3061537701	 0.2814262298	 0.272053
C	 3.1670012775	-1.4183870996	 0.4923327463	-0.496595
C	 0.7012629838	-0.656209493	 1.231348425	 0.319814
C	 1.0144639616	-0.0317853668	 2.5571614862	-0.335891
C	 0.0876696312	-1.224767964	 2.4774250046	-0.335376
H	 1.0905745256	 1.9040161858	 0.1719320248	 0.120894
H	-0.2104027313	 1.8845062474	-1.0311851998	 0.12235
H	-0.6049532302	 1.9716110615	 0.6962690562	 0.108677
H	-0.9712826281	-0.3405633876	-0.2117884329	 0.068828
H	-0.0389229765	-2.4719479219	-0.5301622208	 0.106318
H	 1.5140492341	-2.6085054462	-1.4904297155	 0.112791
H	 3.6689745828	-1.6671194515	-0.4470804176	 0.12919
H	 3.5875326262	-0.4782505661	 0.8644613437	 0.123479
H	 3.402912366	-2.2058677278	 1.2183960088	 0.118405
H	 2.0052720649	-0.1844033113	 2.9736279424	 0.11333
H	 0.5862940768	 0.9392084373	 2.7841438394	 0.11448
H	-0.9721064985	-1.0578383625	 2.6435732966	 0.111171
H	 0.4497653732	-2.1817189058	 2.8402497702	 0.110448
