13
gdb 25096	3.22269	1.49806	1.12196	3.7875	70.76	-0.2721	-0.0808	0.1913	1014.7686	0.091644	-448.962838	-448.955716	-448.954772	-448.995088	26.142	
N	-0.1649289671	 1.1548423289	-0.5524204343	-0.476018
C	 0.0016431478	 0.0013330405	-0.0374771188	 0.29154
C	-1.2400414962	-0.7103719921	 0.398586264	 0.016874
N	-1.5211414484	-1.9460451725	 0.2977522295	-0.23358
C	-0.6961822039	-2.918655309	-0.2765308243	 0.437569
O	-1.1315512433	-3.8397994383	-0.9174100951	-0.32119
N	 0.680314214	-2.8856629328	 0.0456827584	-0.335555
C	 1.4943928316	-1.8084872601	 0.2849142642	 0.107589
N	 1.2524091974	-0.5542001312	 0.237589977	-0.294141
H	 0.7451800141	 1.5539072885	-0.7996262022	 0.23441
H	-1.9946293045	-0.0605517296	 0.8454422225	 0.157093
H	 1.138107542	-3.7708918675	-0.1333202635	 0.273838
H	 2.5146378066	-2.1126402646	 0.5209777026	 0.141569
