19
gdb 36350	4.82521	0.82002	0.77948	4.9439	81.02	-0.2569	0.0382	0.295	1484.5492	0.15983	-382.051449	-382.04272	-382.041776	-382.085718	32.273	
N	-0.0035101212	-1.0700967611	-0.6867521597	-0.306271
C	-0.0200035489	 0.0062078598	-0.2667998217	 0.262955
C	-0.0139263989	 1.3635135298	 0.2798363695	-0.341507
C	 1.3754115341	 1.9811726701	 0.2646864535	-0.098277
N	 1.7604810902	 2.656725595	-0.9844660937	-0.374233
C	 1.5837193909	 3.4482627293	 0.2264128606	 0.361107
C	 0.5594851589	 4.5747977711	 0.4149859732	-0.289739
C	 1.4929432918	 5.1620207546	 1.515577638	-0.205619
C	 2.638316384	 4.2264946022	 1.0243459473	-0.307744
H	-0.6935124839	 1.9849664711	-0.3110216414	 0.16073
H	-0.4050782045	 1.3268257129	 1.3038699122	 0.148659
H	 2.1323448127	 1.3920141977	 0.7794806003	 0.102559
H	 2.7458701069	 2.5109440639	-1.1903907576	 0.235994
H	 0.4962706145	 5.2105627588	-0.4725514534	 0.116446
H	-0.4537307737	 4.2960158082	 0.7161582449	 0.102022
H	 1.6862679491	 6.2349068045	 1.4727703023	 0.107627
H	 1.1568777072	 4.9072029349	 2.523149547	 0.109119
H	 3.2049441141	 3.6771153078	 1.7808035035	 0.105978
H	 3.3436393168	 4.7469572895	 0.367791375	 0.110193
