18
gdb 60716	3.20758	1.08012	0.89165	2.65	78.75	-0.2356	-0.0578	0.1778	1325.0342	0.145773	-435.284983	-435.2747	-435.273755	-435.321637	35.223	
C	-0.4491967821	 1.4158901897	 0.0416081396	-0.341268
N	-0.0872333099	-0.0033530461	 0.027056881	-0.099819
C	 0.1579923366	-0.6433621603	 1.2392803772	 0.096805
N	 0.0461898321	-0.0321860838	 2.3498965957	-0.476104
C	 0.0007690508	-0.7262810825	-1.1514790525	 0.311546
N	 0.1506404801	-1.9980219231	-1.1504938466	-0.515339
C	 0.0247753954	 0.0808710753	-2.4518021153	 0.289571
C	-0.8941373794	-0.3831630239	-3.562681444	-0.487479
O	 0.781335545	 1.0150577871	-2.5748194356	-0.284238
H	 0.401654813	 2.0452896036	-0.2267849362	 0.153685
H	-1.2645565717	 1.6085018461	-0.6595061464	 0.123204
H	-0.7764084722	 1.6528589367	 1.0524414841	 0.171946
H	 0.4456823525	-1.6839972365	 1.0949185349	 0.147762
H	 0.2754274324	-0.6630326569	 3.1150891526	 0.230379
H	 0.2275833268	-2.3616590674	-2.0968139624	 0.225612
H	-1.936554651	-0.2655461026	-3.2432835241	 0.154149
H	-0.7112289196	 0.216153646	-4.4550020844	 0.152132
H	-0.7591733187	-1.4432473114	-3.7953031677	 0.147458
