21
gdb 113925	3.26092	0.7404	0.67575	2.5759	75.3	-0.2583	0.0605	0.3187	1718.4791	0.180156	-461.334593	-461.324191	-461.323247	-461.370966	37.613	
C	-0.1573709086	 1.5175489452	 0.0645018275	-0.402829
C	-0.3191279704	 0.0072628565	-0.0994670495	 0.140877
O	 0.9207582923	-0.6720380844	 0.0948961347	-0.429216
C	-1.415465937	-0.563390062	 0.8151641259	-0.258678
C	-1.6107357244	-2.049378127	 0.6188604821	 0.070766
O	-2.7426527236	-2.6616453011	 1.2486739402	-0.280787
C	-2.6722442221	-2.6761989066	-0.1890394017	 0.033451
C	-3.7921787834	-1.9483183436	-0.8894934229	-0.084977
O	-5.0148696826	-2.6523201945	-0.7439805388	-0.419115
H	 0.6479913269	 1.8819464195	-0.5786182093	 0.127549
H	-1.0789788538	 2.0478220676	-0.1956588185	 0.119913
H	 0.0903271947	 1.771469014	 1.1030785704	 0.109336
H	-0.5817487316	-0.2122531	-1.1419953181	 0.094349
H	 1.2482672308	-0.4367585896	 0.9706292939	 0.277955
H	-1.1290070396	-0.3876493957	 1.862596586	 0.098381
H	-2.3529304894	-0.0224647132	 0.6581569585	 0.107024
H	-0.6893661373	-2.6222174745	 0.7233029232	 0.102955
H	-2.4695804995	-3.6666457647	-0.6010111052	 0.098167
H	-3.8800791873	-0.9191485897	-0.5156831137	 0.089449
H	-3.5911902508	-1.8996700378	-1.9654998289	 0.112172
H	-5.1497074033	-2.7725446185	 0.2031233943	 0.293257
