19
gdb 106846	2.61881	1.24708	1.01233	4.1349	81.92	-0.2317	0.0056	0.2373	1244.0231	0.159682	-382.044502	-382.03562	-382.034675	-382.07834	33.136	
C	-0.2592508537	 1.5243946442	-0.0366842525	-0.376566
C	 0.1013493852	 0.0353676899	 0.0712889568	-0.28981
C	 0.7937864492	-0.4820226357	-1.1582330411	 0.263868
C	 0.0589039729	-0.9715591733	-2.3794510062	-0.344214
C	 1.0038166447	-1.9160633843	-1.6796809052	 0.187571
N	 2.3770095703	-1.6069527322	-2.1494839807	-0.365123
C	 2.2690963468	-0.2455026936	-1.5151943232	-0.220908
C	 0.6319666559	-3.1709605195	-1.1211456436	 0.183628
N	 0.3479522532	-4.1904249009	-0.6498226482	-0.353318
H	 0.6343892851	 2.1406409496	-0.1815078433	 0.12161
H	-0.9299005354	 1.7061671774	-0.882452091	 0.124253
H	-0.7585741181	 1.8709154275	 0.872701095	 0.120876
H	 0.7430762471	-0.126633509	 0.9464971712	 0.107143
H	-0.8070861263	-0.5540464822	 0.2436368778	 0.114213
H	-0.9974380627	-1.1667002842	-2.2253318078	 0.134698
H	 0.3365231332	-0.6476896705	-3.3785975886	 0.129503
H	 3.0598844853	-2.1741877938	-1.6568759261	 0.235867
H	 2.4943681454	 0.5754421631	-2.2035329718	 0.113887
H	 2.8899748419	-0.1453974927	-0.6189868214	 0.112824
