19
gdb 74215	2.17081	1.55065	0.94541	3.3446	81.43	-0.2378	-0.0491	0.1887	1241.1226	0.159396	-423.052486	-423.043814	-423.04287	-423.086231	32.27	
C	-0.5105967689	 1.3486550281	 0.1443321495	-0.463415
C	 0.112606188	-0.0226270323	 0.0525997322	 0.262686
C	 0.0555920782	-0.7057074441	-1.1038003484	-0.231347
C	 0.5037150447	-2.063633776	-1.4900495402	 0.353494
O	 0.2827223102	-2.4390895374	-2.6281052559	-0.329375
C	 1.2269578233	-3.0013978167	-0.5313595078	-0.297344
C	 0.9931217577	-2.7817443162	 0.9568812636	-0.11121
O	 1.5735705154	-1.5618610377	 1.386227615	-0.237129
C	 0.7157861426	-0.4554897496	 1.3686726078	-0.156209
H	 0.2539275918	 2.1113314731	 0.3391176956	 0.137848
H	-1.0375839136	 1.6151745076	-0.7732542785	 0.138147
H	-1.221916227	 1.4017913742	 0.9782133625	 0.133599
H	-0.4345831329	-0.2234546037	-1.9466757643	 0.09728
H	 0.9599234152	-4.0214441503	-0.8254011519	 0.122689
H	 2.3022099284	-2.889965322	-0.7227200672	 0.137844
H	-0.0782420201	-2.8122925498	 1.2065039617	 0.0979
H	 1.4865025297	-3.5774589139	 1.5250394998	 0.114199
H	 1.3047927988	 0.3801513286	 1.7672954241	 0.124443
H	-0.1230612414	-0.6000165823	 2.0774507724	 0.105901
