20
gdb 12145	5.48665	1.27567	1.26062	0.0002	80.09	-0.254	0.0866	0.3406	1066.2397	0.177152	-311.829618	-311.821936	-311.820991	-311.863009	30.317	
C	 0.3113181035	 1.5364639237	 0.007291963	-0.316821
C	 1.3893193791	 0.4751081792	-0.008761145	-0.320366
C	-0.0575592284	 0.082743819	 0.0030580694	 0.391269
C	-0.8052286004	-0.6776864998	 1.1134280878	-0.380486
C	-1.6135158469	-1.3845688093	 0.0101717834	 0.391269
C	-2.0900156238	-2.8060068148	 0.0071461058	-0.320366
C	-3.0863104809	-1.6675995107	 0.0228256584	-0.316821
C	-0.8265307402	-0.6658322965	-1.1007996888	-0.380486
H	 0.1621258149	 2.0998475404	 0.9234323422	 0.108608
H	 0.1445860002	 2.1096080875	-0.8997244612	 0.108608
H	 1.951344494	 0.3309437327	-0.9265482499	 0.108583
H	 1.9688827491	 0.3211840477	 0.8964473526	 0.108583
H	-0.1741998861	-1.34393559	 1.7119376133	 0.095964
H	-1.3930007644	-0.0511114985	 1.792869494	 0.096057
H	-1.983465104	-3.3796971933	-0.9085586053	 0.108583
H	-1.9659268508	-3.3894568792	 0.9144369994	 0.108583
H	-3.6355466345	-1.4814690092	 0.9407950044	 0.108608
H	-3.6530864365	-1.4717084591	-0.8823617966	 0.108608
H	-1.4272012334	-0.0320796537	-1.7620602418	 0.096057
H	-0.2072020654	-1.3255705711	-1.7184372377	 0.095964
