14
gdb 124013	3.76179	1.63834	1.15326	5.5665	71.51	-0.2227	-0.0477	0.175	974.6955	0.103964	-432.8377	-432.831158	-432.830214	-432.868753	25.384	
C	 0.0902501674	 1.4545039692	 0.3089981042	-0.21894
N	 1.1558240248	 2.1563215104	-0.4074095575	-0.414908
C	 2.1957190322	 1.4464964494	-0.9301737085	 0.364544
N	 3.3457980964	 1.8840317692	-1.3614324888	-0.221678
O	 3.9834926953	 0.7371878049	-1.8547685423	-0.170974
N	 3.2055761937	-0.3751987034	-1.7059329067	-0.186353
C	 2.1058344186	 0.0341671088	-1.1398524381	 0.31216
C	 0.9242036103	-0.6880414808	-0.7282671303	-0.152143
C	-0.0155837087	-0.0055767805	-0.0614607017	-0.071393
H	 0.223053293	 1.5261567896	 1.4038534626	 0.125273
H	-0.864729346	 1.9505519513	 0.0903267068	 0.131058
H	 1.3360193082	 3.1122562012	-0.1444498269	 0.259894
H	 0.8239469456	-1.7427862597	-0.9537762874	 0.12553
H	-0.9144835909	-0.5041951695	 0.2865509145	 0.11793
