18
gdb 93170	2.10162	1.92477	1.43034	2.3968	73.99	-0.2442	-0.0005	0.2437	990.2775	0.148948	-439.070377	-439.062494	-439.06155	-439.102573	30.762	
O	 0.1037609712	 1.40601561	 0.3372337467	-0.442816
C	 0.0642918479	 0.0079440966	 0.1189575861	 0.054472
C	-1.3514856212	-0.5995646301	 0.3059175524	-0.170926
N	-2.3696927764	-0.4804649262	-0.7245729897	-0.199477
C	-2.3479717667	 0.331348371	-1.6766516259	 0.090233
O	-1.4212200659	 1.3404456739	-1.8969860857	-0.250359
C	-0.4177868083	 1.032160318	-2.8724867069	-0.153395
C	 0.549000278	-0.0207309382	-2.4114976415	-0.062019
C	 0.7410307497	-0.4546661951	-1.1651870781	-0.065632
H	-0.4711939399	 1.7993602166	-0.3332605878	 0.290548
H	 0.6491422075	-0.4074430127	 0.9482605925	 0.088995
H	-1.2409207187	-1.6752428871	 0.4919442391	 0.115032
H	-1.7672159027	-0.1733695028	 1.2279723105	 0.131631
H	-3.1446344445	 0.3248296094	-2.4237863866	 0.121731
H	-0.8992844768	 0.7162975023	-3.8100513623	 0.11892
H	 0.0900900934	 1.9819380234	-3.0760245211	 0.138916
H	 1.1460125053	-0.4514454785	-3.213129515	 0.096795
H	 1.4748191982	-1.2461174405	-1.0298760768	 0.09735
