17
gdb 86767	3.33217	0.95091	0.80386	3.2806	74.37	-0.2606	-0.0443	0.2164	1403.4034	0.134822	-418.020292	-418.011132	-418.010188	-418.055209	32.374	
C	 0.0612757106	 1.638918689	 0.0377239404	-0.388708
C	 0.0055239474	 0.1200438615	 0.0724905785	-0.066126
N	 0.9242786986	-0.6014391939	-0.8579902085	-0.333736
C	 1.3913912597	-1.5419443411	 0.1857797263	-0.0918
C	 2.9107433788	-1.7254451242	 0.2982934241	-0.335619
C	 3.4457187512	-2.543035841	-0.7872933056	 0.25788
N	 3.8388471671	-3.1960898532	-1.6558342005	-0.302714
C	 0.7199948774	-0.614839783	 1.2198724624	 0.378399
O	 0.802575826	-0.4798546668	 2.4024363732	-0.288677
H	 1.095175409	 1.987236162	 0.1042820343	 0.128803
H	-0.3698266255	 2.0207720513	-0.8925413208	 0.12795
H	-0.5057410249	 2.0547709025	 0.8761312074	 0.135372
H	-1.0386715856	-0.2264798848	 0.0131969322	 0.102518
H	 0.4759749509	-1.0383885037	-1.6543409971	 0.235679
H	 0.9001174965	-2.5261214805	 0.1724236379	 0.115326
H	 3.3966237483	-0.7449686411	 0.2807478528	 0.159422
H	 3.1465088645	-2.1981854726	 1.258474993	 0.166032
