19
gdb 106632	2.65905	1.45172	1.28707	3.5282	70.84	-0.2431	0.0637	0.3067	1065.0251	0.159742	-460.13208	-460.123789	-460.122845	-460.164721	32.369	
O	 0.0248683088	 1.3761401678	-0.0453914796	-0.423177
C	 0.0350258334	-0.0404128996	-0.0369760119	-0.174129
C	-1.3570397468	-0.5953096486	 0.1069729845	 0.402711
C	-2.2826956334	-0.4305468331	 1.3417252081	-0.279073
C	-3.1202386412	-1.4913569662	 0.5648483015	-0.145452
C	-3.4539582438	-0.7059161173	-0.708005797	-0.070004
O	-2.1754289709	-0.0823306288	-0.9671254066	-0.324917
C	-1.733376293	-2.0956714091	 0.1456306597	 0.089468
O	-1.5924994395	-2.7877619718	-1.0629177262	-0.43444
H	-0.6504285381	 1.628274653	-0.6865007027	 0.293627
H	 0.4859381422	-0.450697282	-0.9540416973	 0.104694
H	 0.6521403694	-0.3527698863	 0.8115312629	 0.104055
H	-1.851349581	-0.8088083076	 2.2699472447	 0.103203
H	-2.7211838233	 0.5571499344	 1.4872376117	 0.111852
H	-3.9110081279	-2.0825108884	 1.0256946153	 0.070043
H	-3.7247950759	-1.3495598125	-1.5507978274	 0.108352
H	-4.2249373193	 0.0583389755	-0.5605409163	 0.098822
H	-1.2508239328	-2.6122957086	 0.9838000629	 0.076176
H	-1.8227167868	-3.7103163307	-0.9166278562	 0.288187
