25
gdb 118053	3.46926	0.68327	0.59941	0.3522	85.98	-0.2572	0.0722	0.3294	1933.4649	0.226133	-426.627837	-426.615908	-426.614964	-426.665511	42.79	
C	 0.0798050885	 1.5429284727	-0.1756609318	-0.391968
C	-0.0288789825	 0.0305651273	 0.0419616607	-0.171383
C	 0.6792140953	-0.487254406	 1.3105968912	 0.026259
C	-0.0639493944	-0.0608315675	 2.5856680934	-0.407889
C	 0.8684456501	-2.0196964236	 1.2278695644	 0.112716
O	 1.5739344873	-2.3847050098	 0.036621639	-0.431374
C	 1.5439408201	-2.6343143558	 2.4588634899	-0.204427
C	 1.7373173702	-4.1415632269	 2.3399167787	-0.073066
O	 2.3303850602	-4.5945771462	 3.5498134662	-0.424586
H	 1.1275809156	 1.8566424778	-0.248963104	 0.109843
H	-0.4181395543	 1.8389625248	-1.1044406255	 0.112331
H	-0.379517355	 2.1160088292	 0.6361816034	 0.114823
H	-1.0881029888	-0.2595527095	 0.0873128008	 0.087494
H	 0.3949524901	-0.4897751432	-0.8215760435	 0.11169
H	 1.6894827753	-0.0452446106	 1.3392489992	 0.054405
H	 0.5089959001	-0.272863197	 3.4916867296	 0.120177
H	-0.2706579874	 1.012864856	 2.5777933847	 0.115921
H	-1.0266095494	-0.5803377392	 2.6663774076	 0.113923
H	-0.1211647144	-2.48089177	 1.1000948248	 0.083906
H	 2.4548311108	-1.9966745151	 0.09487673	 0.275064
H	 2.5233021818	-2.1619891966	 2.6218309213	 0.091714
H	 0.9498434589	-2.4378448381	 3.3564937858	 0.112903
H	 0.7608587335	-4.6247994769	 2.1690875536	 0.0825
H	 2.3672166875	-4.3694335997	 1.4697899683	 0.094593
H	 2.502321341	-5.5365208159	 3.4628182123	 0.284433
