18
gdb 32995	5.04258	0.91969	0.78608	2.6043	85.16	-0.2108	-0.0317	0.1791	1448.2798	0.149769	-398.183833	-398.175374	-398.17443	-398.217771	30.884	
C	 0.0039796281	 1.5689148122	-0.0665137387	-0.408088
C	-0.0664428753	 0.0455798326	-0.0249925725	-0.108391
N	 0.7127957277	-0.5268221181	-1.1051466372	-0.361867
C	 0.822966653	-1.8636351901	-1.3597109791	 0.404047
C	 0.3699819754	-2.8587547201	-0.4615632822	-0.087348
N	 0.5153379845	-4.1505896397	-0.718049524	-0.227034
C	 1.1082804414	-4.4834257751	-1.8706581812	-0.042081
C	 1.543783523	-3.5068665564	-2.7587009179	-0.012271
N	 1.4068593062	-2.2041697583	-2.5193558428	-0.329383
H	 1.0385290206	 1.9143195319	 0.0221150386	 0.132758
H	-0.4081834679	 1.9554867848	-1.0050159822	 0.126141
H	-0.5733573818	 1.9996458761	 0.7552881064	 0.129828
H	 0.324808731	-0.312415902	 0.9365844846	 0.117452
H	-1.1170874484	-0.2811894851	-0.0780704676	 0.107598
H	 0.9460174369	 0.0632511192	-1.8892547448	 0.243876
H	-0.1140828279	-2.592146891	 0.4731173209	 0.102135
H	 1.2297240035	-5.540514531	-2.0848474692	 0.104683
H	 2.0182680999	-3.7802592201	-3.698632701	 0.107945
