20
gdb 105064	2.6975	1.26687	1.11796	1.962	74.53	-0.24	0.0641	0.3041	1181.3995	0.169757	-440.233271	-440.223751	-440.222807	-440.267381	36.093	
O	-0.1238622257	 1.4233346733	 0.3795471603	-0.430032
C	-0.0718045126	 0.0051330505	 0.4657840295	-0.159078
C	-1.4012438831	-0.5628065546	-0.0044315752	 0.245556
C	-2.645507352	 0.2061830464	 0.2629125369	-0.282475
N	-2.0919632414	 0.1148723314	-1.1054754482	-0.357791
C	-1.4295314214	-2.0687441649	-0.0260089817	 0.337913
O	-1.139147408	-2.6461327429	 1.2265717228	-0.463369
C	-2.3651430882	-2.8062391814	-0.943176001	-0.331966
C	-0.8692180914	-2.8174686219	-1.1965463368	-0.297568
H	 0.7346760222	 1.7735716796	 0.6308029937	 0.29499
H	 0.7288415561	-0.3996476149	-0.1729980244	 0.097782
H	 0.1217819945	-0.3331334085	 1.49230965	 0.10754
H	-3.5846049938	-0.3218335688	 0.4069294249	 0.107844
H	-2.553356723	 1.1539565737	 0.782536793	 0.127792
H	-1.5920314216	 0.9801503924	-1.3013041748	 0.242259
H	-1.8822179061	-2.4542206946	 1.8104432922	 0.280369
H	-2.8058616858	-3.71572201	-0.5503423447	 0.106429
H	-2.9841753642	-2.2209563001	-1.6122675192	 0.136817
H	-0.4983012005	-2.2408041554	-2.0364917321	 0.118547
H	-0.325601184	-3.7290114292	-0.9771891952	 0.118439
