14
gdb 25740	2.89933	1.57253	1.02171	6.5213	67.73	-0.2173	-0.0274	0.1899	1066.7915	0.103368	-470.084944	-470.077309	-470.076364	-470.117125	28.847	
N	 0.0574006381	 1.3510796686	 0.0661475054	-0.559165
C	 0.0261562727	-0.0256221877	 0.10481139	 0.358741
O	 1.0663477624	-0.6880229124	 0.1931108248	-0.418956
C	-1.2467412222	-0.7004421772	 0.0805018489	 0.073894
C	-1.4001007422	-2.0830613995	 0.0220211277	 0.358099
O	-0.4208033285	-2.9782241283	 0.0128450651	-0.402041
N	-2.7108218864	-2.438368847	-0.0339591369	-0.306511
C	-3.3698746149	-1.294517535	 0.0026938918	 0.023059
N	-2.5554181361	-0.21377339	 0.0542105766	-0.368464
H	 0.9795810656	 1.7367491255	-0.0782820529	 0.264377
H	-0.6854015045	 1.8408535956	-0.4077300296	 0.248873
H	 0.4040476627	-2.4498294829	 0.0951315805	 0.316727
H	-4.4458245827	-1.1998915254	-0.0049092281	 0.143559
H	-2.8504235941	 0.7345524359	 0.2135915067	 0.267807
