18
gdb 11949	3.50334	1.59915	1.3636	2.292	68.21	-0.2346	0.0619	0.2965	973.256	0.152614	-384.895382	-384.887074	-384.88613	-384.928204	30.786	
C	 0.019532027	 1.5485439592	 0.0086725288	-0.493172
C	 0.0544966643	 0.0494590016	 0.0642868738	 0.190715
C	 1.2560991273	-0.8010278513	-0.3182308565	-0.374881
C	 0.65081189	-0.9418167339	 1.0459840156	 0.418731
C	 1.3362779054	-0.8671826396	 2.3720846311	-0.171148
O	 1.9684356755	-2.0933160723	 2.710328521	-0.412173
O	-0.4928570845	-1.8128448861	 0.9727218212	-0.33916
C	-1.1668152085	-0.8683483181	 0.0976945903	-0.122592
H	 0.9933273355	 1.9772628536	 0.2653201145	 0.123831
H	-0.235616795	 1.9008471081	-0.9981446169	 0.125354
H	-0.7216792016	 1.9596735535	 0.7032402668	 0.120797
H	 1.1638445578	-1.6160767572	-1.0314815059	 0.111893
H	 2.19540493	-0.2571686622	-0.3592104882	 0.114395
H	 2.1233173755	-0.1069635155	 2.341728029	 0.111171
H	 0.609006971	-0.5716648928	 3.1441766164	 0.093386
H	 1.2880066802	-2.7750168709	 2.6774032311	 0.295021
H	-2.0311662119	-0.4235815317	 0.6062005074	 0.104601
H	-1.489705138	-1.3286009347	-0.8441636195	 0.103231
