23
gdb 82971	2.47483	1.77298	1.46001	0.1438	87.29	-0.2609	0.0747	0.3356	1044.4368	0.209092	-351.149529	-351.141794	-351.14085	-351.181851	31.892	
C	-0.3427895391	 1.559495381	 0.0377637383	-0.418962
C	 0.0216712554	 0.0832142059	-0.0222678116	 0.041713
C	 0.6089225549	-0.5383250646	-1.3147932556	-0.042463
C	 1.8206268271	 0.2055734799	-1.945610918	-0.250575
C	 2.8184024616	-0.6146005884	-1.0638412223	-0.001005
C	 3.516058207	 0.130904611	 0.0772802604	-0.213231
C	 2.4121498148	 0.4285783488	 1.1277280774	-0.231842
C	 1.2207840968	-0.5085463561	 0.8067092997	-0.039645
C	 1.611771918	-1.3678257896	-0.4410718042	-0.03959
H	 0.4850720088	 2.2102865185	-0.2599994961	 0.116551
H	-1.1825838533	 1.7751659031	-0.6327344717	 0.110675
H	-0.6439080392	 1.852469258	 1.0501613044	 0.111641
H	-0.8675731769	-0.5012572632	 0.2419813434	 0.068444
H	-0.0999302597	-0.9785281805	-2.0184759684	 0.053855
H	 1.9309646843	-0.0082280397	-3.0115849317	 0.097632
H	 1.8482993373	 1.2928698562	-1.8209742546	 0.089074
H	 3.5113361447	-1.2187138571	-1.6540955661	 0.059498
H	 4.2834195802	-0.5181212673	 0.5157627608	 0.092469
H	 4.0271918781	 1.0372322707	-0.265402245	 0.091619
H	 2.7838493458	 0.2556436478	 2.1419154769	 0.094058
H	 2.1067635143	 1.4786891434	 1.0947370797	 0.09829
H	 0.8957964723	-1.0595106915	 1.6915301265	 0.060279
H	 1.6125712869	-2.4546161264	-0.360162682	 0.051514
