20
gdb 120174	4.98317	0.78334	0.75999	2.0282	81.13	-0.2475	0.0024	0.25	1565.3221	0.170966	-403.096821	-403.088016	-403.087072	-403.13091	32.796	
C	 0.0310601936	 1.5664447896	 0.0287288708	-0.379924
C	-0.0272865616	 0.0393969761	 0.1213358811	-0.164269
C	-1.4320160107	-0.5185620255	-0.1442842107	-0.219417
C	-1.4784902788	-2.0402950251	-0.0992875509	 0.043034
C	-1.4858453263	-2.7630650374	 1.289290263	-0.166709
N	-2.9243223686	-2.2683865387	 1.4420302104	-0.31417
C	-2.8669440341	-2.7505250843	-0.0087623151	-0.183422
C	-2.1152503876	-3.9739806261	 0.5630260392	 0.439812
O	-2.1474767148	-5.1649243755	 0.5859772148	-0.326899
H	 1.0409561093	 1.9400490224	 0.2240277074	 0.112484
H	-0.2661305011	 1.9138749371	-0.967043665	 0.11449
H	-0.6438947772	 2.0320758961	 0.7551964554	 0.117428
H	 0.6827908389	-0.39875509	-0.5928806034	 0.0942
H	 0.3074279347	-0.2800110238	 1.1167165148	 0.098168
H	-2.1418559647	-0.1072532809	 0.5784391871	 0.123673
H	-1.7658847619	-0.1929961886	-1.138968649	 0.094464
H	-0.7942217649	-2.485573747	-0.828102336	 0.085325
H	-0.7663482784	-2.7039076338	 2.1038130288	 0.100372
H	-3.4732997419	-2.9103478819	 2.0207717565	 0.231954
H	-3.7228473239	-2.6716878324	-0.676883649	 0.099406
