20
gdb 78670	2.61999	1.59677	1.23846	2.6751	79.02	-0.2317	0.0707	0.3024	1096.9474	0.17017	-403.091534	-403.082899	-403.081954	-403.124102	33.735	
C	-0.1850615389	 1.4101315536	 0.0490570297	-0.408462
C	 0.0043754177	-0.0843937549	-0.1286985155	 0.092597
C	 0.9122832854	-0.5193320361	-1.2933046875	-0.158233
C	 2.0745307051	-0.5203489184	-0.2366058753	-0.1132
N	 1.0418755715	-0.6075571782	 0.8355066494	-0.192552
C	 1.5881546083	-1.8583114669	 0.2001964888	 0.321519
C	 2.1950970502	-2.8922517657	 1.0942469016	-0.508279
C	 0.9134727091	-2.0695634428	-1.1480585153	 0.078914
O	-0.3034016175	-2.7798126845	-1.1286159148	-0.43734
H	 0.767011649	 1.9449483506	-0.0321246841	 0.115667
H	-0.8651798265	 1.8037700756	-0.7138876888	 0.109418
H	-0.6118995711	 1.6272327715	 1.0329649055	 0.124995
H	-0.9515672195	-0.614116405	-0.0569799044	 0.0823
H	 0.893889546	-0.0429012922	-2.273222078	 0.063063
H	 3.0322467378	-0.0264582401	-0.1436314066	 0.094884
H	 2.7219306493	-2.4175732451	 1.9260298094	 0.131902
H	 1.4196472646	-3.5428248186	 1.5120392191	 0.135009
H	 2.9041256558	-3.5202704039	 0.5439171862	 0.114182
H	 1.6324394064	-2.5221970782	-1.8455549989	 0.070015
H	-0.5872711027	-2.9286291407	-2.0360524603	 0.283603
