18
gdb 11602	6.12173	0.9056	0.81774	3.6192	69.73	-0.2402	0.0604	0.3006	1382.9077	0.154546	-381.149345	-381.140592	-381.139648	-381.184028	31.692	
N	-0.0668319999	 1.284329619	-0.3523906048	-0.566055
C	 0.000664381	-0.0136587217	 0.1524366478	 0.4513
O	 0.9140667248	-0.3932914514	 0.8616814043	-0.391545
N	-1.0444308748	-0.81668052	-0.2430050565	-0.34081
C	-1.0371368418	-2.244470892	 0.0372149411	-0.156817
C	-2.4414565364	-2.7806965886	 0.1800816981	 0.017753
C	-3.2290546898	-3.1780069061	-1.0481459367	-0.267463
C	-2.7202246442	-4.2333203683	-0.0976090503	-0.269371
H	 0.5670781796	 1.9057734894	 0.1277004952	 0.258273
H	-0.9864657251	 1.6775442427	-0.4904079677	 0.244031
H	-1.5977791254	-0.5170511641	-1.0306804776	 0.236795
H	-0.509353316	-2.8042770283	-0.7510769335	 0.09547
H	-0.4611611132	-2.3768960494	 0.9560481237	 0.144844
H	-3.0102903198	-2.3233397796	 0.9848758154	 0.089286
H	-4.2934863218	-2.9727479642	-1.0704079917	 0.113148
H	-2.7404618792	-3.0972113548	-2.0145189611	 0.109142
H	-1.8934928047	-4.8540144029	-0.4273367669	 0.116105
H	-3.4353849733	-4.7480917097	 0.5336832311	 0.115913
