19
gdb 54992	3.54469	1.14471	0.99826	3.0799	77.16	-0.2429	0.0433	0.2862	1237.3626	0.159788	-419.211684	-419.202989	-419.202045	-419.245318	33.034	
N	-0.3814424952	 1.3252781017	-0.3278921022	-0.533487
C	-0.0978475437	 0.008735185	-0.0316247444	 0.398214
O	 0.9634783825	-0.5208650896	-0.2899961304	-0.371138
N	-1.146499851	-0.6487614406	 0.6288415474	-0.169018
C	-2.5003108358	-0.7725408398	 0.0876900245	-0.329438
C	-1.6018008983	-1.957606559	 0.2363931495	 0.37694
C	-1.0841453744	-2.8517938105	-0.8985851627	-0.295452
C	-1.6133518662	-4.0753106118	-0.0917182032	-0.213926
C	-1.7684807545	-3.1642553604	 1.1638826634	-0.301965
H	 0.4260952461	 1.8884309104	-0.5440742771	 0.262034
H	-1.1124244212	 1.7827684949	 0.1932238653	 0.258464
H	-3.3084021137	-0.5997446952	 0.7952695326	 0.117216
H	-2.6778595057	-0.396135597	-0.9180403642	 0.127449
H	-1.5005952247	-2.6842547338	-1.8948983908	 0.099835
H	 0.0050688742	-2.8161072089	-0.9581975117	 0.144648
H	-2.5753514638	-4.4354504952	-0.4640763758	 0.103742
H	-0.9356871643	-4.924995112	 0.0044259857	 0.105722
H	-0.9260723744	-3.2538745819	 1.8550427154	 0.119593
H	-2.7004685459	-3.2358144162	 1.7300549986	 0.100566
