19
gdb 126608	5.10024	0.7813	0.7245	0.879	79.31	-0.2057	0.0256	0.2314	1598.1923	0.159824	-419.226535	-419.217288	-419.216344	-419.261543	33.42	
C	 0.0355440171	 1.4829029948	-0.1214189478	-0.381127
C	 0.2243500016	-0.035402094	-0.0928491627	-0.169041
C	 0.5560855439	-0.5490285188	 1.3130333941	-0.142218
N	 0.7141464107	-1.9912065277	 1.3674466645	 0.063107
C	 1.8731956976	-2.7030569194	 1.2772176432	-0.120232
C	 1.5066874893	-4.0344134372	 1.2818264759	 0.214666
O	 2.3724425721	-5.0851789733	 1.2205215082	-0.444661
C	 0.1002676533	-4.0249983335	 1.371751287	-0.117224
N	-0.3705016995	-2.7762378913	 1.4193740243	-0.262661
H	 0.9419868809	 2.0056219316	 0.2043792857	 0.115154
H	-0.2022228945	 1.8300150669	-1.130926319	 0.120395
H	-0.7816433641	 1.7946361183	 0.5383253108	 0.120715
H	-0.6847714537	-0.5406180521	-0.4352849626	 0.12552
H	 1.0275653531	-0.3304154943	-0.7785596658	 0.104556
H	 1.4841474096	-0.0985909425	 1.6799824175	 0.114819
H	-0.2435626688	-0.2851159165	 2.0113122792	 0.129637
H	 2.8402452201	-2.2310125939	 1.227779089	 0.128137
H	 1.8649512958	-5.9014834185	 1.2475581748	 0.299276
H	-0.5794780445	-4.8644758785	 1.413766654	 0.101182
