18
gdb 89293	2.1849	1.73682	1.13716	4.8135	72.82	-0.225	0.0055	0.2305	1113.809	0.146367	-439.080611	-439.072092	-439.071147	-439.113627	31.853	
C	-0.0562849121	 1.5456874695	 0.10512662	-0.329506
N	 0.0940437381	 0.1082626139	 0.1574728127	-0.075361
C	-1.1170915197	-0.7182220422	 0.3721508022	-0.226141
C	-0.3851575665	-1.5156208128	 1.4729766327	 0.43292
C	-1.0835421819	-1.9874285886	 2.7156920119	-0.476492
O	 0.5011692365	-2.5481654398	 0.9112116316	-0.298349
C	 1.5892879531	-1.6966456259	 0.8815246666	 0.487991
O	 2.7021710618	-1.9570675878	 0.5621615801	-0.329028
C	 0.7653744686	-0.4859754578	 1.3406129887	-0.269737
H	 0.9291281361	 2.0173738623	 0.042949593	 0.134403
H	-0.6138117843	 1.8190706521	-0.796431404	 0.131505
H	-0.589615485	 1.9698151509	 0.9773370517	 0.091209
H	-1.960398003	-0.1469712116	 0.7884213482	 0.098506
H	-1.4540839083	-1.281067747	-0.5036438883	 0.121909
H	-1.7816265055	-2.7966389331	 2.4757815778	 0.141492
H	-0.3625535152	-2.3670100928	 3.445094658	 0.137298
H	-1.6502497527	-1.1716793292	 3.1733341094	 0.128207
H	 1.1420891301	 0.1855905099	 2.1135517976	 0.099173
