14
gdb 42581	3.1119	2.15693	1.66527	2.8711	63.31	-0.2425	-0.039	0.2034	794.4328	0.103138	-436.626608	-436.620948	-436.620003	-436.656567	23.323	
O	 0.0126826749	 0.040508022	 0.0856792545	-0.323341
C	 0.0094897844	 1.2411804364	 0.0332223517	 0.485994
C	-1.1810588755	 2.1513289815	 0.0092698566	-0.189684
C	-1.028452084	 3.5035326211	 0.6409695687	-0.050772
C	 0.4591418954	 3.8701259057	 0.8135354583	 0.096425
O	 1.3063622912	 2.7997255202	 1.2716975644	-0.303549
C	 1.2113548542	 2.1865725261	-0.0560091884	-0.054483
C	 0.6127615417	 3.4800255534	-0.6599239916	-0.059622
N	-0.9061153357	 3.3363775994	-0.8476881895	-0.157367
H	-2.173291383	 1.724121391	-0.0723756936	 0.124092
H	-1.8814684373	 4.0012575988	 1.0908323521	 0.111551
H	 0.6870063846	 4.8356590424	 1.2645210703	 0.104938
H	 2.1475260808	 1.7465487347	-0.3969845044	 0.107819
H	 1.1184690881	 4.0428054173	-1.4382721791	 0.107999
