15
gdb 24784	2.5695	2.05705	1.15929	3.095	74.41	-0.2383	-0.0365	0.2018	989.376	0.116045	-416.86436	-416.857662	-416.856718	-416.895533	25.81	
O	 0.0698258143	-0.1184939558	 0.0010187684	-0.387357
C	-0.0165439889	 1.0931832897	 0.0089935028	 0.395953
C	-1.2101286286	 1.9333061407	 0.030106482	-0.234862
C	-1.1417516907	 3.2971661833	 0.0365019421	-0.009607
N	 0.0206917316	 4.0477271397	 0.0243125016	-0.380188
C	 1.0688239688	 3.2970774413	 0.005623279	 0.452783
C	 2.5809935163	 3.4190609024	-0.014960288	-0.375009
C	 2.5734492724	 1.8458758914	-0.0233898896	-0.176247
N	 1.1041805256	 1.9398507499	-0.002099987	-0.113465
H	-2.1658700012	 1.424064574	 0.0406339499	 0.119387
H	-2.057919738	 3.8810763432	 0.0524084811	 0.118695
H	 2.9943060124	 3.8878712364	-0.909531562	 0.148794
H	 3.0193811657	 3.8782199578	 0.8726533561	 0.148797
H	 2.9620777505	 1.3709372194	-0.9260859709	 0.146166
H	 2.9873775898	 1.3612330568	 0.8627492845	 0.146159
