16
gdb 85019	2.39998	1.61189	1.04194	3.9946	65.97	-0.2537	-0.0406	0.2131	1111.4468	0.123328	-475.077607	-475.068943	-475.067999	-475.111138	31.749	
C	-0.263140633	 1.5504373959	-0.0400596385	-0.397169
C	 0.055264507	 0.0599444593	 0.026725662	-0.077479
N	 0.8298876852	-0.439480294	-1.1099480168	-0.32961
C	 1.961989425	-1.1235447413	-0.7883480398	 0.375838
O	 2.8685079215	-1.4641762761	-1.5184652913	-0.383598
C	 1.9245298271	-1.3905524512	 0.7197182294	-0.055891
O	 3.1853897643	-1.4322069607	 1.302975887	-0.420766
C	 0.9850082411	-0.293254513	 1.2156827056	 0.361008
O	 0.9637227189	 0.2407322699	 2.2873991326	-0.286688
H	 0.6499756454	 2.1368508334	-0.1757896393	 0.136299
H	-0.9486697169	 1.7701609436	-0.8639244748	 0.122174
H	-0.733720425	 1.8595156153	 0.8960557524	 0.154098
H	-0.8794385576	-0.5094985026	 0.1417877953	 0.11846
H	 0.6618177349	-0.1398533401	-2.0589266236	 0.260179
H	 1.3697461522	-2.3412232241	 0.8562544924	 0.121681
H	 3.7970157802	-1.6317826244	 0.5778017573	 0.301466
