15
gdb 30603	4.55408	1.08146	0.87878	2.7836	71.34	-0.2517	-0.0411	0.2106	1264.6379	0.11383	-454.007324	-453.999091	-453.998147	-454.041118	28.681	
C	 0.0151862912	 1.4178595434	 0.058182001	-0.335464
N	-0.0912826257	-0.0252512808	 0.0809185838	-0.318139
C	-1.2664029287	-0.6728092692	-0.1284495556	 0.320224
O	-2.3400313772	-0.1455777701	-0.3532505763	-0.37511
C	-1.1063368242	-2.1554735792	-0.0528093376	 0.333503
N	-0.0188776251	-2.830758396	 0.1791219679	-0.320955
C	-0.4169841112	-4.1547864712	 0.1413636302	-0.115902
C	-1.7485041563	-4.2007090957	-0.1164404207	-0.03202
O	-2.1992762778	-2.9243215961	-0.242479885	-0.146694
H	 0.7035131029	 1.7533412074	-0.7255047596	 0.130191
H	-0.9788944186	 1.8176531865	-0.145934085	 0.171523
H	 0.3660001674	 1.805731744	 1.0209867878	 0.130183
H	 0.7213126728	-0.5970135435	 0.2561675873	 0.266874
H	 0.2741347136	-4.9668833037	 0.3002570461	 0.133965
H	-2.4769993531	-4.984072656	-0.2347406443	 0.15782
