16
gdb 4202	4.24334	1.60547	1.55448	0.1657	68.44	-0.2293	0.0196	0.2489	875.3666	0.132802	-379.842434	-379.835706	-379.834762	-379.873241	26.363	
O	-0.1001576192	 1.3706726012	 0.0936226979	-0.403195
N	 0.0638417675	-0.0361885556	 0.0304261169	-0.309731
C	-1.0509417762	-0.6135496261	-0.1097670324	 0.473569
C	-2.5426640266	-0.3246810146	-0.0286630778	-0.102515
C	-3.0759166194	-0.9221900383	-1.3449285436	-0.196508
C	-2.2627972844	-2.263165316	-1.3428540033	-0.197806
C	-1.4886294648	-2.0617730398	-0.0258082788	-0.095894
N	-2.6211245371	-1.5597679913	 0.8672570603	-0.326389
H	 0.8093643925	 1.6701960901	 0.1958805365	 0.30486
H	-2.9522002992	 0.6124013589	 0.3401606982	 0.094812
H	-4.153558435	-1.0880197701	-1.2902375388	 0.11277
H	-2.8561093004	-0.2879733817	-2.2064726794	 0.110406
H	-2.9072603618	-3.1426402133	-1.2888945136	 0.112335
H	-1.5958651327	-2.3617853393	-2.2021818154	 0.109193
H	-0.8498186981	-2.8604464619	 0.3458054609	 0.087263
H	-2.2045378851	-1.305723622	 1.7646097924	 0.226832
