25
gdb 113381	2.39338	1.04453	0.83528	0.979	89.97	-0.2426	0.0817	0.3243	1545.7076	0.226341	-389.478188	-389.466996	-389.466052	-389.51445	40.98	
C	-0.0892762934	 1.5338492585	-0.1563736554	-0.37022
C	-0.0644727804	 0.0815314524	 0.3366192803	-0.214344
C	-1.414924904	-0.5918235173	 0.203186874	-0.031131
C	-1.8767075641	-1.2014493988	-1.1105729101	-0.365494
C	-1.6272904127	-2.0768737729	 0.0977762642	 0.421042
C	-0.4752899517	-3.0658268041	 0.115433541	-0.250496
C	-0.0192285468	-3.427092152	 1.5339794872	-0.378289
O	-2.7712840694	-2.5029427861	 0.8010671193	-0.286831
C	-3.4962488808	-3.545529778	 0.1794625242	-0.2471
H	 0.8926538642	 2.0058929476	-0.0518937115	 0.108324
H	-0.3794657088	 1.5847218592	-1.2110019287	 0.117803
H	-0.8096334843	 2.1309992808	 0.4133281387	 0.114909
H	 0.6937818553	-0.475707907	-0.2255771957	 0.094265
H	 0.2550830369	 0.0593506512	 1.3865940589	 0.100618
H	-2.2095903412	-0.1023317384	 0.7615284814	 0.090474
H	-2.9042786109	-1.0362438896	-1.4148926373	 0.111001
H	-1.1641932958	-1.2479436947	-1.9293258034	 0.104232
H	-0.77582364	-3.9762881673	-0.4190609326	 0.094385
H	 0.3610978536	-2.6533324868	-0.4576806	 0.097449
H	-0.8571321662	-3.8097552391	 2.1229489253	 0.128889
H	 0.7641781114	-4.1908391631	 1.5134103541	 0.105606
H	 0.3772642951	-2.5507448405	 2.056610718	 0.118958
H	-4.4102371038	-3.6853177093	 0.7622724715	 0.123697
H	-3.7677094538	-3.2917676574	-0.8551221796	 0.105292
H	-2.9431719289	-4.4953316775	 0.1686890363	 0.106961
