21
gdb 58096	2.19845	1.31786	1.19754	2.2656	74.47	-0.2395	-0.0125	0.227	1197.8663	0.177653	-461.388758	-461.377663	-461.376719	-461.424594	40.728	
C	-0.1065974581	 1.5885514462	 0.0849360817	-0.436886
C	 0.0306958628	 0.069532701	 0.0124601838	 0.123718
O	 0.8563448167	-0.3167155508	-1.0938715103	-0.460685
C	 0.7440860951	-0.5449943703	 1.2440628589	 0.265895
C	 0.7264838564	-2.0839422391	 1.1667763919	-0.430417
O	 2.0795911912	-0.0619148401	 1.2980051803	-0.482899
C	 0.0174632253	-0.1314813481	 2.5342101567	 0.363954
C	 0.8532599231	 0.4243090879	 3.6634992261	-0.474626
O	-1.1818786639	-0.2817358345	 2.6183445247	-0.329037
H	 0.8678259357	 2.0524838248	 0.2603669989	 0.129565
H	-0.5171440792	 1.9798584996	-0.8532717089	 0.104631
H	-0.7915780224	 1.879563667	 0.8854075247	 0.142336
H	-0.96182604	-0.3898541473	-0.0729505833	 0.091929
H	 0.6031798208	 0.2099026244	-1.8575471173	 0.288858
H	 1.1689326304	-2.4110511107	 0.2229090269	 0.132549
H	 1.3083060016	-2.5056630822	 1.9912223399	 0.118866
H	-0.2985667642	-2.4581468736	 1.2290938539	 0.133186
H	 2.4137647082	-0.1426670123	 0.3947144648	 0.286694
H	 1.6632547815	-0.2675549364	 3.9149906534	 0.149003
H	 1.3404849464	 1.349832413	 3.3416284868	 0.15197
H	 0.2182395826	 0.6056398715	 4.5311954666	 0.131395
