16
gdb 20012	4.56777	1.24814	1.10204	3.3681	67.57	-0.2515	-0.0011	0.2505	1070.3378	0.130704	-379.878697	-379.871023	-379.870079	-379.911414	27.395	
O	 0.1578374609	 0.2479621279	-0.54197245	-0.287183
C	 0.1440831393	 1.377753158	-0.1193332713	 0.140593
N	 1.1959846784	 1.986303045	 0.5446660909	-0.064323
C	 2.5855458644	 1.850993914	 0.181240258	-0.251285
C	 1.899853892	 3.1925571956	 0.1409389762	-0.041494
C	 1.5967388337	 3.8457617204	-1.1689943711	 0.011792
C	 0.9393437693	 5.1781304666	-1.1964118237	-0.246318
N	 2.3537261526	 5.0376136984	-1.5774084182	-0.315573
H	-0.7489054045	 2.0304419083	-0.1527148057	 0.088725
H	 3.2721654149	 1.6181792325	 0.9901846369	 0.131391
H	 2.7997785843	 1.3643721735	-0.767248258	 0.143096
H	 2.0969013507	 3.8904426633	 0.9561549004	 0.098407
H	 1.4014000787	 3.1496848045	-1.98353302	 0.110315
H	 0.2688086683	 5.4371982279	-2.0104032386	 0.129834
H	 0.6966273778	 5.6410852256	-0.24282174	 0.11736
H	 2.9564224693	 5.3488953584	-0.8182673759	 0.234662
