19
gdb 83008	2.56461	1.79317	1.59181	3.0569	73.25	-0.2322	0.0652	0.2974	943.3821	0.161575	-422.990231	-422.982943	-422.981998	-423.021674	29.493	
O	-0.0884387657	 1.5332619773	 0.2006341613	-0.402752
C	-0.0637831457	 0.1416189856	 0.071815536	 0.098853
C	-0.4441886531	-0.7552407399	 1.2171000689	-0.110207
C	-1.1609297031	-0.1025605882	 2.4055048191	-0.254345
C	-2.5582729219	 0.329833944	 1.9093070566	-0.067688
C	-2.8206399554	 1.7661679914	 1.3997776884	-0.072358
O	-2.971013448	 1.3087929651	 0.0383144283	-0.290261
C	-2.6766392535	-0.0550248398	 0.4147173675	 0.128005
C	-1.343863788	-0.6429517899	-0.0205010755	-0.107719
H	 0.7020090278	 1.7896330566	 0.6881498199	 0.287168
H	 0.7305500728	-0.2245324637	-0.5798438503	 0.087247
H	 0.1530524915	-1.6415651997	 1.4047313823	 0.083119
H	-1.2482155552	-0.8293450936	 3.2182510757	 0.10163
H	-0.5955657273	 0.7488228829	 2.8028703206	 0.094022
H	-3.352213243	-0.0491352287	 2.555046813	 0.077353
H	-3.7435500861	 2.2296116467	 1.7690532625	 0.090473
H	-1.9860775762	 2.4663219861	 1.5036371673	 0.100766
H	-3.4955773707	-0.7222529015	 0.1212678312	 0.071896
H	-1.3666816891	-1.4321996307	-0.7639396027	 0.084797
