22
gdb 114520	2.94395	1.18873	1.00005	1.993	83.37	-0.2117	0.0794	0.2911	1301.6199	0.193522	-404.305703	-404.296583	-404.295639	-404.339595	34.574	
C	-0.1471336727	 1.5210819082	 0.016813044	-0.381433
C	 0.125022904	 0.0303079069	-0.1729627609	-0.123929
N	 0.6945118461	-0.5621608816	 1.0216485675	-0.067496
C	 2.1069879661	-0.2434240265	 1.3584574097	-0.195883
C	 2.3748924146	-1.7386525384	 1.6114522931	 0.107074
O	 1.9608126053	-2.2069457391	 2.9067105398	-0.32292
C	 0.6811093502	-2.6859123519	 2.3873831452	 0.157342
C	-0.5020931348	-2.2398091386	 3.2135640143	-0.405365
C	 0.9728840063	-2.0145076106	 1.0238663254	-0.075636
H	 0.7789299095	 2.0657797561	 0.2293653458	 0.119983
H	-0.5863861814	 1.9525839576	-0.8877773864	 0.112364
H	-0.8325247686	 1.6824449028	 0.8537069112	 0.124942
H	-0.8142878976	-0.4928227797	-0.3899277118	 0.101043
H	 0.7794716647	-0.1129945171	-1.0572477983	 0.069762
H	 2.6790971564	 0.1325794415	 0.4946409626	 0.086794
H	 2.2431865632	 0.431481282	 2.2091592154	 0.110739
H	 3.3223072164	-2.1710203178	 1.2835214012	 0.080477
H	 0.714704489	-3.7824145819	 2.305119036	 0.068869
H	-0.5909328569	-1.151976886	 3.1804488336	 0.133092
H	-1.4261280439	-2.6846439631	 2.8274501036	 0.108892
H	-0.3780751906	-2.5619930294	 4.2520622122	 0.123282
H	 0.7534939645	-2.5543272734	 0.0996295567	 0.068005
