24
gdb 7386	3.41139	0.99825	0.81405	1.3	81.97	-0.2611	0.08	0.3412	1475.5167	0.221216	-351.410348	-351.399454	-351.39851	-351.446746	39.116	
C	 0.0614848706	 1.5443362308	 0.0179701661	-0.398989
C	-0.0003904067	 0.0074875352	 0.024279235	 0.053652
C	 0.7958592224	-0.5207098184	 1.2295925441	-0.397913
C	-1.4599185021	-0.5248455665	-0.0082361857	 0.038288
C	-2.2457824318	 0.0322831576	-1.2081084014	-0.40568
C	-1.5021638733	-2.0654628927	 0.0112059419	-0.174261
C	-2.9005952518	-2.6729306128	 0.0678165758	-0.086037
O	-2.746476255	-4.0644794546	 0.3179875736	-0.422812
H	 1.0988869671	 1.8853038347	 0.0972095702	 0.108339
H	-0.3547041584	 1.9795817968	-0.8935567467	 0.113608
H	-0.4874886714	 1.9624457293	 0.8709305242	 0.109071
H	 0.4973015716	-0.350669662	-0.8898624826	 0.068031
H	 0.294564262	-0.2671123522	 2.1719061803	 0.109279
H	 0.931868183	-1.6040989207	 1.2040987926	 0.119395
H	 1.7924771283	-0.0682023644	 1.2561080262	 0.107033
H	-1.9521070027	-0.1672080824	 0.9104659213	 0.064414
H	-3.278574118	-0.3270192246	-1.2129217754	 0.112312
H	-2.2899155003	 1.1234783735	-1.1975445089	 0.114788
H	-1.7844608106	-0.2759644981	-2.154554725	 0.110775
H	-0.9797404601	-2.464804793	-0.8684861121	 0.096346
H	-0.9699748393	-2.4461956806	 0.8872953355	 0.109894
H	-3.4832118318	-2.1882428682	 0.8699551978	 0.081088
H	-3.4420795461	-2.5064806164	-0.874755333	 0.086048
H	-3.6176282054	-4.4708276304	 0.2956309763	 0.283332
