21
gdb 112573	3.67909	0.94776	0.9123	2.3769	81.54	-0.248	0.0144	0.2623	1402.4656	0.180663	-424.226357	-424.216645	-424.215701	-424.260858	36.471	
C	 0.1376791612	 1.3387384962	 0.1268887339	-0.237164
O	 0.0299547939	-0.0425810956	-0.1210274818	-0.242463
C	-1.2934822552	-0.5475930727	-0.0204147559	 0.10069
C	-1.3499814576	-1.9488891975	-0.6576990448	-0.288132
C	-2.2797477388	-2.8032977876	 0.2352765252	 0.368131
C	-3.6890957827	-2.9718500206	-0.3491289069	-0.440189
O	-1.6668459239	-4.0871543497	 0.393211368	-0.471147
C	-2.2964303334	-2.0104063876	 1.5299646365	-0.118473
C	-1.7673728059	-0.7980704519	 1.3968737623	-0.103946
H	 1.1819083056	 1.6164907025	-0.0372411524	 0.127353
H	-0.4970365173	 1.9257954902	-0.5564765141	 0.10185
H	-0.1344649685	 1.6066659283	 1.1591849397	 0.103441
H	-1.9736187359	 0.1567220749	-0.5317928433	 0.063729
H	-1.6584182507	-1.9326503633	-1.7054138454	 0.095181
H	-0.3461366927	-2.3758150968	-0.6012612947	 0.135399
H	-3.643475304	-3.5550585434	-1.2740718383	 0.124701
H	-4.344999976	-3.4966463256	 0.3567885225	 0.102999
H	-4.1484937027	-2.0024243782	-0.5653431082	 0.120757
H	-2.2911390622	-4.6608399244	 0.8505539891	 0.272279
H	-2.7293237538	-2.4198867547	 2.4381751462	 0.087872
H	-1.6940348295	-0.0501899727	 2.1786809622	 0.097132
