16
gdb 45124	2.55828	1.74375	1.21032	6.0507	68.88	-0.2353	-0.0755	0.1598	1009.7556	0.125115	-437.896302	-437.888766	-437.887822	-437.928933	28.598	
O	-0.1857837648	-0.0146696003	-0.2024180201	-0.275056
C	-0.0940429948	 1.1642877513	 0.0142151536	 0.319799
C	-1.2655437104	 2.1262371662	-0.147081255	-0.335042
C	-1.212668883	 3.2820145342	 0.8256086552	-0.030865
N	-0.6381050529	 2.9606233352	 2.1436178121	-0.333993
C	 0.0990730273	 3.8487632402	 1.2280623673	-0.030859
C	 1.3744912599	 3.2668996181	 0.6628989837	-0.33503
C	 1.288398019	 1.7616301971	 0.4383873016	 0.319817
O	 2.2391603065	 1.0331025468	 0.5415504218	-0.275089
H	-1.2410552523	 2.5066175193	-1.179323864	 0.13168
H	-2.1887861216	 1.548326127	-0.0455834709	 0.140152
H	-2.0606782261	 3.9620197736	 0.7925689165	 0.095536
H	-1.0917034897	 3.482331815	 2.8873035876	 0.241583
H	 0.1323452163	 4.9095276296	 1.4653550074	 0.09553
H	 1.5987077453	 3.7335986237	-0.3080562052	 0.131681
H	 2.2342034213	 3.4593170629	 1.3113838283	 0.140153
