20
gdb 19532	3.38731	1.52333	1.44966	1.9058	73.6	-0.2532	0.0685	0.3217	984.3293	0.179421	-348.998102	-348.990246	-348.989302	-349.030565	29.939	
O	 0.7714639268	 0.0360629006	 1.2738897416	-0.42158
C	 0.2445087641	-0.0867180213	-0.0433493573	-0.090584
C	-1.1859062811	-0.5748843371	-0.0285047024	-0.035642
C	-1.943111486	-1.1902940808	-1.184599498	-0.067081
C	-1.2043432877	-1.7661316716	-2.3877350727	-0.214701
C	-0.1913250067	-2.8011678463	-1.8305461659	-0.21958
C	-0.655274434	-3.1378805229	-0.3873137116	-0.216313
C	-1.6157401033	-2.0297952086	 0.0336565807	-0.063756
H	 0.6449437398	-0.8133956209	 1.7091547864	 0.280381
H	 0.2879634517	 0.9229947442	-0.4671955968	 0.109045
H	 0.890339269	-0.7206881751	-0.6636133115	 0.087477
H	-1.8052447139	 0.0744096755	 0.5876456906	 0.089756
H	-2.9513580587	-0.8265015231	-1.3536222777	 0.080382
H	-1.9372557358	-2.2594164811	-3.036073498	 0.100671
H	-0.7119112231	-1.0023388129	-2.9994538135	 0.099613
H	-0.1482866236	-3.6969861836	-2.4564766421	 0.097835
H	 0.8201698011	-2.3876515116	-1.825028189	 0.110935
H	-1.1979615969	-4.0895835641	-0.3706848739	 0.102608
H	 0.1963936714	-3.257815458	 0.2929362367	 0.090462
H	-2.3853318031	-2.2871949713	 0.7540433345	 0.080069
