17
gdb 81161	2.74816	1.49958	1.30938	1.824	74.64	-0.2464	0.0182	0.2646	1027.4408	0.135554	-421.770176	-421.762238	-421.761294	-421.80224	31.385	
O	 0.1531926493	 1.4893373186	 0.0858896173	-0.423515
C	 0.0356729298	 0.0997970996	 0.038041431	 0.070342
C	 0.0549413733	-0.65404345	 1.3776368908	 0.033234
C	-1.0020653843	 0.0691749027	 2.231162651	-0.225161
C	-2.1298881403	 0.1315426063	 1.15715493	-0.265359
C	-1.3737233997	-0.5935462346	 0.0162199727	 0.287447
O	-0.7249543148	-1.7045268227	 0.7240648284	-0.328398
C	-2.0691289332	-0.9277748266	-1.1959674384	 0.07388
C	-2.6449832966	-1.165638345	-2.2244270417	-0.337554
H	 0.1624810798	 1.8305259093	-0.8138013898	 0.296058
H	 0.6944319048	-0.3737091357	-0.6959042017	 0.095581
H	 0.9721407944	-1.0095149618	 1.8444343849	 0.084439
H	-1.2783851424	-0.5283693018	 3.1016752559	 0.107668
H	-0.6693929632	 1.0559957661	 2.5589094006	 0.117027
H	-3.0285248039	-0.4199890845	 1.4363659555	 0.114327
H	-2.4003891584	 1.1509645959	 0.8766669998	 0.111635
H	-3.1569045945	-1.3875752158	-3.1281950464	 0.188348
