18
gdb 17403	4.31674	1.52905	1.49584	2.0075	72.48	-0.2273	0.0757	0.303	935.8921	0.154556	-343.909081	-343.90171	-343.900765	-343.940477	28.795	
C	-0.1156379362	 1.5036423868	-0.0429118336	-0.390793
C	-0.0284719022	 0.0021425767	 0.0745772876	-0.067365
N	 1.3205809303	-0.5983019029	-0.0918699498	-0.399468
C	 0.6442507365	-0.6715671307	 1.2018665123	 0.397496
C	 1.2967684675	-0.1303252481	 2.4995228199	-0.299441
C	 0.8753039792	-1.4433588319	 3.1802718058	-0.039624
N	-0.6021061529	-1.5174609537	 3.0675841894	-0.333187
C	 0.2529119598	-1.947132456	 1.9247717063	-0.16718
H	 0.7545336478	 1.976308371	 0.4201260441	 0.125178
H	-0.1481757117	 1.8137537441	-1.0930214711	 0.116812
H	-1.018521177	 1.8784096949	 0.4510061046	 0.120043
H	-0.8621845726	-0.5418041726	-0.3690369235	 0.079571
H	 1.2538469581	-1.4909784005	-0.5767793496	 0.224543
H	 2.3777836724	-0.0291304129	 2.3810983119	 0.114778
H	 0.8742002333	 0.7787670464	 2.9342611456	 0.107719
H	 1.4021582024	-1.9834310107	 3.9566889208	 0.09479
H	-0.8933958477	-2.3692096615	 3.5491602621	 0.226399
H	 0.1863443531	-2.9508546785	 1.5197467472	 0.089731
