18
gdb 90844	3.16744	1.84001	1.4313	2.8325	75.09	-0.221	0.0682	0.2892	927.197	0.149488	-401.830439	-401.823744	-401.8228	-401.861229	27.928	
O	 0.0929231142	 1.407546867	-0.0703688457	-0.437267
C	-0.0146179339	-0.0033352684	 0.0052178896	-0.040279
C	 0.4256119532	-0.6048362899	 1.4092058062	-0.270839
C	-0.9065455198	-1.1690529569	 1.9847449232	-0.083789
C	-1.6038351633	-1.8002769042	 0.7738400486	-0.015075
N	-3.0187623663	-1.2084233194	 0.9965519183	-0.193015
C	-2.9202114681	-0.531070863	-0.3823273598	-0.278946
C	-1.4667931268	-0.4135420907	 0.1034555242	 0.320163
C	-1.9911407047	-0.1808348547	 1.5425182649	-0.002403
H	 1.0269123951	 1.6387813012	-0.0670555319	 0.284991
H	 0.5241465289	-0.4828057769	-0.8238146454	 0.069121
H	 1.182521154	-1.3885977996	 1.3013237015	 0.100672
H	 0.8434244648	 0.1922558416	 2.0322468688	 0.10267
H	-0.8814653638	-1.6309416465	 2.9730408677	 0.070496
H	-1.4695033656	-2.7781858854	 0.307065174	 0.076432
H	-3.1342641672	-1.2076750768	-1.215657998	 0.102124
H	-3.511226517	 0.3858673272	-0.4612980865	 0.110283
H	-2.3156960039	 0.7636150853	 1.9797000504	 0.084662
