21
gdb 59488	2.40515	1.15768	0.85604	4.3853	83.51	-0.2485	0.0236	0.2721	1393.6383	0.181104	-383.255614	-383.245642	-383.244698	-383.290808	36.491	
C	 0.6527049253	 0.9574147293	-0.6205670872	-0.386294
C	-0.2131270632	 0.5789467528	 0.5921185987	-0.000102
C	-0.6944312021	 1.8322779204	 1.3392184415	-0.405262
C	-1.3865742884	-0.2693777593	 0.1271531104	 0.040702
C	-1.2377328247	-1.7255046995	-0.1537156351	-0.269064
N	-2.0911415395	-1.2711457942	 0.9435162346	-0.097988
C	-1.6358841172	-1.5939862951	 2.2887893415	-0.289594
C	-2.3099163189	-0.7622568513	 3.2936225451	 0.296311
N	-2.8239498457	-0.1092291665	 4.0959297519	-0.313598
H	 1.5020096765	 1.5753975351	-0.3129407474	 0.11663
H	 1.0425082762	 0.0699013828	-1.1283368149	 0.114935
H	 0.0718777757	 1.5329454353	-1.350555192	 0.118927
H	 0.4133283829	-0.0145789419	 1.2701407875	 0.071068
H	 0.1561203836	 2.437081537	 1.6693808978	 0.113874
H	-1.3114846613	 2.457482682	 0.6833544073	 0.117483
H	-1.2936328168	 1.5808052492	 2.2182083977	 0.146476
H	-2.0848918094	 0.2854235802	-0.4999958315	 0.09845
H	-1.7491020979	-2.2025093274	-0.9852329742	 0.12325
H	-0.2783650805	-2.1749920529	 0.104554362	 0.108879
H	-1.8943772834	-2.6408449619	 2.4873029873	 0.158425
H	-0.5491553812	-1.5035533241	 2.4462223289	 0.136491
