19
gdb 57688	2.91746	0.90343	0.81596	1.6596	84.55	-0.2541	0.025	0.2792	1482.3736	0.153364	-385.80526	-385.794455	-385.793511	-385.842113	39.215	
C	 0.0549736445	 1.5816289639	 0.0091574407	-0.420885
C	 0.0219823224	 0.0404555521	 0.0615453102	 0.192057
C	 0.8310793447	-0.4929172865	 1.2615092173	-0.420899
O	-1.3278763927	-0.4600996776	 0.0688635473	-0.287476
C	-2.1425240837	-0.0987118815	 1.1726333002	-0.229153
C	-3.4600240904	-0.697651157	 0.9977504975	 0.294557
C	-4.5545362772	-1.1774246601	 0.8819211092	-0.416129
C	 0.5989446987	-0.4931807144	-1.1799663624	 0.338678
C	 1.1096426721	-0.9084370843	-2.1843308108	-0.462265
H	 1.0775703737	 1.9254546501	-0.1648149561	 0.131144
H	-0.5765121782	 1.9413605204	-0.806477094	 0.137645
H	-0.2902141917	 2.0199819562	 0.950053217	 0.117016
H	 0.4857647013	-0.0537896651	 2.2019970794	 0.117018
H	 0.7408007676	-1.5800880555	 1.3194228698	 0.137647
H	 1.8866580286	-0.2373297968	 1.1406263479	 0.131149
H	-1.7125808804	-0.4483861004	 2.1231787653	 0.121592
H	-2.252372627	 0.9931550106	 1.2528035552	 0.121592
H	-5.5199601334	-1.6056164041	 0.7714412906	 0.199947
H	 1.5478101012	-1.2830053101	-3.0763496744	 0.196765
