21
gdb 75486	2.57504	1.48449	1.10759	1.6843	84.67	-0.2269	0.0115	0.2384	1191.99	0.182365	-387.106283	-387.097486	-387.096542	-387.139131	34.389	
C	 0.1022776765	 1.5054853083	 0.0886506473	-0.495077
C	 0.0054686582	 0.0086891641	-0.019135288	 0.362546
C	-0.0194320278	-0.6536371806	-1.1795960786	-0.179171
C	-0.1089300801	-2.15569952	-1.2524596696	-0.265395
C	-0.9187169271	-2.7519765155	-0.0863870732	-0.279021
C	-0.5325178639	-2.1619959072	 1.2576880981	 0.403921
C	-1.2169942249	-2.7424849617	 2.4729593199	-0.469247
O	 0.8594311969	-1.8673533473	 1.4223516756	-0.298222
C	-0.0629675844	-0.7620515724	 1.2564241576	-0.11358
H	 1.0076896869	 1.8074946299	 0.6304598298	 0.130005
H	 0.1232018174	 1.9760829695	-0.8977164962	 0.121379
H	-0.7473550979	 1.9231397581	 0.6443935776	 0.122633
H	 0.052963966	-0.1037886619	-2.1149186195	 0.082189
H	-0.5569502712	-2.4638888763	-2.2032199281	 0.097266
H	 0.9025450889	-2.5804615229	-1.237021562	 0.128373
H	-1.9889547493	-2.5595281742	-0.2388449345	 0.103472
H	-0.7957179145	-3.8412515322	-0.0635158736	 0.101357
H	-0.9827755418	-3.8082342534	 2.5733554512	 0.124049
H	-0.8862529857	-2.2343823446	 3.3822863336	 0.126052
H	-2.3050550919	-2.6453185667	 2.3927607545	 0.119954
H	-0.1922874903	-0.1751310732	 2.1659889981	 0.076518
