21
gdb 58840	2.99423	1.24713	1.18649	1.7527	82.01	-0.2408	0.0047	0.2455	1184.1159	0.181793	-387.090063	-387.081221	-387.080277	-387.123365	34.397	
C	 0.0215033211	 1.4221771045	-0.2877496784	-0.398347
C	 0.0170085163	-0.060424343	 0.116562111	-0.057495
C	 0.8408119052	-0.3059090855	 1.3889825107	-0.399157
C	-1.4012808099	-0.5809721135	 0.2391268934	 0.432586
C	-2.3781420262	-0.0581250827	 1.301134294	-0.336358
C	-3.3287849937	-1.2195997896	 1.509760516	-0.079223
C	-3.0026789467	-2.2799811182	 0.7665926173	-0.075762
C	-1.8190667696	-1.9604990768	-0.0843357689	-0.082905
O	-2.0587733486	-0.8656393886	-1.004770215	-0.314472
H	 1.0427025586	 1.7732887166	-0.4671843631	 0.11008
H	-0.5585733658	 1.5765103344	-1.2022116733	 0.131423
H	-0.4101902564	 2.0510885552	 0.499456435	 0.113036
H	 0.4718930874	-0.6317410224	-0.702175216	 0.081268
H	 1.8812449034	-0.003402585	 1.2337677189	 0.115003
H	 0.4574050158	 0.2717253825	 2.2371007352	 0.116322
H	 0.8346167338	-1.3632629471	 1.6722601182	 0.115823
H	-1.8661610124	 0.2164702293	 2.2317738796	 0.111364
H	-2.9006947731	 0.8395344317	 0.9500097195	 0.125205
H	-4.1858795227	-1.1535591922	 2.1706866936	 0.100451
H	-3.523742039	-3.2287947157	 0.7389754284	 0.10074
H	-1.1401227577	-2.7246433439	-0.4526007561	 0.090419
