23
gdb 69589	3.10218	1.27065	1.17709	0.2147	89.77	-0.238	0.0911	0.3291	1203.6445	0.207118	-351.153299	-351.144865	-351.14392	-351.185692	34.678	
C	-0.0440100832	 1.5002114559	-0.0013850035	-0.480311
C	 0.0204420605	-0.0081184551	 0.0069391314	 0.362622
C	-0.8014134015	-0.7865611894	 1.0090309951	-0.348559
C	 0.7102722717	-0.7969515959	 1.1035644397	-0.144959
C	 1.4311913213	-1.9559186173	 0.4673247074	 0.414191
C	 2.9180911803	-2.1118928335	 0.6760945414	-0.319129
C	 1.9553848558	-3.1244443214	 1.2565401776	-0.323276
C	 0.8104022142	-2.1338348665	-0.9206057135	-0.322959
C	 0.3234464192	-0.7190316193	-1.3118766076	-0.26412
H	 0.87740773	 1.9351303785	-0.4071600735	 0.111991
H	-0.8772410943	 1.8604843071	-0.617173542	 0.113952
H	-0.1859411965	 1.8994470967	 1.0081269888	 0.11109
H	-1.3341547362	-0.2059264436	 1.7553250766	 0.102564
H	-1.3205775258	-1.6904365759	 0.7059303678	 0.105353
H	 1.1779081436	-0.2973311831	 1.9465238717	 0.07236
H	 3.5262832497	-2.4123940511	-0.1713630203	 0.105643
H	 3.4169358888	-1.4320987301	 1.3598569671	 0.106277
H	 1.804568963	-3.1269980047	 2.331191144	 0.10811
H	 1.9164674229	-4.1096751188	 0.8020468025	 0.105033
H	 1.5150425009	-2.5520789011	-1.644914315	 0.094968
H	-0.0367670498	-2.8273753081	-0.86982589	 0.102585
H	-0.5353511027	-0.745690581	-1.9923338867	 0.091031
H	 1.1241336478	-0.1723752525	-1.8261938787	 0.095542
