22
gdb 97446	5.61951	0.56379	0.5368	3.0036	89.3	-0.2431	0.0293	0.2724	2134.7523	0.191967	-404.330759	-404.32011	-404.319165	-404.368155	37.267	
C	 0.0552541599	 1.35698418	 0.2200496417	-0.313665
N	-0.0332975911	-0.0601158323	 0.4996550986	-0.206461
C	-1.0392780319	-0.6739482926	 0.0596392986	 0.136673
O	-1.1799834664	-1.9985386978	 0.2536183017	-0.204565
C	-2.4199844207	-2.5740228663	-0.1789358915	-0.100725
C	-2.2437544865	-4.064469206	-0.2387446743	-0.006145
C	-2.3706176315	-4.9038424628	 1.010339319	-0.282452
C	-3.4034591418	-5.0267810845	-0.0809872107	-0.002794
C	-4.8368187352	-4.5873340406	 0.1347797959	-0.408312
H	 0.1293901712	 1.9146608304	 1.1608647115	 0.125743
H	 0.9717231438	 1.5658396966	-0.3442196454	 0.126077
H	-0.7988440305	 1.7576303656	-0.3515846195	 0.092595
H	-1.8574010216	-0.2053541955	-0.5123672993	 0.067069
H	-3.214421987	-2.292845309	 0.5233201206	 0.103921
H	-2.6859831547	-2.1715671149	-1.1667933112	 0.104111
H	-1.4726782204	-4.3673372474	-0.9414587931	 0.093701
H	-1.6624789466	-5.7093779828	 1.1676934691	 0.115678
H	-2.6665480843	-4.3904045216	 1.9203830316	 0.114525
H	-3.3176434814	-5.9160229446	-0.7004520156	 0.088311
H	-4.910737964	-3.7350342487	 0.816312544	 0.117247
H	-5.3198875535	-4.3054061721	-0.807639647	 0.117425
H	-5.4219844158	-5.4022743031	 0.5746009653	 0.122043
