16
gdb 125077	3.04341	1.32772	0.92979	4.693	75.42	-0.2169	-0.0145	0.2024	1200.2287	0.125949	-434.120484	-434.11202	-434.111076	-434.154922	30.062	
C	-0.0204652314	 1.5608646208	 0.0559134576	-0.532999
C	-0.0082767257	 0.0634821915	 0.0307287536	 0.078837
C	 0.0102263438	-0.7731299956	-1.0743637329	 0.426238
N	 0.0214887452	-0.4483330676	-2.4315699323	-0.404359
C	 0.0374723115	-1.3452243886	-3.4595172101	 0.149983
O	 0.0442778163	-2.5532856219	-3.3263547367	-0.325388
N	 0.0163238539	-2.0497634362	-0.6240315162	-0.250932
N	 0.0030202851	-2.1169008924	 0.7228345966	-0.237289
C	-0.0120793071	-0.8462250701	 1.1125816752	-0.062435
H	 0.872065678	 1.9960512498	-0.4117486362	 0.12434
H	-0.896004174	 1.9819014612	-0.4548028831	 0.123676
H	-0.048589612	 1.923153914	 1.0868788412	 0.139515
H	 0.0170857358	 0.5339357652	-2.659378543	 0.268115
H	 0.0431677215	-0.8441218443	-4.4435390933	 0.098318
H	 0.0278870825	-2.8698119063	-1.2109214389	 0.295027
H	-0.0252066236	-0.6081492195	 2.1669461988	 0.109352
