19
gdb 126671	6.27536	0.72769	0.66008	1.5438	78.86	-0.2136	0.0317	0.2453	1705.1422	0.160237	-419.228985	-419.219935	-419.21899	-419.263708	32.661	
C	 0.0025481144	 1.5022402892	 0.0085756099	-0.382981
C	-0.0537119693	-0.0276636695	 0.0024706302	-0.189403
C	-1.4830143714	-0.5458344793	 0.0126392298	-0.035645
O	-1.4297440694	-1.9751612832	 0.006213338	-0.277877
C	-2.6110331339	-2.6141594885	 0.0130966159	 0.455395
N	-3.7792685907	-1.9834284436	 0.0256218634	-0.32269
N	-4.6869291724	-2.9932870417	 0.0284650668	-0.210346
C	-4.1152485677	-4.2187576059	 0.0183664216	 0.000024
C	-2.7523366533	-4.023359785	 0.0078511784	-0.335282
H	 1.037209405	 1.8565495255	 0.0010808501	 0.116739
H	-0.4997647104	 1.9237520887	-0.8690519068	 0.118005
H	-0.4843559663	 1.916127023	 0.8984299039	 0.118005
H	 0.4583636042	-0.4230430524	-0.8823704242	 0.106623
H	 0.4735904878	-0.4306097787	 0.8748684491	 0.106628
H	-2.028399136	-0.2035064499	 0.9016068497	 0.109613
H	-2.0436679048	-0.1961440238	-0.8638688289	 0.109634
H	-5.6645106631	-2.7639059719	 0.0375526187	 0.27252
H	-4.7075486686	-5.1204362817	 0.0192348229	 0.133681
H	-1.972355944	-4.7651308813	-0.0020049087	 0.107358
