22
gdb 79960	2.51337	1.57849	1.3648	1.2122	86.96	-0.2191	0.0097	0.2289	1091.6044	0.193812	-367.192561	-367.183614	-367.18267	-367.225195	35.682	
C	-0.1427084736	 1.4990202667	-0.0211183173	-0.31331
N	 0.0617886877	 0.0609310542	 0.0177558444	-0.104736
C	 1.3534388598	-0.5626642985	-0.2972148207	-0.080206
C	 2.584676623	 0.268844751	-0.135962178	-0.102981
C	 2.7538203838	 0.6438477739	 1.1345899014	-0.112752
C	 1.7318270647	 0.0170533359	 2.0711909048	 0.23276
C	 2.408218095	-1.1047028533	 2.8895858807	-0.40882
C	 1.0883463962	 1.0213719461	 3.0450751898	-0.431152
C	 0.7501379649	-0.6484855731	 1.0818331181	-0.066635
H	 0.7267466402	 2.1059768778	 0.2647897514	 0.10821
H	-0.4282923411	 1.7750479652	-1.0420640485	 0.1156
H	-0.9777726442	 1.7527840517	 0.6392796304	 0.120415
H	 1.3186412277	-1.360336457	-1.0345158459	 0.085639
H	 3.2147887576	 0.5602308713	-0.9688608842	 0.095844
H	 3.5292561468	 1.3103961763	 1.50043921	 0.091827
H	 3.1982538526	-0.698212729	 3.529823669	 0.110516
H	 1.676337303	-1.6050661192	 3.5347698753	 0.110896
H	 2.8566395509	-1.8547486646	 2.2318362225	 0.120147
H	 0.615554971	 1.8590482995	 2.530101361	 0.12102
H	 0.3270430955	 0.528328207	 3.658703711	 0.115802
H	 1.8446018235	 1.4301916489	 3.7247930925	 0.110196
H	 0.2342491052	-1.5394483908	 1.4348942423	 0.08172
