18
gdb 53546	2.54925	0.96353	0.81214	2.856	81.28	-0.2454	-0.0246	0.2209	1485.2118	0.14491	-401.908189	-401.898089	-401.897145	-401.945979	34.575	
C	 0.2184639641	 1.4333078499	 0.6795763317	-0.496519
C	 0.1154426194	 0.0483381826	 0.242542082	 0.058443
C	 0.0316905873	-1.0911998858	-0.1366466537	 0.075875
C	-0.089308869	-2.4836987669	-0.5612302953	-0.458164
C	-1.4284779832	-3.1025258458	-0.1738661157	 0.226208
C	-1.462115905	-4.4055767531	 0.5709741602	-0.276123
N	-1.8491218019	-3.1693261272	 1.2392140641	-0.335325
C	-2.5688372532	-2.8419809045	-1.1064615226	 0.151101
O	-2.449800673	-2.404613769	-2.2226214114	-0.262735
H	 1.0417877259	 1.5688634308	 1.3895970815	 0.146261
H	 0.3969329407	 2.1040401902	-0.1679381562	 0.151805
H	-0.7025939298	 1.7620484649	 1.1732705867	 0.151012
H	 0.0036559942	-2.5524899506	-1.6512884483	 0.156751
H	 0.7291545996	-3.0745508987	-0.1320826359	 0.122699
H	-2.2710130897	-5.1125583969	 0.4048073667	 0.129344
H	-0.4991913817	-4.8605441328	 0.7885216527	 0.126165
H	-1.0976321341	-2.810748737	 1.8240412822	 0.246015
H	-3.5578582907	-3.1082326402	-0.6730606886	 0.087188
