15
gdb 8635	2.48075	1.77544	1.39024	3.9476	65.88	-0.2957	-0.0178	0.2779	953.569	0.117902	-358.857115	-358.848226	-358.847282	-358.890318	31.32	
C	-0.0753325083	 1.5594110573	 0.0673310638	-0.405395
C	 0.0239904015	 0.035781837	 0.0039791596	-0.184523
C	 0.7528791607	-0.4902358698	-1.2690897121	-0.069801
N	 2.1210104519	 0.0340186745	-1.3137569608	-0.503676
C	 0.7182402771	-1.977151027	-1.2491560154	 0.278898
N	 0.7560327498	-3.1304958043	-1.1876664157	-0.322125
C	 0.0413845632	-0.0308652367	-2.4813195042	 0.332301
N	-0.5210796372	 0.3352933646	-3.4204695155	-0.322564
H	 0.9127641536	 2.0218569825	 0.0286487532	 0.144742
H	-0.6678210449	 1.9519203207	-0.7640092978	 0.148414
H	-0.5636881471	 1.8566368173	 0.9992321218	 0.127132
H	 0.5803076246	-0.3564194473	 0.8630931685	 0.123392
H	-0.9684607585	-0.4230441053	 0.0355569248	 0.139776
H	 2.6357025637	-0.3131717485	-0.5090993494	 0.253056
H	 2.6016712199	-0.295338995	-2.1457140707	 0.260372
