20
gdb 92143	2.60984	1.56745	1.36044	2.4287	77.86	-0.2227	0.0707	0.2934	1052.2461	0.172034	-403.113868	-403.105786	-403.104842	-403.146062	32.103	
C	-0.1582257396	 1.5013533602	-0.048256882	-0.517305
C	 0.0897837357	 0.0294888065	 0.0430056441	 0.353798
C	 0.8207058892	-0.8426866834	-0.8958647777	-0.067679
C	 1.7678519031	-1.7992344624	-0.1819765418	 0.107896
O	 3.0913404626	-1.4469039183	-0.5639319873	-0.442707
C	 1.4629225491	-1.5529057408	 1.3217245227	-0.256503
C	 0.0834904097	-0.8857801498	 1.3038633676	-0.114363
C	-0.918717827	-1.7610338186	 0.517130744	-0.156139
N	-0.660476454	-1.0118731311	-0.7593890965	-0.203248
H	 0.6651656435	 2.0656990988	 0.4047005134	 0.123406
H	-0.2452592522	 1.8092146308	-1.0944113099	 0.132682
H	-1.0836633839	 1.7855056826	 0.4650426797	 0.120477
H	 1.1089772381	-0.4967976081	-1.8824811564	 0.098934
H	 1.5625311007	-2.8413607079	-0.4689643992	 0.072897
H	 3.6950375	-2.0715871452	-0.1501806396	 0.282284
H	 1.4811217484	-2.4693626731	 1.9221693824	 0.089654
H	 2.222279896	-0.8649794096	 1.710626078	 0.104942
H	-0.2452967408	-0.4718518371	 2.2574332139	 0.06973
H	-0.7333970566	-2.8413199354	 0.475824336	 0.093218
H	-1.960978052	-1.5933715982	 0.7991405485	 0.108025
