20
gdb 85438	2.49657	1.46436	1.11999	3.778	79.65	-0.2308	0.0364	0.2672	1156.1083	0.171554	-403.188729	-403.180159	-403.179215	-403.221782	33.532	
C	-0.0737643598	 1.586138286	 0.0110667472	-0.390591
C	-0.0171928057	 0.0531536641	 0.0149029969	-0.065193
C	 0.8603222869	-0.4840933366	-1.1373074632	-0.349137
C	 2.2518508896	-0.6681853013	-0.5205457003	 0.399891
O	 3.302965146	-0.8387064312	-1.0970947832	-0.381062
N	 2.0753754316	-0.6145030744	 0.8379222133	-0.360106
C	 0.7035970278	-0.5006345307	 1.2552111521	 0.394348
C	 0.3558105527	-0.1346718112	 2.6645360134	-0.33317
C	 0.0899588631	-1.5423467651	 2.1594280812	-0.323848
H	 0.9318535999	 2.0151590044	 0.0738506782	 0.129145
H	-0.5384180453	 1.950748427	-0.9105118049	 0.116709
H	-0.6550051475	 1.9689983727	 0.854999126	 0.114606
H	-1.0339216084	-0.3463229885	-0.0358991745	 0.078767
H	 0.5212217442	-1.4644086831	-1.4906287259	 0.12734
H	 0.9090151681	 0.1788944471	-2.0033675303	 0.125279
H	 2.8396625841	-0.8104213311	 1.4650288131	 0.247951
H	 1.1665903219	 0.0067869559	 3.3723086724	 0.115445
H	-0.492471383	 0.5203564457	 2.8335974786	 0.121568
H	-0.9392660607	-1.838841316	 1.9850927412	 0.117474
H	 0.7311202544	-2.3388291536	 2.5226984086	 0.114585
