17
gdb 29601	3.12561	1.14406	0.86068	4.7112	78.8	-0.2097	0.0238	0.2335	1311.9383	0.136178	-418.038775	-418.02986	-418.028916	-418.073238	32.044	
C	-0.0208123374	 1.5462619542	 0.2077215802	-0.500608
C	 0.033165164	 0.055365004	 0.0843701031	 0.161367
C	-0.0644924467	-0.7062075099	-1.0591975205	-0.153521
N	 0.0324921995	-2.0306673287	-0.7169129544	-0.243506
C	 0.2016546709	-2.1544063209	 0.6404444708	-0.187418
C	 0.1985668328	-0.8747984642	 1.1495882669	 0.244954
O	 0.3721822865	-0.4898779637	 2.4589328676	-0.212322
C	-0.3582580892	-1.1278219207	 3.4052607729	 0.106297
N	-0.0985951533	-0.9429006675	 4.6249525886	-0.436397
H	-0.1858756555	 2.0130934006	-0.7672613895	 0.117482
H	-0.8285135151	 1.8672117592	 0.8749261834	 0.129652
H	 0.9092431357	 1.951220515	 0.6214603479	 0.136565
H	-0.1987427386	-0.4044018211	-2.0857396487	 0.121939
H	-0.0035793711	-2.7990166907	-1.3620257519	 0.26573
H	 0.3336154432	-3.1109039194	 1.1172248935	 0.127883
H	-1.1435030467	-1.7619097211	 2.974754363	 0.092138
H	-0.7558779588	-1.4663613452	 5.199565227	 0.229764
