19
gdb 105048	2.68685	1.26329	1.15495	2.6759	70.39	-0.2603	0.0736	0.334	1161.2671	0.156819	-460.116353	-460.107058	-460.106114	-460.150503	34.592	
C	 0.3125582922	 0.8428344315	 1.1054503948	-0.47359
C	-0.0092470308	-0.0403649016	-0.0813935045	 0.316933
C	 0.6330692085	 0.1892345278	-1.3828007532	-0.216004
O	 1.06921682	-0.8758330937	-0.5297584918	-0.280398
C	-1.3457340108	-0.7412361058	-0.0376570872	 0.312594
C	-1.4790868812	-1.8519856785	 0.9997427154	-0.142417
O	-2.6986218005	-2.5468848836	 0.8710471777	-0.421075
C	-2.5485190451	-0.0632608111	-0.5362677339	-0.221788
O	-1.9170703123	-1.1038388331	-1.3033666862	-0.284397
H	 1.3023406966	 1.2884608522	 0.9829506823	 0.133763
H	-0.4248905543	 1.6458066727	 1.2070010435	 0.126143
H	 0.3153948964	 0.2680939219	 2.0371422447	 0.13425
H	 0.1226757433	-0.1236743004	-2.2893588733	 0.132676
H	 1.3340521808	 1.0167713624	-1.4873718114	 0.108996
H	-0.6111492705	-2.5204638273	 0.8908023082	 0.116596
H	-1.4525834547	-1.4321606611	 2.0107213894	 0.116116
H	-2.7803394441	-2.7578424422	-0.0683223759	 0.292889
H	-3.5155488444	-0.3284908081	-0.1170275662	 0.133164
H	-2.465686359	 0.9334410278	-0.9659198223	 0.115548
