16
gdb 27899	1.98538	1.92032	0.98803	1.4672	73.83	-0.2634	-0.0376	0.2258	1165.2185	0.124588	-434.158992	-434.150339	-434.149395	-434.194385	30.286	
C	 0.0590879545	 1.4543973351	-0.0181191711	-0.460647
C	 0.0522138516	-0.0457004176	 0.0013973188	 0.342707
N	 0.0889630186	-0.6730471607	-1.1813599251	-0.377028
C	 0.0806145287	-2.0021853924	-1.0987639071	 0.439378
O	 0.1157922059	-2.6888949215	-2.2417794524	-0.381233
N	 0.0404252466	-2.7295220377	 0.016004535	-0.31184
C	 0.0062446792	-2.0038878938	 1.134079207	 0.346977
C	-0.0403475831	-2.7355699135	 2.4424231707	-0.459885
N	 0.0102445001	-0.6617886654	 1.1837708142	-0.316998
H	 0.9563249738	 1.8179951719	-0.5287679201	 0.145788
H	-0.800694048	 1.8252475894	-0.5849369424	 0.145813
H	 0.0281283588	 1.8470914909	 0.9977554357	 0.142372
H	 0.1422093442	-2.03185336	-2.9519773688	 0.307574
H	 0.8196521126	-2.4519902444	 3.0571613589	 0.14713
H	-0.9360693008	-2.4434883228	 2.9994385924	 0.147119
H	-0.0401352126	-3.8129457874	 2.2792643944	 0.142773
