19
gdb 69258	2.67168	1.53585	1.14775	4.6744	75.43	-0.253	0.0086	0.2616	1105.8479	0.16031	-423.062897	-423.054771	-423.053826	-423.095596	31.468	
C	-0.0576842024	 1.5165741358	-0.0491042808	-0.47507
C	-0.0402994227	 0.0027879261	 0.0012870659	 0.334363
C	-0.7606526415	-0.6941121733	 1.1182646085	-0.318363
C	 0.7637084959	-0.6699292723	 1.0993601786	-0.207881
C	 1.4861605732	-1.9572992443	 0.8626324541	 0.41964
O	 2.0126352852	-2.5918396511	 1.735823583	-0.334975
O	 1.4923820501	-2.4356075502	-0.4127621825	-0.233665
C	 1.3020477146	-1.5022877229	-1.4894169023	-0.07413
C	 0.0046504627	-0.7189278453	-1.3499288219	-0.299483
H	 0.8138827334	 1.9065507607	-0.5874411087	 0.120653
H	-0.9562207145	 1.8797996814	-0.561040227	 0.123072
H	-0.0487324924	 1.9481357343	 0.9566508227	 0.120485
H	-1.241967	-0.0968506831	 1.885051841	 0.121513
H	-1.2544958254	-1.6367351578	 0.9065068866	 0.127474
H	 1.2371392632	-0.0568551242	 1.8576789168	 0.114927
H	 2.162088886	-0.8206088946	-1.5236133707	 0.112554
H	 1.3159021738	-2.1100812331	-2.397013342	 0.122689
H	-0.8451617688	-1.4007431313	-1.460707225	 0.11605
H	-0.0599170904	 0.0058006351	-2.1685205066	 0.110146
