24
gdb 121941	2.48662	0.96041	0.83641	1.7217	87.19	-0.2279	0.0857	0.3136	1551.73	0.215399	-405.512331	-405.501602	-405.500658	-405.54891	38.737	
C	-0.1525042794	 1.2231677381	 0.1498823273	-0.381947
C	-0.1229238933	-0.082738836	 0.9261847843	-0.03718
O	 1.0495667373	-0.7913697541	 0.545852431	-0.246821
C	 1.1788295084	-2.0876608774	 1.0856975107	-0.080064
C	 1.8200378859	-2.1482936057	 2.4832556613	 0.05037
C	 3.1166413198	-1.3411989037	 2.5447713359	-0.384537
N	 0.885245872	-1.6570832604	 3.4998739552	-0.051959
C	-0.0820815173	-2.6160582299	 4.0202394574	-0.225574
C	 1.0665689882	-2.164423152	 4.853568533	-0.223734
H	-0.1519174021	 1.0332081116	-0.9274758695	 0.120465
H	-1.0501373973	 1.7957998004	 0.4029956778	 0.110051
H	 0.7239546996	 1.8327269758	 0.3890292542	 0.123219
H	-0.1275227844	 0.0988553501	 2.0076368085	 0.114868
H	-1.0130954097	-0.6903312021	 0.6897564181	 0.07664
H	 0.2033495999	-2.6001016057	 1.106870976	 0.083001
H	 1.8275022167	-2.6402294144	 0.3949600315	 0.098952
H	 2.0548915721	-3.2166594832	 2.6661300318	 0.047294
H	 3.8445323231	-1.7292694375	 1.825534322	 0.111179
H	 2.9197425973	-0.2952467517	 2.3015132639	 0.136786
H	 3.560724911	-1.3939520138	 3.5430385184	 0.108971
H	-1.083156473	-2.2350958618	 4.2010775507	 0.115927
H	-0.0452907356	-3.6367116756	 3.6410238151	 0.108576
H	 1.8656884711	-2.8853475215	 5.0232011185	 0.108754
H	 0.9231425798	-1.4475617695	 5.6569751968	 0.116762
