23
gdb 116438	2.44465	1.29552	0.98913	2.514	81.23	-0.251	0.0766	0.3277	1292.0016	0.207198	-425.439488	-425.430248	-425.429304	-425.473122	35.863	
C	-0.1666669119	 1.6102299341	-0.0598218257	-0.398912
C	-0.0241572782	 0.0800841482	-0.030099306	 0.008425
C	 0.7624447267	-0.458314147	-1.2460295824	-0.219508
C	 2.2607895648	-0.1332452194	-1.1416272388	-0.199978
C	 2.8029779144	-0.5801705953	 0.2166797265	-0.066863
O	 2.04090072	-0.0351124065	 1.2842161314	-0.278001
C	 0.6692747111	-0.4387540004	 1.2444479662	 0.10889
C	 0.0736781396	 0.0246339214	 2.5692155116	-0.082516
O	 0.7509724947	-0.5649486735	 3.661965825	-0.427529
H	 0.7879592765	 2.1040876715	 0.1411362302	 0.128487
H	-0.5221794846	 1.9438695485	-1.0402619191	 0.108188
H	-0.884957872	 1.9627631899	 0.6858124843	 0.118346
H	-1.0296891248	-0.3603265696	-0.0559111036	 0.07032
H	 0.6381478412	-1.5484930961	-1.2932072963	 0.093268
H	 0.3449202511	-0.0545327358	-2.1750724399	 0.093462
H	 2.820951671	-0.6300729079	-1.9420597139	 0.095618
H	 2.4269461312	 0.9438355385	-1.2562882959	 0.10734
H	 2.7953734948	-1.6820266837	 0.2807027803	 0.087658
H	 3.8318865092	-0.2415986139	 0.3707050198	 0.104644
H	 0.6338159923	-1.5425682291	 1.2349636324	 0.066632
H	 0.1081556285	 1.1227653335	 2.626777913	 0.092013
H	-0.9752785623	-0.2845473512	 2.631442889	 0.103187
H	 1.6890780267	-0.4273736163	 3.482413452	 0.28683
