17
gdb 13123	4.52287	1.1195	0.94422	1.721	66.59	-0.2428	-0.0273	0.2155	1222.7492	0.140717	-400.973564	-400.965046	-400.964102	-401.007464	29.609	
C	-0.2119922004	 1.3161384091	-0.0930875376	-0.228087
O	-0.0014812835	-0.0749001971	-0.0294927468	-0.238989
C	 0.6229506742	-0.479781044	 1.1688653919	-0.048769
C	 0.8592032022	-1.9750094859	 1.0993941339	-0.101636
N	 2.0439969785	-2.4288543543	 0.3215809289	-0.321044
C	 2.5082682411	-3.3396993811	 1.4005131642	-0.282698
C	 1.4766131221	-2.6748791084	 2.3252721254	 0.377232
O	 1.2620702062	-2.6623969118	 3.4993384594	-0.28469
H	 0.7357889768	 1.8749102033	-0.046552273	 0.108081
H	-0.7012849203	 1.5291813412	-1.0465471401	 0.127722
H	-0.8587255548	 1.66944372	 0.7257631269	 0.105439
H	 1.5848484462	 0.0391222085	 1.3055906204	 0.095223
H	-0.013380899	-0.2551323123	 2.0420171736	 0.099696
H	-0.0848579029	-2.4652010995	 0.8145193238	 0.104413
H	 1.8166662871	-2.8901441918	-0.5504522268	 0.229948
H	 2.2962236047	-4.4090032307	 1.255859291	 0.123412
H	 3.5614374719	-3.2261822052	 1.6797872251	 0.134746
