19
gdb 107364	3.35846	1.19335	1.00828	2.4071	75.49	-0.2415	-0.0193	0.2222	1213.505	0.158253	-423.035529	-423.027	-423.026056	-423.068834	32.44	
C	-0.4468908864	 1.3261232812	-0.1539877764	-0.256066
O	 0.0132970069	 0.004189958	 0.0651582693	-0.287347
C	 0.7815597811	-0.5032209728	-0.9758399542	 0.440925
C	 0.0895502354	-1.027600243	-2.2107824446	-0.352995
C	 0.7391235091	-1.9909671856	-1.2318556652	-0.111439
C	 2.1329344388	-2.4826479525	-1.5608331299	-0.335946
C	 2.9795713308	-1.2088144069	-1.7260360613	 0.382726
O	 4.0656957155	-1.1529073828	-2.2378393629	-0.302186
C	 2.211619657	-0.0161111468	-1.1329184109	-0.399046
H	 0.3827385209	 2.0439856084	-0.2208792839	 0.111999
H	-1.0447559895	 1.3980661019	-1.0734882278	 0.110467
H	-1.0722593541	 1.5905216147	 0.701509517	 0.12908
H	-0.994079661	-0.9964638974	-2.202084874	 0.122022
H	 0.5395744839	-0.8773620296	-3.1887956284	 0.115328
H	 0.0817734587	-2.6051795239	-0.6286818789	 0.102204
H	 2.5575713337	-3.0664560899	-0.7338359714	 0.134191
H	 2.2071843986	-3.1007649467	-2.4608190684	 0.131314
H	 2.3496895124	 0.8685718764	-1.760715524	 0.127739
H	 2.6326269983	 0.2084116374	-0.143897774	 0.137029
