16
gdb 14033	5.73842	1.15851	1.08478	0.4298	61.03	-0.2583	0.0617	0.32	1083.7704	0.129297	-420.819744	-420.811898	-420.810954	-420.852534	28.084	
O	 0.0658835638	 1.3101407223	-0.5645841778	-0.414453
C	 0.0731235011	 0.1450032012	 0.2396457955	-0.079363
C	-1.3070119534	-0.4491455275	 0.3599899472	-0.064918
O	-1.7870912704	-1.1041967526	-0.8414626003	-0.285484
C	-1.5547538632	-1.8880926741	 0.3079985108	 0.353698
C	-0.6274195395	-3.0994870651	 0.3752335831	-0.153209
O	-1.6362893392	-3.8366728301	 1.1001837163	-0.2742
C	-2.5998218582	-2.7645218455	 0.9908585425	-0.15433
H	-0.2949837279	 1.0551039458	-1.4214351363	 0.294679
H	 0.7657956062	-0.6153419765	-0.1526544542	 0.093531
H	 0.4355425912	 0.4524170788	 1.2267232046	 0.117546
H	-2.0530012145	 0.1913952768	 0.8326257996	 0.105681
H	-0.4018379588	-3.5446938922	-0.6020787933	 0.117088
H	 0.299008388	-2.989692624	 0.9514315036	 0.112242
H	-2.9638052483	-2.4317969757	 1.9700824312	 0.113041
H	-3.451167737	-3.0274031217	 0.3503996175	 0.118451
