22
gdb 78292	2.70998	1.34478	1.10774	1.3201	87.41	-0.2097	0.0795	0.2892	1237.4621	0.192358	-367.145028	-367.135652	-367.134708	-367.178283	36.565	
C	-0.0228502839	 1.4857976546	-0.0109718147	-0.41735
C	-0.0225381444	-0.0240062916	-0.0624261421	 0.007636
C	 0.7344489315	-0.7091942162	-1.1328527714	-0.101862
N	 1.2864252769	-0.62749745	 0.2683289678	-0.195089
C	 1.2142778598	-2.1503980048	 0.3213594333	 0.318222
C	 2.3207077344	-2.8226425557	 1.0728416782	-0.471978
C	-0.1244896435	-2.7775494248	 0.0214058321	-0.407111
C	 0.7249403746	-2.2515981522	-1.111599064	 0.286584
C	 1.1967311499	-3.0739783171	-2.2750656962	-0.495979
H	 0.9130712157	 1.887966788	-0.4083532579	 0.127035
H	-0.8542477964	 1.8922422568	-0.596772652	 0.115135
H	-0.1277738432	 1.8350500879	 1.0211964254	 0.12357
H	-0.9232047912	-0.4780679551	 0.3366114986	 0.083829
H	 1.2156827454	-0.1583270543	-1.9377328616	 0.087273
H	 2.2057447512	-2.6675070608	 2.1524721022	 0.123793
H	 2.3252750322	-3.9009621589	 0.8861318386	 0.112866
H	 3.2930976155	-2.4135578595	 0.7807133105	 0.12613
H	-0.098718528	-3.8611681017	 0.1030575236	 0.108403
H	-1.0856899105	-2.3606741067	 0.3019378374	 0.110339
H	 0.4494348257	-3.096761506	-3.0781230045	 0.120617
H	 2.1243684142	-2.671229689	-2.6984920545	 0.119738
H	 1.3885213941	-4.1090265528	-1.9749930088	 0.118199
