17
gdb 126702	2.06546	1.86256	1.05934	3.7892	70.09	-0.2028	0.045	0.2478	1118.0688	0.137513	-451.376592	-451.367595	-451.366651	-451.410543	32.593	
C	 0.1353849987	 1.5883891161	 0.0792741329	-0.383567
C	-0.0513298425	 0.0765161053	-0.0635115957	-0.166043
N	 0.6764259602	-0.4871333135	-1.1877270149	-0.148882
C	 0.0513705848	-0.8343991439	-2.4035474777	 0.461619
O	-1.1355675678	-0.7866625777	-2.6587246179	-0.43919
N	 1.1166591931	-1.2190839128	-3.1697452998	-0.320406
N	 2.3412972577	-1.1503782814	-2.5152183685	-0.300897
C	 2.0266476066	-0.6940446346	-1.339774354	 0.426847
N	 2.9408878484	-0.3667733191	-0.3510912445	-0.589988
H	 1.1881722189	 1.8424649676	 0.228312382	 0.137327
H	-0.2222633263	 2.1024009888	-0.8170764756	 0.140984
H	-0.4355872493	 1.956301954	 0.9371998388	 0.120876
H	 0.2463864121	-0.4416899443	 0.8558764105	 0.105167
H	-1.1001744358	-0.1677766894	-0.2525214455	 0.15474
H	 1.0701869958	-1.5439736054	-4.1180664456	 0.276781
H	 3.8704196778	-0.6712158957	-0.6136760907	 0.267023
H	 2.6962473375	-0.7201632741	 0.5661083864	 0.257609
