17
gdb 26852	2.88315	1.47797	0.98903	2.3152	83.52	-0.2183	-0.0637	0.1546	1176.172	0.135384	-418.041014	-418.032268	-418.031324	-418.074924	31.737	
C	 0.1590550444	 1.5423652671	 0.046386223	-0.475604
C	-0.0641004326	 0.0689505128	 0.1459223625	 0.324006
C	-1.225202148	-0.6230020379	 0.0751385037	 0.173632
C	-2.5900140702	-0.0276471634	-0.12754174	-0.472386
N	-1.2172143978	-2.0135311792	 0.1937995375	-0.261011
C	-0.0963742832	-2.6130920638	 0.3694354675	-0.080086
C	 1.1986799693	-1.9377782021	 0.4564475157	 0.348582
N	 2.3535495166	-2.438568091	 0.6274813969	-0.509027
O	 1.1265384032	-0.5711443446	 0.3326362063	-0.237426
H	 0.6424229509	 1.9100516015	 0.9581614082	 0.151641
H	 0.8365040418	 1.7629919328	-0.7858228529	 0.151633
H	-0.7702119935	 2.0890750404	-0.103214555	 0.139031
H	-3.0501425788	-0.4394645907	-1.0323467623	 0.139157
H	-3.2448985416	-0.2929388838	 0.7095229042	 0.139165
H	-2.5741356404	 1.0588130756	-0.2172336785	 0.121735
H	-0.0913882682	-3.6988828277	 0.4620221929	 0.120975
H	 2.2810319781	-3.4520028258	 0.7051982402	 0.225982
