17
gdb 60758	2.62723	1.16771	0.84146	3.3158	71.99	-0.2556	-0.0563	0.1994	1326.3867	0.134366	-455.19005	-455.180566	-455.179622	-455.22502	33.149	
C	 0.7564292953	 1.584191427	-0.5462607319	-0.400799
C	 0.1280481134	 0.3712973478	 0.1355756248	-0.155306
C	 0.0816800513	-0.8388488564	-0.7954853967	 0.151063
O	-0.4371260002	-1.8937323511	-0.5150405257	-0.259218
C	 0.7990088841	 0.0300504125	 1.4725990253	 0.366996
N	 1.7308518986	 0.7587982584	 1.9226855072	-0.499113
N	 0.236717332	-1.1027472776	 2.0942591299	-0.339465
C	 0.5885065108	-1.6094240688	 3.3196020766	 0.164917
O	 1.3911630132	-1.1233084703	 4.0857630249	-0.302478
H	 1.8088707705	 1.399883147	-0.7761128947	 0.142192
H	 0.2262095666	 1.8130341473	-1.4762484094	 0.111258
H	 0.7168361684	 2.4551600433	 0.1077464042	 0.149861
H	-0.9274786777	 0.577975051	 0.371127159	 0.133333
H	 0.5575570039	-0.6912243005	-1.7879369619	 0.109187
H	 2.0404395242	 0.4227888682	 2.8359205444	 0.256939
H	-0.3868937951	-1.6581227875	 1.5179365944	 0.271286
H	 0.0335773308	-2.5394559201	 3.5452051897	 0.099347
