15
gdb 56379	2.05111	1.59853	1.1312	1.7156	72.72	-0.2713	0.0049	0.2762	1103.5999	0.108242	-420.512935	-420.503801	-420.502857	-420.546629	34.015	
O	 0.1907466892	 1.4273739887	-0.1086740454	-0.444075
C	 0.096186504	 0.0117614082	-0.0943955321	-0.058291
C	-1.3086883828	-0.4267264213	 0.0272587277	 0.32589
C	-2.4484535813	-0.7764670267	 0.1718808123	-0.453968
C	 0.6866554522	-0.5128323043	-1.3313409764	 0.368423
C	 1.1901032352	-0.9810617593	-2.3150838099	-0.453141
C	 0.8909591444	-0.5424639742	 1.1115568299	 0.049981
C	 2.1117968644	 0.1274116349	 1.5555759181	-0.178841
O	 0.8622667562	 0.3050979183	 2.25435781	-0.250553
H	 0.045839492	 1.6966183372	 0.81148417	 0.296926
H	-3.4604158248	-1.0802669901	 0.2827619306	 0.204739
H	 1.6250350959	-1.3837847052	-3.1967005914	 0.206342
H	 0.7420711648	-1.6020609321	 1.3067477961	 0.12019
H	 2.8640501869	-0.4376225677	 2.1007329414	 0.126483
H	 2.4601141435	 1.0020123737	 1.0137220191	 0.139892
