19
gdb 91409	2.41144	1.82486	1.34955	2.9149	74.01	-0.2272	-0.0211	0.2061	1012.0653	0.160648	-423.0369	-423.029089	-423.028145	-423.069464	30.448	
C	 0.7400629173	 1.4763241862	-0.0240505935	-0.398584
C	 0.0193655058	 0.1130887289	 0.0090717105	-0.069135
C	 0.3020833928	-0.7260376196	-1.2748668047	-0.24938
C	 1.2511193487	-1.8837632898	-0.9674943066	 0.098566
C	 0.7084301091	-2.8055340626	 0.1444986184	-0.258746
C	 1.4110341894	-1.7688637565	 1.0487911782	-0.011343
O	 2.2845828532	-1.3986267644	-0.0525240953	-0.295524
C	 0.4453879797	-0.617723193	 1.2942745632	 0.397431
O	 0.0480290819	-0.3058885897	 2.3905231812	-0.330602
H	 1.8195739983	 1.3320694828	-0.1237702478	 0.13842
H	 0.3910150756	 2.0692583057	-0.8753653144	 0.11484
H	 0.5430290377	 2.0369740002	 0.8933784909	 0.134888
H	-1.0536155303	 0.3026886099	 0.1122386758	 0.099977
H	-0.6267042031	-1.1226418166	-1.7007320264	 0.104459
H	 0.7521879475	-0.0840321144	-2.0388121984	 0.109647
H	 1.6774786441	-2.3410008373	-1.8639350506	 0.083932
H	-0.3726572573	-2.9350489056	 0.2363020896	 0.112408
H	 1.2122628899	-3.7726811155	 0.1738730328	 0.120727
H	 1.9397847195	-2.0790481285	 1.9513419772	 0.09802
