18
gdb 37238	4.01767	1.36945	1.21139	3.6589	74.79	-0.2146	0.0612	0.2758	1042.2915	0.148405	-401.825226	-401.818125	-401.817181	-401.856702	28.641	
C	-0.0630923555	 1.5204654014	-0.1375123014	-0.123388
O	 1.3001695254	 1.5373794868	 0.3632773722	-0.285757
C	 1.3516543625	 0.1020643851	 0.4332164707	-0.155708
C	-0.082480365	-0.0027739792	-0.0905049806	 0.302646
C	-1.0686075478	-1.0166117671	 0.401911451	-0.148195
C	-2.4981639134	-0.7926200089	-0.1651927937	-0.058586
N	-2.4891910583	 0.4446445954	-0.9914948438	-0.335293
C	-1.9896305783	-0.8416675086	-1.5478487744	-0.058599
C	-0.5385011717	-1.0678362002	-1.0394342788	-0.14819
H	-0.7575365988	 2.0253274196	 0.5411643539	 0.105774
H	-0.141375643	 1.9657875074	-1.1341560772	 0.105771
H	 2.1300374773	-0.3193926045	-0.2184367987	 0.096731
H	 1.5133111616	-0.2598044402	 1.4584363887	 0.096731
H	-0.8498588893	-1.6826594851	 1.227815742	 0.090487
H	-3.4149362608	-1.1764908598	 0.2621426005	 0.097373
H	-3.4369085171	 0.5757589813	-1.3446901885	 0.230342
H	-2.420403217	-1.2724112357	-2.4419066787	 0.097373
H	 0.1473835492	-1.7790310377	-1.4836782433	 0.090489
