15
gdb 9322	6.49471	0.78402	0.70871	4.2829	63.53	-0.2799	-0.086	0.1939	1476.6082	0.116376	-399.813562	-399.804462	-399.803517	-399.848465	30.278	
O	 0.0064057301	 1.4188499285	 0.009542907	-0.416746
C	 0.0419683059	 0.0028827735	 0.0016821105	-0.081087
C	-1.3999344364	-0.4895179006	 0.0128638201	-0.175661
C	-1.4862989427	-2.0137942707	 0.0056516438	-0.313215
C	-2.9046022021	-2.5328979675	 0.0164952093	 0.287074
O	-3.8994707379	-1.8548999578	 0.0293563621	-0.257938
C	-3.0154148649	-4.011501886	 0.0093016363	 0.228481
N	-3.0855895802	-5.1656439784	 0.0034471682	-0.293899
H	 0.9106120937	 1.7461369346	 0.0024001526	 0.290033
H	 0.5612114884	-0.3814439538	-0.892283475	 0.088214
H	 0.5781799061	-0.3908596177	 0.8814224134	 0.088212
H	-1.9081625047	-0.0902315739	 0.895957773	 0.130686
H	-1.9249089828	-0.0809889686	-0.8560939823	 0.130688
H	-0.9869661701	-2.4492531862	-0.8725117479	 0.147588
H	-0.9703186825	-2.4584260655	 0.869478569	 0.147571
