21
gdb 112125	2.7219	1.23296	0.99657	0.5526	79.91	-0.2422	0.0219	0.2641	1258.1043	0.183465	-424.235026	-424.225913	-424.224969	-424.268654	34.958	
O	-0.071193012	 1.4378179705	 0.0415147085	-0.424707
C	 0.0343642429	 0.0196050785	 0.0365485204	-0.092864
C	-1.3834948106	-0.5517259975	-0.0506958615	-0.04355
C	-2.0647312263	-0.1615656804	-1.3433536731	-0.054133
C	-2.9035007021	-0.9603589543	-2.0055055148	-0.078881
C	-3.2924706793	-2.3395273865	-1.5368720759	-0.262522
C	-2.8100906163	-2.6268626941	-0.1041579794	-0.221998
C	-1.3944137378	-2.0814816357	 0.1260115249	 0.098906
O	-0.4442835833	-2.7196163469	-0.7287178462	-0.445762
H	 0.8141552273	 1.8045247802	-0.0340229408	 0.287504
H	 0.6348356089	-0.335354766	-0.8119038323	 0.090456
H	 0.517002903	-0.347014036	 0.9562948862	 0.086821
H	-1.9387488238	-0.1082087904	 0.7893476082	 0.093772
H	-1.8292009451	 0.8276093253	-1.724909638	 0.101888
H	-3.3408892523	-0.6205029673	-2.9420076159	 0.085048
H	-4.3807642175	-2.4616122744	-1.5991018291	 0.108205
H	-2.8842609982	-3.0903777551	-2.2296998066	 0.109496
H	-3.4873010414	-2.151664696	 0.6159083492	 0.099253
H	-2.8251500627	-3.7027735692	 0.0944450135	 0.099653
H	-1.0625100295	-2.3321533274	 1.1397226655	 0.079662
H	-0.6257793542	-2.4230407372	-1.6280766826	 0.283754
