16
gdb 27565	3.42948	1.19919	0.89342	2.2338	89.72	-0.2406	-0.04	0.2005	1260.3583	0.124761	-363.64864	-363.640422	-363.639477	-363.68215	30.435	
C	 0.0005586906	 1.5266722542	 0.0198516258	-0.499662
C	-0.0048764527	 0.019847609	 0.0006704769	 0.27724
C	 0.0379741272	-0.6967718534	-1.1931078993	-0.251176
C	 0.0312764184	-2.0957670993	-1.1694074231	 0.106417
C	-0.0195899191	-2.7228326218	 0.0881986809	-0.066949
N	-0.0609296525	-2.0582144732	 1.237595976	-0.266615
C	-0.0532955168	-0.723340983	 1.1827654945	-0.055384
C	 0.0740141359	-2.8647073367	-2.365894413	 0.230117
C	 0.110005626	-3.5214640257	-3.3745973422	-0.410003
H	 0.902330336	 1.928016427	-0.4552384705	 0.138215
H	-0.859083452	 1.9352088973	-0.522461355	 0.138221
H	-0.036964935	 1.908261971	 1.0434596049	 0.130934
H	 0.0767159798	-0.1792535556	-2.1464839746	 0.108496
H	-0.0262703821	-3.8078946211	 0.1450353405	 0.117419
H	-0.0878873508	-0.2069662677	 2.1403537579	 0.105705
H	 0.1417392472	-4.1008798411	-4.2639307497	 0.197024
