19
gdb 102822	1.77904	1.39388	0.8554	4.0195	73.08	-0.2742	0.0021	0.2762	1365.3327	0.156534	-460.162212	-460.152397	-460.151453	-460.198321	33.997	
C	-0.388121862	 1.35290111	-0.2452241092	-0.403879
C	-0.0793787825	-0.1261584948	-0.0082526046	-0.172669
C	 0.7224784391	-0.3918161798	 1.2682833476	 0.062811
O	-0.0539190669	 0.0330438605	 2.4003180614	-0.187342
C	 0.4713603784	 0.9474212507	 3.2386210741	 0.172421
O	-0.0959425081	 1.3280906973	 4.2172734468	-0.274556
C	 1.0788208712	-1.8611601113	 1.403110636	 0.074963
C	 0.9108246122	-2.6326500705	 2.6397051279	-0.180521
O	-0.0029766642	-2.7743426656	 1.5472076873	-0.228709
H	 0.5296985074	 1.946816432	-0.3254387679	 0.112254
H	-0.9495324485	 1.4854340637	-1.1742630899	 0.124143
H	-0.9895451444	 1.7662038998	 0.5690790192	 0.139947
H	-1.0033503285	-0.7099726298	 0.0545616406	 0.136341
H	 0.4935913186	-0.5321646892	-0.850913604	 0.103911
H	 1.6608812496	 0.1833643898	 1.2449318887	 0.084569
H	 1.4709597319	 1.3008438058	 2.9172289148	 0.079576
H	 1.8448834143	-2.1804569006	 0.6929470813	 0.099228
H	 1.5554004824	-3.4908831421	 2.8236573138	 0.117982
H	 0.49925112	-2.149826796	 3.5218202463	 0.139532
