19
gdb 70762	2.54547	1.62654	1.21888	2.0652	71.19	-0.2389	0.0742	0.3131	1057.8946	0.160071	-460.139971	-460.132042	-460.131098	-460.171982	31.714	
O	-0.0869867572	 1.3668938589	 0.0198157681	-0.468846
C	 0.0256307632	-0.0335597238	 0.0112844207	 0.3488
C	-0.4642163292	-0.7823774633	-1.2146922766	-0.38465
C	-1.2981902042	-0.7361157972	 0.0402098322	 0.06547
O	-1.4351733247	-1.9145833775	 0.778581927	-0.243197
C	-1.3260367778	-1.7225606576	 2.1763540303	 0.016853
O	-0.0154380152	-1.7690290952	 2.6558359486	-0.229364
C	 0.8051436861	-0.6504221173	 2.3419899293	-0.074934
C	 1.1647894223	-0.5867646371	 0.852607569	-0.263164
H	 0.6242008203	 1.724796898	-0.5239757444	 0.281937
H	-0.8142451536	-0.2017791346	-2.0608524953	 0.115526
H	 0.0136329325	-1.7255714157	-1.4549617591	 0.125651
H	-2.180650267	-0.0970819711	 0.0264391993	 0.099329
H	-1.8096394744	-0.7716430825	 2.4586631836	 0.082272
H	-1.8429875832	-2.5659916532	 2.6395722207	 0.113821
H	 0.314011094	 0.2863683607	 2.64841744	 0.103866
H	 1.7067062833	-0.777137299	 2.9487749766	 0.104653
H	 1.4416594296	-1.5928494658	 0.524968116	 0.11698
H	 2.044916345	 0.0546421535	 0.7141588741	 0.088996
