19
gdb 6778	7.47448	0.70993	0.65944	2.5774	69.69	-0.2467	0.0323	0.279	1688.8154	0.162961	-402.232238	-402.221922	-402.220978	-402.269877	34.384	
C	 0.0355862425	 1.5336523958	-0.0766861515	-0.384892
C	 0.0059570602	 0.0151436895	-0.0331009894	-0.027846
O	 0.6772262206	-0.4823719626	-1.1722926148	-0.251068
C	 0.7070287858	-1.8925379604	-1.2250140466	-0.04533
C	 1.4583571993	-2.2927720824	-2.4865091747	-0.331951
C	 1.577567005	-3.806280334	-2.6248532557	 0.413147
N	 2.0905045572	-4.2304774089	-3.8180381005	-0.525296
O	 1.239164971	-4.5820567611	-1.7510961603	-0.358029
H	 1.0671167624	 1.8974590641	-0.0791916889	 0.124486
H	-0.4588407088	 1.9013996029	-0.9804197512	 0.124309
H	-0.4779514657	 1.9508757241	 0.7946660633	 0.114065
H	 0.4908133229	-0.3555928276	 0.8860506764	 0.086256
H	-1.0346748511	-0.3513457473	-0.0145578169	 0.085617
H	 1.2059025975	-2.3132771309	-0.33964463	 0.106062
H	-0.3126421137	-2.3079071049	-1.2409956599	 0.099359
H	 0.9579685646	-1.8738027932	-3.3673364884	 0.123687
H	 2.4633167528	-1.8527233944	-2.465774039	 0.129864
H	 2.4472201744	-3.5905798855	-4.5056934922	 0.257821
H	 2.265980223	-5.2147719632	-3.9357769997	 0.25974
