19
gdb 39546	3.21204	1.98948	1.58025	0.3293	82.1	-0.2293	0.0254	0.2547	894.6927	0.163259	-348.718819	-348.712703	-348.711759	-348.748868	26.895	
C	-0.0031139131	 1.5823081023	 0.0473818057	-0.291232
C	 1.3369163432	 2.2602634481	-0.0778937621	-0.05461
C	 2.4789737071	 1.5892954969	-0.2289111566	-0.078506
C	 2.5015883966	 0.089376851	-0.2902411393	-0.037974
C	 2.2313341278	-0.7234364331	 0.9878867002	-0.070086
C	 0.7098726987	-0.7204342809	 1.1854890578	-0.075023
C	 1.3666741636	-1.7154922899	 0.2532446871	-0.108149
C	 1.2158773599	-0.5979432659	-0.8466671106	-0.092985
C	 0.0915465093	 0.052582231	 0.0142224611	 0.00417
H	-0.4901641357	 1.8945149918	 0.9830530612	 0.104684
H	-0.6682899861	 1.941656035	-0.7525034062	 0.100343
H	 1.3401359773	 3.3476741522	-0.0495873638	 0.082102
H	 3.4213979232	 2.1252465312	-0.3103075816	 0.079252
H	 3.3943630439	-0.290631368	-0.7950640909	 0.06413
H	 2.9025667361	-0.9030279647	 1.8185023432	 0.080234
H	 0.2753561072	-0.9107582356	 2.1593228539	 0.077789
H	 1.3564662404	-2.7947701379	 0.2250617214	 0.087299
H	 1.091914769	-0.7432710813	-1.9178968375	 0.062807
H	-0.8778002883	-0.3902990321	-0.2365889631	 0.065754
