16
gdb 66498	3.68277	1.87185	1.7188	1.6432	72.57	-0.1958	-0.093	0.1027	822.0189	0.124445	-400.563576	-400.557012	-400.556068	-400.593874	27.646	
O	-0.136931143	 1.4181799048	 0.1557803318	-0.469295
C	 0.0570075778	 0.0668299067	 0.0050983256	 0.401021
C	-0.9378776054	-1.0340550234	 0.1048478541	-0.084251
C	-0.205340248	-0.7913495054	-1.2163169183	-0.186767
C	 0.9048198318	-1.8466313784	-1.207842397	 0.016912
C	 1.9760880434	-1.4094923954	-0.4505226592	-0.154238
C	 1.1389880028	-0.8043322336	 0.6419953851	-0.100119
N	-0.025998969	-1.9929892765	 0.7942388777	-0.165966
C	 0.3438093214	-2.9791655537	-0.3217286452	-0.188152
H	 0.4375281497	 1.8800337379	-0.4648246798	 0.292037
H	-2.0122831316	-1.0352070593	 0.2400881661	 0.100668
H	-0.6959326669	-0.4228600049	-2.1068018739	 0.095235
H	 2.7696499879	-2.1038232596	-0.1813768999	 0.107616
H	 1.568237427	-0.5468861154	 1.6074236232	 0.098729
H	-0.5696879377	-3.4671323696	-0.6693426089	 0.117028
H	 1.0776196099	-3.7103415341	 0.0130939484	 0.11954
