21
gdb 36931	4.36638	0.88496	0.78819	1.2367	78.38	-0.2487	0.0907	0.3395	1483.5077	0.183356	-424.209952	-424.201102	-424.200158	-424.245065	32.336	
C	 0.0264833224	 1.5398820238	-0.1668132265	-0.230809
C	-0.1294252883	 0.0347536432	-0.2046409115	 0.03248
C	-0.1196335504	-0.7671302958	 1.0704069953	-0.237744
C	-1.3997888014	-0.6138320067	 0.2868482921	-0.283506
C	 1.4775034667	 2.0083539002	-0.0766655297	 0.125224
C	 1.6527916811	 3.5387949434	-0.1374374073	-0.132076
O	 2.7293574217	 3.7888832369	 0.7515848333	-0.233712
C	 2.5551052762	 2.8474386525	 1.7782518999	 0.026646
O	 2.0681035012	 1.6609758772	 1.1842214974	-0.267552
H	-0.418855347	 1.9808612019	-1.0706688062	 0.096545
H	-0.5251591873	 1.9516382858	 0.6880437494	 0.095353
H	 0.3400019906	-0.4370449931	-1.065014984	 0.079394
H	 0.3735506037	-1.7327499025	 1.0683601524	 0.109019
H	-0.018407824	-0.2207523766	 2.0009090271	 0.117176
H	-2.1719585416	 0.0310940613	 0.6944341852	 0.107024
H	-1.7828622605	-1.4731621226	-0.2525415969	 0.108997
H	 2.0711819052	 1.5260745032	-0.8660566108	 0.079798
H	 1.9249177235	 3.911939888	-1.1266360901	 0.119171
H	 0.7359778454	 4.049777657	 0.1996640834	 0.092211
H	 3.523330741	 2.6568383321	 2.2524296348	 0.11629
H	 1.8336694716	 3.2173094208	 2.5305609029	 0.08007
