22
gdb 13213	4.13742	1.14457	0.9597	1.4584	78.51	-0.2555	0.0717	0.3271	1286.8683	0.199718	-350.199929	-350.190618	-350.189674	-350.234026	34.417	
C	 0.018619054	 1.5837564121	-0.0290747976	-0.381381
C	-0.0214858316	 0.0569102242	 0.0686702585	-0.187018
C	-1.4392433651	-0.5184271058	-0.0441048692	 0.117311
O	-2.0679645322	-0.1349597778	-1.2689157425	-0.434507
C	-1.4755503739	-2.0304317053	 0.1335501537	 0.041327
C	-1.178562684	-2.6389447161	 1.5356251697	-0.232288
C	-2.3234419926	-3.6597914567	 1.2938486928	-0.214923
C	-2.8589619972	-2.7377857357	 0.164968696	-0.228403
H	 1.0464605872	 1.9581913685	-0.0051070081	 0.106571
H	-0.4517721044	 1.9201412545	-0.9566760155	 0.12725
H	-0.5246695558	 2.0445881829	 0.8034053241	 0.112805
H	 0.597513802	-0.3860868515	-0.7259036586	 0.081302
H	 0.419934235	-0.2742308042	 1.0170641999	 0.100308
H	-2.0689721793	-0.0614864979	 0.7323959177	 0.076469
H	-1.5732217411	-0.5454052677	-1.9873344685	 0.27388
H	-0.8272979558	-2.4962761416	-0.6222427494	 0.05416
H	-0.1750500844	-3.028675908	 1.7224529867	 0.095039
H	-1.4286354018	-1.9320538604	 2.3344340935	 0.098717
H	-1.9432440677	-4.6067973318	 0.8998802576	 0.100013
H	-2.9905609184	-3.8787990023	 2.1308231285	 0.095793
H	-3.638300203	-2.058669857	 0.5245431077	 0.103398
H	-3.2129351299	-3.2083992624	-0.7548469971	 0.094176
