18
gdb 92967	2.70223	1.47412	1.03509	1.6505	74.87	-0.2347	-0.0063	0.2284	1149.8059	0.149301	-435.326114	-435.317383	-435.316439	-435.359809	32.302	
C	 0.0089108194	 1.5798809779	-0.0248421883	-0.401621
C	 0.0069852072	 0.0530494737	 0.0425482458	 0.024136
C	 0.7983647438	-0.6241555384	-1.1163959694	-0.189433
N	 2.0376684626	-1.1744535743	-0.5331159417	-0.262381
C	 1.925084685	-1.0574410071	 0.7280877015	 0.072301
N	 0.7651667236	-0.4553703268	 1.207674507	-0.131513
C	 0.3173941027	-0.3221421132	 2.5113042448	 0.450976
N	 1.1021662101	-0.9436399694	 3.4717342666	-0.56491
O	-0.672595683	 0.327252518	 2.7893981045	-0.389249
H	 1.0331642246	 1.9624991454	-0.0881242803	 0.120823
H	-0.5339165885	 1.9099672995	-0.9167360968	 0.116621
H	-0.4746471046	 2.0008761202	 0.8578714084	 0.154747
H	-1.0216310029	-0.3094888996	 0.1099342917	 0.105731
H	 0.2370952909	-1.4391490343	-1.5880631855	 0.117269
H	 1.0474301888	 0.0940068091	-1.9037307052	 0.118967
H	 2.6905819931	-1.3746561362	 1.428277515	 0.135296
H	 1.5463128897	-1.8184416526	 3.2382954232	 0.256309
H	 0.6545889579	-0.9410023518	 4.3763166989	 0.265933
