15
gdb 14428	4.18897	1.89554	1.69656	3.4907	59.83	-0.2214	0.0635	0.285	783.5503	0.120209	-399.713995	-399.707598	-399.706654	-399.744144	26.04	
O	 0.0312048102	 1.4202788204	-0.0147613767	-0.448705
C	 0.0068152447	 0.0267926098	-0.0242502966	 0.216907
C	-1.3209354482	-0.7365844505	-0.0954560205	-0.178088
C	-1.6691321684	-0.8141456987	-1.6004956247	-0.139087
N	-0.62381899	-0.0158746952	-2.2823834707	-0.330284
C	 0.3595530232	-0.6828403316	-1.3617620293	-0.190571
C	-0.7189319294	-1.803125951	-0.9759986399	 0.34741
O	-0.6906939624	-3.1523299974	-0.7518237419	-0.442811
H	-0.3281356713	 1.6785414588	-0.8770724706	 0.284521
H	 0.6232825399	-0.3365550937	 0.8014610966	 0.093143
H	-2.0877263291	-0.8563801053	 0.6587748252	 0.096237
H	-2.6897715972	-0.8957181769	-1.9506510967	 0.102209
H	-0.4949625941	-0.3854391408	-3.2221683868	 0.218996
H	 1.3834173619	-0.7906051031	-1.7136924956	 0.07784
H	-0.5856419199	-3.6050057948	-1.5966321519	 0.292282
