23
gdb 116955	7.16091	0.45497	0.44216	0.1111	96.81	-0.2385	0.0594	0.2979	2575.1284	0.204423	-351.125662	-351.114873	-351.113928	-351.163933	38.205	
C	-0.0291649815	 1.5395790531	-0.1385878664	-0.381155
C	-0.0069321073	 0.0162416006	 0.0011741593	-0.151248
C	-1.416201761	-0.6035634093	-0.0937063082	-0.333507
C	-1.4176755105	-2.0571742837	 0.0328534447	 0.033715
C	-1.3847744758	-3.2570107797	 0.1375272186	 0.109799
C	-1.3844686437	-4.7126644806	 0.2694620832	-0.377327
C	-2.7761705626	-5.3240016241	 0.1824778855	 0.04917
C	-3.3769316383	-5.6499501227	-1.1578220422	-0.245901
C	-2.93857295	-6.7623768598	-0.2343078611	-0.278727
H	 0.979238334	 1.9584179542	-0.0682975847	 0.113316
H	-0.4495578387	 1.8440616907	-1.1036915538	 0.114792
H	-0.637175295	 2.0022076269	 0.6470514434	 0.114723
H	 0.6261853395	-0.4249384937	-0.7768065014	 0.107028
H	 0.4405961368	-0.268428749	 0.9600021955	 0.107031
H	-2.0552159503	-0.1642287575	 0.6847805195	 0.121096
H	-1.8721096135	-0.3155092239	-1.0510202562	 0.121434
H	-0.7513197135	-5.1546229455	-0.5122193895	 0.118273
H	-0.9202165452	-4.9947620349	 1.2245570393	 0.123983
H	-3.4631220919	-4.9580035349	 0.9397807467	 0.090295
H	-4.4389899421	-5.4870093953	-1.3028922832	 0.110891
H	-2.7753415199	-5.4576179781	-2.0403144132	 0.112662
H	-2.0447499396	-7.3183171349	-0.4997376899	 0.108924
H	-3.69994165	-7.3596141777	 0.2551719039	 0.110733
