17
gdb 20794	3.12562	1.75908	1.22463	3.3749	70.72	-0.2415	-0.0032	0.2383	1009.4195	0.141862	-363.875403	-363.867189	-363.866245	-363.908946	29.063	
C	-0.3994562491	 1.4609749798	 0.0391089978	-0.365508
C	 0.0551213327	-0.0086610837	 0.0533074822	-0.312963
C	 0.7751507927	-0.4214328393	-1.1958939022	 0.07501
C	 2.1064576404	-0.648915843	-1.3977349895	 0.344327
C	 3.3022286712	-0.6009425959	-0.5135991282	-0.493887
O	 2.3277436137	-0.9865098964	-2.6844744535	-0.212553
N	 1.12011453	-0.9895232969	-3.3772902456	-0.145049
C	 0.2204631156	-0.6546158108	-2.488965682	-0.032487
H	 0.4574403768	 2.1346012572	-0.058098318	 0.121548
H	-1.0714195665	 1.6579077746	-0.8022440926	 0.122452
H	-0.9311883683	 1.7137534954	 0.9616886036	 0.11527
H	 0.7020896624	-0.1801861738	 0.920792233	 0.105412
H	-0.8197588017	-0.654184417	 0.1992017188	 0.113321
H	 3.0083232224	-0.3793160688	 0.5142155543	 0.138794
H	 3.8350074405	-1.5573147162	-0.5238963277	 0.150859
H	 4.0057001518	 0.1707606336	-0.8440829108	 0.150365
H	-0.8158693445	-0.5915501488	-2.7935154094	 0.125088
