24
gdb 57425	2.60084	1.13995	1.07366	2.6763	85.95	-0.2433	0.0671	0.3104	1328.8042	0.214772	-405.544638	-405.533969	-405.533025	-405.579158	41.41	
C	-1.0582549453	-0.1621270186	 0.6284795355	-0.39968
C	-1.0926543032	-1.2460649957	-0.4514073023	 0.349689
C	-0.8297973895	-2.6337575542	 0.16334376	-0.406499
O	-2.3950705846	-1.235963176	-1.0255655289	-0.467443
C	-0.0354231556	-0.9860917654	-1.5340909149	-0.091144
N	-0.4396147109	-1.3620883352	-2.901877675	-0.395723
C	-0.0815109386	 0.0464739228	-2.611651359	 0.331527
C	-1.2025906483	 1.0587913027	-2.7489266175	-0.457047
C	 1.2520256518	 0.5358229737	-3.1481110511	-0.454178
H	-0.0766338099	-0.122342817	 1.1115037373	 0.105814
H	-1.2752234459	 0.8187981743	 0.1992378012	 0.120916
H	-1.8094029419	-0.3741163559	 1.3951724396	 0.12133
H	-1.6182034704	-2.871680051	 0.8825412153	 0.119478
H	-0.8363332579	-3.402669878	-0.6163040361	 0.111424
H	 0.1364923931	-2.6749691882	 0.6783879538	 0.102115
H	-2.2780452759	-1.5989445961	-1.9181184463	 0.284464
H	 0.9679043918	-1.2734998697	-1.2202857673	 0.071316
H	 0.3063125282	-1.8416131542	-3.3982868105	 0.227878
H	-2.134084452	 0.6806849986	-2.3309030056	 0.149354
H	-0.9405211228	 1.9880681915	-2.2305216138	 0.111452
H	-1.3582641256	 1.3037546974	-3.8060709968	 0.109355
H	 1.1717668459	 0.7855951625	-4.2127536407	 0.121453
H	 1.5789765889	 1.4398367511	-2.6229008107	 0.125424
H	 2.0357353188	-0.2205479694	-3.0338175264	 0.108727
