21
gdb 89725	2.66327	1.35084	1.00327	1.7603	86.02	-0.2314	0.0171	0.2486	1260.2466	0.18167	-387.097728	-387.08859	-387.087646	-387.131731	34.737	
C	 0.0666922514	 1.603225626	-0.0562822543	-0.394038
C	-0.0081915795	 0.0739209159	 0.0332194223	-0.02346
C	 0.6156346845	-0.6621127348	-1.184493543	-0.3298
C	 1.4230601538	-1.8151135193	-0.5882902719	 0.37252
C	 1.499566995	-3.1628846034	-1.1783163254	-0.252203
O	 2.5979620328	-2.2561122109	-1.2909512215	-0.282492
C	 1.5357396115	-1.5418443991	 0.8775612312	 0.256252
C	 2.4223871129	-2.35509305	 1.7657359363	-0.506175
C	 0.7555236818	-0.5079598529	 1.202952536	-0.181554
H	 1.1062090455	 1.93761782	-0.1428390822	 0.118273
H	-0.4822441959	 1.9739092312	-0.9284508614	 0.113819
H	-0.3647723097	 2.0730042285	 0.8341644989	 0.111572
H	-1.0689789292	-0.2029710655	 0.1247529401	 0.079672
H	-0.1305668278	-0.9957456588	-1.9100362648	 0.101583
H	 1.309955446	 0.0014294327	-1.7116482357	 0.118451
H	 1.6745962762	-4.0350724303	-0.5489330091	 0.10784
H	 0.9623640209	-3.3665057385	-2.1047650799	 0.109842
H	 3.4256854018	-2.4336685933	 1.3336484187	 0.144338
H	 2.5006499337	-1.9152709911	 2.7629752812	 0.12306
H	 2.0457211286	-3.3795364412	 1.8798910874	 0.125238
H	 0.6466612656	-0.1129777152	 2.208804867	 0.087261
