15
gdb 54776	4.21749	1.11605	0.98544	3.6085	67.92	-0.2506	-0.0168	0.2338	1150.0604	0.1133	-453.915503	-453.907674	-453.90673	-453.94941	29.012	
N	 0.6161529537	 0.442639804	-0.8151858811	-0.524789
C	-0.0088268035	 0.0671502257	 0.3277472494	 0.360926
O	 0.2678490165	 0.5162456395	 1.4244878243	-0.358296
C	-1.1229636162	-0.981071388	 0.2181216127	-0.046716
C	-2.227052659	-0.8941023824	-0.8875452858	-0.177948
N	-1.174415609	-1.3992500059	-1.8761527789	-0.334054
C	-0.9503986731	-2.2764474031	-0.6428929612	-0.177927
C	-2.4947440348	-2.3917811706	-0.5943621189	 0.450998
O	-3.3717434843	-3.192034413	-0.5396089309	-0.311327
H	 1.3481016522	 1.1303771595	-0.7470539654	 0.256785
H	 0.3425205254	 0.0340205796	-1.6961334809	 0.270066
H	-1.4924306157	-1.1432393425	 1.2298974242	 0.119205
H	-2.8911571842	-0.06509226	-1.1220689469	 0.116509
H	-1.6021802356	-1.9293626918	-2.6392224268	 0.240053
H	-0.1598994525	-3.0224016712	-0.5986640438	 0.116515
