23
gdb 123019	4.44299	0.59877	0.56684	1.7979	83.67	-0.227	0.0751	0.3021	2055.1128	0.203575	-425.399997	-425.389374	-425.38843	-425.436764	38.384	
C	-0.0053393244	 1.4706877915	 0.2164670055	-0.379957
C	-0.1806430705	-0.0331667668	 0.4436023024	-0.166107
C	 0.9975568263	-0.6629364997	 1.1940425546	-0.181545
C	 0.8218423046	-2.1577794858	 1.4145971651	-0.071533
O	 1.972656933	-2.6540562191	 2.0989061826	-0.267813
C	 1.9073435472	-4.0315354194	 2.3349549042	 0.077634
C	 2.8392694039	-4.5523569289	 3.3974679783	-0.36411
C	 1.3559352981	-4.4334081324	 3.6808270722	 0.12143
O	 0.8854860106	-3.4240773561	 4.5210768754	-0.433075
H	 0.896732099	 1.6797121674	-0.3689926478	 0.116317
H	-0.8583558138	 1.8939917092	-0.3226307476	 0.113406
H	 0.0871593395	 2.0063359235	 1.1676133996	 0.116481
H	-1.108011538	-0.2131599112	 1.0030272118	 0.099679
H	-0.3075962479	-0.5368298476	-0.523834113	 0.097828
H	 1.9294998826	-0.4983059553	 0.6395355034	 0.107151
H	 1.1251229537	-0.172609237	 2.1676706805	 0.100088
H	-0.0845763769	-2.3670717067	 2.0018454602	 0.104686
H	 0.7163713573	-2.6790487195	 0.4495615578	 0.093369
H	 1.710513779	-4.6344291325	 1.4484981692	 0.08599
H	 3.2822339596	-5.5327326884	 3.2594135375	 0.114749
H	 3.4839006392	-3.8198707089	 3.8724009813	 0.124646
H	 0.7621731877	-5.3361634235	 3.7776518227	 0.103029
H	 1.2261181702	-2.595861963	 4.1569095041	 0.287659
