13
gdb 131078	5.26653	0.84142	0.75778	2.6012	61.7	-0.2877	-0.0541	0.2336	1376.508	0.087803	-489.87055	-489.862648	-489.861704	-489.904877	26.754	
O	 0.2496369412	 0.234404878	-0.6546245561	-0.252286
C	 0.4654339663	 1.2175427363	-0.0207280933	 0.17977
O	 0.5870165885	 2.4396825452	-0.5984002463	-0.170759
C	 0.8922416248	 3.5432279478	 0.2448818416	-0.202139
C	 2.3043932123	 3.9769069425	 0.025971223	 0.38981
C	 3.2850087358	 3.5397124067	-0.809034772	-0.194307
N	 4.3821398836	 4.3342391361	-0.5663992214	-0.093966
N	 4.1465176846	 5.1854896089	 0.3168084924	-0.000941
O	 2.7660720067	 4.9892028446	 0.7481859958	-0.22438
H	 0.5796523012	 1.2530927462	 1.0799700746	 0.092756
H	 0.2016989733	 4.3542417606	-0.0076553554	 0.165784
H	 0.7340358169	 3.29222521	 1.3024425627	 0.146921
H	 3.2872558548	 2.7525194469	-1.5414980854	 0.163736
