14
gdb 4586	5.76514	1.53527	1.21404	2.4664	68.55	-0.1966	-0.0169	0.1797	928.7366	0.109958	-378.789702	-378.782992	-378.782048	-378.820241	26.277	
N	-0.0402963173	 1.4083540319	 0.1853427186	-0.59533
C	 0.0122384007	 0.0125729485	 0.0494354484	 0.258996
C	-1.1469146714	-0.7605949786	-0.0260172148	-0.059192
N	-1.1503312352	-2.0961793421	-0.0888080916	-0.35431
C	 0.0139017795	-2.7269237764	-0.0835664736	 0.41678
O	-0.0001189755	-4.0811868907	-0.150299281	-0.427375
C	 1.2422298115	-2.0628262522	-0.0167981178	-0.195646
C	 1.2314367266	-0.6814177052	 0.0520679976	-0.126962
H	 0.7540726802	 1.8880512917	-0.2155115842	 0.245251
H	-0.9003170123	 1.8163466381	-0.1553639818	 0.245715
H	-2.1226583649	-0.2776525851	-0.0335253214	 0.094759
H	-0.933186836	-4.3308657148	-0.1882627309	 0.293585
H	 2.1659696909	-2.6280297632	-0.0196333517	 0.107952
H	 2.1662154632	-0.131449272	 0.1119307942	 0.095776
