17
gdb 29401	4.56406	0.82976	0.76444	2.6985	77.85	-0.2188	-0.0265	0.1924	1493.7823	0.134462	-421.871808	-421.862887	-421.861942	-421.907017	31.373	
C	 0.0566528679	 1.5729727067	 0.0807645728	-0.500589
C	 0.0118812493	 0.0768924093	 0.05744939	 0.269679
C	-0.1272606484	-0.7287661923	-1.0282063247	-0.114916
O	-0.119174198	-2.0440911347	-0.6676866478	-0.1839
C	 0.0313654161	-2.0836984082	 0.6877964805	 0.351254
C	 0.0268913863	-3.4331281594	 1.3198119629	-0.383782
C	-1.3871723653	-3.9884543696	 1.4720440089	 0.161697
O	-1.808514734	-4.497997435	 2.4756388087	-0.23189
C	 0.1102357812	-0.8180524461	 1.1799633282	-0.374967
H	 1.0008586571	 1.9394783971	 0.4990583963	 0.132181
H	-0.0444515952	 1.9868138903	-0.926283517	 0.126261
H	-0.7498863863	 1.9888547189	 0.6949973498	 0.132804
H	-0.2331839149	-0.532690824	-2.0827841756	 0.132468
H	 0.5887345828	-4.1354704034	 0.6884086311	 0.141498
H	 0.4960847846	-3.4076513604	 2.3055278678	 0.138584
H	-2.017291165	-3.882637603	 0.5612345852	 0.090901
H	 0.2288684621	-0.545800686	 2.217959443	 0.112717
