21
gdb 109042	2.91613	1.28528	1.02503	2.0184	83.73	-0.2337	0.0066	0.2402	1242.5314	0.182246	-387.089281	-387.080349	-387.079405	-387.12291	34.119	
C	-0.3760698072	 1.4089151691	-0.0596943382	-0.377117
C	 0.1948888914	-0.0167907572	 0.0411605785	-0.29017
C	 0.873450924	-0.4825557719	-1.2133257188	 0.332565
C	 2.1502830616	-0.8710832038	-1.3266732989	-0.221361
C	 2.4400959185	-1.3519899359	-2.7064760457	 0.005206
O	 1.6399654009	-2.5006577753	-3.0936497566	-0.263336
C	 1.196604991	-1.1956960402	-3.4735701409	 0.030154
C	 0.1337596438	-0.5977776196	-2.5511714962	-0.115537
C	-1.1496527046	-1.4405014037	-2.4939860225	-0.398462
H	 0.4137959315	 2.1310345126	-0.2891680796	 0.121138
H	-1.1357172309	 1.4845388516	-0.8442681673	 0.121004
H	-0.8437456042	 1.7055693465	 0.8838944009	 0.115516
H	 0.9067784876	-0.0693149199	 0.872250927	 0.103665
H	-0.6221131787	-0.7067329416	 0.2936929316	 0.111407
H	 2.8766595742	-0.8806862262	-0.522285193	 0.092799
H	 3.4332823915	-1.3210667702	-3.143790183	 0.093366
H	 1.1662819601	-1.0074965214	-4.5441606352	 0.089463
H	-0.1224167613	 0.4071107801	-2.9165331367	 0.081882
H	-0.9108201465	-2.4643071629	-2.1944160595	 0.138565
H	-1.8710310016	-1.0277269763	-1.7824133796	 0.114161
H	-1.6339456212	-1.4751686237	-3.4750490161	 0.115092
