23
gdb 100647	2.43642	1.07956	0.95461	1.8692	87.75	-0.2518	0.0622	0.314	1404.6127	0.201337	-388.262838	-388.251327	-388.250383	-388.29886	42.756	
C	-0.0724113892	 1.6346344472	-0.0017018123	-0.380388
C	 0.0099145978	 0.1042470527	 0.0189618805	-0.218633
C	-1.3775303348	-0.5521981099	-0.0361762723	 0.135635
O	-2.0859655895	-0.1417779385	-1.1986687397	-0.432226
C	-1.3807586979	-2.1152029002	 0.1039746347	 0.038704
C	-0.6745965895	-2.7960225045	-1.09096698	-0.427701
C	-0.7049711318	-2.5488362834	 1.4262374392	-0.416807
C	-2.7809740656	-2.5559264104	 0.1401036164	 0.36087
C	-3.9183155518	-2.9408651457	 0.1979286247	-0.494126
H	 0.9260798371	 2.0818008438	-0.006298049	 0.108839
H	-0.6130196615	 1.9835364583	-0.8848470924	 0.12741
H	-0.6038468071	 2.0096518987	 0.8797875832	 0.116853
H	 0.6111645182	-0.2427413076	-0.8329162785	 0.089805
H	 0.539299231	-0.2200919946	 0.9204815009	 0.103622
H	-1.9768214796	-0.1658214549	 0.7973363105	 0.093171
H	-1.5360576853	-0.3344897376	-1.9656486491	 0.27868
H	 0.3826973011	-2.5174861126	-1.1351365503	 0.114694
H	-0.7336211643	-3.8831080845	-0.9933185407	 0.12903
H	-1.1532136215	-2.5287090977	-2.0372279508	 0.118143
H	-1.1280681938	-2.0089633594	 2.2788964648	 0.122867
H	-0.8635437826	-3.6170604523	 1.5953117612	 0.126083
H	 0.3730403635	-2.3672706381	 1.3987383599	 0.115332
H	-4.9282419429	-3.2662814788	 0.2369402993	 0.190143
