21
gdb 93030	2.29811	1.81107	1.37758	1.4457	82.09	-0.235	0.0138	0.2488	1034.3461	0.185399	-387.081918	-387.074099	-387.073155	-387.113875	32.061	
O	-0.0331076583	 1.3582245226	-0.3421488632	-0.435187
C	 0.0265272833	-0.0230145791	 0.0025550437	 0.120673
C	 0.7724966643	-0.2388883869	 1.3396278235	-0.292637
C	-0.0004411498	-0.0677221556	 2.6294542154	-0.073428
C	-1.2667724084	-0.4226212265	 2.8600227204	-0.061738
C	-2.2277946068	-0.9915237847	 1.8487777561	-0.037836
C	-1.5760353549	-1.9279682005	 0.7845035881	-0.246768
C	-1.3641779531	-0.6818266408	-0.1237225586	-0.015931
C	-2.4983107556	 0.0122795639	 0.6846503138	-0.22449
H	-0.5215450632	 1.8099077418	 0.3544088334	 0.279629
H	 0.6644328651	-0.457336058	-0.7762342396	 0.084683
H	 1.2237120187	-1.2411505628	 1.3312973363	 0.114197
H	 1.6182989822	 0.4565732862	 1.3278836486	 0.109345
H	 0.5689490665	 0.348487849	 3.4578297525	 0.086646
H	-1.6702850275	-0.2544973738	 3.8561522485	 0.083389
H	-3.1117903712	-1.3876352971	 2.3538633289	 0.062504
H	-0.7037853707	-2.5120899285	 1.0852920523	 0.09914
H	-2.3193689736	-2.6071991386	 0.3583486869	 0.097148
H	-1.5788051264	-0.8145189657	-1.1870551748	 0.07057
H	-3.4707910648	-0.1585938779	 0.2143586733	 0.098809
H	-2.4115657457	 1.0772788829	 0.9164336543	 0.081282
