21
gdb 115669	2.23327	1.19446	0.96256	2.5663	78.78	-0.2432	-0.0161	0.2271	1328.4161	0.180758	-424.23126	-424.221167	-424.220223	-424.267121	36.201	
C	-0.3017365967	 1.4555457833	 0.6425437488	-0.481465
C	 0.037218718	 0.2018900516	-0.1433557944	 0.380399
O	 1.1381188594	 0.022893647	-0.617065024	-0.309085
C	-1.0706969208	-0.8253449243	-0.2858987355	-0.099497
C	-0.906203484	-1.9267780091	-1.3600748541	-0.233839
C	-1.3815102935	-2.9858296625	-0.3326504528	-0.235687
C	-1.1498338277	-1.9593282465	 0.8154634227	-0.017849
C	 0.1305817687	-2.2009597838	 1.6122849515	-0.082472
O	 0.0086620488	-3.3287009779	 2.4657709303	-0.425156
H	 0.5993316831	 2.0425809258	 0.8242203957	 0.142217
H	-1.0201869694	 2.0600210932	 0.0757287548	 0.142111
H	-0.7852849934	 1.2017360207	 1.5924232536	 0.138474
H	-2.0370161538	-0.3157233753	-0.3487440529	 0.077346
H	-1.4957246157	-1.8144525435	-2.2722505399	 0.100886
H	 0.1463240088	-2.0337329055	-1.6298980545	 0.129581
H	-2.4363208261	-3.2461736565	-0.4496368564	 0.105815
H	-0.8075732298	-3.9176861879	-0.2843936864	 0.086682
H	-1.9781175417	-1.8513188425	 1.5206420156	 0.080014
H	 0.9940253412	-2.2956651853	 0.9374865211	 0.110348
H	 0.3338896689	-1.3525212867	 2.2751001744	 0.108214
H	-0.0957549441	-4.1074294542	 1.9097589227	 0.282965
