17
gdb 45160	3.03096	1.85745	1.61254	3.5079	72.98	-0.237	0.0175	0.2545	883.5896	0.140404	-418.01719	-418.010988	-418.010044	-418.047584	26.038	
N	-0.071013209	 1.2666303883	-0.310882735	-0.549913
C	-0.013218127	 0.0399261043	 0.0007486759	 0.411497
O	 1.1646479314	-0.6254437661	 0.1971646633	-0.264683
C	 1.0084651761	-2.0210531796	 0.516508098	 0.067735
C	 0.1521140009	-2.154004404	 1.7844212106	-0.252102
C	-1.224621471	-1.8616362329	 1.2120212969	-0.047293
C	-1.2443559636	-0.7738730145	 0.1838818638	-0.090606
N	-1.2499625986	-2.2030053975	-0.2239399501	-0.125157
C	 0.1137150626	-2.6625866946	-0.5525471101	-0.176586
H	 0.8703655369	 1.6583952448	-0.3787111805	 0.219022
H	 2.0162946368	-2.4272812389	 0.5932688333	 0.096714
H	 0.2023613866	-3.171543403	 2.1859705906	 0.116318
H	 0.4652187023	-1.4546902867	 2.5637017672	 0.126208
H	-2.1196013495	-2.0750995414	 1.7862680293	 0.104545
H	-2.1607565535	-0.2359981823	-0.0253406735	 0.119925
H	 0.395153413	-2.3592617189	-1.5640992727	 0.127677
H	 0.1360880557	-3.7552491569	-0.4894949069	 0.116702
