16
gdb 5931	4.04586	1.19615	1.15989	2.7072	62.23	-0.2703	-0.0461	0.2242	1068.9416	0.125857	-420.910028	-420.900726	-420.899782	-420.944726	31.758	
C	-0.0864700737	 1.6466066889	 0.0169668187	-0.425898
C	-0.0529339663	 0.1164626675	 0.0166864761	 0.251658
C	 0.8221152011	-0.4619574693	 1.1384527863	-0.421411
O	-1.3833951366	-0.4617616452	 0.0405223065	-0.232875
C	-2.2054933222	-0.2241870075	 1.0793707896	 0.16844
O	-3.3055874978	-0.6870462033	 1.1370568867	-0.271337
C	 0.5110281442	-0.3855918024	-1.3208581763	 0.143142
O	 1.5271251409	 0.0361321002	-1.802858782	-0.250731
H	 0.9006255544	 2.0167590438	-0.2695896162	 0.155247
H	-0.8178902956	 2.0134834335	-0.7081841347	 0.141062
H	-0.3366837655	 2.0462421023	 1.0031413313	 0.124957
H	 0.4874053392	-0.1150677048	 2.1199913156	 0.129056
H	 0.7926366668	-1.555210248	 1.1276649513	 0.141089
H	 1.8554538836	-0.1380190836	 0.9911017119	 0.151688
H	-1.7712353279	 0.4291334748	 1.8555112737	 0.083891
H	-0.0936407446	-1.1881755368	-1.7923930685	 0.112023
