19
gdb 40383	4.30651	1.20019	1.12256	2.8275	79.16	-0.1968	0.0702	0.2671	1140.7785	0.160928	-381.952419	-381.944954	-381.94401	-381.984378	30.194	
C	 0.341916388	 0.1471441578	-0.9165105726	-0.233466
N	-0.5336863609	 1.2248179021	-0.4214391918	-0.323834
C	 0.4019158001	 0.5723387944	 0.5092408377	-0.180904
C	-0.2199205657	-0.2247434745	 1.5926510177	 0.405204
N	-1.6105140561	-0.7220815248	 1.4872314567	-0.392492
C	-1.2076589139	 0.1439066817	 2.6277807515	-0.121287
C	-0.4624162854	-0.7197804687	 3.6876387544	-0.057436
C	-0.3178573547	-2.156102901	 3.2583692779	-0.289291
C	 0.5569651903	-1.1063573355	 2.6247435684	-0.124843
H	-0.1760581843	-0.7710553221	-1.1762179906	 0.131581
H	 1.172298104	 0.4075288498	-1.5670462449	 0.114697
H	-0.176010923	 2.1323910046	-0.70445962	 0.236446
H	 1.2875608552	 1.1324828709	 0.8066125766	 0.087022
H	-2.0584770022	-0.102313835	 0.8086305743	 0.24301
H	-1.7056365727	 1.0874252684	 2.8105702594	 0.092866
H	-0.279791845	-0.3848105966	 4.7001248915	 0.085575
H	 0.1935261822	-2.789014213	 3.9774347125	 0.10308
H	-1.0986934885	-2.6381217706	 2.6846828792	 0.141652
H	 1.6370833527	-1.1123606978	 2.698838232	 0.082418
