21
gdb 39025	3.00135	1.66112	1.24534	0.4392	88.11	-0.2124	0.0244	0.2369	1069.7737	0.18577	-349.96899	-349.961677	-349.960733	-350.000371	30.538	
C	-0.0275890295	 1.470774871	 0.0700974183	-0.328013
C	 1.3120769849	 0.7734356892	 0.00747717	-0.138301
C	 1.975943837	 0.412509107	 1.3458854462	-0.264968
C	 0.995406262	-0.5482709119	 2.003571928	-0.263186
C	-0.0378250044	-0.8042725588	 1.2001591364	 0.343302
C	-1.1881631164	-1.7792763369	 1.1360733167	-0.342322
C	-1.800893463	-1.5341512742	-0.2772763494	-0.200831
C	-0.677413264	-0.8708800292	-1.1221435918	-0.338217
C	 0.034136595	-0.0337529084	-0.0776164915	 0.33503
H	-0.3634879841	 1.8910743463	 1.0141400355	 0.104245
H	-0.3137734245	 2.0410507072	-0.8094374863	 0.101636
H	 1.9402780007	 0.95917118	-0.8565438915	 0.081916
H	 2.9481129105	-0.0757703865	 1.1897402517	 0.102603
H	 2.1786730747	 1.3031757654	 1.9560706081	 0.104318
H	 1.1712629351	-0.9740917322	 2.9852297471	 0.083587
H	-0.825901449	-2.8090748009	 1.2385873191	 0.113682
H	-1.9282823916	-1.6309255376	 1.9294773841	 0.111194
H	-2.1875518116	-2.4497917697	-0.732613496	 0.094082
H	-2.6407449019	-0.8361465501	-0.1919751316	 0.105207
H	-0.0062580844	-1.6394746879	-1.5265351712	 0.099337
H	-1.0718888054	-0.2971542517	-1.965147152	 0.095698
