16
gdb 49021	3.08837	1.59509	1.30961	2.3543	68.29	-0.2469	-0.0448	0.2021	970.6059	0.12401	-437.803453	-437.796227	-437.795283	-437.83525	27.785	
O	-0.8250104624	 1.0254820954	 0.396078957	-0.255931
C	 0.2536430146	 0.825330909	-0.1059735421	 0.09157
C	 1.3973003695	 1.7883799062	-0.0213552236	 0.193476
C	 1.3883173594	 2.8553125546	 1.0854719556	-0.147075
O	 1.6494985136	 3.9187146514	 0.1267903891	-0.290435
C	 1.5643418018	 2.9987525521	-0.9733159232	 0.06549
C	 2.882458242	 2.3671154941	-1.4458300722	-0.042661
C	 3.8023236599	 2.1279071679	-0.3244853579	-0.252081
N	 2.696256396	 1.1693206613	-0.5098497236	-0.197291
H	 0.4749455797	-0.0933348119	-0.6888010694	 0.095682
H	 0.3948012632	 2.9558042692	 1.5333508067	 0.138009
H	 2.1536714821	 2.7883029888	 1.8650975277	 0.116841
H	 0.8418446858	 3.2925887239	-1.7368943905	 0.102878
H	 3.1605748514	 2.230264146	-2.4858954905	 0.1048
H	 4.7631952021	 1.6819665039	-0.5609953516	 0.133719
H	 3.8137155014	 2.8104776079	 0.5176207385	 0.143007
