14
gdb 99422	1.70415	1.52872	1.3399	4.7441	74.06	-0.2903	-0.0312	0.2591	1096.742	0.096048	-399.450284	-399.440563	-399.439618	-399.484686	34.369	
C	-0.0595412243	 1.3959206022	-0.0661939719	-0.254881
O	 0.0055637813	-0.0250644443	 0.0053570485	-0.23878
C	 0.6834269996	-0.5403077115	 1.140535969	-0.152207
C	 2.1030078611	-0.1327165873	 1.1795894741	 0.354719
C	 3.2525137757	 0.2113553524	 1.1916489525	-0.446077
C	 0.0211972957	-0.1666929006	 2.4072980842	 0.354933
C	-0.5323367261	 0.149432341	 3.4239388892	-0.446239
C	 0.6177476342	-2.0185458726	 0.9883793899	 0.314673
N	 0.5781591005	-3.1672155216	 0.8883603491	-0.330135
H	 0.9414003577	 1.8396667087	-0.1192263148	 0.130673
H	-0.6054209514	 1.61542264	-0.9845311004	 0.145103
H	-0.5995568416	 1.8149242153	 0.7907939658	 0.130677
H	 4.2732298577	 0.5078175824	 1.2067627412	 0.218762
H	-1.0191782102	 0.4193910559	 4.3295259035	 0.218778
