19
gdb 121524	5.81223	0.47387	0.44299	2.5381	85.15	-0.2547	-0.0461	0.2086	2428.072	0.155306	-423.008415	-422.997332	-422.996388	-423.047668	36.5	
C	-0.0547787801	 1.3625058604	 0.0765874842	-0.232039
O	-0.020272191	-0.0439893961	-0.0007909453	-0.227971
C	 0.6525497622	-0.5146220267	-1.1432790115	-0.044367
C	 0.612369781	-2.0467421462	-1.0941578179	-0.362145
C	 1.2797089888	-2.6631594604	-2.2291663628	 0.025504
C	 1.8427624908	-3.1381483403	-3.1860712045	 0.058542
C	 2.5171231914	-3.7153744216	-4.3334341267	 0.249104
C	 2.5236005788	-5.2299901202	-4.3907830231	-0.476994
O	 3.0365383618	-3.0221667029	-5.1826236465	-0.277726
H	 0.9575896647	 1.793174127	 0.1231348749	 0.109025
H	-0.5771131747	 1.8055393871	-0.7856352161	 0.109004
H	-0.5934937834	 1.6251524648	 0.9898970468	 0.130862
H	 0.1701135762	-0.1543408606	-2.0660119268	 0.103953
H	 1.6973797817	-0.1654089111	-1.1621058428	 0.104033
H	 1.0759934346	-2.3828818106	-0.158657454	 0.149119
H	-0.4342825789	-2.3720431197	-1.0519174117	 0.14902
H	 1.4964362941	-5.6104007373	-4.3986165638	 0.145499
H	 3.0518689141	-5.5598320214	-5.2865110356	 0.142069
H	 3.007926878	-5.6380749343	-3.4970565069	 0.145511
