14
gdb 45463	2.8449	1.71808	1.23487	6.0968	62.24	-0.2427	-0.0822	0.1605	965.4384	0.102122	-473.835246	-473.828223	-473.827278	-473.867074	26.281	
O	 0.0001243928	-0.0036872259	 0.0849009001	-0.302946
C	 0.0058151605	 1.1853552029	 0.0082157192	 0.339165
O	-1.1219377003	 1.9409548646	-0.0987808615	-0.227838
C	-0.8483993131	 3.3501717623	-0.1639556504	 0.09525
C	-1.0566975895	 4.0684150982	 1.1833082842	-0.183403
N	 0.3785954372	 3.8540291021	 1.4799641041	-0.312937
C	 0.6727537855	 3.5306505329	 0.0588917946	-0.162917
C	 1.2368160443	 2.1286293366	-0.0280917556	 0.328341
O	 2.3725314966	 1.757529524	-0.1004523326	-0.27313
H	-1.3312492393	 3.7515515543	-1.0534203296	 0.113406
H	-1.3452788863	 5.1180426976	 1.0407302865	 0.110442
H	-1.7466702895	 3.5895156487	 1.8837894444	 0.132172
H	 0.8993209772	 4.6248258384	 1.8782304125	 0.241168
H	 1.1992293641	 4.2792626633	-0.5375328758	 0.103227
