17
gdb 9652	3.37261	1.35304	1.32826	3.6282	70.11	-0.2579	0.0341	0.292	1025.5351	0.140561	-363.856719	-363.847972	-363.847028	-363.889863	31.261	
C	-0.3376265571	 1.1023565776	-0.1529535613	-0.245042
O	 0.5275527844	 0.0061657156	 0.1041966145	-0.230268
C	 0.9676487832	-0.6213396519	-1.0449513377	 0.104525
C	 1.5443515038	-1.9825490506	-0.8956024537	-0.350434
C	 0.1817885802	-1.83604723	-1.5808568188	 0.117646
C	-1.0582179458	-2.3099145921	-0.8411894372	-0.466093
C	 0.1546934333	-1.9879592632	-3.0111265064	 0.23466
N	 0.1303995226	-2.0934328273	-4.1638538375	-0.347269
H	 0.1591336371	 1.8631247798	-0.7712131656	 0.120763
H	-1.2571675484	 0.7829895849	-0.6606289281	 0.121258
H	-0.5921595615	 1.5383667289	 0.8148616081	 0.136833
H	 1.3959206656	 0.0414135248	-1.7972052954	 0.110965
H	 2.4016127105	-2.2546442439	-1.4991068142	 0.141166
H	 1.5177962528	-2.4159649788	 0.0980274206	 0.13865
H	-0.9982945722	-2.0059376476	 0.2057693296	 0.140516
H	-1.9643199274	-1.8777972083	-1.2755517877	 0.135194
H	-1.1473573212	-3.3991883781	-0.8864368091	 0.13693
