15
gdb 130949	6.35783	0.68801	0.64818	1.256	68.01	-0.2666	-0.0523	0.2143	1609.3827	0.111486	-453.913118	-453.90482	-453.903876	-453.948253	28.157	
O	-0.2975467418	 0.0173733313	-0.3862720905	-0.226037
C	 0.0044476267	 1.1253695249	-0.0299698698	 0.157296
C	 1.3564863622	 1.7672655344	-0.2619759186	-0.274498
C	 1.21978111	 3.1131159589	-1.009725663	-0.331253
C	 2.5302099236	 3.8184279716	-1.1593662446	 0.339077
N	 2.8357817094	 4.8809663877	-0.4610673977	-0.141887
O	 4.0985507344	 5.236214088	-0.8422817708	-0.145095
N	 4.5888140511	 4.3869124388	-1.7917663195	-0.054086
C	 3.6440652363	 3.5132552254	-1.9969492778	-0.107183
H	-0.7228700283	 1.7740848049	 0.512398085	 0.080789
H	 1.8134765326	 1.954620473	 0.7190442244	 0.14082
H	 1.9893726154	 1.0617682881	-0.8069976912	 0.1297
H	 0.7865816564	 2.9365811078	-2.0006283489	 0.137246
H	 0.5352463031	 3.7729494835	-0.4682528648	 0.143002
H	 3.7708823089	 2.7166881815	-2.7139400622	 0.152108
