22
gdb 105457	2.56862	0.89066	0.74563	4.2925	86.82	-0.2813	0.0382	0.3194	1588.4326	0.193492	-367.22681	-367.216727	-367.215783	-367.262568	36.992	
C	 0.6049924108	-0.1559864903	 1.3811046576	-0.383537
C	 0.0351610621	-0.1986687354	-0.0422606223	-0.261134
C	-1.3896508882	-0.7334367172	-0.1328291388	 0.398937
C	-2.4704679749	 0.0577758876	 0.5888592057	-0.27648
C	-2.6752069072	 1.4703623758	-0.0045916329	-0.342947
C	-3.7647303847	 2.1949440821	 0.6442644569	 0.258187
N	-4.6306852737	 2.7513707907	 1.1698952361	-0.307263
C	-1.7939497482	-1.4194515914	-1.4190592016	-0.316542
C	-1.5565265463	-2.2347127006	-0.1702370529	-0.318896
H	 1.6494482737	 0.1698724486	 1.3715275166	 0.116725
H	 0.0535633633	 0.5381182945	 2.0234319966	 0.119028
H	 0.5649204611	-1.1444092657	 1.8505199165	 0.121986
H	 0.0898199276	 0.8031620649	-0.4892233944	 0.09595
H	 0.677421962	-0.8319104133	-0.6657898517	 0.098369
H	-3.4196446335	-0.4842959576	 0.5274496967	 0.116968
H	-2.2375451316	 0.1495474755	 1.6552362433	 0.121897
H	-1.7620942731	 2.0677683688	 0.0905666182	 0.153201
H	-2.8916467786	 1.3962779132	-1.0764180311	 0.153446
H	-2.8173695767	-1.3070470361	-1.7631555129	 0.111308
H	-1.0635511244	-1.4820888613	-2.2188211696	 0.113027
H	-0.6610812633	-2.8457397697	-0.1235114424	 0.1136
H	-2.416597826	-2.6733312831	 0.3246373163	 0.11417
