23
gdb 118665	2.60644	0.71282	0.58607	1.425	83.63	-0.2475	-0.0208	0.2267	1941.9711	0.202455	-425.438261	-425.426674	-425.42573	-425.47671	39.728	
C	-0.0354124782	 1.6179838347	 0.0522457455	-0.381846
C	 0.0113846361	 0.0879112456	 0.0363178946	-0.178709
C	-1.383688254	-0.5470141917	-0.0079342328	-0.191375
C	-1.3739606098	-2.0900885371	-0.0098564827	-0.077675
C	-2.8012402852	-2.6563891096	 0.1204966742	-0.19773
C	-2.8443458319	-4.1699815147	 0.2996353	-0.085474
O	-4.2069331519	-4.5440345406	 0.4267023404	-0.420231
C	-0.7507519995	-2.5889438445	-1.2994752328	 0.172773
O	 0.2357424798	-3.273133533	-1.3902598636	-0.259332
H	 0.970741528	 2.0460472751	 0.0918995861	 0.116196
H	-0.5287568129	 2.0093718178	-0.8444224972	 0.115452
H	-0.5899889006	 1.9883440595	 0.9217368347	 0.115061
H	 0.6024688679	-0.2524851185	-0.8232548615	 0.109793
H	 0.5422981214	-0.274496306	 0.9259776114	 0.10289
H	-1.9682229998	-0.2076497927	 0.8563395776	 0.102022
H	-1.9249755667	-0.1895575365	-0.8957532053	 0.099006
H	-0.7501088704	-2.4551909782	 0.8148923529	 0.089686
H	-3.2981162231	-2.1898502249	 0.9782251862	 0.112698
H	-3.3940994159	-2.3894230026	-0.763939256	 0.109834
H	-2.3714350725	-4.6696903022	-0.5607956648	 0.098518
H	-2.2647870584	-4.4526522382	 1.1935188932	 0.091756
H	-4.2488224203	-5.4995091163	 0.5262904172	 0.287996
H	-1.3049927821	-2.2585453152	-2.213190477	 0.06869
