20
gdb 121795	2.56083	0.94872	0.85588	4.2791	76.25	-0.2717	0.0194	0.2911	1452.669	0.167732	-440.286341	-440.275664	-440.27472	-440.322934	38.054	
C	 0.1140785107	 1.5223600643	 0.0648329022	-0.419362
C	-0.0269155437	-0.0104988517	 0.1005169471	 0.210977
C	 0.737611967	-0.6231084018	 1.2900262269	-0.414541
O	-1.3929154285	-0.4281639816	 0.0700754428	-0.299209
C	-2.2587190389	 0.0374932458	 1.100784232	-0.088433
C	-3.5384241337	-0.7755490152	 0.9589843914	-0.058151
O	-3.2991892906	-2.1554614912	 1.1338387923	-0.41811
C	 0.5382117356	-0.5638351199	-1.1517466574	 0.280426
N	 1.0133719419	-0.982590707	-2.1172674023	-0.33271
H	 1.1622450932	 1.801735992	-0.0666066701	 0.142361
H	-0.4651477321	 1.9376609325	-0.7630394672	 0.145283
H	-0.2392280322	 1.9571816984	 1.0032244149	 0.129165
H	 0.4000833965	-0.1832819104	 2.2315801984	 0.129792
H	 0.577936328	-1.7030256607	 1.3240622243	 0.14437
H	 1.8085766272	-0.4296646642	 1.1904249972	 0.141444
H	-1.8241917454	-0.1374945201	 2.0934667925	 0.104825
H	-2.4709954171	 1.1101322139	 0.9900877883	 0.098453
H	-4.25009042	-0.468788044	 1.732399995	 0.111947
H	-3.9901646976	-0.5615153175	-0.0222038953	 0.100569
H	-2.6049540904	-2.3855696416	 0.5053614171	 0.290905
