16
gdb 61122	2.07686	1.32275	1.01416	2.3088	70.12	-0.2753	-0.0784	0.197	1194.6301	0.120108	-437.916812	-437.906877	-437.905933	-437.952718	33.657	
C	-0.3836533236	 1.6022476588	-0.1244452968	-0.439157
C	-0.082768386	 0.0923573724	-0.0184404873	 0.048116
C	 0.8046303564	-0.2756928997	 1.1877259186	-0.388068
C	 0.1824394926	 0.0685525077	 2.4637129832	 0.260214
N	-0.3316158407	 0.3463634352	 3.460762186	-0.302982
C	-1.4009430924	-0.6968366311	-0.001753645	 0.141564
O	-2.3316792091	-0.4307927448	-0.7140169151	-0.244835
C	 0.6335361558	-0.3280843236	-1.3121066457	 0.137029
O	 1.717548996	-0.843965189	-1.3439643307	-0.237526
H	 0.5365181902	 2.1722308159	-0.28281972	 0.134269
H	-1.0678534708	 1.7873382408	-0.9544840129	 0.155927
H	-0.8574573895	 1.9562844334	 0.7948538113	 0.16206
H	 1.0302694784	-1.3472426541	 1.1747986572	 0.16877
H	 1.7683239609	 0.2349704758	 1.1032931388	 0.171844
H	-1.4242609066	-1.5666075514	 0.6894058188	 0.109475
H	 0.0551629584	-0.0998367763	-2.2309634004	 0.123299
