16
gdb 34351	2.95961	1.60623	1.29736	3.2781	72.23	-0.2709	0.0063	0.2772	981.2858	0.125523	-400.696618	-400.689609	-400.688665	-400.72797	27.691	
N	-0.0071153228	-1.1529135623	 0.032213003	-0.338166
C	-0.0131107655	 0.003854622	 0.0245988459	 0.206097
C	-0.0276242344	 1.4438228423	 0.0151311318	 0.132555
C	-0.3673310163	 2.1771758499	-1.3094924899	-0.142445
O	 0.8164333966	 3.0030234353	-1.1980177974	-0.287307
C	 1.2677356112	 2.3023680325	-0.0189481575	 0.066591
C	 0.9165623852	 2.9314405938	 1.3439500887	-0.05463
C	-0.4105775672	 3.6251280665	 1.2700901154	-0.306843
C	-0.3938972871	 2.1273676709	 1.3648106532	-0.111675
H	-0.3211378715	 1.5283604926	-2.1903296756	 0.128833
H	-1.293013622	 2.7613318348	-1.323245461	 0.119347
H	 2.2632709524	 1.8690256519	-0.1259052381	 0.106325
H	 1.6285024742	 3.1070330694	 2.1400518193	 0.101927
H	-0.7166764113	 4.1202090795	 2.1855987911	 0.126561
H	-0.7007831183	 4.1435018824	 0.3636016139	 0.138895
H	-0.8559237031	 1.5910383086	 2.1830809672	 0.113936
