20
gdb 84162	2.77002	1.30885	0.9426	3.8133	82.93	-0.2366	0.0169	0.2535	1278.1807	0.171587	-403.209171	-403.199939	-403.198995	-403.243556	34.184	
C	-0.3259753904	 1.536490103	 0.0260906006	-0.383912
C	 0.0754218549	 0.0471580159	 0.0234114295	-0.162516
C	 0.7668925927	-0.3508265698	-1.2491788367	-0.142808
C	 1.9616708959	-0.9334298136	-1.3219278152	 0.287246
C	 2.6240807554	-1.3075387238	-2.6190267317	-0.473426
C	 2.7436005086	-1.269117012	-0.0828449028	-0.230191
N	 2.0717748585	-0.8826237421	 1.1418318285	-0.331468
C	 0.8627838556	-0.2709298241	 1.2936712476	 0.403573
O	 0.4278933477	 0.0086029091	 2.3979189019	-0.390411
H	 0.5552155597	 2.1772055266	-0.0808464534	 0.117057
H	-1.0045653337	 1.752155279	-0.8048857656	 0.108904
H	-0.8227252488	 1.781456271	 0.9664023067	 0.145185
H	-0.8557357985	-0.5316218414	 0.1172315147	 0.112611
H	 0.2306554126	-0.1265001394	-2.169993945	 0.083915
H	 1.9976102108	-1.0433076938	-3.4741066242	 0.127907
H	 3.5903747388	-0.7998617946	-2.7348837756	 0.126088
H	 2.8290891752	-2.3847896553	-2.6676386567	 0.12567
H	 2.9491202607	-2.3518832658	-0.0699228476	 0.116345
H	 3.7311565867	-0.7826009893	-0.1363712648	 0.115794
H	 2.5405953878	-1.0687006596	 2.0169134701	 0.244436
