14
gdb 123521	4.07056	1.77155	1.23435	3.0789	77.27	-0.2357	-0.0426	0.193	923.4342	0.106552	-395.804908	-395.799214	-395.79827	-395.834869	23.098	
C	 0.0698618763	 1.2907251268	 0.0086626427	 0.03645
N	 1.3102059308	 1.7809960763	-0.0003873165	-0.275027
N	 2.050714995	 0.6473197586	-0.013674584	-0.041289
C	 3.4087302325	 0.5699422754	-0.0269826359	 0.03828
C	 3.9877098033	-0.667581008	-0.039324297	-0.173393
C	 3.1794344299	-1.8340398804	-0.0381133402	-0.07428
C	 1.8096313069	-1.742469696	-0.0246129579	-0.247986
C	 1.2149882819	-0.4648439648	-0.0119035513	 0.446573
N	-0.0546989412	-0.0521987401	 0.0024411357	-0.355837
H	-0.780863223	 1.9571319981	 0.020423879	 0.130461
H	 3.9361153912	 1.5138805093	-0.0267633476	 0.152079
H	 5.0673357194	-0.7437686976	-0.0499876604	 0.118074
H	 3.6558457002	-2.8078155647	-0.0480191859	 0.116504
H	 1.1676452068	-2.6139713325	-0.0233415606	 0.129392
