19
gdb 102489	2.86841	0.87599	0.75976	3.1498	69.09	-0.2597	-0.0336	0.2261	1509.6172	0.156768	-497.299502	-497.289124	-497.28818	-497.335762	36.549	
O	 0.1696174819	 1.3617458883	 0.2020429374	-0.423009
C	 0.0808786078	-0.0226407278	-0.0180745639	-0.052181
C	-1.3872457235	-0.5398456131	 0.0150119517	-0.130508
C	-2.1538974918	-0.1372952244	-1.2478155709	-0.088476
O	-2.1063121171	 1.2849484522	-1.3679337281	-0.427929
C	-1.3735778625	-2.0477302954	 0.1555561183	 0.347428
O	-1.2194511044	-2.7929671276	-0.7925970677	-0.340813
C	-1.5298309484	-2.6417363825	 1.546241621	-0.135417
O	-1.3836483648	-4.0279860529	 1.5324862314	-0.419111
H	-0.4428653549	 1.7732471371	-0.4230595328	 0.293117
H	 0.5289153687	-0.3283976153	-0.9778645596	 0.101101
H	 0.6623192804	-0.5031945282	 0.7767679704	 0.111236
H	-1.8619089782	-0.0941509763	 0.8972271411	 0.102183
H	-1.689769593	-0.6269931098	-2.1127650495	 0.123259
H	-3.1958836382	-0.4828355621	-1.1851468591	 0.10396
H	-2.4450491278	 1.5318587083	-2.2332853195	 0.298972
H	-0.7965649443	-2.1667861085	 2.2186011478	 0.123604
H	-2.5239228881	-2.3385861374	 1.9215633172	 0.118059
H	-1.2780628519	-4.2601333346	 0.595623955	 0.294523
