20
gdb 63004	2.42959	1.75244	1.53182	3.0818	77.14	-0.238	0.0698	0.3078	995.2791	0.171183	-403.109742	-403.1017	-403.100756	-403.141616	32.528	
C	 0.0877290496	 1.5211565702	 0.0214109159	-0.419333
C	-0.0120765772	-0.0095992377	-0.0025598244	 0.25196
C	-1.4752956805	-0.4807284529	 0.0295687831	-0.436468
C	 0.677311649	-0.6268124423	-1.2370442833	-0.07828
N	 2.1045105528	-0.3089245761	-1.4086071591	-0.323839
C	 1.7155830075	-1.6032880359	-0.8097813763	-0.082537
C	 1.744505994	-1.6020142753	 0.70674381	 0.038797
O	 2.1197189455	-0.353058092	 1.2909289284	-0.24227
C	 0.7275101029	-0.6505837887	 1.1856304686	 0.008244
H	 1.1358303402	 1.824968693	-0.0017725572	 0.153103
H	-0.4217723163	 1.9591658449	-0.8439874597	 0.103808
H	-0.377201716	 1.9311692899	 0.9247089953	 0.106101
H	-2.0277836766	-0.0912087752	-0.8319703364	 0.115542
H	-1.5449352137	-1.5740244253	 0.0073769893	 0.115075
H	-1.9805979283	-0.1292939098	 0.9352327484	 0.116632
H	 0.0720832362	-0.7856271383	-2.1260697347	 0.07883
H	 2.3623445744	-0.4617430293	-2.3812809509	 0.230026
H	 1.9142392856	-2.5260239984	-1.3437334802	 0.08569
H	 2.0485417454	-2.4923421082	 1.250458162	 0.093176
H	 0.2049193956	-0.7531719026	 2.1363434313	 0.085743
