18
gdb 57716	3.59466	0.8195	0.77815	3.0735	75.49	-0.2682	0.0031	0.2712	1495.6545	0.145824	-435.266292	-435.255909	-435.254965	-435.303221	35.959	
C	-0.0069489491	 1.5734779944	-0.0024541803	-0.397532
C	-0.036432411	 0.0322849985	 0.0259828762	 0.05957
N	 0.7110330299	-0.4303698899	 1.2004244873	-0.522804
C	-1.4983771995	-0.4837793761	-0.0100844777	-0.089987
O	-2.1133670272	-0.0333130416	 1.1915036866	-0.199086
C	-3.4083829387	-0.3722861892	 1.3774291851	 0.128652
N	-3.9967261112	-0.0226213163	 2.4350819476	-0.43176
C	 0.6257679629	-0.4950405609	-1.1829831876	 0.286224
N	 1.1075396302	-0.9220573293	-2.1420082981	-0.329478
H	 1.0264192614	 1.9208898553	 0.0309785766	 0.149742
H	-0.4873879349	 1.9578807917	-0.905618277	 0.130739
H	-0.5428324156	 1.9574742162	 0.8685208029	 0.147766
H	 0.1912759922	-0.1532914791	 2.0293411909	 0.252902
H	 0.7602610634	-1.445657748	 1.210427286	 0.238687
H	-2.0270239179	-0.092977188	-0.8888630119	 0.12476
H	-1.5015727776	-1.5803900502	-0.0561307002	 0.119216
H	-3.8354025135	-0.9452340114	 0.5436049059	 0.095945
H	-4.9611136341	-0.3476318261	 2.4245326179	 0.236445
