16
gdb 64865	2.689	1.2772	1.02775	4.9535	69.7	-0.2632	-0.0459	0.2173	1167.9629	0.121655	-437.887268	-437.878252	-437.877308	-437.92197	31.724	
C	-0.3092773305	 1.7181695894	 0.143949813	-0.45826
C	 0.1386622054	 0.2752216562	-0.0117807042	 0.332312
C	 0.8265873921	-0.1463373642	-1.3256242323	-0.351351
C	 2.044254857	-0.4659074434	-0.4217493648	-0.010091
O	 1.350404026	-0.0073422472	 0.7588136655	-0.319114
C	 2.4405198492	-1.8739226224	-0.3316185771	 0.284028
N	 2.758178504	-2.9832475675	-0.2722014709	-0.309612
C	-0.9540058017	-0.6776317107	 0.4606565457	 0.127106
O	-1.6563229125	-1.3193902967	-0.2737480233	-0.237588
H	 0.5062769138	 2.3963714854	-0.1218627003	 0.134784
H	-1.1672031357	 1.9213941882	-0.5051195469	 0.143986
H	-0.6011811188	 1.9219837224	 1.179274987	 0.140441
H	 0.3618801332	-0.9951030638	-1.8250330618	 0.159642
H	 1.0029569208	 0.6610120011	-2.0358974892	 0.12749
H	 2.9372967484	 0.1381500151	-0.6140564879	 0.133979
H	-1.0408685907	-0.7303160118	 1.5684240875	 0.102247
