21
gdb 117208	3.51381	0.90193	0.77127	3.5656	81.13	-0.241	-0.0084	0.2326	1545.7161	0.179416	-424.219821	-424.209523	-424.208579	-424.256033	36.824	
C	-0.108286985	 1.3616409323	-0.0381642532	-0.225258
O	 0.2791778117	 0.0174736846	 0.1210307044	-0.20813
C	 0.6116298089	-0.5955915872	-1.0858677611	-0.174728
C	 1.0209906414	-2.0459788314	-0.8421516772	 0.299525
O	 1.0280690715	-2.5176096853	 0.27212376	-0.308908
C	 1.4126579445	-2.8540326091	-2.0499962036	 0.233819
C	 1.3869837484	-2.2157440164	-3.4266304548	-0.489859
C	 2.4807766554	-3.9067116418	-1.7660520668	-0.273938
C	 1.0636584524	-4.335706678	-1.9385694145	-0.273933
H	 0.6979881783	 1.972589607	-0.4749405871	 0.103439
H	-0.9978732162	 1.4593474573	-0.6809720588	 0.103443
H	-0.3460774849	 1.7485818888	 0.9552288446	 0.13371
H	-0.2336291169	-0.5812229739	-1.7989474552	 0.106072
H	 1.4431829669	-0.0735570517	-1.5949051316	 0.106075
H	 2.0688253277	-1.3612368365	-3.4990746415	 0.122839
H	 1.6990871217	-2.9420995017	-4.1826029263	 0.119298
H	 0.3846142957	-1.8714222021	-3.7041942655	 0.122841
H	 3.1903073879	-4.1060188421	-2.5617728111	 0.113011
H	 2.8840129256	-3.9157192827	-0.7605148723	 0.138838
H	 0.521685839	-4.6308645987	-1.0481018981	 0.138838
H	 0.7748239561	-4.8372382816	-2.8558316704	 0.113009
