13
gdb 66991	2.64153	2.08186	1.59514	1.2596	55.71	-0.241	-0.0432	0.1978	825.7052	0.088996	-493.669405	-493.662717	-493.661773	-493.700475	25.84	
O	 0.0327999969	 1.3962812059	 0.1044919153	-0.468216
C	 0.0305506128	 0.0250632898	 0.0547486666	 0.208915
C	-0.2421871841	-0.9513863212	 1.200901579	-0.022973
O	 0.555631561	-2.1237574317	 1.0058816502	-0.246789
C	 0.5148459556	-2.1667896268	-0.4154395915	-0.011195
O	-0.8606438127	-2.0574615004	-0.7619110033	-0.24684
C	-1.1824655976	-0.9074030641	 0.027204741	-0.023014
C	 1.0203744774	-0.7426174447	-0.767182639	 0.432661
O	 1.9030211889	-0.3178710391	-1.4587117197	-0.340142
H	 0.7583204276	 1.6870895823	-0.4670642426	 0.305009
H	-0.4653353652	-0.6918029398	 2.2248986242	 0.142187
H	 0.9854377566	-3.0536401764	-0.8257419021	 0.128223
H	-2.2202648272	-0.6096267339	 0.0343871918	 0.142176
