20
gdb 109272	3.09354	1.22142	0.94827	1.4523	83.17	-0.2351	0.0136	0.2487	1293.3091	0.171101	-403.157328	-403.148205	-403.147261	-403.192083	33.283	
C	 0.5792490061	 0.8810647172	-0.4241300984	-0.380215
C	-0.3272790962	 0.3814433023	 0.7104669545	-0.226512
C	-1.5896934689	-0.279738457	 0.2069767991	 0.374583
N	-2.7178865055	 0.23182405	 0.4488063469	-0.301216
C	-4.0259848637	-0.3211073059	 0.1892640196	-0.206447
C	-4.2783930342	-1.469594582	-0.747175537	-0.035782
C	-3.4159925457	-2.1173527221	-1.5213757994	-0.091429
C	-1.9474362184	-1.8386201213	-1.6347143244	-0.13991
O	-1.2688220303	-1.4448463754	-0.441709354	-0.259268
H	 1.4918776001	 1.3284783392	-0.0196020902	 0.115526
H	 0.8682836002	 0.0573706201	-1.0825793221	 0.125022
H	 0.0712445072	 1.6408581	-1.0268215287	 0.120926
H	 0.220881557	-0.3552447354	 1.3109763099	 0.113951
H	-0.6196590848	 1.2020789953	 1.367600718	 0.117454
H	-4.4435526235	-0.588879749	 1.173561845	 0.128378
H	-4.6680407409	 0.5111313224	-0.1404443409	 0.122999
H	-5.326542698	-1.7654691825	-0.7830973534	 0.090256
H	-3.7804176651	-2.9081974687	-2.1729937759	 0.092618
H	-1.4221341337	-2.7431145737	-1.955970949	 0.120595
H	-1.7676681516	-1.0748139834	-2.4065300497	 0.11847
