23
gdb 84450	2.62957	1.48671	1.22317	0.1681	90.58	-0.2331	0.0253	0.2585	1164.2956	0.206615	-351.167522	-351.158746	-351.157802	-351.200297	35.141	
C	-0.0166765649	 1.6422652723	-0.0488551981	-0.399827
C	 0.0241268644	 0.1087866008	-0.0178722034	-0.037652
C	 0.7547316429	-0.5301912139	-1.1860048814	-0.071124
C	 1.5437825516	-1.5389748506	-0.8177847912	-0.141846
C	 1.5125946765	-1.8008591995	 0.6711246765	 0.315506
C	 0.9917715299	-3.1913100914	 1.0212763349	-0.469686
C	 2.7923677624	-1.3193840786	 1.4209869424	-0.267799
C	 2.125022156	 0.0663752686	 1.630734357	-0.228915
C	 0.7512802356	-0.5271352793	 1.1890374716	-0.054742
H	 0.9866506987	 2.0774952009	-0.075707858	 0.118249
H	-0.5527425773	 1.9963740478	-0.9360051326	 0.110597
H	-0.5334975157	 2.0398575172	 0.8309728936	 0.111766
H	-1.0217973617	-0.2367631112	-0.0268886913	 0.075283
H	 0.6140189921	-0.1909356356	-2.2081665245	 0.08542
H	 2.1393767492	-2.1465123192	-1.493476805	 0.085014
H	 1.6606768634	-3.971234814	 0.637332655	 0.111677
H	 0.9192494744	-3.3227782406	 2.1065589427	 0.108581
H	-0.0001104134	-3.3654576055	 0.5897960121	 0.114464
H	 2.9395324842	-1.8626561772	 2.3598250801	 0.091659
H	 3.7318038533	-1.3386863756	 0.8609494335	 0.090873
H	 2.1692476877	 0.478551081	 2.6412971664	 0.093929
H	 2.5060681157	 0.8207808183	 0.9395642326	 0.103044
H	 0.0865335648	-0.7084256846	 2.0375355072	 0.055527
