15
gdb 133082	2.79112	1.40708	0.94101	1.4473	72.06	-0.2308	-0.0187	0.2121	1164.3145	0.113325	-461.979567	-461.972047	-461.971103	-462.011827	28.058	
C	-0.0128604573	 1.4082710498	 0.0085156113	-0.233708
O	-0.0227365734	-0.0193731305	 0.0050432263	-0.262203
C	-1.2206164478	-0.6273250172	 0.0123413752	 0.469384
C	-1.232047975	-2.0293535665	 0.0086926053	-0.23487
C	-2.4652659723	-2.6579712745	 0.0161233137	-0.047868
C	-3.638609413	-1.9012034392	 0.0267782288	-0.290829
C	-3.4784872032	-0.5259471781	 0.0292396464	 0.337559
F	-4.5606737788	 0.2489356734	 0.0392093674	-0.074159
N	-2.3250768001	 0.1129372514	 0.0224254642	-0.411489
H	 1.0405644809	 1.6907351046	 0.0010924879	 0.1301
H	-0.5198679188	 1.8079926227	-0.8741740652	 0.138122
H	-0.5061450845	 1.8035663783	 0.9009283215	 0.138105
H	-0.2977190611	-2.574737958	 0.0003336671	 0.111744
H	-2.5217983691	-3.7413453271	 0.0136591016	 0.116084
H	-4.6253299766	-2.3437309192	 0.0328711384	 0.114026
