19
gdb 124551	3.92985	1.03778	0.87514	1.572	77.92	-0.2751	-0.0128	0.2623	1377.1626	0.15821	-419.237191	-419.22775	-419.226806	-419.27221	33.607	
C	 0.1380820859	 1.6265612904	-0.217692103	-0.385964
C	-0.0011991403	 0.1274915845	 0.068774551	-0.085227
C	 0.6053519991	-0.7337279589	-1.0555957193	-0.388856
C	 0.5940038532	-0.2616495442	 1.3905387713	 0.358839
N	 1.2768696932	 0.5577611697	 2.1451544092	-0.182904
O	 1.6303065694	-0.2313119294	 3.2520381644	-0.201944
C	 1.1124881045	-1.4473552671	 3.0332110623	 0.407581
C	 1.3347054769	-2.4977059019	 4.0610786331	-0.494891
N	 0.4651481318	-1.5363732694	 1.9118152423	-0.348309
H	 1.1908342243	 1.9159337588	-0.2865096787	 0.13126
H	-0.3469129059	 1.8711740746	-1.1673219579	 0.108748
H	-0.3189801553	 2.2296350967	 0.5708436664	 0.127648
H	-1.0684291258	-0.1242640678	 0.1346523335	 0.102686
H	 1.6702895065	-0.5111260652	-1.181692766	 0.121411
H	 0.501378236	-1.7983489617	-0.8330044787	 0.13733
H	 0.1008179559	-0.5250858679	-2.0038315096	 0.11515
H	 2.404317804	-2.6857854497	 4.1949398667	 0.157739
H	 0.9311307609	-2.1826717466	 5.0279919998	 0.157668
H	 0.8433154257	-3.4179421749	 3.7462823333	 0.162037
