18
gdb 65257	3.64555	1.1912	1.13768	0.9187	72.	-0.2516	0.0155	0.2671	1131.2454	0.148489	-439.080977	-439.072875	-439.071931	-439.114032	30.798	
O	-0.0675001819	 1.3342389965	-0.2577843232	-0.475179
C	-0.0071367447	-0.0496374369	-0.0471747153	 0.432027
C	-0.3717860681	-0.5770005135	 1.3144306149	-0.323382
C	-1.3329423014	-0.7182474334	 0.1474689284	-0.314714
C	 1.0814451302	-0.7264517653	-0.8564713159	-0.050099
C	 0.9286130198	-0.516696199	-2.3878977718	-0.123247
O	 2.1856376144	 0.0869330475	-2.7921564492	-0.214924
C	 2.8713539246	 0.2775062783	-1.6477267609	 0.11731
N	 2.3956950348	-0.116908755	-0.5396585101	-0.291116
H	 0.7788716295	 1.6902018003	 0.042363172	 0.288016
H	 0.1317312527	-1.4631378938	 1.6851287275	 0.11623
H	-0.6174353382	 0.160831315	 2.0692168536	 0.119194
H	-2.2032687489	-0.0726745032	 0.136725048	 0.126607
H	-1.4902346546	-1.7031484339	-0.2794791505	 0.110881
H	 1.113528712	-1.7894031881	-0.5920828792	 0.084779
H	 0.8025999456	-1.4426146415	-2.9519514335	 0.118821
H	 0.1252331067	 0.1823458696	-2.6314970742	 0.135838
H	 3.8284664475	 0.7718199963	-1.7777715006	 0.142959
