16
gdb 5578	3.42268	1.8285	1.22411	1.8948	68.74	-0.1877	0.0146	0.2023	976.7455	0.131029	-379.951748	-379.943554	-379.94261	-379.985045	28.571	
C	-0.0018918601	 1.4812892574	-0.0654565043	-0.323297
N	 0.3840941537	 0.0911110432	 0.1509345737	-0.388534
C	 0.7384465142	-0.6686121743	-0.9560221463	 0.232474
C	 0.636815135	-2.0144395972	-1.16409832	 0.241084
C	 0.0971589057	-3.1650835078	-0.3997921686	-0.501217
O	 1.2181415679	-2.2697109749	-2.395459507	-0.178672
C	 1.6107967374	-1.0677994979	-2.8444761669	 0.069226
N	 1.3612571627	-0.0781786587	-2.0498539069	-0.310292
H	 0.8056035184	 1.9990462921	-0.5849073778	 0.158658
H	-0.9186649331	 1.5985928242	-0.6638761013	 0.107366
H	-0.1536990989	 1.9575382711	 0.9065270663	 0.116745
H	-0.2445578836	-0.4001192369	 0.770391251	 0.23056
H	-0.598062452	-3.761056729	-1.0023729282	 0.138579
H	 0.885890917	-3.8397100465	-0.0434180078	 0.138622
H	-0.44828474	-2.8077671714	 0.4788020752	 0.12432
H	 2.0881147359	-1.0364971932	-3.811441711	 0.144377
