15
gdb 1746	5.0528	1.6871	1.51332	1.7151	57.58	-0.2469	-0.026	0.2209	828.0421	0.122494	-345.64287	-345.635217	-345.634273	-345.675205	27.249	
O	-0.3424810068	 1.3801084636	-0.2189845332	-0.46687
C	-0.0953270788	 0.0066973741	-0.0460213282	 0.396727
C	 1.10310629	-0.5115423896	-0.8328128904	-0.325185
C	 2.412314573	 0.0534268951	-0.327871672	 0.157818
O	 3.3779275519	-0.6018856733	-0.0317377314	-0.236686
C	-0.4497230627	-0.6116488068	 1.2828218535	-0.321112
C	-1.3242413125	-0.8436373081	 0.0646879739	-0.29682
H	 0.1952205254	 1.8686672137	 0.4127708592	 0.286483
H	 1.1616872501	-1.6024899808	-0.7997847481	 0.119794
H	 0.9804355407	-0.1986428745	-1.8793138605	 0.130543
H	 2.4321115567	 1.1654337175	-0.2417902733	 0.065859
H	 0.1559616044	-1.4321896514	 1.6521964786	 0.125161
H	-0.8352627336	 0.0503546638	 2.0504289509	 0.11757
H	-2.2705324299	-0.3170301532	 0.027024162	 0.12855
H	-1.323775068	-1.82480547	-0.396722751	 0.118169
