14
gdb 104564	2.50059	1.33622	1.05584	3.6327	62.87	-0.3023	-0.0217	0.2806	1118.5452	0.099644	-473.848164	-473.839844	-473.8389	-473.88157	29.862	
O	 0.0863538081	 1.4856111623	-0.0740083834	-0.39943
C	 0.1207189479	 0.1030243332	-0.3037758246	-0.098256
C	-1.2488526984	-0.540614243	-0.0748356695	 0.207447
C	-1.2768828565	-2.0762142822	 0.122961555	-0.472366
C	-1.6356805998	-1.7230008026	 1.5653191973	 0.459253
O	-1.8504458904	-2.2815981631	 2.5856942356	-0.288787
O	-1.635591858	-0.3576686797	 1.3380144939	-0.270236
C	-2.2775868295	-0.0004902738	-0.9620570618	 0.28695
N	-3.0804734803	 0.392504955	-1.693085976	-0.314917
H	-0.1836285545	 1.6254911702	 0.8417088896	 0.304548
H	 0.4261153777	-0.04661212	-1.3439965129	 0.141689
H	 0.842374226	-0.4159944638	 0.3461654659	 0.10787
H	-2.0579900617	-2.6114940209	-0.4166347484	 0.175393
H	-0.3185056906	-2.5833095917	-0.0006998007	 0.160842
