15
gdb 129762	3.56393	1.60523	1.2372	4.4422	72.8	-0.2068	-0.0117	0.1951	977.9277	0.115114	-412.908645	-412.901801	-412.900857	-412.939802	26.924	
N	-0.0669109997	 1.3903659336	-0.2132316242	-0.596186
C	-0.1135937578	 0.0123269954	-0.0480780635	 0.228203
C	-1.152402987	-0.8642600981	 0.189387481	 0.154033
C	-2.5078819923	-1.4927945901	-0.0838731479	-0.2092
C	-2.3961934518	-2.2893150072	-1.3765502847	-0.268607
C	-1.7732992924	-2.8355408128	-0.1186783364	-0.003837
N	-0.5431402545	-2.0865084791	 0.1993971606	 0.075918
N	 0.7616052446	-2.0279582374	-0.0878755305	-0.170421
N	 1.0356059383	-0.7418437819	-0.140522862	-0.244738
H	 0.8801854022	 1.7365939887	-0.1259761663	 0.257373
H	-0.6937992784	 1.8997853881	 0.3931984451	 0.251311
H	-3.4488772644	-1.2679474336	 0.3968175345	 0.117528
H	-3.2994790994	-2.8004450334	-1.7003547083	 0.129158
H	-1.760638782	-1.928474634	-2.178429397	 0.147189
H	-2.0034692354	-3.780647408	 0.3515155197	 0.132277
