15
gdb 98960	4.20625	0.87931	0.73065	2.1421	66.19	-0.2665	-0.0955	0.171	1461.6722	0.110428	-491.12943	-491.119909	-491.118965	-491.165973	31.681	
C	-0.3584534788	 1.2650679931	-0.5384806535	-0.32794
N	 0.1147217771	-0.0251630986	-1.0082920677	-0.350967
C	 1.3419533641	-0.4619481562	-0.6885441771	 0.476362
O	 2.1716432232	 0.0690253435	-0.0050330912	-0.361368
O	 1.6905381842	-1.7362955763	-1.2287682476	-0.261338
C	 0.9535144404	-2.5145733524	-2.038678582	 0.343948
N	-0.208379693	-2.2716441282	-2.4834511634	-0.517615
C	 1.7243811804	-3.7825533869	-2.3707403872	 0.113848
O	 1.2544012736	-4.6272247355	-3.0846342266	-0.228754
H	-1.4190337486	 1.1945592014	-0.283899038	 0.134964
H	 0.2086940934	 1.5467476159	 0.3491167085	 0.167186
H	-0.2300643467	 2.0456248018	-1.2975647332	 0.135915
H	-0.4456145025	-0.5979560508	-1.6334544288	 0.290955
H	-0.5008047659	-3.0529053206	-3.0740341226	 0.256837
H	 2.7272570491	-3.8574508402	-1.9107686094	 0.127966
