15
gdb 26770	3.59095	1.12226	0.86058	6.0381	80.56	-0.2122	-0.0363	0.1759	1273.0318	0.112828	-416.85414	-416.845466	-416.844521	-416.887772	31.115	
C	 0.138548423	 1.4413219341	 0.0476301958	-0.505344
C	-0.059793863	-0.0301759909	 0.0241177023	 0.292244
C	-1.1774126106	-0.8286232165	-0.0131945218	 0.171636
N	-2.5205114093	-0.4351404056	 0.0176773936	-0.610441
C	-0.7066390167	-2.1755315246	 0.0041574686	-0.340881
C	 0.6582528201	-2.1040363492	 0.0508929755	 0.267917
O	 1.0635470389	-0.8054617946	 0.0700468777	-0.207411
C	 1.6473480578	-3.1081826155	 0.0771435989	 0.217404
N	 2.4443130567	-3.9498885185	 0.0974118034	-0.343411
H	 0.9578908616	 1.7338192142	-0.6164771209	 0.151424
H	-0.7671524574	 1.9549334026	-0.2879726001	 0.12768
H	 0.3767317972	 1.8124977695	 1.0520727933	 0.149704
H	-2.6612029544	 0.5317946345	-0.2438964274	 0.245741
H	-3.117892162	-1.0260184211	-0.5458423745	 0.25182
H	-1.2970737119	-3.0781518683	-0.0112156644	 0.131918
