18
gdb 102040	2.09843	1.12499	0.87554	2.5706	70.67	-0.2436	-0.0563	0.1873	1370.6738	0.144177	-476.226875	-476.216729	-476.215785	-476.262845	35.191	
C	-0.1235449516	 1.4037422752	-1.2867900074	-0.324418
N	 0.0772008257	 0.1740080123	-0.5308206812	-0.2949
C	 1.2060030963	-0.6207394086	-0.9354411531	-0.159986
C	 1.9489420893	-1.1943343116	 0.2767480328	 0.150968
O	 1.6951782239	-0.8711592435	 1.4065836009	-0.240371
C	 0.8633509624	-1.7968738399	-1.8585855131	 0.333476
O	 1.7407595115	-2.4403585561	-2.3949123233	-0.330201
C	-0.5914875718	-2.1803142549	-2.0442596776	-0.121828
O	-0.7146998568	-3.2982996626	-2.8718314545	-0.422194
H	 0.7583715076	 2.0669168852	-1.3026617168	 0.106719
H	-0.3827726851	 1.1717355801	-2.3257455782	 0.126352
H	-0.9612910402	 1.9576993372	-0.8555544564	 0.132758
H	 0.1565144884	 0.3576407705	 0.4647058263	 0.243255
H	 1.9871851541	-0.0508336127	-1.475798398	 0.120887
H	 2.7404025965	-1.9245175687	 0.0226588976	 0.127695
H	-1.0246460079	-2.353005711	-1.045617198	 0.130032
H	-1.1356523493	-1.3139047713	-2.4501266832	 0.127715
H	 0.1917896171	-3.5500572898	-3.107675337	 0.294041
