18
gdb 41419	3.25351	1.94897	1.544	1.5069	73.19	-0.2267	0.0677	0.2944	888.5667	0.150515	-401.876683	-401.870373	-401.869429	-401.906956	26.826	
C	 0.031426634	 1.4711206747	-0.0305544588	-0.119228
O	 1.4950941753	 1.5038456184	-0.0404169365	-0.362005
C	 1.5192741349	 0.0968355558	-0.2281829262	 0.470008
C	 2.4537648864	-0.9019705798	 0.4142771694	-0.30549
C	 1.7312758632	-2.2151851459	-0.0360996935	-0.244443
C	 0.9147676944	-1.8284113352	-1.2872610629	-0.017774
C	 1.1913459167	-0.4370785272	-1.6545018982	-0.138919
N	-0.2114142728	-0.8140403943	-1.22818181	-0.161474
C	 0.0191464331	-0.075953628	 0.0448401356	-0.07027
H	-0.3633867905	 1.9952386728	 0.8441201151	 0.114568
H	-0.3961832058	 1.8916799548	-0.9473759069	 0.116511
H	 3.4703941156	-0.8420547209	 0.0103774421	 0.108074
H	 2.5038425254	-0.7974018886	 1.5015400974	 0.107905
H	 2.4451136059	-2.9990973898	-0.3025988922	 0.111253
H	 1.0964610343	-2.6177731999	 0.759393728	 0.113916
H	 0.7212795666	-2.5819077358	-2.0412612096	 0.103269
H	 1.4398533435	-0.0148488329	-2.6200424898	 0.098287
H	-0.4087803602	-0.5187076882	 0.9471360169	 0.075811
