21
gdb 102714	2.48096	1.11373	0.86663	1.9929	83.22	-0.2404	0.0244	0.2648	1422.6815	0.180825	-420.365112	-420.354761	-420.353817	-420.401508	36.128	
C	-1.1598063493	-0.1519111862	-0.7808929242	-0.254437
O	 0.0889301227	 0.5246702971	-0.9251085068	-0.249486
C	 1.2599842942	-0.1630474873	-0.8645153579	 0.424798
C	 1.2402129129	-1.674613605	-0.7948941464	-0.274261
N	 0.7488632888	-2.2494978166	-2.0503207736	-0.068429
C	 1.7443507724	-2.3679641817	-3.1144037561	-0.217067
C	 1.2669903376	-3.5739819905	-2.3840078797	-0.222619
N	 2.3751492874	 0.438736855	-0.895886235	-0.293565
C	 2.3656956875	 1.8926869483	-0.9777269941	-0.314392
H	-1.2322518591	-0.9971770125	-1.4690230211	 0.156462
H	-1.3065664218	-0.4958728951	 0.2501844496	 0.119478
H	-1.9267790977	 0.5889041863	-1.0142564177	 0.133017
H	 2.267541827	-1.983166144	-0.5593608551	 0.116758
H	 0.5861809037	-2.0236896105	 0.0131299078	 0.110571
H	 1.3855094881	-2.1551219997	-4.1169430184	 0.118752
H	 2.7500850658	-2.0130431249	-2.9019445987	 0.133633
H	 1.958556148	-4.0387779735	-1.683436008	 0.113821
H	 0.5575763815	-4.2557834287	-2.843943943	 0.118649
H	 3.3891482683	 2.262401199	-0.8773059087	 0.111419
H	 1.9678951103	 2.2380803691	-1.9411490193	 0.11972
H	 1.7459367619	 2.3504346716	-0.1960171235	 0.117177
