25
gdb 121351	3.17408	0.86723	0.76184	1.3631	88.94	-0.2607	0.0688	0.3295	1640.1587	0.229473	-389.514691	-389.504303	-389.503359	-389.550909	38.363	
C	-0.2047617232	 1.5750050053	 0.0017636036	-0.37875
C	-0.0208568079	 0.054831267	 0.0030708016	-0.170057
C	 0.7392081359	-0.4529960329	 1.2342011324	-0.185487
C	 0.89088708	-1.9753212115	 1.2847761976	 0.035577
C	 1.7218952485	-2.6043654409	 0.138777963	-0.202436
C	 2.2916923756	-3.9375560711	 0.7040975261	-0.202381
C	 1.8669022684	-3.9745542488	 2.1942679138	-0.235523
C	 1.5790174592	-2.5105720645	 2.5508904316	 0.106956
O	 2.7849699239	-1.7679892153	 2.7292626947	-0.442546
H	 0.7623694026	 2.0897919424	 0.018907413	 0.113737
H	-0.7464178006	 1.9134117732	-0.887364242	 0.107055
H	-0.7683187065	 1.9061576504	 0.8813753014	 0.111113
H	-1.0046398606	-0.4323181176	-0.0447201434	 0.087732
H	 0.5108396507	-0.2474077729	-0.9078326767	 0.097327
H	 1.7346632325	 0.0039634384	 1.2716305376	 0.110632
H	 0.2158685755	-0.1158663101	 2.1400605892	 0.082399
H	-0.1129455219	-2.4244649515	 1.2720307406	 0.062248
H	 1.1217220545	-2.7600622713	-0.761414181	 0.09227
H	 2.5381222987	-1.9281842637	-0.1338224708	 0.105544
H	 1.9151067207	-4.8098107798	 0.1629823552	 0.093973
H	 3.3805470234	-3.9565153259	 0.6123656326	 0.102856
H	 0.9502361746	-4.5616929538	 2.3245305195	 0.095541
H	 2.624667244	-4.4195729155	 2.8487593046	 0.080616
H	 0.9374047263	-2.4124688556	 3.4397353666	 0.051304
H	 3.2791065657	-2.1756998841	 3.446778239	 0.2803
