21
gdb 117364	2.70292	0.93317	0.74785	2.4175	80.5	-0.2393	0.0334	0.2727	1575.8624	0.182784	-420.416586	-420.406536	-420.405592	-420.453399	35.783	
C	 0.9566620115	 0.9707668503	-0.1967906511	-0.373025
C	 0.3905162409	-0.4122191913	 0.134143864	-0.144756
N	 0.7676590199	-1.4266117465	-0.8380471219	-0.319899
C	-0.1156481605	-1.9355461293	-1.7436228501	 0.400779
O	-1.2881572034	-1.6076831535	-1.7964307867	-0.38308
C	 0.4586446152	-2.958398451	-2.7357106845	-0.330746
C	 1.7864929661	-3.5720228623	-2.3663091036	-0.000491
C	 2.7841324379	-3.9572879839	-3.3898776261	-0.248357
N	 3.0365036748	-2.7888603546	-2.522205117	-0.325683
H	 2.0514163339	 0.9554979293	-0.2342406537	 0.113321
H	 0.586240592	 1.3171175665	-1.1660055686	 0.130711
H	 0.6577098276	 1.6977807228	 0.5650744506	 0.119196
H	 0.7263422596	-0.7298948802	 1.1286461727	 0.105178
H	-0.7010106684	-0.387596299	 0.1398974197	 0.148889
H	 1.7314882955	-1.7213057235	-0.8785623491	 0.266359
H	-0.3094351644	-3.7293159021	-2.8543493723	 0.139012
H	 0.5344015752	-2.4538849609	-3.7082735393	 0.121313
H	 1.7772464527	-4.1510608602	-1.4445245277	 0.105559
H	 3.4400480471	-4.8055488623	-3.2185433512	 0.125909
H	 2.5390629206	-3.7770336775	-4.4332263785	 0.118454
H	 2.8333465062	-1.9426012106	-3.0517866655	 0.231358
