14
gdb 8621	2.34654	1.89689	1.47246	3.2417	64.79	-0.257	-0.0495	0.2075	911.9628	0.102036	-382.518288	-382.509239	-382.508294	-382.552287	30.916	
C	-0.0036029481	 1.5925134523	 0.079001847	-0.423708
C	-0.0133729696	 0.050395823	 0.0149010152	-0.10691
C	 0.7487197749	-0.4945757459	 1.2405693547	 0.151649
O	 0.2191064418	-1.057044399	 2.1590404724	-0.234483
C	-1.4527669233	-0.5084070582	 0.0550774396	 0.163444
O	-2.4288227739	 0.183176125	 0.1289687794	-0.235978
C	 0.645347434	-0.457737011	-1.1840176283	 0.300186
C	 1.1850066232	-0.9143768339	-2.1568093899	-0.471939
H	 1.0223820619	 1.9675179663	 0.1151744544	 0.129741
H	-0.4946198553	 2.0020637162	-0.8053992642	 0.151522
H	-0.5477208646	 1.9307801245	 0.9632262048	 0.148894
H	 1.8428812699	-0.3055327339	 1.2064697745	 0.10487
H	-1.5081291956	-1.6130105922	-0.0069581712	 0.109079
H	 1.6588932447	-1.3032611932	-3.0247381086	 0.213633
