20
gdb 121449	5.55003	0.68284	0.64254	4.5485	80.52	-0.243	0.0207	0.2637	1776.6216	0.170012	-440.285446	-440.275844	-440.2749	-440.32112	34.583	
C	-0.5541909134	 1.4880921621	-0.1403361055	-0.399322
C	 0.0635644862	 0.1127972096	-0.0346483256	 0.150798
C	 0.9244932185	-0.4063331938	-1.2101318733	-0.401079
C	 2.0443085837	-0.3773009462	-0.1954068433	 0.478097
O	 1.2564664738	 0.1108986265	 0.8287330485	-0.276001
N	 3.2584839562	-0.6781150442	-0.2003480069	-0.366363
C	 4.0472337944	-0.5376821493	 1.0224943463	-0.169353
C	 5.1279403935	-1.6203657438	 1.0126163649	-0.0446
O	 5.8941033825	-1.5639623119	-0.1717317229	-0.42436
H	 0.1707748162	 2.2128710302	-0.5230316761	 0.12967
H	-1.413607925	 1.4630814796	-0.8185818161	 0.127427
H	-0.9016546054	 1.8303673179	 0.8388053234	 0.137044
H	-0.6527606784	-0.6203025347	 0.3485987575	 0.09787
H	 0.6757314041	-1.3952987435	-1.59807156	 0.137413
H	 1.0450081394	 0.291587802	-2.0416005744	 0.135732
H	 4.5339716419	 0.4463281505	 1.0112010153	 0.114335
H	 3.4367930141	-0.6020509381	 1.9328748222	 0.105326
H	 5.8135628298	-1.4756599541	 1.8547345883	 0.098817
H	 4.6502108496	-2.6070078445	 1.1363698164	 0.079681
H	 5.2453811982	-1.4633362942	-0.8815177986	 0.288867
