17
gdb 45255	3.19075	1.61379	1.33747	3.9225	71.04	-0.2382	-0.0169	0.2213	967.3423	0.136995	-421.82697	-421.82004	-421.819096	-421.85841	27.681	
O	 0.1181794849	 0.328897815	-1.1635949665	-0.299938
C	 0.0804007993	 1.225936239	-0.3751653446	 0.432804
C	-1.0172300413	 1.8244686335	 0.5160403679	-0.359748
C	-0.104844489	 3.0763920353	 0.7258386539	-0.024836
C	 0.3376600974	 3.4502041171	 2.1562742511	-0.26659
C	 1.5640632996	 2.600020558	 2.4243121425	 0.057249
O	 1.3431225524	 1.1984582637	 2.2207301269	-0.257109
C	 2.0087746568	 1.9398806525	 1.1837546289	 0.027536
C	 1.0922089699	 2.3228071091	 0.0352408283	-0.187877
H	-1.9830710066	 1.9794643495	 0.0279219389	 0.122146
H	-1.1603121085	 1.233660383	 1.424984201	 0.144989
H	-0.4671268382	 3.9390756056	 0.1658078662	 0.086027
H	 0.614177059	 4.509242841	 2.2174010389	 0.108015
H	-0.450102813	 3.2753510499	 2.896967533	 0.118092
H	 2.245231387	 2.8460140068	 3.2361223063	 0.099252
H	 3.0376911607	 1.6462659437	 0.9961517957	 0.107171
H	 1.6390542898	 2.8041469972	-0.7792014985	 0.092816
