18
gdb 66087	2.49248	1.22682	1.05494	3.3236	74.97	-0.2482	-0.045	0.2032	1204.6548	0.145356	-439.10689	-439.097418	-439.096474	-439.142278	33.054	
C	-0.0961641236	 1.6312196795	 0.2965901344	-0.442089
C	 0.0079234059	 0.124724471	 0.1079601409	 0.196325
C	 0.7687963647	-0.3669429612	-1.1814572376	-0.303567
C	 1.8329994889	-1.0229826323	-0.2590258631	-0.164645
N	 1.0588477531	-0.554516476	 0.8884724444	-0.065159
C	 1.2081356948	-0.8281768539	 2.2063878309	 0.122618
O	 2.1193129552	-1.4829428455	 2.6672160853	-0.324176
C	-1.3412665445	-0.5713306364	 0.255849122	 0.136165
O	-2.4014998792	-0.006746268	 0.2996008611	-0.240582
H	 0.8798488148	 2.1022191284	 0.1554330476	 0.122321
H	-0.8046088099	 2.0477238842	-0.4240015576	 0.143074
H	-0.462997182	 1.8767083162	 1.2970119913	 0.136842
H	 0.208392911	-1.0697042164	-1.8003701449	 0.126144
H	 1.124711514	 0.4533642318	-1.8047383598	 0.130277
H	 1.907955316	-2.1127239506	-0.3197916308	 0.132674
H	 2.8404390367	-0.5991300996	-0.3121838739	 0.130457
H	 0.4002168935	-0.3796788969	 2.8208715743	 0.075791
H	-1.2628839196	-1.6816774944	 0.3108650854	 0.087531
