10
gdb 3930	8.56693	2.25918	1.78774	3.2492	51.55	-0.2951	-0.0701	0.225	630.5913	0.068808	-355.508682	-355.503415	-355.502471	-355.537916	18.265	
O	-0.0622958854	 0.002249245	-0.0010658032	-0.238731
C	 0.0218466738	 1.1920948836	 0.0076953145	 0.210361
N	 1.2478906897	 1.90084164	-0.0003774102	 0.07849
N	 2.45933918	 1.3268964008	-0.0182526771	-0.187465
C	 3.2833831794	 2.3599262394	-0.0194808698	-0.032447
C	 2.5254880662	 3.5578611172	-0.0016904153	-0.049148
N	 1.2425599335	 3.2467512602	 0.0100771587	-0.202327
H	-0.8118085399	 1.9116457547	 0.0221081023	 0.131368
H	 4.3527469968	 2.2176866552	-0.0324985315	 0.144846
H	 2.8521311759	 4.5858599039	 0.0026293116	 0.145052
