21
gdb 74642	2.86378	1.75828	1.26847	0.3951	87.77	-0.2071	0.017	0.2241	1061.0232	0.182849	-349.91245	-349.904454	-349.90351	-349.944293	32.719	
C	-0.0508654774	 1.4961317043	 0.0276012983	-0.506534
C	-0.009340743	 0.0060689654	-0.0163367669	 0.259748
C	-0.0278975608	-0.8347573795	-1.0535467108	-0.228649
C	 0.0385246731	-2.2089510782	-0.4189917248	-0.050816
C	-0.8513425181	-2.1694141662	 0.8761270811	-0.071009
C	 0.1479790231	-3.1174402436	 1.5791183232	-0.267496
C	 1.0288033263	-2.1146011895	 0.7980580991	-0.071016
C	 0.0685971795	-0.9220870643	 1.2088103757	 0.280768
C	 0.1077273637	-0.2992741409	 2.588589134	-0.518515
H	 0.8371727651	 1.9133074616	 0.5200718358	 0.124241
H	-0.1058430585	 1.9190350005	-0.9794627405	 0.123211
H	-0.9167871707	 1.8622511503	 0.5944254607	 0.124225
H	-0.078292582	-0.6130760317	-2.1109213862	 0.094185
H	 0.0390400644	-3.1074474836	-1.0373883349	 0.057811
H	-1.9449554808	-2.1916792095	 0.9115709901	 0.060429
H	 0.1924556576	-3.0889523642	 2.6702542003	 0.088811
H	 0.1633702595	-4.151759579	 1.2235891834	 0.086757
H	 2.1210318511	-2.0731453913	 0.7427426069	 0.060428
H	 0.9773745034	 0.358297696	 2.7000389127	 0.117423
H	-0.7865086555	 0.3068035436	 2.7733067239	 0.117425
H	 0.1625635701	-1.0520016401	 3.3798286991	 0.118573
