20
gdb 80459	2.55164	1.4691	1.22495	2.4328	79.1	-0.2347	-0.0238	0.2109	1123.7614	0.171029	-403.154419	-403.145679	-403.144735	-403.187729	33.195	
C	-0.1644462822	 1.5046744697	 0.0556029861	-0.434482
C	-0.0096325744	 0.0054775269	-0.0769852004	 0.02019
C	 0.6648484088	-0.7177547361	-1.2083112754	-0.177853
N	 1.216905993	-0.7470823664	 0.1674727392	-0.119153
C	 2.4717288554	 0.0555966195	 0.1653413345	-0.183544
C	 2.6975188503	 0.6762362651	-1.2314356511	-0.113393
C	 4.0803607	 0.4141142833	-1.8382444215	-0.406582
C	 1.5898352453	 0.0492688471	-2.0999328188	 0.419271
O	 1.5339536892	 0.1016402058	-3.3037360745	-0.332792
H	 0.6287077969	 2.0816491515	-0.4208283421	 0.130102
H	-1.1132177998	 1.812921244	-0.3947422485	 0.135431
H	-0.1970973614	 1.7852594393	 1.1143396446	 0.131588
H	-0.8742409289	-0.5284581461	 0.316861155	 0.105064
H	 0.2212811654	-1.6211402029	-1.6154781164	 0.11092
H	 2.4308345529	 0.8001991605	 0.9655355615	 0.111438
H	 3.2844576218	-0.6367573171	 0.4064891258	 0.116204
H	 2.5303611243	 1.7606369393	-1.2267560476	 0.106281
H	 4.3135138151	-0.6559195043	-1.8341586408	 0.123169
H	 4.1032729761	 0.7609977633	-2.8744679581	 0.141371
H	 4.8612112921	 0.9331713976	-1.2746951214	 0.116768
