21
gdb 60305	3.76227	0.67448	0.59844	2.7168	86.9	-0.2627	-0.0544	0.2083	1880.5607	0.178502	-387.082126	-387.071232	-387.070288	-387.11915	38.786	
C	 0.0129785567	 1.5392384244	-0.0204919788	-0.388912
C	 0.0223637483	 0.0057299664	 0.0405703027	 0.028543
C	 0.8509207518	-0.4801199741	 1.2389683885	-0.382604
C	-1.4191435094	-0.5334521906	 0.0607275834	-0.168478
C	-1.5262997672	-2.053520519	-0.0606949405	-0.318145
C	-2.9573062951	-2.5526633213	-0.1614439826	 0.227886
O	-3.9250189902	-1.8234662495	-0.1585537787	-0.28812
C	-3.1004090686	-3.9987462052	-0.2651930415	 0.246085
C	-3.1976889399	-5.1956778298	-0.3490125168	-0.391145
H	 1.0304995144	 1.9398842813	-0.0758993492	 0.108935
H	-0.5397322653	 1.900776373	-0.8937493194	 0.112272
H	-0.4623152662	 1.9626941482	 0.872348172	 0.114186
H	 0.5057244121	-0.363896992	-0.8762453032	 0.069346
H	 1.8627976226	-0.0631639008	 1.2079705015	 0.112478
H	 0.391631506	-0.1642729767	 2.1836385561	 0.113386
H	 0.9473429622	-1.5699304539	 1.2632108476	 0.110665
H	-1.9202368439	-0.2091722149	 0.9815117571	 0.106784
H	-1.9876483774	-0.0799695878	-0.7586072234	 0.110435
H	-0.9874779852	-2.4233053557	-0.9454382306	 0.130028
H	-1.061544188	-2.5718568876	 0.7883077593	 0.13346
H	-3.3039026875	-6.2506399546	-0.4237948235	 0.212915
