16
gdb 41020	3.17415	2.0264	1.5101	1.716	67.97	-0.241	0.0447	0.2857	860.4021	0.126155	-437.744518	-437.738518	-437.737574	-437.774606	25.381	
C	-0.0193440443	 1.4798926968	 0.2290670247	-0.171022
O	 1.4253341347	 1.5161267728	-0.0777325838	-0.355896
C	 1.223758561	 0.3298842832	-0.843980398	 0.518506
C	 0.0092238954	-0.0528211502	-0.0761463589	 0.033244
O	-0.6953770642	-0.8900946565	-0.9937032014	-0.288144
C	 0.3256943092	-1.0431515435	-1.9855482322	 0.102167
C	 0.8676839964	 0.3339422605	-2.3815889425	-0.14034
N	 2.2433504328	-0.1955182598	-2.6991017964	-0.326518
C	 1.8699752816	-0.9291769414	-1.4489306812	-0.211415
H	-0.2131974357	 1.7880495206	 1.2580254519	 0.12202
H	-0.5895007184	 2.0863315381	-0.4824219968	 0.120074
H	 0.2047341798	-0.6039372896	 0.8492132902	 0.101421
H	 0.0788232338	-1.8053384223	-2.7234795471	 0.102346
H	 0.3793178534	 1.1114091061	-2.9678898237	 0.091085
H	 2.1880503115	-0.8259087847	-3.5058028234	 0.210758
H	 2.502359483	-1.6859987202	-0.9851337613	 0.091713
