17
gdb 7471	3.774	1.41093	1.28536	3.2311	67.7	-0.2617	0.023	0.2847	992.3635	0.141643	-363.859326	-363.851131	-363.850186	-363.892285	29.436	
C	-0.0893001185	 1.6489714789	 0.11500698	-0.475574
C	 0.020954603	 0.1331377908	 0.0340402392	 0.282165
C	-1.3434664722	-0.541694576	-0.2212469912	-0.394217
C	-1.9363147127	-0.1526910569	-1.5000966543	 0.266581
N	-2.3806749888	 0.1675940492	-2.5177969122	-0.310333
C	 1.1391731288	-0.4624953146	-0.8599437479	-0.109163
O	 1.607399175	-1.299025825	 0.2182072273	-0.271907
C	 0.7887622407	-0.5923958902	 1.1686545911	-0.122098
H	 0.8900918997	 2.1005492447	 0.2976095089	 0.125495
H	-0.4880160257	 2.0671883329	-0.8147901737	 0.148135
H	-0.7564891806	 1.9524617809	 0.929955779	 0.122052
H	-1.2231996871	-1.6309301766	-0.2124469392	 0.161766
H	-2.0454252658	-0.288671081	 0.5823949411	 0.150098
H	 0.8257385156	-1.044518402	-1.7336607397	 0.118079
H	 1.8966155789	 0.2698747104	-1.1693676372	 0.10394
H	 1.3808466501	 0.0822367034	 1.8020793114	 0.1008
H	 0.2143149498	-1.271984809	 1.8100187373	 0.104181
