17
gdb 76931	2.2247	1.209	1.00647	2.5173	78.25	-0.2453	-0.0318	0.2135	1243.1143	0.131918	-421.782083	-421.772321	-421.771377	-421.81654	35.593	
C	-0.026311072	 1.5660886887	-0.1400004604	-0.466492
C	 0.0223018936	 0.0457820122	-0.0481944456	 0.063195
C	-1.1473472421	-0.6264124317	-0.5495098593	 0.272435
C	-2.1324262541	-1.1747462501	-0.9683152898	-0.423527
C	 1.3331353219	-0.6681846765	-0.2075916971	 0.052176
O	 2.4415370243	 0.1325365734	-0.4666292218	-0.415213
C	 0.691282754	-0.655473721	 1.1770022841	-0.201686
C	 1.2752880591	 0.1394695341	 2.2808849076	 0.151843
O	 1.2043581507	-0.1897458359	 3.4419215704	-0.271147
H	 0.9394609141	 2.0124973872	 0.0955868067	 0.14397
H	-0.2903670186	 1.8558081414	-1.1607004498	 0.137974
H	-0.7858564449	 1.9698324829	 0.5346716249	 0.135595
H	-3.0016323703	-1.6590107132	-1.3392341491	 0.199298
H	 1.3133176203	-1.6230081271	-0.7301962218	 0.115688
H	 3.225173923	-0.3134112425	-0.1270254267	 0.300404
H	 0.2154847499	-1.5723645974	 1.5055743288	 0.120013
H	 1.8061298911	 1.0659711257	 1.9826733288	 0.085474
