10
gdb 1942	8.31485	1.70163	1.60861	3.6205	48.21	-0.3048	-0.0226	0.2823	716.9356	0.066943	-359.342366	-359.336482	-359.335537	-359.372435	20.402	
O	 0.1219846288	 0.1967224789	-0.545022264	-0.286198
C	-0.0405334217	 1.2556602208	-0.0442681711	 0.462321
C	-1.1978032201	 2.1981520247	 0.2904484332	-0.42329
C	-0.077058009	 3.0788378077	 0.8924866608	-0.007105
O	 0.9236821483	 2.0924887174	 0.4905411965	-0.231895
C	 0.1458116986	 4.3801761877	 0.2729905951	 0.288503
N	 0.2959427996	 5.4200678738	-0.2065713819	-0.297096
H	-1.7108750962	 2.6103515836	-0.5785629264	 0.175195
H	-1.921274993	 1.8005274153	 1.0024726462	 0.165519
H	-0.0954685553	 3.17845642	 1.9800796617	 0.154047
