11
gdb 8729	2.6687	1.90534	1.22401	3.8418	58.51	-0.3092	-0.0998	0.2094	915.5091	0.069211	-397.373812	-397.365818	-397.364874	-397.406736	27.508	
O	 0.1149240526	 1.448084205	-0.153718553	-0.401487
C	 0.0284190737	 0.0656696709	-0.0368227323	-0.085573
C	 0.6389694258	-0.6340810526	-1.1874997296	 0.261552
N	 1.1160954757	-1.183726068	-2.0844154319	-0.308231
C	 0.7248427301	-0.4035593738	 1.2698541551	 0.218247
O	 1.2847346777	 0.4246738533	 1.9522673638	-0.293456
C	 0.6389217213	-1.7990745176	 1.5904733907	 0.286964
C	 0.5352146858	-2.9745513567	 1.8255901965	-0.376571
H	 0.7324743682	 1.7305993872	 0.5431158373	 0.308703
H	-1.0242946821	-0.2505409709	 0.0202167423	 0.153382
H	 0.4558791812	-4.0134703268	 2.0414126011	 0.236469
