17
gdb 70557	2.65663	1.63381	1.21539	3.7589	68.62	-0.2498	0.0046	0.2544	1040.2973	0.135417	-458.977877	-458.969998	-458.969054	-459.010193	30.29	
C	 0.0603670522	 1.3516289494	-0.2082326047	-0.445702
C	-0.0862540142	-0.1159967628	 0.0960623938	 0.373902
C	-0.8552408199	-0.6076580554	 1.2959336097	-0.353043
C	 0.6430083916	-0.7855379615	 1.2245351231	 0.036304
O	 1.1116368808	-2.075771862	 0.972410178	-0.241844
C	 1.7067845774	-2.1589890007	-0.3108413569	-0.228569
C	 0.7368066842	-1.7820020282	-1.4254003979	 0.393785
O	 0.7783673205	-2.2485988928	-2.5278313023	-0.316744
O	-0.2289549761	-0.8866926268	-1.0928496822	-0.252219
H	 0.9462977801	 1.5372581412	-0.8241747414	 0.129168
H	-0.8163285633	 1.7187989857	-0.7504797353	 0.14142
H	 0.1569948546	 1.9265752446	 0.7169468991	 0.124337
H	-1.263144111	 0.1254419222	 1.9826320449	 0.121862
H	-1.4426885107	-1.5086522441	 1.1632887106	 0.139669
H	 1.2895051941	-0.1859331003	 1.8648287209	 0.099577
H	 2.6028821236	-1.5228615071	-0.3848192272	 0.124907
H	 2.0090946361	-3.1945150615	-0.4707566222	 0.153189
