17
gdb 108017	3.79704	1.51791	1.36926	1.9487	69.83	-0.2192	0.0592	0.2784	957.5287	0.137578	-417.891693	-417.88472	-417.883776	-417.923067	27.852	
O	-0.1084593865	 1.4202252908	 0.1824500097	-0.426335
C	-0.0619962706	 0.0207594082	-0.0674578182	-0.231259
C	-1.4658730476	-0.4928030277	 0.0011870991	 0.353779
N	-2.4985521191	 0.1022876793	-0.9134441558	-0.36691
C	-3.4745574896	-0.4235692232	 0.0952373002	-0.056725
C	-3.2646903381	-1.9527286116	 0.0994461248	-0.023207
C	-1.7810734799	-2.0043747782	 0.0302768259	-0.094733
N	-2.4629637093	-1.99348067	 1.3704601507	-0.19175
C	-2.4195772173	-0.4617896587	 1.2400747093	-0.048055
H	 0.7733556745	 1.7814179763	 0.0548498738	 0.293692
H	 0.3526654978	-0.1951878064	-1.0649988409	 0.10253
H	 0.5563342371	-0.5040409456	 0.6772538928	 0.102695
H	-2.436203675	 1.1153628172	-0.7941399547	 0.223112
H	-4.4744657861	 0.0028436716	 0.1355581366	 0.079187
H	-3.9314225753	-2.7538432898	-0.1917337268	 0.100171
H	-1.1950637792	-2.8451573644	-0.3193722325	 0.095505
H	-2.346791286	 0.1812802521	 2.1148545561	 0.088303
