16
gdb 49694	3.15479	1.30498	1.12931	1.5955	79.22	-0.2449	-0.0476	0.1973	1098.1096	0.122575	-400.670319	-400.662033	-400.661089	-400.703245	30.946	
O	-0.4749751416	 0.4332022176	-0.585905978	-0.270239
C	 0.0870258931	 1.1409035005	 0.2171362358	 0.146572
C	 1.3227747051	 1.9447625242	-0.0026508714	-0.128819
N	 2.4070511617	 1.70725428	-0.9791957075	-0.181348
C	 1.8148768094	 1.1202001177	-2.2423723113	-0.148687
C	 0.8941642387	 2.3424170192	-2.4586383687	-0.308109
C	 1.4877381978	 2.9042979952	-1.1589791031	 0.13369
C	 1.8695002549	 4.2601973763	-0.9428014561	 0.206646
C	 2.1597531795	 5.4175161988	-0.7882286179	-0.374359
H	-0.3194961667	 1.2629161516	 1.2460362781	 0.090947
H	 1.7379454255	 2.327794079	 0.9261741002	 0.117796
H	 2.6161664188	 1.0421849272	-2.9786986376	 0.118455
H	 1.3345671986	 0.1542211196	-2.1024631226	 0.143091
H	 1.1668731571	 2.949101947	-3.32254844	 0.12573
H	-0.1817198684	 2.163516337	-2.4574133676	 0.130858
H	 2.4251389863	 6.4361762691	-0.6468279823	 0.197775
