23
gdb 101815	2.53872	0.8665	0.79332	2.3503	78.82	-0.261	0.0579	0.3189	1596.9252	0.202874	-462.555112	-462.543845	-462.5429	-462.59243	40.538	
C	 0.0173814216	 1.555958285	 0.1143153454	-0.390281
C	-0.0562781547	 0.0390530983	-0.0815597956	 0.13206
O	-1.3989540432	-0.4082118322	-0.2096945882	-0.437995
C	 0.7626607477	-0.4429720449	-1.2795441777	-0.083758
O	 0.1739835048	 0.1085100586	-2.4465674975	-0.295858
C	 0.6782201806	-0.3902032302	-3.6907204007	 0.119833
C	-0.0170979552	-1.6916903104	-4.0877418103	-0.396069
C	 0.4411039171	 0.7355879259	-4.7006252261	-0.064504
O	-0.9274633343	 1.0823451874	-4.793851407	-0.418748
H	 1.041142265	 1.875815777	 0.3373779839	 0.108305
H	-0.3121623622	 2.0779241394	-0.7886932831	 0.117088
H	-0.628371877	 1.8531658001	 0.9441990484	 0.124293
H	 0.3394779866	-0.4592177648	 0.8118973582	 0.085506
H	-1.659433184	-0.2010597494	-1.1152163303	 0.280277
H	 1.8139261342	-0.1257219104	-1.1927697346	 0.090578
H	 0.7347885165	-1.5408858776	-1.3136090233	 0.100352
H	 1.7638196575	-0.5505183141	-3.6000397223	 0.069155
H	-1.0743842553	-1.4989271848	-4.2852486558	 0.13601
H	 0.4347958527	-2.1022704141	-4.9965206601	 0.117288
H	 0.065510137	-2.447780612	-3.3022056315	 0.120078
H	 1.0546427433	 1.6032488947	-4.4139652213	 0.090265
H	 0.7554020764	 0.4128081412	-5.6985098182	 0.107923
H	-1.2043077351	 1.3090038773	-3.8988591722	 0.288201
