19
gdb 117101	2.42225	1.06565	0.79211	1.1177	78.08	-0.2634	0.0129	0.2763	1474.5022	0.158057	-419.26618	-419.25577	-419.254826	-419.30339	36.081	
C	-0.9085846078	 0.8716818678	-0.4492301055	-0.373931
C	-0.1677299345	-0.3355790364	 0.1282587046	-0.152538
N	 0.3402581191	-1.2302244668	-0.9038474534	-0.336358
C	 1.6585123344	-1.3477515955	-1.1841003898	 0.450382
O	 2.5470882161	-0.7555283957	-0.6004270188	-0.381083
C	 2.0414783901	-2.309523426	-2.3447194777	-0.273302
C	 3.1443564019	-3.2831284676	-1.880565786	-0.387435
C	 0.8992752425	-3.0140414764	-2.9233919064	 0.28314
N	-0.031099223	-3.55296439	-3.3503919703	-0.335311
H	-0.2428225353	 1.4711287303	-1.0765896943	 0.133846
H	-1.7644163903	 0.5609763815	-1.0578573757	 0.119898
H	-1.2846067792	 1.5066686398	 0.3588585365	 0.124554
H	 0.6992828515	-0.0163908226	 0.7097409768	 0.152724
H	-0.8275872605	-0.9052074293	 0.792916189	 0.114733
H	-0.3214103421	-1.7568747855	-1.454071203	 0.268851
H	 2.4578371766	-1.6595782375	-3.1242925834	 0.157699
H	 3.5390168764	-3.8502530572	-2.7261373677	 0.134631
H	 3.9432308448	-2.6976581051	-1.424216117	 0.160109
H	 2.7544118395	-3.9866381479	-1.1405490679	 0.139392
