15
gdb 132608	3.12906	1.31572	0.92715	2.1596	73.22	-0.1899	0.002	0.1919	1167.3846	0.113229	-461.975484	-461.967707	-461.966763	-462.007353	30.658	
N	 0.0054634274	 1.4264053104	-0.0936337444	-0.594308
C	 0.0021566693	 0.0249832636	-0.0361289869	 0.323697
C	-1.1990945276	-0.6945026736	-0.0178303521	-0.179609
C	-1.2064609825	-2.0860491007	-0.0283009963	-0.185576
C	-0.0145532276	-2.8013872775	-0.0559365048	 0.237922
O	-0.0161653649	-4.165981517	-0.0629738265	-0.447714
C	 1.1723337234	-2.0721689981	-0.0727427878	 0.195652
F	 2.3244017831	-2.7765220383	-0.0959412513	-0.103175
C	 1.2064585333	-0.6912391604	-0.0636491301	-0.331179
H	 0.8355055851	 1.853333787	 0.2932832544	 0.244875
H	-0.8239363272	 1.8517761538	 0.2963971094	 0.245093
H	-2.1419242348	-0.1569686904	 0.0006515647	 0.085687
H	-2.1407808254	-2.6355982302	-0.0120659105	 0.109408
H	 0.9028691466	-4.4575601982	-0.084432194	 0.299463
H	 2.1665453118	-0.1874419203	-0.0831686439	 0.099762
