23
gdb 76187	2.00605	1.32991	1.12353	3.2943	88.02	-0.24	-0.0119	0.2281	1277.9244	0.202116	-388.305247	-388.29417	-388.293226	-388.340873	40.448	
C	-1.7357134591	 0.9521745765	-0.539224031	-0.420893
C	-0.8007317443	-0.2214905524	-0.3412096576	-0.098454
C	 0.3319283136	-0.5910315547	-1.2531103294	 0.265556
C	 0.5516714525	-2.0628429145	-1.5796778931	-0.456084
C	 0.6987296515	 0.2940670608	-2.434142887	-0.447208
C	 0.6430064109	-0.0568672376	 0.1706856132	 0.165002
C	 1.2754054595	 1.3075169381	 0.3781760301	-0.462457
C	 1.0508651522	-1.0393630303	 1.2098208774	 0.117505
O	 1.8591888761	-0.8139796892	 2.0799447325	-0.276208
H	-1.2514336435	 1.813771075	-1.0022327613	 0.121605
H	-2.573416441	 0.6628242338	-1.1833577449	 0.123643
H	-2.1531913842	 1.2821890682	 0.4178886865	 0.126679
H	-1.3078506439	-1.0821821456	 0.0939628071	 0.085144
H	 0.0274611523	-2.3151854715	-2.508916235	 0.117034
H	 1.6143795158	-2.2832661125	-1.7324176046	 0.123128
H	 0.1777384524	-2.7344447529	-0.8048597608	 0.119668
H	 0.5251309065	 1.3559581734	-2.261244139	 0.119068
H	 1.7560391825	 0.1691678006	-2.6931939991	 0.123322
H	 0.1104002652	 0.0016136346	-3.3116822604	 0.119099
H	 0.8372605652	 2.080397162	-0.2527635367	 0.108963
H	 1.160613426	 1.6130890506	 1.4215882573	 0.13414
H	 2.3500374452	 1.2713627411	 0.1750280392	 0.129144
H	 0.5367556185	-2.0245700033	 1.1656693167	 0.062602
