19
gdb 52843	2.40599	1.06735	0.94573	3.0715	80.71	-0.2443	0.0287	0.2731	1377.0985	0.155668	-422.983794	-422.97329	-422.972346	-423.021507	36.493	
C	 0.1538359707	 1.5437711406	-0.0638099711	-0.499617
C	 0.0974127933	 0.0894219051	-0.04054106	-0.005438
C	 0.0399568635	-1.1143492472	-0.0203210641	 0.091116
C	 0.0271803673	-2.5686686364	-0.0009841768	 0.134138
O	 0.8852108008	-3.1158925522	-0.9853496925	-0.463115
C	 0.121223837	-3.2059149748	 1.419148013	-0.10449
O	-1.2553590364	-3.6144629583	 1.3730230442	-0.293786
C	-1.3700141418	-3.2647839707	-0.0255312548	 0.139348
C	-2.6221574154	-2.4807138492	-0.3394729716	-0.411123
H	 1.144347974	 1.9082391618	 0.2295358124	 0.152023
H	-0.0642384704	 1.9351835048	-1.0633022465	 0.153713
H	-0.5762963077	 1.9752323482	 0.6294139764	 0.156581
H	 1.6264489896	-2.5124854032	-1.1004279728	 0.283943
H	 0.8149442827	-4.0566253621	 1.4327945353	 0.101274
H	 0.3264838315	-2.5325901569	 2.2573485428	 0.104902
H	-1.2954201582	-4.1607142796	-0.6577909642	 0.085799
H	-2.668148301	-1.5645035668	 0.2543455005	 0.126182
H	-2.6463757112	-2.2146206122	-1.4012640418	 0.122394
H	-3.5054187485	-3.0875903808	-0.1172134284	 0.126155
