17
gdb 41927	2.31973	2.25169	1.95651	1.0548	65.62	-0.2354	0.0657	0.3011	829.1641	0.139278	-458.93455	-458.92816	-458.927216	-458.96516	26.105	
C	-0.0009240892	 1.5310154492	-0.100887497	-0.078879
O	 1.2984108869	 2.1188918049	 0.0594192634	-0.263039
C	 2.2206292636	 1.3784719915	 0.8082623183	 0.142042
C	 1.8263337042	 1.1665331422	 2.2746743248	-0.096732
O	 0.607384576	 0.445283519	 2.4155113748	-0.261458
C	 0.3614016005	-0.5110444976	 1.4211895846	 0.045602
C	-0.0247749236	 0.017601401	 0.0446303859	-0.164976
C	 1.3046961627	-0.6689705865	 0.260981812	 0.065158
O	 2.4666016078	 0.1129936554	 0.2181523734	-0.250127
H	-0.6921118008	 1.985070564	 0.6224228315	 0.111295
H	-0.3264809958	 1.8128633141	-1.1065057178	 0.116025
H	 3.1625517009	 1.9298955298	 0.7529785744	 0.102942
H	 2.6527441865	 0.6342319349	 2.7675956475	 0.105902
H	 1.6766492388	 2.128899717	 2.7719921323	 0.118433
H	-0.1444044241	-1.3822680157	 1.824511961	 0.102996
H	-0.7985218271	-0.4943868785	-0.5179044852	 0.094619
H	 1.4883952126	-1.6522670347	-0.1567018139	 0.110198
