20
gdb 62879	2.81813	1.5657	1.156	1.3841	76.05	-0.2307	0.0742	0.305	1101.6543	0.168927	-440.207653	-440.198472	-440.197528	-440.240493	36.401	
C	-0.1122193544	 1.6056527438	 0.3775793525	-0.471217
C	-0.0992795732	 0.0928877028	 0.2034683345	 0.464209
O	-1.4003545438	-0.3545571608	-0.1099303161	-0.479491
C	 1.0472611384	-0.546442404	-0.6288040483	-0.162046
N	 1.9715547612	-0.0744141704	 0.4840671887	-0.348795
C	 0.7971649545	-0.7440407438	 1.1897504094	-0.163678
C	 0.868892656	-1.9122302207	 0.1539449938	 0.449731
C	-0.2374168551	-2.9236585659	-0.1081888408	-0.4956
O	 2.0855464561	-2.6350505983	 0.3296768414	-0.479213
H	 0.8806782178	 1.9933230877	 0.5933101957	 0.158213
H	-0.4998920165	 2.0767146237	-0.5317900982	 0.118529
H	-0.7807584151	 1.8794944968	 1.2053232848	 0.100011
H	-2.0214857463	 0.1791212938	 0.3947743012	 0.280761
H	 1.2840081795	-0.3839914917	-1.6835619702	 0.069158
H	 2.7548606477	-0.7270728287	 0.5206137256	 0.231934
H	 0.745028705	-0.811290305	 2.2791518965	 0.071411
H	-0.019097926	-3.4729248575	-1.0345304437	 0.099616
H	-0.2544156644	-3.6531822289	 0.7083135335	 0.119867
H	-1.215527315	-2.4649613406	-0.208500174	 0.157352
H	 2.1508999937	-3.2748368322	-0.3863006062	 0.279247
