18
gdb 57619	4.27847	0.85143	0.83931	3.6073	76.45	-0.2693	-0.0012	0.2681	1384.4823	0.146397	-398.159198	-398.149256	-398.148311	-398.194046	35.953	
C	 0.0249659705	 1.5574466159	 0.0953450463	-0.413358
C	 0.0473911213	 0.0244573832	 0.070643396	 0.214726
N	 0.71629067	-0.4511081335	 1.2749680231	-0.507845
C	-1.3943338702	-0.5510381866	 0.0679864304	-0.364051
C	-2.2020021424	-0.1022493146	 1.199142434	 0.293283
N	-2.8652458434	 0.2564526018	 2.0741223443	-0.309844
C	 0.7209156045	-0.4811425807	-1.25189366	-0.373273
C	 2.13231416	-0.1168834915	-1.3151178281	 0.265865
N	 3.2487345996	 0.1820901731	-1.3264405449	-0.306145
H	 1.0435946388	 1.9545785822	 0.0540675385	 0.142554
H	-0.5277342701	 1.9578738145	-0.7599006345	 0.121013
H	-0.4465241492	 1.9091306607	 1.015050478	 0.161686
H	 0.8400609116	-1.4595701174	 1.2599874073	 0.230856
H	 1.6399856713	-0.037510049	 1.358849133	 0.249879
H	-1.9088547703	-0.2702638887	-0.8579962476	 0.151479
H	-1.3523096259	-1.6471328215	 0.086658394	 0.146236
H	 0.6436168309	-1.573689579	-1.3113771269	 0.14494
H	 0.2099353229	-0.0748987589	-2.1327112928	 0.151997
