18
gdb 49016	2.66374	1.67905	1.30315	1.9871	75.98	-0.2326	-0.0251	0.2076	1009.3948	0.148152	-401.887775	-401.880259	-401.879315	-401.919767	29.554	
O	-0.1063106541	 0.0097558551	-0.23345557	-0.265528
C	 0.0105854766	 1.1777335428	 0.0557762838	 0.063569
C	 1.2898710387	 1.9319190383	 0.0449882434	 0.264454
C	 1.4659571764	 3.1386440401	 1.0218194395	-0.287859
C	 1.7506667064	 4.1018048271	-0.1687134225	-0.221054
C	 1.5758401508	 2.9240573015	-1.1665192169	-0.080223
C	 2.809293985	 2.0634338834	-1.508629364	-0.044297
N	 3.6989761723	 2.0535410719	-0.3227071387	-0.347198
C	 2.5411615079	 1.1342816391	-0.376846296	-0.117865
H	-0.8799994147	 1.7879082803	 0.3362351814	 0.06841
H	 0.5457002254	 3.3711526467	 1.5654100174	 0.100401
H	 2.2832222892	 3.0169524148	 1.732520057	 0.123029
H	 0.9990297302	 4.8848703909	-0.2918668541	 0.098104
H	 2.7434969606	 4.5527749075	-0.1709327	 0.119436
H	 0.850718886	 3.0213490552	-1.9747123864	 0.08459
H	 3.2082933717	 1.8687523698	-2.49659505	 0.097111
H	 4.5244477147	 1.5108103294	-0.5729173372	 0.235078
H	 2.6583996669	 0.061358916	-0.3016154768	 0.109839
