20
gdb 87012	5.77812	0.60907	0.58889	1.7413	77.75	-0.2319	-0.0253	0.2066	1851.9256	0.169019	-440.258205	-440.248546	-440.247602	-440.294133	34.287	
O	 0.1036220643	 1.4933004819	 0.0520854184	-0.435463
C	 0.0284092601	 0.0954027661	-0.0808372767	 0.146308
C	 0.2901046688	-0.7089660141	 1.2198318035	-0.207064
N	-1.1738436268	-0.7678563565	 1.4258619002	-0.087201
C	-1.7380281128	-1.9601756813	 2.0200371651	-0.153733
C	-3.2644369962	-1.8515151592	 2.1538818387	-0.275542
C	-3.8441430866	-3.0045367895	 2.9398528601	 0.15766
O	-4.706586089	-3.7462913063	 2.5470185101	-0.232844
C	-1.4028633836	-0.5000138097	-0.0133775795	-0.206134
H	-0.425380944	 1.7393346361	 0.819840268	 0.28785
H	 0.6303207095	-0.1644815521	-0.95175213	 0.095893
H	 0.7429713975	-1.6933638909	 1.0156059192	 0.088625
H	 0.8557688779	-0.2081128238	 2.0130586981	 0.104526
H	-1.4840383423	-2.8683165504	 1.4376372559	 0.089429
H	-1.2913752158	-2.0868921059	 3.0150685486	 0.107312
H	-3.491594158	-0.9221074921	 2.694215495	 0.127417
H	-3.7536716153	-1.8123192551	 1.1766758996	 0.125239
H	-3.4006587908	-3.1321384654	 3.9563758832	 0.071357
H	-2.2328922301	 0.1758621693	-0.2439345708	 0.106331
H	-1.5019389867	-1.4180378913	-0.6165360264	 0.090037
