23
gdb 110296	2.08121	1.36562	1.19329	1.3396	85.56	-0.2449	0.0686	0.3135	1238.9372	0.205493	-388.261287	-388.251578	-388.250634	-388.295524	37.163	
C	 0.2744405222	 0.5008584361	-1.3721795116	-0.380195
C	-0.1274844117	 0.3114649525	 0.0947689089	-0.198541
C	-1.4301325809	-0.4706856988	 0.2469214082	-0.011786
C	-1.5283434552	-1.9508071517	-0.1548738742	-0.096768
C	-0.8007232321	-2.9105836063	 0.7484374881	 0.012754
C	 0.5685394247	-2.7752082233	 1.3908732228	-0.42523
C	-2.0937900483	-2.3177744959	 1.238801154	-0.094744
C	-1.9784798292	-0.8613607626	 1.6731556946	 0.068012
O	-1.1703214871	-0.6447788174	 2.8162596764	-0.42127
H	 1.2026849548	 1.0740479975	-1.4598447859	 0.109971
H	 0.4316915172	-0.4645736907	-1.864981129	 0.121019
H	-0.5016609832	 1.0349152817	-1.9323908681	 0.109502
H	 0.6842735582	-0.1817796196	 0.6340963658	 0.107552
H	-0.2528881061	 1.2967428852	 0.5660757427	 0.078565
H	-2.2208955985	 0.084344628	-0.2731644086	 0.064891
H	-1.9051241563	-2.2827839706	-1.115870285	 0.079925
H	-0.9783198099	-3.9286123092	 0.3998446485	 0.083147
H	 0.6793772836	-1.8415834192	 1.9389729839	 0.149558
H	 0.7170684557	-3.5896100154	 2.109091706	 0.108591
H	 1.3635581731	-2.8503261371	 0.6399493143	 0.104329
H	-2.9453272068	-2.9435750219	 1.4795642593	 0.079575
H	-2.9730220547	-0.4231222288	 1.829550594	 0.069173
H	-1.1933227294	 0.2948586275	 3.024082005	 0.281969
