16
gdb 126323	2.12024	1.64145	0.99106	5.9945	73.55	-0.271	-0.0685	0.2025	1168.0771	0.124423	-434.081516	-434.073229	-434.072285	-434.114918	29.501	
C	-0.261629489	 1.5177685921	-0.0711095871	-0.377457
C	 0.0899513959	 0.0216472654	 0.0329631449	-0.309855
C	 0.7958666945	-0.517293463	-1.1713448499	 0.350881
C	 2.1155259389	-0.7939160293	-1.3907133903	-0.157573
N	 2.2824908512	-1.2421739043	-2.6786776632	-0.161599
N	 1.1484236935	-1.2631037621	-3.2809336671	-0.104456
N	 0.2048891855	-0.82007324	-2.3813117282	-0.090836
C	-1.1602580495	-0.7532091762	-2.7282873667	 0.187515
O	-1.5996040931	-1.0274675579	-3.8044997782	-0.238005
H	 0.6382592419	 2.1160093879	-0.2379358721	 0.138052
H	-0.9508098848	 1.7163912832	-0.8974300636	 0.127573
H	-0.7364336889	 1.8603982533	 0.8523793114	 0.130202
H	 0.7498730026	-0.135218411	 0.8915248657	 0.132918
H	-0.815337776	-0.5615335399	 0.2384060536	 0.125576
H	 2.9489031761	-0.705416358	-0.7122816579	 0.135767
H	-1.7718499688	-0.4159268003	-1.8743255015	 0.111297
