18
gdb 63246	2.30524	1.77373	1.31077	3.196	74.3	-0.2587	-0.0003	0.2585	1027.1644	0.147245	-439.102806	-439.094246	-439.093301	-439.135827	32.85	
C	 0.2219589939	 1.512208544	 0.0002217985	-0.410478
C	-0.02031228	-0.0161420613	 0.0117197093	 0.260575
O	-1.4076894363	-0.2716584399	 0.028968087	-0.478588
C	 0.5929449758	-0.6610773546	-1.2069367302	-0.078375
C	 1.8590426033	-1.0578244459	-1.1958120215	-0.109275
C	 2.6985573166	-0.9072233065	 0.0355381132	-0.120841
O	 1.9464764094	-0.8663175834	 1.2622002818	-0.258976
C	 0.6211812222	-0.6137925192	 1.2627160797	 0.368006
N	-0.1128728024	-0.8227956198	 2.2742916067	-0.548631
H	 1.2880793017	 1.7599596068	-0.0025939058	 0.11235
H	-0.2380616256	 1.9393653516	-0.8947144505	 0.127399
H	-0.2447669001	 1.9581595512	 0.8826553076	 0.132179
H	-1.6107679248	-0.4929012524	 0.9530483904	 0.292802
H	-0.0519824552	-0.7605936989	-2.073408932	 0.114897
H	 2.3402239601	-1.4934340307	-2.0658308342	 0.108348
H	 3.3871600708	-1.751303951	 0.1479116213	 0.132251
H	 3.3123823562	 0.0038578471	-0.011839677	 0.129991
H	 0.4115386343	-1.2259362171	 3.0498516657	 0.226366
