19
gdb 72819	2.63127	1.56096	1.30541	3.5292	76.48	-0.2362	0.0212	0.2574	1056.0308	0.161438	-419.20296	-419.194964	-419.19402	-419.23539	31.001	
C	-0.0808629986	 1.5384735716	-0.022034471	-0.491649
C	-0.0054043123	 0.0226643049	 0.0004027942	 0.297733
C	-1.2630791258	-0.7898906885	 0.4052795087	-0.223678
N	-0.3798845511	-1.7183715054	 1.1464470752	-0.316122
C	 0.7091795972	-0.7063932143	 1.1682534452	-0.116286
C	 2.0197445447	-1.204353862	 0.6204571567	 0.443284
N	 2.9950070257	-1.6281287364	 1.3014181441	-0.553041
O	 1.9954665851	-1.1069054681	-0.7412838588	-0.245612
C	 0.7421131136	-0.581310044	-1.2149483735	-0.128801
H	 0.9164663712	 1.9796193359	-0.128387609	 0.129649
H	-0.6896179112	 1.8895764163	-0.8634180474	 0.122683
H	-0.5255128203	 1.9294176925	 0.8982275727	 0.120867
H	-1.9369653619	-0.1965442338	 1.0393764767	 0.093217
H	-1.8512365393	-1.2561664573	-0.3938825149	 0.102407
H	-0.7053135858	-2.0268775574	 2.0546377224	 0.228068
H	 0.8320934318	-0.1553672893	 2.1050473823	 0.08662
H	 3.7604907206	-1.9194042002	 0.6897795253	 0.219654
H	 0.1780128195	-1.3970925789	-1.6789380614	 0.118987
H	 0.972256197	 0.1672920646	-1.9787520073	 0.112021
