17
gdb 102942	2.11389	1.13631	0.85476	5.5214	70.42	-0.2542	-0.0069	0.2473	1370.6127	0.134187	-455.156672	-455.146713	-455.145769	-455.193026	33.526	
C	 0.2663256605	 1.0496110248	-0.5395565187	-0.327414
N	-0.1636779905	 0.1968023634	 0.5633653594	-0.272419
C	-1.4193314876	-0.5018908103	 0.3418925249	-0.128601
C	-1.3736376575	-1.6423132989	-0.7056897904	-0.107455
O	-0.3259677019	-2.5512831159	-0.3815632494	-0.189796
C	-0.6572573839	-3.7767737838	 0.1005988535	 0.18175
O	 0.1665362281	-4.5791501727	 0.4072705251	-0.259571
C	-1.9127907531	-1.0460688499	 1.6200163337	 0.291208
N	-2.3083630421	-1.517245298	 2.5976104304	-0.313449
H	 1.2019356015	 1.5385033357	-0.2572115503	 0.140216
H	 0.4336101281	 0.5308550621	-1.4973216239	 0.109731
H	-0.4809380109	 1.8337102175	-0.7043017354	 0.130602
H	 0.5553161595	-0.4792919737	 0.79897537	 0.246478
H	-2.1583710933	 0.2310542678	-0.0092966809	 0.134653
H	-2.3407818184	-2.1566966969	-0.7592464828	 0.130234
H	-1.1441104887	-1.2287453839	-1.6907650011	 0.136589
H	-1.7505429697	-3.9313449971	 0.1587155256	 0.097245
