20
gdb 38272	3.13462	1.63637	1.34267	1.8596	78.41	-0.2257	0.0715	0.2972	1004.3807	0.174779	-403.060303	-403.053532	-403.052588	-403.091098	28.768	
C	-0.0134852066	 1.5555338573	 0.1576774504	-0.21648
N	 1.4890045079	 1.2561472919	 0.040766603	-0.178492
C	 1.1661513698	 0.0809855809	 1.0004889093	-0.244245
C	-0.0106870454	 0.0106768906	-0.0024438641	 0.315731
C	-1.1534413368	-0.9068663909	-0.3560010507	-0.360189
C	-1.5542113563	-0.5295363192	-1.8038909379	-0.064696
O	-0.4517910527	-0.4905094136	-2.7039580565	-0.252318
C	 0.498977469	 0.5470091793	-2.4331064892	-0.156043
C	 1.0788251712	 0.2352240826	-1.0597641042	 0.061597
H	-0.2963222866	 1.9575862575	 1.1346371741	 0.097488
H	-0.4077452598	 2.1871401381	-0.6384616611	 0.101569
H	 1.909676279	-0.7207615012	 0.975290871	 0.102322
H	 0.9663299784	 0.4116469955	 2.0235012924	 0.098872
H	-0.8204068811	-1.951134558	-0.3300240303	 0.108377
H	-2.0199091161	-0.8120147594	 0.3086815365	 0.098064
H	-2.2446971243	-1.2687151825	-2.2186381722	 0.110949
H	-2.0684959979	 0.4457236031	-1.7988133139	 0.090347
H	 1.2445541329	 0.4820295106	-3.2293877917	 0.111737
H	 0.0197268274	 1.5329066547	-2.4992520391	 0.100492
H	 1.823883918	-0.5619679671	-1.1489168158	 0.074919
