16
gdb 15960	3.04736	1.94243	1.36551	2.7647	69.28	-0.259	0.0168	0.2758	907.6037	0.131771	-342.761607	-342.754316	-342.753372	-342.793339	27.296	
N	-0.3874068049	-0.832962593	-0.8760273284	-0.332899
C	-0.246087074	 0.2251749599	-0.4303702417	 0.275386
C	-0.0273647336	 1.5502574716	 0.1208622277	-0.225643
C	 0.0661687014	 1.7202329002	 1.675474674	-0.231575
C	 1.2693503813	 2.6857337497	 1.4739983786	-0.294238
C	 1.3964350778	 2.1552405278	 0.0441628052	 0.358332
C	 2.5620817809	 1.5295495858	-0.6131066633	-0.301935
N	 2.0260378821	 2.8312886342	-1.0712549635	-0.36534
H	-0.7642921954	 2.2431815025	-0.299777935	 0.126296
H	-0.8254924607	 2.1161385416	 2.1617580943	 0.120682
H	 0.3564019533	 0.7861243124	 2.1584502925	 0.132113
H	 0.9706634267	 3.7377773681	 1.4894977744	 0.119616
H	 2.1298105782	 2.5510562485	 2.1315800328	 0.117511
H	 3.5398852801	 1.5808833621	-0.1419246364	 0.125154
H	 2.3901646006	 0.6468131769	-1.2235276228	 0.138681
H	 1.4845270564	 2.7105646216	-1.9244429884	 0.237858
