14
gdb 129852	7.43505	0.84217	0.75875	3.8425	69.48	-0.2282	-0.0047	0.2235	1403.893	0.101077	-469.993231	-469.985065	-469.98412	-470.026685	29.378	
N	 0.0296382494	 1.3393763275	 0.1726278455	-0.592344
C	-0.0845315646	-0.0169616376	 0.0275720965	 0.526771
C	-1.1433817878	-0.880494892	 0.0779689511	-0.495607
C	-0.5104725718	-2.137581595	-0.0743263738	 0.5351
O	-1.1937620571	-3.3036174234	-0.0919584068	-0.224849
C	-0.4895076485	-4.4748426677	 0.020542209	 0.10906
N	-1.1130502774	-5.553594711	-0.1460106918	-0.424306
N	 0.7926846496	-2.0701350643	-0.2154402739	-0.262675
O	 1.0660516997	-0.6845373962	-0.1411204134	-0.224936
H	 0.8781732784	 1.7322964257	-0.2089432449	 0.271462
H	-0.7963684321	 1.8697284654	-0.0573453908	 0.270842
H	-2.1899479266	-0.6736391453	 0.2117623348	 0.124923
H	 0.5630251414	-4.3217706268	 0.2642377876	 0.14747
H	-0.4819828926	-6.3408887291	-0.0075186391	 0.239089
