20
gdb 93491	2.49625	1.43541	1.07181	1.9109	76.39	-0.263	0.0137	0.2767	1176.6033	0.171813	-440.307037	-440.298195	-440.297251	-440.340355	33.888	
C	-0.0169495591	 1.5814281469	 0.0151925356	-0.409829
C	 0.011750861	 0.0530892342	 0.0485275632	-0.001741
C	 0.6501640309	-0.5339100027	-1.2233698962	-0.275619
C	 0.8858854366	-2.0247999521	-1.1629095724	 0.360119
N	 0.7754784724	-2.7647514215	-2.1815406117	-0.494284
O	 1.3490108825	-2.519910846	 0.0376033661	-0.266976
C	 0.7421609807	-2.0126608001	 1.2398106192	-0.12201
C	 0.7690010536	-0.4911941117	 1.2755405115	 0.123466
O	 2.1054945965	-0.0093937536	 1.346107823	-0.442843
H	 1.0010366723	 1.9807123717	 0.0338314664	 0.134701
H	-0.516996854	 1.9469365519	-0.8872915953	 0.11406
H	-0.5512088297	 1.9834296067	 0.8824100447	 0.112578
H	-1.0191189912	-0.3212143341	 0.1226202729	 0.077833
H	 0.0582328216	-0.3177418355	-2.1141474912	 0.133348
H	 1.6291285389	-0.0562901602	-1.3710704232	 0.124233
H	 1.0189194466	-3.727965942	-1.9384017508	 0.220197
H	-0.2880057157	-2.3853510648	 1.3165972392	 0.11014
H	 1.3306764493	-2.4331235849	 2.058480235	 0.125052
H	 0.2756911113	-0.1512964585	 2.1941157201	 0.08719
H	 2.6457968754	-0.5708549636	 0.778580894	 0.290384
