24
gdb 121497	5.3228	0.52571	0.50346	2.6979	92.5	-0.2446	0.0252	0.2698	2319.5931	0.214244	-405.559086	-405.547511	-405.546567	-405.59731	40.473	
C	 0.0010672599	 1.5249950423	-0.0817777816	-0.384038
C	 0.0052944486	 0.0086735704	-0.0302296669	-0.052982
O	-1.3517238167	-0.4307844221	 0.0784208366	-0.204978
C	-1.5443524928	-1.7633075066	 0.0486719395	 0.127893
N	-2.6935343623	-2.2532044132	 0.1985884304	-0.21513
C	-2.8272713929	-3.6956502579	 0.131253153	-0.146229
C	-3.5177041792	-4.2655625145	 1.3837765835	 0.05499
C	-3.8266858105	-5.7546899537	 1.1888352428	-0.390327
C	-2.6810974573	-4.0281311472	 2.6457170076	-0.385278
H	 1.0253027438	 1.9008309647	-0.1609269038	 0.120193
H	-0.5686555068	 1.8785760379	-0.9452766988	 0.135533
H	-0.4533154618	 1.9387218854	 0.8223982746	 0.136618
H	 0.4608571518	-0.4117902647	-0.9373998269	 0.107015
H	 0.5812247625	-0.3510843531	 0.8334585329	 0.108173
H	-0.6296328463	-2.3535900672	-0.1238020356	 0.071006
H	-3.4455536162	-3.9372426796	-0.7438513144	 0.099293
H	-1.8550225867	-4.2044883164	-0.012265701	 0.071177
H	-4.4654261288	-3.7230023749	 1.4948757771	 0.085645
H	-2.9055985645	-6.3356475218	 1.0569764535	 0.108776
H	-4.3518993293	-6.1644069215	 2.0575338892	 0.110771
H	-4.4550173953	-5.9224632282	 0.3073989341	 0.109218
H	-1.7184813321	-4.5517637351	 2.5808512152	 0.100763
H	-2.4779929719	-2.963449194	 2.7888010114	 0.124079
H	-3.1985712952	-4.3979833789	 3.5369800877	 0.107815
