14
gdb 28627	5.43145	1.04148	0.87411	5.6497	79.3	-0.2398	-0.0644	0.1754	1229.1834	0.102408	-432.929929	-432.922328	-432.921384	-432.96213	28.166	
N	-0.0520791598	 1.3671779243	-0.0858146305	-0.5604
C	-0.0025022131	 0.008846124	-0.0378330244	 0.397014
N	-1.1642062458	-0.6528640265	-0.0232503508	-0.323501
C	-1.0790679602	-1.9830507366	-0.0160450973	-0.042723
C	 0.1311902285	-2.6724659258	-0.0162361967	 0.187008
C	 0.1425755185	-4.1510979927	-0.004534071	 0.096947
O	 1.1273238847	-4.848000695	-0.0011961788	-0.262261
N	 1.3023470154	-1.997405889	-0.0240640126	-0.26168
C	 1.2383555221	-0.6880429707	-0.0361756171	-0.06752
H	 0.7691273785	 1.90765738	 0.1241727922	 0.268635
H	-0.9476055017	 1.7981644747	 0.0778014013	 0.270463
H	-2.021658032	-2.526921778	-0.0055740616	 0.122518
H	-0.880129139	-4.5953307686	 0.001125431	 0.065088
H	 2.176499664	-0.1347794302	-0.0448668137	 0.110413
