20
gdb 119802	5.3367	0.78578	0.74061	0.8877	81.59	-0.2143	0.0147	0.229	1551.3653	0.17153	-403.121432	-403.112664	-403.11172	-403.155691	32.732	
O	-0.1816447763	 1.4659548962	-0.0875459222	-0.417794
C	-0.0140042189	 0.0587890665	-0.1504865602	-0.067563
C	-1.3656690378	-0.5758709452	 0.1886009935	-0.296941
C	-1.3479169496	-2.0736739709	 0.1543250283	 0.297502
C	-1.5968574486	-2.9169599451	 1.1607895906	-0.194504
C	-1.568118439	-4.3281645038	 0.6904925736	-0.055903
C	-2.5828681287	-4.6760047168	-0.3460899711	-0.234529
N	-1.2253011118	-4.300534389	-0.7535577746	-0.100873
C	-1.0635269086	-2.8740198873	-1.1097422836	-0.257561
H	 0.6620075914	 1.8795040026	-0.2918935558	 0.286985
H	 0.3121134254	-0.2582738975	-1.1535305863	 0.090019
H	 0.7447994333	-0.2909322711	 0.5670153	 0.092555
H	-1.6727416488	-0.2225491357	 1.1782814093	 0.112805
H	-2.1015139173	-0.1866614475	-0.5283413641	 0.113501
H	-1.8205179373	-2.6339717296	 2.1826560664	 0.096081
H	-1.1130956981	-5.1039738556	 1.3011822363	 0.09317
H	-2.8354375736	-5.7147964742	-0.5432264958	 0.113186
H	-3.3927419156	-3.9653300533	-0.5006843026	 0.108073
H	-1.7353337083	-2.6048519469	-1.935916896	 0.111286
H	-0.0398502618	-2.714395686	-1.4748991957	 0.110505
