17
gdb 72058	2.46696	1.6552	1.29147	1.9916	81.46	-0.2203	0.0385	0.2588	1031.1227	0.135189	-384.604222	-384.59634	-384.595396	-384.636222	31.454	
O	-0.2940472113	 1.2925596203	-0.10981974	-0.457396
C	-0.0505467445	-0.058577456	-0.0502011153	 0.335976
C	 0.9263191891	-0.8628999066	-0.903325074	-0.295642
C	 0.1154347691	-2.1094380826	-0.4490553923	-0.124416
C	 0.3837371975	-2.2096792364	 1.0777140653	-0.236599
C	-0.3772825199	-0.8932986972	 1.1937907599	-0.195964
C	-1.1123436948	-1.1440469878	-0.1315397217	 0.295126
C	-2.4742508553	-1.1390886629	-0.4839944019	 0.002882
C	-3.6364816134	-1.1514087517	-0.8015342243	-0.375756
H	 0.2496024053	 1.7344902844	 0.5518491752	 0.289472
H	 0.7814076393	-0.6460072623	-1.9646342446	 0.113761
H	 1.9940444667	-0.8395609054	-0.6546987143	 0.086892
H	 0.06057481	-2.9947174737	-1.0767701136	 0.087155
H	-0.168443366	-3.0335148304	 1.5376192425	 0.109972
H	 1.4312126956	-2.2407551692	 1.399388482	 0.090345
H	-0.8049836707	-0.4210300248	 2.0694582841	 0.099964
H	-4.6605303268	-1.1531725377	-1.0801421569	 0.174226
