20
gdb 59103	2.16238	1.38668	1.05543	2.5074	76.44	-0.2288	-0.0287	0.2	1241.1481	0.167979	-440.273888	-440.264001	-440.263057	-440.308874	36.038	
C	 0.0483128896	 1.545091554	 0.0184187401	-0.420502
C	 0.0177586991	 0.0151961038	 0.0443504838	 0.115286
O	 0.7481341013	-0.5072297171	 1.1447631792	-0.433638
C	-1.4233294503	-0.5126634427	 0.0331527038	-0.084529
N	-1.6081103147	-1.9772458766	-0.1042346226	-0.079352
C	-2.0584111238	-2.4835929657	-1.3826648319	-0.330027
C	-2.5428662839	-2.0580622979	 1.0394459599	-0.284322
C	-2.1291760055	-0.6272141642	 1.3939326515	 0.387074
O	-2.2201345011	 0.08136894	 2.3539096774	-0.308087
H	 1.0817039338	 1.8963806266	 0.0754137108	 0.127897
H	-0.4038315716	 1.9394439311	-0.8974864041	 0.115302
H	-0.5062548188	 1.9537139909	 0.8709869421	 0.134357
H	 0.5262640323	-0.3821420615	-0.8427847832	 0.095259
H	 0.4110894724	-0.0841223238	 1.9435195279	 0.288533
H	-2.0381458967	 0.0668115101	-0.6792490524	 0.081224
H	-1.3035060554	-2.2788354954	-2.1483193673	 0.127335
H	-2.1896355824	-3.5688380668	-1.3286939004	 0.128376
H	-3.0160197152	-2.0378247174	-1.715777398	 0.091727
H	-3.6089178796	-2.1076012663	 0.7574586355	 0.112522
H	-2.3302698297	-2.8429444113	 1.772910978	 0.135567
