15
gdb 55602	4.30471	0.81746	0.72752	2.5508	65.72	-0.2553	-0.0489	0.2064	1474.1874	0.111712	-491.166242	-491.157061	-491.156117	-491.201866	31.813	
N	 0.6300499937	 0.3008404969	-0.5910375934	-0.506819
C	-0.209049475	 0.2155909708	 0.4703944718	 0.391033
O	-0.1193229668	 0.8811075689	 1.4815344002	-0.352494
C	-1.3861145444	-0.7661873519	 0.2823632276	-0.43183
C	-1.0071862398	-2.1201864863	-0.305618301	 0.431905
O	-0.3431454596	-2.2400112203	-1.3097911677	-0.318739
N	-1.5052368159	-3.2079832483	 0.4136572889	-0.347417
C	-1.3597030368	-4.5675139757	 0.1200098978	 0.168451
O	-0.7834453635	-5.0353508743	-0.8193529923	-0.241118
H	 1.4578866652	 0.8647255045	-0.4837169897	 0.262264
H	 0.5975140935	-0.4167527475	-1.3028777669	 0.283851
H	-1.8839136145	-0.8414893124	 1.2497122614	 0.131248
H	-2.0883740848	-0.3058927258	-0.4233904867	 0.169346
H	-2.0288877292	-2.9981340528	 1.2506316826	 0.265374
H	-1.866498702	-5.1761145859	 0.8959364174	 0.094943
