19
gdb 37058	3.11469	1.74052	1.48029	1.503	78.56	-0.2155	0.016	0.2314	955.0956	0.161929	-385.883432	-385.876553	-385.875608	-385.914254	28.864	
C	 0.020304137	 1.4434128313	-0.0185035484	-0.395611
C	 1.3590997291	 0.7179955226	-0.0148626037	 0.258788
C	 1.9994434451	 0.4710927369	 1.3398811235	-0.324738
C	 0.8353233848	-0.1366052922	 2.1746729711	-0.097409
O	-0.0942838797	-0.7212690916	 1.2540689514	-0.30626
C	 0.0752688027	-0.0687383843	 0.027002372	 0.41111
C	-0.0145773946	-0.8112415217	-1.256881473	-0.177546
C	 1.0331696228	-0.5167824065	-2.03482987	-0.06284
C	 2.0205096618	 0.4283949996	-1.3617215057	-0.369482
H	-0.2685555867	 1.976971292	 0.8814502396	 0.112159
H	-0.3054877808	 1.9090742045	-0.9426518883	 0.112946
H	 2.8133081015	-0.2532371437	 1.2260565464	 0.107787
H	 2.4112231298	 1.3604232989	 1.8275907001	 0.103599
H	 1.160719038	-0.9179291145	 2.8673400948	 0.111217
H	 0.3347752628	 0.645145174	 2.7626334691	 0.100636
H	-0.8407671743	-1.4613282328	-1.5184624017	 0.102149
H	 1.1710760543	-0.869214117	-3.0520175251	 0.094924
H	 2.1847880357	 1.3351664753	-1.957665861	 0.111208
H	 3.0063435207	-0.0413233907	-1.242392001	 0.107364
