18
gdb 50582	3.55091	1.22187	1.01022	2.7657	72.51	-0.2287	-0.0331	0.1956	1169.0625	0.147906	-439.056447	-439.048403	-439.047458	-439.090211	29.82	
O	-0.8969810831	 1.0461409596	 0.4281999902	-0.246355
C	 0.2124331732	 0.817314194	 0.022736235	 0.131859
C	 1.342987445	 1.8304494467	 0.0414073141	 0.022321
C	 1.3887381095	 2.6315318137	 1.353906372	-0.165997
N	 2.6671696573	 3.3248001151	 1.5763898715	-0.103956
C	 3.7757050417	 2.5191283351	 2.0949433889	-0.240061
C	 3.8023183866	 3.0102970289	 0.6958147131	-0.011872
C	 3.6095860488	 2.0307065767	-0.4454205168	-0.11804
O	 2.5507518278	 1.1262288168	-0.1826297819	-0.258391
H	 0.5043720757	-0.1669667833	-0.4054605418	 0.097205
H	 1.1662170298	 2.5249891173	-0.8015008055	 0.099699
H	 0.5836439622	 3.3719023273	 1.3393247585	 0.127548
H	 1.1918844681	 1.9633999414	 2.1989918012	 0.11638
H	 4.381273039	 2.9947286384	 2.8620023494	 0.11537
H	 3.601403968	 1.4543322865	 2.2371180861	 0.119156
H	 4.4213382918	 3.8703522951	 0.4441852677	 0.09508
H	 3.4032250618	 2.5808459421	-1.3790259348	 0.099044
H	 4.5105515968	 1.4289376586	-0.601028597	 0.12101
