19
gdb 77280	1.88251	1.23767	0.88404	5.0852	77.73	-0.2474	-0.0311	0.2163	1361.783	0.156261	-423.030731	-423.020836	-423.019892	-423.067043	34.515	
C	-0.013056679	 1.5951025438	 0.2090163403	-0.413702
C	 0.10514458	 0.0882979127	 0.1014183068	-0.046408
C	 0.3777931875	-0.6380467297	-1.1790271138	-0.050406
C	 0.5720725223	 0.0641969521	-2.5135731035	-0.314663
C	 1.4464645971	-0.74458886	-3.4530692981	 0.174208
O	 2.3965533636	-0.3065949255	-4.0460456239	-0.23135
C	 1.4455990426	-0.6359701579	-0.0765455173	-0.124986
C	 2.7208134752	 0.1067215193	-0.2111137874	 0.160317
O	 3.7581035718	-0.2665159617	 0.2822879177	-0.267757
H	 0.6340880342	 2.1302695719	-0.4886633845	 0.126904
H	-1.0433128609	 1.907476224	 0.0078645684	 0.127216
H	 0.2448495483	 1.9294536048	 1.2187913593	 0.134125
H	-0.5606022897	-0.4355466801	 0.7826145023	 0.105695
H	-0.1191734145	-1.5999919145	-1.2804644277	 0.105096
H	-0.4122115034	 0.1726933397	-2.9931566393	 0.128341
H	 1.0043680282	 1.0618983608	-2.4252223628	 0.127848
H	 1.140691829	-1.8112897148	-3.5638382006	 0.076366
H	 1.5720006167	-1.5611934684	 0.4759754816	 0.108437
H	 2.6837013208	 1.0488806735	-0.7985674874	 0.074718
