16
gdb 80158	2.44978	1.60564	1.34645	5.98	69.96	-0.2359	-0.0644	0.1715	1006.455	0.12502	-437.9238	-437.915962	-437.915018	-437.95624	29.666	
C	-0.0724940262	 1.5646531805	-0.0478803812	-0.431572
C	 0.0505939938	 0.0597113095	 0.0208440889	-0.026959
C	 1.3290321769	-0.7034754669	-0.1932188878	-0.038205
N	 2.5686518995	 0.0179018809	-0.0880640055	-0.304192
C	 2.8324113278	 0.5373013177	 1.1564827095	 0.280951
O	 3.7416034613	 1.2642750744	 1.4726214023	-0.344224
C	 1.6824904488	 0.0186117602	 2.069838409	 0.329817
O	 1.6486285849	 0.1568530937	 3.2624133683	-0.294076
C	 0.7124525906	-0.6989962673	 1.1889413789	-0.196799
H	 0.8492845041	 2.0766692793	 0.2370370805	 0.144552
H	-0.3271634898	 1.8766820961	-1.0662472337	 0.127757
H	-0.8662005586	 1.9164011906	 0.6179983099	 0.140419
H	-0.8304375531	-0.470147383	-0.3343116257	 0.109293
H	 1.349568931	-1.6012587869	-0.8010088378	 0.1169
H	 3.0499580938	 0.3804819223	-0.8973287603	 0.261338
H	 0.1908257254	-1.5526083012	 1.6015147748	 0.125001
