16
gdb 8551	4.01547	2.25463	1.86791	1.2493	63.32	-0.2419	0.0655	0.3075	738.8765	0.131105	-383.686896	-383.6806	-383.679656	-383.716868	25.691	
O	 0.0567971189	 1.4160049339	 0.015824559	-0.47966
C	 0.0285331749	 0.0208600487	 0.0019943891	 0.391161
C	 0.4757013041	-0.7284781294	-1.2853266186	-0.306787
C	-0.6875019052	-1.7278241771	-1.0697868502	 0.108577
O	-0.3835451272	-2.6897892906	-0.0351930152	-0.305046
C	-0.7470962446	-1.7471226625	 0.9979904353	 0.108546
C	 0.4012096353	-0.7526199264	 1.2987713228	-0.306676
C	-1.339111317	-0.7587556118	-0.0446844183	-0.141329
H	 0.9778543149	 1.6995686797	 0.0414881479	 0.278307
H	 0.2723111031	-0.0941163663	-2.1543934948	 0.106648
H	 1.4878159449	-1.139012639	-1.3419847084	 0.097276
H	-1.1661880412	-2.1900757343	-1.9344330687	 0.08147
H	-1.2745758675	-2.2251976513	 1.8248121888	 0.08147
H	 1.4085940254	-1.1646786818	 1.4060595995	 0.097241
H	 0.1477550169	-0.1343732794	 2.1662824189	 0.10669
H	-2.3340906857	-0.3243814523	-0.0693163271	 0.082113
