16
gdb 27273	3.25361	1.48875	1.03545	2.2912	71.57	-0.1864	0.0492	0.2357	1086.2003	0.12609	-437.904227	-437.896293	-437.895349	-437.937007	29.367	
O	 0.0772615761	 1.3453775132	 0.214274759	-0.429993
C	 0.0569447857	 0.0037541592	-0.0072133468	 0.234481
C	 0.071590103	-0.7907656928	-1.1234240697	 0.081222
C	 0.1326753537	-0.7736595476	-2.6177830046	-0.203207
O	-0.0226889732	-2.149271887	-2.9960595951	-0.279753
C	 0.0658600709	-3.036090625	-1.8686386116	-0.18761
C	 0.0316389058	-2.1378521723	-0.6731823935	 0.234695
C	-0.0064073805	-2.1484316696	 0.6926554733	-0.263873
N	 0.010979589	-0.8149612488	 1.0896754063	-0.292795
H	 0.0695110158	 1.7947170894	-0.6355229737	 0.308741
H	-0.6715611789	-0.1977285323	-3.0979628563	 0.102153
H	 1.0897099639	-0.3892100827	-3.0079233479	 0.097138
H	-0.7750706481	-3.7398878642	-1.9224400248	 0.110292
H	 0.9948638518	-3.624124183	-1.9323029269	 0.102659
H	-0.042995032	-2.9396724485	 1.4221124104	 0.121085
H	-0.0341424531	-0.4765028279	 2.0353753018	 0.264762
