14
gdb 133591	3.18312	1.30081	1.19958	3.2328	53.68	-0.2685	0.0721	0.3406	1010.5703	0.097218	-568.152556	-568.145132	-568.144188	-568.185267	27.55	
F	 0.1164796801	 0.0992796725	-0.1501140629	-0.067057
C	 0.0178649494	 1.4230940843	 0.0005450171	 0.280066
F	 1.2639741034	 1.9290015878	-0.018368193	-0.085792
F	-0.6263716818	 1.901982479	-1.0799533571	-0.084307
C	-0.700315194	 1.8209691595	 1.2709328385	-0.171632
C	-2.0177002723	 1.0667568055	 1.6693354617	-0.282415
C	-1.34440836	 0.7239050769	 3.0086387084	 0.035022
O	-0.1736935612	-0.0370583761	 2.7054108439	-0.228135
C	-0.0882343626	 1.38441319	 2.6147476834	 0.006094
H	-0.8515857625	 2.9021343099	 1.2356910858	 0.113721
H	-2.8722488763	 1.7399424153	 1.7528848542	 0.118802
H	-2.2815026553	 0.2004631902	 1.0607387218	 0.133482
H	-1.7918433594	 0.5852789138	 3.9849682661	 0.115377
H	 0.6788599625	 1.8816807015	 3.1953589722	 0.116773
