19
gdb 94084	4.24883	0.99016	0.84008	2.6998	72.82	-0.2453	-0.0335	0.2117	1360.2065	0.158063	-460.170102	-460.161225	-460.16028	-460.204092	32.54	
C	 0.097329769	 1.5520546482	 0.2074461232	-0.409058
C	 0.0483932762	 0.0358806959	 0.1230545865	 0.125829
C	 0.3633196849	-0.4904875563	-1.2782981795	-0.083186
O	 0.4061520214	-1.9110847578	-1.295487743	-0.272371
C	 1.33997191	-2.4141323769	-0.3577120057	 0.018327
C	 1.0285074373	-1.8950575275	 1.0491754551	-0.089938
O	 1.0033404169	-0.480521289	 1.0490984646	-0.264985
C	 1.2977494769	-3.9287282557	-0.4445909514	 0.134296
O	 1.791286233	-4.6552423246	 0.3781209499	-0.248553
H	 1.0863121948	 1.9216490882	-0.0802486295	 0.127529
H	-0.6502959067	 2.0006212123	-0.4536455512	 0.119228
H	-0.1037923312	 1.8778493678	 1.230910474	 0.132895
H	-0.9541298667	-0.3289613254	 0.4057355206	 0.073228
H	-0.4103941644	-0.1944473955	-1.9924048412	 0.112778
H	 1.3305167193	-0.0789237136	-1.6117361221	 0.094489
H	 2.361973644	-2.0880328884	-0.6274446016	 0.101811
H	 0.0585773851	-2.300613715	 1.379094088	 0.098367
H	 1.7999114113	-2.2145237454	 1.7524569386	 0.130471
H	 0.7675955586	-4.3119157112	-1.3437598952	 0.098843
