14
gdb 127750	2.54633	1.71477	1.03142	4.9539	68.67	-0.2501	-0.079	0.1711	1068.6761	0.101449	-470.018299	-470.010479	-470.009535	-470.050846	27.972	
C	-0.0581253228	 1.4566809022	-0.0316551035	-0.344617
N	-0.0156382903	 0.0096600067	 0.0402048392	-0.039628
N	-0.0450818074	-0.7149866959	-1.0752115927	-0.121471
N	 0.0042721044	-1.9946742614	-0.7648107482	-0.257405
C	 0.0663486351	-2.0887578783	 0.5776419577	 0.375533
O	 0.1269082281	-3.2424479799	 1.2244347206	-0.390632
C	 0.0557154518	-0.8083667154	 1.1384546317	 0.109429
C	 0.109613697	-0.5146519504	 2.5398353218	 0.080646
O	 0.1713245127	-1.4182129183	 3.3678266882	-0.323325
H	 0.8449311991	 1.8901942691	 0.4071252156	 0.155702
H	-0.1159341139	 1.7212312682	-1.0871171533	 0.180337
H	-0.9371262281	 1.8418772323	 0.4926491193	 0.155638
H	 0.1627032876	-3.014546166	 2.1753069146	 0.321601
H	 0.0942338667	 0.5451497272	 2.858031089	 0.098192
