21
gdb 98191	2.82915	0.96784	0.9277	3.9387	75.33	-0.2601	-0.0241	0.236	1406.8501	0.178121	-461.382831	-461.371759	-461.370815	-461.419222	39.964	
C	-0.3569386175	 1.4004196019	 0.0316755262	-0.419767
C	-0.0350682664	-0.0945936402	 0.1005520882	-0.17227
C	 0.8799165137	-0.5026797835	 1.2827176827	 0.247291
C	 2.2869391776	 0.1073013468	 1.186474528	-0.431355
O	 0.270587916	-0.183006996	 2.5327507333	-0.469718
C	 1.0167578478	-2.0276262981	 1.2499899926	 0.341917
O	 1.5113122335	-2.5906718975	 0.2945235677	-0.354094
C	 0.5205331744	-2.8490725814	 2.4267379173	-0.129023
O	 0.7155869514	-4.2141335531	 2.2022460311	-0.428522
H	 0.5343485777	 2.0115174552	-0.1404396628	 0.12305
H	-1.0514261598	 1.599224079	-0.7894978653	 0.127329
H	-0.839476347	 1.7471786032	 0.9518869613	 0.11344
H	-0.972052339	-0.6555806433	 0.1977758897	 0.107033
H	 0.4403247257	-0.4317185239	-0.8256440182	 0.122184
H	 2.2362802499	 1.2006644202	 1.1783352377	 0.114037
H	 2.8905641372	-0.1985950649	 2.0458493174	 0.129483
H	 2.7846567036	-0.2260197573	 0.2732026576	 0.146178
H	 0.3419374774	 0.7663705272	 2.6681678915	 0.2871
H	 1.0444983896	-2.5020990201	 3.3307032599	 0.126011
H	-0.5407956985	-2.608166305	 2.5925324306	 0.127864
H	 1.1351721629	-4.2702475991	 1.3288050934	 0.291832
