17
gdb 48863	3.73698	1.43889	1.41987	2.7261	70.43	-0.246	-0.0315	0.2145	958.7973	0.137059	-421.831732	-421.824718	-421.823774	-421.864547	27.48	
O	-0.2600402682	 0.3053504872	-0.5599124877	-0.264874
C	 0.1017121909	 1.1605439776	 0.2079944648	 0.06421
C	 1.3735594523	 1.9360549597	 0.0354517256	 0.280444
C	 2.7172550177	 1.1536539369	 0.0526485006	-0.25103
C	 3.5980007554	 2.3933183337	 0.0100492917	-0.119027
C	 2.8448134011	 3.4463604554	-0.8084758548	-0.118931
C	 1.5298124571	 2.8138148471	-1.238561796	-0.251034
C	 2.7740249649	 3.455733107	 0.701858161	 0.091439
O	 1.5410281456	 2.8840882269	 1.1003921114	-0.297201
H	-0.4867982726	 1.4392861194	 1.1088159259	 0.097418
H	 2.8372277634	 0.5743349378	 0.9722201817	 0.111521
H	 2.8137933589	 0.4947869115	-0.8125412669	 0.12256
H	 4.6769833194	 2.3581216732	 0.0704115818	 0.096103
H	 3.3464736525	 4.2183508244	-1.3754449302	 0.096093
H	 1.5894790818	 2.2069636525	-2.14418859	 0.122577
H	 0.7166685242	 3.5386469628	-1.3336195056	 0.111507
H	 3.1473140256	 4.2306525671	 1.3553403667	 0.108224
