25
gdb 101776	3.9448	0.60074	0.54967	2.5068	90.4	-0.2412	-0.0067	0.2344	2119.3586	0.225281	-389.529679	-389.517745	-389.516801	-389.568761	41.78	
C	-0.1373737252	 1.5573035927	 0.0727712384	-0.392813
C	 0.0288190994	 0.0367682866	-0.0143355423	-0.165278
C	 0.8237639043	-0.4657378907	-1.2357363643	 0.034979
C	 2.2795739507	 0.0234463341	-1.2115928874	-0.390341
C	 0.7306997234	-2.0008088909	-1.3192062485	-0.170247
C	 1.3090165324	-2.6116999522	-2.5960911664	-0.317739
C	 1.06202242	-4.1109411949	-2.725626618	 0.379518
C	 1.6740572865	-4.7870565248	-3.9418972598	-0.472305
O	 0.4179466385	-4.731217392	-1.9108175861	-0.290281
H	 0.8194218415	 2.0714709059	 0.2053094619	 0.116996
H	-0.6059508363	 1.9565145579	-0.8342192439	 0.11144
H	-0.7734964549	 1.8307842166	 0.9205302716	 0.112332
H	 0.5114347752	-0.3330861303	 0.9011015533	 0.092841
H	-0.9660943775	-0.4255305765	-0.0366662935	 0.093441
H	 0.3422538324	-0.051363929	-2.1356252401	 0.063151
H	 2.8304552501	-0.2914922158	-2.1028633722	 0.108838
H	 2.3377321443	 1.1144965129	-1.1683178333	 0.115076
H	 2.8075816792	-0.373733542	-0.3358082212	 0.111391
H	 1.2304552177	-2.4469313815	-0.449770998	 0.102181
H	-0.3181795887	-2.3061485948	-1.2406001201	 0.108871
H	 0.8812243034	-2.1295015522	-3.4881883847	 0.116386
H	 2.390963195	-2.4446457079	-2.6785626733	 0.117773
H	 1.3554073282	-4.2890651739	-4.8642643949	 0.134423
H	 2.7670827783	-4.7135752964	-3.9039706292	 0.137966
H	 1.3818380623	-5.8374567608	-3.9685381678	 0.141403
