18
gdb 39369	2.40336	2.15762	1.60598	2.3122	75.95	-0.2339	0.0072	0.241	900.8627	0.151566	-401.958477	-401.951701	-401.950757	-401.989412	27.552	
C	-0.011533907	 1.4873449764	 0.0834414201	-0.238683
C	 1.4688223643	 1.8979047669	-0.0365609083	-0.076692
C	 2.1615981225	 1.8750658169	 1.3299726161	-0.067835
O	 2.2538580201	 0.6028810709	 1.9887765142	-0.236703
C	 1.2895026841	-0.3565009652	 2.0439168455	 0.134822
N	 0.3382059857	-0.6996516662	 1.2860800002	-0.263701
C	 0.0610091014	-0.0507886962	 0.0042031112	-0.015028
C	 1.235114019	-0.2488238756	-0.9509686477	-0.068563
C	 2.0162203088	 0.8283482316	-0.9650059249	-0.067864
H	-0.4945477123	 1.835541393	 1.0007764673	 0.09877
H	-0.5760898821	 1.8707152257	-0.7722907403	 0.101838
H	 1.591299752	 2.9152757238	-0.4269534449	 0.077054
H	 3.203146652	 2.1978479993	 1.2399095126	 0.117328
H	 1.6499271418	 2.571717999	 2.0083738909	 0.109663
H	 1.475808928	-0.9485350988	 2.9410767231	 0.118592
H	-0.8684664798	-0.4846260501	-0.3742913773	 0.076601
H	 1.418027006	-1.1875086961	-1.4594025783	 0.102467
H	 2.9574596156	 0.9301138048	-1.4933523794	 0.097936
