15
gdb 33575	2.18586	1.68712	1.22598	1.3261	73.3	-0.2621	0.0049	0.267	1053.5104	0.10962	-420.536159	-420.527524	-420.526579	-420.569968	31.731	
C	 0.0414894145	-1.1395457672	 0.0785800835	-0.458856
C	 0.0078591884	 0.0593986952	 0.019920769	 0.357842
C	-0.039034752	 1.5355636983	-0.0210228702	 0.062011
O	-0.6749460094	 2.0546735507	 1.1350302271	-0.257069
C	 0.3617096302	 2.2494476164	 2.0920652636	-0.112899
C	 1.5200458676	 2.7235647918	 1.2168653403	-0.089754
O	 1.3009395266	 2.0405833617	-0.0176432811	-0.278399
C	-0.7597716141	 2.0034730719	-1.2105306644	 0.304189
C	-1.3373686568	 2.3749928594	-2.1942108166	-0.409479
H	 0.0691941472	-2.2007285647	 0.1211492006	 0.203908
H	 0.0153221292	 2.986878651	 2.8179756908	 0.125602
H	 0.6012161677	 1.3086162599	 2.6055720486	 0.115511
H	 1.4872199433	 3.8083359424	 1.055347974	 0.114601
H	 2.5033490755	 2.444558568	 1.6054618137	 0.119595
H	-1.8497851579	 2.7065433351	-3.0637695589	 0.203197
