16
gdb 36311	3.84985	1.06368	1.01627	4.4275	68.36	-0.2675	0.0369	0.3043	1183.3698	0.125074	-437.868367	-437.860607	-437.859663	-437.901928	28.259	
N	 0.0698978967	-1.0863505853	-0.7048851907	-0.308073
C	 0.0294169222	 0.0191390518	-0.3714259767	 0.262075
C	-0.0059370817	 1.4155525236	 0.0633948991	-0.353273
C	 1.3730909799	 2.0495296739	 0.0468871964	-0.083002
C	 1.8834423787	 2.8106721508	-1.1632432451	 0.044207
O	 0.9089584493	 3.192545081	-2.108066701	-0.248905
C	 0.3739989673	 4.4109311509	-1.6188355773	 0.017829
O	 0.4008261704	 4.3228711832	-0.2028190782	-0.251088
C	 1.5463613671	 3.5552428583	 0.0940822456	 0.014798
H	-0.6804164045	 1.9706814268	-0.5926352485	 0.167372
H	-0.4324172661	 1.4561380728	 1.0719045692	 0.156228
H	 2.1379703685	 1.4929678403	 0.5820105778	 0.115548
H	 2.8816050989	 2.6612419997	-1.558699567	 0.117253
H	 0.9825856076	 5.2638681989	-1.9615636932	 0.103122
H	-0.661118599	 4.5108218387	-1.9545480408	 0.129933
H	 2.2630572646	 4.0285071045	 0.7561304104	 0.115976
