18
gdb 9262	3.88921	1.03708	0.90146	2.079	70.89	-0.2577	0.0271	0.2848	1296.8855	0.150435	-384.889269	-384.879619	-384.878675	-384.924638	33.948	
C	 0.00836273	 1.5087883483	 0.1871490109	-0.40145
C	-0.0387705057	-0.0148133138	 0.0661456451	 0.132542
C	-1.4703765758	-0.5463244049	-0.0435471805	-0.064171
O	-2.1158119235	-0.0712031173	-1.2084201561	-0.42127
O	 0.597551946	-0.4863038623	-1.1250711863	-0.276726
C	 2.0106509313	-0.4185738536	-1.1227638282	-0.213654
C	 2.5343757523	-1.0799297993	-2.3112715837	 0.28202
C	 2.9897939709	-1.6159076797	-3.2844431781	-0.41389
H	 1.0333516028	 1.8894836976	 0.1891111519	 0.114592
H	-0.5392828237	 1.9628435054	-0.6419450085	 0.13949
H	-0.4608105517	 1.8229728067	 1.125021845	 0.118629
H	 0.4446970244	-0.4782114723	 0.9426155055	 0.064943
H	-1.4396097101	-1.6462709116	-0.0223614737	 0.092621
H	-2.0617619661	-0.2055347715	 0.8125961845	 0.105462
H	-1.5311061891	-0.2956833694	-1.9423772205	 0.29371
H	 2.3627198676	 0.6243945862	-1.1040123281	 0.125175
H	 2.413724071	-0.9063749145	-0.2190828018	 0.119525
H	 3.3886838895	-2.0924108241	-4.1456602074	 0.202452
