21
gdb 104433	2.87468	1.27779	1.19157	1.3554	80.9	-0.2475	0.0181	0.2656	1182.7217	0.181598	-424.228656	-424.219386	-424.218441	-424.262535	35.14	
C	 0.0364109427	 1.3558254616	-0.1491492286	-0.248141
O	-0.0768287743	-0.0550511903	-0.0567044784	-0.275848
C	-1.3766653116	-0.5807445207	 0.0782575889	 0.414481
C	-2.0453963758	-0.1223194497	 1.3865105113	-0.436489
O	-2.134458581	-0.1206320845	-1.0387828492	-0.287509
C	-3.2373676492	-0.9333240799	-1.4026397926	-0.080317
C	-2.7863463902	-2.331038067	-1.8266511987	-0.26043
C	-1.8098572858	-2.8726803948	-0.8182251372	-0.082903
C	-1.1880690972	-2.0812820279	 0.0490924665	-0.076118
H	 1.0781875749	 1.5580770615	-0.408938457	 0.123646
H	-0.6147830792	 1.7628099912	-0.9288245347	 0.130048
H	-0.1859965136	 1.8563671708	 0.8031435459	 0.103683
H	-2.1980019603	 0.9594988083	 1.3833560347	 0.122618
H	-3.0191438286	-0.6034372281	 1.5086897664	 0.119995
H	-1.421808907	-0.3929188383	 2.24321825	 0.121532
H	-3.9531503158	-1.0148927877	-0.5698789071	 0.092311
H	-3.7391056544	-0.4066827164	-2.2194070841	 0.105951
H	-3.6580360254	-2.9910934085	-1.9174336222	 0.10293
H	-2.318296735	-2.2959634713	-2.8200117259	 0.119649
H	-1.6121005232	-3.9415387845	-0.8210370587	 0.092351
H	-0.4819984401	-2.4691113039	 0.7764127107	 0.098559
