18
gdb 15579	2.53785	2.1368	1.46275	1.6959	72.44	-0.2515	0.0398	0.2913	927.4742	0.153356	-347.777354	-347.769065	-347.768121	-347.810405	30.534	
C	-0.3113628962	 1.5432217494	-0.0911999129	-0.418756
C	-0.0097491749	 0.0498834498	-0.0282678544	 0.024801
C	 0.9447107343	-0.4822827644	-1.1116526259	-0.248886
C	 1.4743207752	-1.793506882	-0.5004254248	-0.072645
O	 1.1653703863	-1.7590793087	 0.901274579	-0.254553
C	 0.7021848409	-0.4581724293	 1.2501386582	-0.077822
C	 1.804941309	 0.4076713796	 1.6907518749	 0.359594
C	 2.715444773	 1.1062177964	 2.0502135555	-0.494129
H	 0.6066235018	 2.1328747336	-0.0157994552	 0.131677
H	-0.8051484388	 1.7970570634	-1.034522472	 0.115343
H	-0.9757619852	 1.8499102415	 0.7235475776	 0.117064
H	-0.94933786	-0.5133841786	-0.083442971	 0.083828
H	 0.4473316826	-0.6376479051	-2.0721282149	 0.104466
H	 1.7603655476	 0.2310585275	-1.2681612318	 0.11451
H	 0.9840302437	-2.6784412657	-0.9220280668	 0.10456
H	 2.5562579302	-1.9058330963	-0.6398300271	 0.104462
H	-0.0022164728	-0.5841951996	 2.0800693652	 0.107561
H	 3.5206672534	 1.7159243784	 2.3788099264	 0.198928
