20
gdb 116968	12.57214	0.39541	0.38794	4.4625	91.17	-0.2589	0.0261	0.2851	2747.9735	0.169196	-366.015125	-366.004259	-366.003314	-366.054389	36.732	
C	-0.003529772	 1.5833463883	 0.0103008825	-0.381951
C	 0.0131428103	 0.0537871198	 0.0020393412	-0.154305
C	-1.4078480863	-0.5471698448	 0.0130143001	-0.336821
C	-1.4143765849	-2.0058189711	 0.0053135701	 0.082873
C	-1.3769303928	-3.209815728	-0.0016179667	 0.061964
C	-1.3799874333	-4.666562612	-0.0094578723	-0.351569
C	-2.8236780328	-5.2346874332	 0.0005231254	-0.323571
C	-2.8410924328	-6.6953025472	-0.0071419856	 0.255109
N	-2.8330671733	-7.8508003144	-0.0133585305	-0.302449
H	 1.0125872453	 1.9885185342	 0.0023307012	 0.117299
H	-0.5271807346	 1.9802609479	-0.8665446796	 0.11703
H	-0.5095800389	 1.9709026439	 0.9015489844	 0.11703
H	 0.5453428758	-0.3137566252	-0.8822955345	 0.110474
H	 0.5628157938	-0.323036168	 0.8716571153	 0.110475
H	-1.9483990287	-0.1821336138	 0.8968287303	 0.126894
H	-1.9658704392	-0.1728304525	-0.8559263354	 0.126898
H	-0.8550884599	-5.0471826296	-0.8933525971	 0.149289
H	-0.8392534833	-5.05664406	 0.8606610461	 0.149292
H	-3.3566101308	-4.8756262582	 0.8866824172	 0.163021
H	-3.3724836216	-4.866200436	-0.871972132	 0.163017
