14
gdb 10578	2.63168	1.9938	1.36307	4.8411	69.79	-0.258	-0.0085	0.2494	916.5376	0.105016	-341.523379	-341.51526	-341.514316	-341.555621	29.443	
C	-0.1770935035	 1.4410581338	-0.0936359571	-0.323097
N	 0.0502880551	 0.0029328275	 0.00417589	-0.107366
C	 1.3894947448	-0.4918373499	-0.1898248517	-0.256829
C	 0.7712601012	-0.5088039497	 1.193995895	 0.018873
C	 1.2939489319	 0.3845508278	 2.1964610746	 0.289058
C	 1.7074603053	 1.1260697247	 3.0466737034	-0.435727
C	 0.2485414341	-1.7618756487	 1.7077442276	 0.250821
N	-0.1495904754	-2.7673448851	 2.1143917628	-0.334352
H	 0.6620491534	 2.0492052137	 0.2704786468	 0.123219
H	-0.3574117288	 1.6769063479	-1.1459855753	 0.138724
H	-1.0718343752	 1.6994949364	 0.4782337	 0.14425
H	 1.4854624747	-1.4286222264	-0.7309248318	 0.147352
H	 2.2008946992	 0.221845564	-0.3242522806	 0.133006
H	 2.0803124633	 1.7749601839	 3.8008762562	 0.212069
