19
gdb 100581	3.24894	0.78314	0.7091	1.1083	77.36	-0.2564	-0.0216	0.2348	1627.1283	0.15835	-456.379769	-456.369425	-456.368481	-456.416436	36.121	
C	-0.9325263554	 1.6809767178	-0.397213561	-0.40388
C	-0.0745884781	 0.4219944534	-0.2319966382	-0.11631
C	-0.8665858369	-0.7289779086	 0.4380489565	-0.065701
O	-1.3019027388	-0.4060207488	 1.7442591761	-0.417697
C	 0.4040587958	-0.0757623498	-1.5910587883	 0.422534
O	-0.3288795907	-0.153041612	-2.5572661166	-0.365214
N	 1.7265010241	-0.4813685501	-1.6354076429	-0.313742
C	 2.3331103311	-1.0132397658	-2.7636296882	 0.098769
N	 3.5551638946	-1.3565783384	-2.726900431	-0.461757
H	-0.3471194995	 2.5093819035	-0.8060039121	 0.126804
H	-1.7612236807	 1.4858342268	-1.0829553919	 0.143312
H	-1.3275221024	 2.0031065603	 0.5705485484	 0.110038
H	 0.784934664	 0.6445326853	 0.4116260636	 0.082981
H	-1.7022643632	-1.0109984227	-0.217856143	 0.114689
H	-0.2193607797	-1.6060314814	 0.5444928953	 0.115951
H	-2.0667072267	 0.172342784	 1.6728161491	 0.290237
H	 2.3124583537	-0.3908499149	-0.8176089308	 0.263664
H	 1.6434227007	-1.078511461	-3.6070517256	 0.141252
H	 3.845289198	-1.7260564875	-3.6304334993	 0.23407
