18
gdb 69338	3.20812	1.26353	1.09257	2.1146	78.64	-0.2466	0.0228	0.2694	1159.3201	0.145151	-401.872152	-401.863107	-401.862163	-401.905377	34.834	
C	 0.0409981541	 1.5636901133	 0.0236526817	-0.486588
C	-0.0478021866	 0.0694431889	 0.0824378019	 0.350301
C	-1.3389998367	-0.7628659897	-0.0077865156	-0.355859
C	-0.7007047257	-1.8063967108	 0.9927398163	 0.234927
O	-1.2894251116	-1.772356256	 2.2801884116	-0.464256
C	-0.5511896703	-3.1712407169	 0.4960116793	 0.285268
C	-0.4516310848	-4.2922662563	 0.0702077802	-0.484315
C	 0.571830741	-0.9329888835	 1.0159661564	-0.123369
N	 1.1020438106	-0.7354896201	-0.3225645442	-0.362498
H	 1.0551646856	 1.8926645208	 0.2640801809	 0.134932
H	-0.2021369701	 1.9300716267	-0.980889133	 0.121141
H	-0.6570292641	 2.0271078409	 0.7285458849	 0.120871
H	-2.1977172459	-0.2908597704	 0.4752768225	 0.114263
H	-1.619438315	-1.1187829519	-1.0041601639	 0.097479
H	-2.0657191025	-2.3430412627	 2.2668569643	 0.285019
H	-0.3515209506	-5.2848056967	-0.2951257595	 0.202627
H	 1.2178135496	-0.8273346696	 1.8801445464	 0.101549
H	 0.875809523	-1.5028886059	-0.9540688103	 0.228506
