17
gdb 27735	2.27036	1.44234	0.88762	3.9095	84.51	-0.196	-0.0269	0.1691	1271.0365	0.13653	-418.072776	-418.063783	-418.062839	-418.106581	33.042	
C	-0.0052771562	 1.482075881	 0.0881958216	-0.503345
C	-0.0077020744	-0.0058124283	-0.0336285299	 0.342694
C	-0.0801839862	-0.8024682199	-1.1700592604	-0.304016
C	-0.0466980015	-2.1558136588	-0.7560611906	 0.212534
N	-0.1645774482	-3.2630298994	-1.5854271692	-0.605119
C	 0.0473963691	-2.1552878375	 0.6436628518	 0.16999
N	 0.0670264193	-0.8229135141	 1.0413821735	-0.352685
C	 0.1198298505	-3.1945480336	 1.6202070726	 0.055229
O	 0.2024568659	-2.9998687587	 2.8262553023	-0.347505
H	 0.9094756564	 1.8474144147	 0.5694461242	 0.138901
H	-0.0714774655	 1.9417964027	-0.8998278155	 0.140561
H	-0.8533909605	 1.8398505144	 0.683546017	 0.140305
H	-0.1548293365	-0.4412166052	-2.1850250421	 0.092285
H	 0.1572728485	-3.1083181907	-2.5298035797	 0.251005
H	 0.208359117	-4.1229526328	-1.2108272396	 0.252754
H	 0.1328085367	-0.5672005875	 2.0130586729	 0.271019
H	 0.0960555555	-4.2292280266	 1.2111150711	 0.045395
