16
gdb 24464	3.8964	1.6216	1.14505	4.1549	90.8	-0.1683	-0.0206	0.1477	1009.7044	0.12923	-363.682756	-363.676458	-363.675514	-363.713068	26.569	
N	-0.0126940624	 1.3386192139	 0.0098125657	-0.311107
C	 1.1267115219	 2.1143376477	 0.0028843666	-0.023708
C	 2.3590318863	 1.5269669327	-0.0122514714	-0.242571
C	 2.467071693	 0.1181958387	-0.0208476224	 0.263781
C	 3.519767327	-0.7808466118	-0.0358445353	-0.294018
C	 2.9676744625	-2.0955918387	-0.0376417743	-0.083452
C	 1.5817746434	-2.0487198366	-0.0238550742	-0.288427
C	 1.2167601019	-0.6759286807	-0.0129406695	 0.225032
C	 0.0159454149	-0.0205042977	 0.0022516658	-0.099509
H	-0.9067312417	 1.8010991796	 0.020995706	 0.265759
H	 0.9642036496	 3.1828667322	 0.0102011793	 0.122204
H	 3.2404200117	 2.158917306	-0.0174186014	 0.099208
H	 4.573015936	-0.5366798032	-0.0447285046	 0.07652
H	 3.5561999685	-3.0054110647	-0.0482777529	 0.082807
H	 0.9031016756	-2.8896096299	-0.0217665251	 0.077337
H	-0.9484791781	-0.5148300675	 0.0089779776	 0.130143
