20
gdb 38354	2.25234	2.05745	1.36076	2.1878	78.93	-0.233	0.0104	0.2434	1001.0693	0.174037	-403.134442	-403.126992	-403.126048	-403.166046	30.097	
C	 0.1370976584	 1.6997016768	 0.2885897575	-0.251081
C	 1.6444517656	 1.3564189525	 0.0864796628	 0.012665
C	 1.276789614	-0.1520494995	 0.1852425165	-0.242201
C	-0.233150112	 0.2043336574	 0.0111451174	 0.041048
N	-0.8611729849	-0.1149618398	-1.2540487554	-0.232622
C	-0.3123893856	-0.0838288075	-2.3875247889	 0.094573
O	 0.9351399485	 0.3225526856	-2.78094064	-0.236035
C	 1.3633327755	 1.6607614208	-2.4757823542	-0.070244
C	 2.25861774	 1.7865564591	-1.2477424923	-0.219165
H	-0.0875471469	 1.9776183745	 1.3214313387	 0.101239
H	-0.3187735352	 2.4420443767	-0.3696229772	 0.10152
H	 2.2971264988	 1.7076349795	 0.8905057109	 0.068666
H	 1.7108045844	-0.8208710346	-0.5595541334	 0.112248
H	 1.4697500832	-0.5604186266	 1.1806485556	 0.096048
H	-0.8783939546	-0.2234902439	 0.7821111149	 0.081138
H	-0.8633510344	-0.4779679583	-3.244488872	 0.112222
H	 1.9189118161	 1.988456289	-3.36028274	 0.112834
H	 0.4804535631	 2.3033979386	-2.3852546203	 0.11111
H	 2.5537480161	 2.8439438777	-1.1937584951	 0.098316
H	 3.1800885499	 1.214561292	-1.4168067258	 0.107721
