14
gdb 128531	2.34823	1.5425	0.93654	3.6923	73.32	-0.238	-0.0386	0.1994	1167.8319	0.102686	-432.884426	-432.876452	-432.875507	-432.917466	28.398	
C	 0.0103994771	 1.4294631594	 0.0089216714	-0.258181
O	 0.0247654133	 0.0079059567	 0.00507134	-0.257245
C	-1.1751382836	-0.591242311	 0.0124109693	 0.202693
C	-1.3532622348	-1.9742225387	 0.0100322379	 0.186268
N	-2.7116165436	-2.162524921	 0.0198136504	-0.270358
N	-3.3990649515	-1.0271736382	 0.0278829737	-0.193044
C	-2.4814460647	-0.0557911018	 0.0235130908	-0.125211
C	-0.4239324451	-3.0319003724	 0.0002871168	 0.228318
N	 0.3252520282	-3.9162440031	-0.00763479	-0.350502
H	 1.0538543915	 1.7448167695	 0.00197328	 0.149422
H	-0.4965741353	 1.8217053468	-0.8812093745	 0.132882
H	-0.4832312819	 1.8169958939	 0.9085640169	 0.132882
H	-3.197540852	-3.0443866256	 0.0211798318	 0.292685
H	-2.7913498377	 0.9766566254	 0.0285240756	 0.129392
