18
gdb 114486	3.29159	1.25829	1.11476	1.7587	70.76	-0.2443	0.0182	0.2625	1123.2526	0.149175	-439.078255	-439.070291	-439.069347	-439.111644	29.681	
O	 0.0122809399	 1.2903165469	-0.3155387338	-0.423393
C	 0.0425963515	-0.1141642652	-0.1027291493	-0.090583
C	-1.396519582	-0.5694235674	 0.0501345831	 0.003475
C	-2.3148251084	-0.5074048313	-1.2135332398	-0.241464
C	-2.6439685654	-2.019155302	-1.043578503	-0.009891
N	-2.0467156345	-2.8940180252	-2.0627247864	-0.259844
C	-0.9658176976	-3.3201541777	-1.5569757646	 0.112084
O	-0.6029821663	-2.9525689376	-0.2972162443	-0.231237
C	-1.6687427801	-2.0905070472	 0.1716599133	 0.04794
H	 0.906921859	 1.5842838279	-0.509684832	 0.288334
H	 0.5152080223	-0.6363255623	-0.9471609461	 0.09252
H	 0.6144779163	-0.3734817577	 0.8027504193	 0.090602
H	-1.8379881253	-0.0339843756	 0.8963627843	 0.086108
H	-3.1673829342	 0.1690743245	-1.1302635173	 0.108219
H	-1.7860780356	-0.2909073977	-2.144202588	 0.113633
H	-3.6952572854	-2.2684080978	-0.8883714247	 0.084048
H	-0.260757107	-3.9856606055	-2.0430152444	 0.140912
H	-1.9962507973	-2.466096419	 1.1424811937	 0.088538
