18
gdb 95525	2.60174	1.64279	1.30916	1.146	73.23	-0.2399	0.0163	0.2562	1020.2579	0.148663	-439.08073	-439.07262	-439.071676	-439.113428	31.048	
O	 0.1052120463	 1.4123594381	-0.0869881204	-0.436212
C	 0.0319328843	-0.0053307143	-0.0046400503	 0.01976
C	 0.722202491	-0.516462714	 1.2590812572	-0.09269
O	-0.027338831	-0.1518506215	 2.4307407349	-0.231113
C	-1.3732976104	-0.2738653742	 2.315386468	 0.086471
N	-2.0679210178	-0.4635789887	 1.2730725647	-0.31153
C	-1.3955137497	-0.5233468941	 0.0027065799	 0.349508
C	-2.2617728139	-0.2747432555	-1.2067355255	-0.307266
C	-1.7929904456	-1.6713164259	-0.9022737738	-0.311591
H	-0.4776677027	 1.7806797623	 0.5859381259	 0.29184
H	 0.5740813018	-0.3751783358	-0.8808270842	 0.089282
H	 0.8227995471	-1.6090046388	 1.22826689	 0.112886
H	 1.7068159545	-0.0623929956	 1.3807656387	 0.125212
H	-1.8454498718	-0.1691034139	 3.2898742057	 0.128155
H	-3.3008573566	-0.03897687	-1.0110079391	 0.125154
H	-1.8133652508	 0.2581960293	-2.0374606816	 0.1243
H	-1.0235081156	-2.1111645254	-1.5285942896	 0.11252
H	-2.5144660991	-2.3731197418	-0.5014464904	 0.125312
