23
gdb 58814	3.11644	1.25792	1.08632	0.4187	88.61	-0.2034	0.0828	0.2863	1242.7441	0.205262	-351.091216	-351.08227	-351.081326	-351.124443	35.936	
C	-0.0466715385	 1.5649174273	 0.2231870162	-0.383847
C	-0.0350897662	 0.0388367932	 0.0287829478	-0.074039
C	 0.8837556627	-0.6395588638	 1.0520465148	-0.40359
C	-1.4469871657	-0.5028821793	 0.0313427841	 0.395887
C	-2.2200927178	-0.9380196912	 1.2480127548	-0.361103
C	-1.9826661699	-1.9233009131	 0.1273644975	-0.136747
C	-2.8693312452	-1.6874102737	-1.1247739519	-0.048496
C	-3.8310229876	-0.5377873149	-0.9973021223	-0.305842
C	-2.3672380031	-0.2569511784	-1.2101159606	-0.114482
H	 0.9620060271	 1.9819762143	 0.1336788071	 0.105411
H	-0.6815814535	 2.057394691	-0.5203021398	 0.115058
H	-0.4335937065	 1.8244868453	 1.2149413812	 0.114665
H	 0.3801513139	-0.1656946935	-0.9700842944	 0.070716
H	 1.9146946629	-0.2937719096	 0.9262892713	 0.111015
H	 0.5843007607	-0.4038928376	 2.0790209408	 0.115889
H	 0.8800007891	-1.7283671537	 0.9379891534	 0.113308
H	-1.6075951344	-1.1288946673	 2.1238526321	 0.108789
H	-3.2030465724	-0.5535290801	 1.4970086759	 0.10622
H	-1.4358210948	-2.8436319981	 0.2919408697	 0.084107
H	-2.949195312	-2.4148223925	-1.9223339259	 0.085318
H	-4.4399846059	-0.3736462026	-1.882153197	 0.108993
H	-4.3516648652	-0.3027128376	-0.0756720178	 0.110026
H	-2.0084711278	 0.273910386	-2.0835865771	 0.082746
