21
gdb 113889	2.75373	0.95421	0.82973	3.3436	79.81	-0.2399	0.055	0.2949	1491.6583	0.182558	-420.439358	-420.429291	-420.428347	-420.474949	37.114	
C	-0.0157543113	 1.3364829673	-0.0648114243	-0.378823
C	 0.370090171	-0.1467004127	-0.0839201353	-0.192752
C	 0.8105000724	-0.6514013157	 1.2732778995	 0.042436
C	-0.1953522989	-1.1573806447	 2.2814562955	-0.337206
C	 0.7746904202	-2.1146778096	 1.6348297554	 0.025089
N	 0.2466855755	-3.0681197268	 0.7015035586	-0.344082
C	 1.0653110801	-3.5689213418	-0.2958239399	 0.444017
N	 0.5236358525	-4.6646373091	-0.9627984696	-0.56556
O	 2.1614745758	-3.114020808	-0.5560037973	-0.383926
H	 0.8261464267	 1.9604180908	 0.2552228907	 0.113289
H	-0.3227201326	 1.6785056249	-1.0582731102	 0.108509
H	-0.8445959726	 1.5220835717	 0.626914618	 0.112219
H	-0.4772152422	-0.7462704602	-0.433862762	 0.090488
H	 1.1814795816	-0.31469649	-0.8016354264	 0.118865
H	 1.6628161418	-0.1186667114	 1.6881206823	 0.085512
H	-0.0689050178	-0.9282112049	 3.3335866347	 0.112578
H	-1.2294652835	-1.215278723	 1.9552222985	 0.108339
H	 1.6002187586	-2.4762392964	 2.2445367392	 0.097595
H	-0.4556935714	-3.6965312776	 1.0632054033	 0.23852
H	-0.4808684287	-4.7018606172	-1.0552535473	 0.245526
H	 1.0168777629	-4.8698607454	-1.8187575234	 0.259368
