18
gdb 84404	2.99791	1.43804	1.1413	1.7011	72.23	-0.2506	0.0079	0.2585	1080.9926	0.149797	-439.063617	-439.055774	-439.05483	-439.095898	31.146	
O	-0.230229251	 1.3967337212	 0.6295376979	-0.439494
C	 0.0083950785	 0.1232175592	 0.0343572499	 0.081155
C	 1.0308472311	-0.6514864131	 0.8247905217	-0.091707
C	 0.9052427874	-1.9212862985	 1.201803541	-0.091707
C	-0.2808627718	-2.8010511511	 0.9025919942	 0.081155
O	-0.7128624158	-3.4824702839	 2.0782055785	-0.439494
C	-1.4389522798	-2.0421349249	 0.2820128841	-0.06608
N	-1.9738726641	-0.9594584886	 1.1342915414	-0.359065
C	-1.2989988235	-0.6272712592	-0.1380697007	-0.06608
H	-0.6937320955	 1.208410145	 1.4559772964	 0.287064
H	 0.4155813799	 0.3509556203	-0.9594233358	 0.095536
H	 1.9103972421	-0.0768495848	 1.1046335337	 0.100188
H	 1.6805454966	-2.4005366447	 1.794553698	 0.100188
H	 0.0248669572	-3.5990089081	 0.2133471625	 0.095536
H	-1.0899669199	-2.7972540395	 2.6452806108	 0.287064
H	-2.1636699408	-2.6601790885	-0.2416511382	 0.093335
H	-2.9813142451	-0.8929430876	 1.0226694354	 0.239072
H	-1.9274528853	-0.2721252431	-0.9506796509	 0.093335
