23
gdb 115383	3.11424	1.05691	0.93523	1.8115	81.73	-0.2453	0.076	0.3213	1378.2459	0.206705	-425.446076	-425.436767	-425.435823	-425.479994	36.07	
C	 0.0480932774	 1.5534044211	-0.0361785223	-0.386837
C	 0.0346502265	 0.0234931513	 0.0115844507	-0.186229
C	 0.7366088422	-0.5524003366	 1.2375396842	 0.14961
C	 0.6457874958	-2.0808105105	 1.3290738256	-0.218776
C	 1.5043534807	-2.620694459	 2.4841563321	-0.23279
C	 2.9263265459	-2.0391811922	 2.4139334564	 0.143935
O	 3.6406954556	-2.5374299751	 1.2890988608	-0.447729
C	 2.8401326363	-0.5141794201	 2.3371539629	-0.10911
O	 2.1076348832	-0.1386184129	 1.1781291018	-0.275837
H	 1.0740781857	 1.9288181047	-0.0201742241	 0.134311
H	-0.4403287674	 1.9234095544	-0.9425546358	 0.109994
H	-0.4790619072	 1.9801490665	 0.8245752285	 0.109695
H	-0.9974582439	-0.3475823495	 0.0053272586	 0.095821
H	 0.5199696264	-0.3840363654	-0.8842029875	 0.100155
H	 0.2886952719	-0.1148420878	 2.1491671544	 0.060382
H	-0.4006347023	-2.3815723781	 1.4507250119	 0.096096
H	 0.9928722274	-2.5114333658	 0.3814760235	 0.101877
H	 1.0546847061	-2.3420335181	 3.4466873774	 0.090225
H	 1.5544822977	-3.7131391317	 2.4518145689	 0.105143
H	 3.4992759884	-2.3350910621	 3.3002182059	 0.076979
H	 3.3717950801	-1.99286405	 0.5391406435	 0.284103
H	 2.3701649833	-0.1012003356	 3.2444699172	 0.087683
H	 3.8372000001	-0.0780302575	 2.2273817555	 0.111299
