19
gdb 85174	2.22011	1.67508	1.1327	2.6542	76.2	-0.2202	0.0283	0.2485	1121.4805	0.159212	-419.195671	-419.186779	-419.185835	-419.229585	32.853	
C	 0.3529035465	 1.6943524087	-0.1276384505	-0.3938
C	 0.1281796643	 0.1908456743	-0.127504832	 0.042765
N	 1.233205936	-0.6230004167	-0.6604956832	-0.333915
C	 1.5176751881	-1.295868457	 0.498861615	 0.418371
O	 2.3591828374	-2.1057081576	 0.7969677441	-0.37999
C	 0.3371352624	-0.5769566573	 1.2272535724	-0.134633
N	 0.5484310257	 0.2106803777	 2.4187445422	-0.087157
C	 1.1903783714	-0.462517161	 3.5494601571	-0.225578
C	 1.9120748334	 0.5945021696	 2.7915141392	-0.230219
H	 1.3242714623	 1.9511657652	 0.3016600819	 0.127431
H	 0.3117881504	 2.091600595	-1.1473914488	 0.112844
H	-0.4242517592	 2.1878974609	 0.462894516	 0.135699
H	-0.8306999063	-0.0481479717	-0.6026533503	 0.085375
H	 1.6301667432	-0.6954842015	-1.5862847099	 0.247365
H	-0.4801690358	-1.2780964838	 1.4231313916	 0.106167
H	 0.7594126068	-0.2478412118	 4.5234539733	 0.115349
H	 1.5328386984	-1.4833934325	 3.4012129313	 0.143496
H	 2.737701745	 0.2692369258	 2.1638789234	 0.135108
H	 2.0097411801	 1.5956889736	 3.2010758271	 0.115322
