21
gdb 114285	2.2491	1.38718	1.04825	0.8194	88.23	-0.2414	0.049	0.2904	1249.3561	0.181686	-349.895798	-349.886657	-349.885713	-349.929624	35.237	
C	-0.088852225	 1.6568051738	 0.0638377937	-0.379616
C	-0.0115105234	 0.1412650869	 0.2776228737	-0.204594
C	-1.3453458801	-0.5528604585	 0.0197137125	 0.042997
C	-1.9478992708	-0.64702792	-1.4294562205	-0.270332
C	-2.1708980294	-2.1494221489	-1.2118605548	-0.069558
C	-0.8485150667	-2.8569448588	-1.0028255396	-0.196084
C	 0.3568919151	-2.5292169896	-1.7129521193	 0.331254
C	 1.3585626824	-2.3055093713	-2.3421515366	-0.455016
C	-1.4762908348	-2.0787962007	 0.1439254209	-0.110394
H	 0.87500076	 2.1365009259	 0.2601455406	 0.110319
H	-0.3746841314	 1.8976681264	-0.9660696332	 0.117404
H	-0.8305908738	 2.1162977497	 0.7275687645	 0.108563
H	 0.7601495175	-0.2864678881	-0.368434131	 0.118171
H	 0.2975103994	-0.0683375332	 1.3106469968	 0.089617
H	-2.1063369475	-0.1017150052	 0.6681036813	 0.073092
H	-2.8709088691	-0.0771693738	-1.5487717309	 0.101818
H	-1.2691470954	-0.3997595783	-2.2513019401	 0.110384
H	-3.0522058724	-2.7080690579	-1.5033864652	 0.090486
H	-0.9764061299	-3.9282250207	-0.8592222818	 0.112972
H	 2.2471519968	-2.0974989545	-2.8846796029	 0.192887
H	-1.7166629115	-2.606355173	 1.0606916522	 0.085631
