17
gdb 50317	3.86778	1.10963	0.93943	1.9971	74.3	-0.2547	-0.0348	0.2199	1213.8589	0.136079	-421.820579	-421.812687	-421.811743	-421.85454	29.178	
O	-0.4553514842	 0.2134346099	 0.0340893666	-0.242215
C	-0.1229223812	 1.3685997576	 0.0182706049	 0.150518
C	 1.31621188	 1.8649959244	 0.0387424933	-0.121471
C	 1.5858058888	 2.639523083	-1.2779134896	-0.263931
C	 2.7010924929	 3.6717367111	-1.1869487906	 0.02371
O	 2.2933338874	 5.0036154319	-0.8594106371	-0.252869
C	 3.0493054458	 4.2554734838	 0.1144802667	 0.014775
C	 2.3263987753	 3.7766830255	 1.3184323734	-0.089712
C	 1.5480276748	 2.6954873124	 1.283708183	-0.068604
H	-0.8774935816	 2.1892940273	-0.0211957172	 0.084268
H	 1.9454601791	 0.9672285865	 0.0905114937	 0.109205
H	 1.8026067238	 1.9209241789	-2.0734320156	 0.118807
H	 0.6767889231	 3.1776331091	-1.5739581792	 0.126097
H	 3.466704618	 3.6226916738	-1.9602710898	 0.099352
H	 4.0553768157	 4.6411829518	 0.2751221319	 0.096848
H	 2.4756442029	 4.3174595481	 2.2484545874	 0.104704
H	 1.0662667795	 2.3470400748	 2.194309318	 0.110517
