19
gdb 115456	3.56737	0.98976	0.86717	1.7704	72.17	-0.2433	-0.0318	0.2114	1360.1946	0.157739	-460.160032	-460.150801	-460.149857	-460.195428	32.443	
C	 0.1181434699	 0.9180333863	-0.4254195417	-0.239228
O	-0.3909213075	-0.001766554	 0.5120623054	-0.246748
C	 0.5063252311	-0.3133587388	 1.5617126116	 0.134391
C	-0.2744431382	-1.0818012863	 2.6285842459	-0.113213
O	-0.2308701703	-2.4484179854	 2.2304043764	-0.258982
C	 1.0557601335	-2.6825301478	 1.665237939	 0.031636
C	 1.5937648715	-1.3339833023	 1.1437913459	-0.29313
C	 1.9511111314	-3.327903874	 2.7250887179	 0.127181
O	 3.1290085307	-3.118625254	 2.8552972163	-0.23293
H	 0.9977514899	 0.5326257005	-0.9628379368	 0.106535
H	-0.6751436933	 1.1089546939	-1.1519969755	 0.131626
H	 0.4002978382	 1.8693630116	 0.0528916721	 0.105856
H	 0.9448844401	 0.6115962501	 1.9636307317	 0.071147
H	 0.1903805753	-0.9410459431	 3.6171163943	 0.093724
H	-1.3202498424	-0.7730426065	 2.6724330322	 0.12731
H	 0.9262529799	-3.4274787342	 0.868224463	 0.110116
H	 1.7237070319	-1.3373442986	 0.0608280403	 0.118436
H	 2.5635550455	-1.1209955604	 1.5998372401	 0.131827
H	 1.3984612926	-4.029093037	 3.3890103521	 0.094447
