20
gdb 109408	2.2954	1.41275	1.04925	3.8871	80.13	-0.2299	-0.0157	0.2141	1233.6907	0.169461	-403.13087	-403.121522	-403.120578	-403.165063	34.699	
C	 0.0895707238	 1.539540743	 0.1608496599	-0.382659
C	-0.1497619969	 0.0421941829	-0.0660147607	-0.206128
C	 0.666129445	-0.5056021245	-1.2339145575	-0.15226
C	 2.2217929701	-0.5759845169	-1.1363321512	 0.461877
O	 3.0813743131	 0.2534630793	-1.0516854866	-0.320678
C	 2.2101089699	-2.0650427222	-1.3870833689	-0.255649
N	 1.308703137	-2.6213844984	-0.3086836031	-0.360042
C	 0.7073815857	-2.0292411121	-1.5095582737	 0.31642
C	-0.1945294635	-2.7903785165	-2.430357727	-0.507604
H	 1.1492137232	 1.7445162695	 0.3373926795	 0.143644
H	-0.2187104924	 2.1273987216	-0.71112002	 0.110114
H	-0.4784505279	 1.9000821438	 1.0237618977	 0.110017
H	 0.1060466176	-0.524406452	 0.8344774389	 0.12236
H	-1.2157484056	-0.1384067163	-0.2583382523	 0.091462
H	 0.4338464118	 0.0379408732	-2.1605872383	 0.094539
H	 2.9507848091	-2.6975964217	-1.8609397486	 0.110591
H	 1.3272717798	-3.634545932	-0.4378243604	 0.232506
H	-1.2002928111	-2.8854353151	-2.0053923341	 0.136863
H	-0.2874098184	-2.2836980209	-3.3964507538	 0.132414
H	 0.1882127398	-3.8005556147	-2.6121836698	 0.122212
