16
gdb 49599	2.88055	1.76181	1.4072	3.3469	67.53	-0.2356	-0.0274	0.2082	927.8423	0.124495	-437.838559	-437.831483	-437.830539	-437.870258	27.293	
O	-0.2274195835	 0.0347527836	 0.0876353844	-0.23333
C	-0.0557873447	 1.2187375758	-0.0137112935	 0.174641
C	 1.2915699647	 1.9221843234	 0.0012573949	-0.118781
C	 1.4235239675	 2.9035838159	 1.1744499699	 0.009292
O	 1.4107698049	 2.2717368717	 2.4573438547	-0.243988
C	 2.6816460581	 2.582775014	 1.8643318414	 0.034454
C	 3.3346233085	 1.4299758388	 1.1420486897	-0.062894
C	 2.6139172843	 0.1303127627	 1.160677075	-0.232312
N	 2.4625601233	 1.0326918678	 0.0099652016	-0.104117
H	-0.9120553058	 1.9212445525	-0.1385800509	 0.081808
H	 1.3278330668	 2.5205835441	-0.9234358924	 0.110587
H	 0.9788498582	 3.8954627114	 1.125439686	 0.107594
H	 3.2795737294	 3.319309232	 2.392575462	 0.108799
H	 4.4004566298	 1.4979963069	 0.9462254807	 0.097549
H	 3.1490366566	-0.7856352269	 0.9283788431	 0.119854
H	 1.7964828819	 0.0294537862	 1.8627847135	 0.150844
