11
gdb 132177	3.25714	1.33111	0.94494	3.4953	56.45	-0.2577	-0.0512	0.2065	1061.4832	0.064663	-541.781905	-541.775142	-541.774198	-541.813434	25.105	
F	 0.0966320387	 0.0662193972	 0.0020420259	-0.029135
C	-0.0491135668	 1.3678628556	 0.0110160835	 0.416422
C	-1.2350609153	 1.9975693634	 0.030687089	-0.463174
C	-1.2933211958	 3.4570158018	 0.0395822822	 0.312712
O	-2.3130340384	 4.121452459	 0.056121639	-0.363035
C	 0.0566685795	 4.0601235854	 0.0236113223	 0.100343
F	 0.1368731022	 5.381085946	 0.0291598717	-0.046114
C	 1.1766738254	 3.3234172288	 0.0043221881	-0.052962
O	 1.1461777178	 1.9576783751	-0.0023069047	-0.192048
H	-2.1515530062	 1.4240956265	 0.0401034367	 0.148343
H	 2.183418889	 3.7141726611	-0.0076741135	 0.168648
