21
gdb 73539	2.48602	1.89461	1.54986	1.6213	82.04	-0.2404	0.0912	0.3316	976.045	0.184628	-387.015987	-387.008429	-387.007485	-387.047666	31.152	
C	-0.1429358297	 1.5521490118	-0.1093639992	-0.484639
C	-0.0329964884	 0.0290090432	-0.0383639934	 0.33089
C	-1.4111692318	-0.5828949256	 0.2551290115	-0.156068
O	-1.4128444959	-0.8697020023	 1.6806642927	-0.288244
C	-0.1083826383	-0.7135978627	 2.2792298182	-0.20281
C	 0.7907751715	-0.6844384051	 1.0771268883	 0.296491
C	 2.0939646275	-0.1305235236	 0.4343152558	-0.325729
C	 1.1952645869	-0.6608502574	-0.7529149243	-0.127327
C	 0.9559412492	-1.9123668004	 0.1202231137	-0.254843
H	 0.8151764188	 2.063202792	-0.2177516072	 0.115887
H	-0.7536923356	 1.8299317324	-0.976345832	 0.118929
H	-0.6446566973	 1.9563859341	 0.7773439428	 0.125688
H	-2.2209378719	 0.1279097147	 0.0612008776	 0.095337
H	-1.6396803704	-1.5028905874	-0.2926362672	 0.100028
H	-0.0632573433	 0.2175513157	 2.8628712678	 0.094606
H	 0.0537284852	-1.5592403666	 2.9557912929	 0.104312
H	 2.2845675194	 0.9392058561	 0.5022263302	 0.100612
H	 3.006978578	-0.7008147692	 0.6220031399	 0.095042
H	 1.4517804124	-0.6330009851	-1.8141651385	 0.069646
H	 1.831221548	-2.5380528129	 0.3110467907	 0.087559
H	 0.0811116658	-2.5249646618	-0.0889733702	 0.104633
