18
gdb 96207	2.73739	1.45796	0.99193	5.5904	81.17	-0.2303	-0.0323	0.198	1179.1999	0.14938	-398.153276	-398.144564	-398.143619	-398.187014	31.435	
C	-0.0552803707	 1.4241100293	-0.1571271964	-0.357137
N	 0.016867586	 0.0212611555	 0.2047717964	-0.122662
C	-1.2504885722	-0.6922040727	 0.3084515761	-0.155254
C	-1.0533667412	-2.0243561052	 1.0303246736	-0.236174
C	 0.1070585239	-2.790289767	 0.3890444575	-0.156951
N	 1.3167458985	-1.9901944466	 0.248272829	-0.312386
C	 1.1767465089	-0.719811019	 0.1596327893	 0.294728
C	 2.409587291	 0.0410114069	 0.0261330211	 0.270864
N	 3.3913709044	 0.6411564838	-0.0838797493	-0.342301
H	 0.9378185794	 1.8731367984	-0.1444816088	 0.172409
H	-0.4854585321	 1.5614246263	-1.1597497653	 0.127539
H	-0.6865250622	 1.9614009383	 0.5599100259	 0.131597
H	-1.9545085088	-0.0537773047	 0.8548218318	 0.114456
H	-1.6778504013	-0.8548028614	-0.6937728738	 0.111547
H	-0.8249057214	-1.8332745664	 2.0846605978	 0.120132
H	-1.9791023617	-2.6062735393	 0.9950676863	 0.108514
H	 0.3566206593	-3.6775444683	 0.9802315611	 0.116585
H	-0.1831816999	-3.1598683279	-0.6055824022	 0.114492
