21
gdb 57056	2.29392	1.16779	1.11756	3.1597	83.39	-0.2351	0.0325	0.2676	1280.1791	0.181839	-383.27156	-383.261752	-383.260808	-383.306394	35.785	
C	 0.0481146354	 1.5633121314	 0.0492887324	-0.393841
C	 0.0093281026	 0.0291088665	 0.0048232266	-0.100964
C	 0.4546343168	-0.4617987531	-1.3284958637	 0.258703
N	 0.8447613378	-0.8791478229	-2.3342530822	-0.338103
N	 0.7731404886	-0.5466754991	 1.0947795694	-0.075946
C	 2.2515820213	-0.4545687233	 1.1115120571	-0.179892
C	 2.2892765615	-1.854124156	 1.7684081613	-0.251801
C	 0.828585072	-2.0211219753	 1.2750644326	 0.070299
C	-0.2171914334	-2.6076460169	 2.2060735396	-0.402861
H	 1.0705869282	 1.9283787067	-0.0797680675	 0.138756
H	-0.5690574314	 1.9910789271	-0.7445197767	 0.135276
H	-0.3239819361	 1.8989430157	 1.0197115776	 0.134044
H	-1.030501231	-0.2993426398	 0.1265767753	 0.127469
H	 2.6986319456	-0.45829668	 0.1064370127	 0.112247
H	 2.6493168018	 0.3927399893	 1.6779204978	 0.10538
H	 3.0255602917	-2.5614063314	 1.3872726009	 0.112453
H	 2.3546881629	-1.8071452376	 2.857844446	 0.109575
H	 0.8146993845	-2.5464462378	 0.3064595432	 0.083243
H	-0.203763174	-2.093972777	 3.1720694816	 0.119933
H	-1.2242817553	-2.5147685869	 1.7842674991	 0.115827
H	-0.0274044794	-3.6735724695	 2.3721467967	 0.120206
