17
gdb 129665	3.06649	1.30498	0.98887	4.7365	76.23	-0.2122	0.0115	0.2237	1189.0717	0.138046	-414.171711	-414.163433	-414.162489	-414.205492	30.614	
N	 0.1845844224	 1.3268617344	-0.5282144887	-0.61567
C	 0.0092688487	 0.032420281	-0.0270656548	 0.204548
C	-1.0940213531	-0.7287595265	 0.3102186231	 0.315467
N	-0.6514819837	-1.9700960135	 0.6738838971	-0.275448
N	 0.6451067266	-2.0238070526	 0.5952852417	-0.128323
N	 1.0551830936	-0.81342561	 0.1585939921	-0.201682
C	-2.5210027292	-0.3598394671	 0.3005686919	-0.11898
C	-3.5564556181	-1.3162069032	-0.2611269791	-0.25881
C	-3.4933166831	-1.0682976267	 1.2190212784	-0.260776
H	 0.6569123915	 1.9472237587	 0.1213299583	 0.254415
H	-0.7009007053	 1.7438288988	-0.7856504003	 0.257385
H	 2.0331272443	-0.6447987152	-0.0144245397	 0.275993
H	-2.7062374363	 0.6976284006	 0.13198188	 0.062706
H	-4.383058307	-0.8983216141	-0.8254830348	 0.108066
H	-3.1859074837	-2.2675804841	-0.6252787661	 0.133204
H	-3.0791967877	-1.8535167059	 1.8404767167	 0.140712
H	-4.27649253	-0.4773809449	 1.6809541742	 0.107192
