21
gdb 90444	2.84842	1.32974	1.12017	1.4404	85.16	-0.2219	0.0205	0.2424	1181.9934	0.183221	-387.073202	-387.064668	-387.063724	-387.106142	33.658	
C	-0.1285706658	 1.5584499124	-0.0952496272	-0.391984
C	 0.0099754268	 0.0346381118	-0.0458023223	-0.005114
C	 1.0276406188	-0.4749792861	-1.1323577473	-0.252539
C	 2.3385847943	-0.6316449506	-0.3694369555	-0.237097
C	 2.0734493639	-0.7418074284	 0.9265476986	 0.298258
C	 2.5703151663	-0.3935534036	 2.3007161186	 0.035419
O	 3.7648412401	 0.3435669558	 2.3495197041	-0.427778
C	 1.1802289595	 0.3411891922	 2.4846649967	-0.297352
C	 0.6300603069	-0.5019917232	 1.2775189646	-0.05565
H	 0.8465552117	 2.0471114315	 0.0068115626	 0.123098
H	-0.5576400964	 1.8742822395	-1.0519598501	 0.109641
H	-0.7783115003	 1.9301188921	 0.7038418698	 0.110676
H	-0.9780596888	-0.4074927116	-0.2117704945	 0.063239
H	 0.6962984507	-1.4233130473	-1.5782963365	 0.100213
H	 1.1195164436	 0.2368840702	-1.9615831669	 0.097058
H	 3.3141222557	-0.5671586333	-0.835840107	 0.097935
H	 2.6149857549	-1.274424703	 2.9596968977	 0.07451
H	 4.0364792044	 0.4190453544	 3.2694104683	 0.284156
H	 0.6810315039	 0.2287738597	 3.4509173378	 0.089856
H	 1.2940987967	 1.3994501299	 2.2426085793	 0.114514
H	 0.097904083	-1.3874890424	 1.6439525992	 0.068941
