16
gdb 26109	4.67762	1.07626	0.88391	4.4619	81.32	-0.1983	-0.015	0.1833	1262.8368	0.12485	-434.113907	-434.10543	-434.104486	-434.148329	30.933	
C	-0.8203487118	 1.3204130144	 0.2105532182	-0.462641
C	 0.0117693868	 0.0773870093	-0.0153674557	 0.383807
N	 0.4086022942	-0.5627236947	 1.1208535335	-0.518318
N	 0.4076276057	-0.4254693703	-1.1358585318	-0.385545
C	 0.1977529086	 0.11490195	-2.3601536222	 0.463062
N	 0.4550310179	-0.4706457361	-3.498413791	-0.331156
C	 0.1049868568	 0.4552280005	-4.4640005055	-0.107019
C	-0.3497554074	 1.5829666546	-3.8727353501	-0.055189
O	-0.3014932787	 1.3921554034	-2.5178450209	-0.196152
H	-0.2476381302	 2.2103601565	-0.0617794432	 0.163086
H	-1.7047343981	 1.306568584	-0.4284625479	 0.158536
H	-1.1307127581	 1.4097964867	 1.2545205972	 0.110543
H	-0.0526285526	-0.3830676037	 1.9946288786	 0.26024
H	 0.8711947266	-1.450740308	 1.0046565343	 0.266992
H	 0.2098255922	 0.2432714544	-5.5166549379	 0.116071
H	-0.7121156519	 2.537446069	-4.2138216457	 0.133683
