17
gdb 115176	2.46958	1.51695	1.12765	3.5734	64.5	-0.2606	0.0006	0.2612	1100.5585	0.135386	-496.124168	-496.115535	-496.11459	-496.157629	31.374	
C	-0.0040492148	 0.9152024655	-0.5054699649	-0.245508
O	-0.4648598425	 0.0097576439	 0.487109071	-0.250378
C	 0.5163563129	-0.4077772917	 1.4015673515	 0.050437
C	-0.2063470895	-1.0506585294	 2.5971485048	-0.099814
O	-0.4327938129	-2.4339900165	 2.2355452439	-0.218154
C	 0.3589714281	-2.7671181411	 1.199005592	 0.421881
O	 0.2936415974	-3.8000994826	 0.5930417249	-0.359101
C	 1.3250347858	-1.6238122957	 0.9049900919	 0.000639
O	 1.7317006493	-1.6166799803	-0.4304545869	-0.43178
H	 0.7458713281	 0.4565647173	-1.1554370253	 0.14319
H	-0.878416681	 1.1996550145	-1.0949962631	 0.130809
H	 0.4204794121	 1.8198911235	-0.0438641744	 0.103575
H	 1.1520855997	 0.4320427108	 1.713261927	 0.082014
H	 0.3933183479	-1.0167746843	 3.5121272018	 0.123407
H	-1.1780817546	-0.5873739364	 2.7685118011	 0.145549
H	 2.1890229154	-1.7524134905	 1.5826454876	 0.101629
H	 1.4863975786	-2.483989097	-0.786276373	 0.301604
