18
gdb 36531	3.9932	0.98089	0.8328	3.9407	72.89	-0.2522	0.034	0.2862	1344.8338	0.148818	-439.095576	-439.087297	-439.086353	-439.129032	30.636	
N	-0.037918553	-1.1758993895	 0.0639960445	-0.303938
C	-0.0148220381	-0.0211890557	 0.0768373577	 0.274603
C	 0.007621158	 1.4396862752	 0.0706464189	-0.368192
C	 1.4301585878	 2.0084485486	 0.0298544189	 0.115744
C	 1.4330750317	 3.5341067863	-0.1046111588	-0.095046
O	 2.7538710699	 4.0350659786	-0.0293566237	-0.250682
C	 3.3853909545	 3.650134481	 1.1840477638	-0.081642
C	 3.3912725676	 2.1326407551	 1.3194258932	-0.081923
O	 2.0635480794	 1.6287764042	 1.240092283	-0.260551
H	-0.5591921311	 1.7963816569	-0.796567953	 0.153452
H	-0.4975719117	 1.8064024532	 0.9708142234	 0.160976
H	 1.9778214093	 1.581712736	-0.8260545986	 0.094156
H	 1.0336456138	 3.8438309752	-1.0752686471	 0.114604
H	 0.8065205283	 3.9699094489	 0.6926902145	 0.092937
H	 4.4038484264	 4.0473742399	 1.1489287663	 0.115496
H	 2.8598176612	 4.0959406384	 2.0440486165	 0.097881
H	 4.0120832122	 1.690164801	 0.5247794246	 0.10456
H	 3.7871265738	 1.8213125066	 2.2901112258	 0.117567
