25
gdb 118076	3.48984	0.70829	0.61603	0.3813	86.71	-0.2505	0.078	0.3285	1875.9241	0.225978	-426.61419	-426.602215	-426.601271	-426.652173	42.251	
C	-0.0048746085	 1.3822780648	-0.0348543223	-0.227401
O	 0.0319358752	-0.0227541039	-0.0437104004	-0.232002
C	 0.6488939257	-0.5639396662	 1.1076139569	-0.062968
C	 0.6492354169	-2.0934558242	 1.0015851319	 0.005248
C	 1.3951591741	-2.5179133306	-0.2752019466	-0.409382
C	 1.2188433992	-2.7423914879	 2.2885539964	 0.037823
C	 0.4629693058	-2.3267822618	 3.5623393577	-0.409304
C	 1.2351960423	-4.2720757129	 2.1813090279	-0.08992
O	 1.8501960577	-4.7956171188	 3.3526708892	-0.42255
H	 1.0063546234	 1.819432643	-0.0068558022	 0.102077
H	-0.5024271441	 1.7043681765	-0.9531716703	 0.124686
H	-0.5673559856	 1.7724312363	 0.8288619832	 0.101781
H	 1.6862330104	-0.1914760138	 1.1954442608	 0.079318
H	 0.1063576997	-0.2289361131	 2.0034900847	 0.087338
H	-0.4030678823	-2.3981328737	 0.9039969297	 0.077152
H	 2.476608897	-2.3719997174	-0.1624823733	 0.107292
H	 1.2228933378	-3.5673781871	-0.5263497415	 0.110642
H	 1.0583987829	-1.9119338705	-1.1184192692	 0.133806
H	 2.2683081857	-2.4294236385	 2.3924718675	 0.07758
H	 0.7996110019	-2.9326121789	 4.4055427382	 0.136512
H	 0.6254311474	-1.2767341707	 3.8172685987	 0.111302
H	-0.6167315455	-2.4806907657	 3.4428541844	 0.106043
H	 0.2004083681	-4.6417932225	 2.0778735564	 0.080628
H	 1.7904087395	-4.5877748696	 1.2887972004	 0.088623
H	 1.8453180454	-5.7546192826	 3.2889046118	 0.285676
