23
gdb 115864	2.36618	1.36047	1.02831	1.193	85.	-0.2539	0.0794	0.3333	1264.8474	0.206551	-388.295611	-388.28634	-388.285396	-388.32925	36.117	
C	-0.0151727477	 1.5044885542	 0.0206794558	-0.487213
C	 0.0124903844	-0.0063411622	 0.0079568962	 0.354137
C	-0.8422801897	-0.776440112	 0.9938622518	-0.339544
C	 0.6638709221	-0.8114618345	 1.1134744316	-0.07262
C	 1.3920882388	-1.9944502652	 0.4940413229	-0.22694
C	 0.767769488	-2.1438364485	-0.9110757623	-0.231407
C	 0.3247948493	-0.7167548412	-1.3133318207	-0.015145
C	-0.8132155004	-0.694686471	-2.3252674556	-0.096565
O	-0.36475455	-1.3511842683	-3.5049514855	-0.424307
H	 0.9160725862	 1.9210887131	-0.382242096	 0.113519
H	-0.8410868124	 1.9031906356	-0.5803898561	 0.114445
H	-0.1392804184	 1.888902501	 1.0382907889	 0.111934
H	-1.3817572612	-0.1909893745	 1.7314288268	 0.102974
H	-1.3713711285	-1.6692643821	 0.6761171195	 0.104659
H	 1.1159839727	-0.3073632666	 1.9618783446	 0.074567
H	 2.4604301881	-1.7581680238	 0.4154356964	 0.096362
H	 1.3104247844	-2.9138982571	 1.0846448122	 0.093096
H	 1.4540615301	-2.581228557	-1.6382397686	 0.108085
H	-0.1051032064	-2.8055401284	-0.874715231	 0.09786
H	 1.1771432936	-0.196401937	-1.7734406982	 0.072816
H	-1.6944190952	-1.2010895213	-1.8986881454	 0.082186
H	-1.1058836702	 0.3450952633	-2.5424416347	 0.082275
H	-1.0870647077	-1.3559381665	-4.1394666423	 0.284826
