17
gdb 102447	2.02639	1.28041	0.88281	2.0672	72.76	-0.258	-0.0688	0.1892	1316.4524	0.131996	-458.917449	-458.907243	-458.906299	-458.953247	35.446	
C	-0.1116173319	 1.2704490034	 0.1042683235	-0.249764
O	 0.2174304688	-0.1093486432	 0.0920602302	-0.242074
C	 0.6975318936	-0.5973721828	-1.1324626192	-0.025984
C	 1.3350506598	-1.9634091817	-0.8164908706	-0.068955
O	 2.3548834471	-1.8207496901	 0.1425753756	-0.416932
C	-0.405470422	-0.7318862061	-2.1889122338	 0.208174
O	-1.5774294621	-0.5519693803	-1.9466367146	-0.282578
C	 0.0631367431	-1.0964737859	-3.5162360992	 0.277455
C	 0.4706020478	-1.3954380049	-4.6090882447	-0.41655
H	 0.7476977519	 1.8846928736	-0.203002002	 0.109377
H	-0.9643464851	 1.4854340591	-0.5479116248	 0.138581
H	-0.3765341768	 1.5208642054	 1.1336285584	 0.13345
H	 1.4828848928	 0.0618673123	-1.5417438582	 0.093073
H	 0.5400734643	-2.6437498233	-0.4730427624	 0.106617
H	 1.7846419959	-2.3847347121	-1.7190032224	 0.123666
H	 1.9616379094	-1.3176646362	 0.8665525513	 0.291489
H	 0.8163268534	-1.6601587172	-5.579238797	 0.220956
