23
gdb 100266	1.93364	1.27975	1.16231	1.3527	81.33	-0.2379	-0.0097	0.2281	1278.4494	0.201912	-425.448944	-425.437389	-425.436444	-425.485949	41.468	
C	-0.1654814045	 1.5701007204	 0.1152488653	-0.401023
C	-0.031300064	 0.0479935047	 0.0023624449	-0.197513
C	 0.7260892814	-0.4735167545	-1.2534533106	 0.141115
C	 0.7534436393	-2.0161768537	-1.2120685014	-0.440817
C	 0.0258400514	-0.0100286303	-2.5426013601	-0.094608
O	-1.3265380974	-0.4519168003	-2.4952282017	-0.434275
C	 2.1576054196	 0.0885605728	-1.259970689	 0.37713
C	 3.1484790354	-0.4481693821	-0.2379837796	-0.483791
O	 2.5007455678	 0.9337712501	-2.0585766526	-0.320787
H	 0.8052756043	 2.0754212496	 0.081876952	 0.123145
H	-0.7796855095	 1.9776164605	-0.6926615574	 0.127474
H	-0.6481598874	 1.8378364237	 1.0601901481	 0.111906
H	 0.4649616826	-0.3439262954	 0.8978489276	 0.090406
H	-1.0283418195	-0.4019695192	-0.0191057222	 0.123177
H	-0.2638413604	-2.3958898066	-1.3320859099	 0.1428
H	 1.3628147887	-2.4263285036	-2.0250617853	 0.112933
H	 1.15091219	-2.3921059516	-0.2652163768	 0.111545
H	 0.0902574101	 1.0796661849	-2.6308215792	 0.108009
H	 0.5528074318	-0.4343772357	-3.4097595582	 0.089992
H	-1.7656817276	-0.1494329278	-3.2946410547	 0.289296
H	 2.7112849147	-0.5347284896	 0.7603193991	 0.136159
H	 3.4737133636	-1.4520032069	-0.5334368267	 0.146708
H	 4.0193665497	 0.2078979104	-0.2113058017	 0.141018
