13
gdb 128971	4.22123	1.65608	1.18944	6.3141	72.34	-0.2306	-0.0613	0.1693	928.6839	0.094294	-411.805425	-411.799658	-411.798714	-411.835532	22.924	
N	 0.0042797321	 1.3354107803	 0.0098700289	-0.158333
C	 1.2350514588	 1.8898911862	 0.0006170167	-0.172639
C	 2.116524517	 0.8109818717	-0.0140885951	 0.191674
C	 3.5119521009	 0.5786466049	-0.0291966647	-0.071671
N	 4.0224239411	-0.6282893416	-0.0410018837	-0.221543
N	 3.2057632908	-1.7323888178	-0.039077041	-0.208591
C	 1.9023260831	-1.6042448062	-0.0254426758	-0.034421
C	 1.273229798	-0.3351831113	-0.0121288229	 0.292273
N	-0.028978288	-0.0075173347	 0.0025922362	-0.320337
H	-0.8744879088	 1.8306919792	 0.0214200007	 0.291298
H	 1.3797517352	 2.9579183053	 0.0051112659	 0.160643
H	 4.2302233669	 1.3951076639	-0.0317839263	 0.120073
H	 1.3228083029	-2.52346676	-0.0248368378	 0.131572
