16
gdb 89781	2.4758	1.50675	1.08254	4.4055	69.13	-0.2788	0.0144	0.2932	1099.8447	0.123352	-437.858225	-437.849955	-437.849011	-437.891373	30.786	
O	 0.510514029	 0.7452894748	-0.7559115605	-0.420128
C	-0.0139691669	-0.2436678	 0.0650350529	 0.164448
C	-0.0236331636	-0.0597518775	 1.6119423911	-0.370659
C	-1.4155522007	-0.6851800798	 1.6257340155	 0.47425
C	-1.9385412414	-1.8000926167	 2.4149995322	-0.264294
O	-2.4133414218	-0.4538229397	 2.58416297	-0.253405
C	-1.5878075621	-0.4699789228	 0.1027702746	-0.348483
C	-2.2988520788	 0.7500931066	-0.2339544677	 0.295948
N	-2.7915422981	 1.7598118081	-0.5096044516	-0.327902
H	 0.0156062648	 1.5635878005	-0.6208783018	 0.298615
H	 0.472622145	-1.1777688625	-0.2235718195	 0.113674
H	 0.7688144354	-0.5397238762	 2.1884183989	 0.121677
H	-0.0726630928	 1.0014514696	 1.8782815157	 0.131764
H	-2.6532584968	-2.4924917527	 1.9727779995	 0.127126
H	-1.3524762447	-2.1938780917	 3.2437974111	 0.128333
H	-1.9774282665	-1.30856357	-0.4782062204	 0.129037
