13
gdb 132672	3.16814	1.39636	0.96919	0.3673	64.49	-0.2165	-0.0249	0.1917	1089.4792	0.089852	-497.921324	-497.914211	-497.913267	-497.952753	27.72	
O	 0.0372093683	 1.333228758	-0.0281672734	-0.422375
C	 0.0483574456	-0.0178092039	-0.0470392037	 0.431411
C	-0.0016434194	-0.6872557229	-1.2701181707	-0.208442
C	 0.0113539053	-2.0762585851	-1.2565600898	-0.145972
C	 0.0729918675	-2.754084316	-0.0421609216	 0.218244
O	 0.0874097219	-4.1139363844	 0.0084594777	-0.442759
C	 0.1182866434	-1.9609341678	 1.1010774207	 0.216841
F	 0.1779492655	-2.5967936923	 2.2824910959	-0.089805
N	 0.1076068333	-0.6510468604	 1.123461975	-0.406728
H	 0.077404669	 1.5958186669	 0.9008366454	 0.302019
H	-0.0489205986	-0.1255323528	-2.1937117943	 0.116681
H	-0.0256651768	-2.6483928333	-2.1766082521	 0.126261
H	 0.132217495	-4.3743812961	 0.936211641	 0.304625
