18
gdb 27207	3.18849	1.62295	1.09009	1.548	88.89	-0.1806	-0.0067	0.1739	1098.6501	0.149909	-364.865809	-364.858135	-364.857191	-364.89816	29.637	
C	-0.0178823862	 1.5370084952	 0.0401269573	-0.50356
C	 0.0118400933	 0.0388622655	 0.0017935866	 0.111454
C	 0.0001997261	-0.7720481153	-1.119086286	 0.297375
C	-0.0362512018	-0.7776342616	-2.5677598831	-0.208024
C	-0.021813352	-2.0483738442	-3.0100869706	-0.108193
C	 0.027029476	-3.01034045	-1.8372322137	-0.243098
N	 0.0370933193	-2.0917130326	-0.7103255281	-0.023773
C	 0.0722097236	-2.1517287459	 0.6526758863	-0.128977
C	 0.0579811853	-0.8503515529	 1.1190743398	-0.233065
H	 0.8648715892	 1.9493541435	 0.5434963737	 0.123723
H	-0.0463861066	 1.9600276415	-0.9684168706	 0.114871
H	-0.8960481731	 1.913808545	 0.5782781064	 0.123744
H	-0.0696254066	 0.1115383383	-3.1821444149	 0.108278
H	-0.0408656438	-2.3846068882	-4.0366983314	 0.104947
H	-0.844539919	-3.6776154164	-1.8076446366	 0.130717
H	 0.9249410196	-3.6422405155	-1.8523513669	 0.130703
H	 0.1044805511	-3.090956848	 1.1817908884	 0.113915
H	 0.0784895356	-0.5608511584	 2.1599077533	 0.088964
