15
gdb 19144	3.87041	1.63812	1.33477	2.9424	61.8	-0.2616	-0.0419	0.2196	912.9	0.118036	-399.752589	-399.745053	-399.744109	-399.784912	26.939	
O	-0.3051429846	 0.4379372695	 1.1963123998	-0.270533
C	-0.2497355895	 1.4436938132	 0.5289888687	 0.097712
C	 1.0217261988	 1.9535533851	-0.0747920061	 0.219928
C	 2.1819991767	 2.0217392557	 0.8830962667	-0.250752
N	 2.1301315176	 0.9920141103	-0.141504215	-0.334375
C	 0.8811563116	 2.9497104124	-1.1831905545	-0.032252
C	 1.7957159002	 2.9676836338	-2.329107867	-0.16616
O	 0.4764252313	 2.4319312503	-2.454147066	-0.234396
H	-1.1542168215	 2.0534120276	 0.3241850611	 0.09398
H	 2.9277161386	 2.7969412083	 0.7295599718	 0.130109
H	 1.9868685106	 1.746258642	 1.9156286914	 0.137597
H	 1.795572645	 0.1220176384	 0.2751848699	 0.253932
H	 0.3779175592	 3.8771876498	-0.9027799428	 0.098739
H	 1.9708546209	 3.9046627699	-2.855791619	 0.114757
H	 2.597032895	 2.2345129837	-2.363032729	 0.141714
