20
gdb 86034	3.60799	0.92263	0.87749	3.3373	79.63	-0.2735	0.0243	0.2977	1404.4006	0.16953	-403.162567	-403.153057	-403.152113	-403.19709	35.648	
C	 0.0703211037	 1.5916588353	 0.1414505616	-0.410719
C	 0.064436462	 0.0743648858	 0.0557206577	 0.054925
C	 1.0824580551	-0.6236005553	-0.8927510797	-0.270119
C	 1.3061145384	-1.7041262318	 0.1918169668	 0.403913
O	 0.4736990314	-2.8064539554	-0.1124527642	-0.482787
C	 2.7561618917	-2.1743239937	 0.4245125627	-0.39123
C	 2.8245525546	-3.1178215303	 1.5384637842	 0.244917
N	 2.8102121805	-3.8638496193	 2.4216656605	-0.310067
C	 0.6703859245	-0.7407506883	 1.2361973501	-0.28181
H	 1.0754575218	 1.9711164558	 0.360463906	 0.108874
H	-0.2584659585	 2.0444275346	-0.800538953	 0.118382
H	-0.5988220601	 1.947648147	 0.9325512466	 0.119004
H	-0.9438440331	-0.2883329374	-0.1618078223	 0.088815
H	 0.7232484946	-0.9990184724	-1.8527098684	 0.11556
H	 1.9757258706	-0.0109753941	-1.0521414202	 0.094352
H	 0.4155629755	-3.366243917	 0.6719118391	 0.29178
H	 3.1226373138	-2.6691553892	-0.4817432387	 0.15776
H	 3.4121443621	-1.3227903619	 0.6316076454	 0.144983
H	 1.4270690329	-0.1647508953	 1.7792603038	 0.097563
H	-0.0149187113	-1.1933789771	 1.9569243917	 0.105903
