16
gdb 2971	4.34029	2.09297	1.50807	1.258	66.96	-0.2381	0.0464	0.2845	823.2257	0.134931	-288.572051	-288.564392	-288.563448	-288.603615	28.178	
C	 0.0728842243	 1.4276906916	 0.0480248657	-0.386148
C	-0.1084657651	-0.0962336806	-0.0052544918	-0.142203
C	-1.5248442202	-0.4672785067	-0.0298433852	 0.36552
C	-2.6890401649	-0.764235137	-0.0356265532	-0.465386
N	 0.5646813827	-0.6237527229	-1.2010404987	-0.055993
C	 1.9751556451	-0.9655433709	-1.0313742973	-0.224677
C	 0.9428024129	-2.0310828522	-1.1558328097	-0.213144
H	 1.1375224837	 1.6748101921	 0.0948530904	 0.116614
H	-0.3536766058	 1.885275965	-0.8474199279	 0.138163
H	-0.4230642279	 1.8423434336	 0.9290465673	 0.124047
H	 0.3347569125	-0.5308920842	 0.9116880465	 0.083409
H	-3.7170288275	-1.0301984585	-0.0443279505	 0.196203
H	 2.6238691133	-0.7183653805	-1.8665038597	 0.119071
H	 2.4226564355	-0.8211014114	-0.048749629	 0.10965
H	 0.6999939085	-2.5962302655	-0.2576035768	 0.115362
H	 0.8212662531	-2.5805810818	-2.08445817	 0.119511
