20
gdb 72579	2.15343	1.63771	1.4817	2.8494	80.11	-0.2538	0.0328	0.2866	1059.5129	0.169984	-403.154148	-403.14521	-403.144266	-403.187286	34.251	
C	-0.424544923	 1.4125449755	 0.0404881464	-0.480305
C	 0.0695009944	-0.0042855297	-0.0301737414	 0.408967
C	 1.1804379294	-0.4352091695	-1.0138318742	-0.272261
C	 1.8384713534	-1.292754048	 0.109481862	-0.278989
C	 0.7324075876	-0.8411322566	 1.1208149596	 0.142599
C	 1.1309212153	-0.3568497064	 2.4944349434	-0.49334
C	-0.5057458559	-1.6966768235	 0.9826735297	 0.399616
N	-0.9449391057	-2.7067844918	 1.5848220038	-0.561311
O	-1.0406889816	-0.9745595999	-0.0657368692	-0.311106
H	 0.4136487386	 2.1060509822	 0.1597113435	 0.123491
H	-0.9556550015	 1.6781619854	-0.8803075003	 0.134641
H	-1.1118295069	 1.5473797997	 0.8808287212	 0.130809
H	 0.8096841498	-0.9730883453	-1.8883657095	 0.116276
H	 1.8064452954	 0.3956394415	-1.3490663927	 0.105771
H	 1.8984089299	-2.3686161124	-0.0640285402	 0.12013
H	 2.8281322627	-0.9318832141	 0.3992478754	 0.107804
H	 1.9455506661	 0.372898364	 2.4379602447	 0.113422
H	 0.2886376754	 0.10568763	 3.0183190034	 0.126107
H	 1.473102528	-1.2002337527	 3.1032370046	 0.143944
H	-1.8395446212	-3.0114277786	 1.1964111098	 0.223735
