16
gdb 68503	2.96779	1.23456	1.08566	2.0266	71.85	-0.2479	-0.0343	0.2137	1133.0407	0.122754	-437.840582	-437.832183	-437.831238	-437.873956	30.484	
C	 0.0600560541	 1.4714005228	 0.0209146185	-0.520873
C	-0.0121252207	-0.0233462902	 0.0430361724	 0.164953
N	 0.5676153153	-0.9171606729	-1.0647166493	-0.343533
C	 0.0126240206	-1.9273020532	-0.0655514211	-0.175626
C	 0.6409639167	-1.0396897748	 1.0555059364	-0.103142
C	 2.1428704493	-1.0305195561	 1.1729354839	 0.130088
O	 2.7008606668	-1.0064167247	 2.2432839216	-0.256391
C	-1.2209288699	-0.9975099391	 0.0087457981	 0.420314
O	-2.4047654962	-1.0005968697	-0.1108043837	-0.316467
H	 1.0930933876	 1.8175546352	-0.0735284693	 0.145099
H	-0.5183823858	 1.8713049481	-0.8179157457	 0.140687
H	-0.3596273183	 1.8807732102	 0.9445366465	 0.147191
H	-0.010253019	-0.8790404041	-1.9089990518	 0.234704
H	 0.1144642094	-3.0002265819	-0.2114879938	 0.115024
H	 0.1844168736	-1.0963751497	 2.0449278264	 0.107299
H	 2.7054831162	-1.0466145697	 0.2220412409	 0.110673
