18
gdb 43676	6.07499	0.74906	0.73421	4.4678	73.27	-0.2516	0.0129	0.2645	1541.8693	0.147503	-439.077237	-439.068883	-439.067939	-439.111332	30.506	
O	-0.7639911972	 0.5395189868	-1.1257280231	-0.31205
C	-0.2845956809	 1.2673162668	-0.3190665627	 0.439326
C	-0.303498668	 2.7544967539	 0.0351530765	-0.414738
C	 0.6572129561	 2.3298365951	 1.1577893385	 0.132421
C	 0.1697975738	 2.4612964451	 2.5893350464	-0.167904
N	 0.1566282927	 3.8667090183	 2.9692716914	-0.07088
C	 0.1289954765	 4.148381209	 4.4005228891	-0.217887
C	 1.3683971657	 4.3784978755	 3.6097932615	-0.222593
O	 0.5814216383	 0.9354538097	 0.6983450591	-0.252963
H	 0.1042536024	 3.4039539031	-0.7406245752	 0.144688
H	-1.2718524727	 3.1372122842	 0.3611491842	 0.150545
H	 1.6814451153	 2.6964593535	 1.0487770725	 0.100689
H	-0.8522678068	 2.0696015824	 2.6567675439	 0.113866
H	 0.8035853437	 1.8406453299	 3.2474136652	 0.098294
H	-0.4960117205	 4.9831371805	 4.7033310521	 0.123788
H	 0.126511164	 3.3025471328	 5.0859375704	 0.116511
H	 2.193895062	 3.6860110748	 3.7679657181	 0.115418
H	 1.6639856356	 5.3840041585	 3.3259507521	 0.12347
