21
gdb 57496	4.05342	0.67313	0.66442	1.1982	101.21	-0.24	-0.0105	0.2295	1792.9809	0.17838	-349.918983	-349.908167	-349.907223	-349.954588	40.373	
C	-0.1067771247	 1.5502019924	 0.0840010988	-0.401463
C	-0.024451326	 0.0152742885	 0.0499902577	 0.259936
C	 0.6599020656	-0.5047288954	 1.3248221764	-0.401464
C	-1.4394222362	-0.5778322858	-0.0579829746	-0.404446
C	 0.7777043459	-0.4441178126	-1.2064450107	-0.401636
C	 2.1506396454	 0.0320558485	-1.2664541065	 0.350554
C	 3.2943616276	 0.4271235213	-1.3186574875	-0.205862
C	 4.5796428184	 0.87054808	-1.3774911116	 0.291578
C	 5.7203911328	 1.2638788532	-1.4301889757	-0.564681
H	 0.8892341993	 1.9992580483	 0.1393735929	 0.128702
H	-0.6024516828	 1.93996467	-0.8122742972	 0.108339
H	-0.6793547492	 1.8867280783	 0.9546252614	 0.110947
H	 0.0994790378	-0.2006855665	 2.2150837888	 0.110948
H	 0.7178961767	-1.599057135	 1.3246906405	 0.108339
H	 1.6777664165	-0.1142401229	 1.4155187291	 0.128704
H	-1.9510793895	-0.2277531823	-0.9614290924	 0.110145
H	-1.4119738149	-1.6727556945	-0.0888319708	 0.110145
H	-2.0475955473	-0.2843086493	 0.8038240404	 0.112662
H	 0.7795497741	-1.542059287	-1.2424476071	 0.130107
H	 0.2451112465	-0.1099896013	-2.1072643185	 0.130098
H	 6.722986684	 1.609340792	-1.4769177634	 0.18835
