19
gdb 100435	3.99778	0.65937	0.57408	4.3406	80.04	-0.2613	0.012	0.2733	1859.7491	0.15675	-419.232433	-419.221742	-419.220797	-419.271792	35.876	
C	-0.0684038917	 1.4299482099	 0.1697211873	-0.227108
O	-0.0090402905	 0.032500496	-0.1173809359	-0.235711
C	-1.142546594	-0.6695266134	 0.0759416138	 0.4161
C	-0.9483223096	-2.1248976825	-0.261795411	-0.491284
N	-2.197711945	-0.099211523	 0.4923255227	-0.318551
C	-3.3948461991	-0.8911943074	 0.6862090774	-0.143195
C	-4.510612386	 0.0349244253	 1.2073050389	-0.329916
C	-5.766673867	-0.6742926873	 1.4343692395	 0.248706
N	-6.7508340126	-1.254902568	 1.6071626566	-0.307026
H	 0.9283671178	 1.8169127206	-0.0452231508	 0.128495
H	-0.8167968189	 1.9236970362	-0.4563154118	 0.133639
H	-0.3302683517	 1.6004601758	 1.2176595684	 0.133566
H	 0.0729898502	-2.309749881	-0.5934521521	 0.146719
H	-1.1607406326	-2.7501035837	 0.6115864482	 0.148808
H	-1.642824888	-2.4283411351	-1.0519542711	 0.148767
H	-3.7337730812	-1.36372524	-0.247149762	 0.118222
H	-3.2420472281	-1.7042937725	 1.4107044532	 0.117793
H	-4.1853639386	 0.5043726816	 2.1414135198	 0.155908
H	-4.6757499135	 0.8438059985	 0.488166009	 0.156069
