18
gdb 52248	5.46823	0.73328	0.70698	1.3515	72.87	-0.2449	-0.0327	0.2121	1575.2566	0.145755	-439.025216	-439.016432	-439.015488	-439.060389	31.011	
O	-0.1280268671	 0.0725966309	 0.3870102984	-0.235724
C	 0.0267673457	 1.1639418335	-0.0913242225	 0.139743
C	 1.3882741033	 1.8061633586	-0.297355567	-0.155789
O	 1.1973776004	 3.0418175439	-0.9415708581	-0.261087
C	 2.3845224087	 3.7757133361	-1.1301643876	 0.134201
C	 3.3499449586	 3.3950074186	-2.291724084	-0.205047
N	 3.2327825581	 4.7704614817	-2.8951893043	-0.124615
C	 1.8109807331	 4.9145638475	-3.243082912	-0.230228
C	 2.1909722291	 5.1060125204	-1.8297180451	-0.068215
H	-0.8209976704	 1.8033666433	-0.4220441619	 0.098942
H	 1.8717324584	 1.9265007259	 0.6875068146	 0.124314
H	 2.0195988386	 1.1190502987	-0.8834874346	 0.126834
H	 2.9210128978	 3.8758559314	-0.1765754151	 0.081794
H	 4.3768137327	 3.2026620361	-1.9759974827	 0.116409
H	 3.0117590372	 2.5931626193	-2.9564718168	 0.109677
H	 1.6049629036	 5.8104214348	-3.8201651992	 0.126156
H	 1.2414278607	 4.0362348261	-3.5369036382	 0.122084
H	 2.1621715314	 6.0732113933	-1.340133384	 0.10055
