15
gdb 24672	4.65302	1.15579	0.98621	1.7582	73.68	-0.2556	-0.0448	0.2108	1149.6276	0.115131	-416.835239	-416.82828	-416.827336	-416.867195	25.89	
C	 0.9202362874	 0.8026260863	-0.2570177425	-0.173841
O	-0.2674228496	 0.2906520416	-0.8523065748	-0.225012
C	-0.3410377896	 0.7217460661	 0.5061228962	-0.00376
C	-0.5529420468	-0.329808022	 1.5385282266	 0.319622
N	-0.8693404175	 0.102762882	 2.7650443927	-0.313054
C	-1.0406237271	-0.8375185471	 3.6946370035	 0.069302
N	-0.9413380561	-2.1578189582	 3.5371849302	-0.249263
C	-0.6385487362	-2.5683691173	 2.3011658976	 0.021361
C	-0.431020596	-1.68810694	 1.248915422	-0.188343
H	 1.7031581202	 0.0705721749	-0.0660033472	 0.123647
H	 1.2553333521	 1.7695388649	-0.6284496794	 0.130734
H	-0.8955936381	 1.6413908179	 0.682637453	 0.117187
H	-1.2943020308	-0.4866907286	 4.6923573846	 0.121694
H	-0.5646671174	-3.6433922024	 2.1527462646	 0.122313
H	-0.2039473844	-2.0243992281	 0.2452620328	 0.127414
