25
gdb 110215	2.04309	1.26745	1.176	0.2201	93.71	-0.2309	0.0842	0.3151	1322.9348	0.227809	-352.347195	-352.336852	-352.335908	-352.38197	39.396	
C	 0.2771647995	 1.4126943797	 0.2316029125	-0.369832
C	-0.1781640837	-0.0122225563	-0.1081334094	-0.213279
C	 0.6166210216	-0.6190227276	-1.2496711283	-0.087528
C	 1.9890778801	-1.2470719302	-1.1463800114	 0.305657
C	 3.1695533968	-0.7735081022	-1.94787885	-0.498404
C	 2.1070720331	-2.0544247829	 0.1561430441	-0.285185
C	 0.8715678984	-2.907326668	-0.2690835117	-0.280208
C	 0.7625563137	-2.0894727725	-1.5654016491	 0.276727
C	 0.3875848468	-2.6785115002	-2.8968349976	-0.496719
H	 1.3255938373	 1.4254242186	 0.5481982716	 0.1168
H	 0.1882568423	 2.0744976993	-0.6372864036	 0.110909
H	-0.3235720921	 1.8422186885	 1.039751099	 0.107478
H	-0.1066075124	-0.6370546007	 0.7879967573	 0.097752
H	-1.2420259389	-0.0000396207	-0.380538354	 0.091961
H	 0.5282868657	-0.0326827283	-2.1658892452	 0.06943
H	 3.6836910177	 0.0578523912	-1.4488971451	 0.117187
H	 3.90547757	-1.5740062784	-2.0915281607	 0.110449
H	 2.8648409122	-0.4189039675	-2.9384080616	 0.113734
H	 3.0238155111	-2.6492042825	 0.1924137997	 0.095402
H	 2.0304452744	-1.4926048776	 1.0935581171	 0.090963
H	 1.1407035339	-3.9495394013	-0.461815094	 0.094776
H	 0.0010634278	-2.8993140559	 0.3955835447	 0.090611
H	-0.682210851	-2.9200158226	-2.939760361	 0.116837
H	 0.5968420536	-1.9821354113	-3.7159538887	 0.113571
H	 0.9400431521	-3.6047061106	-3.0962328347	 0.110914
