19
gdb 74277	2.70285	1.32896	1.11164	4.4887	78.98	-0.2623	-0.0326	0.2296	1192.5985	0.157386	-423.101073	-423.091771	-423.090827	-423.134806	34.631	
C	 0.0256053328	 1.5397300501	-0.0005078895	-0.488377
C	-0.0511009997	 0.0505653745	 0.0099986353	 0.176838
C	-1.089175855	-0.7828353505	-0.0563819265	-0.241247
C	-0.6223803376	-2.2165169224	-0.0071936453	 0.306755
C	-1.1276630301	-2.9575852445	 1.2360744499	-0.409155
C	-0.9439553164	-2.9845949616	-1.2943817261	-0.409152
O	 0.8154588728	-2.0963608143	 0.0959117534	-0.252247
C	 1.1829235432	-0.7801946898	 0.108500485	 0.361947
O	 2.3253291739	-0.4202742128	 0.1876610231	-0.350485
H	 0.6400868736	 1.8861352132	-0.8383531559	 0.148673
H	-0.9642927474	 1.9951430726	-0.0776385606	 0.12401
H	 0.512695185	 1.9050004455	 0.9099067182	 0.148669
H	-2.1379631397	-0.5217694792	-0.135223193	 0.115765
H	-2.2173605714	-3.0537550482	 1.2067884682	 0.119416
H	-0.6923347627	-3.959710608	 1.2785157772	 0.133954
H	-0.8495974155	-2.4166946535	 2.1439376759	 0.130633
H	-0.5368522584	-2.4626757284	-2.1638454445	 0.130631
H	-0.5086085653	-3.9867242447	-1.252220576	 0.133955
H	-2.026605262	-3.081796128	-1.4207460287	 0.119417
