15
gdb 46434	3.89331	1.24858	1.12937	3.8241	74.11	-0.2628	0.0043	0.2671	1078.8155	0.112675	-416.757609	-416.749993	-416.749048	-416.789765	29.13	
N	-0.0432590844	 1.2418521349	 0.353795211	-0.533225
C	-0.0115415031	 0.0388584931	-0.0081167759	 0.438999
O	 1.1274163778	-0.6703706946	-0.3139212571	-0.247788
C	 0.7943288093	-1.9339559319	-0.88723368	-0.159311
C	-0.7045265046	-2.0881188697	-0.6332460635	 0.102327
C	-1.1426210319	-1.9246439586	 0.7795351836	-0.271405
N	-1.1817176597	-0.7661263594	-0.1406255635	-0.158478
C	-1.484906569	-2.8071184522	-1.5972465426	 0.191855
C	-2.0982274339	-3.4458372409	-2.4093475151	-0.345124
H	 0.9001355358	 1.6287487527	 0.3726325624	 0.231648
H	 1.0003455644	-1.9217366667	-1.962398797	 0.133761
H	 1.401341892	-2.7093915784	-0.4116904905	 0.131693
H	-2.1208993293	-2.2865209706	 1.0745337288	 0.144955
H	-0.3790740182	-1.9326342571	 1.5532889271	 0.139139
H	-2.6558043352	-3.9975344206	-3.1257972776	 0.200955
