23
gdb 84852	2.307	1.71609	1.20819	0.316	89.54	-0.2356	0.0247	0.2603	1142.221	0.208028	-351.16494	-351.156534	-351.15559	-351.197891	33.605	
C	-0.3299911319	 1.4798270333	-0.0072508888	-0.404843
C	 0.1113903572	 0.0124141984	-0.0739567456	-0.034168
C	 1.0744887058	-0.2528971404	-1.209377025	-0.045358
C	 1.7988418817	-1.3711030469	-1.2620909066	-0.078098
C	 1.6741829326	-2.4312666284	-0.1966191325	-0.279101
C	 1.4808345889	-1.8385646497	 1.2098894135	-0.008816
C	 2.7314752263	-1.1355799039	 1.8179131724	-0.220253
C	 2.004076804	 0.2334820359	 1.7571985909	-0.221114
C	 0.7071058613	-0.4752278985	 1.2597119066	 0.013845
H	 0.5198907907	 2.1423037086	 0.1883103712	 0.11954
H	-0.7858502301	 1.7952260449	-0.9518174444	 0.110539
H	-1.0654923882	 1.6356457104	 0.7888047119	 0.108632
H	-0.7916281562	-0.5934604698	-0.2562351933	 0.080688
H	 1.1518204297	 0.4935512261	-1.9968168462	 0.077276
H	 2.4721228851	-1.5533636534	-2.0954742461	 0.082596
H	 0.8148944004	-3.0763411351	-0.4355715234	 0.10583
H	 2.5500747585	-3.0909506725	-0.1989682585	 0.097653
H	 1.0564057304	-2.6045948521	 1.8649880673	 0.060031
H	 2.9780679198	-1.4703979708	 2.8287365052	 0.093388
H	 3.6354165188	-1.2066340879	 1.2059467118	 0.093873
H	 1.9109750124	 0.7647732326	 2.7074389507	 0.090966
H	 2.434557961	 0.9191193302	 1.0227203948	 0.099111
H	-0.0791218682	-0.4736205912	 2.0211649041	 0.057784
