17
gdb 13668	5.50706	0.8945	0.83247	4.1986	69.58	-0.277	0.0354	0.3124	1354.5906	0.140966	-363.864925	-363.85624	-363.855296	-363.899102	30.302	
C	 0.1488368816	 1.5166516797	-0.2512942086	-0.421723
C	 0.0225189971	 0.0482468365	 0.0616081218	 0.078948
O	 1.2320732445	-0.7101974004	 0.1938898738	-0.263509
C	 0.3837029546	-0.5853812783	 1.3421889249	 0.050776
C	 0.9609051458	 0.1369433919	 2.5357410375	-0.227711
C	 2.1330333929	-0.6705458708	 3.1362609862	-0.326586
C	 2.7199455302	-0.019846631	 4.3042667847	 0.254617
N	 3.1693157797	 0.5100946856	 5.2276538005	-0.3042
H	 0.9317998827	 1.9970639971	 0.3381648321	 0.132051
H	 0.3955242613	 1.6513892902	-1.3093746359	 0.136278
H	-0.8000715011	 2.0295894965	-0.0614421845	 0.127836
H	-0.7429283491	-0.466936272	-0.5229840595	 0.093684
H	-0.1377811352	-1.5124273328	 1.5956006885	 0.092563
H	 1.3196903927	 1.1301527357	 2.258178208	 0.127516
H	 0.1797611398	 0.2711225526	 3.2920930306	 0.125535
H	 1.7977996088	-1.6730575559	 3.4269728907	 0.15169
H	 2.9071188037	-0.8034320747	 2.3731343493	 0.172234
