29
gdb 100678	2.56259	0.92705	0.84499	0.0186	98.95	-0.2881	0.0767	0.3649	1632.7353	0.272741	-354.772429	-354.760229	-354.759285	-354.809054	46.246	
C	-0.2182269248	 1.5794331647	-0.04859474	-0.388947
C	 0.1891547606	 0.1100891871	 0.1162570762	-0.186821
C	 0.8008006958	-0.5138709031	-1.1614903144	 0.053664
C	 2.2499736936	-0.0192024739	-1.324556521	-0.418043
C	 0.6496917283	-2.0775650391	-1.2362336572	 0.266141
C	 1.1883212243	-2.7499140863	 0.0421860417	-0.417733
C	-0.8436642841	-2.4269660416	-1.4023949452	-0.42079
C	 1.4311224114	-2.5990988197	-2.475559823	-0.187373
C	 1.2148709908	-4.0676856008	-2.8656621223	-0.405043
H	 0.6275726874	 2.2149644995	-0.3298516461	 0.116498
H	-0.9845853306	 1.6892111077	-0.8241918867	 0.113225
H	-0.630190594	 1.979144072	 0.8836518624	 0.109284
H	 0.9098368156	 0.0250375411	 0.9396632153	 0.093324
H	-0.6948625122	-0.4516811892	 0.4334886726	 0.093533
H	 0.2282306738	-0.1234708782	-2.0166113548	 0.060154
H	 2.301850646	 1.0655384736	-1.1922867963	 0.109854
H	 2.913072027	-0.4674380578	-0.5762687158	 0.113281
H	 2.6602373086	-0.2403460341	-2.3122026039	 0.114088
H	 0.6294029441	-2.4354570435	 0.9282699973	 0.111147
H	 1.1030177811	-3.8390196872	-0.0205824231	 0.10954
H	 2.2440698721	-2.5139451445	 0.2114297283	 0.108803
H	-1.2364591103	-2.0372325927	-2.3487540734	 0.105281
H	-1.0000401062	-3.509283836	-1.3968832348	 0.111545
H	-1.4551549128	-2.0150589312	-0.5953695486	 0.110496
H	 1.1698056349	-1.9703686018	-3.3378879756	 0.087013
H	 2.5023861358	-2.4486501207	-2.3048707089	 0.094847
H	 0.1873875562	-4.2653770283	-3.1837901094	 0.117533
H	 1.8704694712	-4.3322947457	-3.7016491048	 0.109853
H	 1.4471991863	-4.7523140502	-2.0437674785	 0.115646
