16
gdb 13334	5.4834	1.176	1.08357	4.0733	67.5	-0.2541	0.0106	0.2647	1085.8444	0.130548	-383.774945	-383.767444	-383.7665	-383.808174	26.727	
O	 0.049305569	-0.0454528038	-0.1349947193	-0.278317
C	 0.0670532577	 1.1489594406	-0.1406871411	 0.165995
O	 1.1301723307	 1.8661726063	 0.2601427542	-0.187895
C	 1.0488526785	 3.3046915065	 0.2140207875	 0.107463
C	 1.3130729571	 3.8637003318	 1.6323842219	-0.267097
C	 2.7511850915	 4.3169432772	 1.5719002393	-0.054435
C	 3.2293025742	 4.304022221	 0.3296024849	-0.05444
C	 2.1995742184	 3.8398097756	-0.6711211214	-0.267098
H	-0.7790996051	 1.7836335183	-0.472371504	 0.073982
H	 0.0615255806	 3.5829594297	-0.1688460299	 0.084566
H	 0.6381057041	 4.6992980339	 1.8610720578	 0.112422
H	 1.1278744261	 3.0909537213	 2.3856932476	 0.126837
H	 3.2981586434	 4.6302535304	 2.4534118552	 0.099374
H	 4.2282705374	 4.6051189498	 0.0366797077	 0.099374
H	 2.5617301687	 3.0523046694	-1.3401423695	 0.126848
H	 1.8578514476	 4.6664318522	-1.308322311	 0.112423
