25
gdb 58349	1.81339	1.29065	0.91433	2.7278	89.15	-0.2417	-0.0207	0.221	1446.5319	0.225492	-389.513932	-389.502396	-389.501452	-389.550714	42.078	
C	 0.242253967	 1.686287193	 0.2165605963	-0.400163
C	 0.0409452627	 0.1639259783	 0.3048350917	 0.011314
C	 0.6123492712	-0.3642202811	 1.6279235936	-0.404097
C	-1.4542025881	-0.1882774313	 0.1028911428	-0.042446
C	-1.9088215683	 0.2857156785	-1.2670168543	 0.157872
O	-2.9671869856	 0.8109993594	-1.5048785399	-0.263994
C	-1.8156432391	-1.6974530993	 0.2825138482	 0.00023
C	-3.3369508183	-1.9081900402	 0.2901746226	-0.396448
C	-1.1400670787	-2.6241048881	-0.7415970566	-0.398612
H	 1.3024866399	 1.9453719422	 0.2988503399	 0.113881
H	-0.1275440283	 2.0985877439	-0.728181187	 0.122369
H	-0.2908936987	 2.1964567708	 1.0273282329	 0.120213
H	 0.6112093594	-0.2939867865	-0.515733075	 0.078488
H	 0.0260234873	-0.0041855967	 2.4817693615	 0.116165
H	 0.6330745478	-1.4562228989	 1.671424251	 0.119674
H	 1.640193073	-0.0122372777	 1.7633049299	 0.113322
H	-2.050002802	 0.3710512615	 0.8359150906	 0.086304
H	-1.1787899234	 0.0928327934	-2.0895508937	 0.072047
H	-1.4484408286	-1.9779665198	 1.2762771508	 0.083175
H	-3.7906380671	-1.6365678404	-0.66789446	 0.132455
H	-3.5738645752	-2.9585305648	 0.4888738552	 0.108227
H	-3.8182981777	-1.3013412875	 1.0635822782	 0.115612
H	-1.5018428825	-2.4376242103	-1.7588204847	 0.120499
H	-0.0514722827	-2.5141802124	-0.7478935866	 0.116446
H	-1.3642498241	-3.6694591661	-0.5065035272	 0.117466
