23
gdb 114621	2.11732	1.30451	0.94692	1.5285	86.15	-0.2482	0.0692	0.3175	1360.3081	0.205148	-388.26218	-388.252342	-388.251398	-388.297042	36.955	
C	 0.0013174592	 1.5836604701	-0.0628872839	-0.381207
C	-0.0131962564	 0.0698443044	 0.1734639756	-0.195023
C	-1.3961549473	-0.5487916142	-0.0079196353	-0.016593
C	-2.0277459815	-0.6693073711	-1.4409134259	-0.252058
C	-2.2214141635	-2.1738009881	-1.2091782361	-0.121978
C	-0.8918335945	-2.8216567967	-0.945746416	-0.321034
C	-1.5652337279	-2.0686998029	 0.1715187049	 0.384971
C	-1.9387040935	-2.721994008	 1.4624248533	-0.206764
O	-0.7977532706	-2.7023069048	 2.3186205353	-0.418983
H	 1.0046361857	 1.9994742064	 0.072995633	 0.109427
H	-0.3256875703	 1.832141317	-1.0788493307	 0.114141
H	-0.6695021424	 2.0997114811	 0.6335757418	 0.109901
H	 0.7010730888	-0.4115783623	-0.5060903685	 0.09064
H	 0.3329296413	-0.1567837731	 1.1892068924	 0.110471
H	-2.1037991534	-0.0320614439	 0.6523073364	 0.06229
H	-2.9608871988	-0.1113874719	-1.5436774915	 0.098593
H	-1.3743011706	-0.4089761739	-2.2814811522	 0.092184
H	-3.0915010959	-2.7502508427	-1.5017085638	 0.081972
H	-0.9092086846	-3.9016529461	-0.835929033	 0.108167
H	 0.0087632034	-2.4417307599	-1.4210696552	 0.10506
H	-2.7792611347	-2.179245844	 1.9258276561	 0.080618
H	-2.2786226438	-3.7540749104	 1.2746130934	 0.080608
H	-1.0727767487	-3.0078785248	 3.1884794699	 0.284597
