15
gdb 30299	3.0772	1.63432	1.14556	2.893	67.22	-0.2074	0.0072	0.2146	1008.5065	0.115217	-453.950638	-453.943419	-453.942475	-453.982739	27.366	
O	 0.1004330094	 1.4415449445	 0.1349031947	-0.424752
C	 0.119330618	 0.0234478128	 0.034115041	-0.010127
C	-1.3334327511	-0.6202772903	-0.067671174	-0.199343
N	-1.4439879022	-1.391074752	-1.3563308817	-0.418913
C	-0.2015605975	-1.2006180915	-1.9231279661	 0.367177
C	 0.7259636994	-0.5248504025	-1.2156321955	 0.157287
N	 1.9345538228	-0.5675477734	-1.9023342792	-0.325514
C	 1.6550803488	-1.2466937472	-2.9647108354	 0.025944
O	 0.3395380278	-1.6907271573	-3.0548750584	-0.200414
H	 0.0277796197	 1.7930259736	-0.7593635261	 0.276402
H	 0.6024038795	-0.3120536996	 0.9562438256	 0.104989
H	-1.5135488483	-1.3068703694	 0.7630310348	 0.127983
H	-2.0763881684	 0.1798974881	-0.0247223236	 0.123341
H	-2.2389152459	-1.1401733999	-1.9331676709	 0.246199
H	 2.290948538	-1.507417706	-3.7946929452	 0.149741
