16
gdb 42932	3.28317	1.14258	0.93178	1.8355	75.41	-0.2479	-0.0307	0.2172	1227.3987	0.122742	-400.678602	-400.670349	-400.669405	-400.712066	30.732	
O	 0.0069583169	 0.0372812632	-0.058799361	-0.309429
C	-0.0789765299	 1.2248841071	 0.0560469856	 0.396625
C	-1.1702152667	 2.2372500696	-0.1329426234	-0.158864
C	-1.1326554582	 3.18859045	 1.0178880848	-0.241968
N	-0.1564426029	 3.3807157458	-0.045753616	-0.112816
C	 0.9491304171	 2.375709687	 0.1928270293	-0.084293
C	 1.8477985632	 2.5252025818	 1.4223625507	-0.383073
C	 2.6985590694	 3.7074602052	 1.3609291292	 0.307522
C	 3.3914442757	 4.6863169376	 1.2910375204	-0.43643
H	-1.9822126411	 2.2103983646	-0.8498772056	 0.128258
H	-1.9078874596	 3.9482564714	 1.0378248594	 0.142277
H	-0.8224222567	 2.8396318959	 1.9990755021	 0.127779
H	 1.5736144444	 2.3643447615	-0.7073822638	 0.132946
H	 1.2533776603	 2.5425433537	 2.3428134576	 0.13449
H	 2.465084328	 1.6196182564	 1.4824143007	 0.155804
H	 4.0056403802	 5.5506854492	 1.2349844001	 0.201174
