21
gdb 65375	3.16744	0.9228	0.8984	3.176	85.57	-0.2429	-0.0119	0.231	1423.9687	0.180825	-387.082379	-387.0728	-387.071856	-387.117294	35.475	
C	-0.120242761	 1.5707432486	-0.03155836	-0.46465
C	-0.0187043996	 0.0629624764	 0.0371146099	 0.223052
C	 1.309596131	-0.6437559453	-0.2326168021	-0.348687
C	 0.763142866	-0.6480459059	 1.155934621	-0.041259
C	 1.3967881898	 0.1170840994	 2.27308466	 0.012618
C	 0.7347879822	 0.165976858	 3.6291354315	-0.266528
C	 2.0008037703	-0.6301299451	 3.4396213292	-0.273793
C	-1.223292293	-0.6743843716	-0.413807858	 0.121858
O	-2.248044819	-0.1605890759	-0.7916860042	-0.27219
H	 0.8206095192	 2.053739736	 0.2410539018	 0.110691
H	-0.3841144767	 1.884254598	-1.0456790053	 0.132677
H	-0.9033614179	 1.9402374603	 0.6368434709	 0.134045
H	 1.2979066997	-1.5647435108	-0.8068823445	 0.119443
H	 2.1503425819	 0.0069876631	-0.4494302228	 0.123397
H	 0.3192857717	-1.5887160264	 1.4782273593	 0.08618
H	 1.9247378118	 1.0155293238	 1.9700217728	 0.085204
H	 0.7836372199	 1.0912096526	 4.1922371826	 0.115605
H	-0.1936405121	-0.3811566865	 3.7557599947	 0.11587
H	 1.9253426551	-1.712526144	 3.4397543018	 0.113894
H	 2.9209896054	-0.2506753988	 3.869666743	 0.114848
H	-1.1183732447	-1.7859213662	-0.3756332016	 0.057723
