16
gdb 24288	4.06823	1.54962	1.22539	1.9271	74.6	-0.192	0.0266	0.2185	979.776	0.127969	-400.747319	-400.740998	-400.740053	-400.77774	26.501	
C	 0.0141691548	 1.4978129497	 0.0919436876	-0.303923
C	 1.3178833687	 0.742225566	-0.0131336198	-0.001739
N	 2.059608587	 0.3791020373	 1.1894442826	-0.418216
C	 1.2003247923	-0.4051356621	 1.9768619614	 0.205207
C	 1.1514523448	-1.032545264	 3.1782271262	-0.135938
O	-0.0180008853	-1.7604123137	 3.2456012002	-0.165038
C	-0.6974563459	-1.5735802231	 2.0777660346	-0.166811
C	 0.0015007967	-0.7422640266	 1.2687950052	 0.264842
C	-0.0034970949	-0.0217443282	-0.0247922786	-0.209239
H	-0.2654305046	 1.9353071885	 1.0443438654	 0.119058
H	-0.2967255284	 2.0615554694	-0.7812637802	 0.114876
H	 1.9188697724	 0.8511881821	-0.9091860443	 0.09947
H	 2.5208670628	 1.1495848323	 1.6555120648	 0.237377
H	 1.7872782128	-1.0878422292	 4.0440490961	 0.126241
H	-1.6375695742	-2.0935090895	 1.9990762264	 0.133788
H	-0.3873528089	-0.4778089588	-0.9289659876	 0.100044
