16
gdb 68953	2.61889	1.63454	1.35015	4.6974	71.15	-0.2364	-0.0215	0.2149	979.0418	0.123872	-437.82726	-437.819569	-437.818625	-437.859375	29.685	
O	-0.1589584026	 1.2849773663	 0.1803211026	-0.432078
C	-0.0000248828	-0.061971335	 0.0688061433	 0.415063
C	-0.2753332765	-0.9553086796	 1.213384697	-0.376
C	-1.1511941399	-1.2028937487	-0.0069558541	 0.147803
C	-2.5860627038	-0.9147439465	-0.0136607237	 0.069015
O	-3.188045739	-0.3763180634	 0.8902883861	-0.280567
C	-0.3602419689	-1.8118569829	-1.1345086732	-0.142955
N	-0.2505520243	-0.7959417219	-2.2167536292	-0.343867
C	 0.6953609747	-0.7642863514	-1.0665826821	-0.153086
H	-0.3813566818	 1.6289980976	-0.6946204387	 0.304912
H	 0.4390278136	-1.7163339945	 1.5156985467	 0.117138
H	-0.8153129848	-0.4780128056	 2.0250196135	 0.159117
H	-3.1021324223	-1.2121163135	-0.953144644	 0.071553
H	-0.2155742298	-2.8643242292	-1.3477963368	 0.105132
H	 0.2428181061	-1.231981325	-2.9983583071	 0.230774
H	 1.763395642	-0.8560255468	-1.2255087302	 0.108044
