19
gdb 79985	2.13574	1.70187	1.55272	2.5048	75.78	-0.2353	0.0044	0.2397	1003.8787	0.158729	-422.994878	-422.986494	-422.98555	-423.027039	33.612	
C	 0.0113082388	 1.5348534057	 0.0710871405	-0.523374
C	 0.0467759978	 0.0259671381	 0.0798581922	 0.241625
C	 0.4652253649	-0.7517335582	-1.1697169572	-0.158344
C	 0.3760243138	-2.0403269073	-0.8038328138	-0.119285
C	-0.0904324401	-1.971375987	 0.6433475707	-0.18643
C	 0.8095522853	-0.8042591299	 1.1919269821	 0.143602
O	 2.1965945428	-0.8957521835	 1.1843306387	-0.444427
C	-1.1990877665	-0.8498259643	 0.4775064857	 0.121082
O	-1.8222138051	-0.3787371698	 1.6441234478	-0.439774
H	 1.025720667	 1.9451949806	 0.020545885	 0.123076
H	-0.551267605	 1.9223632941	-0.7858282382	 0.112124
H	-0.4619838215	 1.9116885695	 0.9822133301	 0.133566
H	 0.7271921488	-0.320521182	-2.1266989382	 0.101312
H	 0.5408714462	-2.9342870504	-1.3894311063	 0.103339
H	-0.2659603752	-2.894190403	 1.1961537141	 0.059152
H	 0.5150735715	-0.4982579209	 2.1959146877	 0.104445
H	 2.450247933	-1.1723831432	 0.2931898786	 0.272554
H	-1.9167840598	-1.0342988551	-0.3314261342	 0.067746
H	-2.5645834065	-0.9552991332	 1.8484850045	 0.288011
