21
gdb 80489	2.0832	1.43612	1.21483	0.8594	90.99	-0.226	0.0398	0.2657	1193.9921	0.181038	-349.901529	-349.892084	-349.89114	-349.935081	36.583	
C	 0.1142741827	 1.617343663	-0.37217093	-0.423575
C	 0.2531126669	 0.116914477	-0.2125611165	-0.04726
C	 1.4985187261	-0.6831690286	-0.4318678177	-0.12923
C	 2.7418572449	 0.0222227724	 0.1219857796	-0.268849
C	 2.1243198976	-0.0202939488	 1.5594798942	-0.021176
C	 2.0570966304	 1.2215712476	 2.4405302843	-0.42253
C	 0.8307937733	-0.6396403127	 0.9762496775	 0.147983
C	 0.0744896379	-1.6390432369	 1.6520008155	 0.201891
C	-0.5519287137	-2.4759321802	 2.2511857509	-0.423416
H	 1.0368148762	 2.1583878689	-0.1561497549	 0.123997
H	-0.1674353932	 1.8540550999	-1.4044823323	 0.117177
H	-0.6681982326	 2.0127323379	 0.2839963771	 0.123768
H	-0.6224427736	-0.4164958956	-0.5783791268	 0.096952
H	 1.5213639491	-1.5274766669	-1.1105634862	 0.096627
H	 3.6521633167	-0.5739990495	 0.0378167566	 0.105668
H	 2.9458143126	 1.0147566301	-0.292256254	 0.099302
H	 2.6310047314	-0.8125731003	 2.1188768313	 0.085311
H	 1.5813392948	 2.0690254574	 1.9418455564	 0.117661
H	 1.4879766715	 1.0103188233	 3.3523922529	 0.124536
H	 3.0633940971	 1.5330018751	 2.7427008651	 0.113334
H	-1.108557126	-3.213949593	 2.7729110971	 0.18183
