19
gdb 107186	2.92666	1.42194	1.16805	1.7589	74.48	-0.2349	0.0666	0.3015	1099.3151	0.160075	-419.115879	-419.107707	-419.106762	-419.148466	31.808	
C	-0.1757772861	 1.4691304819	-0.1165244824	-0.319188
N	 0.1335232482	 0.0501457886	 0.0049473482	-0.075691
C	 1.4783098427	-0.4643419797	-0.1477582754	-0.076621
C	 2.5536415284	 0.4073323516	 0.4882958572	-0.117484
N	 3.1640866243	-0.2651633297	 1.6443856904	-0.385498
C	 1.8372062888	 0.345195656	 1.8105336707	 0.300324
C	 1.7208543511	 1.3776298149	 2.9032199995	-0.158472
O	 2.9127363074	 2.1187892622	 3.0389285043	-0.42005
C	 0.7495542667	-0.5245478039	 1.1850989332	-0.159469
H	 0.5962532425	 2.1434414933	 0.2756132483	 0.123032
H	-0.3279592213	 1.6993884325	-1.1755613416	 0.125814
H	-1.1139241471	 1.6687256661	 0.4104278478	 0.125551
H	 1.6490241922	-1.2640796463	-0.861386125	 0.101861
H	 3.0948817666	 1.2343408942	 0.0460503301	 0.113386
H	 3.124677336	-1.2795470011	 1.5677891739	 0.232477
H	 0.9139226269	 2.0841563011	 2.6794634312	 0.111237
H	 1.4493057444	 0.8670867028	 3.844517241	 0.087854
H	 3.6268463228	 1.4770619729	 2.9154223856	 0.292419
H	 0.2649227156	-1.3737786775	 1.6566580729	 0.098517
