23
gdb 104336	2.94285	1.19435	1.06312	1.462	86.27	-0.2333	0.0348	0.268	1253.4043	0.206309	-388.308758	-388.299362	-388.298418	-388.342199	36.781	
C	-0.1378424954	 1.6094880246	 0.0248550946	-0.423991
C	-0.0268613695	 0.0728012846	 0.012009779	 0.269921
C	-1.4357108894	-0.5333123572	 0.0037072588	-0.110962
O	-2.1073718399	-0.1677607923	 1.2023260624	-0.427909
C	 0.7172063153	-0.4172780104	-1.24909291	-0.228622
C	 2.1599008467	 0.104070219	-1.3263466467	-0.27023
C	 2.8706131109	-0.0110023659	-0.004586987	-0.038425
C	 2.2363756828	-0.2472451789	 1.1431650784	-0.063954
C	 0.7436682361	-0.4162599901	 1.2617847819	-0.253577
H	 0.8385602478	 2.0789644295	 0.1692375596	 0.118594
H	-0.5576710059	 1.9794421826	-0.9179892507	 0.099335
H	-0.7951381538	 1.9312274382	 0.8362272519	 0.129908
H	-1.9837825212	-0.1689412953	-0.8808908391	 0.079839
H	-1.359470921	-1.6297995387	-0.08208789	 0.078206
H	-2.9946521916	-0.5359094034	 1.1753295408	 0.287243
H	 0.740442778	-1.5150156372	-1.2371062158	 0.092321
H	 0.1642349995	-0.1242854585	-2.1500979884	 0.085939
H	 2.7110679282	-0.4507559244	-2.0963680994	 0.098937
H	 2.172416125	 1.1511290785	-1.6628079933	 0.108128
H	 3.9510171989	 0.1142092303	-0.0108442899	 0.078835
H	 2.8083901923	-0.331383502	 2.064819514	 0.07948
H	 0.3756089485	 0.111062707	 2.1487185973	 0.113566
H	 0.5137910378	-1.47677096	 1.4464743217	 0.097416
