17
gdb 79106	2.57286	2.0552	1.55351	3.6429	71.61	-0.2081	0.0175	0.2256	896.0626	0.137822	-417.988503	-417.981338	-417.980393	-418.019848	28.559	
C	-0.0098587105	 1.5500777211	-0.0519555202	-0.327685
N	 0.1315188915	 0.0992290615	-0.0407404455	-0.071965
C	 0.6675156867	-0.5917747586	-1.1962782418	-0.047472
C	 2.21751306	-0.6406727211	-1.174737782	-0.024345
N	 2.9257262373	 0.2570552527	-0.3084113866	-0.309959
C	 2.3522614813	 0.3114694206	 0.9482874352	 0.404454
O	 2.6687675191	 1.0493905117	 1.8547410494	-0.385497
C	 1.1233266567	-0.6048960688	 0.8519425998	-0.139093
C	 1.4140553944	-1.57215452	-0.3204878911	-0.122515
H	 0.9001638062	 2.1041343839	-0.3281663461	 0.10529
H	-0.7966366806	 1.8083459976	-0.7684318632	 0.120508
H	-0.3279718784	 1.8867648513	 0.9385732849	 0.138298
H	 0.0851980931	-0.7340943519	-2.1010207131	 0.100176
H	 2.7469326052	-1.0171576387	-2.0416384077	 0.109249
H	 3.4671783515	 1.0396512319	-0.6424523428	 0.250505
H	 0.7230601535	-0.9468521627	 1.8045942176	 0.093057
H	 1.4538446131	-2.6515900703	-0.306517737	 0.106994
