21
gdb 58771	3.04142	1.25938	1.21162	2.9103	77.6	-0.2323	0.0642	0.2965	1146.9529	0.182826	-424.202887	-424.194319	-424.193375	-424.235975	33.76	
C	 0.0796874584	 1.5016187859	-0.1401930664	-0.416564
C	 0.0054564309	-0.0171841569	 0.0399891676	-0.002919
O	 0.5631924418	-0.422386801	 1.2904464421	-0.442306
C	-1.4072676175	-0.557465662	 0.0154938659	 0.342185
C	-2.3445489898	-0.4509565408	-1.2336715111	-0.292017
C	-3.0993000394	-1.554875622	-0.4528617901	 0.098209
C	-1.7163375495	-2.0926052996	-0.0188205325	-0.275548
O	-3.5724271096	-0.8708539964	 0.7178845835	-0.283231
C	-2.3952797234	-0.1310115953	 1.118011539	-0.111848
H	 1.1237267948	 1.8352631252	-0.1452526813	 0.105632
H	-0.3690160037	 1.8080465919	-1.0903360606	 0.124035
H	-0.4365550906	 2.0179515814	 0.6740956351	 0.129052
H	 0.5605766889	-0.4924719728	-0.7867705387	 0.061835
H	 1.4617016829	-0.0813453621	 1.3404783466	 0.282552
H	-2.8752756535	 0.488345286	-1.4090294867	 0.097733
H	-1.869732625	-0.8108718642	-2.1489131078	 0.097254
H	-3.8976595268	-2.1654184128	-0.8712254497	 0.076901
H	-1.1749348167	-2.6082360642	-0.8147120437	 0.094256
H	-1.6659258703	-2.6505258409	 0.9181182691	 0.106689
H	-2.0712998735	-0.4348420871	 2.117690259	 0.114567
H	-2.6162885883	 0.9426552977	 1.1205984106	 0.093533
