10
gdb 21624	4.19579	2.08428	1.39253	5.944	53.05	-0.2741	-0.1053	0.1688	778.1407	0.060324	-446.766165	-446.759674	-446.75873	-446.797049	23.355	
N	 0.0028207465	 1.3192828914	 0.0081774083	-0.528336
C	-0.0522669076	-0.0169633631	 0.0010049774	 0.501941
N	-1.183394685	-0.6529904883	 0.0038428789	-0.378897
C	-1.1316190326	-2.0167646544	-0.004043086	 0.467047
O	-2.0448009253	-2.7806442366	-0.0033557564	-0.31864
O	 0.1774366792	-2.6064322805	-0.0146412442	-0.236676
N	 1.3256857962	-1.8430348548	-0.016903271	 0.091945
N	 1.2357731626	-0.6043505031	-0.0095371023	-0.18404
H	 0.8958564252	 1.7810721249	 0.0057294072	 0.292997
H	-0.8525255891	 1.8491215144	 0.015979368	 0.292657
