17
gdb 70291	4.09105	1.0611	0.93635	3.7653	78.13	-0.2446	-0.0568	0.1879	1235.9631	0.135341	-421.834126	-421.82606	-421.825116	-421.866645	30.986	
O	-0.0335984834	 1.4361844429	 0.0155194421	-0.46371
C	 0.0004329904	 0.0452585686	 0.0539199098	 0.381238
C	-0.3749456884	-0.7698659531	-1.1695799544	-0.337831
C	-1.2743904834	-0.7898987257	 0.0440118276	-0.098291
C	-1.0935824455	-1.9277463074	 1.044563079	-0.330697
C	 0.3302902077	-1.7444019477	 1.5370439926	 0.226716
C	 0.9845379905	-2.6592519732	 2.469682997	 0.076227
O	 0.4746774607	-3.6697548042	 2.9049335475	-0.276188
C	 0.9002101199	-0.6420183483	 1.018446628	-0.242228
H	 0.5859122721	 1.7378584412	-0.6573795576	 0.288052
H	-0.7394828564	-0.1973854856	-2.0168348024	 0.11877
H	 0.2141722676	-1.6464172955	-1.4206920181	 0.118834
H	-2.2317541479	-0.2910262342	-0.0397931252	 0.104949
H	-1.8021931093	-1.8660331828	 1.8783509436	 0.127162
H	-1.2377338749	-2.9146232155	 0.590947402	 0.130313
H	 2.0115742707	-2.3553376575	 2.7737010986	 0.065385
H	 1.8971309797	-0.2817525918	 1.2514044098	 0.111298
