19
gdb 73207	2.49632	1.76518	1.42942	0.9533	74.44	-0.2287	0.0172	0.2459	994.061	0.161213	-419.196627	-419.188656	-419.187712	-419.229472	30.696	
C	-0.2633393126	 1.5781496454	 0.1140915471	-0.42821
C	 0.0421188131	 0.0891234284	-0.0002570722	 0.273899
C	-1.2095890786	-0.7183720288	-0.3668973769	-0.22043
N	-1.212226504	-2.1271652952	 0.0151445519	-0.264088
C	-0.564707208	-2.4507699039	 1.0500858042	 0.117131
O	 0.2350552248	-1.6769375269	 1.8282442893	-0.233929
C	 0.8123956379	-0.5299349635	 1.2056850118	 0.063985
C	 1.959970184	-0.8522344082	 0.220537151	-0.189143
N	 1.2327216843	-0.1656114653	-0.8759717642	-0.357334
H	 0.6510031648	 2.1405736265	 0.3236700575	 0.120236
H	-0.6774484635	 1.9585650659	-0.8262538963	 0.121136
H	-0.988680075	 1.7722576709	 0.9120781285	 0.113734
H	-2.0856507907	-0.2536029089	 0.1058277857	 0.117627
H	-1.3793341656	-0.6473254797	-1.4487972319	 0.10997
H	-0.6165262107	-3.4625889132	 1.4487780522	 0.122786
H	 1.0506199567	 0.1578047617	 2.0179177285	 0.093794
H	 2.9277997421	-0.3951148745	 0.45257762	 0.108861
H	 2.1033812269	-1.9303372633	 0.0914781359	 0.110021
H	 1.0254845442	-0.7747056275	-1.660625312	 0.219953
