15
gdb 16733	3.7571	1.76299	1.76165	5.4901	63.91	-0.2755	0.0374	0.313	810.3639	0.120712	-362.672177	-362.665587	-362.664643	-362.703041	24.986	
N	 0.6818727081	-0.889130684	 1.0034646992	-0.333363
C	 0.3774055985	 0.1373131593	 0.5680285429	 0.289342
C	-0.0348932497	 1.4092760163	-0.0242674761	-0.159631
C	-0.8830609847	 2.2683791479	 0.9684609693	-0.259517
C	 0.1187645257	 3.2259972123	 1.5778026852	 0.060678
O	 1.312800867	 2.5810305811	 2.0362847465	-0.243507
C	 1.3415468085	 3.244908908	 0.7672890517	 0.060679
C	 1.1909854135	 2.3004626741	-0.4063138005	-0.259518
H	-0.62113868	 1.1648827417	-0.9144135649	 0.130199
H	-1.6436764352	 2.8344622706	 0.4195681125	 0.114906
H	-1.3933749191	 1.6510441842	 1.7114155136	 0.139212
H	-0.21585461	 4.0748632436	 2.1681910567	 0.103202
H	 1.9972367221	 4.109092226	 0.7012595012	 0.103201
H	 2.087064877	 1.7048808981	-0.5955954958	 0.139212
H	 0.9694397783	 2.8748959906	-1.3125222116	 0.114906
