13
gdb 2508	3.33382	2.32693	1.43506	1.2257	61.73	-0.2688	0.007	0.2758	820.8154	0.097903	-307.221351	-307.21338	-307.212436	-307.253368	27.979	
C	-0.1595393983	 1.3683290861	-0.092864927	-0.234637
O	 0.1779240583	 0.005322609	 0.0850964782	-0.227537
C	 0.7038241288	-0.5993252476	-1.0869614946	-0.218955
C	 1.2519381637	-1.9082769764	-0.723318685	 0.312883
C	 1.7248410838	-2.9751269008	-0.4446508653	-0.405313
C	-0.3008824338	-0.722427927	-2.1586981047	 0.346598
C	-1.124064852	-0.7937163485	-3.0304052054	-0.46918
H	 0.7160373026	 1.9629384612	-0.3965139756	 0.107165
H	-0.9505678319	 1.4992399697	-0.8428097824	 0.12364
H	-0.5164378888	 1.7282053581	 0.8739432473	 0.134913
H	 1.5310562704	 0.0234311593	-1.474364809	 0.122342
H	 2.1348420597	-3.9220538668	-0.1928455463	 0.202583
H	-1.8509599025	-0.8710739462	-3.8012409601	 0.205498
