18
gdb 87607	2.7167	1.55203	1.16703	2.9126	80.69	-0.2159	-0.004	0.2119	1092.6721	0.148925	-398.150399	-398.142108	-398.141164	-398.183079	31.715	
C	-0.0651939842	 1.5126688882	 0.0038525196	-0.406981
C	 0.0335827176	 0.0057133679	 0.0198177418	-0.03583
C	 1.3362147615	-0.6909869317	-0.2002166105	-0.323433
C	 0.7107203703	-0.708568414	 1.185485503	 0.289312
N	 1.3119468896	 0.0363228316	 2.2623305746	-0.303357
C	 1.1191946296	-0.6728565546	 3.309442015	 0.037187
N	 0.4367044371	-1.864921018	 3.1008405092	-0.361123
C	 0.1307724891	-1.9713958618	 1.7407095659	 0.328328
N	-0.4794119748	-2.8789407814	 1.0891838807	-0.56705
H	 0.8247455094	 1.9678705841	 0.4441536877	 0.138447
H	-0.1702565385	 1.877515912	-1.0237476614	 0.116044
H	-0.9340721575	 1.8584889665	 0.5734401051	 0.118194
H	-0.8407207352	-0.5352653901	-0.3335285248	 0.113723
H	 1.3393139566	-1.6407685268	-0.723639279	 0.136301
H	 2.2295655656	-0.083956038	-0.2989227234	 0.124186
H	 1.4470248676	-0.4028899457	 4.3070869134	 0.133588
H	 0.1996601759	-2.5418258504	 3.8059584539	 0.256744
H	-0.7863715898	-3.646684348	 1.6860738693	 0.205719
