17
gdb 10687	2.82161	1.8889	1.34065	5.5392	68.65	-0.2641	0.0261	0.2902	946.9437	0.142793	-360.024718	-360.016241	-360.015296	-360.05738	31.284	
C	-0.1706307552	 1.6033315029	 0.3378520004	-0.403415
C	-0.0305525461	 0.1112659543	 0.0207699789	-0.062489
N	 0.7517580377	-0.5468835945	 1.0706567491	-0.529117
C	-1.4216781334	-0.5519336886	-0.0617743299	 0.184634
C	-1.6225736793	-1.9776775723	 0.3324799288	-0.270894
N	-2.1262825016	-0.8991693599	 1.1872914999	-0.328501
C	-2.2606467816	-0.0157308796	-1.114272128	 0.278862
N	-2.8853182459	 0.417518779	-1.9855998742	-0.348419
H	 0.8082984297	 2.0927528829	 0.3141550421	 0.117012
H	-0.815538683	 2.0994613579	-0.3908486241	 0.155681
H	-0.6053224263	 1.7455465586	 1.3327741411	 0.132374
H	 0.4332997324	 0.0109136348	-0.9717759176	 0.088591
H	 1.290652322	-1.3212058389	 0.7000446198	 0.240968
H	 1.4121849985	 0.1050032853	 1.4773560224	 0.239943
H	-2.3842428333	-2.5633555316	-0.1721468859	 0.138217
H	-0.7471814685	-2.5275280589	 0.6632380461	 0.118831
H	-1.4430783562	-0.7597613616	 1.9345202911	 0.247724
