15
gdb 49693	2.42815	1.35503	1.00352	2.959	75.05	-0.2394	-0.0361	0.2034	1162.5361	0.110181	-420.549045	-420.540832	-420.539888	-420.582151	30.328	
O	-0.046144541	 0.0249694618	-0.3062455433	-0.262993
C	-0.0258642226	 1.1893221919	 0.0129340834	 0.152658
C	 1.2208347081	 1.9974716822	 0.0525894876	-0.187869
C	 1.2394909639	 3.4894705124	-0.1372985972	 0.034248
O	 0.0450379182	 4.0962182675	 0.3376520434	-0.278548
C	 0.3650935761	 3.7074641055	 1.7009761883	-0.143696
C	 1.6045202885	 2.9382288185	 1.2281655079	 0.08058
C	 2.83556382	 2.8165080182	 1.921085996	 0.178241
C	 3.8690273435	 2.7146330493	 2.5290604795	-0.386609
H	-0.9551679482	 1.7304334573	 0.2797726677	 0.096648
H	 2.0925402614	 1.482160175	-0.3386189813	 0.128269
H	 1.8191725311	 4.0052349388	-0.8938885201	 0.133853
H	 0.6336398608	 4.586090744	 2.2946303203	 0.133924
H	-0.4411890208	 3.1517339952	 2.1880983643	 0.124496
H	 4.7834393509	 2.6238981023	 3.0615383136	 0.1968
