25
gdb 118465	1.71175	1.06338	0.78309	1.5963	86.62	-0.2457	0.0676	0.3133	1642.6989	0.225758	-426.620403	-426.608452	-426.607508	-426.658102	42.346	
C	 0.9261552072	-0.0151072972	-1.232517909	-0.393504
C	-0.0430458171	-0.1331464004	-0.0523462306	-0.18346
C	 0.5881760366	-0.696393622	 1.2373830513	 0.023839
C	-0.2723583207	-0.3360459588	 2.4532568767	-0.071061
O	-0.2260646851	 1.0688488075	 2.6234636488	-0.235655
C	-1.04696292	 1.5185953801	 3.6715892495	-0.225607
C	 0.8347580185	-2.2129308442	 1.1427758042	 0.113451
C	 1.7672568344	-2.7696389437	 2.2218074532	-0.413693
O	-0.4473593546	-2.8436411449	 1.1912508934	-0.43625
H	 1.3444406448	-0.9835636567	-1.5275171707	 0.111055
H	 0.4221977788	 0.3998882907	-2.1112545117	 0.110473
H	 1.7653581301	 0.6465302996	-0.9891062497	 0.113239
H	-0.4452808747	 0.8578001384	 0.1783034976	 0.108252
H	-0.8937391404	-0.7685598758	-0.3256500537	 0.105506
H	 1.5641902739	-0.2149265136	 1.3856544815	 0.073405
H	-1.3085303059	-0.6724278656	 2.2984480166	 0.102169
H	 0.0957966637	-0.8317959751	 3.3654454758	 0.078962
H	-2.1054557443	 1.2629442236	 3.5031184641	 0.102321
H	-0.7454983055	 1.0911642549	 4.6418921289	 0.099418
H	-0.9505352356	 2.6063069999	 3.7222765302	 0.122677
H	 1.3029724842	-2.4120906248	 0.1657591268	 0.065488
H	 1.3533364935	-2.6335980903	 3.2246199797	 0.126924
H	 1.9274478882	-3.8437651569	 2.0698707359	 0.102237
H	 2.7469613015	-2.2825041254	 2.1800665971	 0.118443
H	-0.3174743516	-3.7917812894	 1.093688964	 0.281369
