18
gdb 8670	2.40382	1.72337	1.42332	1.6239	69.35	-0.2566	0.0394	0.296	983.8665	0.151235	-384.899453	-384.889924	-384.88898	-384.933488	34.942	
C	 0.0102423013	 1.59256813	-0.0137257942	-0.429049
C	 0.0031628283	 0.0516489354	-0.0131602584	 0.024107
C	 0.7073164443	-0.4551446629	 1.2712338979	-0.092171
O	 0.5464679453	-1.8479883623	 1.4748961415	-0.432564
C	-1.4627971921	-0.4827319126	-0.0404273655	-0.074223
O	-2.1408308818	-0.2534652336	 1.1786191424	-0.427375
C	 0.7058229065	-0.4873640979	-1.178286128	 0.318512
C	 1.2769798866	-0.9826741588	-2.1149573758	-0.49114
H	 1.0196378543	 1.9861806856	 0.1389654059	 0.120334
H	-0.3634083433	 1.9807906686	-0.964842891	 0.125835
H	-0.6369678069	 1.9559305201	 0.7894624961	 0.136663
H	 1.7674241974	-0.1677497766	 1.2403998851	 0.101649
H	 0.2483703021	 0.0324711324	 2.1354068781	 0.116735
H	 0.9368796741	-2.295333074	 0.714423797	 0.289997
H	-2.0186671105	 0.0456697218	-0.8212535735	 0.114597
H	-1.4526774811	-1.5478195107	-0.2965529264	 0.100534
H	-1.8456195849	-0.9367273904	 1.7907028481	 0.297933
H	 1.7792281002	-1.394506274	-2.955443569	 0.199623
