18
gdb 115786	2.8549	0.97941	0.78327	3.7205	71.	-0.2552	0.0125	0.2677	1434.9202	0.146542	-476.184418	-476.175102	-476.174157	-476.22042	32.467	
O	 0.0127354432	 1.2707381534	-0.1597039473	-0.422713
C	 0.0797777874	-0.1407627162	-0.1039675708	-0.064024
C	-1.2910699963	-0.6980939825	 0.2511054395	 0.071032
O	-2.2731658184	-0.2707289892	-0.7344136849	-0.301911
C	-2.43515406	-1.6181540146	-1.2313090509	-0.10451
C	-1.5778096201	-2.1816443993	-0.0866485348	 0.055444
O	-0.4779075143	-2.9613336517	-0.5070738171	-0.18519
C	-0.1191963088	-4.0246904507	 0.2469066479	 0.121659
N	 0.9059005103	-4.690385617	-0.05649251	-0.435437
H	-0.7138421891	 1.4762533119	-0.7613527337	 0.292415
H	 0.4260756784	-0.5736394198	-1.0530567763	 0.104999
H	 0.811091504	-0.4034021853	 0.667511286	 0.114809
H	-1.5871563832	-0.3671490861	 1.2532859147	 0.088859
H	-3.4866495847	-1.9211071655	-1.2620440466	 0.115119
H	-1.9783024163	-1.7637288859	-2.2170652939	 0.125154
H	-2.1479664802	-2.707072909	 0.6855841451	 0.09858
H	-0.8032287428	-4.2122940704	 1.0864931695	 0.091202
H	 1.0272840107	-5.4628314421	 0.5948226934	 0.234512
