21
gdb 93236	2.70608	1.31484	0.93916	3.6171	79.52	-0.2123	0.0303	0.2427	1285.7172	0.18419	-420.452517	-420.443282	-420.442338	-420.486432	35.028	
C	 0.007714513	 1.5609149203	 0.0206819257	-0.405984
C	 0.0301508208	 0.0349645375	 0.0008338341	 0.04846
C	 0.72352338	-0.5031190401	-1.2582528781	-0.153288
N	 0.9083948999	-1.9428411909	-1.1571291649	-0.329022
C	 0.9541835312	-2.6874914495	-0.0130210381	 0.402682
O	 1.1977877003	-3.8819332585	-0.0352666816	-0.38728
C	 0.6208934569	-1.9469749981	 1.2957496488	-0.071384
C	 1.5109186185	-2.447793839	 2.4315996024	-0.405117
N	 0.6545744339	-0.4837201721	 1.2164142815	-0.301166
H	 1.0261180074	 1.9669885563	 0.0432053099	 0.113957
H	-0.4915070889	 1.961737449	-0.8669933993	 0.117364
H	-0.5172514102	 1.917705794	 0.9096915944	 0.132279
H	-1.0041596866	-0.3368407071	-0.0005743962	 0.089737
H	 0.1255270948	-0.2808157304	-2.1507744174	 0.109199
H	 1.6920353206	 0.0083504665	-1.3837491218	 0.096494
H	 1.1546699872	-2.460568381	-1.9889813056	 0.243931
H	-0.4174323584	-2.2342881395	 1.5224554925	 0.110656
H	 2.5558091599	-2.1608779946	 2.2635585138	 0.110429
H	 1.1845699513	-2.0191628476	 3.3822967735	 0.119645
H	 1.4689022365	-3.5360858933	 2.4811663466	 0.149329
H	 1.6208884118	-0.1665146919	 1.2602550998	 0.209078
