20
gdb 116263	2.06407	1.39307	0.98596	2.9142	78.25	-0.2732	0.0306	0.3038	1255.907	0.172142	-403.176362	-403.167001	-403.166057	-403.212077	33.657	
O	-0.2375149319	 1.5526820073	 0.0654010058	-0.42474
C	-0.0025754766	 0.1539052978	 0.1452576775	-0.114503
C	-1.3437883952	-0.538741004	-0.0444296036	 0.035999
C	-2.0009216316	-0.3252562989	-1.4171094641	-0.205595
C	-3.1080296889	-1.4014692929	-1.496757147	-0.210406
C	-2.7034820645	-2.5138499083	-0.485796775	-0.223336
C	-1.3224327787	-2.0851356532	 0.0948783374	-0.180499
C	-0.216876614	-2.6885578286	-0.6554100355	 0.281003
N	 0.651567898	-3.1674684366	-1.2506014381	-0.34306
H	 0.6118244596	 2.0023190993	 0.0951226826	 0.290653
H	 0.7003679962	-0.1806581163	-0.632044465	 0.110675
H	 0.4289097774	-0.1218702204	 1.1215325007	 0.087606
H	-2.0226471629	-0.1686170608	 0.7349140674	 0.090829
H	-2.3760657397	 0.691968303	-1.5379845052	 0.116984
H	-1.2516661709	-0.4906399569	-2.2006755815	 0.114278
H	-4.0794052351	-0.9813810597	-1.2207634281	 0.10714
H	-3.2129930709	-1.7951430539	-2.510472732	 0.111904
H	-3.4199623267	-2.5692863459	 0.3381391153	 0.111444
H	-2.6567522298	-3.5060530836	-0.9381404259	 0.124318
H	-1.2126792439	-2.3958248474	 1.1386567743	 0.119305
