15
gdb 124402	3.21466	1.22852	0.99249	0.8261	71.32	-0.2708	-0.0283	0.2425	1173.2615	0.111824	-416.774104	-416.765845	-416.764901	-416.807839	29.761	
C	 0.0046289976	 1.6309727243	 0.1508171766	-0.38935
C	-0.0543727246	 0.0980422662	 0.0053270121	-0.254057
C	 0.6972755126	-0.5750345858	 1.0674044706	 0.340497
C	 1.3200127382	-1.1001014949	 1.9499579442	-0.474629
C	-1.4685837289	-0.4268641142	-0.0370619426	 0.37964
N	-2.5096992666	 0.3082656066	 0.2475097019	-0.170421
O	-3.5882424629	-0.5699172095	 0.076385295	-0.155578
C	-3.0563219932	-1.7343609188	-0.2971602351	 0.106019
N	-1.7671153184	-1.7286633188	-0.3919779517	-0.29743
H	 1.0460581806	 1.9591094068	 0.1417164665	 0.127573
H	-0.5297114349	 2.1120140624	-0.6717811507	 0.130884
H	-0.4535038761	 1.9475606265	 1.089716923	 0.148432
H	 0.3993886793	-0.1846101687	-0.9545103981	 0.13658
H	 1.8694436389	-1.57572947	 2.7243293959	 0.202564
H	-3.7393295615	-2.5503876321	-0.4829454979	 0.169275
