22
gdb 119523	4.16238	0.92876	0.84588	1.5011	86.97	-0.224	0.0094	0.2334	1462.6339	0.195245	-367.207594	-367.198706	-367.197762	-367.241467	34.243	
C	 0.1961537474	 1.5878466034	-0.0893970792	-0.382652
C	 0.2106654205	 0.0575230523	-0.0648075941	-0.160872
C	 0.4626751614	-0.5162468701	 1.3369452433	-0.258732
C	 0.5306399934	-2.0257402691	 1.3560641846	 0.340643
C	-0.7369258734	-2.8462635763	 1.0739430869	-0.331364
C	-0.5307739439	-4.1232076276	 1.8615846736	-0.092556
C	 0.5964722011	-4.0856090602	 2.5782891453	-0.075787
C	 1.3505419586	-2.8230043556	 2.3253231912	-0.127204
N	 1.8128663983	-2.6078654919	 0.9296364511	-0.368319
H	 1.1522328558	 1.9967991653	 0.2559046579	 0.115747
H	 0.0163380619	 1.9699823231	-1.099217097	 0.109666
H	-0.5880998054	 1.9890810826	 0.562710977	 0.110819
H	-0.7437853467	-0.3226376263	-0.4519737154	 0.091722
H	 0.9898567864	-0.3186828382	-0.7385586799	 0.11003
H	 1.4096241248	-0.1206639772	 1.7218654397	 0.101396
H	-0.3267091669	-0.1798837587	 2.0233939023	 0.088397
H	-1.6335672116	-2.3089447687	 1.4128418576	 0.111342
H	-0.8824849068	-3.0345877164	 0.0020675471	 0.112487
H	-1.2192068923	-4.95918513	 1.8096918202	 0.097566
H	 0.9584565603	-4.8684476729	 3.2346641786	 0.099351
H	 1.979479396	-2.3788643648	 3.0906478622	 0.088279
H	 1.665637571	-3.4635298127	 0.3966022169	 0.22004
