20
gdb 69847	2.23474	2.09315	1.51207	1.0091	77.53	-0.217	0.0622	0.2791	967.7148	0.171958	-403.080275	-403.072519	-403.071575	-403.111739	32.303	
C	 0.0020116354	 1.4663070099	-0.0613882226	-0.477801
C	-0.0122098197	-0.0398203636	-0.0316691929	 0.324405
C	-0.8856412661	-0.8218500004	 0.9256184589	-0.371237
C	 0.6138876322	-0.9424331673	 1.0104507785	-0.040083
N	 1.3648228408	-1.9689563489	 0.2150337027	-0.144471
C	 0.3952569322	-2.2883729614	-0.9060675599	-0.250799
C	 0.5295083188	-0.7928166439	-1.2723235832	 0.317699
O	 0.1400442889	-0.2214466368	-2.479060697	-0.483724
C	 2.0128259182	-1.0223736294	-0.7887700201	-0.230251
H	 0.9675895491	 1.8526173888	-0.4068887676	 0.115147
H	-0.7653335251	 1.8532087087	-0.7404050983	 0.129888
H	-0.188688829	 1.8802331635	 0.9337599458	 0.110348
H	-1.3223329001	-0.2267100586	 1.7231617417	 0.109619
H	-1.527835386	-1.6352065048	 0.6118948932	 0.115508
H	 1.1430621241	-0.5891904122	 1.88801725	 0.093189
H	 0.8916633004	-2.9480375608	-1.6228080501	 0.096488
H	-0.560234252	-2.7256861723	-0.6212630774	 0.106926
H	 0.5493984846	-0.7128736122	-3.1984578108	 0.282673
H	 2.5601340581	-0.1878222194	-0.3442705427	 0.10405
H	 2.6461562352	-1.5744168887	-1.4902997183	 0.092424
