20
gdb 109330	1.90793	1.60969	0.94448	3.648	85.03	-0.2067	0.0036	0.2103	1280.0391	0.171605	-403.197039	-403.187806	-403.186861	-403.231688	33.352	
C	-0.1763203952	 1.565405193	-0.0105219892	-0.375624
C	 0.0698630333	 0.0456289844	 0.0351224949	-0.299273
C	 0.7661265019	-0.49391316	-1.1786748735	 0.392294
C	 2.0360404063	-0.8995357378	-1.2822584788	-0.224245
C	 2.3641092321	-1.3470919101	-2.6857635683	-0.283331
C	 1.041998083	-1.0915904953	-3.4558478807	-0.165967
N	 0.106169616	-0.6055860096	-2.4242851093	-0.115395
C	-1.2043880819	-0.3954783928	-2.7173001719	 0.128683
O	-1.6831770935	-0.5569193953	-3.823727107	-0.344459
H	 0.7702787773	 2.1037703098	-0.1129139808	 0.126587
H	-0.8147343297	 1.8516526324	-0.8508083127	 0.129536
H	-0.6630672077	 1.9001788376	 0.9100930224	 0.121162
H	 0.6946702006	-0.1919111764	 0.9012477245	 0.116776
H	-0.8811447704	-0.4791997477	 0.1896768602	 0.116399
H	 2.7398788601	-0.9124971356	-0.4618399798	 0.098209
H	 3.1977922424	-0.7820857907	-3.1179843286	 0.116157
H	 2.6561058908	-2.403733457	-2.721469461	 0.116674
H	 1.1451599774	-0.3359752771	-4.2397231377	 0.130161
H	 0.6294704772	-1.9878859612	-3.9246941385	 0.135035
H	-1.7979872799	-0.0633581606	-1.8478208343	 0.08062
