13
gdb 130283	7.34684	0.88916	0.79396	1.761	64.99	-0.2446	-0.0258	0.2188	1337.2223	0.089723	-486.059766	-486.051794	-486.05085	-486.09356	28.059	
N	 0.0353083189	 1.3178460071	 0.1522833028	-0.582325
C	-0.0134919582	-0.0409797806	 0.0358205249	 0.441295
N	-1.1401647864	-0.7166251647	-0.0521815305	-0.225487
O	-0.67039371	-2.0712714089	-0.0799561015	-0.228844
C	 0.6547261047	-1.9890744318	-0.0129056334	 0.560162
O	 1.391176407	-3.0958812828	-0.032596996	-0.214789
C	 0.7744063437	-4.3324336559	-0.0075201419	 0.108975
N	 1.5120831955	-5.3412602055	-0.0982567666	-0.406105
N	 1.1420115194	-0.792949247	 0.0584967079	-0.404772
H	 0.9038093456	 1.7343403537	-0.1443460269	 0.273781
H	-0.795284963	 1.8121065388	-0.1347003351	 0.271059
H	-0.308587851	-4.2765710602	 0.0985049454	 0.157461
H	 0.9520736438	-6.1908231021	-0.0571348191	 0.249591
