14
gdb 123541	3.35265	2.34217	1.5685	4.6856	71.12	-0.2335	-0.0594	0.174	792.4615	0.103469	-395.627427	-395.621649	-395.620705	-395.657264	23.732	
C	-0.098888414	 1.5147309885	-0.1333519937	-0.156918
C	 1.4657162127	 1.7604855568	 0.028077787	-0.151412
C	 2.0700178838	 2.2524824419	 1.3249155612	-0.097279
C	 2.1015764972	 1.26535301	 2.2599909084	-0.142066
C	 1.4602707924	 0.0852003953	 1.6774220742	 0.147257
C	 1.3317302904	 0.3009438441	 0.335431501	 0.113255
N	 0.0348453251	-0.0445232004	-0.0384073491	-0.101396
N	-0.5045810796	-0.7017636354	 1.120488447	-0.116569
N	 0.3485833758	-0.6614145312	 2.0761062181	-0.167283
H	-0.6793088256	 1.8743156162	 0.7117866959	 0.167493
H	-0.5138540363	 1.8008559124	-1.0970376248	 0.15514
H	 1.9368844992	 2.1263446025	-0.8823746588	 0.112956
H	 2.5265952027	 3.2301227461	 1.430122921	 0.112142
H	 2.4827947162	 1.3587438433	 3.2682615026	 0.12468
