19
gdb 63421	3.19196	1.1901	1.09731	1.5675	83.2	-0.2452	0.0081	0.2533	1201.8206	0.156419	-385.864895	-385.855619	-385.854675	-385.898819	35.368	
C	 0.177648356	 1.5488175913	-0.0915395893	-0.411021
C	-0.1202126813	 0.0556810855	 0.0898568244	 0.327453
C	-1.6312146381	-0.2004156997	 0.1964540429	-0.40485
O	 0.3962792183	-0.6409416382	-1.0674375542	-0.295244
C	 1.2667484415	-1.7047654958	-0.6790035211	-0.12104
C	 1.4248839468	-1.5411191785	 0.8185904859	-0.098565
C	 0.6430633064	-0.5583464331	 1.240129822	-0.113366
C	 0.724696836	-3.0196186074	-1.0474691486	 0.343254
C	 0.2962312706	-4.1032257913	-1.3421271095	-0.476773
H	 1.2545688762	 1.7168318692	-0.1728822309	 0.119415
H	-0.301227729	 1.9169623579	-1.0036711438	 0.125243
H	-0.2043629324	 2.128782378	 0.7549646732	 0.110664
H	-2.1385111871	 0.1783333013	-0.6957957745	 0.123323
H	-1.8292376387	-1.2717537448	 0.2805184477	 0.127902
H	-2.0529304821	 0.3036945641	 1.0725500257	 0.108586
H	 2.2263932106	-1.5717630047	-1.2026265444	 0.110974
H	 2.0712752066	-2.1782966921	 1.4070488187	 0.118168
H	 0.5271680043	-0.2172486904	 2.2615632858	 0.107124
H	-0.0875893549	-5.0571854413	-1.6077425898	 0.198754
