20
gdb 113668	3.5833	0.82468	0.75368	3.986	78.03	-0.2587	-0.0314	0.2272	1579.5659	0.16924	-440.274795	-440.264889	-440.263945	-440.31044	35.597	
C	-0.2528647977	 1.7489101359	-0.6392221637	-0.379914
C	 0.0338856883	 0.4476293983	 0.1195837705	-0.195227
C	-1.2270482891	-0.3588647328	 0.3269570177	 0.009865
N	-1.6829764349	-1.1860638633	-0.7815187558	-0.309028
C	-1.2575072292	-1.8622108117	 0.4602316602	-0.167087
C	-0.0238991244	-2.6988310843	 0.4122125329	 0.386073
O	 0.8803360087	-2.5484384468	-0.3839536914	-0.332732
C	 0.0921339009	-3.7974662202	 1.462601547	-0.133935
O	 1.3100064994	-4.4667439112	 1.3617772545	-0.421292
H	 0.6647358014	 2.3262899165	-0.7840467818	 0.117574
H	-0.6762555275	 1.533689797	-1.6250983779	 0.131746
H	-0.9635520496	 2.3835789437	-0.0973992142	 0.107994
H	 0.754196249	-0.1599889115	-0.4321244603	 0.143845
H	 0.4748182224	 0.6731793757	 1.0989292073	 0.095997
H	-1.9944490509	 0.1453202203	 0.9169832914	 0.090719
H	-2.6977055287	-1.2012656543	-0.8414200317	 0.240094
H	-2.0320227925	-2.2579837896	 1.115155577	 0.091119
H	-0.0360314211	-3.3414457373	 2.4592176381	 0.11561
H	-0.7625040693	-4.48444369	 1.3292150067	 0.114076
H	 1.7524830447	-4.0598234244	 0.5981923635	 0.294502
