16
gdb 39557	4.06107	1.72395	1.57766	1.6725	72.23	-0.2268	-0.0003	0.2265	856.7684	0.128172	-400.730196	-400.724413	-400.723468	-400.759973	24.783	
O	-0.0585404707	 1.3706575527	-0.0328781765	-0.239529
C	 1.1569992452	 1.9594184459	 0.0207424563	 0.113023
N	 2.2615794928	 1.3431946557	 0.1000872009	-0.280489
C	 2.1238788756	-0.099282171	 0.1306197449	 0.039934
C	 1.1073088336	-0.6624596079	-0.9437813118	-0.125414
C	 1.0173889034	-2.1211207894	-0.550668771	-0.099678
C	 0.9412107317	-2.0854993515	 0.7881101812	-0.099677
C	 0.9902204457	-0.6077793355	 1.1109990891	-0.125414
C	 0.0144020798	-0.0507315949	 0.0091093933	 0.141704
H	 1.0837187981	 3.0426401916	-0.012278779	 0.133959
H	 3.0950110137	-0.5913920592	 0.1990584595	 0.080448
H	 1.1761762345	-0.3723415215	-1.9910531498	 0.075916
H	 1.0079862672	-2.9653259841	-1.2247946655	 0.107466
H	 0.8528847035	-2.8928097276	 1.5006162947	 0.107466
H	 0.9406305603	-0.2623447312	 2.1424569319	 0.075916
H	-1.0062477846	-0.4304799322	-0.0389511681	 0.094368
