16
gdb 54436	3.32042	1.29107	1.04919	1.1867	72.42	-0.2588	-0.0405	0.2183	1133.173	0.122383	-437.878561	-437.8702	-437.869256	-437.912032	30.757	
C	 0.0131686792	 0.9884158623	-0.9200060176	-0.486025
C	-0.1267436509	 0.0871316173	 0.2839854189	 0.298593
O	 0.6785725618	 0.0370265181	 1.188062665	-0.312474
C	-1.3294184066	-0.7860249567	 0.3227522136	 0.331157
C	-1.8943805652	-1.4769322221	 1.5173505706	-0.323913
C	-1.3993075051	-2.3172674872	 0.3543048447	-0.224249
C	-2.3312244407	-2.1407456462	-0.7998167425	 0.437556
N	-2.8959019054	-2.9102284248	-1.6075351935	-0.54681
O	-2.3264438343	-0.7412422933	-0.7337004498	-0.303339
H	 0.9348474809	 1.5646353087	-0.8379338044	 0.144691
H	 0.0159581958	 0.3942349046	-1.8399374671	 0.152312
H	-0.8494524617	 1.659979176	-0.9899805894	 0.154518
H	-1.2405533293	-1.4870705637	 2.3825406133	 0.15984
H	-2.9575300238	-1.3852313439	 1.7128094492	 0.139459
H	-0.6005296306	-3.0388410573	 0.4405430708	 0.142573
H	-3.444303214	-2.3940166717	-2.2971328218	 0.236111
