15
gdb 132760	2.27657	1.74681	0.99447	0.7636	71.4	-0.2437	-0.0083	0.2354	1088.9165	0.111582	-469.953164	-469.945372	-469.944428	-469.986224	29.043	
C	-0.0160774232	 1.5384958635	 0.0046505043	-0.508455
C	 0.0029321522	 0.0341550452	 0.0127680217	-0.006185
C	 0.0722498739	-0.6993955872	-1.1712199245	 0.253958
F	 0.1215066054	-0.0127227206	-2.3210677459	-0.075831
C	 0.0923300886	-2.0845196634	-1.2147259031	-0.251
C	 0.0406755837	-2.7872458681	-0.0133503494	-0.100422
C	-0.0293345784	-2.1071994809	 1.1980009278	-0.248946
C	-0.046562886	-0.7188090529	 1.1842545725	 0.258413
F	-0.1141390677	-0.070318406	 2.3555099022	-0.082342
H	 0.8835620068	 1.9401260194	-0.472691536	 0.14177
H	-0.8729444242	 1.9174474681	-0.5616407466	 0.14177
H	-0.072572868	 1.9282569915	 1.0209802417	 0.141391
H	 0.1472423246	-2.5856608478	-2.1730874962	 0.112096
H	 0.0551348275	-3.8711427059	-0.0225803127	 0.112303
H	-0.0706072258	-2.626787645	 2.1472088036	 0.111481
