22
gdb 113980	3.25065	0.73503	0.64534	0.762	89.78	-0.2262	0.0547	0.2809	1789.8185	0.191886	-367.15105	-367.140676	-367.139732	-367.187189	37.944	
C	-0.288080207	 1.6290153166	 0.3066731401	-0.371841
C	-0.1243034647	 0.1395453403	 0.6022668392	-0.12067
N	-1.3437819991	-0.5778510414	 0.2434685046	-0.077421
C	-1.4562845694	-1.0716521597	-1.1247809792	-0.272401
C	-1.3234666156	-2.0260584453	 0.0126951163	 0.01645
C	-0.0938270699	-2.8971482803	 0.1711575817	-0.213581
C	 0.1370548395	-3.3256632751	 1.6382917128	-0.352504
C	 1.2758491479	-4.2217038012	 1.7934410337	 0.292557
C	 2.22118787	-4.9580014197	 1.8895217686	-0.436782
H	 0.6037461917	 2.1843702645	 0.6129261172	 0.110804
H	-0.4417724014	 1.7986683107	-0.764104737	 0.118114
H	-1.1533321317	 2.03273631	 0.8395501952	 0.126959
H	 0.7695900822	-0.2379981851	 0.0785063366	 0.083995
H	 0.0473751953	-0.0071090319	 1.6757586508	 0.102185
H	-2.4113826823	-0.9167684639	-1.6203815348	 0.11271
H	-0.5871954125	-0.9637860626	-1.7751338949	 0.103886
H	-2.2355221016	-2.5081056869	 0.3679432764	 0.086972
H	-0.2220799058	-3.797331918	-0.4412383499	 0.115153
H	 0.801981993	-2.3960193447	-0.205534103	 0.113097
H	 0.2827225881	-2.4348968584	 2.2617439086	 0.136976
H	-0.7695632287	-3.8144763703	 2.0186279359	 0.131633
H	 3.0530081519	-5.6100814776	 1.989303471	 0.19371
