16
gdb 13839	4.52961	1.64026	1.22867	3.7411	66.67	-0.2276	0.0122	0.2398	945.0151	0.132388	-379.968868	-379.961403	-379.960458	-380.000877	27.713	
N	-0.0806455202	 1.3330270435	 0.087703754	-0.569491
C	-0.0033855213	-0.0538557056	-0.0223151142	 0.439957
O	 1.0560188376	-0.656447833	 0.0299056267	-0.408898
N	-1.2089791767	-0.6908828405	-0.1482966517	-0.111904
C	-2.5248210382	-0.0808707147	 0.0348921516	-0.215588
C	-3.4227680587	-1.2838960655	 0.1506070141	-0.077585
C	-2.7298568348	-2.4148721171	 0.0600281029	-0.07633
C	-1.2623691588	-2.1540897853	-0.1282714038	-0.188982
H	 0.8225137122	 1.7657615189	-0.0357369208	 0.257981
H	-0.8282667635	 1.8064663616	-0.3968950002	 0.248464
H	-2.5556924749	 0.556214903	 0.9319419352	 0.125647
H	-2.8111848876	 0.5570205131	-0.8189042191	 0.105895
H	-4.4923287671	-1.1907275833	 0.2888484004	 0.107179
H	-3.1348005885	-3.4175714919	 0.1102084707	 0.108743
H	-0.8717815145	-2.5853874458	-1.0608489331	 0.121793
H	-0.6421381449	-2.5587719275	 0.6823602773	 0.133119
