20
gdb 107539	2.2601	1.42974	1.0191	4.2221	81.21	-0.2332	0.0235	0.2568	1232.7343	0.170527	-403.142176	-403.133189	-403.132245	-403.176235	33.353	
C	-0.2983287697	 1.4782697558	 0.1162290666	-0.383893
C	-0.0370543705	-0.0334134421	 0.058206315	-0.279423
C	 0.7647665596	-0.4833336052	-1.131133274	 0.362611
C	 0.223812423	-0.7126504479	-2.5204812597	-0.320082
C	 0.8917197054	-1.8543253835	-1.7902680459	-0.152367
C	 2.4162263235	-1.6816218669	-1.7978156177	-0.181992
N	 2.2284545285	-0.344694548	-1.2017883154	-0.091672
C	 3.0041605993	 0.7496433355	-1.4275092686	 0.119622
O	 4.1341190228	 0.7089707633	-1.8676796017	-0.325307
H	 0.632695263	 2.0425859033	 0.228030289	 0.12834
H	-0.7952716039	 1.8271616318	-0.794612222	 0.121926
H	-0.9381961535	 1.7273144334	 0.9681136292	 0.117798
H	 0.472840449	-0.3594129629	 0.9727732343	 0.110382
H	-0.9959138467	-0.5649531523	 0.0278252596	 0.106719
H	-0.8571923805	-0.7870673941	-2.5899487654	 0.12033
H	 0.7030144163	-0.252679873	-3.3807021381	 0.119432
H	 0.3705227663	-2.7664928529	-1.5343903854	 0.103821
H	 2.9446454691	-2.3619720835	-1.1236852741	 0.12394
H	 2.9199292747	-1.6667357532	-2.7691586541	 0.12849
H	 2.5015856143	 1.6906996523	-1.1266014217	 0.071326
