15
gdb 19962	4.14539	1.48525	1.16034	3.114	61.3	-0.2576	0.0008	0.2584	987.267	0.119915	-399.788892	-399.781748	-399.780804	-399.821109	25.619	
O	-0.2845938078	 0.1038778136	 0.3329367353	-0.316168
C	-0.12248362	 1.2377978926	 0.0218922924	 0.449166
O	-1.0186225985	 2.085255018	-0.5788227457	-0.236445
C	-0.070942129	 3.2008091069	-0.5515309404	-0.098386
C	 0.9980877097	 2.2942377133	 0.096368513	-0.218363
C	 1.5117600765	 2.6396005859	 1.4672403787	 0.022751
C	 2.7500763675	 2.005869385	 1.9810631019	-0.238765
N	 2.7394696331	 3.4364937372	 1.6315744137	-0.322884
H	 0.1339662832	 3.5591908626	-1.5618905014	 0.128517
H	-0.4466763081	 4.0110104493	 0.0770914412	 0.133903
H	 1.8251978577	 2.0434970758	-0.5756528479	 0.108635
H	 0.7355007622	 2.899528011	 2.1848006465	 0.105514
H	 2.847428947	 1.792452789	 3.0409645886	 0.131475
H	 3.2710521374	 1.3088998437	 1.3297509725	 0.120662
H	 3.1904397892	 3.5760274959	 0.7299155616	 0.230388
