18
gdb 87467	3.64007	1.22063	1.09801	2.1193	78.27	-0.2476	0.0025	0.2501	1149.9523	0.147356	-401.871414	-401.863394	-401.86245	-401.903916	30.958	
C	-0.0645072248	 1.5255731191	-0.0121242164	-0.404095
C	 0.0176053268	 0.0155571959	 0.020164855	-0.100515
C	 1.3471000484	-0.694492457	-0.2358564129	-0.392844
C	 0.7265690591	-0.6969129136	 1.1176673954	 0.508824
C	 1.2014255443	-0.2197707099	 2.5010525747	-0.275237
N	-0.1661161468	-0.6882287702	 3.0099207949	-0.308319
C	 0.261590964	-1.815834145	 2.0638820488	-0.276442
C	 1.6556987763	-1.6875227537	 2.7369223527	 0.446886
O	 2.4911869842	-2.329925782	 3.2906232255	-0.325495
H	 0.8511173602	 1.979025056	 0.3815417885	 0.112624
H	-0.2022940849	 1.8905907266	-1.0356366424	 0.119176
H	-0.9020651175	 1.8866653883	 0.5932776404	 0.130587
H	-0.8589106955	-0.4930684296	-0.374546623	 0.092958
H	 1.3421400978	-1.6128563616	-0.8142888027	 0.119794
H	 2.2233136569	-0.0730254079	-0.396176203	 0.119176
H	 1.6363664515	 0.7320615834	 2.7986968602	 0.102466
H	-0.097081526	-0.9961929177	 3.9856805307	 0.22904
H	-0.3740542138	-2.675274351	 1.8594045738	 0.101416
