17
gdb 45505	4.06583	1.29224	1.05328	4.2864	74.82	-0.2516	-0.0063	0.2453	1115.9739	0.138304	-421.885561	-421.878517	-421.877573	-421.917201	27.684	
O	 0.0137469635	 0.1215294657	 0.4764525395	-0.326182
C	-0.0475177557	 1.2450610579	 0.0763351378	 0.42696
C	-1.3169236376	 2.1022746417	-0.1348302859	-0.494058
C	-0.7215066215	 3.4571424019	-0.2788564726	 0.31854
C	-0.9305506087	 4.7034106779	 0.1326651144	-0.220596
C	 0.3253298787	 5.5416175707	-0.0362761213	-0.252949
C	 1.4427650471	 4.4669262997	-0.196683901	-0.247024
C	 0.6888230633	 3.2637072109	-0.7734010827	 0.075644
O	 1.0639388644	 1.9608965703	-0.2714172695	-0.238219
H	-1.8140603649	 1.7403780258	-1.0449808712	 0.147215
H	-2.008782216	 1.9680958247	 0.6977229519	 0.150843
H	-1.8446199841	 5.0889401958	 0.5693765512	 0.104251
H	 0.2650244234	 6.1921342269	-0.9194733854	 0.115072
H	 0.5019588223	 6.2010503114	 0.8196346657	 0.114416
H	 2.2802230962	 4.7982586688	-0.8144288107	 0.106481
H	 1.8314715509	 4.1880457398	 0.7874786089	 0.125592
H	 0.7627706787	 3.2155358302	-1.8690079391	 0.094015
