21
gdb 57626	3.12559	0.93963	0.89948	1.5217	84.9	-0.2594	0.0562	0.3156	1411.8477	0.179134	-387.038044	-387.027784	-387.02684	-387.073316	38.185	
C	 0.1666662663	 1.5648432237	 0.0722729225	-0.40958
C	-0.0068779571	 0.0287779767	 0.0225545196	 0.051765
C	 0.6562452299	-0.6117489574	 1.2643540009	-0.399943
C	-1.5140626742	-0.3630306095	-0.0664512999	-0.228385
C	-2.3792663938	 0.112249476	 1.0760063436	 0.076485
C	-3.5319482856	-0.668634415	 1.5442350416	-0.184843
O	-2.3220692271	-0.6301456949	 2.3007283397	-0.231049
C	 0.6499836807	-0.4802521135	-1.1874707495	 0.341531
C	 1.1799102341	-0.9003862037	-2.1818595083	-0.491096
H	 1.2276270049	 1.8264064287	 0.0418131622	 0.126037
H	-0.3241541331	 2.0460183413	-0.7789847583	 0.118722
H	-0.2539138759	 1.9736972812	 0.995725714	 0.118074
H	 0.1829062225	-0.2533326826	 2.1813429396	 0.136351
H	 0.5620136255	-1.7005529225	 1.2380247579	 0.122556
H	 1.7206030771	-0.3623519008	 1.2953538516	 0.116373
H	-1.9219470912	 0.0435582594	-1.0002530887	 0.110156
H	-1.5884654336	-1.4534317903	-0.1337590852	 0.111287
H	-2.4245220081	 1.1913843634	 1.2266546754	 0.094946
H	-4.3839870877	-0.1619241179	 1.9954009233	 0.114119
H	-3.7576789409	-1.6241578899	 1.0721611467	 0.114671
H	 1.6535181174	-1.2704149223	-3.0573034987	 0.191823
