15
gdb 97836	4.28584	0.68038	0.61867	3.4655	71.67	-0.2608	-0.002	0.2588	1726.9668	0.111131	-457.741249	-457.732134	-457.731189	-457.77751	30.797	
O	 0.0312941349	 1.4875089406	 0.2790998158	-0.407991
C	 0.0388621894	 0.0864238921	 0.0399248595	-0.215378
C	-1.330822998	-0.4103912703	 0.0032208347	 0.109671
C	-2.4542510497	-0.8408257099	-0.0225813801	 0.089402
C	-3.7977589573	-1.3686860167	-0.0602107094	-0.373184
C	-4.4917362373	-1.5936633835	-1.4269130497	-0.082931
O	-4.63705803	-3.0182174746	-1.1316534461	-0.232303
C	-3.9727841405	-2.9079320225	 0.0596205277	 0.460384
O	-3.6949089118	-3.7639903477	 0.8295504791	-0.308586
H	 0.9486918217	 1.7761545618	 0.3226987877	 0.292779
H	 0.5328639155	-0.1552260671	-0.9153180193	 0.120952
H	 0.5882881254	-0.4539438231	 0.8276986237	 0.126514
H	-4.4453183768	-0.8595458472	 0.6612563835	 0.147854
H	-5.4667098715	-1.1221652664	-1.5585272241	 0.133025
H	-3.8557698541	-1.4400223956	-2.2992179729	 0.139791
