21
gdb 41581	3.30743	1.47784	1.30338	0.3909	88.15	-0.221	0.0189	0.2399	1069.8776	0.185319	-349.922315	-349.915039	-349.914095	-349.953924	30.043	
C	-0.0051262416	 1.4610393824	 0.2698681089	-0.231582
C	 1.4430570211	 1.6073531852	-0.2884800387	-0.209214
C	 1.4197855572	 0.1128412647	-0.702782074	-0.143464
C	 0.0605283039	-0.0860843533	 0.0923439202	-0.052908
C	-0.5844236371	-0.7058024077	-1.2007256916	-0.030843
C	-1.7973748654	-0.2356292743	-2.024230895	-0.253366
C	-1.1863199245	-0.017980551	-3.451319528	-0.234218
C	 0.2840417272	 0.2928007646	-3.1679286227	-0.235995
C	 0.5924446071	-0.1509574846	-1.953375053	 0.303338
H	-0.1362609008	 1.7939043044	 1.3015234867	 0.100024
H	-0.7707907755	 1.9466329463	-0.3403929644	 0.103798
H	 1.6026071858	 2.3351670423	-1.0878394502	 0.098249
H	 2.1711794016	 1.7949777058	 0.5061305487	 0.097471
H	 2.3081251605	-0.4982631466	-0.5323327641	 0.072612
H	-0.0023330832	-0.6743298238	 1.0090558151	 0.06099
H	-0.552740363	-1.8001214184	-1.1045592823	 0.07202
H	-2.6370674777	-0.9364614116	-2.0256588556	 0.090691
H	-2.1702952752	 0.7225734697	-1.6442691345	 0.102582
H	-1.3028701832	-0.9157525196	-4.0757601858	 0.102409
H	-1.6807044156	 0.7964381177	-3.9926716781	 0.098826
H	 0.9127304286	 0.8480573779	-3.8549749618	 0.088579
