23
gdb 115287	3.44496	0.95589	0.91135	2.2067	82.34	-0.2434	0.0676	0.3109	1431.199	0.204538	-425.435881	-425.42591	-425.424966	-425.470964	37.856	
C	 0.1460513371	 1.2706181069	-0.2786023065	-0.237412
O	-0.0164853494	-0.0404180849	 0.2070946527	-0.244097
C	-1.3405618529	-0.5265650639	 0.1162237504	 0.153929
C	-1.8279529777	-0.8454895568	-1.3141499634	-0.238159
C	-2.8987567172	-1.9136718392	-1.0715236104	-0.244328
C	-2.2508387164	-2.8402183734	-0.0159470315	 0.395561
C	-3.2528708132	-3.7031699267	 0.7486279708	-0.453569
O	-1.2703855212	-3.6761556733	-0.6498244235	-0.472421
C	-1.442783959	-1.8680406009	 0.8785921461	-0.252869
H	 1.1823344771	 1.5610067151	-0.0875167926	 0.124364
H	-0.0443357471	 1.3455350759	-1.3595760629	 0.105175
H	-0.5210574896	 1.9812588152	 0.236370692	 0.098687
H	-2.0227015051	 0.215319715	 0.5669216614	 0.054093
H	-2.1979916294	 0.0280695408	-1.8570166508	 0.086964
H	-0.992838981	-1.2788011926	-1.8738454347	 0.117326
H	-3.8080689345	-1.4579828351	-0.6585554832	 0.092229
H	-3.1915380211	-2.4616038676	-1.9738254863	 0.082867
H	-3.8089000454	-4.3548900331	 0.0630154608	 0.100851
H	-2.7339805404	-4.3384622331	 1.4726566368	 0.124849
H	-3.9819511103	-3.0875485574	 1.2852585032	 0.112123
H	-1.736444598	-4.2649055263	-1.2539074457	 0.270653
H	-0.4407749895	-2.2718317343	 1.0354289194	 0.130541
H	-1.9121366556	-1.7383779404	 1.8567069479	 0.092645
