21
gdb 62593	2.93782	1.7074	1.65518	0.0839	83.37	-0.2154	0.0893	0.3047	964.0374	0.183334	-349.918409	-349.910849	-349.909905	-349.949659	31.967	
C	 0.0812898281	 1.5050932273	 0.0171111589	-0.424245
C	-0.0238510944	-0.0262510484	 0.0019241054	 0.288746
C	-1.4892199497	-0.4754356425	-0.0830884151	-0.424245
C	 0.8285380099	-0.6463393435	-1.1024884346	-0.089608
C	 2.2625692986	-0.8380226275	-0.6513320882	-0.099273
C	 1.3217991995	-2.0249663068	-0.7115386106	-0.099194
C	 1.2343183975	-2.0344496765	 0.8371433432	-0.099273
C	 2.1756179063	-0.8479275706	 0.8973775845	-0.099194
C	 0.6999892852	-0.6601686418	 1.1872525821	-0.089606
H	 1.1259439183	 1.824921098	 0.0776631643	 0.116083
H	-0.3547598767	 1.9393878185	-0.8895674705	 0.105687
H	-0.4537404662	 1.9287099711	 0.8744977743	 0.105692
H	-1.9667332933	-0.0934776034	-0.9924338986	 0.105692
H	-1.5637931329	-1.5670312602	-0.093878409	 0.116082
H	-2.0657818512	-0.1041484876	 0.7716276613	 0.105687
H	 0.6270647223	-0.433781657	-2.1469446088	 0.076381
H	 3.1335255053	-0.6152624289	-1.2518856445	 0.082046
H	 1.3348726183	-2.8846652309	-1.3669748427	 0.082057
H	 1.173978075	-2.9021074367	 1.4793117794	 0.082046
H	 2.9737324968	-0.6335850121	 1.5944571792	 0.082057
H	 0.3827488633	-0.4600553906	 2.20508075	 0.076381
