15
gdb 44299	3.89519	1.78441	1.56825	4.5978	66.94	-0.239	0.0068	0.2458	838.2793	0.116113	-416.7737	-416.767918	-416.766973	-416.803676	24.318	
O	-0.0085029034	-0.0594652738	-0.0042809833	-0.372231
C	-0.0152965724	 1.1472268443	 0.0519954141	 0.430568
N	-1.1271531124	 1.973237758	 0.0989648017	-0.318986
C	-0.7237867679	 3.3542279768	-0.0477072548	-0.02049
C	 0.0389090857	 3.6882255489	-1.3500470157	-0.067002
C	 1.2311545259	 4.1683760148	-0.6186969328	-0.059448
C	 0.6724726424	 3.4512297361	 0.6477216805	-0.095572
C	 1.1612590418	 2.1225764735	 0.0461541883	-0.105745
N	 1.2829187774	 2.8450984812	-1.3072592632	-0.146976
H	-2.0312697594	 1.6184370244	-0.1736164926	 0.252596
H	-1.4800685918	 4.0746641217	 0.2593402572	 0.096598
H	-0.3434808106	 3.9447199518	-2.3292165339	 0.106893
H	 1.9350083661	 4.9698218963	-0.7913846968	 0.110093
H	 0.764454152	 3.7192668996	 1.6974784731	 0.088418
H	 2.1205801567	 1.7037769863	 0.3387791682	 0.101283
