19
gdb 111809	2.99524	1.42582	1.37328	2.015	70.24	-0.2453	0.0824	0.3277	1043.5929	0.160963	-460.151641	-460.143884	-460.142939	-460.184175	29.607	
C	-0.1222188209	 1.3322486692	-0.0391167687	-0.244298
O	 0.1816812298	-0.0435237728	 0.0587986732	-0.254537
C	 0.7076602421	-0.5933039252	-1.1145289913	 0.125572
C	 0.9441195064	-2.1072176764	-0.9692463807	-0.143004
C	-0.5132495227	-2.5806119067	-0.8038771949	-0.071092
O	-1.2476540585	-1.7139570679	-1.7000667364	-0.268796
C	-0.2820119293	-0.8615839734	-2.2734919498	 0.178396
O	 0.5247832494	-1.5582711343	-3.2066807691	-0.273674
C	 1.364089225	-2.4309887257	-2.411319419	-0.083117
H	 0.7593090199	 1.919640765	-0.338766279	 0.107235
H	-0.9315982641	 1.5276349527	-0.7562127221	 0.116667
H	-0.4449657936	 1.660401696	 0.9514024473	 0.13137
H	 1.5929626993	-0.0408885092	-1.4605633649	 0.074028
H	 1.6344318331	-2.4285834898	-0.1907253674	 0.085891
H	-0.6521492263	-3.6237281658	-1.1095306354	 0.10144
H	-0.8838887905	-2.4458958209	 0.2164958294	 0.115945
H	-0.7824547743	-0.0398860585	-2.7822639396	 0.090895
H	 2.4185072114	-2.2029943906	-2.6098015294	 0.103463
H	 1.1719436535	-3.4746863857	-2.6856433923	 0.107616
