17
gdb 86515	4.1425	0.94792	0.83923	3.8768	76.49	-0.2497	-0.0605	0.1892	1377.6965	0.132939	-421.785846	-421.776544	-421.7756	-421.821179	32.961	
C	-0.6194067672	 1.256451985	 0.1698834988	-0.400616
C	 0.213001878	 0.0045377459	 0.0000585867	 0.168188
C	 1.0318898147	-0.1643259174	-1.302278159	-0.312031
C	 2.2433900185	-0.2646097403	-0.335886946	 0.024919
O	 1.4303842558	 0.0361465	 0.7947345772	-0.283038
C	 2.8659904065	-1.6560989999	-0.2798220753	 0.21842
O	 2.57751645	-2.4853171108	 0.5502285954	-0.272344
C	 3.8191651304	-1.9150970214	-1.3498653703	 0.255623
C	 4.601692892	-2.0951029736	-2.2470149851	-0.424924
H	-0.0424544038	 2.1471259615	-0.0977352283	 0.119933
H	-1.5105506649	 1.2107198083	-0.4657684835	 0.119099
H	-0.9463528699	 1.3571419253	 1.2094140654	 0.134222
H	-0.3740053686	-0.8871023024	 0.2546451545	 0.092568
H	 0.8179450072	-1.0476317365	-1.905440306	 0.122869
H	 1.0479785053	 0.7198137936	-1.9415890982	 0.117439
H	 3.0398130353	 0.4745339777	-0.4932202673	 0.102258
H	 5.2966891908	-2.2741987548	-3.0314383989	 0.217415
