15
gdb 44273	3.54151	1.95442	1.5354	4.5084	68.97	-0.2468	0.0279	0.2747	844.4087	0.11488	-416.733892	-416.727939	-416.726995	-416.7642	24.859	
N	-0.0473341506	 1.3081050707	-0.2136168761	-0.520391
C	 0.0217178496	 0.0695147202	 0.018617484	 0.432542
O	 1.2079363289	-0.5769404329	 0.2186665048	-0.248001
C	 1.1289069947	-1.9592103004	 0.4671854307	 0.100834
C	 0.0427100241	-2.5715243461	 1.2902200679	-0.137825
C	 0.1463338603	-2.84926514	-0.2216471416	-0.137825
C	-1.1936354674	-2.0866024712	-0.4246410088	-0.06797
C	-1.2934399624	-1.819108697	 1.0314627969	-0.067971
N	-1.1543442396	-0.7108351011	 0.0813563307	-0.143559
H	 0.8937534914	 1.7057981875	-0.2221586528	 0.221735
H	 2.128910644	-2.3526111866	 0.6079977604	 0.123631
H	 0.2211508413	-3.2273809262	 2.1315178343	 0.105188
H	 0.4183133248	-3.7558265494	-0.7450440768	 0.105188
H	-1.9476996352	-2.3342936967	-1.1604419698	 0.117211
H	-2.143819154	-1.808654801	 1.7008745263	 0.117211
