21
gdb 73255	2.38935	1.70452	1.37862	1.4512	83.37	-0.2381	0.0221	0.2602	1059.6168	0.184199	-387.096536	-387.088429	-387.087485	-387.128851	32.234	
C	-0.1411329768	 1.5502935873	 0.0033788978	-0.473564
C	 0.0049826884	 0.0321929749	-0.0207040205	 0.223406
C	-1.2116584003	-0.7866683287	 0.5112899751	-0.097154
O	-0.3759751623	-1.5185861006	 1.4261569013	-0.298507
C	 0.7380291462	-0.6255609716	 1.1858321461	 0.108269
C	 2.0410812561	-1.3504585311	 0.9130181112	-0.236652
C	 1.9594075997	-2.2302185688	-0.3417519852	-0.257847
C	 1.3537762223	-1.4817616954	-1.4994464086	-0.072778
C	 0.5005833536	-0.4679106865	-1.3492390179	-0.095999
H	 0.8236758526	 2.0406607373	-0.1659106588	 0.12137
H	-0.8251424705	 1.8913488072	-0.7824107172	 0.117026
H	-0.5346079263	 1.8971372622	 0.9643236742	 0.115218
H	-1.9598172719	-0.1767883112	 1.0386204504	 0.088877
H	-1.7163641149	-1.4444498868	-0.2042045646	 0.102322
H	 0.8569088517	 0.0720222335	 2.0283404234	 0.060301
H	 2.8236441116	-0.5916407111	 0.7832599853	 0.100786
H	 2.3136665546	-1.9481514112	 1.7900539844	 0.105106
H	 2.9548075664	-2.6024227759	-0.6076951473	 0.09768
H	 1.3506206625	-3.1169310189	-0.1210727121	 0.126933
H	 1.6259013395	-1.8041400507	-2.5016231198	 0.086086
H	 0.0893006378	 0.0266417961	-2.2278656474	 0.079119
