20
gdb 70545	2.76152	1.4881	1.16354	3.296	80.37	-0.251	0.032	0.283	1121.8013	0.172343	-403.163355	-403.155112	-403.154168	-403.195885	32.439	
C	-0.1145454401	 1.5215278855	 0.0188327672	-0.466641
C	 0.0289293851	 0.0153262395	 0.0338975321	 0.324504
C	-0.8411794778	-0.797425835	 0.9691509419	-0.336777
C	 0.6430505349	-0.6722802242	 1.222702363	-0.073753
C	 1.5648497256	-1.8332602828	 0.9256218806	-0.104935
O	 1.0985993013	-2.6665554938	-0.1416946134	-0.248936
C	 0.5703234558	-2.1036418752	-1.2694166513	 0.375395
N	 0.2077368973	-2.8214442109	-2.2480594512	-0.517679
C	 0.4211894515	-0.6010865999	-1.3020654622	-0.337303
H	 0.8108424976	 2.0055108667	-0.3159091151	 0.115862
H	-0.9164557031	 1.8355236952	-0.6595144707	 0.122536
H	-0.3510249481	 1.9062259762	 1.0158166124	 0.114976
H	-1.508183313	-0.254973243	 1.6302923164	 0.110325
H	-1.2301908198	-1.7511289521	 0.6296670958	 0.13332
H	 0.9652791877	-0.0606295266	 2.0611304395	 0.088428
H	 2.5728738763	-1.4642068635	 0.6851427513	 0.108305
H	 1.6547406338	-2.5060675136	 1.7838515655	 0.122083
H	 0.4072113001	-3.8047643922	-2.0501433906	 0.215501
H	-0.2993044119	-0.3682308634	-2.0899306699	 0.135128
H	 1.3817079167	-0.1661788269	-1.6164690712	 0.11966
