16
gdb 57822	3.97847	0.71162	0.6345	3.9382	85.77	-0.2854	-0.1031	0.1824	1709.4289	0.121647	-400.754424	-400.744524	-400.74358	-400.790397	33.93	
C	-0.0957546026	 1.3910107709	-0.316894281	-0.398733
C	 0.0151171092	-0.0970908825	 0.0787370956	-0.081205
C	 0.7370840289	-0.2932771045	 1.4125668156	-0.39708
C	-1.3703886658	-0.7249637611	 0.111836027	 0.191428
O	-1.9099471046	-1.1475472487	 1.1092454966	-0.274445
C	-2.0654102272	-0.8031639684	-1.1743564677	 0.020813
C	-2.6557898599	-0.8980305627	-2.2265954923	 0.153306
C	-3.3166154778	-1.0022303377	-3.4162805138	 0.20936
N	-3.8748974723	-1.0885553972	-4.4312016491	-0.31887
H	 0.903976012	 1.8238349193	-0.4095311584	 0.133386
H	-0.6106694142	 1.5219183197	-1.2726560707	 0.133966
H	-0.640489331	 1.9544354547	 0.4474552723	 0.135357
H	 0.5646745324	-0.6116126727	-0.7227811611	 0.108415
H	 0.1971678127	 0.2036718645	 2.2229855135	 0.136624
H	 0.8166996401	-1.3521295598	 1.6708735534	 0.131526
H	 1.7448393102	 0.1278915661	 1.3582363301	 0.116153
