16
gdb 51218	4.69154	1.06932	1.03386	1.7157	70.29	-0.235	0.0142	0.2492	1166.4855	0.123833	-437.798683	-437.791281	-437.790337	-437.831224	28.104	
N	-0.1548580896	 1.2566804947	 0.0278693444	-0.436344
C	-0.1337013498	 0.0113253966	 0.2117103483	 0.10246
O	-1.0740906399	-0.7681797988	-0.3855388659	-0.226744
C	-0.932281612	-2.1343948344	-0.2232593088	 0.364694
C	-0.1204083921	-3.1078580708	-1.0756956929	-0.30146
C	-0.9452282581	-4.1911845575	-0.3298929274	 0.065401
O	-0.4709172298	-4.1128837392	 1.049034753	-0.288707
C	-1.1583076569	-2.8689934867	 1.1206363986	 0.024297
C	-2.0672336674	-3.1234119961	-0.037650467	-0.208243
H	 0.6004142395	 1.6978997053	 0.5487075432	 0.234081
H	 0.5715124708	-0.5616001926	 0.826079711	 0.101823
H	-0.4044085329	-3.0377279479	-2.1283155894	 0.120096
H	 0.9666258536	-3.1551021409	-0.9612545401	 0.107594
H	-1.0628382305	-5.2061133572	-0.6999367667	 0.100194
H	-1.3086613364	-2.3829129122	 2.0756123905	 0.121626
H	-3.1345814184	-3.0648607321	-0.1934802009	 0.119232
