17
gdb 71196	2.64176	1.69306	1.39016	2.1936	71.14	-0.2402	-0.03	0.2102	968.8673	0.134869	-421.777939	-421.770207	-421.769263	-421.810345	29.996	
O	 0.0098921286	 1.3848608199	 0.2646610522	-0.484853
C	-0.0293232243	 0.0124879849	 0.1278903349	 0.387365
C	 0.5860052842	-0.7149362121	-1.1076924778	-0.304749
C	-0.4813267531	-1.7801205972	-0.8638409836	-0.059403
C	-0.6526177736	-1.9282826175	 0.6570659985	-0.106355
C	-1.3559294112	-0.8206901958	-0.0993063297	-0.133547
C	 0.2879177528	-0.9250766637	 1.3321462861	-0.142647
C	 1.7282468269	-1.2142263972	 1.6586279056	 0.126293
O	 2.6172209248	-0.4229891176	 1.4432208368	-0.261152
H	 0.9202412396	 1.6197120204	 0.4854773813	 0.29119
H	 0.3705024367	-0.1452136561	-2.0152205107	 0.108255
H	 1.6450198855	-0.9886950629	-1.0754130598	 0.10282
H	-0.798500781	-2.5699523103	-1.5319163826	 0.09153
H	-1.1047984989	-2.8090014166	 1.0931149537	 0.093591
H	-2.3981720903	-0.5487473571	-0.1692215568	 0.101472
H	-0.191589398	-0.5280242184	 2.2373978223	 0.11014
H	 1.9450843211	-2.1982317925	 2.1347188197	 0.08005
