20
gdb 63088	2.54487	1.52707	1.26837	3.8154	79.04	-0.2407	-0.0008	0.2399	1098.3574	0.170514	-403.172817	-403.163998	-403.163053	-403.206125	33.588	
C	-0.1462379084	 1.5207888373	 0.0728849271	-0.460247
C	-0.0397782229	 0.0152816165	-0.0589520775	 0.311323
C	-1.217006248	-0.738196044	 0.5263807308	-0.448614
C	 0.7312989296	-0.626596575	-1.1677445891	-0.073277
C	 1.6727552862	 0.1725018956	-2.0802134024	-0.270047
C	 2.9106206113	 0.4264958317	-1.1945685626	-0.306411
C	 2.4144340808	 0.1974376533	 0.2406364532	 0.366596
O	 2.895188594	 0.6390490435	 1.2494466203	-0.322657
N	 1.2708285193	-0.6502896965	 0.2035322948	-0.157191
H	 0.6552434658	 2.0589257554	-0.4370726867	 0.126014
H	-1.0995709957	 1.861845804	-0.3437925456	 0.121715
H	-0.1164927312	 1.8107561978	 1.1282204073	 0.145014
H	-2.1423941889	-0.4676775554	 0.0057547391	 0.116915
H	-1.0694672381	-1.8171151273	 0.4423437901	 0.129075
H	-1.3404222679	-0.4945410567	 1.5867540238	 0.1303
H	 0.3737511952	-1.5841441373	-1.5393388031	 0.091598
H	 1.915578207	-0.4082047963	-2.9720627362	 0.114406
H	 1.2182755127	 1.106957821	-2.4227164684	 0.116636
H	 3.7035611559	-0.3009519002	-1.4026320967	 0.137137
H	 3.3520200036	 1.4208207326	-1.2831899783	 0.131713
