17
gdb 52782	3.09603	0.93676	0.81543	4.6439	78.5	-0.2616	0.0126	0.2742	1452.3527	0.133069	-421.838396	-421.828814	-421.82787	-421.874647	33.661	
C	 0.2016161205	 1.5951154936	-0.1921829661	-0.500443
C	 0.138766874	 0.1452890723	-0.0900089858	 0.053882
C	 0.0750676069	-1.0540525003	-0.0057520927	 0.093689
C	 0.0221543759	-2.5009006092	 0.0927380526	 0.205702
C	 0.8625686506	-3.2019558864	-0.9656162436	-0.433394
C	 0.109639894	-3.0806085472	 1.5323739272	-0.457129
C	-1.3295344426	-3.5179773534	 1.2803826381	 0.444311
O	-2.1857659002	-4.1018513532	 1.8624590909	-0.317595
O	-1.3880974398	-2.9893941668	 0.0192461801	-0.260134
H	 0.8195220417	 1.9075578431	-1.0406824712	 0.154664
H	-0.7985658946	 2.0185118874	-0.3336628669	 0.160919
H	 0.6260784393	 2.0393716996	 0.7144987945	 0.154424
H	 1.913088442	-2.9173309409	-0.8587348922	 0.13494
H	 0.7742723903	-4.2870133332	-0.8619907238	 0.12821
H	 0.5261733587	-2.9149174966	-1.9646742912	 0.144832
H	 0.8179119665	-3.8993774651	 1.6695097473	 0.142926
H	 0.2235668567	-2.3474421338	 2.3306867027	 0.150196
