15
gdb 67581	2.98661	2.03567	1.50302	3.2929	62.56	-0.2363	0.0564	0.2927	850.8027	0.112226	-457.653164	-457.646643	-457.645699	-457.683748	26.709	
O	-0.0468988212	 1.3792794518	 0.1016985319	-0.473524
C	 0.0346968593	 0.0021845312	 0.0541129082	 0.393578
C	 0.9500183755	-0.7608407545	 1.008115214	-0.076026
O	 0.2427066719	-1.5879709261	 1.9486207974	-0.252793
C	 0.6457439403	-2.154506788	 0.6858218791	 0.016129
C	-0.401139832	-2.0149017423	-0.4055964541	-0.092852
C	-1.2959713546	-0.7866034643	-0.0635894355	 0.029974
O	-1.4266361336	-0.4496266771	-1.4906146357	-0.31754
C	-0.0219540524	-0.8036083127	-1.3242566849	-0.025364
H	 0.8326569549	 1.7526383786	-0.0175136743	 0.288005
H	 1.9188709872	-0.3844058144	 1.3233873977	 0.102141
H	 1.3597971648	-2.9696056715	 0.7307248472	 0.108776
H	-0.8742155405	-2.8795889443	-0.8636712831	 0.094225
H	-2.1811325002	-0.7297033031	 0.5662494619	 0.110659
H	 0.6239781106	-0.7621668932	-2.2030062399	 0.094613
