16
gdb 5693	4.68054	2.03936	1.45986	1.5286	71.09	-0.17	0.0552	0.2252	835.0856	0.134989	-342.808753	-342.802358	-342.801414	-342.839049	25.394	
C	 0.0017864159	 1.3950463244	-0.1525115227	-0.160415
C	 1.4653379763	 1.8965523841	 0.1173581681	-0.360351
C	 2.2247777972	 0.6020754876	-0.0019386076	 0.279981
C	 1.3281784534	-0.4287466938	 0.0130193222	 0.325691
N	-0.0417320566	-0.092586514	 0.0433399858	-0.414177
N	 1.9888032984	-1.6179460637	-0.0561326553	-0.364355
C	 3.350236827	-1.3429736588	-0.1080151012	-0.083126
C	 3.5240488866	 0.0249349951	-0.0767117477	-0.327263
H	-0.745283881	 1.8776171517	 0.4821882317	 0.100607
H	-0.2628025664	 1.5989702594	-1.1951454676	 0.117408
H	 1.7444723154	 2.6603355774	-0.6153871373	 0.105531
H	 1.5697244349	 2.3562220532	 1.11088276	 0.097657
H	-0.4645148704	-0.3186145716	 0.9410381922	 0.224737
H	 1.5730240035	-2.5303068627	-0.1179506268	 0.258622
H	 4.0677235315	-2.1448467318	-0.1698589157	 0.111156
H	 4.4774345245	 0.5308274935	-0.1043635582	 0.088296
