18
gdb 87068	2.5185	1.33136	1.00701	3.6817	76.46	-0.2586	0.0215	0.2801	1205.4722	0.146447	-401.928206	-401.919056	-401.918112	-401.962734	33.592	
O	 0.3090851786	 1.15481668	 0.0855942295	-0.420061
C	-0.0315295484	-0.1818654224	 0.2077500858	 0.123035
C	-0.7704679938	-0.7233364129	 1.3910507773	-0.368742
C	-1.4672320254	-0.6865012922	 0.0210875849	 0.103762
C	-2.4290290269	 0.3756423804	-0.130669359	 0.236895
N	-3.1428405174	 1.278573479	-0.2615076129	-0.355016
C	-1.7635403686	-1.9270309518	-0.7791090129	-0.073567
C	-1.2056523961	-3.2795027991	-0.4136145847	-0.287809
C	-2.6764645124	-3.002187964	-0.2420713485	-0.253689
H	-0.491817276	 1.6946750436	 0.0852522602	 0.302735
H	 0.7291316317	-0.8169117201	-0.2350675631	 0.124475
H	-0.495559447	-1.6931981058	 1.7893351304	 0.131492
H	-1.1237806687	-0.0122938551	 2.1292212764	 0.14099
H	-1.8433687333	-1.7282369685	-1.8441517916	 0.106772
H	-0.8892787032	-3.9204982816	-1.2286262998	 0.123287
H	-0.6011674437	-3.3808785424	 0.4807921231	 0.118703
H	-3.04584595	-2.8811054044	 0.7704414784	 0.122895
H	-3.3805437194	-3.4652781726	-0.9233934436	 0.123842
