17
gdb 3996	3.33117	1.51644	1.35869	1.0785	68.31	-0.2459	0.001	0.2469	986.2809	0.139181	-400.944193	-400.935445	-400.934501	-400.977158	31.893	
C	-0.1811102246	 1.5480978058	 0.1655256148	-0.417997
C	 0.0026078138	 0.0384026265	 0.0687727963	 0.332883
C	-1.2610211746	-0.6850181163	-0.3808922244	-0.417998
O	 1.140124871	-0.299513746	-0.7983199942	-0.331588
C	 1.8784742747	-0.919879196	 0.2777272	-0.166566
C	 0.7504236148	-0.6056174964	 1.2228118165	 0.312223
N	 0.453434748	-0.7596619019	 2.4392633452	-0.237433
O	 1.4829055306	-1.4263455966	 3.1291950905	-0.390261
H	 0.7490467209	 2.03465455	 0.4691054655	 0.122878
H	-0.4807616282	 1.9490793426	-0.8079052787	 0.125662
H	-0.9566395481	 1.7915987875	 0.8980315914	 0.128534
H	-1.5741020426	-0.3116334095	-1.3610500224	 0.125661
H	-1.0863897239	-1.7608365466	-0.4596870102	 0.122878
H	-2.0721802694	-0.5153247284	 0.3336206376	 0.128535
H	 2.0712484231	-1.9865668037	 0.1056513487	 0.126546
H	 2.8304800065	-0.4165918332	 0.4898152651	 0.126546
H	 1.1310257381	-1.4753098779	 4.0246594484	 0.309498
