15
gdb 13086	4.33156	1.31963	1.08969	6.4807	61.67	-0.267	0.0335	0.3005	1041.4332	0.118087	-399.785421	-399.777296	-399.776352	-399.818943	28.108	
O	 0.0453085247	 1.3966612306	-0.2192153531	-0.420686
C	 0.071714363	 0.0117453255	 0.0202237604	 0.036366
C	-0.0010403821	-0.4706870099	 1.4880348614	-0.09888
O	-1.2525000896	-1.1475787633	 1.2379260589	-0.280138
C	-1.3189678103	-0.6528746377	-0.1122309516	 0.120387
C	-2.489565791	 0.312642701	-0.335200105	-0.343879
C	-3.778233256	-0.3702883395	-0.2630963913	 0.260132
N	-4.7948314105	-0.9173222653	-0.2181699254	-0.303803
H	 0.9417938188	 1.7411242915	-0.1666692387	 0.29705
H	 0.8469591814	-0.486100418	-0.5734071965	 0.090743
H	 0.7793951097	-1.1636638476	 1.8215789636	 0.109219
H	-0.1067621502	 0.3467538023	 2.2120336733	 0.109643
H	-1.3758985675	-1.4773373444	-0.8322483461	 0.101366
H	-2.4562157511	 1.1139188927	 0.4076763882	 0.163216
H	-2.3865999292	 0.7835102824	-1.3190657882	 0.159265
