17
gdb 7657	4.82716	1.28144	1.21455	16.5398	69.32	-0.1511	-0.0374	0.1138	1021.3873	0.142938	-400.937791	-400.929734	-400.92879	-400.970767	29.406	
N	-0.3288106448	 1.8732689753	 0.2312565737	-0.440364
H	 0.100962471	 1.2247800783	-0.4336746788	 0.314533
H	 0.3536912228	 2.60212186	 0.4529906572	 0.325562
H	-1.1330569875	 2.3112766033	-0.2243077821	 0.325564
C	-0.7620188762	 1.121284048	 1.5049953874	-0.004796
C	-1.6504895437	-0.1086057853	 1.3160421749	-0.245069
C	-0.8863689826	-0.6892137434	 2.5550432874	-0.1095
C	 0.3001555251	 0.2728320951	 2.204711322	-0.245057
C	-1.5873106565	-0.2577047528	 3.9084629696	 0.365717
O	-1.7767755962	-1.1688136411	 4.7161366494	-0.454726
O	-1.8542174055	 0.9732256814	 3.965541717	-0.503841
H	-1.2176730619	 1.8258882869	 2.2027151802	 0.180836
H	-2.7272069597	 0.039605076	 1.4033202541	 0.133571
H	-1.4122556471	-0.6541367329	 0.3916095599	 0.072356
H	-0.6696853455	-1.7558862499	 2.5372894608	 0.079289
H	 1.0032726968	-0.1817723867	 1.4920406819	 0.072355
H	 0.8417125416	 0.7374533779	 3.0291802755	 0.133569
