18
gdb 30895	2.2874	1.31448	0.87649	2.5893	78.75	-0.1646	0.0447	0.2094	1307.2288	0.148773	-435.285194	-435.275539	-435.274595	-435.319683	35.745	
N	 0.1587457519	 1.3957867722	 0.0283293591	-0.605969
C	 0.0212661082	 0.0004114913	-0.0386612681	 0.315276
C	-1.052749088	-0.824623457	 0.2162566815	-0.289879
C	-0.5821540784	-2.1720498182	 0.1154588216	 0.187264
N	-1.3720764035	-3.3111773294	 0.3621944287	-0.612304
C	 0.7567717707	-2.1312456988	-0.2160240299	 0.186988
C	 1.7687905477	-3.1898520958	-0.4432292309	-0.184073
O	 2.8749380454	-3.1253704604	 0.4694936385	-0.423157
N	 1.1044519576	-0.77773002	-0.324008221	-0.336612
H	 0.471422275	 1.8006033378	-0.8484143084	 0.244359
H	-0.7146982854	 1.8341170802	 0.2902813966	 0.247838
H	-2.0640257739	-0.5094050059	 0.4260324813	 0.074086
H	-2.3260525906	-3.1883839077	 0.0466022057	 0.239153
H	-0.9972972471	-4.1477449929	-0.0664812314	 0.235702
H	 1.2813115233	-4.1764539161	-0.403701764	 0.082169
H	 2.2363558878	-3.1062435665	-1.432943749	 0.105986
H	 2.4942159517	-3.0741254886	 1.3536157441	 0.275452
H	 2.0552852079	-0.4520290343	-0.2732020944	 0.25772
