17
gdb 79995	2.28147	2.07013	1.65992	2.039	71.44	-0.2259	-0.004	0.2218	895.0997	0.136214	-421.805348	-421.797916	-421.796972	-421.83645	30.882	
O	-0.260461899	 1.3794392355	-0.1339515499	-0.442931
C	-0.135118715	-0.0134104118	 0.0127358175	 0.090579
C	 0.2557233047	-0.5857057736	 1.4298538352	-0.185578
C	-0.9532971909	-0.0748367666	 2.230360489	-0.061605
C	-2.015997132	-0.1507511845	 1.4342172689	-0.147811
C	-1.5369708145	-0.703088362	 0.074670656	 0.349784
O	-2.3855396259	-0.5385770022	-1.0232764775	-0.523935
C	-1.0405980485	-2.1329376324	 0.288192563	-0.099301
C	 0.0250674447	-2.0661337145	 1.0899504372	-0.093532
H	 0.5569897574	 1.7195548562	-0.5075709903	 0.288326
H	 0.4861236282	-0.4398301703	-0.7826143959	 0.074304
H	 1.2390788446	-0.3315352967	 1.8257028926	 0.058717
H	-0.9085734777	 0.2390429688	 3.26436112	 0.099816
H	-3.0527151729	 0.0726921514	 1.6468727094	 0.101206
H	-2.4344619557	 0.4102573821	-1.1903100498	 0.282751
H	-1.514299838	-2.9969958077	-0.1568981174	 0.108242
H	 0.6331870204	-2.8809831016	 1.4587612122	 0.10097
