12
gdb 129289	3.26878	1.54812	1.18675	2.005	66.46	-0.2796	-0.1138	0.1659	967.3519	0.076825	-468.76278	-468.755565	-468.754621	-468.794935	26.19	
N	-0.0517037336	 1.1122388886	 0.6511792395	-0.458574
C	-0.0012170217	 0.0116885853	 0.0264039961	 0.357296
O	 1.1605715682	-0.7121165503	-0.0922071584	-0.273992
N	 1.5275664603	-1.2330728965	-1.3956080388	-0.064101
C	 0.7577188099	-2.1564119834	-1.8049447342	-0.040189
C	-0.4419368942	-2.6753235821	-1.0449589813	 0.382783
O	-0.5028437135	-3.8221158929	-0.6897339333	-0.284188
N	-1.4799140301	-1.7505384286	-0.889078394	-0.231478
C	-1.2746312028	-0.5642295977	-0.4788834536	 0.019241
H	 0.8812583442	 1.3938817682	 0.9615262418	 0.250723
H	 1.0419684315	-2.6262831459	-2.7443244022	 0.174259
H	-2.1116899583	 0.1315566654	-0.4369403616	 0.16822
