17
gdb 80940	2.53768	1.35468	1.23504	3.9617	73.55	-0.2687	0.0131	0.2818	1088.0309	0.136239	-417.957268	-417.949104	-417.94816	-417.989838	31.296	
C	 0.0398806839	 1.4413176395	-0.0179649543	-0.522019
C	 0.0196247228	-0.0542705042	 0.0569156236	 0.27254
N	 0.6799322075	-0.9496434013	-0.9904458521	-0.391401
C	 0.0629785912	-1.9098188138	 0.0076259927	-0.087009
C	 0.6992199656	-1.0049137669	 1.105535009	 0.165734
O	 2.0755837155	-0.9662944413	 1.2286668999	-0.44614
C	-1.217819097	-1.0217945275	 0.062264481	-0.191453
C	-2.1105931101	-1.0650952726	 1.2103799584	 0.268983
N	-2.8205925614	-1.0889301075	 2.1230721199	-0.333764
H	 1.071898321	 1.8008561406	 0.0371824776	 0.144537
H	-0.4046814818	 1.805026992	-0.9501393504	 0.127114
H	-0.5193845967	 1.8701261337	 0.8191495531	 0.146452
H	 0.1445105288	-0.9397778068	-1.8632927309	 0.215382
H	 0.1129516723	-2.9907673476	-0.1201091334	 0.103572
H	 0.2542702319	-1.0423669184	 2.0996249077	 0.116652
H	 2.4143957494	-0.9491457114	 0.3206341887	 0.292985
H	-1.7887287131	-1.0131219265	-0.8699806404	 0.117837
