18
gdb 47222	2.40771	1.80392	1.23746	3.226	79.5	-0.241	-0.0097	0.2312	1037.607	0.150217	-401.939461	-401.93192	-401.930976	-401.971576	29.744	
N	-0.0687523202	 1.2912761915	 0.3376400747	-0.510616
C	-0.0304504164	 0.0556899614	 0.0416658115	 0.374933
O	 1.1789890176	-0.5591396086	-0.0880214884	-0.257403
C	 1.3701278425	-1.9652156838	-0.305619068	-0.145625
C	 0.7901596931	-2.4999939569	-1.5883153985	-0.107174
C	-0.4875814639	-2.3904700824	-1.9549891349	-0.028719
C	-1.5832985214	-1.7536137618	-1.1899159859	-0.078546
C	-1.7508761057	-1.9940738685	 0.2964776919	-0.317818
C	-1.3359118473	-0.6272973679	-0.1875708685	-0.067009
H	 0.883044734	 1.6429772323	 0.4627723173	 0.214918
H	 2.4572234389	-2.0697025595	-0.3223424265	 0.12499
H	 1.0163786954	-2.5228960385	 0.5700539281	 0.120542
H	 1.4859770077	-3.0020822089	-2.2534763613	 0.099919
H	-0.7799942156	-2.8006919836	-2.9184822064	 0.097518
H	-2.5058390598	-1.6451899635	-1.7498581676	 0.099923
H	-2.7591580323	-2.0853202276	 0.6840045076	 0.126507
H	-1.0326978671	-2.6339646697	 0.7904787396	 0.128286
H	-2.1158751195	 0.1226488662	-0.1508697249	 0.125375
