21
gdb 75408	2.31266	1.60582	1.10102	1.5163	85.74	-0.2324	0.0061	0.2386	1172.7734	0.183558	-387.082863	-387.074109	-387.073165	-387.116187	33.734	
C	-0.1720863055	 1.5592563747	-0.0149432087	-0.477766
C	 0.0714558437	 0.074217225	-0.0493071465	 0.292797
C	 0.1751910373	-0.6032783185	-1.1963206875	-0.144818
C	 0.4142100284	-2.0871287731	-1.389217256	-0.305519
C	-0.3224094559	-3.1147910855	-0.5580994655	-0.024003
C	-1.3213149351	-2.992927708	 0.3191110568	-0.091012
C	-2.0052914497	-1.7216521964	 0.7665684451	-0.112683
O	-1.2565737258	-0.9583599814	 1.7158867827	-0.256934
C	 0.0652483504	-0.6232472154	 1.2931576763	-0.15683
H	 0.6368221161	 2.0808149784	 0.513048244	 0.121499
H	-0.254758783	 1.9855992633	-1.0183325678	 0.116019
H	-1.095913603	 1.7824807316	 0.5332155112	 0.136311
H	 0.1210851726	-0.0346312546	-2.1236022892	 0.080975
H	 0.2191778446	-2.3284995164	-2.4439891195	 0.118367
H	 1.4909036948	-2.2939532604	-1.2739488278	 0.124329
H	 0.0495984948	-4.1239977783	-0.7371855666	 0.087479
H	-1.6644155967	-3.9051285776	 0.802000674	 0.086609
H	-2.2637634066	-1.1014391338	-0.1001396462	 0.100111
H	-2.9350317764	-1.9638792428	 1.2879685977	 0.104376
H	 0.698183942	-1.5188516385	 1.2734770844	 0.098799
H	 0.4464578529	 0.0390090779	 2.0768601188	 0.101893
