19
gdb 92725	3.2692	1.303	1.03676	1.6887	76.9	-0.2357	0.0026	0.2382	1181.6645	0.159394	-423.023807	-423.015393	-423.014449	-423.056555	32.585	
C	 0.1673533074	 1.4981504159	 0.1097361224	-0.495423
C	-0.0063897325	 0.0110948172	-0.0263516574	 0.359617
C	-0.0887310028	-0.6261266413	-1.1979104758	-0.190228
C	-0.2301505119	-2.122014794	-1.3077432808	-0.291712
C	-0.9910520171	-2.7609394946	-0.1300310854	 0.107993
O	-0.8599848095	-4.1771021014	-0.1305558603	-0.439685
C	-0.5794870207	-2.1656235346	 1.1978424563	 0.009234
O	 0.8168437449	-1.9072539842	 1.3743814288	-0.265978
C	-0.0843122129	-0.7820417977	 1.2365389309	-0.059145
H	 1.0979239283	 1.7416215768	 0.6380701642	 0.132586
H	 0.19213213	 1.9883506956	-0.8666746323	 0.124581
H	-0.6484065623	 1.9451259394	 0.6924552519	 0.125721
H	-0.008326306	-0.0613279278	-2.1234634926	 0.088461
H	-0.7266302712	-2.4017044612	-2.241707734	 0.111337
H	 0.7701943094	-2.5762888956	-1.3448007907	 0.117104
H	-2.0664075358	-2.5780895015	-0.2502583989	 0.09636
H	 0.0663628529	-4.3755025542	 0.0496715231	 0.284909
H	-1.0805284624	-2.5827461935	 2.071782912	 0.095931
H	-0.2023059976	-0.2155379934	 2.1593650984	 0.088337
