23
gdb 79963	1.79815	1.73216	1.52957	0.2003	90.4	-0.2203	0.0219	0.2421	1117.8136	0.205736	-351.16317	-351.153941	-351.152997	-351.196122	36.588	
C	 0.2460200274	 1.7922336019	-0.3591096524	-0.42072
C	 0.3117014111	 0.2853451237	-0.2339880535	-0.041391
C	 1.5782279895	-0.5372888258	-0.452754406	-0.150838
C	 2.8724473063	 0.1724446089	-0.2468340952	-0.08628
C	 3.0221687397	 0.5737505271	 1.0175848783	-0.090183
C	 1.87569964	 0.1209478087	 1.9022222172	-0.076608
C	 1.2904746236	 1.1980539859	 2.8290854525	-0.405245
C	 0.8888685379	-0.527408809	 0.9103238134	 0.315242
C	 0.0959461265	-1.70978783	 1.4203113295	-0.483492
H	 1.1758159502	 2.2745879566	-0.0518291013	 0.124423
H	 0.0541991329	 2.0748451212	-1.4009031655	 0.108781
H	-0.5679225976	 2.2050400993	 0.247063978	 0.112889
H	-0.5672961737	-0.1998181164	-0.6561954241	 0.076975
H	 1.5314660252	-1.3926267939	-1.120280309	 0.076803
H	 3.5759823556	 0.3580134844	-1.0513747942	 0.090747
H	 3.8560499388	 1.1515094893	 1.4029334341	 0.087813
H	 2.2494105951	-0.6824889973	 2.5586175714	 0.076204
H	 0.9283322452	 2.065868723	 2.2736145031	 0.122717
H	 0.4534443654	 0.7953948078	 3.4091426475	 0.113473
H	 2.0460442424	 1.5472598975	 3.541195251	 0.109182
H	-0.6004770501	-1.4114774144	 2.214239639	 0.11457
H	-0.4967989939	-2.1692640391	 0.6228240703	 0.111686
H	 0.7552006026	-2.4825572494	 1.833639596	 0.113251
