18
gdb 65339	3.65302	1.0196	0.96664	4.2054	78.17	-0.267	0.0242	0.2912	1274.0734	0.146677	-401.934429	-401.925524	-401.92458	-401.968215	33.398	
O	 0.1314596274	 1.3660781175	-0.1761822826	-0.451916
C	 0.0676984852	-0.0233836475	-0.0830153003	 0.389268
C	 1.1326339231	-0.7334249923	-0.8516383627	-0.318436
C	 1.2112233571	-0.7188751988	 0.6749651718	-0.256174
C	 2.1817527973	 0.0946293043	 1.3434330969	 0.280278
N	 2.9334055734	 0.7723651774	 1.9053881469	-0.339307
C	-1.3092629899	-0.6084022528	 0.0273451866	-0.035728
C	-2.4003478352	 0.1154738501	 0.7774172502	-0.280338
C	-2.4552395518	 0.0179917851	-0.7263049226	-0.265412
H	 0.1026477304	 1.7421996267	 0.7113251514	 0.301092
H	 0.9030253817	-1.6855994516	-1.3157787386	 0.130144
H	 1.8417992993	-0.109728638	-1.3814905591	 0.14974
H	 0.9661037445	-1.6411032079	 1.191060076	 0.134475
H	-1.3139808873	-1.6921925168	 0.1017289512	 0.086177
H	-3.0904010024	-0.4769289483	 1.3671550815	 0.118148
H	-2.1721738284	 1.086960985	 1.2019168643	 0.109385
H	-2.2393855787	 0.9203390152	-1.286057217	 0.133262
H	-3.1881630156	-0.6393356672	-1.1798445539	 0.115343
