14
gdb 33487	2.27862	1.78095	1.22702	5.2198	70.37	-0.2841	-0.0366	0.2475	1000.0096	0.101211	-395.690728	-395.683092	-395.682147	-395.722922	28.298	
N	 0.0278806485	-1.1964885341	-0.0825506437	-0.32593
C	-0.0004356652	-0.0417001728	-0.0636517214	 0.301281
C	-0.0020383486	 1.4200543874	 0.0252103507	 0.014195
C	-0.2586208039	 2.0288668864	 1.454573211	-0.299063
C	 1.1557208824	 2.5882212514	 1.3713328576	-0.001734
C	 2.1425394988	 1.5307800415	 1.1037882218	-0.246244
N	 1.3777050267	 2.0662695958	-0.0468511861	-0.141763
C	-0.8715806259	 1.9903975885	-1.0048878579	 0.291083
N	-1.574443417	 2.4632349582	-1.7891611188	-0.316828
H	-1.04211045	 2.7845905929	 1.423844192	 0.158335
H	-0.4659908666	 1.3118907541	 2.2509105534	 0.144837
H	 1.4339294495	 3.6010397696	 1.6375793932	 0.123504
H	 3.186357538	 1.820425677	 1.0486881496	 0.149309
H	 1.9696030034	 0.5090410541	 1.4317465088	 0.149018
