21
gdb 73926	2.65949	1.12476	0.88527	2.6124	87.11	-0.2238	-0.0191	0.2047	1372.4359	0.181485	-387.127418	-387.117726	-387.116782	-387.163199	34.71	
C	-0.1541115817	 1.4735866293	-0.1206479932	-0.504781
C	-0.0582154908	-0.0197363762	-0.0902037168	 0.248245
C	-1.0605063888	-0.9076056003	-0.0156535406	 0.198615
C	-2.5367710932	-0.5888643011	 0.0482400683	-0.391087
C	-3.0567391886	-0.3017298529	-1.3489636987	 0.169906
O	-3.5096602978	 0.7554459782	-1.7061154671	-0.244523
C	-0.5524235431	-2.3336361303	 0.0306052701	-0.303417
C	 0.94445117	-2.1989841876	-0.3374239419	-0.20917
C	 1.2890100448	-0.7126539775	-0.0801337061	-0.286201
H	 0.3376957571	 1.9167244495	 0.7555449141	 0.124242
H	 0.3625536138	 1.8771620174	-1.000531933	 0.129054
H	-1.1867203141	 1.8279427969	-0.152549061	 0.139863
H	-3.0838635516	-1.4506869362	 0.4519419813	 0.117528
H	-2.7530609997	 0.2795232701	 0.6758716762	 0.125257
H	-2.956678455	-1.1530901508	-2.0605411259	 0.075921
H	-0.6950790858	-2.7544550454	 1.0376102795	 0.103328
H	-1.0929753194	-3.0014779665	-0.6517614214	 0.098815
H	 1.5829655059	-2.8878185048	 0.2210723067	 0.098157
H	 1.0792976652	-2.4249170272	-1.3997959508	 0.10594
H	 1.9764558857	-0.3037218723	-0.8304628221	 0.100871
H	 1.7817560873	-0.5653900623	 0.8925620724	 0.103437
