17
gdb 108392	2.36437	1.46724	1.12787	4.6961	73.46	-0.2394	0.0327	0.272	1121.1711	0.135623	-417.953032	-417.944399	-417.943455	-417.986643	31.422	
C	 0.2218886121	 1.3741765361	 0.1351288586	-0.264323
O	-0.1568305753	 0.0199261472	-0.0973213082	-0.272619
C	 0.4826420683	-0.5565876729	-1.1584390565	 0.395456
C	 0.0812529527	-0.4240285446	-2.6369719826	-0.261251
N	 0.5377175497	-1.8406847026	-2.8817384787	-0.313313
C	 0.790574158	-2.0008426654	-1.4414300216	-0.11841
C	 1.924830575	-1.0627990751	-1.0416548954	-0.261793
C	 2.9843460216	-0.6794084006	-1.9329515411	 0.312602
N	 3.835321689	-0.3400951828	-2.6395240523	-0.348359
H	 1.2989320266	 1.4560341751	 0.3301236789	 0.126073
H	-0.0332821294	 2.0152701834	-0.7185335173	 0.124778
H	-0.3334185266	 1.7085460301	 1.0129421048	 0.137628
H	-1.0017517383	-0.304276878	-2.7298790529	 0.121311
H	 0.5980572127	 0.3182660014	-3.2511586088	 0.131664
H	-0.2427379784	-2.4186968778	-3.1751132116	 0.233761
H	 0.5961685118	-2.9164845833	-0.896808843	 0.118862
H	 2.2201803006	-1.1814563901	-0.0030560623	 0.137934
