22
gdb 13143	3.57308	1.19041	0.99684	0.97	79.07	-0.2497	0.083	0.3327	1270.8077	0.19961	-350.186593	-350.177317	-350.176373	-350.220696	33.778	
C	 0.3000841212	 1.3481596548	-0.1589487535	-0.226021
O	 0.0903598776	-0.0330991858	-0.0042099342	-0.231297
C	 0.7835747043	-0.5759155526	 1.1012098942	-0.062475
C	 0.4914780548	-2.0661300675	 1.1554333665	-0.019083
C	 1.1854686982	-2.8714998552	 0.0200570252	-0.214068
C	 2.2911144928	-3.2910158308	 1.0256827454	-0.226821
C	 1.3444267481	-2.8781677066	 2.1883877008	 0.040353
C	 1.9257066796	-2.2109356874	 3.4281399085	-0.414392
H	 1.3635068359	 1.586514757	-0.324085867	 0.100259
H	-0.2724949239	 1.6724629359	-1.0316857043	 0.124697
H	-0.0422514781	 1.9168305096	 0.7209023114	 0.10063
H	 1.8666197016	-0.3862662968	 0.9963909818	 0.079013
H	 0.4613308829	-0.0816120705	 2.0340770212	 0.082043
H	-0.5920240384	-2.1944184385	 1.2356301396	 0.068658
H	 0.5814155438	-3.7216070279	-0.3076319955	 0.096796
H	 1.4865882173	-2.3012275099	-0.8613584247	 0.102878
H	 2.6366317081	-4.3277553762	 1.0018354048	 0.091564
H	 3.1687292042	-2.6387665416	 0.9682484322	 0.095691
H	 0.7589239592	-3.7516319231	 2.4972569952	 0.072296
H	 2.5328035678	-1.3351112079	 3.1754975437	 0.112983
H	 1.1390064893	-1.8847911356	 4.1179013602	 0.113546
H	 2.5714191739	-2.9090499333	 3.9727866586	 0.112751
