19
gdb 83748	2.84236	1.54496	1.38978	2.113	74.83	-0.2318	0.0723	0.3041	1017.9485	0.160321	-422.99507	-422.987484	-422.98654	-423.026844	30.937	
O	 0.0663150644	 1.3849082771	-0.1075288965	-0.43597
C	-0.0156441648	-0.0007469382	 0.0128187007	 0.130025
C	-0.4296991041	-0.69984364	 1.2838611368	-0.131023
C	-1.2009582511	 0.1509279214	 2.2758914376	-0.121474
O	-2.1674186154	 0.8716615918	 1.4935684494	-0.315247
C	-2.533353801	 0.0445840272	 0.3977701443	 0.452245
C	-3.9307827153	-0.5104694731	 0.353682667	-0.335195
C	-3.5131931454	 0.6312720049	-0.5628633654	-0.331334
C	-1.3201495652	-0.7625580339	 0.0410503083	-0.204308
H	-0.6988160486	 1.7574935767	 0.3522833106	 0.297808
H	 0.79126593	-0.4658379817	-0.54445454	 0.105206
H	 0.1202677075	-1.5579138041	 1.6531820261	 0.091322
H	-1.6994663161	-0.4798629652	 3.0258041801	 0.105474
H	-0.5936724335	 0.8999422762	 2.7937018753	 0.118256
H	-4.0928978696	-1.4933150941	-0.0764595937	 0.112774
H	-4.5810043534	-0.2600447276	 1.1843359849	 0.122417
H	-3.9000110044	 1.6179163818	-0.3336458747	 0.125681
H	-3.3766408652	 0.4292146655	-1.6193175444	 0.12197
H	-1.4496524087	-1.6666705547	-0.5424408266	 0.091373
