14
gdb 4988	3.40431	2.2483	1.35405	2.339	67.07	-0.2064	0.0084	0.2148	845.2532	0.108805	-382.610925	-382.604211	-382.603267	-382.641387	26.49	
O	 0.0777567771	 1.3722895593	-0.086225812	-0.447478
C	 0.0618913296	 0.0125813766	-0.0584430002	 0.330001
C	-0.0219390415	-0.7102099355	-1.2415215481	-0.195913
C	-0.0382597807	-2.1048197824	-1.2111865713	-0.110301
C	 0.0292118673	-2.7813261695	 0.001670196	-0.114712
C	 0.1137278825	-2.0600606065	 1.1942732565	-0.235913
C	 0.1299023174	-0.6731890661	 1.1641365973	 0.262409
O	 0.2105091266	 0.1281618083	 2.2776912023	-0.471715
H	 0.1404334997	 1.6803839043	 0.8266435357	 0.307425
H	-0.0736089533	-0.1641234516	-2.1766722337	 0.103753
H	-0.1040023723	-2.6578549657	-2.1415581346	 0.093614
H	 0.0168542452	-3.8648834085	 0.0302053823	 0.092828
H	 0.1670946864	-2.5758938561	 2.1496519062	 0.083959
H	 0.253568756	-0.4186011466	 3.0676354435	 0.302043
