22
gdb 119581	2.91663	1.07916	0.91697	2.5816	83.87	-0.2245	0.0711	0.2955	1392.1935	0.193269	-404.295014	-404.28533	-404.284386	-404.329932	35.698	
C	-0.0503286264	 1.3867799213	-0.2503699502	-0.219579
O	-0.0618936144	-0.0198065658	-0.2882421478	-0.230113
C	-1.2830404176	-0.5699802676	 0.1684521064	-0.203711
C	-1.1837681246	-2.0574786098	 0.1637710592	 0.357796
N	-1.2565210628	-2.8438571929	-1.092372503	-0.364478
C	-2.2396112128	-3.0941094074	-0.0116387629	-0.122904
C	-1.5475667731	-4.0386426078	 0.9759705773	-0.237918
C	-0.4340740512	-2.9426943123	 1.181369645	-0.01242
C	 1.0160945325	-3.2936769259	 0.8857178505	-0.406471
H	 0.9265272541	 1.7160042768	-0.6122989688	 0.129437
H	-0.8324240245	 1.8206646872	-0.8944084997	 0.101455
H	-0.1995382308	 1.7710145408	 0.7716569083	 0.102655
H	-1.5018157656	-0.209228578	 1.1889771726	 0.087543
H	-2.1200868241	-0.2426427353	-0.4755567616	 0.077767
H	-1.7078000384	-2.2514635878	-1.7896509668	 0.224155
H	-3.3017902992	-2.9756024002	-0.1927828315	 0.088949
H	-2.1264059354	-4.2306576489	 1.8820576237	 0.097072
H	-1.2165645173	-4.9865941652	 0.5437576685	 0.10557
H	-0.5290232295	-2.5072789264	 2.1819864952	 0.067042
H	 1.1084858189	-3.6969409279	-0.1259201434	 0.136393
H	 1.6511157572	-2.4045707568	 0.9571573859	 0.118666
H	 1.3936295949	-4.0403231002	 1.5930853132	 0.103094
