15
gdb 7338	4.7895	1.11783	0.91668	0.6168	59.59	-0.2433	-0.0645	0.1788	1212.1309	0.116251	-436.966795	-436.957737	-436.956793	-437.001235	30.724	
C	 0.0093333448	 1.3809163249	-0.0393386074	-0.226562
O	-0.0003390926	-0.0285500446	 0.0026239698	-0.220214
C	 0.6290349374	-0.6035357882	-1.100077606	-0.150265
C	 0.5819472955	-2.1117444803	-0.99015716	 0.263824
O	 0.0738564597	-2.7193893307	-0.0803271732	-0.287527
C	 1.254886681	-2.8530259109	-2.1676914395	 0.328406
N	 1.188886191	-4.193520627	-2.0286302208	-0.520595
O	 1.7699859721	-2.2463188833	-3.0887441486	-0.352433
H	 1.0347528096	 1.7820416958	-0.0474726748	 0.109072
H	-0.5178100131	 1.7665471558	-0.9258261413	 0.109072
H	-0.5023900054	 1.7327411945	 0.8589669205	 0.134642
H	 0.1602082278	-0.3171992	-2.058177711	 0.130415
H	 1.6873089329	-0.3020212895	-1.1944723653	 0.130419
H	 0.7331597512	-4.5734139871	-1.2142539532	 0.281151
H	 1.590821118	-4.7952586393	-2.7270227194	 0.270596
