19
gdb 66514	4.15393	1.5626	1.43356	1.265	86.17	-0.1911	-0.0293	0.1618	973.3486	0.159696	-348.637429	-348.630428	-348.629484	-348.668184	29.553	
C	 0.1246914959	 1.521554627	-0.0491478674	-0.529269
C	-0.0070717062	 0.0379290916	 0.0552459427	 0.354136
C	 0.4053264728	-1.0913681311	-0.8718250743	-0.133529
C	 0.8586570007	-1.0198375837	 0.6651751385	-0.172725
C	-0.3052270324	-1.8311697189	 1.1908896929	 0.075896
C	-0.520170395	-3.1334280181	 0.9189690522	-0.124515
C	-1.3109497424	-3.1799639617	-0.3919736619	-0.264981
C	-1.0353196351	-1.7197200777	-0.9033787377	-0.015121
C	-1.2299125808	-0.8823422813	 0.3782304005	-0.155267
H	 1.1414668643	 1.8056363726	-0.3417777236	 0.121024
H	-0.5632879742	 1.9325063336	-0.7971601082	 0.120633
H	-0.0928167799	 2.0090536784	 0.908343063	 0.123158
H	 1.1539330554	-1.0773713436	-1.6563810513	 0.081346
H	 1.9160427512	-0.9998082091	 0.9033377446	 0.088347
H	 0.1949177311	-3.9154432733	 1.1565850441	 0.090437
H	-0.9111048681	-3.983560738	-1.0221406843	 0.104728
H	-2.3976468266	-3.3387507317	-0.3329215032	 0.105839
H	-1.5816138529	-1.4248597859	-1.8056859473	 0.060221
H	-2.198642898	-0.562708259	 0.7590994807	 0.069642
