14
gdb 23254	2.96179	1.52003	1.08863	2.6412	67.18	-0.2448	-0.0744	0.1704	1044.6637	0.1003	-473.777538	-473.770117	-473.769173	-473.809722	27.973	
O	-0.0328238909	 1.2896370889	 0.2373387876	-0.339194
N	 0.0207805386	-0.0770161343	 0.1028644923	-0.224669
C	-1.1262966862	-0.6360991489	-0.0015862898	 0.319146
C	-1.2385578288	-2.1025575707	-0.1852429587	-0.054258
O	-2.0741047483	-2.7105752515	 0.8230676961	-0.250975
C	-2.6537693521	-2.4302328422	-0.4512287933	 0.032402
C	-3.4904110106	-1.1699179596	-0.4498167769	-0.354875
C	-2.5234121255	-0.0479604911	-0.0216979842	 0.326678
O	-2.8352911171	 1.0870139313	 0.2230036177	-0.289163
H	 0.8998234589	 1.5311116789	 0.2917848126	 0.319328
H	-0.3952008451	-2.6899256068	-0.5305128793	 0.117086
H	-2.9414330838	-3.2957512161	-1.0415037253	 0.109764
H	-3.8794017983	-0.9367445981	-1.4482859697	 0.138485
H	-4.3417219809	-1.2220748898	 0.2342183409	 0.150246
