17
gdb 109419	2.22506	1.62613	0.98388	1.4329	75.92	-0.2483	-0.0943	0.154	1173.582	0.135502	-421.884489	-421.875988	-421.875044	-421.918245	31.004	
C	 0.0474652058	 1.5966277532	 0.1360797716	-0.394596
C	 0.0370126805	 0.071430538	 0.006100358	-0.179269
C	-1.3800580912	-0.5262555404	-0.0732082235	-0.245068
C	-2.1090438585	-0.304670568	-1.4012848659	 0.378867
O	-2.2741498419	 0.7448340715	-1.9775542097	-0.314033
C	-2.5797118442	-1.636752068	-1.8878565723	-0.154975
C	-2.1885367034	-2.6135507802	-1.0568509877	-0.164559
C	-1.4038173205	-2.0508906784	 0.0813015078	 0.374765
O	-0.8686460601	-2.6901943676	 0.954658682	-0.316806
H	 1.0743706459	 1.9728907102	 0.1701743932	 0.113986
H	-0.4672785971	 2.0665458414	-0.7049845527	 0.148645
H	-0.4547058897	 1.9129357657	 1.0572029761	 0.114252
H	 0.6030772367	-0.2336004465	-0.8828374622	 0.10366
H	 0.5345482996	-0.3919182455	 0.8648598083	 0.125312
H	-1.9916369423	-0.0959551668	 0.7321652731	 0.13104
H	-3.1490682689	-1.7369007795	-2.804179659	 0.138989
H	-2.3726526308	-3.6768659392	-1.1532759771	 0.139789
