15
gdb 61744	2.11355	1.36547	0.86138	2.0801	69.75	-0.2781	-0.0787	0.1994	1269.261	0.10786	-457.758818	-457.749009	-457.748064	-457.795391	33.181	
C	-0.2312993704	 1.5564744718	 1.6702032668	-0.398119
C	-0.1342439128	 0.559434962	 0.5267177135	 0.001407
O	 0.5603972757	-0.6134975238	 0.9612750938	-0.182588
C	 1.6449023458	-1.0207725846	 0.2660230078	 0.174802
O	 2.2660096223	-1.9952744302	 0.5563501181	-0.266525
C	-1.5169480871	 0.1534882797	-0.0173016656	 0.220103
O	-2.4858791525	 0.8646005461	 0.1172150076	-0.281384
C	-1.5662953022	-1.1035161079	-0.7360123676	 0.273718
C	-1.604604165	-2.13560525	-1.3542754855	-0.393356
H	 0.765982763	 1.8987715507	 1.9558904487	 0.127419
H	-0.8358147288	 2.4116075501	 1.3638578184	 0.150401
H	-0.7060785556	 1.0910967372	 2.5373605794	 0.147395
H	 0.4074027293	 1.0049477201	-0.3235995084	 0.118491
H	 1.8853817506	-0.3489116395	-0.5814133334	 0.082645
H	-1.6465964222	-3.0508122317	-1.8944855737	 0.225591
