12
gdb 131070	5.49948	1.05462	0.89082	4.4797	65.21	-0.2609	-0.0942	0.1667	1182.1599	0.07796	-468.829822	-468.822755	-468.821811	-468.86223	24.654	
O	 0.0085618203	-0.0057042128	 0.1488884004	-0.238097
C	-0.0128574346	 1.1601928856	-0.070863265	 0.180323
O	 1.0902712744	 1.9445273076	 0.2220085041	-0.212624
C	 0.9971192227	 3.2937609763	 0.1431828501	 0.51344
N	 2.1622479215	 3.9150377684	-0.037925296	-0.267257
C	 2.0684330176	 5.2342816639	-0.0748156301	 0.000642
C	 0.8294010634	 5.8704036302	 0.0459663245	 0.012146
N	-0.2880357579	 5.1736991919	 0.2177065765	-0.155559
N	-0.2048796929	 3.8494278093	 0.2859598956	-0.264843
H	-0.8320214408	 1.7343538906	-0.520558527	 0.142303
H	 2.9886084721	 5.7976384946	-0.2086279099	 0.146576
H	 0.7244378642	 6.9487068044	 0.006644017	 0.142951
