19
gdb 50081	3.10416	1.04878	0.93062	3.0341	77.52	-0.2585	-0.0421	0.2163	1321.9884	0.158183	-422.997936	-422.989228	-422.988283	-423.03226	31.663	
O	-0.1640207166	 0.2388511547	-0.7651600583	-0.248369
C	 0.198096227	 0.9336156652	 0.1501489699	 0.142643
C	 1.3075636624	 1.934789224	 0.0887025511	-0.05006
O	 2.2455297279	 1.8335333382	-0.9760200996	-0.229466
C	 1.3785730574	 2.9576432914	-0.9985694901	 0.035764
C	 0.390205341	 3.0674716402	-2.1192872214	 0.019149
C	-0.7368587481	 4.1343110757	-1.9963934109	-0.240266
C	-0.5425716773	 4.4560718284	-3.5025147922	-0.209077
C	 0.851225619	 3.7764050641	-3.4287767144	-0.232524
H	-0.2982635639	 0.8881782373	 1.1461329585	 0.080717
H	 1.7303312864	 2.1997029045	 1.059522004	 0.103023
H	 1.8650563157	 3.8957117946	-0.7155789428	 0.095426
H	-0.0190262598	 2.0798283866	-2.3372735304	 0.113706
H	-1.7188805966	 3.7917555319	-1.6621363546	 0.104375
H	-0.4272334656	 4.9732140374	-1.3633819927	 0.097597
H	-1.2362524692	 3.8884346287	-4.1287427613	 0.109494
H	-0.5806140368	 5.5046481801	-3.8054085348	 0.098897
H	 1.6453851684	 4.5041051522	-3.2308356026	 0.099386
H	 1.1623358789	 3.1397222148	-4.2592236874	 0.109584
