18
gdb 22199	2.14522	0.90923	0.68507	3.3687	72.49	-0.245	-0.0315	0.2135	1605.4877	0.143926	-476.181713	-476.17126	-476.170316	-476.218679	35.903	
O	-0.0477722361	 1.3027364854	-0.0242639434	-0.424079
C	 0.1588937206	-0.1022900902	-0.049361272	-0.081079
C	-1.2201898932	-0.7441248004	 0.0314578766	-0.253944
C	-1.2321367112	-2.2477910686	 0.0248733814	 0.315962
C	-2.5762868796	-2.945689566	 0.0173306707	-0.359316
C	-2.9544036944	-3.3570196789	-1.4005727919	 0.157609
O	-3.9354975018	-2.9654327285	-1.9757892627	-0.231048
N	-0.1102782017	-2.8592723408	 0.0001571154	-0.159621
O	-0.2685024847	-4.25600537	-0.0227262	-0.405134
H	 0.8109235088	 1.7315346629	-0.0777902323	 0.287683
H	 0.6659917913	-0.42343017	-0.9703013763	 0.100447
H	 0.7773191067	-0.4382651024	 0.7946658577	 0.101409
H	-1.7264688105	-0.3875805858	 0.9388467801	 0.1294
H	-1.8351938512	-0.3811102684	-0.8033281568	 0.13664
H	-2.5037860929	-3.8563174932	 0.6226241487	 0.148817
H	-3.3598560543	-2.2942715509	 0.4089025719	 0.124813
H	-2.2340514398	-4.0531458828	-1.8775701781	 0.101503
H	 0.6432201741	-4.5652387012	-0.0001063792	 0.309939
