19
gdb 46797	2.67718	1.65514	1.28941	3.1957	74.47	-0.2328	-0.0242	0.2086	1024.5306	0.160877	-423.02697	-423.019454	-423.01851	-423.059066	29.885	
O	 0.0217719685	-0.0136386192	 0.5472049741	-0.293614
C	-0.0228894196	 1.1229489516	 0.1378463206	 0.359405
C	-1.3846698432	 1.8152126657	-0.0604387368	-0.163969
O	-1.6942380427	 2.2450561318	-1.3729993936	-0.263698
C	-0.7760712751	 3.0814259969	-2.0557452157	 0.135308
C	 0.5165714649	 2.3536393827	-2.5252519119	-0.246438
C	 1.2394318567	 2.9161705027	-1.2651749794	-0.019544
C	 0.1211136325	 3.995339493	-1.1759026316	-0.26555
C	 1.2588715948	 1.9254651071	-0.0973927365	-0.313549
H	-2.1531832319	 1.0873460708	 0.2053579663	 0.131877
H	-1.4415960179	 2.6528258958	 0.6551432229	 0.101683
H	-1.3708734743	 3.5704982742	-2.8303201609	 0.085811
H	 0.4490124258	 1.267822814	-2.6360715352	 0.112454
H	 0.903843195	 2.782584236	-3.4532612539	 0.102968
H	 2.2511141867	 3.2992322422	-1.4190795313	 0.075628
H	 0.393128317	 4.8981747584	-1.7284806802	 0.107368
H	-0.2427507544	 4.2963121122	-0.1903795777	 0.102436
H	 1.4606128287	 2.4668761423	 0.8394905156	 0.123624
H	 2.0643458084	 1.1947803417	-0.2161392248	 0.127799
