20
gdb 105701	2.54627	1.11846	0.88806	2.4734	75.76	-0.2512	0.0281	0.2793	1342.859	0.170468	-440.293585	-440.28379	-440.282846	-440.328988	35.576	
O	 0.4865067637	 1.0909570298	-0.5414395991	-0.419966
C	 0.0872820164	-0.1126929609	 0.1038413117	-0.1399
C	-1.4136818764	-0.3104969699	 0.1015195984	 0.333732
C	-2.2085124272	 0.813903929	 0.747123676	-0.242207
N	-1.9869112491	 0.9454275654	 2.1836794042	-0.269179
C	-2.7553896674	 0.3113941573	 3.1055268043	 0.159765
O	-3.6716136899	-0.4449679847	 2.8528418912	-0.327427
C	-2.0334698029	-0.9908693292	-1.1015901662	-0.323731
C	-1.9460189129	-1.7155263648	 0.2188182457	-0.308335
H	 0.158148109	 1.0512373355	-1.446291245	 0.282936
H	 0.577614048	-0.9907185981	-0.344381472	 0.087679
H	 0.4587219639	-0.0267175765	 1.1316443598	 0.105279
H	-1.9383551474	 1.7648981673	 0.2788938596	 0.11496
H	-3.2784540543	 0.6452992589	 0.6017246093	 0.131108
H	-1.2615800636	 1.5623118226	 2.5113064179	 0.254161
H	-2.4575046523	 0.5700210238	 4.1411910066	 0.076792
H	-3.0077511724	-0.6534490927	-1.4390854375	 0.117078
H	-1.375246425	-1.3126572561	-1.9030710406	 0.106081
H	-1.2288850051	-2.5258765411	 0.3033621066	 0.109255
H	-2.8514178251	-1.8493818056	 0.7986976692	 0.151918
