21
gdb 96450	2.4016	1.63027	1.11689	1.0826	78.29	-0.2457	0.0845	0.3302	1149.4663	0.183966	-424.216018	-424.207661	-424.206716	-424.248789	32.593	
C	 0.4569485872	 1.6309151083	-0.0026463803	-0.40379
C	-0.0604532271	 0.1819563573	-0.042280519	-0.038254
C	 0.4425083943	-0.5045577854	-1.3199021689	-0.078745
O	-0.1439519712	-1.7629241374	-1.5825956905	-0.251503
C	 0.4621865216	-2.8580844885	-0.9258286649	-0.081502
C	-0.0221018784	-3.0642209377	 0.5095515661	-0.247887
C	 0.332343169	-1.975781938	 1.4988094312	 0.047556
O	 1.5547140351	-1.2447807434	 1.3178171351	-0.265101
C	 0.3110093241	-0.5272142555	 1.2492427624	 0.070849
H	 1.550889482	 1.6536813932	 0.0527384065	 0.130003
H	 0.1518695763	 2.184277862	-0.8961596912	 0.115781
H	 0.0687139695	 2.1650148707	 0.8699174737	 0.1169
H	-1.1582615643	 0.2048658667	-0.0916674161	 0.088413
H	 0.1820020911	 0.1304285891	-2.1736844106	 0.099455
H	 1.5383635428	-0.5890599654	-1.2841466913	 0.10383
H	 0.2012685629	-3.7452127732	-1.5126837899	 0.101585
H	 1.556447291	-2.7546504585	-0.9380237439	 0.106059
H	-1.1124243607	-3.1907817225	 0.5104462211	 0.113825
H	 0.4009155769	-4.0109469014	 0.8722128133	 0.104788
H	 0.1643738425	-2.2728974432	 2.5371323806	 0.085745
H	 0.1348815852	 0.0941350328	 2.1318927066	 0.081992
