21
gdb 112268	2.49727	1.12868	0.84869	4.0497	79.05	-0.2661	0.0133	0.2794	1434.3778	0.181438	-424.2705	-424.260634	-424.25969	-424.305774	35.454	
C	-0.1858823415	 1.6130473572	 0.2751206732	-0.389811
C	-0.0755401723	 0.0999881384	 0.0596593142	-0.189838
C	 0.9052030059	-0.5477900638	 1.0172102366	 0.118256
O	 0.4388375797	-0.4577011754	 2.4160325696	-0.259085
C	 0.4347333613	-1.820648741	 2.5568425106	 0.459985
O	 0.0920962039	-2.4510276354	 3.5070991237	-0.330783
C	 0.967243459	-2.0927775915	 1.1476138429	-0.211526
C	 0.1335944961	-3.0093558586	 0.2512304122	-0.201461
C	 0.222807023	-4.4736271584	 0.697180266	-0.390809
H	 0.7778904522	 2.1079856216	 0.1131533367	 0.117292
H	-0.9096901563	 2.0549964361	-0.4152906249	 0.117973
H	-0.5090996743	 1.8332646476	 1.296280997	 0.142643
H	-1.059970981	-0.3654686756	 0.178732792	 0.110431
H	 0.2557392873	-0.1150220938	-0.9643683094	 0.106213
H	 1.8888009838	-0.0719129778	 0.947352366	 0.09256
H	 1.9989703965	-2.4578861074	 1.1919921584	 0.109818
H	-0.9136641088	-2.6883599674	 0.2587506964	 0.110411
H	 0.4830497442	-2.9087216067	-0.7836215833	 0.104313
H	-0.4027177183	-5.1119272006	 0.0666174283	 0.115274
H	 1.2519847165	-4.8434983738	 0.6326370499	 0.115884
H	-0.1070151169	-4.5828703036	 1.7339450039	 0.152262
