13
gdb 24551	4.04285	1.75091	1.22177	2.4469	75.26	-0.2388	-0.0822	0.1566	914.4926	0.093264	-415.651045	-415.645245	-415.6443	-415.681146	23.038	
O	-0.0425884898	 1.3452512803	 0.0097719015	-0.191149
C	 1.1425652881	 1.9921101375	 0.0017436099	 0.114795
N	 2.3114440338	 1.4611267876	-0.012325556	-0.272074
C	 2.4171037298	 0.0866068066	-0.0205777743	-0.084654
C	 1.2982970004	-0.6872405606	-0.0138609748	 0.225552
N	 1.1088691851	-2.0458980383	-0.0191954049	-0.340599
C	-0.2110852246	-2.1849386339	-0.007127417	-0.013898
C	-0.9658377589	-0.9563235525	 0.0065393952	-0.348014
C	 0.0103339074	-0.0055963949	 0.00215531	 0.377552
H	 0.9971257225	 3.065645742	 0.0087929977	 0.155941
H	 3.4213557915	-0.3232118578	-0.0324178521	 0.143107
H	-0.65459251	-3.1753780072	-0.0080785353	 0.115471
H	-2.0371554053	-0.8386002287	 0.0174640601	 0.117971
