17
gdb 54388	2.58958	1.44471	1.2137	2.9676	74.04	-0.2425	-0.0266	0.2159	1082.121	0.134539	-421.814279	-421.805851	-421.804907	-421.848101	30.841	
C	-0.0559864682	 1.4527513181	 0.1542293096	-0.500083
C	 0.0431378477	-0.05638438	 0.0774088138	 0.250201
O	 1.0971247288	-0.6528784841	 0.07486436	-0.294446
C	-1.2590404045	-0.7947187625	 0.0559744734	 0.120251
C	-2.4299685633	-0.7364126962	-0.9987712621	-0.274264
C	-2.9471854275	-1.7757210852	 0.0574376977	-0.176641
C	-1.4832147944	-2.3395878755	 0.0668503543	-0.268976
C	-2.4320987174	-0.7596065241	 1.0793280027	 0.428681
O	-2.7401903666	-0.2041476202	 2.0851762942	-0.321953
H	 0.9420733781	 1.8904916967	 0.1904360063	 0.144039
H	-0.6038462292	 1.8480848616	-0.7086396395	 0.138702
H	-0.6242675931	 1.734897407	 1.0487825031	 0.162314
H	-2.9796654415	 0.2004165023	-1.104264754	 0.121068
H	-2.1688528515	-1.1724333428	-1.9657727157	 0.122046
H	-3.8799877228	-2.3337887143	 0.0388345843	 0.104173
H	-1.1877121285	-2.8386159944	-0.8579705064	 0.119164
H	-1.1536164562	-2.8878507763	 0.9496598983	 0.125725
