19
gdb 114839	3.08149	1.48281	1.34418	0.9402	69.98	-0.2418	0.08	0.3218	1032.0779	0.161063	-460.154714	-460.14703	-460.146086	-460.187187	29.487	
C	 0.1710684721	 1.2876444329	-0.148628997	-0.239767
O	-0.1984772764	-0.0333291052	 0.1834337183	-0.235985
C	 0.5806182604	-0.605275725	 1.20406914	 0.108771
C	 0.140627614	-2.078311873	 1.4257359362	-0.261671
C	 1.4427781056	-2.8180526434	 1.0754730297	 0.035641
C	 1.7426219426	-2.6486959933	-0.4301676977	-0.083854
O	 2.1771494039	-1.2782762314	-0.4951176875	-0.260376
C	 2.0869089565	-0.8243386698	 0.8440250304	 0.144013
O	 2.4368838731	-1.9368058637	 1.6397799493	-0.253952
H	 1.1637556303	 1.329840619	-0.6166046463	 0.121376
H	-0.5683610756	 1.6574919597	-0.8629693324	 0.127566
H	 0.1671072095	 1.9448071632	 0.7354993549	 0.100789
H	 0.506071138	-0.0058486707	 2.1246094366	 0.068951
H	-0.1406677943	-2.2667276087	 2.463413042	 0.109851
H	-0.7007902413	-2.3269162958	 0.776120514	 0.118418
H	 1.5608883306	-3.8250166642	 1.4718972124	 0.089378
H	 2.552328124	-3.3019845188	-0.7729143382	 0.107782
H	 0.8588306068	-2.7969840723	-1.058887775	 0.111069
H	 2.77607049	 0.0040886306	 1.0039787603	 0.092002
