18
gdb 90820	3.82892	1.68	1.50356	1.581	73.04	-0.2346	0.0769	0.3115	921.1321	0.149855	-401.889265	-401.882706	-401.881762	-401.919993	27.166	
C	-0.0557269997	 1.5691573142	-0.0370151564	-0.403319
C	 0.0106036426	 0.0494236909	 0.0160238375	 0.133738
O	 0.7127199247	-0.4408994893	-1.1514847218	-0.294445
C	 1.7266559209	-1.30029286	-0.684027773	 0.119889
C	 1.2484306103	-2.5447081846	 0.0756390283	-0.086968
C	 2.090224179	-2.2332782265	 1.2560588673	-0.068901
C	 2.2457078609	-0.7873715346	 0.692728995	-0.129133
C	 0.809368928	-0.5214831642	 1.1890823884	-0.014797
N	 0.6181744853	-2.0179250061	 1.3406623289	-0.156573
H	 0.9436560084	 2.0081014372	 0.0491804889	 0.116856
H	-0.4863519805	 1.8923554931	-0.988640318	 0.130152
H	-0.6793302833	 1.9578864859	 0.7746350679	 0.115348
H	-1.0019511012	-0.3773504092	 0.0225921756	 0.090644
H	 2.4589416669	-1.4775559555	-1.4714231525	 0.088024
H	 0.8766612943	-3.4895866259	-0.2983147793	 0.09939
H	 2.6556870068	-2.85147851	 1.938131509	 0.103335
H	 3.0762895309	-0.0922856274	 0.7816497419	 0.07689
H	 0.6687211359	-0.021642008	 2.1475168424	 0.07987
