19
gdb 39397	2.44535	2.22517	1.50116	1.2963	75.24	-0.2373	0.0956	0.3329	921.5091	0.161432	-422.965981	-422.959131	-422.958186	-422.996702	28.942	
C	 0.0212402767	 1.5352270615	 0.0050253753	-0.44995
C	 1.2715082216	 0.68734531	-0.055424031	 0.106582
O	 2.1070897083	 0.4432163439	 1.0323859421	-0.27727
C	 2.4505653439	-0.9574912551	 1.1461342658	 0.013891
O	 1.7970357885	-1.8250679635	 0.2635921013	-0.264252
C	 0.3635323692	-1.949833309	 0.3020256953	 0.12859
C	-0.2926299793	-0.86814953	 1.1889249715	-0.292498
C	-0.0751137577	 0.0349184705	-0.0277557268	 0.307146
C	-0.2324778122	-1.1919930117	-0.9351641156	-0.306044
H	-0.2584817729	 1.993416096	 0.9484258155	 0.122961
H	-0.1966675823	 2.1392255405	-0.8702245247	 0.118445
H	 1.7789682546	 0.6948318781	-1.0207713589	 0.083125
H	 3.5137828823	-1.0739344904	 0.9088323654	 0.114121
H	 2.2769241948	-1.22601571	 2.197742622	 0.099773
H	 0.115516501	-3.0044795183	 0.449713342	 0.075664
H	-1.3520372748	-1.092283687	 1.346142689	 0.099521
H	 0.1680124965	-0.6006742771	 2.1395845836	 0.117475
H	 0.348462514	-1.2279024938	-1.8589963163	 0.105899
H	-1.2685083221	-1.4942166946	-1.1207039357	 0.096818
