20
gdb 40601	3.52852	1.30413	1.15333	1.5513	81.8	-0.2113	0.0627	0.274	1133.6656	0.171691	-365.892818	-365.885124	-365.884179	-365.925382	30.955	
C	-0.8369851939	 1.2397029936	-0.6775672894	-0.245067
C	 0.2765372009	 1.6524278096	 0.248017428	-0.288772
C	 0.0347933086	 0.1885577656	-0.0299099123	-0.033416
C	-0.4741384604	-0.6782828811	 1.0959022476	-0.004908
C	-1.7333149695	-1.452850648	 1.2617259185	-0.066183
C	-2.2725050955	-2.2618200344	 0.068196722	-0.072004
C	-1.4528916498	-2.1166161997	-1.1843558123	-0.299475
C	-0.9037338988	-2.8909424927	-0.015521769	-0.00432
N	-0.3935866867	-2.1563860987	 1.2114656149	-0.179105
H	-1.8552741481	 1.3287885537	-0.3142929495	 0.119762
H	-0.7247121432	 1.4247398234	-1.7408859638	 0.112119
H	 1.1593395597	 2.1182938201	-0.1754994376	 0.113801
H	 0.0021983543	 2.027684892	 1.2293541793	 0.112896
H	 0.7675196315	-0.2939163288	-0.6692680316	 0.106238
H	-0.1517677482	-0.28987938	 2.0638023127	 0.101693
H	-2.2876801692	-1.4183773752	 2.1962156623	 0.092354
H	-3.2445242021	-2.7356795594	 0.0896364881	 0.093126
H	-1.7856244293	-2.7751573923	-1.9829812777	 0.110867
H	-1.0685897414	-1.1704337256	-1.530473828	 0.128846
H	-0.6091405688	-3.929459982	-0.0924959522	 0.101545
