17
gdb 79371	3.32923	1.36668	1.10543	2.1611	79.74	-0.2345	0.0125	0.247	1116.1638	0.133955	-384.561883	-384.554031	-384.553087	-384.594016	30.942	
C	-0.1168735674	 1.6319378146	-0.0016276854	-0.418108
C	-0.0390533571	 0.1125369993	-0.0000384529	-0.022019
C	 1.1539513877	-0.5764165307	-0.7037961539	-0.153121
C	 2.1006612527	-0.3758032511	 0.5213954606	 0.037087
O	 2.5024809955	-1.7730690116	 0.6042006837	-0.36462
C	 1.0796997651	-1.8226995485	 0.2531438202	 0.447761
C	 0.4122282431	-3.0713311471	 0.0742609463	 0.099722
C	-0.1680962676	-4.1131005878	-0.0807565334	-0.379653
C	 0.6943260414	-0.5980227942	 1.1620520824	-0.153125
H	 0.8481267494	 2.0894168271	 0.2415468093	 0.114946
H	-0.4252737049	 2.0079688495	-0.9830767095	 0.121009
H	-0.8480571914	 1.9881143104	 0.7320340012	 0.121008
H	-1.0101351177	-0.3317796939	-0.2443954897	 0.082429
H	 1.4374624751	-0.6002741831	-1.7562010436	 0.089329
H	 2.851715864	 0.3864370319	 0.7152341975	 0.100027
H	-0.6747691551	-5.0366901268	-0.2162547777	 0.187998
H	 0.4567731572	-0.646381848	 2.224941375	 0.08933
