19
gdb 31153	2.01546	1.77219	1.00296	1.5235	80.21	-0.1729	0.0542	0.2272	1202.9404	0.158937	-419.226868	-419.216882	-419.215938	-419.261458	36.113	
C	 0.1497010653	 1.4122536805	 0.1114623533	-0.254305
O	-0.0612388377	 0.0071950519	-0.0066030867	-0.290623
C	 0.5688051915	-0.5580201133	-1.0880903781	 0.186152
C	-0.0399646561	-0.9667619974	-2.2570651877	 0.227113
C	-1.4707585477	-0.8902397939	-2.6669258871	-0.508823
N	 0.9471949671	-1.518427833	-3.0333092169	-0.317064
C	 2.1657640448	-1.4747191855	-2.3772103359	-0.177624
C	 1.95936161	-0.8772976116	-1.1551680891	 0.17155
N	 2.890954204	-0.5491208933	-0.1489017638	-0.618465
H	 1.2170897459	 1.6504017549	 0.1951798201	 0.130439
H	-0.264166705	 1.9475552862	-0.7532901353	 0.108576
H	-0.3684855489	 1.734775133	 1.0183205046	 0.117911
H	-1.621340081	-0.262649274	-3.5546040064	 0.121626
H	-1.8935965047	-1.8783311433	-2.8890738545	 0.122089
H	-2.0504023425	-0.4587495955	-1.8475807465	 0.144546
H	 0.8002387547	-1.9283785083	-3.9375383696	 0.253547
H	 3.0616219837	-1.8637176682	-2.8325931326	 0.102407
H	 3.7203105187	-1.128619971	-0.1891683101	 0.236537
H	 2.471614268	-0.6503247983	 0.7688800624	 0.24441
