18
gdb 56052	6.29647	0.61212	0.58577	0.4373	82.06	-0.2494	-0.0175	0.2318	1909.192	0.144975	-439.108914	-439.099315	-439.098371	-439.144823	33.496	
C	-0.20248364	 1.4432942189	-0.0621053521	-0.482974
C	 0.0797087862	-0.03208404	 0.028187009	 0.440393
O	 1.148663087	-0.5429230654	 0.2212365477	-0.330666
O	-1.0864809721	-0.7361447979	-0.1453888372	-0.221636
C	-1.0246581954	-2.1094821067	-0.0947205279	 0.092633
N	-2.089096597	-2.7566908652	-0.2530321071	-0.20181
C	-2.0212736747	-4.1751040759	-0.2000350898	 0.071589
C	-3.2162451537	-4.8952026401	 0.3841122062	-0.271062
C	-2.9693928267	-4.9387608183	-1.0976012409	-0.271062
H	 0.7237114007	 1.9993378694	 0.0755530913	 0.152156
H	-0.6434268345	 1.6786264651	-1.0349456018	 0.159302
H	-0.9320152942	 1.7296029038	 0.7008107421	 0.159307
H	-0.0220689193	-2.5004738107	 0.0838045111	 0.135421
H	-1.0408251898	-4.6208433129	-0.023589425	 0.082365
H	-3.0268526585	-5.785462473	 0.9730259367	 0.115737
H	-4.0254363846	-4.270350799	 0.7421626248	 0.127285
H	-3.6129823575	-4.3431298137	-1.7335623895	 0.127285
H	-2.6079333459	-5.8593826383	-1.5415088575	 0.115737
