15
gdb 2432	5.48083	2.78107	2.42181	1.8699	59.89	-0.2245	0.0819	0.3064	610.8271	0.125444	-308.450468	-308.444698	-308.443754	-308.479605	22.938	
C	-0.062244801	 1.4881564698	 0.0080380662	-0.507196
C	 0.0279286025	-0.0068024734	-0.031199245	 0.290717
C	 0.9156570237	-0.8854379306	-0.918724035	-0.277298
C	 0.0601556179	-2.0638917686	-0.3916507311	 0.073111
O	 0.4217677802	-2.1455064518	 1.0177329377	-0.296378
C	-0.2853222826	-0.9162544661	 1.1751096529	 0.058968
C	-1.0976504963	-1.0464408689	-0.0689006472	-0.188174
H	 0.8805258523	 1.9316178029	 0.3489899392	 0.125265
H	-0.2884389042	 1.9040339181	-0.9805612061	 0.120476
H	-0.8501782947	 1.8206562182	 0.6931081241	 0.119067
H	 0.7305184625	-0.6900218849	-1.9789399371	 0.099141
H	 1.991147483	-0.9372854025	-0.7176032499	 0.097104
H	-0.0000104025	-3.032412649	-0.8830241214	 0.085769
H	-0.5190126986	-0.5624551327	 2.1710749072	 0.104044
H	-2.1551414424	-0.9939682105	-0.2889955045	 0.095385
