22
gdb 68385	2.5022	1.90221	1.40891	1.398	84.82	-0.2153	0.0873	0.3026	1022.3142	0.196918	-367.183467	-367.175932	-367.174988	-367.214697	32.006	
C	-0.0714427397	 1.5233513482	 0.0460086505	-0.483359
C	 0.0264390632	 0.0075621939	 0.029466665	 0.317489
C	 0.8851429974	-0.7063201261	-1.069496567	-0.251144
C	 1.1330448718	-1.8110293193	-0.0021163871	-0.016039
C	 0.9485786272	-0.7018231303	 1.0643188299	-0.272935
C	-0.0494504924	-2.7902428338	 0.026589263	-0.164181
N	-1.3685662607	-2.1348508714	-0.0871975577	-0.097807
C	-1.928142621	-1.4491538668	 1.0814103921	-0.264371
C	-1.3419835016	-0.6646060778	-0.0370635422	-0.037873
H	 0.9245481283	 1.9785996721	 0.0404454718	 0.109205
H	-0.6154104895	 1.8970345186	-0.8292409049	 0.115297
H	-0.5987470774	 1.8771052732	 0.9395694666	 0.116912
H	 0.3857596392	-0.9877058678	-2.0014303718	 0.097228
H	 1.7991400258	-0.1487621797	-1.2935593559	 0.090752
H	 2.0809543046	-2.3543353892	-0.0314843862	 0.059261
H	 1.8683333071	-0.1251227313	 1.2028175993	 0.092929
H	 0.5561829384	-0.9686294061	 2.0483201704	 0.089885
H	 0.0388115862	-3.4784579368	-0.8238163084	 0.103529
H	-0.0192992847	-3.4027959953	 0.9367400364	 0.09723
H	-3.008570547	-1.5294257662	 1.1795092295	 0.108337
H	-1.3948565174	-1.4954081413	 2.0270737747	 0.108533
H	-2.0218513777	-0.1889868066	-0.7456373778	 0.08112
