19
gdb 83594	2.24925	1.65971	1.28825	2.0185	75.29	-0.2368	-0.0293	0.2075	1070.2731	0.157817	-423.018884	-423.009865	-423.00892	-423.0526	33.507	
C	-0.2303866622	 1.5214300352	-0.0415641416	-0.496788
C	 0.0439565303	 0.0357413142	 0.0401871978	 0.224971
C	-1.1517392578	-0.9558107856	 0.2116007424	-0.265509
C	-0.3362637058	-1.7745116496	 1.2539287173	-0.228375
C	 0.8106511476	-0.734890156	 1.2012108589	-0.129496
C	 1.9537080582	-1.091880154	 0.2091506076	 0.057143
O	 2.4515361673	-2.3999359007	 0.1474284167	-0.438247
C	 1.0601421687	-0.5912336722	-0.9292528776	 0.305221
O	 1.084234423	-0.7862304813	-2.1139903627	-0.324158
H	 0.6923187195	 2.1099355181	 0.0016494478	 0.120889
H	-0.7368006692	 1.7649013449	-0.9822097172	 0.136899
H	-0.8759193513	 1.8447793607	 0.7820169105	 0.120966
H	-2.0160353519	-0.4525540008	 0.6538682223	 0.106364
H	-1.4790735926	-1.4695717545	-0.6956595793	 0.115022
H	-0.8183247602	-1.8637218518	 2.2286733664	 0.106368
H	-0.0256835407	-2.7711373277	 0.9318582112	 0.118257
H	 1.1117521459	-0.2577621461	 2.1329442902	 0.071871
H	 2.7705252429	-0.3618994419	 0.3518471379	 0.099929
H	 2.4368692782	-2.664739621	-0.7803216785	 0.298674
