19
gdb 62020	3.7484	0.71885	0.64802	2.9739	73.9	-0.2568	-0.0322	0.2246	1722.4628	0.155075	-460.212878	-460.202064	-460.201119	-460.251215	35.979	
C	 0.001352429	 1.4605445227	 0.1436530336	-0.408477
C	-0.0308928962	-0.0721061322	 0.0086327623	-0.086649
C	-1.4625075132	-0.6137061575	-0.0131364936	-0.0728
O	-2.0913326721	-0.238419632	 1.2223785093	-0.243562
C	-3.3991939429	-0.5705583937	 1.3384575903	 0.428569
C	-3.9423049057	-0.1303140611	 2.6756709165	-0.479943
O	-4.0170733266	-1.1384887319	 0.4756847835	-0.343344
C	 0.6642273506	-0.4788731135	-1.2796794324	 0.154967
O	 1.6371469299	-1.182432505	-1.3474416276	-0.23936
H	 1.0293894118	 1.824920944	 0.2207581314	 0.132273
H	-0.4662761214	 1.9424308708	-0.7229219065	 0.122046
H	-0.5451158392	 1.7694186787	 1.0368828393	 0.141361
H	 0.5163623086	-0.5380477003	 0.8337571256	 0.107298
H	-2.0369561103	-0.2026186022	-0.8509905299	 0.124606
H	-1.4765449414	-1.704436097	-0.1059295231	 0.132233
H	-3.8461164502	 0.954101452	 2.781148409	 0.150622
H	-4.9894719058	-0.4194227737	 2.7535731704	 0.151715
H	-3.3659695365	-0.5880746632	 3.4844520699	 0.152525
H	 0.2004405114	-0.0499450251	-2.2003896581	 0.07592
