16
gdb 43848	3.08966	1.30592	1.02294	3.8099	69.51	-0.2379	-0.0931	0.1448	1135.5563	0.123902	-437.891486	-437.883697	-437.882753	-437.92425	29.528	
O	-0.1648605946	 0.2119343591	-0.7380711773	-0.273497
C	-0.1139188425	 1.2836382407	-0.2028702007	 0.319502
C	-1.2052298809	 1.9993418069	 0.5873006547	-0.430018
C	-0.7657150042	 3.4612253915	 0.6080839483	 0.328781
C	-1.5822771493	 4.5091508144	-0.055859102	-0.285303
N	-1.4460301467	 4.46992333	 1.4157266549	-0.360267
C	 0.7596450395	 3.4796058025	 0.5646694861	-0.395426
C	 1.1379859986	 2.2235784813	-0.2085152891	 0.314103
O	 2.1788811744	 1.9569930512	-0.741434408	-0.274535
H	-2.1974987055	 1.8209467073	 0.1665947512	 0.139447
H	-1.1964208765	 1.5833824839	 1.6065771253	 0.14357
H	-1.0970366751	 5.3552158521	-0.5349516767	 0.127442
H	-2.5299993567	 4.2176313664	-0.5012018012	 0.119661
H	-2.289365495	 4.0805577527	 1.8318553317	 0.234231
H	 1.190226183	 4.3793870258	 0.1212320901	 0.144947
H	 1.1674505315	 3.3900926741	 1.5818642826	 0.147362
