15
gdb 25007	4.76886	1.32213	1.04868	2.4283	71.4	-0.2268	-0.0417	0.1851	1061.5071	0.11537	-416.872081	-416.865337	-416.864393	-416.903569	25.935	
O	-0.0117592566	 0.0612639764	 0.0050626352	-0.28403
C	-0.0113825282	 1.2590797788	 0.0112146622	 0.398589
C	-1.2949147532	 2.1299350934	 0.0327725291	-0.291994
N	-0.7536384508	 3.4676477008	 0.0320481639	-0.006322
C	-1.2316498291	 4.7573900545	 0.0441990601	-0.153594
C	-0.104958942	 5.5442034366	 0.0329726178	-0.093125
N	 1.0440281682	 4.7791829149	 0.0137891753	-0.353934
C	 0.6117402611	 3.5418589816	 0.0140548998	 0.38681
C	 1.2237359364	 2.1810073233	-0.0005349498	-0.477354
H	-1.910544505	 1.9154021296	-0.8480474091	 0.15405
H	-1.8865779042	 1.9066671724	 0.927742241	 0.154038
H	-2.2833808284	 4.988055531	 0.0593360185	 0.13105
H	-0.0567510112	 6.6225369932	 0.0374032225	 0.111771
H	 1.853661511	 1.9673868488	 0.8702513078	 0.162015
H	 1.830780262	 1.9758818146	-0.8894045843	 0.16203
