21
gdb 123114	6.49076	0.47361	0.45628	2.7849	78.17	-0.2439	0.0592	0.3031	2378.407	0.181436	-457.573525	-457.562427	-457.561483	-457.611873	38.062	
C	 0.0111500882	 1.3384667853	-0.204994106	-0.228526
O	-0.0224488574	-0.067759251	-0.2138174663	-0.231175
C	-1.2951148985	-0.588064366	 0.1006286015	-0.04703
C	-1.2238997436	-2.1080192231	 0.0419777462	-0.203287
C	-2.5531454597	-2.7650531989	 0.4211865392	-0.153709
N	-2.4802977782	-4.2145996532	 0.3578313821	-0.341753
C	-3.4863386571	-4.9554822227	-0.2203106085	 0.448777
N	-3.3371563424	-6.3303337907	-0.047120645	-0.565343
O	-4.4330966327	-4.4700160015	-0.8113083255	-0.38922
H	 1.0296793785	 1.6440643794	-0.4568457317	 0.126239
H	-0.6822987162	 1.7696839282	-0.9447200929	 0.10425
H	-0.2482614503	 1.7487437962	 0.7843874137	 0.101941
H	-1.6081886485	-0.2540060086	 1.1062472354	 0.082674
H	-2.0521372525	-0.2116294762	-0.6095051782	 0.090432
H	-0.9357496506	-2.4187991051	-0.9677095498	 0.115747
H	-0.4270257596	-2.4432884021	 0.7180198569	 0.097648
H	-2.8617917228	-2.4362181931	 1.4249334296	 0.100012
H	-3.3487323989	-2.4746505993	-0.2690099778	 0.151274
H	-1.8859753964	-4.6762206371	 1.0279947243	 0.236992
H	-2.394863487	-6.6914855705	-0.0147208954	 0.24462
H	-3.9455022444	-6.8526601299	-0.6598738417	 0.259438
