16
gdb 56967	2.49436	1.16944	0.91189	3.8795	72.58	-0.2541	-0.0013	0.2528	1266.3011	0.121282	-437.827745	-437.818323	-437.817378	-437.862624	33.295	
O	-0.092413609	 1.4075654969	 0.006050566	-0.410704
C	 0.0040911723	 0.0040113744	 0.2130188639	-0.055811
C	 0.5349451244	-0.6874214511	-0.9647800402	 0.282031
C	 1.0139490453	-1.2216708956	-1.9292372405	-0.442784
C	 0.8400715837	-0.2958815854	 1.4547654288	-0.027766
C	 0.1792052171	-0.2592367184	 2.8027442632	-0.249872
N	 0.6127560442	-1.5061458113	 2.2183391019	-0.057634
C	-0.2181814535	-2.5659825772	 1.8925320594	 0.131166
O	-1.1395813933	-2.9481218816	 2.5712627845	-0.288697
H	 0.6956917228	 1.6910583802	-0.4701932741	 0.292178
H	-1.0217559729	-0.3382496295	 0.4021861205	 0.132585
H	 1.4174185226	-1.7044540859	-2.785537612	 0.211311
H	 1.8828871334	 0.0069817628	 1.3718603512	 0.108651
H	 0.7390462272	 0.0860833418	 3.6667890827	 0.132743
H	-0.892111877	-0.076443323	 2.8387308791	 0.143961
H	 0.1104079528	-3.0714477471	 0.9657380458	 0.098644
