19
gdb 88212	3.43236	1.22799	1.06143	2.5791	71.44	-0.247	0.0746	0.3216	1162.0101	0.159879	-460.141045	-460.132949	-460.132004	-460.173434	31.823	
O	 0.0150276667	 1.3683025826	-0.0641136141	-0.42254
C	-0.0138911216	-0.0274022559	-0.0179100346	 0.013212
C	-0.4794931317	-0.7387882242	 1.2412715069	-0.392978
C	-1.3540320816	-0.6698849893	-0.0033601602	 0.418953
C	-2.6368889762	 0.1351657323	-0.0111645379	-0.255877
C	-3.791295044	-0.7996438293	 0.3649962304	-0.09342
O	-3.7698812413	-1.9668431098	-0.4512930897	-0.234608
C	-2.5434475782	-2.6325821672	-0.3470748552	 0.008869
O	-1.4569389406	-1.8413803647	-0.7761727496	-0.285402
H	 0.755782026	 1.6674819903	 0.4733055623	 0.290532
H	 0.7448257904	-0.5360994064	-0.6121451385	 0.101153
H	-0.0114424421	-1.686380093	 1.4833616385	 0.117958
H	-0.7591531658	-0.1222782023	 2.0894948948	 0.113853
H	-2.5742587582	 0.9822800201	 0.6755443284	 0.108581
H	-2.8039864533	 0.5286949827	-1.0196859627	 0.118519
H	-3.7152996133	-1.0874057072	 1.4270314955	 0.089554
H	-4.7641177169	-0.3281502748	 0.2059282071	 0.111674
H	-2.3748130327	-2.9545912386	 0.697628601	 0.075067
H	-2.5855933456	-3.4970589452	-1.0120195623	 0.116902
