17
gdb 86477	2.36711	1.3353	0.98548	4.5566	80.43	-0.2373	0.0087	0.246	1228.8183	0.134316	-380.816015	-380.806954	-380.80601	-380.849782	33.28	
C	-0.014154678	 1.5466371161	 0.0125809555	-0.328401
N	-0.0284051537	 0.1042500806	 0.1096308717	-0.062058
C	-1.2641130599	-0.5619602572	 0.5388136874	-0.194234
C	-0.391807309	-1.6190319921	 1.3122962128	-0.041469
C	 0.7447814747	-0.5387279295	 1.1790965326	-0.194223
C	-0.8149370327	-1.981284073	 2.6529495729	 0.241499
C	-1.16706653	-2.254220094	 3.7680642127	-0.402322
C	-0.1192445404	-2.8064675468	 0.500029217	 0.268095
N	 0.0969756797	-3.7413175268	-0.1434992749	-0.336977
H	 0.9929044269	 1.888327628	-0.246655484	 0.131881
H	-0.6924360709	 1.8688367702	-0.7838148791	 0.131882
H	-0.3190093524	 2.0472087948	 0.9509010492	 0.097285
H	-1.865454996	 0.0196039126	 1.2543992722	 0.107072
H	-1.9018630814	-0.9409557805	-0.2638746149	 0.13417
H	 1.7371535629	-0.8988703699	 0.8959610194	 0.134176
H	 0.8088552983	 0.0505605493	 2.1067415886	 0.107075
H	-1.4771034781	-2.5073694818	 4.7521091807	 0.20655
