11
gdb 21334	6.51217	1.32808	1.11064	0.8884	55.62	-0.2933	-0.0573	0.236	948.9942	0.072311	-393.568277	-393.561676	-393.560732	-393.600102	22.765	
N	-0.5291897393	-0.5086741783	-1.2218108701	-0.296726
C	-0.1989300201	 0.2277370501	-0.3959716972	 0.270837
C	 0.2408197778	 1.1676321092	 0.6335124225	-0.447447
C	 1.4821201917	 1.9053376318	 0.228796501	 0.252459
C	 2.2489129206	 1.8578909351	-0.8908825326	-0.019232
O	 3.2521675709	 2.7200607208	-0.7583473226	-0.1597
N	 3.0900188921	 3.3329251767	 0.5203273108	 0.005973
N	 2.0651372008	 2.840232437	 1.0556548253	-0.172819
H	-0.570186235	 1.876330235	 0.8392037398	 0.185284
H	 0.4143520003	 0.6187407345	 1.56673651	 0.185285
H	 2.1924028703	 1.286165848	-1.8025179169	 0.196086
