18
gdb 56533	2.37803	1.3011	1.11123	1.7505	72.17	-0.2725	-0.0473	0.2251	1164.7066	0.143524	-439.113435	-439.103089	-439.102145	-439.148621	36.847	
C	 0.0172803771	 1.5200380949	-0.1696026206	-0.413827
C	-0.0568780461	-0.0152176234	-0.0498406101	-0.148574
C	 0.7306022125	-0.471893405	 1.0984803934	 0.255982
N	 1.3094954738	-0.8268232436	 2.0346163798	-0.331318
C	-1.5189811863	-0.5399969559	 0.1014890518	 0.247231
C	-1.5743269042	-2.0738238067	 0.2164506566	-0.451926
O	-2.1853455282	 0.0809470854	 1.1861027018	-0.465497
C	-2.3317266363	-0.1656379404	-1.1407630581	 0.155213
O	-1.8881731893	-0.1609161536	-2.2582068408	-0.259992
H	 1.057409802	 1.8520700798	-0.1902551783	 0.137042
H	-0.4653672888	 1.8421700068	-1.09426101	 0.14546
H	-0.486359226	 1.9899511996	 0.6772422865	 0.146605
H	 0.3568974953	-0.4686570354	-0.9569361362	 0.144763
H	-1.0397379268	-2.4046439665	 1.1126554579	 0.14927
H	-2.6137603099	-2.4055076816	 0.2911542102	 0.136001
H	-1.1152977786	-2.5482954076	-0.6551846051	 0.144169
H	-1.8328781824	-0.2803604255	 2.00771894	 0.299972
H	-3.3940522179	 0.0660642987	-0.9127704588	 0.109425
