15
gdb 8022	3.40415	2.13917	1.59512	3.5145	62.67	-0.2595	0.0036	0.2631	819.7325	0.118617	-399.771385	-399.764411	-399.763467	-399.802424	26.34	
C	-0.1752027647	 1.5866994569	 0.0231925162	-0.485822
C	 0.0640814793	 0.1078909864	 0.0914983446	 0.385113
C	-1.075814213	-0.9192037857	 0.1950754245	-0.121522
O	-0.3562372644	-1.6737544374	 1.2024276612	-0.285038
C	 0.7390909579	-0.7345819407	 1.2028890255	-0.07088
C	 1.7658664217	-1.0550874473	 0.1328234343	 0.436816
N	 2.8361052814	-1.7023978248	 0.0889891148	-0.54663
O	 1.0896648382	-0.3497772547	-0.8555452783	-0.299224
H	 0.7609193486	 2.1374991501	 0.148737465	 0.139496
H	-0.6022685572	 1.8584262067	-0.9481175564	 0.141241
H	-0.874785761	 1.898806024	 0.8039461903	 0.133914
H	-2.015971677	-0.52355342	 0.5975897675	 0.111328
H	-1.2672827811	-1.495397557	-0.7156859787	 0.122
H	 1.0567025187	-0.4255633566	 2.1985305797	 0.107918
H	 3.2352738526	-1.70675197	-0.8518182902	 0.231291
