17
gdb 73768	2.20288	1.97185	1.12416	6.2916	77.72	-0.2163	-0.0205	0.1958	1066.6551	0.136494	-418.033157	-418.024691	-418.023746	-418.066073	31.876	
C	 0.0029088666	 1.5406857682	-0.0082223711	-0.531479
C	-0.0278852102	 0.0449602206	 0.0270567573	 0.1077
C	-1.1012566554	-0.7862230689	-0.0320307636	 0.268163
N	-2.4232773146	-0.46396568	-0.1039330756	-0.596954
C	-0.645065334	-2.2055187933	-0.0439127341	-0.130354
C	 0.2197497329	-2.6494481226	-1.1803424916	-0.239268
N	 0.8104159216	-2.1874490507	 0.0854960182	-0.131289
C	 1.1891535684	-0.7698361488	 0.0353130094	 0.313122
O	 2.3396810695	-0.4087720963	-0.0050955591	-0.349009
H	 1.0414416047	 1.8715900881	-0.0912233944	 0.157421
H	-0.5553201165	 1.9489691822	-0.8598876359	 0.119486
H	-0.4151926791	 1.9880136729	 0.903146084	 0.119586
H	-2.7039871457	 0.4677110903	 0.156474162	 0.266076
H	-3.1059706383	-1.1813028663	 0.0757609315	 0.262168
H	-1.1870170505	-2.9397115324	 0.548133138	 0.10381
H	 0.3334847955	-3.7107831139	-1.38527025	 0.128114
H	 0.2894205549	-1.992771329	-2.0438832749	 0.132709
