14
gdb 61124	2.45903	1.25989	1.02186	3.7616	63.53	-0.2814	-0.0907	0.1907	1149.0623	0.0969	-473.842915	-473.833634	-473.832689	-473.877706	31.886	
O	-0.0026343254	 1.4724135906	 0.1607662145	-0.451213
C	-0.02733762	 0.0917380548	 0.0022108879	 0.177154
C	 0.6440467565	-0.6529411613	 1.192399383	-0.375805
C	 0.0609127325	-0.263468703	 2.4730820943	 0.282523
N	-0.4014748119	 0.0348667921	 3.4883006043	-0.294538
C	-1.4819118622	-0.3997049753	-0.1557380974	 0.123113
O	-1.7836961629	-1.5618955205	-0.1307155631	-0.240113
C	 0.717827321	-0.3051804829	-1.2790174396	 0.11589
O	 1.2487680853	 0.5317416077	-1.9615520066	-0.246219
H	 0.5408787948	 1.8232611539	-0.5646587518	 0.304941
H	 0.5152792609	-1.7310758671	 1.0544762181	 0.176378
H	 1.7152948576	-0.427329349	 1.2058058182	 0.165259
H	-2.2036776516	 0.4265702078	-0.3145561052	 0.127363
H	 0.7299140155	-1.3827027177	-1.5255492968	 0.135267
