15
gdb 29088	3.0542	1.4893	1.0074	4.702	73.68	-0.2285	-0.0447	0.1838	1122.4646	0.112305	-453.959786	-453.95171	-453.950766	-453.993141	29.708	
C	 0.0494946725	 1.5154851401	 0.1949285477	-0.473364
C	-0.0626678711	 0.0397749231	 0.0284697671	 0.292141
C	-1.1254395878	-0.6259573418	-0.4078999391	-0.099131
O	-1.1557075929	-1.9939579199	-0.5362204832	-0.226504
C	-0.0509511596	-2.7358862273	-0.2067470727	 0.333111
N	-0.0458553442	-3.9922261951	-0.3146834308	-0.460777
C	 1.1626953621	-1.9988760801	 0.2916218772	 0.31673
N	 2.2109404013	-2.6198504316	 0.6145388888	-0.458323
O	 1.0905188722	-0.6297217076	 0.3827468116	-0.25905
H	 0.8620567031	 1.91565848	-0.4215595591	 0.145179
H	-0.8821049566	 2.00523671	-0.095501162	 0.13828
H	 0.2704621691	 1.7735489131	 1.2365717712	 0.145171
H	-2.0549505604	-0.1618421066	-0.6997224645	 0.141013
H	-0.949773987	-4.315481587	-0.6659383273	 0.233008
H	 2.9254571694	-1.9591793692	 0.9273425051	 0.232515
