19
gdb 37025	2.78215	1.81348	1.52021	1.2826	79.95	-0.2253	0.0115	0.2367	955.4243	0.161171	-385.856014	-385.848833	-385.847889	-385.887279	29.527	
C	 0.0680349718	 1.4423682219	 0.0457340369	-0.367146
C	 1.3506851818	 0.6654135582	-0.0478548596	 0.385749
C	 1.7678852535	 0.0634905615	 1.2985812251	-0.292383
C	 0.3756122474	-0.6635142037	 1.3506091059	-0.283115
C	 0.0358200667	-0.0764406641	-0.039030853	 0.219718
C	-0.3198355916	-0.8077154324	-1.2676492864	-0.194962
C	 0.6237457928	-0.9282467674	-2.2066099684	-0.067414
C	 2.017997605	-0.3547143464	-2.0639334254	-0.144373
O	 2.1362428488	 0.769054123	-1.183715158	-0.299299
H	-0.2216485396	 1.9411842481	 0.9683146342	 0.101161
H	-0.2025752484	 1.9617209685	-0.8660305891	 0.120706
H	 2.5903212756	-0.6485474427	 1.1958796979	 0.107358
H	 2.0084937248	 0.7673364146	 2.1017075218	 0.09703
H	 0.4702452078	-1.7510097178	 1.3469787523	 0.107164
H	-0.2969321581	-0.3705515431	 2.1624870916	 0.098781
H	-1.3118694439	-1.2314739988	-1.4054158599	 0.089987
H	 0.4320012032	-1.4668220215	-3.1311273484	 0.095513
H	 2.708810317	-1.1546568818	-1.7454891469	 0.107141
H	 2.3778381257	-0.0004620761	-3.0354699806	 0.118386
