18
gdb 83657	2.45616	1.72982	1.29805	1.3662	71.22	-0.241	0.0475	0.2885	1014.5611	0.14834	-439.008587	-439.000738	-438.999794	-439.041193	30.288	
O	 0.488570457	 1.0466066479	-0.577317639	-0.426254
C	 0.1641193442	-0.2101335833	-0.0414524412	 0.028391
C	 0.3337705011	-0.4956748412	 1.4852312651	-0.11379
C	-0.1771291685	 0.5973757355	 2.4373394957	-0.095637
O	-1.5215900979	 0.0638614896	 2.4363108389	-0.284015
C	-1.1399372717	-1.0061073365	 1.5439831828	 0.020348
C	-1.3167540887	-0.6253681945	 0.0742489534	 0.307327
C	-2.476875911	 0.0300964576	-0.565556663	-0.302024
N	-2.1139820486	-1.3603646848	-0.9010596622	-0.373841
H	-0.0884081073	 1.7024005422	-0.1706455717	 0.286105
H	 0.7410888969	-0.9361686274	-0.6248866449	 0.09787
H	 1.2063818792	-1.0677413776	 1.7939250219	 0.083987
H	 0.2620698325	 0.5665139518	 3.4411508135	 0.111076
H	-0.1311797889	 1.6330983833	 2.0725594661	 0.089866
H	-1.4780855922	-1.9893204248	 1.8759169621	 0.086517
H	-3.4023391662	 0.1460876344	-0.009617429	 0.133192
H	-2.2724407869	 0.8102733402	-1.2953934182	 0.116467
H	-1.6264252429	-1.3856397724	-1.7951877704	 0.234416
