23
gdb 115644	3.07895	1.08819	0.94704	1.7449	85.75	-0.2395	0.0743	0.3138	1374.773	0.205619	-388.268288	-388.258917	-388.257973	-388.302947	35.129	
C	 0.3582362733	 1.6307787792	 0.2173500468	-0.383776
C	-0.1847857569	 0.2702653409	-0.2315958351	-0.190914
C	 0.7555792791	-0.4301657156	-1.1971892856	 0.08314
O	 2.0487480983	-0.7115639508	-0.6016617712	-0.300012
C	 1.9555394788	-2.1059351364	-0.9492253314	-0.123039
C	 0.5350684135	-1.9237765697	-1.5224474465	 0.295538
C	-0.6243968877	-2.7858265381	-0.9563235319	-0.284191
C	-0.6138753846	-3.6060600806	-2.2753667177	-0.214343
C	 0.1974480873	-2.4581512562	-2.9350715401	-0.289733
H	 1.3398868461	 1.5113656734	 0.6839165303	 0.138792
H	 0.4711747731	 2.3124224303	-0.6330413213	 0.112045
H	-0.3109468795	 2.1055132731	 0.9410315739	 0.10891
H	-0.3442107281	-0.3747406114	 0.6410073633	 0.098046
H	-1.1605853629	 0.3932193067	-0.7205261978	 0.092242
H	 0.8823407245	 0.1826283614	-2.1047035398	 0.06158
H	 2.7198071664	-2.3976822187	-1.6833873376	 0.093399
H	 2.0435544646	-2.7554594895	-0.0681904226	 0.09678
H	-0.4368572845	-3.3203482186	-0.0209293297	 0.098935
H	-1.5456995397	-2.2064478495	-0.8438600828	 0.103733
H	-0.0248622892	-4.5227180742	-2.1829873019	 0.104866
H	-1.5795741043	-3.8602445465	-2.7175713625	 0.098849
H	-0.4482042908	-1.7621603599	-3.4811186122	 0.100945
H	 1.0381907132	-2.7277558192	-3.5807108765	 0.098209
