21
gdb 95171	2.59383	1.54687	1.1457	1.5986	78.87	-0.2437	0.0846	0.3283	1152.8193	0.182231	-424.228345	-424.219654	-424.218709	-424.261167	34.12	
C	-0.0147347975	 1.4623026069	 0.0403177038	-0.409932
C	 0.0193473486	-0.0493049913	-0.0138437435	 0.209032
O	 0.669249285	-0.4445880439	-1.1989467952	-0.244677
C	 0.5505622685	-1.845261057	-1.4070695091	-0.112474
C	 0.9406675904	-2.6278922016	-0.1701307203	-0.106198
C	 2.2507329922	-2.3492091591	 0.5379047585	-0.331125
C	 0.9491487775	-1.8983807224	 1.1535386993	 0.421518
C	 0.4189770739	-2.533754094	 2.4137305709	-0.446654
O	 0.7125820437	-0.5069104578	 1.1273953995	-0.298506
H	 1.006088346	 1.850158081	 0.0018273358	 0.134476
H	-0.577887889	 1.854171163	-0.8095877735	 0.123175
H	-0.4852154825	 1.7918572789	 0.9693312263	 0.125625
H	-1.0017502559	-0.4767306732	-0.0143489744	 0.053077
H	-0.4880494105	-2.0917436207	-1.6845490387	 0.091476
H	 1.1937900646	-2.084398809	-2.2598442348	 0.112139
H	 0.5818626754	-3.653284673	-0.1562441698	 0.088394
H	 2.7824947663	-3.1834411657	 0.9828396424	 0.106551
H	 2.8758125487	-1.5621972324	 0.1308705032	 0.125705
H	 0.6710439832	-3.5977031911	 2.4514148645	 0.112687
H	 0.852135771	-2.0464903557	 3.2934813043	 0.127886
H	-0.6701593897	-2.4349082118	 2.4748251408	 0.117826
