22
gdb 22239	1.96804	1.24634	0.90617	0.8282	81.71	-0.2488	0.0026	0.2513	1400.3264	0.191011	-441.436297	-441.425128	-441.424183	-441.473379	39.663	
C	 0.6453943928	 0.5248095553	 0.6119547973	-0.234726
O	 0.9333580101	 0.4260460437	-0.7681450067	-0.226308
C	 0.0239096853	-0.4013393066	-1.476779106	-0.163268
C	 0.2451508656	-1.881174355	-1.2376097664	 0.344382
N	-0.6757775122	-2.436251197	-0.5410675799	-0.173956
O	-0.4643527213	-3.8127965236	-0.3623592851	-0.395611
C	 1.4315460922	-2.6154514984	-1.8337231463	-0.05135
C	 1.0051019285	-3.2689723274	-3.1660156985	-0.388595
C	 2.6798738269	-1.7412538014	-2.0184653968	-0.398358
H	-0.3531929917	 0.9553101616	 0.7831047796	 0.106445
H	 0.6882106722	-0.4487161491	 1.1182239019	 0.116126
H	 1.3978870601	 1.1877472914	 1.0457347268	 0.124678
H	-1.0143256493	-0.1591866972	-1.2117079702	 0.107361
H	 0.1769476912	-0.1667485548	-2.5359599986	 0.110599
H	-1.2174029609	-4.0619001625	 0.1836833962	 0.306581
H	 1.6759518448	-3.4252841131	-1.1392586792	 0.105301
H	 1.8361754172	-3.843720233	-3.5877899842	 0.113495
H	 0.1595740703	-3.9441254091	-3.0154506874	 0.13284
H	 0.7168053954	-2.5118059282	-3.9041128986	 0.112768
H	 2.9979198572	-1.2813901479	-1.0807750805	 0.125979
H	 3.5010366132	-2.3570005574	-2.3999365627	 0.106673
H	 2.5118983426	-0.9331371703	-2.7372604746	 0.118944
