15
gdb 37498	3.48307	2.31334	1.92688	3.8108	66.96	-0.2011	-0.0645	0.1366	735.8251	0.113578	-416.635542	-416.629887	-416.628943	-416.665002	24.891	
N	-0.0496026256	 1.5186655534	-0.0819409264	-0.338945
C	 1.4336272225	 1.4133843121	 0.0627871521	-0.029152
C	 1.3411775306	 0.0250246505	 0.7915923874	-0.123842
C	-0.0194298227	 0.0323357282	 0.0105558109	 0.020772
C	 0.7007555284	-0.4160453096	-1.2852879371	-0.031532
N	 1.4451251816	-1.7596837917	-0.9158415379	-0.347168
C	 2.0872250306	-0.8835507361	-0.2449481441	 0.285125
O	 3.0281585199	-0.0171044471	-0.9117222911	-0.260084
C	 1.8845016513	 0.7754663349	-1.2617624299	 0.058776
H	-0.4412049257	 1.8968075655	 0.7791672117	 0.226946
H	 1.9949194534	 2.269056751	 0.431435881	 0.092443
H	 1.4368869085	-0.1047428546	 1.8633917163	 0.104742
H	-0.916947232	-0.505216798	 0.3048234256	 0.097477
H	 0.1958761917	-0.5987490909	-2.2281543998	 0.13172
H	 2.0465919275	 1.3676824523	-2.1573583387	 0.112722
