15
gdb 27064	3.2746	1.12511	0.86819	3.2233	69.94	-0.2289	-0.0093	0.2196	1263.6414	0.111306	-457.811708	-457.80328	-457.802336	-457.846009	29.464	
C	-0.0941511445	 1.4008051531	 0.1038702014	-0.497776
C	-0.0924291828	-0.0792342613	 0.011048096	 0.27259
C	-1.0455678021	-0.9917679924	-0.3278337645	 0.203572
O	-2.3253398727	-0.671728517	-0.7323158309	-0.219011
C	-3.355789695	-1.1572986595	 0.0134920543	 0.151293
O	-4.4934991734	-0.9765884308	-0.2871556213	-0.257652
C	-0.4551524966	-2.2956836407	-0.2622363166	-0.284186
C	 0.8282919247	-2.0783647434	 0.120920598	-0.003361
O	 1.0629972573	-0.7490136294	 0.285091232	-0.173804
H	 0.629920752	 1.8472846735	-0.586612789	 0.145851
H	-1.0876691305	 1.7756762498	-0.1509574837	 0.152077
H	 0.1580893433	 1.741480832	 1.1141480401	 0.14306
H	-3.0035593786	-1.7156969712	 0.899345302	 0.095159
H	-0.9228633454	-3.2414082995	-0.4842528004	 0.128124
H	 1.6654603843	-2.7290312633	 0.3102184124	 0.144063
