18
gdb 67844	2.30408	2.08934	1.54189	2.4832	75.72	-0.2287	0.0246	0.2533	929.1901	0.148995	-401.901954	-401.89475	-401.893805	-401.933058	29.851	
O	-0.0418768393	 1.415709798	-0.0468811885	-0.49066
C	 0.0091410113	 0.0069872715	-0.0241215456	 0.400775
C	-1.2794812732	-0.5931054004	-0.4895317923	-0.099617
C	-1.7341352099	-1.5075895401	 0.3671235318	-0.045888
C	-0.8517508117	-1.7077236382	 1.583235396	-0.285215
C	 0.2946137384	-0.7027989475	 1.3558722532	-0.084783
C	 1.6356977141	-1.198565386	 0.776952554	-0.072079
N	 1.3147284067	-2.0364030134	-0.3987297087	-0.322335
C	 1.3623033242	-0.5635325587	-0.5453629677	-0.153606
H	 0.8219955276	 1.7489270876	 0.2219708532	 0.273589
H	-1.750888407	-0.3064260813	-1.4222612204	 0.093387
H	-2.6415759985	-2.0862109482	 0.2241859517	 0.091727
H	-1.3999137625	-1.5261462689	 2.515921093	 0.099558
H	-0.4801335649	-2.7382926198	 1.6271871506	 0.116707
H	 0.4277412931	 0.0179891056	 2.1651507682	 0.071241
H	 2.5725357142	-1.3271237722	 1.3063416709	 0.089355
H	 2.1957860904	-2.4000267905	-0.761323573	 0.229957
H	 2.0274180671	-0.0945109875	-1.2629247064	 0.087886
