16
gdb 124980	2.98189	1.25632	0.95845	3.1011	72.01	-0.244	-0.0306	0.2134	1187.9504	0.124104	-434.084604	-434.075922	-434.074978	-434.119185	30.085	
C	 0.1740663358	 1.5158676188	-0.160772288	-0.518691
C	 0.0412139407	 0.0314525524	-0.0857261941	 0.264765
C	-0.0815192882	-0.9486216513	-1.0533584583	 0.205256
C	-0.0825517797	-0.8055160175	-2.5474328717	-0.374501
C	 1.3019133241	-0.3837941508	-3.0119291793	 0.149541
O	 1.5834158653	 0.7314830215	-3.3717817161	-0.242737
N	-0.1819558121	-2.1642287173	-0.4388021423	-0.24857
N	-0.1390475285	-2.0015705627	 0.8500906419	-0.120087
N	-0.0057054581	-0.677893714	 1.0688269474	-0.221525
H	 0.9536115329	 1.8842297658	 0.5141916565	 0.140762
H	 0.4430445262	 1.8150115004	-1.1757895288	 0.174107
H	-0.7623565871	 2.0195462464	 0.1059815798	 0.145541
H	-0.3360102854	-1.7789038596	-2.9789786807	 0.142809
H	-0.8050166041	-0.0578817616	-2.8868956912	 0.127184
H	 2.0728145409	-1.1832149056	-2.9522374805	 0.096292
H	 0.0481415772	-0.340503505	 2.0173672654	 0.279853
