19
gdb 30735	2.89772	1.23652	0.92718	2.0671	79.76	-0.1747	0.0537	0.2284	1280.5594	0.158738	-419.230301	-419.220217	-419.219273	-419.265446	36.212	
C	 0.4205550874	 0.9671483338	 0.5395129486	-0.324904
N	-0.3695774775	 0.300720954	-0.5037897791	-0.387476
C	 0.3414872355	-0.5827888632	-1.3397052924	 0.211521
C	 0.6376948696	-1.9331978918	-1.2409894143	 0.100539
C	 0.2750550563	-2.8696090677	-0.1298835649	-0.541023
C	 1.3751632034	-2.2643062816	-2.4183471292	 0.247117
O	 1.8803728813	-3.4916495532	-2.751059464	-0.452021
C	 1.5210162276	-1.1334650763	-3.1839150532	-0.185523
N	 0.8835912342	-0.1126796917	-2.5057013716	-0.272683
H	 0.9038899726	 0.2738085396	 1.2449064585	 0.107586
H	 1.205931802	 1.5652734997	 0.0688750726	 0.127678
H	-0.2281992794	 1.6452848871	 1.1024319239	 0.115928
H	-1.1720048613	-0.1623096577	-0.0955707023	 0.229438
H	-0.3854692424	-3.6824962979	-0.4616203683	 0.121485
H	 1.1580459156	-3.3377810575	 0.3262965923	 0.121381
H	-0.2499713827	-2.3406869351	 0.6715447314	 0.116117
H	 1.6567148308	-4.1093366352	-2.0491115535	 0.292587
H	 2.0183670469	-0.9772672082	-4.1253141536	 0.115594
H	 0.7217875602	 0.8161598832	-2.852260781	 0.256659
