15
gdb 18779	4.11799	2.428	2.13229	2.5256	62.94	-0.2155	0.068	0.2835	684.6844	0.120373	-362.559969	-362.554292	-362.553348	-362.589296	23.769	
O	-0.0116972744	 1.3265462877	-0.098031943	-0.464959
C	 0.0179682606	-0.0404486061	 0.0352027369	 0.382224
C	 1.1593578058	-0.9509060782	-0.4875963427	-0.178773
C	-0.2524523828	-1.0707250234	-1.0071365836	-0.078741
N	-0.5479326347	-2.0790183075	 0.0947353893	-0.176874
C	 0.9571640815	-2.1451359452	 0.4498545541	-0.002114
C	 0.6466219089	-1.6259031851	 1.8675278967	-0.251852
C	-0.533829555	-0.9480316415	 1.1498357193	-0.077567
H	 0.7252495243	 1.7049695407	 0.3946963636	 0.288346
H	 2.0429175006	-0.5476123162	-0.966447935	 0.089508
H	-0.6946511058	-1.0551908138	-1.9948854148	 0.102842
H	 1.4920428623	-3.0788305583	 0.2718270093	 0.078128
H	 0.3095843828	-2.43403346	 2.5218429859	 0.115603
H	 1.3852545274	-1.0026944119	 2.3792907726	 0.092606
H	-1.4696398716	-0.6848734412	 1.6433102814	 0.081622
