17
gdb 42715	2.48699	2.13303	1.71959	2.8466	75.	-0.2358	0.0001	0.2359	867.2172	0.13867	-384.691494	-384.685113	-384.684169	-384.721857	27.044	
O	 0.0035764427	 0.0646325332	 0.1344726228	-0.334363
C	-0.0146701951	 1.2528756584	 0.0309922955	 0.4148
C	-1.1849479846	 2.2744984448	-0.0031335022	-0.177384
C	-0.6973035112	 3.08673475	 1.1860312834	-0.081988
C	 0.6484486165	 3.1056988344	 1.1669451509	-0.081989
C	 1.1248639473	 2.3071063813	-0.0359304292	-0.177381
C	 0.6957658608	 3.0728298012	-1.30967929	-0.025793
C	-0.064021301	 2.322563501	-2.3815434875	-0.327465
C	-0.8139786116	 3.0515007075	-1.2882520737	-0.025792
H	-2.192240045	 1.8651927051	 0.0498192136	 0.083008
H	-1.3463031899	 3.5399688558	 1.9238258637	 0.10718
H	 1.3050805667	 3.5773422988	 1.886215465	 0.107179
H	 2.1444042202	 1.9264145356	-0.0117664954	 0.083008
H	 1.2463135177	 3.9693206646	-1.5698125925	 0.09374
H	-0.0843709626	 2.770809587	-3.3690811567	 0.113781
H	-0.0488967237	 1.2369431511	-2.3966256523	 0.135718
H	-1.3967820474	 3.9319802703	-1.5323090954	 0.093741
