12
gdb 16258	3.48452	2.01404	1.44994	4.5081	61.43	-0.2908	-0.0147	0.2762	815.8686	0.084188	-377.49835	-377.491866	-377.490922	-377.529092	24.109	
N	-0.0114035354	 1.2251812605	 0.0016358062	-0.532762
C	-0.0280283661	-0.0198314494	 0.0552345997	 0.411438
O	 1.003833499	-0.9530901291	 0.1905257282	-0.264166
C	 0.078563481	-2.0408988133	-0.0140874308	 0.059165
C	-0.907677232	-2.0776974261	 1.0847014248	-0.322224
C	-1.099494833	-1.0670164506	-0.0695489663	 0.052632
C	-2.2623388173	-1.0287473408	-0.8864912672	 0.220373
N	-3.2108279668	-1.0131661116	-1.5482223131	-0.339686
H	 0.9329493357	 1.6016307368	 0.0921639897	 0.245933
H	 0.3663392644	-2.8319358507	-0.6918396234	 0.155423
H	-1.6244044198	-2.8920745687	 1.0632276574	 0.159809
H	-0.6354764498	-1.706655447	 2.0669911547	 0.154065
