18
gdb 92315	2.36944	1.92564	1.24532	4.5176	71.	-0.2504	0.0176	0.268	1007.9599	0.150194	-439.121282	-439.11368	-439.112735	-439.153345	29.984	
O	 0.5113290526	 0.6401421367	-1.0493043478	-0.445271
C	 0.097198781	-0.3000630205	-0.1030742451	 0.171715
C	 0.1514259304	 0.0521318433	 1.418818121	-0.279581
C	-1.2419958121	-0.6243985308	 1.6042919015	-0.02265
C	-2.3655707512	 0.2448943789	 2.1950313252	-0.186177
N	-2.7618377582	 1.0625832365	 1.0560344772	-0.297444
C	-2.2372763499	 0.6945845079	-0.1464965751	 0.402439
O	-2.3521214763	 1.3026903172	-1.1980813753	-0.40507
C	-1.4222306476	-0.5771751267	 0.0638043424	-0.198804
H	-0.2737131674	 1.1096940693	-1.3687749512	 0.300886
H	 0.6347357529	-1.2371259214	-0.2912670447	 0.081523
H	 0.9842726224	-0.3563309653	 1.9941768068	 0.104056
H	 0.1093707074	 1.1344406994	 1.5729491846	 0.110242
H	-1.1964882004	-1.61535551	 2.054772478	 0.08171
H	-3.2047179049	-0.3600599744	 2.5635435987	 0.111332
H	-2.0102472633	 0.8684410524	 3.0235242257	 0.117861
H	-3.3062102967	 1.907116658	 1.1360269099	 0.255654
H	-1.8597025184	-1.4091486804	-0.4916830419	 0.097577
