23
gdb 77468	1.86361	1.50044	1.39878	1.5576	86.66	-0.2219	0.0821	0.304	1192.1405	0.203129	-388.271627	-388.261348	-388.260403	-388.305816	38.819	
C	 0.0570574139	 1.6439777488	-0.3139041437	-0.428872
C	 0.1672648165	 0.1410277402	-0.1568743247	-0.112438
C	 1.4174853025	-0.6453241328	-0.4214374767	 0.411144
C	 1.648907082	-1.6809375426	-1.4744394866	-0.489499
O	 2.5641443753	 0.1100694819	 0.0129168127	-0.347162
C	 2.1482999819	-0.0294239774	 1.4032735124	 0.118672
C	 2.2506663474	 1.2351488294	 2.234964695	-0.423676
C	 0.8168066522	-0.6528701894	 0.9789080023	 0.162516
C	 0.0932525381	-1.7114179971	 1.7614022339	-0.49728
H	 1.0428572961	 2.111162249	-0.2792263863	 0.137184
H	-0.3908027646	 1.8870273018	-1.2838271919	 0.110305
H	-0.5728419924	 2.0948936232	 0.4607562858	 0.111098
H	-0.7165346479	-0.397989386	-0.4992039002	 0.079059
H	 1.9526172759	-1.2106050269	-2.4169829665	 0.130636
H	 2.4395194133	-2.3772416542	-1.1765953126	 0.124379
H	 0.7335065111	-2.2494240463	-1.6633555382	 0.119552
H	 2.7721186198	-0.8100523447	 1.8659908492	 0.073116
H	 3.2829056658	 1.6011014216	 2.2330642903	 0.125257
H	 1.6009066383	 2.0313837994	 1.8702034133	 0.125134
H	 1.9772814745	 1.0140566451	 3.2727829271	 0.115499
H	-0.4743052236	-1.2786006811	 2.594604908	 0.120951
H	-0.6197816516	-2.2541132594	 1.1319937642	 0.118448
H	 0.7908765656	-2.4453208924	 2.1820226931	 0.115977
