18
gdb 65149	3.98889	1.01752	0.99473	3.8321	72.06	-0.2604	0.0105	0.2708	1243.5833	0.147371	-439.089056	-439.08057	-439.079625	-439.122788	31.679	
C	-0.1748324394	 1.4511899313	-0.3959979077	-0.496965
C	-0.0066160412	-0.0255764378	-0.1092995976	 0.312319
C	 1.2274862508	-0.7114034652	-0.5783401734	-0.275669
N	 1.0135760937	-0.4712990349	 0.8597087912	-0.349502
C	-1.2628938636	-0.8546807214	 0.0012352025	 0.110474
C	-2.4286671963	-0.3763605136	 0.8903211981	-0.44571
C	-3.1950803509	-0.3068037894	-0.4298804046	 0.447966
O	-4.2864833986	-0.029242082	-0.8077411822	-0.31498
O	-2.1266709498	-0.7222593555	-1.1878178871	-0.257236
H	 0.8001649781	 1.9303340885	-0.5246754724	 0.119952
H	-0.7510069331	 1.6057792577	-1.3127282395	 0.151722
H	-0.6925337777	 1.9675952708	 0.4198969825	 0.12562
H	 1.1964551796	-1.7553840396	-0.8781598116	 0.124687
H	 1.9646637651	-0.1119379481	-1.1053507469	 0.118109
H	 1.5666112326	 0.3247475948	 1.1677990732	 0.233842
H	-1.0004963808	-1.9040961086	 0.1485212085	 0.103448
H	-2.8197113075	-1.1066696662	 1.5998806053	 0.14865
H	-2.303762821	 0.5845149593	 1.3908169816	 0.143274
