22
gdb 22550	2.20579	1.02133	0.859	0.5017	82.76	-0.2462	0.0085	0.2547	1490.8498	0.190238	-441.445292	-441.433852	-441.432908	-441.48238	40.13	
C	-0.8905641969	 0.9737862076	-0.4154165939	-0.384921
C	-0.3245124321	-0.4159670203	-0.1132883412	-0.196339
C	 0.7368550668	-0.3979558356	 0.9933492629	 0.047431
O	 0.1036392344	 0.0768710592	 2.175186835	-0.244286
C	 1.0026709581	 0.4819359439	 3.1863076508	-0.236673
C	 1.3456400307	-1.7709042868	 1.2179888131	 0.35475
C	 0.4881112475	-2.8779961016	 1.7642710097	-0.482389
N	 2.5823373459	-1.8800810709	 0.9136054664	-0.182173
O	 3.0580954514	-3.1875926456	 1.1034677455	-0.397104
H	-0.1035662127	 1.6539282229	-0.7600495172	 0.112005
H	-1.6535162356	 0.9230111541	-1.1980029166	 0.109857
H	-1.3426611681	 1.4077301222	 0.4793401871	 0.133576
H	-1.1346470496	-1.0912397116	 0.1862000307	 0.104976
H	 0.1339084112	-0.8456002312	-1.0113286138	 0.106016
H	 1.5529505127	 0.2808622515	 0.7027204263	 0.077658
H	 1.6441743922	-0.3423367507	 3.5283381325	 0.113925
H	 1.6527695711	 1.3005731152	 2.8424436683	 0.108878
H	 0.4006146256	 0.8354319536	 4.0268495116	 0.124824
H	 0.1620729414	-3.5492707637	 0.9613191355	 0.141639
H	 1.0564086722	-3.4842513936	 2.4732803285	 0.145295
H	-0.3940292374	-2.4637449662	 2.2552004875	 0.137737
H	 3.9883919111	-3.0989619623	 0.8708947811	 0.305318
