14
gdb 14542	4.93456	1.6084	1.46477	1.7993	64.1	-0.2326	0.0207	0.2533	856.2965	0.105354	-382.445497	-382.438328	-382.437384	-382.476526	27.628	
O	-0.0340942624	 1.3802340212	 0.0024137508	-0.472904
C	-0.0233924784	-0.0144343758	 0.0109638236	 0.21806
C	 1.0708295871	-0.6025374396	 0.7328439109	 0.274622
C	 1.9762505354	-1.1176984412	 1.3331382679	-0.397483
C	-1.3344434364	-0.8160791651	 0.0565839985	-0.186026
C	-2.3690992122	-0.0465393887	-0.7508225865	-0.121748
O	-1.4567651821	 0.0478347196	-1.8929681381	-0.306234
C	-0.5048178127	-0.7681383789	-1.2078208714	 0.010261
H	-0.3150417698	 1.6352573552	-0.8880734547	 0.296857
H	 2.7820499372	-1.5599686991	 1.8649761808	 0.195532
H	-1.5138899615	-1.6109977335	 0.7664500436	 0.118323
H	-3.2474784328	-0.6376715912	-1.0250887741	 0.124074
H	-2.6673537865	 0.9377885267	-0.3776418041	 0.124737
H	 0.0645946152	-1.4926855496	-1.7778604471	 0.121929
