14
gdb 131154	4.10483	1.49094	1.25108	4.2778	67.52	-0.246	-0.0209	0.2252	952.1219	0.102287	-432.780383	-432.773803	-432.772859	-432.811255	25.886	
O	 0.005681368	 1.463596014	-0.1233278177	-0.439391
C	 0.0014839595	 0.1059184387	 0.0184325799	 0.298588
C	-0.1905938889	-0.7921021872	-1.1792927954	-0.300313
C	-1.1471922414	-0.9231088787	-0.0083441072	-0.107879
N	-0.4487288916	-1.5883680102	 1.1077253425	 0.087237
N	-0.1636659594	-2.7893839711	 1.6421297318	-0.161206
N	 1.0385715769	-2.6589045456	 2.1477804268	-0.177515
C	 1.5769598802	-1.4343789904	 1.8233543954	-0.18187
C	 0.6057685652	-0.7335599931	 1.1484809455	 0.124058
H	-0.2888643478	 1.8628747591	 0.7040731743	 0.300297
H	-0.6129063711	-0.287491527	-2.0448853351	 0.141297
H	 0.5110943903	-1.5891600834	-1.4033002153	 0.147125
H	-2.2212999156	-0.8138038369	-0.0370267407	 0.139407
H	 2.5723723958	-1.1672856783	 2.1355801751	 0.130165
