15
gdb 128590	6.8073	0.87935	0.78264	4.4089	73.58	-0.2318	-0.0475	0.1843	1381.8016	0.112853	-453.960309	-453.95222	-453.951276	-453.993505	28.743	
C	-0.0337656283	 1.4120017522	 0.0436274762	-0.253997
O	-0.0146473955	-0.0073257149	 0.0273186844	-0.262441
C	 0.5912730232	-0.5776614767	-1.0342232179	 0.25271
C	 0.7157205834	-1.9271891409	-1.2349971985	-0.134685
N	 1.3927248541	-2.0735131396	-2.4284484666	-0.013694
C	 1.7367322919	-3.2976326719	-3.0188919502	 0.194012
O	 2.3235732482	-3.4235346351	-4.0533860632	-0.258245
N	 1.7058625267	-0.8837543178	-2.9977259861	-0.225652
C	 1.2272242022	 0.0228208793	-2.1654621471	-0.08104
H	 0.9826788126	 1.8255029745	 0.0586075396	 0.129605
H	-0.5737532512	 1.8146740335	-0.8227698565	 0.129601
H	-0.5534736977	 1.7011202116	 0.9577900428	 0.143061
H	 0.3904716925	-2.7700348188	-0.6489363988	 0.152472
H	 1.3862050369	-4.1357934904	-2.3885326145	 0.099457
H	 1.3471856913	 1.071603695	-2.3919179436	 0.128838
