20
gdb 79770	2.93378	1.87853	1.69446	1.8448	80.08	-0.2105	0.0667	0.2772	916.8473	0.1741	-365.928212	-365.921483	-365.920539	-365.959111	28.268	
C	-0.2949238108	 1.6119101051	-0.0728374454	-0.442526
C	 0.0918957721	 0.1358388364	-0.0627746707	 0.049564
C	 1.1349164448	-0.5269480216	-1.0054278318	-0.095691
C	 2.6321934689	-0.1508384066	-0.7123940679	 0.000686
C	 2.8538980934	 0.8753996986	 0.4107758986	-0.250444
C	 2.3010334356	-0.2236713925	 1.3328462168	 0.000685
C	 0.7920301103	-0.602361583	 1.1122333154	-0.09569
C	 1.3179943165	-1.6424844958	 0.0724225553	 0.01862
N	 2.7630921462	-1.281630024	 0.3192594764	-0.167532
H	-0.7554119004	 1.8724635938	-1.0328169716	 0.117049
H	-1.037377956	 1.8104414607	 0.7087285269	 0.11705
H	 0.5371566166	 2.2971126248	 0.0862848242	 0.122644
H	-0.8323231421	-0.4353019922	-0.2327626331	 0.078876
H	 0.8726233601	-0.7024520973	-2.0491513624	 0.062613
H	 3.3038362215	-0.1655451504	-1.5732575775	 0.070099
H	 3.9282494062	 0.9843105952	 0.5886109951	 0.112627
H	 2.3985763291	 1.8627489435	 0.3722095682	 0.101768
H	 2.6672465893	-0.3055515035	 2.3583166735	 0.0701
H	 0.2161411644	-0.8468377056	 2.0052850849	 0.062614
H	 1.0034531743	-2.6829785954	-0.0155608549	 0.066889
