17
gdb 69566	2.8891	1.48814	1.17847	3.5542	74.37	-0.2385	-0.0241	0.2144	1077.901	0.134427	-421.795811	-421.787532	-421.786588	-421.82864	30.993	
C	-0.0968955428	 1.5426022837	 0.0210059766	-0.494375
C	 0.0589878399	 0.0503233832	-0.0021637497	 0.20891
C	-0.7904589027	-0.9028522651	 0.8282627766	-0.329426
C	 0.6883606322	-0.9453724938	 1.0294380272	-0.214743
C	 1.3045516003	-1.7354124594	-0.1025080703	 0.36316
C	 2.5954360799	-2.4181794981	-0.2092653771	-0.271019
O	 1.361328999	-3.1453278054	-0.2113627249	-0.269524
C	 0.7014524796	-0.7438830922	-1.1105450205	 0.289776
O	 0.8581705137	-0.5569235506	-2.2841305223	-0.320566
H	 0.8302617178	 2.0426707544	-0.2758300904	 0.133711
H	-0.8808373423	 1.8576821411	-0.6756800294	 0.142503
H	-0.3747461479	 1.8964031672	 1.0184826893	 0.123798
H	-1.3640052213	-0.4067567696	 1.6055671141	 0.126847
H	-1.3015154457	-1.7425246634	 0.3669631528	 0.137638
H	 1.1730286827	-0.6877062589	 1.9619140643	 0.112109
H	 3.128342726	-2.3975398734	-1.1582721842	 0.138071
H	 3.2097291316	-2.5411943297	 0.6816921378	 0.123129
