14
gdb 132163	3.32805	1.37851	0.97566	4.786	70.22	-0.1948	-0.007	0.1878	1095.6881	0.102941	-474.195608	-474.188086	-474.187142	-474.227418	29.259	
N	 0.0395159798	 1.3814077753	 0.1573927945	-0.587335
C	-0.0333920486	 0.0103216227	 0.0513633584	 0.276356
C	-1.1709976388	-0.7199976037	 0.0209110463	-0.123666
N	-1.0837345049	-2.1172205352	-0.0263686354	-0.370863
C	 0.1331245393	-2.6893960467	-0.0339665868	 0.394159
F	 0.0822130359	-4.014722737	-0.064058087	-0.067785
N	 1.2585627083	-2.0920934346	-0.0195896388	-0.410744
C	 1.269773676	-0.6950403353	 0.0073243769	 0.31709
N	 2.3360484475	 0.0171454435	-0.0135631123	-0.559019
H	 0.9677293032	 1.7199194336	-0.0682565346	 0.271206
H	-0.7219688718	 1.9196170861	-0.2247669294	 0.243667
H	-2.1698065864	-0.3083034106	 0.0397731926	 0.121162
H	-1.9078567922	-2.6943837849	-0.0401100259	 0.276317
H	 3.1554366527	-0.5887448332	-0.0516988186	 0.219455
