16
gdb 22512	2.45522	1.22495	1.10232	1.2778	75.32	-0.257	-0.0098	0.2472	1180.4421	0.120315	-437.781644	-437.772306	-437.771362	-437.815723	34.099	
C	-0.1748821815	 1.5727117602	 0.1854913555	-0.425783
C	-0.0016012434	 0.0599162311	 0.0818586845	 0.137646
O	 1.1209064908	-0.2952935089	-0.7962532167	-0.316492
C	 1.840217771	-0.9763922046	 0.259658492	-0.166892
C	 0.7503464726	-0.6106752892	 1.2286826187	 0.313089
N	 0.4830472316	-0.710682071	 2.4559825948	-0.225199
O	 1.5027979366	-1.3877559101	 3.1415173874	-0.385192
C	-1.2324314936	-0.6116655098	-0.320954321	 0.346587
C	-2.2510655764	-1.1563752719	-0.6514900779	-0.46776
H	 0.7673668505	 2.0355887581	 0.4881800782	 0.125432
H	-0.4762612893	 1.9748447925	-0.785279784	 0.139621
H	-0.9459231099	 1.8119447313	 0.9225388364	 0.141796
H	 1.9566751312	-2.0503159877	 0.0675611888	 0.134973
H	 2.8252021966	-0.5360669956	 0.4560109362	 0.131527
H	 1.1720724008	-1.3964120067	 4.0465346395	 0.312973
H	-3.1483581178	-1.6441532477	-0.9435889323	 0.203674
