19
gdb 62187	4.87717	0.59563	0.54689	3.8194	83.25	-0.2486	0.0251	0.2737	1949.2268	0.157106	-382.039735	-382.029267	-382.028323	-382.076276	36.845	
C	-0.000387359	 1.523624142	-0.1748784209	-0.396161
C	-0.0389527383	-0.0097943052	 0.0052976252	-0.100663
N	 0.7373441611	-0.5509548514	 1.1193984981	-0.292025
C	 2.1833257382	-0.4041647936	 0.9978216418	-0.133916
C	 2.8818022378	-1.2175621974	 2.1027996361	-0.359986
C	 4.3333823557	-1.1192401262	 2.0299342084	 0.293578
C	 5.527923683	-1.0206130577	 1.9429824662	-0.43848
C	-1.4359247447	-0.4581058139	 0.1479273928	 0.276665
N	-2.5397641029	-0.7775902813	 0.2656518936	-0.317022
H	 1.026606385	 1.8566833509	-0.3435218036	 0.132342
H	-0.6066924707	 1.8296712313	-1.0319124201	 0.141289
H	-0.390510583	 2.0241445618	 0.7164488762	 0.132328
H	 0.3511659024	-0.4767008487	-0.9088733674	 0.134844
H	 0.4085135742	-0.1488900972	 1.9923422821	 0.22611
H	 2.4845529505	-0.7992645271	 0.0208425574	 0.121938
H	 2.5396302198	 0.6375489353	 1.0430506398	 0.103745
H	 2.5386634407	-0.8632280615	 3.0843672648	 0.129557
H	 2.5617530201	-2.2627335592	 2.0252430423	 0.147374
H	 6.5850502602	-0.944360111	 1.8788434075	 0.198483
