21
gdb 113539	2.32288	1.1801	1.12683	2.921	79.07	-0.2351	0.0666	0.3017	1255.254	0.181042	-424.187147	-424.17754	-424.176596	-424.22183	35.463	
C	-0.4158397667	 1.2185060045	-0.076094851	-0.403571
C	 0.0587309373	-0.2168486939	 0.0392700595	 0.091503
O	 1.2658957345	-0.4557243794	-0.7342195119	-0.301894
C	 1.9893209615	-0.9299655139	 0.4206989686	-0.14299
C	 0.7854243773	-0.6627767019	 1.3137338884	 0.291193
C	 0.7485293377	-0.0660857315	 2.6878691587	-0.37614
C	 0.2641580076	-1.4818015539	 2.4528474212	-0.061696
C	-1.206964307	-1.7907874936	 2.5327580128	-0.099908
O	-1.4837325319	-2.8613308393	 1.6375739238	-0.416724
H	 0.355838966	 1.9144918677	 0.2657465981	 0.11906
H	-0.6543432196	 1.4501161288	-1.1190500581	 0.12638
H	-1.3215796922	 1.3782292976	 0.5200425585	 0.109511
H	-0.7341423091	-0.9140594008	-0.2638176242	 0.088359
H	 2.2788588487	-1.9848305458	 0.3210722883	 0.101637
H	 2.8868977383	-0.3288142024	 0.6190168263	 0.096997
H	 1.68772968	 0.0743809563	 3.2137845234	 0.114123
H	 0.005441081	 0.6984081259	 2.8966816979	 0.113196
H	 0.9080492569	-2.2858120387	 2.8014313214	 0.090803
H	-1.4794091094	-2.0576314624	 3.5660856832	 0.090852
H	-1.786210739	-0.8913871117	 2.2664016412	 0.082369
H	-2.4046478319	-3.1162363816	 1.7493249841	 0.28694
