22
gdb 59970	2.2921	1.07693	0.90615	3.7674	78.78	-0.2355	0.0361	0.2716	1419.1505	0.19264	-441.532607	-441.521833	-441.520889	-441.568253	39.83	
C	-1.7037064254	 1.5068835583	-1.5165161011	-0.402049
C	-1.948752702	 0.0103842139	-1.3392599559	 0.115035
O	-1.337281567	-0.7381756417	-2.4014092323	-0.428936
C	-1.5089791439	-0.4917377159	 0.0450403726	-0.206666
C	-1.5082394492	-2.0270673526	 0.2227036993	-0.07426
C	-1.0749210553	-2.4143561273	 1.6396961237	-0.396255
C	-2.89810184	-2.6070962312	-0.0810509071	 0.380813
N	-3.0782249623	-2.9878666297	-1.3825697993	-0.51563
O	-3.7595153568	-2.7307278964	 0.7698560762	-0.375617
H	-2.0342262793	 1.8337965954	-2.5059340057	 0.125925
H	-2.2445948908	 2.0841102148	-0.7599716281	 0.12467
H	-0.6369792357	 1.7425702303	-1.4143992873	 0.10824
H	-3.0177634684	-0.1909223594	-1.4658843562	 0.103326
H	-0.3851400833	-0.5941092651	-2.3578194741	 0.281792
H	-0.4936923505	-0.1249141423	 0.2538393463	 0.086599
H	-2.1628150034	-0.040133463	 0.8011469186	 0.118188
H	-0.8013315287	-2.4435720004	-0.5025115525	 0.074035
H	-0.9596524714	-3.4980003026	 1.7340554118	 0.118456
H	-0.1192619381	-1.9456502993	 1.8958818993	 0.099992
H	-1.8307937004	-2.0990078822	 2.3627968289	 0.140736
H	-2.4549012198	-2.622987927	-2.0894363974	 0.270769
H	-4.0175351582	-3.2325187668	-1.6565069095	 0.250839
