15
gdb 48950	3.82684	1.3939	1.34628	1.7547	64.91	-0.2506	-0.027	0.2236	954.7144	0.113814	-457.757126	-457.750611	-457.749666	-457.788291	25.532	
O	-0.1454702656	 0.0490609234	 0.2161973435	-0.26398
C	 0.0300181348	 1.2090948395	-0.0754825425	 0.046637
C	 1.324202279	 1.8904960541	-0.0248805663	 0.151925
C	 2.6428262718	 1.2669029446	 0.3956571936	-0.29609
C	 3.4521963205	 2.5609226006	 0.1842197151	 0.141213
O	 3.1470672466	 2.9222270684	-1.1638157516	-0.242494
C	 1.7477981816	 2.9915963114	-1.0391684633	-0.001115
C	 1.4847902288	 3.3864916148	 0.3710757129	-0.001133
O	 2.7483698988	 3.5209194621	 0.9740785594	-0.242506
H	-0.8179772333	 1.8492081283	-0.4131743193	 0.065182
H	 2.6499748738	 0.9364692809	 1.4352403881	 0.131428
H	 2.9668248486	 0.4606474134	-0.2638462601	 0.131435
H	 4.5204019916	 2.5976987103	 0.3731287551	 0.113528
H	 1.2012883149	 3.2746439513	-1.9261081581	 0.132986
H	 0.701819768	 4.024619997	 0.7521299935	 0.132983
