24
gdb 100313	1.85884	1.44004	1.21807	2.5993	84.8	-0.2346	0.0744	0.3089	1250.668	0.215564	-405.517437	-405.506643	-405.505699	-405.552914	39.944	
C	-0.0226114043	 1.5883019389	-0.0231446498	-0.399242
C	-0.0475440349	 0.0580227616	 0.0306657344	-0.208509
C	 0.7181041212	-0.5650420265	 1.2212706269	 0.333551
C	 0.6690254753	-2.0990768674	 1.1379752288	-0.428375
O	 2.0674505306	-0.0837696954	 1.2869585876	-0.287245
C	 2.9430273553	-0.4190342829	 0.2332624218	-0.247293
C	 0.0840653971	-0.1289074501	 2.5444734419	 0.006591
C	 0.8296715137	-0.2101189921	 3.8218931388	-0.250813
N	 0.5021934686	 1.1010889027	 3.2267672281	-0.335032
H	 1.0020155801	 1.9641278542	-0.0969559691	 0.119871
H	-0.5771314218	 1.950324763	-0.89425327	 0.108062
H	-0.4721937274	 2.0278522132	 0.8713018161	 0.143643
H	-1.0843780891	-0.2955453202	 0.0871213015	 0.098154
H	 0.3515867836	-0.3535925037	-0.9044409468	 0.090614
H	 0.9984905002	-2.4695561113	 0.1626053866	 0.112112
H	 1.2978071732	-2.5428143252	 1.9146329206	 0.123442
H	-0.3568035906	-2.4484552107	 1.2901969024	 0.119665
H	 3.1013127276	-1.5021476635	 0.1465010233	 0.111681
H	 2.6008327997	-0.0379458495	-0.7383882084	 0.11162
H	 3.9014747478	 0.0510539957	 0.468320121	 0.128641
H	-0.9914104376	-0.2965013942	 2.5672874786	 0.083419
H	 0.3055180009	-0.4425990205	 4.7447143243	 0.108851
H	 1.8628827722	-0.5397448896	 3.7771537088	 0.116009
H	 1.3380787387	 1.4421619336	 2.7562795925	 0.240582
