21
gdb 108425	2.58544	1.51721	1.18188	1.3136	82.91	-0.2328	0.0285	0.2614	1122.323	0.183705	-387.088173	-387.079766	-387.078822	-387.12108	32.94	
O	-0.1129693734	 1.3873459955	 0.3815429911	-0.426862
C	-0.0420933314	-0.023703291	 0.2167828711	-0.172453
C	-1.42814107	-0.5256986748	-0.1300834603	 0.383593
C	-2.4338548554	-0.4694341626	 1.0638359269	-0.261934
C	-2.3515442787	-2.0132383263	 1.2188717514	-0.22366
C	-1.5924685268	-2.0884474205	-0.1409127629	-0.113865
C	-2.4439096988	-2.3282659765	-1.3570450147	-0.081305
C	-2.6546993924	-1.2182753152	-2.0659568121	-0.068233
C	-1.9694562271	-0.0050250801	-1.4803232484	-0.32281
H	 0.7652158492	 1.7104924981	 0.6029076606	 0.286658
H	 0.6596414218	-0.2955616082	-0.5896425589	 0.081947
H	 0.3139510515	-0.5109837557	 1.139771539	 0.079739
H	-2.1082198797	 0.1274753019	 1.9185205941	 0.104576
H	-3.4238879822	-0.1207631714	 0.7603390266	 0.09906
H	-1.7297947407	-2.3261272133	 2.0624197076	 0.094751
H	-3.3005749281	-2.5528450909	 1.2726581334	 0.094224
H	-0.6836090644	-2.7025549846	-0.1362981208	 0.061526
H	-2.8361165085	-3.3096064944	-1.6050614815	 0.088397
H	-3.2392103482	-1.1687545287	-2.9791824903	 0.088201
H	-2.6522192112	 0.8425065861	-1.3446713361	 0.108217
H	-1.1665863655	 0.3576704828	-2.1377840557	 0.100232
