17
gdb 36386	6.27941	0.65726	0.63537	4.1182	79.73	-0.264	0.0312	0.2952	1698.3969	0.134757	-380.822591	-380.813233	-380.812289	-380.858	33.327	
C	 0.1297888878	-1.1541235608	-0.6280474188	-0.427237
C	 0.0340850613	-0.028199557	-0.2199300272	 0.289862
C	-0.0487745153	 1.3379362398	 0.2861787318	-0.360573
C	 1.3148402216	 2.0156007174	 0.3216383719	-0.018649
N	 1.7370395993	 2.7389509083	-0.8813808392	-0.315654
C	 1.5204393764	 3.4894062984	 0.3579563315	-0.025899
C	 0.3826177023	 4.5013923156	 0.3539231392	-0.343593
C	 0.8256183893	 5.809849836	-0.1293453581	 0.260432
N	 1.1959677126	 6.8394929656	-0.5000430111	-0.300952
H	 0.2007609566	-2.1474187762	-0.9965913233	 0.199592
H	-0.7311511164	 1.9183735831	-0.3433935525	 0.138775
H	-0.4752808691	 1.3279401286	 1.2981482823	 0.133923
H	 2.0688136436	 1.4299644009	 0.8447424434	 0.104093
H	 2.7251148391	 2.6102715646	-1.076128772	 0.244441
H	 2.3971533901	 3.8319828977	 0.9044198811	 0.107794
H	-0.4315239516	 4.1523563827	-0.2867184535	 0.160289
H	-0.0206767479	 4.6247023952	 1.3661410947	 0.153356
