20
gdb 63723	3.08348	1.24012	1.07578	2.9664	81.03	-0.2436	-0.0301	0.2136	1198.6939	0.168873	-403.12577	-403.116682	-403.115737	-403.159188	34.727	
C	-0.1920968339	 1.5786144963	 0.0659180306	-0.440609
C	 0.0522437152	 0.0777021861	-0.0209788452	 0.349102
C	-1.2580703878	-0.6833226189	-0.181894597	-0.422744
C	 1.1611820109	-0.4252980256	-0.9966024409	-0.378939
C	 1.8499483058	-1.0278886909	 0.2174009013	 0.268103
C	 2.1223580406	 0.0054743983	 1.2500627855	-0.284911
N	 0.7662335657	-0.5229443046	 1.1966872308	-0.191302
C	 2.3459066162	-2.4108377316	 0.3320509364	 0.069502
O	 2.523712913	-3.1467712418	-0.6086901942	-0.263073
H	 0.7324941585	 2.154993794	 0.1556898123	 0.114584
H	-0.7062722589	 1.9251676621	-0.8367441099	 0.124393
H	-0.825662783	 1.813067631	 0.9277224957	 0.128241
H	-1.7532986207	-0.4034142703	-1.1175207608	 0.114632
H	-1.0811083206	-1.7625044616	-0.1934205083	 0.125574
H	-1.9336321969	-0.4616527345	 0.6503621494	 0.122373
H	 0.8110607607	-1.1777305596	-1.7041269054	 0.130795
H	 1.7331613268	 0.3336740667	-1.5368953999	 0.104885
H	 2.6566363759	-0.3031394442	 2.1445856666	 0.130339
H	 2.3452046654	 1.0165436252	 0.9195067348	 0.122112
H	 2.5351610169	-2.737214106	 1.3796696082	 0.076942
