11
gdb 11200	6.50771	1.36652	1.13731	0.7636	53.54	-0.2851	-0.1017	0.1834	935.5491	0.071329	-434.582126	-434.575484	-434.57454	-434.613476	22.996	
O	-0.097756162	 0.027160555	-0.0011144449	-0.207001
C	 0.0193401574	 1.2210578842	 0.0061565565	 0.106175
C	 1.351821017	 1.9111287002	-0.0027815468	 0.317329
N	 2.4969664101	 1.361605898	-0.0194122107	-0.2549
C	 3.4509946719	 2.4631092	-0.0209079401	-0.314381
C	 2.6110775506	 3.7365759389	-0.002481279	 0.406608
O	 2.8988180732	 4.8877384584	 0.0042921277	-0.294072
O	 1.2838322771	 3.2875140102	 0.0088630581	-0.229991
H	-0.8413382637	 1.9183693462	 0.0206121709	 0.118492
H	 4.1105352915	 2.4176170803	 0.852520843	 0.17591
H	 4.0922672969	 2.4311177685	-0.9084160945	 0.17583
