21
gdb 103996	2.58106	1.35084	1.21066	2.0855	78.08	-0.2271	0.0702	0.2974	1166.2489	0.1799	-424.18815	-424.178582	-424.177638	-424.22186	36.887	
C	 0.1652551324	 1.4506274947	 0.2390884664	-0.386377
C	-0.1911534106	 0.0038455938	-0.1240608456	-0.227795
C	 0.6051814553	-0.5557714859	-1.3016092361	 0.34788
C	 0.3008817384	 0.12954686	-2.6271616018	-0.425067
O	 2.0604839438	-0.5091568955	-1.0545616847	-0.338258
C	 2.1827079979	-1.9023575653	-1.3352143168	 0.049568
C	 1.4446285585	-2.7220743233	-0.308276704	-0.377261
C	 0.6999724714	-2.0896207847	-1.4657938555	 0.265695
O	-0.0143379261	-2.8140126961	-2.4005735547	-0.453535
H	 1.2390584855	 1.5406169728	 0.4249157598	 0.138391
H	-0.1007720923	 2.1521096522	-0.5570410465	 0.116503
H	-0.3660739253	 1.762383733	 1.1433423223	 0.109503
H	-0.021945196	-0.6326653083	 0.7505773633	 0.09505
H	-1.259610784	-0.0735427157	-0.3654609188	 0.092676
H	 0.5489570312	 1.1925533919	-2.5739934605	 0.122945
H	 0.8854442358	-0.3223857114	-3.4317866234	 0.127733
H	-0.7593798571	 0.0292182487	-2.8799088686	 0.113779
H	 3.0308838971	-2.2413348446	-1.917607186	 0.109379
H	 1.5667658883	-3.7957023357	-0.4220039614	 0.115278
H	 1.3556277324	-2.3666371211	 0.7140367366	 0.114392
H	-0.7551569766	-3.2383897897	-1.954011654	 0.289522
