15
gdb 11774	4.68228	1.73591	1.57837	4.665	65.09	-0.2727	-0.0008	0.2718	824.9496	0.120858	-362.654801	-362.648468	-362.647524	-362.685142	24.849	
N	 0.0135239547	-1.1311198226	-0.0445028291	-0.333015
C	-0.0124192122	 0.0237704502	-0.0237139548	 0.188922
C	-0.0215956342	 1.4712019785	 0.0439087495	 0.317473
C	-0.8835367031	 2.2628227858	 1.0609278611	-0.263245
C	-0.7405362984	 3.278092989	-0.0928367381	 0.065678
C	 0.7519209719	 3.6658017828	-0.0684717353	-0.221298
C	 1.3366163929	 2.2223659962	 0.0460950492	-0.260964
O	-0.7448339402	 2.1473315075	-1.0305267934	-0.316766
H	-1.8914100223	 1.8563802052	 1.1327873419	 0.13419
H	-0.4599341009	 2.4912576824	 2.0411279845	 0.110714
H	-1.4887813144	 4.0360242826	-0.315848119	 0.096503
H	 1.0481036252	 4.1636610441	-0.9930618131	 0.12138
H	 1.010420131	 4.3076259111	 0.7773251672	 0.110032
H	 1.9112233404	 2.0445744077	 0.9574720923	 0.119506
H	 1.9387319796	 1.9338286194	-0.8161282629	 0.130891
