23
gdb 109017	3.33734	1.05982	0.91225	0.2753	92.41	-0.214	0.0279	0.2419	1409.5427	0.205859	-351.170384	-351.161124	-351.16018	-351.204222	36.086	
C	 0.134801355	 1.4913114289	-0.204312827	-0.373084
C	-0.111042444	 0.0093703092	 0.1298827431	-0.285321
C	 0.6387371497	-0.4684041462	 1.3388232024	 0.326164
C	 0.1167117498	-0.9742250494	 2.4628966139	-0.193502
C	 1.1621785634	-1.4349388965	 3.4183961334	-0.10545
C	 2.0474385332	-2.5594256892	 2.9058279284	-0.320668
C	 2.4944039412	-1.126923142	 2.7475237322	 0.357578
C	 3.6986868228	-0.6368305772	 3.5156274491	-0.481074
C	 2.1591474576	-0.4503307638	 1.413272525	-0.382516
H	 1.1911151691	 1.6845918116	-0.4163870247	 0.119051
H	-0.4408751454	 1.7922516811	-1.0850572809	 0.111196
H	-0.1608644802	 2.1340704595	 0.6309847858	 0.119053
H	-1.1834973193	-0.1582761755	 0.2816394925	 0.099554
H	 0.1748473353	-0.596928041	-0.741945952	 0.099678
H	-0.9457271059	-1.0902484619	 2.6517816318	 0.083031
H	 1.0180467033	-1.3293121534	 4.4889503232	 0.078461
H	 2.579011275	-3.1553071741	 3.6419688506	 0.102033
H	 1.7042374244	-3.1129547793	 2.037049472	 0.103791
H	 3.7756017816	-1.1274549898	 4.4913209516	 0.112105
H	 4.6293237021	-0.8398168867	 2.971441335	 0.114528
H	 3.6467486812	 0.4445939618	 3.6887969135	 0.1135
H	 2.6162733775	-0.9648077483	 0.5566702834	 0.101844
H	 2.547138433	 0.5782629222	 1.3899786076	 0.100049
