18
gdb 105713	2.32222	1.47075	1.16979	1.4241	77.87	-0.2573	0.0114	0.2686	1132.5916	0.146644	-401.92901	-401.920015	-401.919071	-401.963124	33.123	
C	 0.0184169137	 1.5452500455	-0.0159474697	-0.389865
C	-0.076960668	 0.0235955754	 0.0922007347	-0.209976
C	-1.5183462707	-0.5294642151	-0.0146249936	 0.068077
C	-1.5593360746	-2.0820027839	 0.2078412427	-0.152765
O	-2.3621752507	-2.2553222551	 1.3957963049	-0.218934
C	-2.7195444786	-1.0085361546	 1.7751292685	 0.122256
N	-2.34340777	 0.0002563723	 1.1085546923	-0.278085
C	-2.1259877189	-0.1665002932	-1.2969871741	 0.358725
C	-2.6111431925	 0.0970210059	-2.3644744657	-0.484387
H	 1.0565542286	 1.8717005659	 0.0961946404	 0.108838
H	-0.3443479127	 1.8925153663	-0.9875475079	 0.129286
H	-0.5823794464	 2.024604807	 0.760515415	 0.141682
H	 0.5258412558	-0.4533630317	-0.6903793247	 0.103209
H	 0.3236589867	-0.3117552915	 1.0564460125	 0.100978
H	-2.0357582869	-2.6183933105	-0.6140959464	 0.133661
H	-0.5681376833	-2.5027958924	 0.3981700017	 0.121562
H	-3.330753857	-0.9733402207	 2.6705091561	 0.146106
H	-3.0486624144	 0.3418315605	-3.3008494066	 0.199632
