18
gdb 85459	2.57258	1.46723	1.12229	3.0681	72.83	-0.239	0.0275	0.2665	1113.5043	0.147895	-439.113969	-439.105605	-439.104661	-439.147002	32.35	
O	 0.0743882184	 1.438601204	-0.0836088363	-0.424223
C	 0.0298310679	 0.0226427003	-0.0055714833	 0.051441
C	 0.5911309419	-0.5181271745	 1.3224172703	-0.36609
C	-0.6371274877	-0.734118122	 2.2145978134	 0.383995
O	-0.6656400804	-0.9245995504	 3.4093985328	-0.375606
N	-1.72700514	-0.6735157573	 1.3808524223	-0.369283
C	-1.4062996147	-0.519586576	-0.0134705375	 0.352882
C	-2.418614235	-0.0638527223	-1.0145139529	-0.324217
C	-1.899174033	-1.4898360487	-1.0577199083	-0.32257
H	-0.4631262069	 1.7943918586	 0.6334057063	 0.286626
H	 0.5901431788	-0.326293905	-0.8751266228	 0.095849
H	 1.0845158859	-1.4871769268	 1.1888730118	 0.13431
H	 1.3089403889	 0.1643548095	 1.7798825274	 0.135989
H	-2.6501763747	-0.8855168844	 1.7260417497	 0.250978
H	-3.438449775	 0.091380114	-0.6770248416	 0.115506
H	-2.0875392797	 0.6375547657	-1.7725295888	 0.136349
H	-1.2262238514	-1.7714469092	-1.8610490247	 0.121748
H	-2.5684259134	-2.2808200454	-0.7351402378	 0.116315
