18
gdb 75915	2.7312	1.53347	1.10131	3.4355	71.2	-0.2569	0.0088	0.2656	1098.8028	0.148529	-439.105595	-439.097439	-439.096495	-439.138453	30.92	
C	-0.434883819	 1.4411141549	-0.0269214599	-0.412739
C	 0.0928416077	 0.0103705119	 0.0072820996	-0.245265
C	 1.1332951512	-0.2587611721	-1.0841650783	 0.455442
O	 1.1725687216	 0.2057677757	-2.1859193891	-0.341811
O	 2.0604042912	-1.1434428182	-0.6306418645	-0.224151
C	 1.7823423697	-1.5325135888	 0.7261187255	-0.137183
C	 0.8115484207	-0.4847786656	 1.2537881927	 0.307377
C	 1.1217295332	 0.3685169476	 2.4265841501	-0.284103
N	 0.1698970417	-0.7580438573	 2.5347865817	-0.366588
H	 0.36677205	 2.1644652009	 0.1452386174	 0.133058
H	-0.8658529483	 1.6480456336	-1.0090223913	 0.148916
H	-1.2111354905	 1.5969808581	 0.7293010063	 0.112406
H	-0.7371394043	-0.6826765668	-0.2038569184	 0.11763
H	 1.3282166891	-2.5302594449	 0.7289287079	 0.124831
H	 2.7281505762	-1.5716131156	 1.2702753779	 0.129161
H	 2.0552001651	 0.2293340319	 2.9654859575	 0.124467
H	 0.7317472866	 1.3816316148	 2.4491056794	 0.122609
H	-0.7856033221	-0.4071768098	 2.5370016957	 0.235943
