20
gdb 97610	3.43805	0.63154	0.57179	3.9983	87.16	-0.2442	0.0271	0.2714	1992.8873	0.168659	-403.157477	-403.146437	-403.145493	-403.197045	37.545	
C	 0.2042054857	 1.5873330452	 0.099929108	-0.36423
C	-0.1468928773	 0.1129100445	-0.170564141	-0.316594
C	 0.5555339374	-0.4433540581	-1.3228577416	 0.104728
C	 1.1595550224	-0.873981293	-2.2721816091	 0.019767
C	 1.8673297118	-1.4361138107	-3.4213239743	-0.113867
C	 2.0788193697	-2.9560579066	-3.2853718191	-0.380995
N	 1.1522254874	-1.100447403	-4.6579651811	-0.273807
C	 1.8002569327	-0.8867350661	-5.8304230451	 0.159257
O	 3.0010126788	-0.9788394683	-5.9853643395	-0.330047
H	 1.2742563299	 1.7027543508	 0.2915772984	 0.131452
H	-0.0531947184	 2.2123413404	-0.7593749865	 0.128738
H	-0.3447826449	 1.9555426834	 0.9715956722	 0.116367
H	 0.0851479748	-0.4894846797	 0.7170338652	 0.13307
H	-1.2293682	 0.0146149984	-0.3234141639	 0.129229
H	 2.8528143693	-0.9660668198	-3.5171408461	 0.141208
H	 2.6349404236	-3.3225593702	-4.1515306426	 0.141189
H	 2.6474571997	-3.1781861119	-2.3783143105	 0.126522
H	 1.1181249855	-3.47530728	-3.2279029822	 0.117672
H	 0.1525424784	-0.984674749	-4.6136554591	 0.251984
H	 1.1020269435	-0.6137380665	-6.6464995823	 0.078357
