15
gdb 19629	4.91906	1.99734	1.83295	3.0236	63.96	-0.2452	0.0711	0.3163	748.3617	0.120064	-362.569059	-362.563205	-362.562261	-362.598783	23.594	
C	-0.0667688265	 1.4976708743	-0.034983814	-0.291659
O	 1.1101932337	 0.6648567783	 0.0265564832	-0.287372
C	-0.1560385755	 0.0404652192	-0.0002334092	 0.529198
C	-0.5544456886	-0.9713938079	 1.0328449995	-0.158026
C	-1.7021794343	-1.7471827942	 0.4637492113	-0.042122
C	-2.0366229352	-1.2058352711	-0.918415825	-0.242514
C	-0.5109768119	-1.0193133387	-1.0355706954	-0.118948
N	-0.302205699	-2.115387559	 0.0744680134	-0.154313
H	-0.2709992597	 2.0781345031	 0.8635845789	 0.118891
H	-0.2076186931	 2.0312284525	-0.974184671	 0.117464
H	-0.256396175	-1.0249638373	 2.0728637734	 0.108543
H	-2.2995697701	-2.4056912825	 1.0848229093	 0.10219
H	-2.3953719858	-2.0070665241	-1.5692575939	 0.117824
H	-2.6784254572	-0.3247314661	-1.0206081713	 0.101465
H	 0.0283949583	-1.0875484564	-1.9774402994	 0.099379
