20
gdb 6225	3.51315	1.56985	1.48827	0.863	71.11	-0.2461	0.0872	0.3333	990.4145	0.175184	-386.164393	-386.155537	-386.154593	-386.197731	33.039	
C	-0.0841663537	 1.5296731706	 0.0684505787	-0.410589
C	 0.0907918446	 0.0226351673	 0.0379238348	 0.126201
C	 0.7881055017	-0.5476875509	-1.1974412515	-0.105049
O	 1.3602914405	-1.7508272924	-0.7171136814	-0.294889
C	 1.6269828908	-1.5868922257	 0.68080418	 0.453795
C	 1.0336866011	-2.7860587949	 1.4168164771	-0.409459
C	 3.1254739336	-1.4244195217	 0.9229114888	-0.409889
O	 0.9794717199	-0.3786421865	 1.0778502318	-0.30687
H	 0.880041022	 2.0297335593	-0.0627664984	 0.12366
H	-0.7604642333	 1.8522881518	-0.7297569365	 0.117438
H	-0.5094524355	 1.8475222342	 1.024083196	 0.130458
H	-0.8856549672	-0.4719975898	 0.167551885	 0.070756
H	 0.1074519793	-0.7880346372	-2.0189776061	 0.108316
H	 1.5583294151	 0.1488794633	-1.5654465829	 0.088652
H	 1.477618375	-3.7147436151	 1.0477197668	 0.122549
H	 1.2246921495	-2.7055891062	 2.490342446	 0.119323
H	-0.045705086	-2.8287516673	 1.2516887868	 0.117059
H	 3.5079592154	-0.5844467217	 0.3379014987	 0.116483
H	 3.319662149	-1.2280637927	 1.9810001626	 0.121953
H	 3.6577112081	-2.3328335544	 0.6285635637	 0.120103
