19
gdb 58787	3.30263	1.10163	1.01018	3.3669	76.09	-0.2422	-0.0256	0.2165	1254.5089	0.156681	-423.011775	-423.002701	-423.001756	-423.045755	33.926	
C	 0.0282483641	 1.4475315292	-0.2236777676	-0.396733
C	 0.0248354123	-0.0562099912	 0.0974596965	-0.092835
C	 0.858099148	-0.3728771613	 1.3474759991	-0.398735
C	-1.3855440121	-0.5581587135	 0.2331600154	 0.447071
C	-2.4245248378	-0.2840146616	 1.3440799108	-0.427214
C	-2.9693407789	-1.7151459607	 1.0481142307	 0.4354
O	-3.7408055315	-2.4356600793	 1.6062687968	-0.298299
C	-1.9626178256	-1.8988324869	-0.0801131907	-0.196141
O	-2.1618624424	-0.7565424478	-0.9465253891	-0.288147
H	 1.0501411701	 1.8033556731	-0.386262851	 0.117648
H	-0.5552074928	 1.6572898052	-1.1244854933	 0.134308
H	-0.4000127237	 2.0266655547	 0.6021824167	 0.119857
H	 0.4570757741	-0.5901684711	-0.758171002	 0.091757
H	 0.4726888001	 0.1551046598	 2.2264431081	 0.12181
H	 0.8597407014	-1.4445509968	 1.5694448803	 0.120193
H	 1.895140557	-0.0561209022	 1.202596153	 0.122052
H	-2.0280757252	-0.2360719968	 2.3625289558	 0.134322
H	-3.0948926316	 0.5576260523	 1.1609216363	 0.135022
H	-1.5307441653	-2.7908873552	-0.5191195059	 0.118664
