16
gdb 8863	3.68187	1.43119	1.13227	5.1736	68.15	-0.2675	-0.0479	0.2195	1054.0807	0.129434	-379.958431	-379.949376	-379.948432	-379.992651	30.831	
C	-0.0913591401	 1.6297022138	 0.0311673788	-0.381589
C	-0.0509453989	 0.1004548801	-0.0203803187	-0.160635
N	-1.385014781	-0.5074988561	-0.0076454722	-0.096659
C	-2.0526718325	-0.7087212232	-1.2829779395	-0.359717
C	-1.9314439885	-0.7903932185	 1.2015190628	 0.363041
O	-1.4018012028	-0.581998032	 2.2770209113	-0.364289
C	-3.2744901993	-1.4083853478	 1.1649972292	 0.212446
N	-4.3233616254	-1.8908007443	 1.2213864364	-0.332145
H	 0.9257824691	 2.0308833303	-0.0070058407	 0.127878
H	-0.6500326819	 2.0484459643	-0.811652565	 0.121444
H	-0.5576472165	 1.9649271457	 0.9608061238	 0.149422
H	 0.4546658977	-0.245648841	-0.9276196246	 0.111361
H	 0.4913286906	-0.287893836	 0.8437815514	 0.15011
H	-3.0441184552	-1.1347923965	-1.1291359659	 0.176516
H	-2.1643474892	 0.2425550766	-1.8153285177	 0.141489
H	-1.4724059962	-1.3922091753	-1.9132300992	 0.141327
