18
gdb 73299	2.83782	1.86981	1.31618	2.4271	70.62	-0.235	0.0656	0.3006	961.5872	0.149158	-439.027559	-439.020278	-439.019334	-439.058615	30.46	
O	 0.1136467576	 1.3450203971	 0.0900339841	-0.499326
C	 0.0596166362	-0.0324682834	 0.0700622668	 0.504296
C	 0.945675543	-0.7562465468	 1.0722087639	-0.291024
C	 0.6049825961	-2.2309295844	 0.7149109291	-0.308463
C	-0.4031908857	-1.9991569405	-0.4140543766	 0.425587
O	-0.9298682489	-3.0922823169	-1.0992798449	-0.483662
C	-1.3122747008	-0.7715650333	-0.0600232794	-0.186662
N	-1.3624890541	-0.3213742912	-1.5034155096	-0.381244
C	 0.05580582	-0.807202935	-1.2926854901	-0.151826
H	-0.5010975583	 1.635725235	-0.6004440257	 0.290937
H	 2.0010799198	-0.5130907824	 0.9217607661	 0.112379
H	 0.6860772199	-0.4908617194	 2.1008145938	 0.109831
H	 1.4712865956	-2.8010425129	 0.3673442189	 0.111028
H	 0.1610133721	-2.7778050848	 1.5542655969	 0.094216
H	-1.391538968	-3.6544831869	-0.4678956547	 0.284402
H	-2.1796414131	-0.7200942555	 0.6025052321	 0.071216
H	-1.8713696666	-1.0178441564	-2.0535589969	 0.220605
H	 0.8042516752	-0.7991013022	-2.0874157939	 0.07771
