19
gdb 59433	3.42391	0.99545	0.88891	2.5197	71.92	-0.2525	0.0597	0.3122	1358.1167	0.156654	-460.112754	-460.103323	-460.102379	-460.147768	34.043	
C	 0.0545842051	 1.4414520408	-0.3179154124	-0.413287
C	 0.0842714965	 0.0358882352	 0.2773215937	 0.103264
O	 0.7594581803	-0.0112454573	 1.5302404636	-0.426468
C	-1.3103018231	-0.5448252715	 0.4193997081	-0.058261
O	-1.9347789017	-1.0169429113	-0.7912537307	-0.279654
C	-1.584672521	-1.9601727822	 0.2032745076	 0.355523
C	-0.6628077302	-3.1588500467	 0.000053428	-0.15487
O	-1.5992520086	-4.0021617148	 0.7096186645	-0.275857
C	-2.5571468534	-2.9311817413	 0.8630742928	-0.154458
H	 1.069848385	 1.8334034945	-0.4207859025	 0.128166
H	-0.4240486338	 1.4306605055	-1.3014498327	 0.140257
H	-0.5158395587	 2.1238632835	 0.3253789663	 0.107893
H	 0.6586635546	-0.6234778886	-0.3828020103	 0.097476
H	 0.3875435951	 0.6753889529	 2.0948326649	 0.28177
H	-1.9812382353	 0.0171174895	 1.0759675402	 0.087146
H	-0.5365092266	-3.4615260378	-1.0470785502	 0.113549
H	 0.3139508981	-3.1155807804	 0.4957482189	 0.122743
H	-2.8070871124	-2.744906455	 1.9144843493	 0.110096
H	-3.4770281399	-3.1045894951	 0.2901060208	 0.114972
