16
gdb 25901	2.63847	1.50059	0.97526	2.6974	72.18	-0.232	-0.0187	0.2132	1153.6804	0.124899	-437.954562	-437.946099	-437.945154	-437.987995	31.237	
C	 0.0472074314	 1.4935705471	 0.069528929	-0.48544
C	-0.00621312	-0.0012735141	 0.0486800897	 0.140884
C	 0.0013340418	-0.8116430103	-1.0399784689	-0.088806
O	-0.0666393901	-2.1292643571	-0.6799503627	-0.14692
C	-0.1110889031	-2.1601718298	 0.6671001397	-0.102225
C	-0.0727139522	-0.8965933775	 1.1835022384	 0.081278
C	-0.1369707147	-0.488512044	 2.6047479952	 0.303094
N	 0.1291121103	-1.4841022473	 3.5195365551	-0.537554
O	-0.4399857127	 0.6400082436	 2.9504002897	-0.363713
H	 0.9240796095	 1.8519367873	 0.6178861326	 0.136352
H	 0.0893979192	 1.8937592933	-0.947406106	 0.111535
H	-0.8248496062	 1.9076744028	 0.581093799	 0.153739
H	 0.0470665475	-0.6209698095	-2.0995517837	 0.141121
H	-0.207567983	-3.1375322125	 1.1120110888	 0.144551
H	 0.7117184247	-2.2598712895	 3.2506558703	 0.253501
H	 0.2102707476	-1.1746580924	 4.4762565136	 0.258605
