14
gdb 131269	3.37205	1.16985	0.87358	3.3156	67.68	-0.2166	0.0017	0.2183	1232.1947	0.101661	-470.007131	-469.998875	-469.997931	-470.040809	29.458	
O	-0.0000553866	 1.3710718149	 0.0272319644	-0.448998
C	 0.0455263869	 0.0158349633	-0.0015910791	 0.162216
C	-0.0428264379	-0.8080195469	-1.1029408303	-0.098696
N	 0.0414620794	-2.0806711205	-0.6245756828	-0.203123
N	 0.1948600624	-2.143556404	 0.713421129	-0.309894
C	 0.1867547623	-0.87352622	 1.0850825443	 0.34448
O	 0.3254132269	-0.4319310029	 2.3670087088	-0.236876
C	 0.0111140677	-1.280127656	 3.3892147555	 0.114592
N	 0.2247190793	-0.8987638417	 4.5693441811	-0.434115
H	 0.0944193975	 1.6477768602	 0.9462179456	 0.311256
H	-0.1590267969	-0.5865712296	-2.150442426	 0.146376
H	 0.0356853218	-2.9358643211	-1.1506326778	 0.280878
H	-0.4092132216	-2.2262426324	 3.0416069188	 0.135172
H	-0.0729848912	-1.6199921932	 5.2234635284	 0.236731
