24
gdb 22457	2.31399	0.94465	0.81137	0.5515	88.94	-0.2384	0.0173	0.2557	1596.4692	0.2147	-405.524972	-405.51352	-405.512576	-405.561778	41.556	
C	-0.092161924	 1.4262302677	 0.3090624184	-0.390589
C	 0.16351497	-0.0763194714	 0.1556567289	-0.167053
C	 0.7100280038	-0.4939655618	-1.2335020165	-0.040953
C	 2.1136659067	 0.0646960665	-1.495917629	-0.391639
C	 0.6305381274	-2.0037237583	-1.375369456	 0.345985
C	-0.7130945226	-2.6356385638	-1.6568937052	-0.263117
C	-0.8854517379	-2.9717881483	-3.1502137574	-0.37629
N	 1.7197881961	-2.6610624275	-1.2565772369	-0.182933
O	 1.520119542	-4.0501568896	-1.3899010226	-0.404009
H	 0.8286334044	 2.0102559539	 0.221994849	 0.121664
H	-0.7899307961	 1.7884819651	-0.4546541996	 0.112649
H	-0.5288641504	 1.6469882588	 1.2881337062	 0.113404
H	 0.8740289582	-0.4168199481	 0.9192801579	 0.105567
H	-0.7722415426	-0.6137195584	 0.3505942521	 0.097932
H	 0.0245553273	-0.078211778	-1.9884429861	 0.075388
H	 2.1068204903	 1.1578685451	-1.4755545296	 0.105145
H	 2.823336941	-0.292307253	-0.7450411351	 0.128482
H	 2.4840804995	-0.2553040663	-2.4732408767	 0.116629
H	-0.8085440309	-3.5524038307	-1.0684644942	 0.126056
H	-1.5082951881	-1.952954757	-1.340850731	 0.095997
H	-0.7983568572	-2.0750841841	-3.7725590259	 0.115092
H	-0.1225743257	-3.6852929084	-3.4691846239	 0.140461
H	-1.8700161532	-3.4126235047	-3.3338562707	 0.112969
H	 2.4119859019	-4.3906104376	-1.2667770962	 0.303163
