17
gdb 68577	2.40283	1.879	1.46949	2.1429	72.89	-0.2296	-0.0153	0.2144	945.9854	0.136508	-421.838825	-421.831243	-421.830299	-421.870525	30.031	
O	 0.2605728606	 1.4242179436	-0.1617875456	-0.486116
C	 0.1034158686	 0.045668691	-0.0684692276	 0.29497
C	-1.3245027056	-0.6214282427	 0.0432405429	-0.285938
C	-0.6518525536	-1.7497885176	 0.8940278274	-0.194655
C	 0.0817054279	-2.6873206786	-0.0486962765	-0.063996
C	 0.7939992246	-2.1570637889	-1.0442178341	-0.073605
C	 0.9036960196	-0.6577830531	-1.1819161973	-0.28692
C	 0.3400784088	-0.6380348553	 1.2861526611	 0.370751
O	 0.840468068	-0.2506026798	 2.3040627834	-0.336367
H	 0.2617591488	 1.7807346842	 0.7351854377	 0.292721
H	-2.0076700595	-0.00322532	 0.6304175692	 0.112034
H	-1.7834754304	-0.9364763172	-0.8951016025	 0.114734
H	-1.2180011481	-2.2430871879	 1.6815673993	 0.091086
H	 0.0110814597	-3.7576543058	 0.1114062644	 0.102675
H	 1.3242613489	-2.7790420158	-1.7586212193	 0.100563
H	 0.5466984652	-0.3100106463	-2.1610005082	 0.12025
H	 1.9506478564	-0.3360274296	-1.1080755843	 0.127813
