21
gdb 41982	2.39776	2.01372	1.57416	1.5309	80.02	-0.2366	0.0741	0.3107	961.457	0.187302	-387.099062	-387.092061	-387.091117	-387.13027	29.132	
C	-0.086409439	 1.4501748472	-0.2397110056	-0.095247
O	 1.0854748824	 2.0323615311	 0.3251839631	-0.277641
C	 1.8944198074	 1.0489127658	 0.9923719895	 0.103842
C	 1.8340362366	 1.3129674794	 2.5030907515	-0.201803
C	 0.3763800923	 1.286637147	 2.9771460513	-0.204153
C	-0.3215231048	-0.0507223935	 2.6581460023	-0.223733
C	 0.0524417871	-0.685941242	 1.3245648226	-0.025583
C	 0.0107444064	-0.051948701	-0.0523134592	-0.078548
C	 1.3351275579	-0.3216082572	 0.6151691635	-0.095251
H	-0.9764227079	 1.8888878601	 0.2342790263	 0.094455
H	-0.1274156987	 1.6943113726	-1.3099761682	 0.098129
H	 2.9226479418	 1.1555826687	 0.6266904272	 0.071046
H	 2.4341094473	 0.5543019676	 3.023346675	 0.08759
H	 2.281494057	 2.2883045237	 2.7209143149	 0.098115
H	 0.3217862474	 1.4694582143	 4.055245151	 0.087591
H	-0.1489213781	 2.1163486433	 2.4952159816	 0.116246
H	-0.045938832	-0.7771725797	 3.4341904828	 0.098477
H	-1.4098058434	 0.0671384055	 2.73198517	 0.096127
H	-0.1926059665	-1.7451642687	 1.2893741554	 0.081009
H	-0.3336772194	-0.6754879359	-0.8698873274	 0.086886
H	 2.0219722463	-1.0844600582	 0.2679359325	 0.082449
