18
gdb 66741	2.54098	2.27355	1.80343	1.9128	80.57	-0.206	-0.0458	0.1602	860.1076	0.148101	-364.685258	-364.678404	-364.67746	-364.715921	28.588	
C	-0.1281300961	 1.6047868194	-0.1247488469	-0.515381
C	 0.0294019574	 0.1172130062	-0.0430311033	 0.348373
C	 1.0362558428	-0.7472871109	-0.8178067048	-0.078909
C	 2.2982789032	-0.7305205698	 0.1151886292	-0.274913
C	 1.6021911615	-0.9208787301	 1.4689417879	-0.114565
C	 0.298502326	-0.6395818908	 1.2806990886	 0.006362
C	-0.7161936625	-1.6322585344	 0.7558957004	-0.091706
C	-0.0941944575	-1.8171344663	-0.6369888658	-0.059565
N	-1.1705712292	-0.7950082793	-0.3759054082	-0.198702
H	 0.8019986902	 2.1067653403	 0.1631575811	 0.124003
H	-0.3908650343	 1.9130780016	-1.1417853755	 0.126518
H	-0.9190399501	 1.9462774064	 0.5507453771	 0.131921
H	 1.214618957	-0.5171890096	-1.8727437472	 0.071703
H	 2.9986755178	-1.5602331434	-0.0358440318	 0.113266
H	 2.869125376	 0.1935004206	-0.0497720928	 0.114426
H	 1.9645287273	-1.6605098397	 2.176290456	 0.10138
H	-1.3443236957	-2.3844558922	 1.2208915185	 0.100267
H	-0.2893076038	-2.6877551482	-1.2545617126	 0.095521
