18
gdb 71228	2.86339	1.87529	1.68943	2.0559	75.31	-0.2149	0.0028	0.2177	887.2807	0.149365	-401.892699	-401.885877	-401.884933	-401.923279	29.027	
O	-0.0437045455	 1.4322322547	-0.048909647	-0.499575
C	 0.0221853717	 0.0356995962	 0.0141628053	 0.353095
C	 0.2631225341	-0.7108060431	 1.3722490543	-0.210689
N	-0.7423418768	-1.730722664	 0.9681717428	-0.144468
C	-0.3932304674	-2.4910669249	-0.3338437174	-0.059924
C	-1.6280691713	-1.7949028841	-0.9928149898	-0.232892
C	-1.3729013764	-0.7002517191	 0.0368652748	-0.015065
C	 0.819601176	-1.9545053145	-1.0465266423	-0.072533
C	 0.9665439945	-0.6314603296	-0.955166904	-0.159249
H	 0.8491179924	 1.7814067456	-0.1435343184	 0.276815
H	 1.2723968658	-1.0648137371	 1.5991582098	 0.095101
H	-0.1523097866	-0.1544412079	 2.2191244164	 0.110079
H	-0.4029462162	-3.5740379709	-0.2082220822	 0.075218
H	-1.5719752605	-1.5720482899	-2.0588460617	 0.103319
H	-2.558046428	-2.3147655806	-0.7514420418	 0.114236
H	-2.1846888265	-0.0811540464	 0.4272193815	 0.080882
H	 1.4574810217	-2.6048816219	-1.6350042157	 0.096824
H	 1.7470545289	-0.0559188126	-1.4447367548	 0.088825
