19
gdb 70525	2.53856	1.70749	1.25007	1.42	74.72	-0.2377	0.0114	0.2491	1044.3414	0.161475	-419.184593	-419.176606	-419.175662	-419.216796	31.111	
C	 0.0909402715	 1.5029185143	-0.1502575782	-0.450737
C	 0.0240352543	-0.002460827	-0.0237057196	 0.311308
C	-1.2459571245	-0.64310174	-0.5425582156	-0.15035
O	-2.3408842021	-0.4706393667	 0.3747671001	-0.226385
C	-2.2867453211	-1.078963273	 1.5922464278	 0.141735
N	-1.3909004822	-1.7181887567	 2.2095295935	-0.263
C	-0.0326623955	-1.9382018784	 1.7092832359	-0.202643
C	 0.6455163755	-0.701976472	 1.1309536725	-0.052055
N	 1.3064312943	-0.7158967922	-0.1902557484	-0.384061
H	 1.0001747715	 1.8867906404	 0.3175778768	 0.129805
H	 0.0998581929	 1.8048947685	-1.2038117905	 0.11883
H	-0.7757722676	 1.9689695646	 0.3299566511	 0.128925
H	-1.5851942882	-0.1666904551	-1.4663451449	 0.119521
H	-1.1096624923	-1.7100933124	-0.7463348866	 0.108266
H	-3.2565701415	-0.9378671519	 2.0705962331	 0.12364
H	 0.5600925912	-2.3047548328	 2.5534414249	 0.116546
H	-0.0322710271	-2.7565711837	 0.977664612	 0.105499
H	 1.1695591738	-0.0885561995	 1.8608951514	 0.101293
H	 1.1613645772	-1.6173532764	-0.6414537354	 0.223861
