21
gdb 50156	5.128	0.81047	0.80504	3.0585	84.39	-0.2433	-0.0209	0.2224	1490.2462	0.182068	-387.080803	-387.072041	-387.071097	-387.11499	33.078	
O	 0.01126404	-0.1138512944	-0.2606299732	-0.253824
C	 0.0873938748	 1.0672905818	-0.0378608239	 0.160052
C	 1.3488415747	 1.8799461416	-0.0391406241	-0.056416
C	 1.3375420741	 3.1914015591	-0.8857240956	-0.308006
C	 2.0535577515	 3.9219395798	 0.2824324535	 0.391411
C	 3.5616232041	 4.2348003844	 0.070637745	-0.273338
C	 3.184808321	 5.7269654556	-0.1348050123	-0.207224
C	 1.8141106775	 5.429200442	 0.532319661	-0.295912
C	 1.6098802022	 2.7733794999	 1.2151938139	-0.331153
H	-0.8271269417	 1.6663090822	 0.1984010665	 0.061149
H	 2.1955045987	 1.2333520406	-0.2768065017	 0.092066
H	 1.8356950009	 3.1556428847	-1.857815179	 0.110119
H	 0.3155440245	 3.5620008108	-1.0277470323	 0.101683
H	 4.1336965299	 4.0842340554	 0.9920285104	 0.100102
H	 4.0753059292	 3.7179098921	-0.7450474365	 0.097738
H	 3.8242021182	 6.476295305	 0.3365011883	 0.099305
H	 3.0777708813	 5.9803400993	-1.1929391517	 0.105304
H	 0.9184540865	 5.8718419707	 0.0864988768	 0.094524
H	 1.821390491	 5.6646605665	 1.6019099413	 0.100924
H	 0.6745057072	 3.0118099226	 1.7354977687	 0.103214
H	 2.3317810844	 2.4004697103	 1.9462836049	 0.10828
