21
gdb 84686	2.17796	1.785	1.37847	2.0194	82.26	-0.2394	0.0112	0.2507	1064.0387	0.182993	-387.088498	-387.080012	-387.079068	-387.121173	33.291	
C	-0.6911788905	 1.3302765216	 0.0014995678	-0.408178
C	 0.0008545927	-0.0376544932	-0.082439737	-0.089185
C	 1.0417202933	-0.1436730802	-1.1794521909	-0.069466
C	 2.1806277471	-0.7115846644	-0.7820810511	-0.107914
C	 2.1387221709	-1.0710076616	 0.6776276016	 0.053596
O	 2.9014992971	-0.1728226841	 1.5242598147	-0.297142
C	 1.7074439161	 0.5626801717	 1.8643711031	-0.124465
C	 0.7872987475	-0.4865793296	 1.1786537584	 0.277869
C	-0.0215807506	-1.3343104009	 2.148449536	-0.484329
H	 0.0280563575	 2.1457117667	 0.1225120127	 0.122508
H	-1.2626671783	 1.5283400717	-0.9112428636	 0.115618
H	-1.3914275305	 1.3669073893	 0.8428915415	 0.115896
H	-0.7898513941	-0.7803957096	-0.2721089206	 0.078059
H	 0.8403244165	 0.2070859133	-2.1876910427	 0.095076
H	 3.0498141925	-0.8908299991	-1.4049715709	 0.099684
H	 2.3899294922	-2.1163168606	 0.8953091416	 0.071717
H	 1.5881983152	 0.6610699076	 2.949962269	 0.097521
H	 1.7045782455	 1.5625746776	 1.4148078536	 0.096859
H	-0.8654884628	-0.7676499779	 2.5599450042	 0.116152
H	-0.4287742933	-2.2216915994	 1.6509272482	 0.116852
H	 0.5934669658	-1.6720697491	 2.9890619744	 0.123273
