10
gdb 3876	6.36321	2.96891	2.02439	4.4835	50.91	-0.2433	-0.075	0.1683	571.0596	0.068489	-351.666551	-351.660865	-351.659921	-351.696008	19.998	
N	-0.0209674129	 1.3293897089	 0.0080418445	-0.543301
C	-0.032608881	-0.0126935238	 0.0014357048	 0.50793
N	-1.2107501811	-0.6509972791	 0.0047678336	-0.290834
C	-1.0707881301	-1.9664184948	-0.003522371	 0.115638
N	 0.0805135769	-2.647639568	-0.0132901631	-0.201703
N	 1.2019519651	-1.9348641205	-0.0161465235	-0.052763
N	 1.1790924049	-0.6292079918	-0.0091707445	-0.239105
H	 0.8594373153	 1.8141975566	 0.0053315001	 0.283064
H	-0.8893506131	 1.8347936924	 0.0157637733	 0.27941
H	-1.977001454	-2.5675842298	-0.0002842041	 0.141663
