22
gdb 120135	2.7179	1.07787	0.91409	0.476	82.07	-0.2214	0.0749	0.2964	1370.1314	0.194093	-404.292198	-404.28271	-404.281766	-404.32676	35.72	
C	 0.1785766975	 1.7454239704	 0.4633544805	-0.418087
C	 0.1152502257	 0.241498986	 0.2469434653	 0.101704
C	 0.7239777032	-0.4593304814	-0.9984245866	-0.292549
C	 1.3969511499	-1.4137554541	-0.0117878428	-0.051411
C	 2.3027848465	-0.7225099009	 0.9219958132	 0.017989
C	 3.2326571823	 0.4248711351	 0.5930969331	-0.228339
C	 3.5360731552	 1.3017297518	 1.8041243785	-0.063219
O	 4.421701631	 2.3270456889	 1.3782307791	-0.424801
N	 0.8443816096	-0.6755734909	 1.209061849	-0.183248
H	 1.1665332367	 2.1742854949	 0.2875827135	 0.129656
H	-0.5249859556	 2.2450263168	-0.212090985	 0.115262
H	-0.1200080298	 1.9856729435	 1.4896056171	 0.124937
H	-0.9334755683	-0.0599006988	 0.3364149169	 0.088276
H	-0.0236460815	-0.9339072248	-1.6360944425	 0.106494
H	 1.3974844807	 0.1254362449	-1.6323098666	 0.104463
H	 1.3536898511	-2.4967236416	-0.0820546391	 0.090155
H	 2.7477146958	-1.4000522089	 1.6519708076	 0.092764
H	 4.1784594442	 0.0010522417	 0.2316754639	 0.108994
H	 2.854770076	 1.054875519	-0.2143232473	 0.111199
H	 2.601527198	 1.7200084282	 2.2065685581	 0.098073
H	 3.9862880322	 0.6881562449	 2.6013068986	 0.085764
H	 4.6154020296	 2.8897405052	 2.1334563656	 0.285925
