19
gdb 126256	2.98911	1.19463	0.92202	0.9849	79.7	-0.2007	0.0309	0.2316	1315.382	0.15884	-419.239023	-419.229062	-419.228118	-419.274638	35.289	
C	 0.0860387176	 1.5547762595	 0.2527934334	-0.366424
C	 0.0104499151	 0.0363105907	 0.0074114867	-0.306866
C	-1.384489939	-0.4910191917	-0.0836878556	 0.301161
C	-2.1761080072	-0.7873096445	-1.1756965131	 0.102973
O	-1.7796204691	-0.6488452772	-2.4773778147	-0.452341
C	-3.4198894944	-1.2266822783	-0.6631348499	 0.25099
C	-4.6247620349	-1.6725892428	-1.4280091057	-0.520369
N	-3.405195123	-1.2061070728	 0.6710478189	-0.288935
N	-2.1800412262	-0.7559983495	 0.99362813	-0.269249
H	 1.127090009	 1.8885580143	 0.3060613035	 0.11369
H	-0.40895168	 2.1018793755	-0.5545667775	 0.131611
H	-0.4055855603	 1.8301863172	 1.1914402546	 0.113229
H	 0.5199862355	-0.2071726639	-0.930288455	 0.129117
H	 0.5553328821	-0.4906566208	 0.8015859665	 0.103641
H	-2.4477507072	-1.0452889311	-3.0441066406	 0.297472
H	-4.4143438627	-2.5495593317	-2.0538478922	 0.120497
H	-5.4206873095	-1.9438682676	-0.731440569	 0.148735
H	-5.0065790292	-0.8833089271	-2.0875558973	 0.124626
H	-1.9339536267	-0.6716885982	 1.964715887	 0.26644
