14
gdb 129787	3.47327	1.63737	1.11937	3.9739	71.48	-0.193	-0.016	0.1771	994.7631	0.104456	-429.03811	-429.030743	-429.029799	-429.070812	27.569	
N	 0.1803914604	 1.4031161919	-0.0405108757	-0.610435
C	 0.0070226879	 0.0039705479	-0.017061121	 0.129492
C	-1.0773148085	-0.8691507203	-0.0553900029	 0.259808
N	-2.4529167634	-0.904950905	-0.1291733357	-0.317056
N	-2.8199642691	-2.1390081816	-0.120051891	-0.105494
N	-1.7138282226	-2.9515494489	-0.0409696887	-0.389039
C	-0.5772402138	-2.1973749589	 0.0029956022	 0.334397
C	 0.8004515171	-2.1591527225	 0.0768522033	-0.237667
N	 1.1078870627	-0.8096583924	 0.0618283045	-0.23258
H	-0.2074507776	 1.8080362632	-0.8875376647	 0.252562
H	-0.2976594324	 1.8463804891	 0.7384636729	 0.252584
H	-1.8524693706	-3.9463893293	-0.0248966431	 0.270277
H	 1.5650258207	-2.9128518697	 0.1360102314	 0.126309
H	 2.039444039	-0.4278287232	 0.1035509387	 0.266842
