18
gdb 86092	3.00351	1.20293	0.97597	4.0224	78.93	-0.2547	0.005	0.2597	1237.1343	0.147448	-401.981838	-401.97301	-401.972066	-402.015343	32.919	
C	-0.0284766502	 1.504552854	 0.0242594906	-0.495138
C	 0.0314626852	 0.0118484636	-0.0213068118	 0.330488
C	-0.0357288774	-0.7640517211	-1.103340621	-0.170554
C	-0.0026443974	-2.2370530242	-0.7427627244	-0.209452
C	 0.8366520535	-3.0702808977	-1.6011098772	 0.258941
N	 1.5163908325	-3.7512173407	-2.2427741773	-0.333058
C	 0.5156389151	-2.2258935882	 0.7441890759	 0.106758
O	 1.9202611908	-2.3293877341	 0.8222298142	-0.426547
C	 0.1456912467	-0.8166174371	 1.240746814	-0.309889
H	 0.8746413148	 1.9163886597	 0.4911561798	 0.137019
H	-0.1262881154	 1.9371596055	-0.9745573485	 0.129781
H	-0.8767050795	 1.8468517813	 0.6305072555	 0.129882
H	-0.1399834951	-0.4237385333	-2.1262877903	 0.109966
H	-1.0161264996	-2.6637362108	-0.7733887844	 0.128645
H	 0.0295196165	-3.0223403966	 1.3232195649	 0.077112
H	 2.1998569707	-3.141981581	 0.3839019402	 0.297931
H	 0.916898969	-0.4540874552	 1.9280970298	 0.128339
H	-0.8040200203	-0.8206814642	 1.7923668	 0.109775
