23
gdb 81684	3.17186	1.18331	1.12334	1.337	84.69	-0.2535	0.0774	0.3309	1229.5065	0.208094	-388.292037	-388.283558	-388.282614	-388.324572	34.479	
C	-0.2217222925	 1.4101494964	-0.0153518396	-0.434262
C	 0.033526543	-0.0931245482	 0.0096792786	 0.0638
C	 1.2383139424	-0.5884482557	-0.8476218767	-0.010491
C	 2.1316568727	-0.3746881986	 0.41178291	-0.244277
C	 0.8338539775	-0.6228902894	 1.2388216029	-0.017418
C	 0.5704020889	-2.1284015415	 1.3967983341	-0.218963
C	 1.0934980133	-2.9178943437	 0.178993306	 0.142336
O	 0.3303585598	-4.1160579033	 0.0869606109	-0.443573
C	 1.0562170382	-2.0883704025	-1.1308176065	-0.256126
H	 0.687833336	 1.9903831359	 0.1712508773	 0.114311
H	-0.6175832549	 1.7228596966	-0.9881340242	 0.112066
H	-0.9549895716	 1.6937181741	 0.7479340972	 0.112995
H	-0.9087537726	-0.6211396999	-0.181711726	 0.05843
H	 1.4807976313	-0.0274500823	-1.7549664998	 0.053666
H	 2.9866866271	-1.0380356745	 0.567076157	 0.088628
H	 2.4764257326	 0.657501804	 0.4948581697	 0.097146
H	 0.7168443871	-0.0895517083	 2.1865723193	 0.05478
H	 1.0396284019	-2.5210382795	 2.3054664007	 0.092854
H	-0.5064141098	-2.3108682435	 1.4920145074	 0.107631
H	 2.1443220513	-3.1761578647	 0.3776375885	 0.067806
H	 0.707257952	-4.6531737787	-0.6174348591	 0.276877
H	 0.0899945387	-2.2564047623	-1.6221825366	 0.101059
H	 1.8326951476	-2.4558159605	-1.8141899109	 0.080724
