20
gdb 98621	4.05981	1.02779	0.9442	3.2349	81.75	-0.2332	0.0327	0.2659	1328.2318	0.171674	-403.150884	-403.141832	-403.140888	-403.18567	33.272	
C	 0.1341496873	 1.4883125634	-0.0571321548	-0.333085
N	-0.0451042181	 0.0516323069	-0.0142475421	-0.325088
C	-1.180188545	-0.5358420989	 0.4784177941	 0.427849
O	-2.1148604103	 0.1210354274	 0.9137197592	-0.39369
C	-1.152161426	-2.0346083893	 0.426958057	-0.121387
C	-1.7157603286	-2.9594022257	 1.4891058144	-0.076894
C	-3.0195212968	-2.4334178941	 2.1084516607	-0.216816
C	-3.6576452464	-2.3963610018	 0.6822639515	-0.216821
C	-2.3372268442	-2.9233302299	 0.100129167	-0.076899
H	 0.2708080682	 1.8452297277	-1.0844721075	 0.122342
H	-0.7683275546	 1.9377353782	 0.3586948666	 0.171305
H	 0.9980935321	 1.8029405717	 0.5396044534	 0.122339
H	 0.693592065	-0.5367292996	-0.3600700201	 0.24289
H	-0.2337351685	-2.4393211753	 0.0055248334	 0.071538
H	-1.0687792547	-3.7088726069	 1.9311876374	 0.083412
H	-3.4880668554	-3.1829813286	 2.7505616719	 0.093499
H	-2.9577833497	-1.482798156	 2.6372798111	 0.124296
H	-4.4629747726	-3.1263533408	 0.5716685709	 0.093501
H	-3.9921143165	-1.4227199986	 0.3254824222	 0.124299
H	-2.2499027152	-3.6403288599	-0.7085859862	 0.083412
