24
gdb 118402	2.25656	0.87356	0.66874	1.6703	90.1	-0.2344	0.0326	0.267	1809.1428	0.214517	-405.552314	-405.540628	-405.539684	-405.590662	40.62	
C	 0.9862596486	 2.1637143434	-0.4821170531	-0.385408
C	 0.9048680823	 0.6388739145	-0.3711134169	-0.152545
C	 0.8328775571	 0.1640473197	 1.0788583757	-0.246797
C	 0.7510357824	-1.3368316204	 1.2599032873	 0.374861
O	 0.8551673555	-1.6007344296	 2.6049190749	-0.2528
C	 0.2591785208	-2.7459183597	 3.1981357187	-0.246799
N	 0.6329420603	-2.1080127103	 0.2684562976	-0.288652
C	 0.6590867086	-3.5571602738	 0.2553926262	-0.143587
C	-0.6911747858	-4.1290428467	-0.1877842362	-0.366271
H	 1.872483126	 2.5562343524	 0.0297423102	 0.110268
H	 1.0402261207	 2.4811276479	-1.5281183866	 0.110169
H	 0.1091634048	 2.6452898339	-0.0345928102	 0.109913
H	 0.0313717724	 0.264514456	-0.9141150447	 0.107886
H	 1.7722229849	 0.1784382282	-0.8564265688	 0.103523
H	 1.7060390224	 0.5135184416	 1.6459517072	 0.116601
H	-0.031881591	 0.6103624441	 1.589515008	 0.110988
H	-0.0191166551	-2.456653175	 4.2156057516	 0.128792
H	-0.6405851075	-3.0569943976	 2.6590436471	 0.132406
H	 0.9587912281	-3.5866164319	 3.2538634711	 0.13036
H	 1.4130022078	-3.8429692952	-0.4898024899	 0.107802
H	 0.9733644711	-4.0222180848	 1.1969961866	 0.087284
H	-0.6254813193	-5.2129182652	-0.3255114409	 0.11021
H	-1.4720257054	-3.925674766	 0.5529077773	 0.112224
H	-1.0025018898	-3.6741615555	-1.1322928721	 0.129571
