25
gdb 72649	1.89667	1.78653	1.49661	0.0748	91.16	-0.2666	0.0787	0.3453	1121.4439	0.230171	-352.378254	-352.369254	-352.36831	-352.411051	36.919	
C	-0.3178154802	 1.5317808294	 0.1052926684	-0.48124
C	-0.0447779488	 0.0364902307	 0.0214949825	 0.337125
C	 1.1311225246	-0.3599901116	-0.9252281025	-0.268328
C	 1.8715559517	-1.0530882298	 0.2489313769	-0.268327
C	 0.7164819821	-0.6761363058	 1.2286907844	 0.337122
C	 1.1447966391	 0.1625601461	 2.4247682006	-0.481239
C	-0.1709410847	-1.8726470526	 1.6211756665	-0.256747
C	-1.0065938575	-2.1880784995	 0.3687669036	-0.225272
C	-1.3216638097	-0.7954289229	-0.203596272	-0.256748
H	 0.5985110445	 2.1058369403	 0.279360246	 0.108381
H	-0.7559027428	 1.8948556618	-0.8324715034	 0.110889
H	-1.0211414741	 1.7710954598	 0.9111230288	 0.108621
H	 0.8494469202	-1.020365675	-1.7509155913	 0.091502
H	 1.6622812769	 0.4970595809	-1.3486445613	 0.091444
H	 2.03303981	-2.1282595079	 0.1259416587	 0.091501
H	 2.8320170598	-0.5978849973	 0.5063230638	 0.091445
H	 1.762838622	 1.0158659701	 2.1257903221	 0.108381
H	 0.2817940677	 0.5513539853	 2.9773690648	 0.108621
H	 1.7383267318	-0.4401476849	 3.1230592709	 0.110889
H	 0.4160751833	-2.7268730871	 1.9766433362	 0.088459
H	-0.8386183509	-1.577326558	 2.4415537343	 0.087592
H	-0.4147153043	-2.7701477824	-0.3480922517	 0.098399
H	-1.9039992143	-2.7732909495	 0.5892129622	 0.091481
H	-2.1518463463	-0.3479733619	 0.359083009	 0.087592
H	-1.6230075201	-0.818048558	-1.2568426376	 0.088459
