18
gdb 117429	3.29971	0.82545	0.75185	1.2458	74.59	-0.2266	0.0085	0.2351	1560.1277	0.144908	-439.064221	-439.053949	-439.053005	-439.101326	35.427	
C	 1.2279978866	 0.7674367169	-0.4565887568	-0.320156
N	-0.1053015813	 0.1864007258	-0.3027559592	-0.260348
C	-0.4281168637	-0.7982100189	-1.3107124052	-0.287092
C	 0.3165165102	-2.1263873613	-1.1692197603	 0.439609
O	 0.9320235361	-2.4696061778	-0.1928241781	-0.356482
O	 0.1515019088	-2.8879379646	-2.2753950383	-0.234988
C	 0.7792789959	-4.1884445231	-2.2534401056	-0.221455
C	 2.1274992477	-4.1500463202	-2.8015495153	 0.32632
C	 3.236410895	-4.1335907435	-3.2620820642	-0.458252
H	 2.0460050719	 0.0306043251	-0.4602885134	 0.116573
H	 1.2690934469	 1.3310990888	-1.3956105199	 0.119437
H	 1.4063363942	 1.4726594038	 0.3599772632	 0.121175
H	-0.1678747957	-0.2550813046	 0.609228781	 0.228311
H	-1.5004141621	-1.0342188171	-1.2786810909	 0.134034
H	-0.2370884893	-0.3930425766	-2.3100058876	 0.13638
H	 0.7948786067	-4.5594143523	-1.2251090417	 0.162625
H	 0.1329551536	-4.827560041	-2.8607201981	 0.145727
H	 4.2208810786	-4.1177467794	-3.6604554796	 0.20858
