22
gdb 89631	4.02582	1.09295	1.01008	1.2305	86.67	-0.2099	0.0856	0.2955	1287.6862	0.194253	-367.152581	-367.143892	-367.142948	-367.185725	34.193	
C	-0.0561032064	 1.6519786053	 0.0158369304	-0.402293
C	 0.0611506008	 0.131893413	-0.0008029444	 0.041888
C	 1.1492212033	-0.5325433272	-0.917532193	-0.311273
C	 1.7150180385	-1.2628338186	 0.3020814097	 0.394526
C	 2.1515874135	-0.2778150994	 1.3333588022	-0.321704
C	 0.6698398041	-0.579465286	 1.2174225127	-0.14022
N	 2.2472304774	-2.5819535039	 0.2060406269	-0.154123
C	 2.1105083749	-3.4631941761	 1.3587054788	-0.229835
C	 1.2942808318	-3.6893974188	 0.133932915	-0.228683
H	 0.9011240844	 2.12938643	 0.2495002522	 0.114463
H	-0.3854702279	 2.0311537427	-0.9580363502	 0.112036
H	-0.783623209	 1.9822685389	 0.7656044923	 0.111939
H	-0.9174910316	-0.3019250693	-0.2307815305	 0.070236
H	 0.7170093375	-1.2103723398	-1.6574351197	 0.101898
H	 1.8440484863	 0.1445616443	-1.4260932233	 0.093376
H	 2.6258668583	-0.7161404555	 2.206670296	 0.109567
H	 2.5618424731	 0.690680091	 1.0534017155	 0.101817
H	 0.1103026068	-0.9553635848	 2.0670531848	 0.077814
H	 2.9701024642	-4.08992417	 1.5775723155	 0.117195
H	 1.5844933753	-3.0860757812	 2.2338280448	 0.113249
H	 0.2343615194	-3.451716515	 0.2007647351	 0.112073
H	 1.5481952053	-4.4845092894	-0.5607038107	 0.116054
