21
gdb 69593	3.23677	1.2747	1.16641	2.0429	82.29	-0.2489	0.0835	0.3324	1164.3647	0.183205	-387.079423	-387.071246	-387.070302	-387.111703	32.998	
C	-0.0453272238	 1.502804471	 0.1956829014	-0.48017
C	 0.0841195975	 0.0102191333	 0.0109264017	 0.35409
C	-0.9012693053	-0.9164932179	 0.6747738323	-0.341004
C	 0.5472343698	-0.9168667281	 1.1208296089	-0.160947
C	 1.4312774994	-1.9597638789	 0.5023373698	 0.496753
C	 2.7142599544	-2.3565448564	 1.0960082547	-0.263317
O	 1.5825381045	-3.233261598	 1.1354321012	-0.290215
C	 1.1746173611	-1.938238214	-1.0047926718	-0.333457
C	 0.7039268743	-0.4966823278	-1.2946924584	-0.267832
H	 0.9233747091	 2.003489897	 0.0807531673	 0.114004
H	-0.729829843	 1.9340003692	-0.5447685405	 0.117747
H	-0.4354612956	 1.7504200022	 1.1879189881	 0.11485
H	-1.613819339	-0.4650083679	 1.3570023704	 0.109305
H	-1.2898174781	-1.7777254268	 0.1408437177	 0.113627
H	 0.7893435405	-0.548863196	 2.1117765998	 0.080882
H	 3.5335238946	-2.6771465759	 0.4522239478	 0.107689
H	 3.0202056186	-1.9455321112	 2.0583328909	 0.108518
H	 2.0545094271	-2.2266270426	-1.5843158138	 0.104379
H	 0.3887924338	-2.6649866692	-1.2362557976	 0.118843
H	 0.0098991302	-0.4428232449	-2.1409334402	 0.09783
H	 1.5631241498	 0.138277313	-1.5438482597	 0.098428
