19
gdb 36312	3.21445	1.16278	1.09147	4.6858	78.88	-0.2428	0.0287	0.2715	1183.5631	0.161265	-382.062596	-382.054408	-382.053464	-382.096388	30.653	
N	-0.909018668	 1.1759620436	 2.5454498976	-0.307463
C	-0.5584791965	 1.2692028415	 1.4488632796	 0.283868
C	-0.1364644944	 1.4048201275	 0.0496393611	-0.291643
N	 1.1834650722	 2.0126757468	-0.0240878933	-0.095684
C	 1.645839814	 2.7489848212	-1.1977615334	-0.030374
C	 0.6552806664	 3.2764798342	-2.2276296016	-0.234002
C	-0.3438516064	 4.1871517894	-1.461207491	-0.228085
C	 0.2648375956	 4.4367172604	-0.0536806426	-0.237351
C	 1.4121800379	 3.4486168375	 0.1065074924	-0.02141
H	-0.0713758314	 0.400979597	-0.386690346	 0.157113
H	-0.9403867459	 1.928887976	-0.4867952863	 0.13575
H	 2.6351782439	 2.4608268366	-1.5441686285	 0.096098
H	 1.2181049347	 3.8488481498	-2.9726663034	 0.111896
H	 0.1485503206	 2.4738082528	-2.7755977476	 0.106211
H	-0.5084069993	 5.1275500962	-1.9935557423	 0.10858
H	-1.3264048777	 3.7128401906	-1.3834728535	 0.113488
H	 0.6756482833	 5.448870299	 0.0241067974	 0.111533
H	-0.4796869171	 4.342924768	 0.7442120259	 0.122337
H	 2.2183763081	 3.7093726118	 0.7867991855	 0.099139
