15
gdb 10557	3.06349	1.40762	1.07996	2.6959	61.96	-0.2792	0.0001	0.2792	1072.9696	0.117167	-399.777901	-399.769441	-399.768497	-399.811468	29.374	
O	-0.1442776403	 1.4528251033	-0.0591050685	-0.418488
C	-0.055502446	 0.051670977	-0.249962105	-0.080818
C	-1.3551773209	-0.5477941533	 0.2827386463	-0.266385
C	-1.4126755343	-2.052878901	 0.128237203	 0.245051
C	-2.6676697356	-2.7487344787	-0.2235873758	-0.20813
O	-1.6471228383	-2.549917931	-1.1964558089	-0.248653
C	-0.4155582761	-2.8056489775	 0.8768759991	 0.266477
N	 0.3808582797	-3.3771891941	 1.4891534971	-0.332872
H	 0.6695754557	 1.8531436683	-0.3784387885	 0.292065
H	 0.0566542593	-0.2088642232	-1.313183486	 0.108627
H	 0.8019212539	-0.3771610783	 0.2910600704	 0.111541
H	-1.4665967483	-0.2825505569	 1.3398858858	 0.131089
H	-2.1989446551	-0.1122873528	-0.260351346	 0.1263
H	-2.8190460514	-3.7777863456	 0.0949616294	 0.141255
H	-3.5675554023	-2.1500764762	-0.3526993723	 0.132941
