17
gdb 96779	3.19545	1.53906	1.20046	2.1816	75.57	-0.237	-0.0095	0.2274	1045.5822	0.136702	-417.959171	-417.951693	-417.950749	-417.991176	28.824	
C	 0.0128542034	 1.3939384803	 0.1368977025	-0.333417
N	 0.0000578918	-0.0564776163	 0.0623791378	-0.303696
C	-1.1048802294	-0.6611697083	-0.030831103	 0.397697
C	-1.2144600761	-2.1542749959	-0.1352133479	-0.057222
O	-1.9713467032	-2.7175776608	 0.9610340378	-0.247859
C	-2.6459739541	-2.4697780832	-0.2711346418	 0.026262
C	-3.3954134016	-1.1537071087	-0.3011428296	-0.058935
C	-3.3898172557	-0.3231053293	 0.9292819158	-0.254652
N	-2.41108357	-0.0617448551	-0.1529293461	-0.157992
H	 0.8260903457	 1.7716195261	-0.4912609012	 0.125411
H	-0.9343657383	 1.8581402132	-0.1613672429	 0.12892
H	 0.2419185933	 1.6967759385	 1.1660107383	 0.130249
H	-0.3866936898	-2.752818136	-0.5002118282	 0.115373
H	-3.0277989701	-3.338987225	-0.7971557383	 0.108909
H	-4.1528615265	-1.019179479	-1.0674986139	 0.103781
H	-4.1312149911	 0.4605873266	 1.0540024356	 0.125268
H	-3.0271549484	-0.7887207072	 1.8385120449	 0.151904
