17
gdb 50338	2.81538	1.5259	1.36683	3.5507	73.25	-0.2428	-0.0236	0.2192	1001.8874	0.13612	-421.822056	-421.814521	-421.813577	-421.854746	28.241	
O	-0.5467995562	 0.3511439647	 0.4430603048	-0.236529
C	-0.0225198685	 1.4227800992	 0.581858046	 0.149974
C	 1.3017590013	 1.8328896825	-0.0140311717	 0.042466
O	 1.956099508	 0.8239293933	-0.7825642447	-0.286749
C	 2.1305905463	 1.7091428729	-1.9150366449	 0.130569
C	 1.3860319451	 1.2325961244	-3.1715789057	-0.274295
C	 0.0643750917	 1.96036456	-3.0847002289	-0.050575
C	 0.0013488821	 2.8122978699	-2.0602554719	-0.082807
C	 1.2624213344	 2.8081536814	-1.2408464522	-0.161744
H	-0.4928748818	 2.2363263211	 1.1865082036	 0.066735
H	 1.93795315	 2.2132148586	 0.8031850335	 0.089786
H	 3.1901000532	 1.9287065539	-2.0795059097	 0.080557
H	 1.9260036335	 1.4760063458	-4.0957730893	 0.106229
H	 1.2717247694	 0.1427734757	-3.1417540135	 0.135261
H	-0.734803788	 1.7946282146	-3.798840261	 0.103168
H	-0.8523876457	 3.4359976995	-1.8204663622	 0.101961
H	 1.6943242852	 3.7944063924	-1.0602190622	 0.085994
