14
gdb 104969	2.53397	1.36544	1.0802	4.2528	63.36	-0.2886	-0.0984	0.1903	1105.3339	0.098421	-473.803465	-473.794553	-473.793608	-473.837905	30.897	
O	 0.7789539737	 0.9517135688	-0.1098444745	-0.410202
C	 0.2022996716	-0.2905998337	-0.4509920661	-0.136732
C	-1.2715442673	-0.3115125742	-0.1034393945	 0.242594
C	-1.8896244488	-1.4461264848	 0.6211737453	-0.219182
O	-1.5649165924	-0.2414636784	 1.2990857243	-0.250362
C	-2.167849106	 0.5317082432	-0.9684123821	 0.272398
O	-1.8944209808	 0.8629595129	-2.0923369999	-0.267614
C	-3.4563642778	 0.9253419302	-0.3562447065	 0.243305
N	-4.486091859	 1.2281307443	 0.0731506898	-0.308518
H	 0.6807215015	 1.061673039	 0.84306744	 0.298419
H	 0.3245928873	-0.4090729009	-1.5303598382	 0.143965
H	 0.6998937379	-1.1311328046	 0.0533010227	 0.101133
H	-2.9535743805	-1.6481363202	 0.5144391014	 0.149217
H	-1.2616278796	-2.3054007516	 0.8492179783	 0.141578
