18
gdb 17620	3.74269	1.6159	1.23277	2.8971	70.64	-0.2333	0.0406	0.2739	1014.3272	0.15318	-381.124234	-381.115276	-381.114332	-381.158273	31.097	
C	 0.1963218278	 1.3420580509	-0.073203403	-0.339571
N	-0.1503142171	-0.0639602127	 0.0203249587	-0.104302
C	-0.4386976259	-0.5761031961	 1.3458575105	-0.335505
C	-0.1638718745	-0.8214023712	-1.118468474	 0.452281
O	 0.0278868847	-0.368807284	-2.2337989443	-0.396971
N	-0.4713478147	-2.1946145206	-0.8835188136	-0.154794
C	 0.6576758666	-3.1187609998	-0.6874994588	-0.235272
C	-0.1290855076	-3.1196811121	-1.9501897454	-0.207355
H	 1.0910682566	 1.5634107473	 0.5234352795	 0.116953
H	 0.3869209654	 1.5823277069	-1.1175530683	 0.168678
H	-0.6243428349	 1.9676544752	 0.3004296307	 0.120389
H	-1.1194832125	 0.1099431812	 1.8644419966	 0.122555
H	-0.9149735342	-1.5514770701	 1.2701333626	 0.160608
H	 0.4723968216	-0.6665209517	 1.9543346657	 0.116127
H	 1.6599274631	-2.6987882268	-0.7266779208	 0.129575
H	 0.509295808	-3.8868751902	 0.0663512588	 0.120594
H	-0.8612445916	-3.9009491989	-2.129870851	 0.11956
H	 0.3289025093	-2.6844529873	-2.8326406538	 0.14645
