13
gdb 21450	5.90298	1.44842	1.16304	4.9379	62.63	-0.2201	-0.0086	0.2115	944.8917	0.097442	-394.768942	-394.762214	-394.761269	-394.800175	24.584	
N	 0.1774828238	 1.2931055989	 0.0044481729	-0.458277
C	 0.0508457941	 0.0241729807	 0.0015563854	 0.076109
N	-1.17187765	-0.595409593	 0.011084835	-0.399619
C	-2.4051690936	 0.0479321402	 0.0250041448	 0.20944
C	-2.7160007521	 1.3771746792	 0.0323033693	 0.024509
O	-4.0559125382	 1.5231370568	 0.045551878	-0.166822
N	-4.6604518386	 0.2807779642	 0.0472248697	-0.125705
C	-3.6795872877	-0.5870585877	 0.0351379288	-0.051623
H	 1.1607988547	 1.5508123736	-0.0040329985	 0.22789
H	 0.871072963	-0.7021233707	-0.0085390327	 0.096973
H	-1.1814768666	-1.60062239	 0.0082340243	 0.259179
H	-2.1140462368	 2.2664610328	 0.0294483117	 0.182698
H	-3.9064799118	-1.6445174049	 0.0338636211	 0.125248
