18
gdb 56301	4.09518	0.61978	0.5967	6.0229	73.73	-0.2406	0.0185	0.2591	1836.0817	0.14716	-435.305684	-435.295362	-435.294418	-435.34274	35.257	
N	-0.3253706293	 1.0121680268	-0.6046978779	-0.51615
C	-0.1785635141	-0.2918312728	-0.2481899378	 0.401978
O	 0.5863261516	-1.0533678827	-0.8105911836	-0.363501
C	-1.0186444023	-0.7490702891	 0.9602834287	-0.281257
N	-1.0886821949	-2.1923440673	 1.0938173068	-0.278013
C	-1.9760383529	-2.8184616145	 0.1161442075	-0.133306
C	-2.0135115095	-4.3357187683	 0.3688175037	-0.344667
C	-2.9494195956	-5.0226482617	-0.5164624866	 0.255887
N	-3.6990258283	-5.5494884667	-1.2205797966	-0.306303
H	 0.2356716793	 1.3760180488	-1.3577279252	 0.266486
H	-0.9696768956	 1.6283868431	-0.1409618042	 0.263186
H	-0.5538143371	-0.3233110079	 1.8599828719	 0.132165
H	-2.0315951562	-0.3331992018	 0.9052724633	 0.116178
H	-0.1462479553	-2.5428397807	 0.9320535125	 0.229935
H	-2.9838386022	-2.4102908666	 0.2537393556	 0.119818
H	-1.6832179975	-2.6309998234	-0.9279887959	 0.122795
H	-1.0150607176	-4.7649929425	 0.2225217001	 0.154522
H	-2.2933938728	-4.5240460925	 1.4105621976	 0.160247
