19
gdb 40242	2.83841	1.64795	1.25653	2.3716	75.29	-0.2456	0.0851	0.3307	1041.918	0.160456	-422.996999	-422.989536	-422.988592	-423.028741	30.118	
C	-0.0045936907	 1.4880053414	 0.0171200157	-0.32597
C	 1.3033737549	 0.7240435992	-0.0204294886	-0.332913
C	-0.0244775183	-0.0066269127	-0.0213816618	 0.433995
O	-0.4249654141	-0.6182683819	 1.172076247	-0.287805
C	-0.0417154978	-1.9858197856	 1.23144344	-0.093513
C	-0.8090883299	-2.8288431122	 0.2053317773	-0.237156
C	-0.8172904398	-2.1553638402	-1.1573236364	 0.03018
O	-1.8057282156	-1.1340918315	-1.3438197943	-0.253182
C	-0.4369930002	-0.7355367122	-1.2604875865	-0.024925
H	-0.2900360101	 1.9408843756	 0.9594268958	 0.130097
H	-0.3199412839	 2.030703306	-0.8669985841	 0.119793
H	 1.8939739673	 0.7463426788	-0.9304097416	 0.112482
H	 1.8770198919	 0.6758633293	 0.8978396045	 0.122163
H	 1.042213644	-2.0762553313	 1.0584099496	 0.091069
H	-0.25160729	-2.3176017063	 2.2516823936	 0.108025
H	-0.3503575103	-3.8212050856	 0.1321076916	 0.099666
H	-1.845797116	-2.968271432	 0.5293808565	 0.125567
H	-0.681576575	-2.7987759505	-2.0263264237	 0.092132
H	-0.0118319163	-0.3540265484	-2.1892990247	 0.090294
