16
gdb 72843	2.73863	1.59633	1.28192	5.7304	64.52	-0.2361	0.0083	0.2445	993.9291	0.12494	-475.031146	-475.023265	-475.022321	-475.063832	29.466	
O	 0.1095893323	 1.4021831968	-0.2179821102	-0.472475
C	 0.0425801889	 0.0232981499	 0.0260437952	 0.321523
C	 0.2034498376	-0.911351704	-1.1996213335	-0.119639
O	-1.155172825	-1.3826218874	-1.0725220121	-0.282192
C	-1.3830469951	-0.5522276352	 0.089402368	-0.022664
C	-1.4487718907	-1.3953138058	 1.370306609	 0.411363
O	-2.3979738982	-2.0061949543	 1.8024138196	-0.370399
N	-0.1923249406	-1.3541298328	 1.9230798168	-0.317201
C	 0.7462025752	-0.4173016084	 1.3328343033	-0.241448
H	 1.0289340586	 1.6458659735	-0.3752602632	 0.285533
H	 0.3635956042	-0.3735825641	-2.1412654607	 0.108478
H	 0.9330531122	-1.7246999317	-1.1024814236	 0.103652
H	-2.2331853829	 0.1234295889	-0.0256192318	 0.113086
H	-0.0167155332	-1.8250685563	 2.7974079994	 0.254927
H	 1.7206482809	-0.8853270631	 1.1454689881	 0.110339
H	 0.9017010659	 0.464218814	 1.9685973456	 0.117119
