16
gdb 16944	3.97741	2.06722	1.8936	1.8788	67.9	-0.2121	-0.0109	0.2012	778.2996	0.131458	-346.579502	-346.573113	-346.572169	-346.609675	25.843	
C	-0.0219783628	 1.4914348399	 0.043997075	-0.507115
C	-0.0529077137	 0.0064073649	-0.0419449966	 0.367774
C	-0.0727728457	-0.8247487338	-1.0814004528	-0.209266
C	 0.0068865068	-2.2444419756	-0.4680533103	-0.035108
O	-0.7587629055	-2.0427201738	 0.7319583793	-0.230395
C	 0.0312314523	-0.9384966416	 1.1946672011	-0.0933
C	 1.4413913085	-1.5831679361	 1.184055899	-0.081659
C	 1.4255795345	-2.4058932694	 0.1404519778	-0.072282
H	 0.9006660055	 1.8380300222	 0.5296644974	 0.127136
H	-0.0753169044	 1.9545729549	-0.9450304823	 0.128693
H	-0.8541160076	 1.876748044	 0.6468636719	 0.130226
H	-0.0675516569	-0.5980424008	-2.1381544863	 0.102801
H	-0.3845057952	-3.0719105324	-1.0576490546	 0.079187
H	-0.3377461856	-0.5490525714	 2.1432070083	 0.076442
H	 2.2466791183	-1.3398609233	 1.8618796591	 0.108283
H	 2.2157872414	-3.0176408775	-0.2701888261	 0.108583
