21
gdb 105042	2.66035	1.26741	1.12462	1.8732	77.47	-0.2592	0.0825	0.3417	1202.6815	0.181172	-424.19297	-424.183591	-424.182647	-424.226836	36.029	
C	 0.0361579682	 1.4016694755	 0.6198557221	-0.47322
C	-0.0132923321	-0.0068228886	 0.053031984	 0.274706
C	 0.9065059121	-0.3503463235	-1.0916236842	-0.309076
C	 1.1731173957	-0.9161696867	 0.2824444528	-0.299222
C	-1.3821275507	-0.6408911715	 0.075735219	 0.301381
C	-2.0043970274	-0.8565322046	 1.4535954829	-0.135393
O	-3.1816597041	-1.6291293619	 1.3883440784	-0.420977
C	-2.268949369	-0.5595160376	-1.0919603826	-0.224297
O	-1.5674185882	-1.7807762711	-0.7824103707	-0.292318
H	 1.0469391067	 1.8119635644	 0.53851185	 0.119021
H	-0.6407991337	 2.0721557371	 0.077769407	 0.119434
H	-0.2432709387	 1.4285631906	 1.6787323642	 0.123593
H	 0.5395897019	-1.0394236791	-1.8427810037	 0.128813
H	 1.5585908984	 0.432735946	-1.4636187293	 0.106654
H	 2.0100796011	-0.5283527425	 0.8533598328	 0.109934
H	 0.9816070033	-1.9741785693	 0.424992693	 0.121017
H	-1.2469608412	-1.3232092519	 2.1050255135	 0.095849
H	-2.273438854	 0.1058495533	 1.9011893593	 0.116191
H	-2.9758194361	-2.360816814	 0.7909778517	 0.291005
H	-3.3453384825	-0.6092743807	-0.950323361	 0.129812
H	-1.9214451394	-0.052948704	-1.9898577093	 0.117093
