20
gdb 19207	2.50868	2.46239	2.40727	1.5102	72.47	-0.2321	0.0703	0.3024	786.8025	0.18174	-349.028629	-349.02199	-349.021046	-349.059507	26.862	
C	-0.036009238	 1.5355061195	 0.0084629633	-0.206677
C	 1.4294252362	 2.0579266992	-0.0075812757	-0.208164
C	 2.3765823771	 0.8494376419	 0.0114038788	 0.117077
C	 2.1623095501	 0.0062135784	 1.2767062994	-0.20818
C	 0.6929841863	-0.5054880453	 1.2842298897	-0.206568
C	-0.0057017125	-0.0045641898	 0.006121778	-0.021218
C	 0.8093155964	-0.4705189994	-1.2052064936	-0.056261
O	 2.1459756306	 0.0418352603	-1.1466560559	-0.282334
H	-0.5757501393	 1.8945029586	 0.8911842924	 0.092379
H	-0.5857828154	 1.8985365293	-0.8660839106	 0.095731
H	 1.6268995631	 2.6448933103	-0.9091307838	 0.102285
H	 1.6364275559	 2.7056331177	 0.8510822335	 0.093111
H	 3.4186390172	 1.1709642401	-0.0696375304	 0.06822
H	 2.8685700264	-0.828886392	 1.2663866758	 0.102283
H	 2.3852506861	 0.6064796452	 2.1653562334	 0.093074
H	 0.6644988514	-1.5994791991	 1.3196702928	 0.095732
H	 0.1525004909	-0.1475337777	 2.166919843	 0.092382
H	-1.0202360153	-0.410417346	-0.0634376708	 0.060195
H	 0.8566965499	-1.5688207554	-1.2419053262	 0.088503
H	 0.3435763529	-0.1282593159	-2.1410918532	 0.088428
