20
gdb 78520	2.43297	1.80494	1.20171	1.8024	80.45	-0.2027	0.0758	0.2785	1086.2735	0.169237	-403.055118	-403.046451	-403.045507	-403.087549	34.25	
C	 0.0368758359	 1.4940807925	-0.2602395669	-0.334471
N	 0.0317950786	 0.0469730507	-0.0471120208	-0.121585
C	-1.046905096	-0.4958420083	 0.8316337306	-0.130804
C	-0.1624217296	-1.7249486479	 1.2283553794	 0.347833
C	 0.0057387765	-2.9818883527	 0.4266784907	-0.516748
C	-0.4248255799	-1.5470620433	 2.7395515871	-0.38281
C	-0.350389395	-0.1035006973	 2.2035010309	 0.368686
O	-0.4046604946	 1.0773349429	 2.9204262373	-0.465415
C	 0.7582643144	-0.4562582965	 1.1560899133	-0.097265
H	 1.0071825565	 1.7881569053	-0.6751660615	 0.113977
H	-0.7281701175	 1.7453089319	-1.0033424979	 0.111447
H	-0.1478655207	 2.0850604052	 0.6480695391	 0.120307
H	-2.1059335929	-0.4891621273	 0.562965795	 0.070756
H	 0.1890180532	-2.7298081738	-0.6220739671	 0.139349
H	 0.8500786527	-3.5760163953	 0.7927003372	 0.117322
H	-0.8908694588	-3.6090721525	 0.480474915	 0.116051
H	-1.3980596984	-1.8904048562	 3.1079924246	 0.086223
H	 0.3768108737	-1.8597320746	 3.4163609798	 0.096324
H	-1.2102942087	 1.0765284733	 3.4496290844	 0.284418
H	 1.8426301405	-0.4063570162	 1.27464856	 0.076407
