15
gdb 11930	3.29466	1.89709	1.47165	4.3243	67.12	-0.2704	-0.001	0.2694	876.9353	0.117961	-362.647375	-362.639922	-362.638977	-362.67893	27.707	
C	 0.0345654967	 1.5439162626	 0.0021022824	-0.494642
C	-0.0879402434	 0.0624511028	 0.1270050851	 0.325742
C	-1.336426886	-0.8269623963	-0.0300302218	-0.277923
C	-0.707596857	-1.8429605945	 0.9838677614	-0.298512
C	 0.510497618	-0.911206158	 1.0832712341	 0.249118
O	 1.032083973	-0.7483454045	-0.2442462854	-0.299904
C	 1.3954498918	-0.7128416078	 2.1878791539	 0.209963
N	 2.0796213091	-0.5606662977	 3.1082580692	-0.341416
H	 1.0096600279	 1.8782075351	 0.3646671437	 0.152091
H	-0.0654070279	 1.8452533926	-1.0465002485	 0.14172
H	-0.7500258212	 2.0467508313	 0.575153668	 0.135605
H	-2.2465783458	-0.3616014892	 0.3540978585	 0.118384
H	-1.5078055323	-1.1883394372	-1.0458613827	 0.122239
H	-1.268445505	-1.9133200641	 1.9172460591	 0.129894
H	-0.4777928581	-2.8424441052	 0.6109897428	 0.127641
