21
gdb 67632	2.36651	1.86755	1.56314	0.176	85.53	-0.2073	0.098	0.3053	1006.792	0.183228	-349.927342	-349.919391	-349.918447	-349.959161	32.377	
C	-0.1141551124	 1.5111515434	 0.0029505644	-0.51826
C	 0.0084571245	 0.017685398	-0.0059573712	 0.302549
C	 0.87362705	-0.8202215204	-0.9866245617	-0.14121
C	 1.1323663685	-2.1278190557	-0.2625205247	-0.073191
C	 0.9458092682	-1.9537714166	 1.2328087839	-0.238102
C	-0.1441021298	-0.8987013185	 1.201191648	-0.175757
C	-1.0497435537	-1.075567566	-0.0107425348	 0.302551
C	-2.546436644	-1.0016909673	-0.0080522767	-0.51826
C	-0.1798073556	-1.9085729955	-0.9913677808	-0.141214
H	 0.8244082203	 1.9886922579	 0.3114707967	 0.117319
H	-0.3710657036	 1.9008308256	-0.9893440163	 0.116161
H	-0.8937702904	 1.8395458815	 0.698331133	 0.115949
H	 1.473707268	-0.4375719571	-1.8016807256	 0.079447
H	 1.8541657342	-2.8246673466	-0.673097615	 0.079578
H	 0.6205599575	-2.8785322968	 1.7239211336	 0.094551
H	 1.8573211129	-1.6007721215	 1.7294980409	 0.094552
H	-0.5701855182	-0.4902698895	 2.1115188633	 0.074459
H	-2.9030981232	-0.2363423621	 0.6892501902	 0.11595
H	-2.9399352902	-0.75311183	-1.000961691	 0.116161
H	-2.9944884076	-1.9566949437	 0.2941857536	 0.117319
H	-0.5391313053	-2.5171318193	-1.8107432298	 0.079447
