15
gdb 12347	3.2123	2.23625	1.37196	3.5883	63.14	-0.2288	-0.0152	0.2136	853.009	0.120797	-399.848134	-399.841229	-399.840285	-399.87909	26.731	
O	 0.0562694005	 1.3891282659	 0.1565717634	-0.44062
C	-0.0043979477	-0.0027150398	 0.0190120115	 0.03816
C	-1.4472743382	-0.5183560736	 0.0549592945	-0.281035
C	-1.4757058299	-1.9834368035	-0.2986326676	-0.123028
C	-0.5641972082	-2.4910038251	-1.1295729443	 0.019906
N	 0.4531264419	-1.6967210534	-1.6866464623	-0.338297
C	 0.7121464771	-0.4209281697	-1.2697741596	 0.392653
O	 1.4836840357	 0.3315522843	-1.8378756138	-0.386343
H	 0.7387127899	 1.6760176988	-0.4714367916	 0.293537
H	 0.5511580405	-0.5051164377	 0.834229774	 0.095353
H	-1.8688226541	-0.3351874412	 1.047348028	 0.122055
H	-2.0527113404	 0.0676831416	-0.6522082808	 0.124215
H	-2.2468453832	-2.6277952384	 0.1045323106	 0.103567
H	-0.5447822569	-3.5294006764	-1.4369434258	 0.119822
H	 0.9703859729	-2.0220689319	-2.4897059662	 0.260056
