10
gdb 132691	3.19394	1.38505	0.9661	1.1146	52.83	-0.2727	-0.0722	0.2005	1020.5789	0.052933	-562.005307	-561.998945	-561.998001	-562.036507	23.521	
F	 0.0265251324	 0.0592393975	 0.0034039362	-0.05288
C	-0.0138645004	 1.3806119077	 0.0104836379	 0.313669
C	-1.2359489641	 2.0393247528	 0.0306036745	-0.148959
N	-1.266278952	 3.3762207271	 0.0376237124	-0.263515
C	-0.1249425234	 4.0104499176	 0.0250057567	 0.203957
F	-0.1279109396	 5.3323863502	 0.0315721482	-0.040002
C	 1.0960241743	 3.3205292823	 0.0047492025	 0.199528
F	 2.2306357193	 3.9920702503	-0.0076097131	-0.031412
N	 1.1461934212	 2.0133568074	-0.0024015568	-0.329901
H	-2.1744299677	 1.4977586072	 0.0408777015	 0.149516
