21
gdb 95752	2.49097	1.33941	1.08485	1.3745	74.24	-0.2462	0.0654	0.3117	1199.5317	0.18228	-461.370874	-461.361732	-461.360788	-461.403955	36.023	
C	-0.0196982448	 1.562820248	 0.0300500023	-0.420434
C	 0.0113071867	 0.0391114734	 0.0093883421	 0.345579
O	-1.3479978219	-0.4023123225	-0.0516889531	-0.477958
C	 0.7457829977	-0.4922060092	-1.2296004479	-0.117356
O	 0.7061175574	-1.9145921975	-1.2454793934	-0.260834
C	 1.4295696029	-2.4659351307	-0.1532054233	-0.105132
C	 0.8184323665	-2.0537352436	 1.1945599037	 0.074695
O	 1.6357029625	-2.4814200328	 2.2751386802	-0.427242
C	 0.6999813831	-0.5324436592	 1.2682675977	-0.218747
H	 0.9907927654	 1.9787528159	 0.0870554073	 0.112073
H	-0.5099505467	 1.9458525946	-0.8697099039	 0.119961
H	-0.5860403539	 1.9124755784	 0.898094247	 0.12775
H	-1.3308559218	-1.2832600534	-0.445910598	 0.282978
H	 0.2374886621	-0.1607776897	-2.139520632	 0.11171
H	 1.7879193701	-0.136142394	-1.2518608125	 0.090464
H	 1.4068559996	-3.5531990395	-0.283545441	 0.097726
H	 2.4813868242	-2.137339129	-0.1788463688	 0.097989
H	-0.1882986825	-2.491776859	 1.2729821876	 0.073822
H	 1.5810432269	-3.4406102266	 2.3343936501	 0.284103
H	 1.7104284325	-0.1149225783	 1.3625352411	 0.100148
H	 0.1370927838	-0.2438911551	 2.1608814146	 0.108705
