18
gdb 67231	3.10794	1.3169	1.12123	2.5031	77.24	-0.2494	-0.0239	0.2255	1124.2105	0.147301	-401.893982	-401.886062	-401.885118	-401.926574	30.169	
C	-0.2874504062	 1.5651656037	-0.0550266515	-0.533588
C	 0.0167975024	 0.1088526258	 0.0202159457	 0.35466
C	 0.6565668815	-0.8764650699	-0.8914061915	-0.099807
C	 1.4811016937	-1.5102173696	 0.2370663323	-0.104424
C	 2.8059000062	-0.8206728493	 0.3972487355	 0.157775
O	 3.8714337799	-1.3801015022	 0.4551685004	-0.261729
C	 0.3975042592	-0.8968554234	 1.186364062	-0.145032
C	-0.8623442119	-1.6626271637	 0.7581684699	-0.161304
N	-0.8140545073	-0.9778715943	-0.571890373	-0.187119
H	 0.587090781	 2.1695133882	 0.2085431064	 0.129751
H	-0.593384161	 1.8275887973	-1.0722504607	 0.142054
H	-1.1035219769	 1.8370785489	 0.623557295	 0.130539
H	 0.9151585814	-0.7888820512	-1.9384100522	 0.110519
H	 1.6192051628	-2.594795203	 0.2534205261	 0.089028
H	 2.7351961138	 0.2907271937	 0.4646085929	 0.070893
H	 0.6373252898	-0.668547993	 2.2235798595	 0.087785
H	-0.8236405387	-2.7572592713	 0.7287324455	 0.105396
H	-1.7641290094	-1.335396077	 1.2818495677	 0.114605
