16
gdb 127521	2.55196	1.67264	1.02348	2.8008	68.01	-0.2057	0.044	0.2496	1116.2609	0.124646	-471.254711	-471.245688	-471.244744	-471.28866	31.605	
C	 0.0860757155	 1.3990499453	-0.0500007274	-0.326433
N	 0.1104584149	-0.0391703337	-0.0045006351	-0.087398
N	 0.2073544185	-0.7960446745	-1.1732525932	-0.380067
C	 0.1998331698	-2.0143865089	-0.7379923278	 0.48657
O	 0.2736253072	-3.1203853023	-1.4863666176	-0.415545
N	 0.1060574633	-2.1208788802	 0.6165720055	-0.181061
C	 0.0717813688	-3.3111227118	 1.4382425332	-0.346574
C	 0.0449390438	-0.8067314835	 1.1285426359	 0.476425
O	-0.0436363205	-0.4777427079	 2.2955271038	-0.445533
H	 1.003229908	 1.7912821063	-0.5011246649	 0.136228
H	-0.7733880289	 1.7572789807	-0.625782624	 0.136222
H	 0.0070698	 1.7490444629	 0.980520411	 0.165742
H	 0.3345397022	-2.8369157057	-2.4084269555	 0.320193
H	-0.7911004955	-3.9356943484	 1.1909895154	 0.144274
H	 0.9848083669	-3.9004435383	 1.3161980283	 0.144255
H	-0.0078873341	-2.9700062702	 2.4720947224	 0.172703
