21
gdb 111511	2.50406	1.47738	1.1545	2.4171	78.14	-0.2425	0.0742	0.3167	1161.8774	0.182374	-424.209326	-424.200404	-424.199459	-424.242949	33.659	
C	 1.0156726909	 1.3372136272	 0.2314315924	-0.237648
O	 0.0120615482	 0.7455642756	-0.560011584	-0.23912
C	 0.4355058552	-0.3882609537	-1.2833166601	 0.124864
C	 0.717971075	-1.640779294	-0.4636864675	 0.010115
O	-0.4559947001	-2.3350302707	-0.0207289617	-0.249219
C	 0.2111266863	-2.803014176	-1.2005078752	 0.050222
C	-0.4385712438	-2.345672257	-2.4918083825	-0.255692
C	-0.6538926825	-0.815851871	-2.3139789683	-0.050514
C	-2.0805157327	-0.4655277326	-1.8716252093	-0.385334
H	 1.3479978983	 0.6802596745	 1.0485134376	 0.109614
H	 1.8971734815	 1.6133755264	-0.3694847448	 0.101585
H	 0.5891282892	 2.2436041091	 0.6678996004	 0.129408
H	 1.3734007419	-0.1470858343	-1.8181960258	 0.05898
H	 1.5718976382	-1.6964366072	 0.2070442533	 0.093314
H	 0.6621422062	-3.7891509502	-1.1180856589	 0.091676
H	 0.2430910363	-2.5619291348	-3.3234858123	 0.099967
H	-1.3765536527	-2.8720583243	-2.6958233487	 0.110273
H	-0.4582372615	-0.3034249634	-3.2607997181	 0.075779
H	-2.3393342966	-0.9759317715	-0.9423166933	 0.139832
H	-2.1849887238	 0.6096219035	-1.7133623447	 0.12405
H	-2.7919139536	-0.7705755257	-2.6466956684	 0.097847
