17
gdb 28632	5.55017	0.9759	0.83427	1.1192	95.63	-0.2244	-0.0253	0.1991	1355.7905	0.136231	-347.601688	-347.593285	-347.59234	-347.635547	31.565	
C	-0.0071322507	 1.5362736188	 0.0103926269	-0.494536
C	-0.0090676091	 0.0281857691	 0.0023014163	 0.299531
C	-0.0056005086	-0.6856761503	-1.2004100303	-0.173449
C	 0.0210959591	-2.0734450961	-1.2150476289	-0.192833
C	 0.0428193267	-2.7984907829	-0.0133605252	 0.146664
C	 0.0352276975	-2.086563489	 1.1962792796	-0.19285
C	 0.0084484187	-0.6986863671	 1.1970298277	-0.173529
C	 0.0667427314	-4.222666613	-0.0212512005	 0.224264
C	 0.0875900766	-5.4270615358	-0.0279351529	-0.421815
H	 1.0166117993	 1.930988036	 0.0027083785	 0.137239
H	-0.5165674783	 1.9416858794	-0.8685966431	 0.127878
H	-0.4997341534	 1.9321479912	 0.9031863462	 0.127799
H	-0.0258981624	-0.1441971635	-2.141672793	 0.092834
H	 0.0212103991	-2.6108439355	-2.1565957468	 0.104505
H	 0.0463445456	-2.6341475016	 2.1318740376	 0.104503
H	-0.0007776788	-0.1674669496	 2.1442888659	 0.092847
H	 0.1057521473	-6.4885266902	-0.0338283179	 0.190949
