14
gdb 42302	3.60955	1.19878	0.98075	1.8487	69.26	-0.2547	-0.0671	0.1876	1146.5213	0.100316	-436.668152	-436.660069	-436.659125	-436.702117	28.436	
O	 0.2770333526	 0.4723035085	-1.4270580069	-0.284784
C	 0.0655100125	 1.3504852843	-0.6204292726	 0.222324
C	 1.0167399165	 1.6905359728	 0.4153174187	 0.292392
C	 1.8178715953	 1.9951518372	 1.2598265744	-0.396723
C	-1.2241739734	 2.190570018	-0.627924793	-0.108334
C	-2.2319623064	 1.7455833962	-1.7104778781	-0.131372
O	-3.3861840577	 1.3079307371	-0.9468652139	-0.213204
C	-3.0633128296	 1.5139422861	 0.3442636036	 0.134709
N	-1.9338752319	 2.0040312036	 0.6555778806	-0.274239
H	 2.5257265218	 2.2543861056	 2.0094777614	 0.218184
H	-0.9254570104	 3.241358852	-0.7244578055	 0.115698
H	-2.5487641653	 2.555276955	-2.3705733448	 0.122387
H	-1.8571438787	 0.9048120859	-2.2968036262	 0.152594
H	-3.8351566554	 1.2339212577	 1.0525942521	 0.150368
