16
gdb 14157	3.99838	1.6548	1.47133	2.2218	60.73	-0.2442	0.0704	0.3146	884.1563	0.130374	-420.845534	-420.838115	-420.837171	-420.877609	27.443	
O	-0.0235489875	 1.2474146922	-0.3259326386	-0.417314
C	-0.0675787993	-0.1262604207	-0.0796371759	 0.017506
C	-0.4706371199	-0.6329651968	 1.2980109514	-0.404007
C	-1.4248693238	-0.7252582645	 0.1512087864	 0.386358
C	-2.7097798083	 0.0901393024	-0.0048190058	-0.162251
O	-3.548728277	-0.7539498872	-0.7948314487	-0.249626
C	-2.7159122611	-1.7532727765	-1.3314348406	 0.011382
O	-1.7123621856	-1.9986961063	-0.3700137566	-0.267971
H	 0.7208300327	 1.6186078241	 0.159501479	 0.292342
H	 0.6436701304	-0.7341325258	-0.637985923	 0.099159
H	-0.0186780782	-1.5532107339	 1.6518580358	 0.129365
H	-0.6836283508	 0.1082432072	 2.0621543792	 0.12006
H	-3.2153767997	 0.2779450283	 0.9476009491	 0.112582
H	-2.5150556525	 1.0458600947	-0.5043368003	 0.127443
H	-3.2953224724	-2.6673465968	-1.4850741958	 0.119438
H	-2.2627296869	-1.4180012002	-2.2822095056	 0.085533
