20
gdb 70185	3.34087	1.29559	1.10228	2.9992	78.69	-0.2141	-0.014	0.2001	1155.8516	0.171657	-403.157407	-403.149053	-403.148109	-403.190203	33.018	
C	-0.284974017	 1.5419752979	 0.1029497127	-0.461799
C	-0.0248674616	 0.0542980839	 0.0638351387	 0.356207
C	-0.801081387	-0.8545206357	 1.0057872486	-0.357451
C	 0.6877341353	-0.6093035012	 1.2045033397	-0.067037
C	 1.7073986595	-1.681267185	 0.8698659603	-0.316206
C	 1.3743713469	-2.4966771389	-0.3719673895	 0.382734
O	 1.7494289273	-3.6360168014	-0.5145102198	-0.309921
C	 0.5236571918	-1.8222599466	-1.4489062808	-0.276819
N	 0.3770895004	-0.3844475941	-1.2605193152	-0.353332
H	 0.586941383	 2.094450005	-0.2621064638	 0.127302
H	-1.1430209229	 1.8098821948	-0.5266551418	 0.111943
H	-0.5065900081	 1.8738780834	 1.1206225031	 0.119036
H	-1.489587297	-0.3984091273	 1.7091106042	 0.109084
H	-1.1167175799	-1.8344888824	 0.6636741312	 0.114313
H	 0.9631204248	 0.0194711839	 2.0464523374	 0.087583
H	 2.6759047904	-1.2008995811	 0.6650008382	 0.135296
H	 1.8735765666	-2.3813804674	 1.6945712854	 0.127491
H	 1.004510114	-2.0149637896	-2.4133970711	 0.134744
H	-0.4322978484	-2.3779257654	-1.4654314747	 0.116731
H	-0.2713791381	-0.0185732826	-1.9501150129	 0.220103
