19
gdb 51880	4.24331	0.86891	0.761	2.5545	72.53	-0.2458	-0.0224	0.2233	1460.8338	0.159299	-460.174319	-460.165709	-460.164764	-460.208664	31.355	
O	-0.5092735492	 0.608291611	 0.7986887142	-0.241973
C	 0.0978156755	 0.9301274143	-0.1909292875	 0.151392
C	 1.3685774767	 1.7555607717	-0.1778121724	-0.297103
C	 1.362649758	 2.8706019188	-1.2233602113	 0.109118
C	 2.5800308812	 3.7988952626	-1.1348273612	-0.212472
C	 2.5815374612	 4.735069743	-2.3467840981	-0.096307
O	 2.480506415	 3.9877580438	-3.552477588	-0.229698
C	 1.334780286	 3.1841713889	-3.5501111708	 0.015901
O	 1.3333552693	 2.2422150035	-2.5054441907	-0.255268
H	-0.2453575455	 0.6298744069	-1.2037780933	 0.096049
H	 1.5154291712	 2.1588629495	 0.8279156635	 0.121452
H	 2.2085600425	 1.0857071495	-0.4083199485	 0.134268
H	 0.4474837103	 3.4799520455	-1.1083250373	 0.074767
H	 2.5554465939	 4.3765368417	-0.204225768	 0.104576
H	 3.4931316503	 3.1934349324	-1.139649609	 0.115046
H	 1.7402842465	 5.4457838016	-2.2765976217	 0.092372
H	 3.5074030093	 5.3114795196	-2.4125980792	 0.117813
H	 0.4292962172	 3.8178165066	-3.4785356275	 0.077681
H	 1.3307412106	 2.621820149	-4.4855509232	 0.122387
