20
gdb 98352	3.71454	0.82041	0.7359	2.9053	77.33	-0.2508	-0.029	0.2217	1586.5617	0.16845	-440.342289	-440.331762	-440.330818	-440.378971	36.701	
C	 0.0581019783	 1.5136698035	 0.1316631822	-0.379915
C	-0.142032629	 0.0377719026	-0.2092124117	-0.284552
C	 0.7831033267	-0.4552448057	-1.3080597146	 0.379314
O	 1.4257558211	 0.3069129307	-1.9982010764	-0.318494
C	 0.8757309375	-1.9700266061	-1.5239765342	-0.050002
C	-0.4889836213	-2.5944042815	-1.8778511931	-0.407894
N	 1.8699279707	-2.2154015435	-2.5478701736	-0.278046
C	 2.4592238195	-3.4227755344	-2.7168529645	 0.151939
O	 2.1625330526	-4.4312328743	-2.1057229567	-0.335601
H	 1.0683168459	 1.696239562	 0.5080141745	 0.130435
H	-0.0785256793	 2.1381133277	-0.7538445423	 0.138933
H	-0.6560441641	 1.8299993896	 0.8964353654	 0.1159
H	-0.0127796137	-0.6029829408	 0.6722611451	 0.125444
H	-1.1724574599	-0.1426733676	-0.5452146984	 0.139275
H	 1.2149882413	-2.4246761618	-0.5824408136	 0.121237
H	-0.3443359354	-3.6626953633	-2.046600181	 0.165039
H	-1.2064234391	-2.4669553855	-1.0629669238	 0.121195
H	-0.8988330109	-2.1425958691	-2.7862546002	 0.124157
H	 2.2331638966	-1.3897880118	-3.0050872745	 0.26089
H	 3.2501959324	-3.3957881509	-3.4919899886	 0.080747
