18
gdb 31817	4.61412	1.00276	0.89036	3.204	84.14	-0.2196	-0.0296	0.19	1342.8691	0.149422	-398.192617	-398.184027	-398.183083	-398.226738	31.994	
C	 0.0126465417	 1.5384949669	 0.009462289	-0.374801
C	-0.0153014868	 0.0004593234	 0.0027764214	-0.249345
C	-1.4235561346	-0.5350783417	 0.0131403265	 0.331002
N	-2.0011429976	-0.7450766543	 1.2031934749	-0.274954
C	-3.2542884544	-1.1860630072	 1.2053357543	-0.048057
C	-3.9765595066	-1.4323449922	 0.032314041	 0.250533
N	-5.3072823782	-1.8380602877	 0.04246843	-0.595247
C	-3.2739467384	-1.1805174001	-1.1513943394	-0.048068
N	-2.0208907143	-0.7394996531	-1.1680775111	-0.274994
H	 1.0422805057	 1.9091125005	 0.0020237785	 0.110835
H	-0.500461867	 1.9388157821	-0.8704867465	 0.1248
H	-0.4847949457	 1.9307607039	 0.9019397331	 0.12489
H	 0.4925453526	-0.3725445229	-0.891295614	 0.109966
H	 0.5086788342	-0.3803966417	 0.8841638781	 0.10996
H	-3.7146125187	-1.3580759895	 2.1785656669	 0.099201
H	-5.5983355849	-2.3251512443	 0.8780664172	 0.252539
H	-5.6122845554	-2.3211387334	-0.7904799404	 0.25254
H	-3.7504327115	-1.3479412688	-2.1176193196	 0.099199
