17
gdb 28017	3.927	0.93505	0.80539	0.5971	81.18	-0.2144	0.0203	0.2346	1421.8265	0.134573	-384.69266	-384.683765	-384.682821	-384.727078	32.515	
C	 0.0366714439	 1.4840940248	-0.0663696573	-0.488423
C	-0.0701503517	 0.0040705392	 0.0189303924	 0.380883
C	-1.0535647874	-0.8839692588	-0.2860262585	-0.377056
C	-0.5422486486	-2.1926029688	 0.01889805	 0.278418
C	-1.2555946059	-3.5127052055	-0.1173051917	-0.473806
C	-1.7794085555	-3.7597763933	-1.4600749818	 0.315969
C	-2.2180811808	-3.9529119468	-2.5618795126	-0.460942
C	 0.7167567605	-1.99131739	 0.4848296904	-0.124123
O	 1.0215866905	-0.6641950007	 0.4942821256	-0.181527
H	 0.8549075823	 1.7902705429	-0.728036376	 0.13914
H	-0.8938577162	 1.9006119744	-0.457945648	 0.136201
H	 0.2263334741	 1.9311008659	 0.9161441802	 0.137956
H	-2.0253836716	-0.6486114202	-0.6917324665	 0.11284
H	-0.5731773563	-4.3242946391	 0.1629353797	 0.136136
H	-2.0882326254	-3.5617591202	 0.5984451837	 0.141527
H	-2.5996476796	-4.1277847295	-3.5370216115	 0.196021
H	 1.4900045576	-2.6561876843	 0.8339056317	 0.130786
