16
gdb 54563	3.10966	1.65749	1.23922	4.389	69.32	-0.2366	0.0162	0.2528	981.1334	0.125919	-433.977387	-433.970038	-433.969094	-434.009428	28.693	
N	 0.7855612943	-0.2841292385	-0.4720353154	-0.539165
C	-0.2772985788	 0.3313612085	 0.1178700741	 0.247284
O	-0.2737219717	 1.4680799017	 0.5454330208	-0.358727
C	-1.4853779475	-0.5606192962	 0.2140741871	 0.31972
N	-2.8491245086	-0.1157072491	 0.6117848772	-0.376069
C	-2.9966536747	-1.5967545653	 0.4192899787	-0.049314
C	-2.0496620393	-1.5827148923	-0.8216809264	-0.056047
N	-1.1272278975	-2.6666138008	-0.3447736384	-0.367662
C	-1.5572969662	-1.9709626231	 0.9135759983	-0.080159
H	 1.6732026112	 0.1914901294	-0.4738680783	 0.258982
H	 0.7377836323	-1.2717444039	-0.6835531708	 0.273293
H	-2.8658499305	 0.1348841353	 1.6027216988	 0.22073
H	-3.9382079634	-2.1307336166	 0.5576458184	 0.089617
H	-2.2903616013	-1.4014262795	-1.8684282816	 0.104424
H	-1.5701208461	-3.5847036403	-0.4260455782	 0.218169
H	-1.2075374922	-2.2508207093	 1.9091365358	 0.094922
