18
gdb 27528	4.35111	0.98128	0.85435	1.8554	80.65	-0.2115	0.0166	0.2282	1366.2099	0.148626	-401.955554	-401.947236	-401.946292	-401.98903	30.906	
C	 0.0537533501	 1.3746741341	-0.3298268531	-0.488481
C	-0.0352156391	-0.0824585799	-0.050569511	 0.385898
C	-0.6767031118	-1.1145211371	-0.6606875539	-0.421058
C	-0.3748974603	-2.3043805072	 0.0961426311	 0.296543
C	 0.4347968072	-1.8867509493	 1.1063192144	-0.129827
O	 0.6480065251	-0.5430047652	 1.0354755805	-0.18297
C	-0.8167890114	-3.688834578	-0.1568802274	-0.101838
C	-2.1017138731	-3.9702302625	-0.8545226684	-0.244646
N	-0.8263395084	-4.2383388619	-1.532491159	-0.320622
H	 1.0889315606	 1.6866237556	-0.5089490886	 0.140478
H	-0.535714652	 1.6200152438	-1.2158376856	 0.135256
H	-0.325358739	 1.9678916271	 0.5099694355	 0.1403
H	-1.2963525231	-1.0362167373	-1.5414904851	 0.10666
H	 0.9180086184	-2.3992330343	 1.9217608507	 0.134443
H	-0.4750521576	-4.4094717394	 0.5820491023	 0.086358
H	-2.6765814535	-4.8545206881	-0.5930373336	 0.119468
H	-2.7000272206	-3.1189078791	-1.1684255853	 0.112798
H	-0.6176582216	-3.4890264514	-2.1888144434	 0.231239
