19
gdb 71015	3.70038	1.49027	1.34939	2.654	75.48	-0.2416	0.0767	0.3183	1011.2044	0.159589	-422.961476	-422.954133	-422.953189	-422.992701	30.254	
C	-0.1405909054	 1.512421716	-0.0061053302	-0.489226
C	 0.0326887298	 0.0193716164	-0.0100148869	 0.388741
C	 0.7409420016	-0.7532645794	-1.1999294094	-0.382322
C	-0.2127250055	-1.8078994995	-0.6310995686	 0.369239
C	-0.8869114608	-3.1770728694	-0.5377230973	-0.204764
O	-0.6979427899	-3.135878701	 0.9119826342	-0.309805
C	 0.3548343834	-2.1406372205	 0.7451675744	 0.143205
C	 0.4132535829	-0.7138154586	 1.3293671048	-0.306086
O	-1.1653175064	-0.7501065914	-0.3309706129	-0.332664
H	 0.8114562889	 2.0071109196	 0.211074826	 0.124403
H	-0.5035646378	 1.8668163301	-0.9746433716	 0.128743
H	-0.8615644895	 1.8083974203	 0.7628529345	 0.133045
H	 0.4379047576	-0.3208081642	-2.1542694095	 0.113657
H	 1.8155646224	-0.9519621426	-1.1646382919	 0.099223
H	-1.9422311452	-3.2155708003	-0.8192107473	 0.125134
H	-0.3313741657	-4.0054816011	-0.9939661887	 0.105952
H	 1.3302417721	-2.6419815988	 0.754775467	 0.072344
H	 1.3974062472	-0.465634868	 1.7359367915	 0.095898
H	-0.3521949096	-0.5007526577	 2.0781581817	 0.125285
