17
gdb 59292	2.63283	1.5012	1.2097	2.0684	68.83	-0.2506	-0.0214	0.2292	1065.5756	0.136372	-455.192568	-455.184038	-455.183094	-455.225989	31.717	
C	-0.0275242384	 1.1362139369	 1.0578104699	-0.428149
C	-0.1352378719	 0.3814417677	-0.26639793	 0.130581
O	 0.8680127351	-0.6182356797	-0.3896218081	-0.439719
C	-1.5432530507	-0.2314253142	-0.4722642924	-0.116499
N	-1.8069640948	-0.5583749031	-1.879640152	-0.239582
C	-2.0779590707	-1.803105162	-1.9101179001	 0.06473
N	-2.073051578	-2.4558736823	-0.6785136772	-0.333116
C	-1.6922594405	-1.5524717456	 0.3017768592	 0.414505
O	-1.4873521987	-1.7976555694	 1.4687709394	-0.375714
H	 0.9900173183	 1.5162933511	 1.1825067729	 0.125364
H	-0.719812108	 1.9838240644	 1.0857199981	 0.117385
H	-0.2664643912	 0.4748442053	 1.8970196862	 0.145064
H	 0.0324402385	 1.061548171	-1.10703772	 0.109687
H	 0.8807673416	-1.1127647476	 0.4387699201	 0.290001
H	-2.2989509808	 0.484964952	-0.1273143164	 0.122193
H	-2.3178708811	-2.3597089645	-2.8100685512	 0.143151
H	-2.1742714789	-3.4457947499	-0.5211275683	 0.270118
