13
gdb 2406	6.40173	2.17479	2.04446	2.8713	54.	-0.2409	0.0032	0.2441	643.087	0.102194	-344.409533	-344.403693	-344.402749	-344.438937	22.467	
O	-0.035220768	 1.4342014954	-0.0497098847	-0.432857
C	 0.0181451739	 0.0345832003	 0.0050484658	 0.154217
C	-0.0131316321	-0.6677099213	 1.42167213	-0.23052
C	-1.4960671462	-0.1545014636	 1.5150384471	-0.233114
C	-1.3811978501	-0.6534524273	 0.0261277315	-0.199564
C	-0.6328244572	-1.8380026086	 0.6541457098	 0.447149
O	-0.5922460002	-3.028359101	 0.6027654639	-0.322611
H	 0.8406159148	 1.7762200476	 0.1553995386	 0.291961
H	 0.744553218	-0.3680817989	-0.7104462642	 0.087698
H	 0.7528454365	-0.6662029122	 2.1943274887	 0.090832
H	-2.1720833299	-0.6997918055	 2.1739777033	 0.115007
H	-1.589000494	 0.9242750234	 1.6129787179	 0.133224
H	-2.1405444756	-0.6355958083	-0.7515377978	 0.098577
