23
gdb 122444	3.41363	0.72695	0.69537	0.7839	83.69	-0.2336	0.0798	0.3134	1774.9645	0.202318	-425.407798	-425.396856	-425.395911	-425.444379	39.83	
C	-0.4354371592	 1.2297314225	-0.131103181	-0.382409
C	 0.3470778516	-0.0776425086	 0.0147814338	-0.184157
C	 0.637403988	-0.7337869399	-1.3273280524	-0.041245
O	 1.3764198071	-1.9256519497	-1.0970629753	-0.249477
C	 1.7215660159	-2.5940283833	-2.2662315813	 0.095391
C	 2.129686302	-4.0347718255	-2.1259129998	-0.386148
C	 0.8319491891	-3.6712460812	-2.829981318	 0.352998
C	-0.4887026556	-4.0020544741	-2.1763850065	-0.451316
O	 0.8336268	-3.7177327516	-4.2346531816	-0.462104
H	 0.1192139981	 1.9631341849	-0.7267736932	 0.117086
H	-1.4002576732	 1.0655477797	-0.6236021871	 0.116713
H	-0.6344929873	 1.6791414249	 0.8459815529	 0.117081
H	 1.2991794215	 0.1030179823	 0.526744373	 0.107558
H	-0.2113207686	-0.786987043	 0.6367129377	 0.104757
H	-0.2992784574	-0.9609130612	-1.8599059751	 0.093364
H	 1.218336651	-0.0525448342	-1.9713749256	 0.088877
H	 2.25557269	-1.9919789653	-3.0028285417	 0.092163
H	 2.9590044184	-4.3829943671	-2.7313355313	 0.111811
H	 2.0598038216	-4.4657282277	-1.1327889584	 0.12006
H	-0.4587629152	-3.7699913431	-1.1092565137	 0.131813
H	-1.2952104739	-3.4242273579	-2.6390059436	 0.121831
H	-0.7292575815	-5.0663711	-2.2884926444	 0.105783
H	 0.7866090076	-4.643471101	-4.4995666874	 0.279571
