22
gdb 58446	2.53359	1.28887	1.08119	2.9927	83.28	-0.2564	0.0312	0.2876	1249.2186	0.192444	-404.367419	-404.357534	-404.356589	-404.402161	37.582	
C	-0.0583013532	 1.6539060111	 0.0325236843	-0.400282
C	 0.0772166124	 0.1266783705	-0.1008243966	-0.012876
C	 1.1451086894	-0.3791563499	 0.8822117639	-0.411815
C	-1.2808548147	-0.5820669997	 0.0575171409	 0.420394
C	-2.3687632017	-0.0514012201	-0.8650065132	-0.448341
C	-1.2718122566	-2.1311503138	 0.1813995249	-0.428045
C	-1.7629512358	-1.8751245317	 1.5873485611	 0.440435
N	-2.0848576076	-2.604877329	 2.5560738752	-0.548289
O	-1.7534329503	-0.5034366597	 1.4664413255	-0.290791
H	 0.9277807984	 2.1252339321	-0.0148430067	 0.113751
H	-0.6693425286	 2.092214666	-0.7601189784	 0.115425
H	-0.5088607477	 1.9156034219	 0.9957364992	 0.133837
H	 0.4137793019	-0.1027991971	-1.1223784277	 0.079246
H	 0.8411044523	-0.1895306358	 1.9155620326	 0.135995
H	 1.3474572311	-1.448297902	 0.7796109639	 0.11713
H	 2.0881716805	 0.1470782764	 0.7076482487	 0.114693
H	-2.0510295439	-0.1218793293	-1.910909483	 0.121601
H	-3.2858456642	-0.6347441957	-0.7450517916	 0.124827
H	-2.6039665188	 0.9919099984	-0.6452993588	 0.135357
H	-1.9854744396	-2.6499494245	-0.4610395268	 0.130013
H	-0.3047564667	-2.6284219396	 0.1165431952	 0.13384
H	-2.3769929966	-2.0422476182	 3.3574475074	 0.223897
