14
gdb 4886	5.27878	1.38862	1.15152	5.7927	60.2	-0.2011	0.036	0.2372	995.181	0.108102	-415.898206	-415.890671	-415.889727	-415.930426	27.072	
C	 0.0813474566	 1.3599754705	 0.3256625018	-0.334004
N	-0.1079090736	 0.1432270303	-0.4745450523	-0.389607
C	-1.1932942734	-0.6620755524	-0.1477617827	 0.310557
C	-1.298814471	-1.9341475503	 0.2693169398	-0.116729
O	-2.6396647357	-2.295004543	 0.3395934076	-0.210339
C	-3.4039521577	-1.2118147314	-0.0266082831	 0.491533
O	-4.6027990265	-1.2032689725	-0.0839876335	-0.403306
N	-2.5045324956	-0.1959887077	-0.2944116106	-0.401677
H	 0.9366818198	 1.9112416316	-0.0714504596	 0.13445
H	-0.7991822202	 2.0014783997	 0.2353437482	 0.135654
H	 0.2474811103	 1.1588065471	 1.3938905004	 0.12308
H	 0.7396828787	-0.407791502	-0.514347333	 0.244174
H	-0.5743367514	-2.6832939789	 0.5321846377	 0.140318
H	-2.7817407203	 0.6495410892	-0.7618937306	 0.275895
