14
gdb 16803	3.91294	2.0135	1.44	6.7651	66.11	-0.2272	-0.0217	0.2055	827.4754	0.109	-378.737214	-378.730596	-378.729652	-378.767679	25.865	
N	 0.073140966	 1.3421214685	 0.111439526	-0.594555
C	-0.0181529465	-0.011116034	 0.0245055359	 0.391555
C	-1.1134934941	-0.8123413147	 0.024500181	-0.343412
C	-0.6971987464	-2.2119392719	-0.0119286415	 0.380035
O	-1.3588804648	-3.2138691059	-0.1010748991	-0.344771
N	 0.7758880629	-2.2512891414	 0.0608948142	-0.128777
C	 1.4033322311	-1.7604657	-1.1739173042	-0.239807
C	 1.2115133854	-0.8577362214	 0.0035470167	-0.127549
H	 0.9291463131	 1.78826667	-0.1742236268	 0.264699
H	-0.7611432137	 1.8941103669	-0.003604883	 0.26787
H	-2.1495617755	-0.5083752572	-0.0186986706	 0.1029
H	 2.391447306	-2.160884367	-1.3850096732	 0.129312
H	 0.7657379777	-1.6001696557	-2.0399360864	 0.131213
H	 2.0582112289	-0.5709812864	 0.6218134908	 0.111286
