17
gdb 69102	2.54068	1.60142	1.20803	2.3702	73.55	-0.243	0.0216	0.2646	1042.5725	0.137417	-418.007874	-417.999762	-417.998817	-418.040286	31.062	
N	 0.1911400543	 1.4108474829	-0.1576154195	-0.581699
C	 0.0550841759	 0.0047586749	-0.0025498781	 0.265498
C	-0.2685567041	-0.881635989	-1.1542974052	-0.357283
C	-1.2706588269	-0.817994989	-0.0025990885	 0.111188
C	-1.0892256618	-1.8721422492	 1.0817705709	-0.14885
O	 0.3142806347	-1.9328905724	 1.3099970931	-0.253265
C	 0.867603185	-0.6421800548	 1.1102311805	-0.110122
C	-2.5252958732	-0.1679716748	-0.180290164	 0.192344
N	-3.5303177246	 0.392184201	-0.3158495345	-0.348107
H	-0.3025278378	 1.7527347647	-0.9740352836	 0.248003
H	-0.1649139751	 1.9127444385	 0.6506520146	 0.244273
H	-0.5726360675	-0.4036518086	-2.0793380956	 0.135781
H	 0.2782761515	-1.8112339798	-1.2767079405	 0.141596
H	-1.6386968424	-1.5730842241	 1.9872634273	 0.111532
H	-1.4126590924	-2.8757154363	 0.7897431409	 0.125216
H	 1.9236635821	-0.7682118811	 0.8548997194	 0.127267
H	 0.8000261823	-0.0209133331	 2.0192321429	 0.096629
