18
gdb 37616	2.85914	2.30904	2.05272	1.815	76.79	-0.2206	0.0112	0.2318	793.8208	0.152756	-364.784653	-364.779129	-364.778185	-364.814031	25.131	
C	-0.041277148	 1.5681844374	 0.0138001428	-0.209133
C	 1.4552263073	 1.8712086406	 0.0326603854	-0.079086
C	 1.9862998213	 0.9582852438	 1.1521744178	-0.050214
C	 1.2611752602	-0.2898203541	 0.8245700466	-0.032904
C	 0.0067012154	 0.0057134733	-0.0525717831	-0.099543
C	 0.2799767696	-0.3473726952	-1.492086446	-0.070104
C	 1.3999235456	 0.1902350495	-1.9860082834	-0.058153
C	 2.2238136951	 0.9100893131	-0.9706181144	-0.028568
N	 2.5779055063	-0.0224871367	 0.1881838626	-0.144909
H	-0.5022289416	 1.906554084	 0.9490842112	 0.096874
H	-0.5836413013	 2.0007227859	-0.8314154797	 0.096857
H	 1.743577763	 2.9207341916	 0.0089769011	 0.070956
H	 2.446101971	 1.2228204348	 2.0969649644	 0.088058
H	 1.2654925274	-1.1513505854	 1.4814218992	 0.095535
H	-0.8885103027	-0.4738676774	 0.3446601601	 0.065038
H	-0.4145255349	-0.9484620337	-2.0687706707	 0.0932
H	 1.7329574418	 0.0747355998	-3.011217478	 0.09281
H	 3.1425926644	 1.3476696286	-1.3601203057	 0.073285
