15
gdb 55725	2.56434	1.3274	1.09421	4.8921	66.46	-0.2825	0.0147	0.2972	1131.5462	0.11148	-453.981374	-453.97255	-453.971606	-454.015421	31.91	
N	-0.1820855329	 1.2885940921	-0.0386954486	-0.561324
C	 0.0249927914	-0.034183035	 0.202739588	 0.485481
O	 0.9564174857	-0.5210888057	 0.7877670325	-0.377194
O	-1.0401928497	-0.7514826392	-0.3023251899	-0.302894
C	-0.9677497947	-2.1450454957	-0.1229581421	 0.317505
C	-1.239405839	-2.7109905285	 1.2491576166	-0.292409
C	-2.2896879369	-2.8123456258	 0.1784022396	-0.31572
C	-0.030347862	-2.814095006	-0.9953526067	 0.256683
N	 0.6954936656	-3.3652839131	-1.7065588273	-0.344853
H	 0.602150107	 1.8989660889	 0.114409101	 0.277398
H	-0.8749490256	 1.5621020382	-0.7144443291	 0.272388
H	-0.6929822521	-3.5999789296	 1.5389260427	 0.150534
H	-1.3748817073	-1.9774059177	 2.0341367642	 0.145906
H	-3.1404781465	-2.1433082209	 0.2297476852	 0.141963
H	-2.4798713829	-3.7732204021	-0.2836312459	 0.146537
