15
gdb 26069	3.31078	1.11589	1.03657	0.9237	72.04	-0.2434	-0.0034	0.24	1179.277	0.113289	-416.787309	-416.779092	-416.778148	-416.820729	30.092	
N	-0.2257935431	 1.3757792826	 0.1134476075	-0.506602
C	 0.022051619	-0.069363117	-0.034274725	-0.28146
C	 0.7996493879	-0.422741132	-1.2351262901	 0.335892
C	 1.4138571109	-0.6740686181	-2.2379128	-0.482057
C	 0.6988774975	-0.5722885256	 1.2110793866	 0.319583
C	 0.3468292714	-1.5693817521	 2.0547805852	-0.126839
O	 1.2839737796	-1.6370059316	 3.0491217442	-0.139916
C	 2.1611818231	-0.6557884477	 2.7441952049	 0.079175
N	 1.8773952242	 0.0081311307	 1.6739918004	-0.30391
H	 0.6665608957	 1.8238011579	 0.3085773582	 0.249099
H	-0.5424505507	 1.7460910189	-0.7786346701	 0.233588
H	-0.9535717615	-0.5672089261	-0.105284464	 0.116055
H	 1.9656946026	-0.9008492548	-3.1164321697	 0.198237
H	-0.4639865016	-2.2748452002	 2.1049844986	 0.154011
H	 2.9969281749	-0.5258892549	 3.4135516133	 0.155143
