19
gdb 88228	3.81414	0.72708	0.66728	2.1842	88.06	-0.2375	0.0252	0.2627	1720.3873	0.157714	-385.82692	-385.817435	-385.816491	-385.863775	33.865	
C	-0.4714634585	 1.3444660475	 0.2210015173	-0.406563
C	 0.0381262858	-0.0655754745	 0.0397949737	 0.018377
C	 1.4692999883	-0.3334718793	-0.3162313494	-0.286354
C	 0.9612266633	-0.7126525906	 1.0719777875	-0.194218
C	 1.402657353	 0.0088230384	 2.2270875504	 0.129187
C	 1.7635041578	 0.609310201	 3.2099540616	 0.070001
C	 2.2241371478	 1.2897263685	 4.3874659987	-0.117368
C	 2.1525787828	 2.7585184438	 4.5227927581	-0.161347
O	 1.242620346	 1.9273066903	 5.228471709	-0.216589
H	 0.2861543978	 1.9802206886	 0.6870132842	 0.126166
H	-0.7399236606	 1.7861408216	-0.7447229448	 0.117004
H	-1.3597439061	 1.3651101717	 0.8609065898	 0.125702
H	-0.6864874812	-0.7565030642	-0.3829157914	 0.092622
H	 1.7062204655	-1.1431976291	-0.9973271847	 0.117498
H	 2.1421142822	 0.5153125583	-0.3695873885	 0.123459
H	 0.80212845	-1.774394724	 1.2380206791	 0.11119
H	 3.0031486583	 0.7755504058	 4.9499775326	 0.114368
H	 2.8965920343	 3.2730698596	 5.13033754	 0.116693
H	 1.7247674035	 3.3408250765	 3.7086041567	 0.120171
