16
gdb 123454	5.08155	1.00184	0.87269	5.9837	70.48	-0.2509	0.0024	0.2533	1272.5282	0.12625	-434.042641	-434.035083	-434.034139	-434.075626	27.571	
C	-0.0245690156	 1.4189121697	 0.6020877201	-0.360634
C	-0.1377415202	-0.0385868635	 0.1990048328	 0.092522
C	-1.2947007264	-0.5531314091	-0.541825586	-0.180285
O	-0.0573658627	-0.2868832156	-1.2115207435	-0.241944
C	 1.3334319349	 1.9746608683	 0.3086724411	 0.34185
C	 2.2485265374	 2.7051216073	 1.0313712418	-0.163552
N	 3.3344611495	 2.960932097	 0.2484126956	-0.189546
N	 3.1473724721	 2.4263473285	-0.9242764075	-0.113972
N	 1.939811683	 1.8338164156	-0.8974587362	-0.219569
H	-0.7915360245	 1.9939716105	 0.0682451495	 0.127209
H	-0.2336183914	 1.5240853944	 1.6714332454	 0.131093
H	 0.445919339	-0.7372749647	 0.7985892902	 0.112905
H	-1.5626588563	-1.6052900755	-0.4690464786	 0.12837
H	-2.1135728285	 0.120498641	-0.7895880565	 0.12367
H	 2.1876743486	 3.0554594573	 2.049343435	 0.119477
H	 1.5977968511	 1.318852109	-1.6956126132	 0.292406
