23
gdb 112561	2.40021	1.18689	1.01817	0.4914	81.82	-0.2453	0.0559	0.3012	1343.9798	0.202788	-425.426073	-425.415389	-425.414445	-425.461587	39.641	
C	-0.4342118319	 1.3739642622	 0.1719936669	-0.383405
C	-0.0911258064	-0.1122702641	 0.0323966876	-0.198541
C	 0.9446765107	-0.5537314867	 1.0555899273	 0.116842
O	 0.4779246449	-0.4317805587	 2.4210766752	-0.346392
C	 0.629913178	-1.8594454163	 2.6841279841	 0.385386
C	 1.6277549266	-2.0946629083	 3.8098987873	-0.430924
C	-0.7176997741	-2.5083676108	 2.9737788394	-0.434325
C	 1.1958223512	-2.0733217523	 1.2440207312	 0.006593
O	 0.5825966363	-2.994463946	 0.3811477856	-0.422593
H	 0.4470235754	 1.9997842265	-0.0065582784	 0.115132
H	-1.2075787599	 1.6715814792	-0.5421737101	 0.110771
H	-0.7971566739	 1.5859598661	 1.1815182354	 0.137336
H	-1.0075873125	-0.705557478	 0.1503375628	 0.079191
H	 0.2978511494	-0.3275592683	-0.970667142	 0.106334
H	 1.8656621025	 0.0300468674	 0.9131466962	 0.069624
H	 1.2511318969	-1.6775814998	 4.7495019289	 0.122301
H	 1.8039265805	-3.1660662023	 3.9550706097	 0.118007
H	 2.5840494459	-1.6134987848	 3.5847764099	 0.117547
H	-1.451430519	-2.2886213795	 2.1921467665	 0.102683
H	-0.6186647239	-3.5946918929	 3.0614357872	 0.125735
H	-1.1207672717	-2.1195244287	 3.9141326445	 0.126954
H	 2.2548768233	-2.3408360844	 1.2434663296	 0.090956
H	-0.3590727685	-2.8012789492	 0.3355957652	 0.28479
