19
gdb 30912	1.98266	1.7328	0.99767	2.9756	79.17	-0.1881	0.0338	0.2218	1212.1004	0.159693	-419.254995	-419.245561	-419.244617	-419.289558	34.094	
C	 0.1135224735	 1.6024775071	 0.198451041	-0.370054
C	-0.006683074	 0.0783857802	 0.0048313558	-0.30474
C	 0.6430602872	-0.4439856088	-1.2336651372	 0.173737
C	 0.1260537852	-0.7523525351	-2.4695610404	 0.273647
O	-1.1757206587	-0.6531538035	-2.834569788	-0.442574
N	 1.0806991978	-1.1889323036	-3.3374549818	-0.362163
C	 2.2018046401	-1.1531012607	-2.64187577	-0.012644
N	 2.006317352	-0.7113334903	-1.3737581047	-0.041324
C	 3.0218638497	-0.5898676008	-0.3509258216	-0.344041
H	 1.1589044808	 1.9182025315	 0.2802655838	 0.110491
H	-0.326812012	 2.1327263985	-0.6507861235	 0.130814
H	-0.4039634184	 1.921772352	 1.1091125638	 0.111131
H	 0.391110147	-0.4334479603	 0.8914664287	 0.097483
H	-1.0667406038	-0.1906392185	-0.0477363324	 0.128487
H	-1.2217305127	-0.9681274369	-3.745135942	 0.297566
H	 3.1790598296	-1.4368463131	-3.0034210731	 0.12353
H	 3.1212818712	 0.44486807	-0.0082381991	 0.143845
H	 2.7898953317	-1.2215689363	 0.512734276	 0.143368
H	 3.9787326238	-0.9112833416	-0.7668158453	 0.14344
