21
gdb 58529	2.95617	1.26361	1.10455	2.2421	78.59	-0.2493	0.0169	0.2662	1190.975	0.181546	-424.241107	-424.231809	-424.230865	-424.274586	36.403	
C	-0.105574864	 1.5660203812	-0.0167774927	-0.409946
C	 0.0093498681	 0.0391725421	-0.0362826552	 0.115943
O	 0.7196627672	-0.4060678497	-1.1852379792	-0.447844
C	 0.6726854214	-0.5368330923	 1.2227404195	 0.367727
O	 2.0082874603	-0.0087200257	 1.1994760814	-0.492897
C	-0.016955674	-0.1734516306	 2.566049112	-0.309156
C	 0.2601374365	-1.3800924919	 3.432131801	-0.079449
C	 0.6661128955	-2.4234702002	 2.7071162841	-0.084397
C	 0.7306019853	-2.0908418694	 1.2357057247	-0.298588
H	 0.8777602199	 2.0213658266	 0.1301961054	 0.127389
H	-0.5123584184	 1.9106511014	-0.9708931939	 0.118653
H	-0.7660299342	 1.9117997328	 0.7850210107	 0.109768
H	-0.9922914102	-0.3990148965	-0.1204728027	 0.079093
H	 1.6472905379	-0.20569261	-1.0065254944	 0.284343
H	 2.5051489302	-0.4409296698	 1.9024321469	 0.284147
H	 0.3842573262	 0.7648372205	 2.9622903095	 0.112401
H	-1.0991787845	-0.0293090356	 2.4370876639	 0.109018
H	 0.1055919099	-1.3812084404	 4.505443155	 0.09509
H	 0.8935381219	-3.4087111032	 3.0990947949	 0.094698
H	-0.1190167124	-2.5267840431	 0.6936983613	 0.116102
H	 1.6336610875	-2.4485127164	 0.7315395078	 0.107904
