19
gdb 61419	2.57835	1.12109	0.90786	3.004	73.63	-0.2361	0.0127	0.2488	1343.1872	0.157837	-456.426195	-456.415771	-456.414827	-456.462561	36.927	
C	-0.4337387165	 2.036827331	 0.650189282	-0.41297
C	-0.0413256125	 0.6351107769	 0.2021358483	-0.054101
N	 0.8831299722	 0.0346972989	 1.1676122857	-0.308541
C	 1.7777946961	-0.9313639139	 0.8376041618	 0.418382
C	 2.703634723	-1.3880304284	 1.9501009021	-0.478686
O	 1.844085241	-1.4069792846	-0.2913349307	-0.397182
C	-1.2931185311	-0.2628329846	 0.0194434054	 0.388928
N	-1.0400209183	-1.397028225	-0.6819176632	-0.521389
O	-2.3843957378	 0.0434193178	 0.4615806933	-0.367413
H	 0.4555548907	 2.656205461	 0.7968133733	 0.113051
H	-1.0703663619	 2.5067115763	-0.1020548145	 0.141173
H	-1.012018903	 1.9959078847	 1.5773796817	 0.137719
H	 0.495123406	 0.6669626575	-0.7515835357	 0.119855
H	 0.8207679269	 0.344163221	 2.1241657298	 0.252052
H	 2.558768181	-2.4593632395	 2.1129529629	 0.156358
H	 3.7369379942	-1.2451540158	 1.6233762944	 0.158428
H	 2.5514352185	-0.8587791035	 2.8938222014	 0.117099
H	-0.0809354675	-1.6557386456	-0.8848533526	 0.283821
H	-1.7749592812	-2.082830424	-0.7494166052	 0.253414
