21
gdb 51792	3.68393	0.96346	0.86204	2.8801	82.46	-0.2446	-0.0177	0.2268	1385.9477	0.183385	-387.104774	-387.096234	-387.09529	-387.138822	32.445	
O	-0.6314423659	 0.8217111345	 0.6978686115	-0.243662
C	 0.0803868978	 1.0076060853	-0.2555755672	 0.16481
C	 1.3617285516	 1.8070000414	-0.2470337948	-0.288085
C	 1.3311418917	 2.9606343833	-1.2678421842	 0.010333
C	 0.263176064	 4.0418849293	-0.9612906316	-0.237286
C	 0.7900779254	 5.3372891875	-1.6194442969	-0.220498
C	 2.3068437661	 5.1978610325	-1.5931575457	-0.03031
C	 2.9437542095	 4.7557861248	-0.2987318514	-0.290557
C	 2.6383152806	 3.7391104177	-1.3740597325	-0.037043
H	-0.1835180234	 0.5830242264	-1.2546915559	 0.065965
H	 1.541857305	 2.1773419986	 0.7665095195	 0.118338
H	 2.1785855951	 1.1198785136	-0.5118940867	 0.113678
H	 1.1237374021	 2.531927076	-2.2590061884	 0.074994
H	-0.7293943905	 3.7604487696	-1.3234381727	 0.104032
H	 0.1695612105	 4.1719674798	 0.1220260486	 0.1132
H	 0.4537795242	 5.3996499853	-2.6613574579	 0.099989
H	 0.4271686704	 6.2368910539	-1.1106820856	 0.099761
H	 2.8941479246	 5.807649841	-2.2708804724	 0.081565
H	 3.9873251426	 5.0105116651	-0.149934366	 0.110416
H	 2.3585233535	 4.765781539	 0.6152925961	 0.111171
H	 3.4718004851	 3.2659318155	-1.8827382859	 0.079189
