22
gdb 9416	2.70523	1.22327	0.89713	2.2701	75.62	-0.2585	0.0732	0.3317	1350.0523	0.19776	-387.339731	-387.329286	-387.328342	-387.376496	36.683	
C	 0.011231342	 1.5903515523	 0.123148578	-0.387963
C	-0.04782852	 0.0616513206	 0.0965565256	-0.173759
C	-1.4700646227	-0.4983522894	 0.0296107041	 0.161009
C	-1.482281082	-2.0146097322	-0.1790117425	-0.402999
O	-2.1191850218	-0.1412252168	 1.2496006904	-0.275833
C	-3.5342980464	-0.1327817746	 1.214057614	-0.075489
C	-4.0026131365	 0.4208329867	 2.5518344715	-0.060047
O	-3.4969944525	 1.7198781903	 2.7843513836	-0.422863
H	 1.0435035943	 1.944078545	 0.2027484464	 0.112976
H	-0.4181703753	 2.0188829244	-0.7893315461	 0.11334
H	-0.5487474568	 1.9906566063	 0.9723659912	 0.123507
H	 0.5113467032	-0.3178056838	-0.7669486667	 0.095216
H	 0.4367367165	-0.3515073764	 0.9900881211	 0.103858
H	-2.0039313651	-0.0146604825	-0.8065034806	 0.064209
H	-2.5015217742	-2.4102235202	-0.2074573354	 0.116714
H	-0.9993953499	-2.2746254091	-1.1262889717	 0.115491
H	-0.9440187283	-2.5140547187	 0.6329290955	 0.122851
H	-3.8891836259	 0.5121203541	 0.3943298969	 0.094047
H	-3.9465061107	-1.1421325889	 1.0602639267	 0.086625
H	-5.0954196065	 0.4908725982	 2.5587412874	 0.1061
H	-3.704179183	-0.2764293354	 3.3512435387	 0.091326
H	-2.5479966882	 1.6584512201	 2.6250292519	 0.291685
