21
gdb 69837	2.98327	1.4862	1.21731	1.2332	80.99	-0.2377	0.0787	0.3164	1091.6554	0.184789	-387.074995	-387.067261	-387.066317	-387.106493	32.638	
O	-0.1315552011	 1.3863598448	 0.1976827433	-0.474956
C	-0.0018826743	 0.0026001732	-0.0029622827	 0.415057
C	-0.4436141219	-0.5591946995	-1.3325331347	-0.373778
C	-1.2993461784	-0.749433741	-0.0871171023	-0.067074
C	-1.441245241	-2.057132203	 0.6476541374	-0.018662
C	-1.1057166785	-3.3978596002	 0.0441414412	-0.306155
C	-0.1857564435	-2.7880569748	 1.0758710163	-0.012578
C	 1.1548031656	-2.1769252104	 0.6765174769	-0.252068
C	 1.1433073782	-0.6383566964	 0.7613184678	-0.261294
H	 0.626512275	 1.815332649	-0.2155071019	 0.275925
H	-0.8155447988	 0.1521659133	-2.0614188053	 0.109073
H	 0.0801357594	-1.4065716066	-1.7610192167	 0.106548
H	-2.1837230826	-0.1213500055	-0.0630535378	 0.093602
H	-2.2572182358	-2.055865403	 1.3637526907	 0.082129
H	-1.7105851691	-4.2524015559	 0.3280658194	 0.106438
H	-0.7623695594	-3.4231479729	-0.9854704969	 0.108167
H	-0.2085261671	-3.2364854239	 2.0641252065	 0.080758
H	 1.9452631427	-2.5633719425	 1.3273293127	 0.100007
H	 1.4318056696	-2.4851619994	-0.3380727196	 0.101651
H	 2.1006613736	-0.2419501815	 0.3955070518	 0.082273
H	 1.0527136175	-0.3243516639	 1.8091428438	 0.104934
