18
gdb 112059	2.2105	1.49882	1.00449	2.7139	76.96	-0.2471	-0.0026	0.2445	1202.1016	0.149089	-398.15653	-398.147806	-398.146862	-398.190368	31.81	
C	-0.0654800241	 1.6668280793	 0.0216533125	-0.39082
C	 0.0163082813	 0.1421652125	 0.1263124603	-0.183231
C	-1.3442893137	-0.5253874158	-0.0709937669	 0.03596
N	-1.8882780565	-0.3138006327	-1.4234041698	-0.236623
C	-2.3821424859	-1.4230260421	-1.8017501187	 0.065819
N	-2.3340405401	-2.4885281035	-0.9049291392	-0.30171
C	-1.3778212491	-2.0919846082	 0.1391013622	-0.163042
C	-0.0777435614	-2.7594848634	-0.0389517325	 0.278367
N	 0.9243551073	-3.3169406769	-0.1859506878	-0.326995
H	 0.9239953465	 2.1176673583	 0.139771898	 0.114218
H	-0.468415026	 1.9640561491	-0.9495712079	 0.144991
H	-0.7175558678	 2.0832793154	 0.7977241459	 0.11117
H	 0.7133987317	-0.2501826595	-0.6221267799	 0.122216
H	 0.4139372681	-0.1477818101	 1.1070006572	 0.102241
H	-2.0572773321	-0.0918858369	 0.6443338443	 0.098626
H	-2.8777245965	-1.5710146095	-2.7568482141	 0.135902
H	-2.264517719	-3.4263191093	-1.2756140685	 0.256939
H	-1.7508363525	-2.3470975566	 1.134462315	 0.135968
