14
gdb 132992	2.4804	1.82142	1.05712	3.3731	67.34	-0.2404	-0.0462	0.1941	1036.3766	0.101738	-478.030373	-478.022831	-478.021886	-478.062667	27.531	
C	-0.0106633579	 1.4478354667	 0.0057890276	-0.337753
N	-0.0056127434	-0.0135431905	-0.0174620621	-0.129624
C	-0.1471644444	-0.71058149	-1.1785632701	 0.111687
N	-0.1526793663	-2.0016421043	-1.2790337562	-0.296785
C	-0.0026793736	-2.7027473643	-0.1116146305	-0.102161
C	 0.1448934175	-2.0995753005	 1.0934977842	 0.125356
F	 0.2887350624	-2.7990800607	 2.2118378143	-0.049994
C	 0.1547021947	-0.65550535	 1.2346193081	 0.335175
O	 0.2797325611	-0.0158105087	 2.260710021	-0.393082
H	 0.9295403155	 1.8152595684	 0.4222703282	 0.165064
H	-0.1407185812	 1.8193745795	-1.0109309688	 0.137407
H	-0.8222003891	 1.8055728695	 0.6428432595	 0.165101
H	-0.2625633143	-0.1055702406	-2.0737480433	 0.135522
H	-0.005598971	-3.7860740346	-0.1823153121	 0.134088
