17
gdb 106225	3.50509	1.41723	1.24611	1.9117	71.9	-0.2277	-0.005	0.2227	1024.4555	0.136116	-421.76676	-421.759311	-421.758367	-421.798886	29.334	
O	 0.1060275184	 1.2528207399	-0.5420222775	-0.414163
C	-0.0228313627	 0.029339981	 0.171551132	-0.178096
C	-1.428850704	-0.5131380614	 0.1974223712	 0.243919
C	-2.4958422809	 0.0488464195	 1.0642532322	-0.141078
C	-3.5172912017	-0.8145533945	 1.1650686171	-0.101375
C	-3.2287070769	-1.9641967296	 0.2370395785	 0.025151
O	-3.3397415136	-1.3857914297	-1.1388180956	-0.299593
C	-1.9493647693	-1.1891462461	-1.1360376953	 0.075411
C	-1.6812171824	-2.0046407268	 0.0748739432	-0.208539
H	-0.4863682106	 1.8957343544	-0.1397615607	 0.283608
H	 0.6371306127	-0.6769564976	-0.34445895	 0.106936
H	 0.3564650428	 0.1305592905	 1.2010314621	 0.09379
H	-2.4703835581	 1.0529212287	 1.4739041572	 0.094821
H	-4.4715269955	-0.6446538449	 1.6454587611	 0.106372
H	-3.8110700871	-2.880347224	 0.3130460994	 0.087602
H	-1.4486081857	-1.0292825821	-2.0829811581	 0.123394
H	-0.9823768954	-2.7975956171	 0.3117672533	 0.101839
