21
gdb 87557	2.67634	1.43547	1.20005	1.3242	83.31	-0.2187	0.0785	0.2972	1143.8861	0.182236	-383.190399	-383.181652	-383.180708	-383.223307	34.197	
C	-0.0047770202	 1.6284953313	-0.1011172964	-0.410031
C	 0.0521823463	 0.1103357727	-0.0061101198	-0.074336
C	 1.0619038546	-0.6360225054	-0.9032331059	-0.057556
N	 2.4177070094	-0.2153443366	-0.4740743446	-0.337839
C	 1.7023018109	-1.2887434263	 0.2705409857	-0.165111
C	 0.7593930132	-0.5668752412	 1.2100585533	 0.406804
C	 0.9930823519	-0.0565786802	 2.580200382	-0.311949
N	 0.1284647958	-1.2192427701	 2.3420466317	-0.150507
C	-1.300150929	-1.0241101551	 2.5410774501	-0.317269
H	 0.9999519469	 2.0498812144	-0.0170187309	 0.14027
H	-0.4326910755	 1.9441144219	-1.0594771815	 0.109046
H	-0.6260427612	 2.0552280522	 0.6935857185	 0.109994
H	-0.944309359	-0.3283893401	-0.1332185387	 0.078327
H	 0.8879568259	-1.0197282268	-1.9009746559	 0.090721
H	 3.0822695862	-0.6778353944	-1.0945687367	 0.227664
H	 2.1216011928	-2.2799463543	 0.3885798884	 0.097714
H	 1.9292124881	-0.2531687616	 3.0963478882	 0.113283
H	 0.5117583443	 0.8834399211	 2.8498744111	 0.104016
H	-1.657625375	-0.015489128	 2.2767286469	 0.102767
H	-1.8566101787	-1.7522581014	 1.9412696787	 0.120556
H	-1.5379652876	-1.2025994821	 3.5944187557	 0.123437
