23
gdb 97670	3.77579	0.71306	0.67147	0.0837	96.47	-0.2352	0.0597	0.2949	1833.379	0.20444	-351.131742	-351.121223	-351.120278	-351.169536	38.303	
C	 0.0707935025	 1.5811855493	 0.6720768204	-0.361672
C	 0.0187364521	 0.316180891	-0.204087155	-0.317046
C	-1.296358445	-0.3172925069	-0.2208013399	 0.111162
C	-2.39108289	-0.8237797092	-0.2200006519	-0.027317
C	-3.7057628878	-1.445779661	-0.2287129974	 0.160267
C	-4.694299219	-0.6535044076	 0.6412884278	-0.437586
C	-4.3069828056	-1.7847209129	-1.6411176685	-0.241562
C	-4.7125585145	-3.1858155309	-1.1145606332	-0.217942
C	-3.7503714258	-2.9855465991	 0.0849879498	-0.24157
H	 1.0733227682	 2.0194671776	 0.6533451993	 0.111302
H	-0.6401772715	 2.3307645499	 0.3138941047	 0.126056
H	-0.1834144786	 1.3455804797	 1.709144852	 0.126055
H	 0.3146535146	 0.571267338	-1.2302102939	 0.125077
H	 0.7670430679	-0.4043442912	 0.1515018734	 0.125067
H	-4.7998482697	 0.3710491191	 0.2716849003	 0.120326
H	-5.6832227076	-1.1240537461	 0.6329145346	 0.109787
H	-4.3463396647	-0.6071514175	 1.6777408184	 0.120328
H	-5.1009805252	-1.1221583441	-1.9958427552	 0.096631
H	-3.5258542283	-1.8377803266	-2.4022552876	 0.107331
H	-5.7609601356	-3.2322766237	-0.8088277747	 0.10274
H	-4.5122506131	-4.0355335017	-1.7702853361	 0.098611
H	-2.7774150159	-3.4524867773	-0.0812320789	 0.107326
H	-4.1091170975	-3.2619528689	 1.0800527716	 0.09663
