21
gdb 65657	3.83226	0.90039	0.80596	2.1727	78.2	-0.2447	0.0686	0.3132	1460.2809	0.181348	-424.184223	-424.174889	-424.173945	-424.219361	34.015	
C	 0.1682686594	 1.5171444157	-0.5491143479	-0.460094
C	 0.0228176153	 0.0484981254	-0.2121578329	 0.425306
C	-1.3682206039	-0.5566959127	-0.3121142188	-0.292397
C	-2.3700454311	 0.0413585378	 0.6729468183	-0.015003
C	-3.0982423927	 1.3615534367	 0.3211018435	-0.084389
O	-4.390883144	 0.7499571993	 0.4931298043	-0.272767
C	-3.7977828795	-0.5503016104	 0.6819978117	-0.093271
C	 1.1938998868	-0.8344092494	-0.3248907674	-0.232763
O	 0.7543494088	-0.3687507847	 0.9539474153	-0.276495
H	 1.2103453961	 1.8306266179	-0.4514368129	 0.126877
H	-0.1622315572	 1.7176989409	-1.5738838581	 0.121568
H	-0.4314829726	 2.1361473422	 0.1257964871	 0.134031
H	-1.7445170454	-0.4482172019	-1.338464873	 0.100052
H	-1.2857755382	-1.6320142209	-0.1156490255	 0.105266
H	-1.9261531211	 0.063646353	 1.6714076847	 0.099605
H	-2.9495618852	 2.207021954	 1.0035715088	 0.103857
H	-2.9468235566	 1.7097403924	-0.7108126245	 0.093375
H	-4.0160380161	-1.2256123402	-0.1581440329	 0.09328
H	-4.1300590964	-1.0248529151	 1.6127007134	 0.103883
H	 1.0554607283	-1.8995646995	-0.5082426135	 0.109622
H	 2.1454400751	-0.4288188204	-0.6674494096	 0.110459
