14
gdb 3149	4.2776	2.7435	1.95157	3.6082	58.89	-0.2467	0.0348	0.2815	669.2731	0.114095	-324.582904	-324.576296	-324.575352	-324.613702	23.844	
O	 0.035038088	 0.018387753	 0.0179035866	-0.372132
C	 0.0246648342	 1.2207876328	 0.0310510355	 0.395798
N	-0.9845482599	 2.1603843157	 0.065961856	-0.345518
C	-0.1016198109	 3.3350847707	 0.0523995634	-0.236285
C	 1.0646762562	 2.3304751158	 0.0165344461	 0.194009
C	 2.3800173902	 2.3305739824	 0.7385724415	-0.315186
C	 2.3441698146	 2.3429911449	-0.7672385759	-0.315138
H	-1.9883757662	 2.0704398108	 0.0817061039	 0.251908
H	-0.2075550677	 3.9649802836	-0.8373433929	 0.11437
H	-0.1640636011	 3.9526625849	 0.9547554709	 0.1144
H	 2.6749517362	 3.240196026	 1.2510819582	 0.119753
H	 2.6649193646	 1.4110966978	 1.2388044335	 0.137111
H	 2.6039879133	 1.4316413714	-1.2952537191	 0.137165
H	 2.6150850386	 3.2607724902	-1.2784214879	 0.119743
