13
gdb 44560	3.72872	1.61456	1.53326	6.1614	56.49	-0.2864	0.0411	0.3276	854.2402	0.090365	-493.698486	-493.692452	-493.691508	-493.729137	23.448	
O	 0.0036075733	 0.027970784	 0.1277270811	-0.357901
C	-0.0133705357	 1.2107951572	 0.059341309	 0.510315
O	-1.15251601	 1.9674697213	 0.0055961309	-0.241472
C	-0.8194026242	 3.3400212524	 0.0199750071	 0.034782
C	-0.775272692	 4.0155233558	 1.4077490562	-0.006445
O	-0.0093591268	 3.1591137701	 2.2474990238	-0.212602
C	 0.7093779681	 4.0356835224	 1.3871123674	-0.006446
C	 0.7332634185	 3.3610651533	-0.0015852134	 0.034787
O	 1.102922257	 1.9980359004	-0.0256986206	-0.24147
H	-1.3570895329	 3.8771632115	-0.7612422887	 0.115344
H	-1.4932707366	 4.6778946751	 1.8747335034	 0.127884
H	 1.4218332046	 4.7174799094	 1.8342061912	 0.127883
H	 1.2343047767	 3.9122718671	-0.7972336073	 0.115341
