21
gdb 71752	3.24754	1.8298	1.52992	0.1407	85.22	-0.2528	0.0902	0.343	956.9124	0.185468	-349.917995	-349.911268	-349.910324	-349.948503	29.337	
C	-0.0227232601	 1.557926045	-0.0431559742	-0.510992
C	-0.0132825298	 0.0505717373	-0.0574808487	 0.356142
C	 0.4945443122	-0.7958200028	-1.2423373519	-0.29219
C	-0.3027194185	-1.9410965441	-0.572519393	-0.035872
C	 0.4232015329	-2.2296889615	 0.7537592693	-0.034238
C	-0.6909821228	-2.5681158877	 1.7762723065	-0.25035
C	-1.097248025	-1.0967335982	 1.5806540646	-0.047081
C	 0.3869076936	-0.7240514446	 1.2414033112	-0.078909
C	-1.2861720113	-0.8678378385	 0.0510978365	-0.084792
H	 0.9984451751	 1.9582912284	-0.0218611297	 0.114018
H	-0.5193702754	 1.9637165728	-0.9316389574	 0.111871
H	-0.5458187943	 1.9466361495	 0.8382639104	 0.114804
H	 0.0439466218	-0.4726848831	-2.1868879673	 0.089544
H	 1.5742480909	-0.9291794308	-1.3789875605	 0.08224
H	-0.6653353065	-2.7972293704	-1.1424295546	 0.057597
H	 1.3493477505	-2.8035417153	 0.7033316226	 0.057249
H	-1.4055990228	-3.3576875866	 1.5180876856	 0.085708
H	-0.2909824135	-2.7480387179	 2.7790011279	 0.093562
H	-1.727543681	-0.5475867249	 2.2795468837	 0.058905
H	 1.1183871803	-0.3683877122	 1.966280315	 0.055774
H	-2.2381462663	-0.6580782243	-0.4349037859	 0.05701
