21
gdb 86393	2.51173	1.55461	1.15977	2.0948	78.66	-0.249	0.0877	0.3368	1158.294	0.180816	-424.232959	-424.223703	-424.222758	-424.26644	35.252	
C	 0.2600274401	 1.5706479294	-0.0757680894	-0.40217
C	 0.0503974515	 0.0680303698	 0.0392858652	 0.116559
O	 0.625868992	-0.5617642342	-1.1068439148	-0.291509
C	 1.1556708991	-1.8445602458	-0.7723201577	 0.083843
C	 2.3837181611	-2.0983735637	-1.6340554974	-0.406782
C	 1.4159084474	-1.792890818	 0.7309230173	 0.395163
C	 1.6852676254	-3.0444179627	 1.5170254453	-0.496552
O	 2.1628581703	-0.615415329	 1.0918001012	-0.295736
C	 0.7337879057	-0.5944559341	 1.2197617396	-0.066489
H	 1.3284317603	 1.7976104011	-0.0436729266	 0.137405
H	-0.1493835587	 1.9373851613	-1.0207021789	 0.126074
H	-0.2419847605	 2.0940866682	 0.7442046147	 0.110293
H	-1.0286310635	-0.1604926852	 0.0991894861	 0.066102
H	 0.3974392119	-2.6264005945	-0.956253124	 0.063867
H	 3.1637589289	-1.3738169355	-1.3873244232	 0.137123
H	 2.7698293927	-3.1100753479	-1.4735236489	 0.110563
H	 2.1286882073	-1.9935735211	-2.6917252447	 0.126344
H	 2.6117505629	-3.5231997423	 1.182006919	 0.133127
H	 1.7897646083	-2.8133560147	 2.5796901823	 0.133742
H	 0.8706229937	-3.7654904716	 1.3924026665	 0.125291
H	 0.3396041038	-0.4889578494	 2.2277685784	 0.093744
