18
gdb 51804	3.89713	1.03645	0.92474	3.7022	72.69	-0.2393	0.0274	0.2667	1266.6496	0.148952	-439.092762	-439.084617	-439.083673	-439.127157	30.245	
O	 0.0578630831	-0.3466290789	 0.221464624	-0.322312
C	-0.0678168261	 0.8595308032	 0.2251761154	 0.152148
N	 0.9377493102	 1.7534085466	 0.0230950227	-0.282924
C	 2.3217496316	 1.3617240704	-0.1756722848	 0.013341
C	 2.7911236068	 1.4950770364	-1.6529682852	-0.110603
O	 4.1777589919	 1.80762696	-1.6216733965	-0.251959
C	 4.4573952063	 2.4281790155	-0.3926531167	 0.127247
C	 3.6167926717	 3.6023685069	 0.032335946	-0.345123
C	 3.3365766101	 2.2048020499	 0.5771260935	-0.103277
H	-1.0378456651	 1.3667258449	 0.3983311776	 0.075344
H	 0.72330915	 2.7373845166	 0.0736401032	 0.247882
H	 2.3881524879	 0.3213262253	 0.1496074477	 0.129339
H	 2.6588109479	 0.5745327453	-2.226467109	 0.129207
H	 2.2171885931	 2.2907144187	-2.1503115831	 0.092581
H	 5.507258882	 2.3665939587	-0.134073047	 0.109907
H	 4.063519587	 4.312940361	 0.7189149179	 0.121578
H	 2.9391617857	 4.0481274223	-0.6889151698	 0.115919
H	 3.5065862359	 1.9985502072	 1.626662484	 0.101706
