19
gdb 92937	2.2327	1.5246	1.23277	4.4976	81.09	-0.2513	-0.0076	0.2437	1112.5438	0.159892	-382.091553	-382.082523	-382.081579	-382.124962	34.217	
C	-0.7117331717	 1.1780453406	 0.0323632749	-0.398283
C	 0.1498710791	-0.0715155945	-0.1112421029	 0.003039
C	 1.2999480535	 0.022117337	-1.1449104383	-0.289008
C	 2.3519661656	-0.9003707314	-0.5844082286	-0.081453
C	 2.0965131275	-1.2544802248	 0.6733480726	-0.103695
C	 0.8532280155	-0.5560223794	 1.2137589627	 0.078914
N	 1.1648653611	 0.5672096498	 2.1232185908	-0.534583
C	-0.0193822282	-1.4810463929	 1.9538348501	 0.280882
N	-0.6914537982	-2.2250303302	 2.5287344855	-0.344968
H	-0.1215467626	 2.0429412184	 0.3459955315	 0.120968
H	-1.1876311546	 1.4165735281	-0.9244674803	 0.112283
H	-1.4996870294	 1.0310862378	 0.7762952021	 0.13435
H	-0.4882937975	-0.9037645753	-0.4254261516	 0.105451
H	 0.9673074131	-0.2699451228	-2.1469593038	 0.11643
H	 1.6858824911	 1.0476899461	-1.23873915	 0.10956
H	 3.228111319	-1.2035166061	-1.1472056895	 0.107199
H	 2.7094761354	-1.8862335303	 1.3056841422	 0.10959
H	 1.5279618714	 0.2043109486	 3.0005922681	 0.240377
H	 1.9160385998	 1.1143644912	 1.7102345945	 0.232948
