21
gdb 91005	4.01072	1.26747	1.11541	2.2203	81.41	-0.2282	0.0698	0.298	1154.0885	0.18462	-387.043036	-387.035587	-387.034643	-387.074592	30.77	
C	 0.0015798415	 1.6170831872	 0.009670168	-0.405961
C	 0.0415992175	 0.0886133557	 0.0037064093	 0.039873
C	 0.7300179452	-0.4829532308	-1.2479840274	-0.249976
C	 1.0199830981	-1.9733815465	-1.0868922879	-0.003618
C	 0.2584782268	-2.8020823165	-0.0056462206	 0.019423
O	 1.3736593087	-3.7690534871	 0.0053250311	-0.314637
C	 2.0052425909	-2.4332297062	 0.0195333098	 0.042003
C	 0.9903762546	-1.9826907774	 1.1027917961	-0.003614
C	 0.6959667199	-0.4936613866	 1.2686582438	-0.249977
H	 1.0152211161	 2.0346868351	 0.0251583892	 0.113129
H	-0.5044468323	 2.0058214827	-0.8805734123	 0.111565
H	-0.5283847916	 1.9982885004	 0.8891781053	 0.111565
H	-0.9947971363	-0.2790035733	-0.0118807498	 0.075718
H	 0.1001958145	-0.3116018978	-2.1287636669	 0.099226
H	 1.6728710406	 0.0493486187	-1.4399943964	 0.095943
H	 1.156356906	-2.5138651494	-2.0260674262	 0.077072
H	-0.7536105824	-3.2098580569	-0.0210647649	 0.086012
H	 3.0961875768	-2.3894780825	 0.0344692304	 0.084014
H	 1.1013837178	-2.531155699	 2.0406804383	 0.077072
H	 1.6332044916	 0.0368947958	 1.490648711	 0.095943
H	 0.0425092659	-0.3297583458	 2.13349355	 0.099226
