17
gdb 111030	2.12532	1.65255	1.10131	1.9242	76.45	-0.2393	0.0108	0.2501	1127.1253	0.133424	-421.707007	-421.698443	-421.697499	-421.74038	32.075	
C	 0.3799684844	 1.1731866409	-0.2985843555	-0.24742
O	-0.3422448741	 0.190152199	 0.4243477796	-0.247873
C	 0.4438361006	-0.5364397024	 1.3020494883	 0.120592
C	-0.1952624274	-1.757849112	 1.9925191	-0.025355
C	-0.1852622676	-2.5373462828	 0.6583320477	-0.262115
C	 1.1984684741	-1.8482426132	 0.8351332757	 0.299188
O	 1.1753437229	-2.2454197887	 2.2690712611	-0.333452
C	 2.399931868	-1.9981302275	 0.0764039008	 0.060143
C	 3.3972164375	-2.1035061609	-0.5877382265	-0.35557
H	 1.1445189577	 0.719865787	-0.9430336045	 0.127406
H	-0.3414604751	 1.7091216817	-0.9185587213	 0.132763
H	 0.8706356539	 1.886313463	 0.3796069953	 0.115103
H	 1.0601223878	 0.0880688819	 1.9605826908	 0.090365
H	-0.9115410978	-1.7876673162	 2.8109933215	 0.103191
H	-0.163634781	-3.6227721416	 0.755149808	 0.114563
H	-0.8227302751	-2.1743116403	-0.1477570769	 0.119159
H	 4.2815285011	-2.2005106778	-1.168006884	 0.189311
