21
gdb 3969	2.97037	1.45312	1.25456	0.5546	77.68	-0.2396	0.019	0.2586	1098.6216	0.185185	-366.238594	-366.228499	-366.227555	-366.272699	37.732	
C	-0.0037023191	 1.5147701543	 0.0439872317	-0.471771
C	 0.02324844	 0.0065941998	 0.0336539384	 0.358097
N	 0.0697642614	-0.6799679434	 1.1107870703	-0.179135
O	 0.0907338002	 0.1427358015	 2.252876506	-0.408198
C	-0.0044032662	-0.7630045722	-1.285170448	 0.174251
C	 0.0299863138	-2.2825035062	-1.050825556	-0.393927
C	-1.2980332695	-0.4041371464	-2.051944858	-0.407632
C	 1.2249245777	-0.3594111578	-2.1313582029	-0.407645
H	 0.8807778963	 1.9028207223	 0.5590978601	 0.144995
H	-0.0416441514	 1.9379585668	-0.9595002464	 0.117576
H	-0.8691067984	 1.8712437847	 0.6116751776	 0.144968
H	 0.1253828527	-0.5057276539	 2.9635776906	 0.302843
H	-0.8268001035	-2.6140692743	-0.4595421809	 0.119044
H	 0.0089839259	-2.8030070433	-2.0141816221	 0.096418
H	 0.9334768706	-2.5827145202	-0.5148789938	 0.119059
H	-1.3696670428	 0.6661963383	-2.2665821743	 0.112024
H	-1.3244998453	-0.934921708	-3.0094524988	 0.113848
H	-2.1848492204	-0.694946644	-1.4799827423	 0.11965
H	 2.1557099988	-0.6175079079	-1.6164017186	 0.119655
H	 1.2101538678	-0.8904859886	-3.0889553563	 0.113861
H	 1.2447575413	 0.7124260086	-2.3494535563	 0.11202
