19
gdb 115459	2.47924	1.2428	0.93578	4.1968	71.93	-0.246	-0.0266	0.2195	1275.2328	0.158674	-460.171749	-460.162641	-460.161696	-460.206814	32.583	
O	-0.0402621333	 1.4270917408	 0.1301931577	-0.423173
C	-0.0687750694	 0.0420922529	-0.1425196207	-0.065744
C	-1.456320721	-0.5438329257	 0.0576739959	 0.102363
C	-1.589668137	-2.0562640435	-0.1480073367	-0.226575
C	-2.7624085173	-2.4397879722	 0.7818140848	-0.277618
C	-2.8439765981	-1.2289517402	 1.7696324968	 0.025794
O	-1.7930137612	-0.3515459463	 1.4387610045	-0.266358
C	-4.2093262229	-0.5618700889	 1.6671329149	 0.145451
O	-4.4108141885	 0.521393286	 1.1883017921	-0.23505
H	-0.4674012268	 1.5436783398	 0.9868420503	 0.295351
H	 0.2415603222	-0.0856438608	-1.1852104103	 0.107456
H	 0.6405360648	-0.5136603635	 0.4934947778	 0.08527
H	-2.1754579553	 0.0046269857	-0.5676947336	 0.095178
H	-1.7753239997	-2.325216763	-1.190113359	 0.113469
H	-0.6690751295	-2.5545857545	 0.1733930167	 0.110335
H	-3.6945791534	-2.5524485481	 0.2194693505	 0.118176
H	-2.5864948862	-3.3791020794	 1.3085476415	 0.121025
H	-2.7088557588	-1.5490468504	 2.8112121792	 0.100964
H	-5.0414624486	-1.1915391185	 2.0654714276	 0.073686
