21
gdb 55682	3.19094	0.97316	0.96875	3.4897	78.4	-0.2416	-0.0187	0.2229	1361.897	0.179652	-424.230919	-424.220836	-424.219892	-424.266889	36.051	
C	-1.6954383448	 1.3892714637	-1.1655440628	-0.471157
C	-1.7450832889	-0.1274380692	-1.1417062337	 0.387265
O	-2.1639468102	-0.767233696	-2.0806463676	-0.293753
C	-1.2560228203	-0.7991326644	 0.1382227521	-0.393352
C	-1.0838364058	-2.3131240344	 0.0333645322	 0.31818
C	 0.0685650681	-2.7028550234	-0.8922682288	-0.464886
C	-1.066640636	-3.0746862286	 1.3853983978	-0.125096
O	-2.1789110945	-3.8979574899	 0.9938862267	-0.275698
C	-2.3816414456	-3.1261082501	-0.2100883255	-0.101491
H	-2.2011196235	 1.7645106382	-2.0559043926	 0.145034
H	-2.1553406275	 1.8110013856	-0.2653955321	 0.137339
H	-0.6512459808	 1.7236659436	-1.1739360774	 0.143408
H	-0.3226501472	-0.3166650739	 0.4598727408	 0.114796
H	-1.9910934881	-0.5511746811	 0.9184408144	 0.125728
H	 1.0172472055	-2.2834229204	-0.536257867	 0.10622
H	 0.1797844212	-3.7910450325	-0.9308348519	 0.124112
H	-0.1094446656	-2.3437916986	-1.909013142	 0.139262
H	-0.165823637	-3.6652587295	 1.5949508878	 0.096931
H	-1.2996178005	-2.4598365783	 2.2672602161	 0.085316
H	-3.3094602398	-2.5420112307	-0.1695707995	 0.094041
H	-2.3973644586	-3.7519828701	-1.1082825172	 0.107801
