15
gdb 1195	8.48546	1.13674	1.02138	2.3414	66.31	-0.2392	-0.011	0.2282	1140.7997	0.121157	-308.518356	-308.509288	-308.508344	-308.555292	29.102	
C	 0.0726402938	 1.5077626552	 0.0349234804	-0.498004
C	 0.0082827147	 0.0584431329	-0.0800719732	 0.116363
C	-0.0532780972	-1.1392759609	-0.17120488	 0.063043
C	-0.1320684354	-2.5853599711	-0.2794984069	-0.483925
C	-1.440467669	-3.2053789992	 0.2469350655	 0.390196
C	-1.5263837869	-4.7168332409	 0.1148899764	-0.477428
O	-2.3271263837	-2.546242069	 0.7258149123	-0.267972
H	 0.9184922269	 1.8221754374	 0.6562984616	 0.145882
H	 0.187753507	 1.9817762502	-0.9461406811	 0.14585
H	-0.840179689	 1.9064229184	 0.4908894181	 0.153961
H	-0.0112080732	-2.9100430997	-1.3233164171	 0.144075
H	 0.6970332406	-3.0665311937	 0.2598820862	 0.144772
H	-0.6932947731	-5.1977033211	 0.63969282	 0.138436
H	-2.4722864367	-5.0678672986	 0.528011709	 0.145156
H	-1.4529474288	-5.0132714898	-0.9376181811	 0.139596
