17
gdb 106571	2.60385	1.64988	1.38102	1.8721	73.45	-0.2281	-0.0013	0.2268	999.1264	0.135065	-421.798884	-421.790846	-421.789902	-421.831587	30.422	
C	 0.0691863476	 1.3748125245	-0.114073584	-0.273756
O	 0.0170208029	-0.0230276274	 0.1410850701	-0.301399
C	-1.2439487467	-0.5682838658	 0.0735322963	 0.305509
C	-1.4109616682	-2.1126581636	 0.0599384786	-0.272311
C	-2.8546645437	-1.8080386794	-0.4544726351	-0.195233
C	-3.3987485622	-0.9471621213	 0.6699927687	-0.084558
C	-2.3695028568	-0.1531244075	 1.0181974455	-0.168975
C	-2.1437585518	-0.6371966971	-1.2562320212	 0.363306
O	-2.1999236711	-0.1270987609	-2.324902373	-0.30934
H	 1.1248036973	 1.6527478066	-0.1117245203	 0.133764
H	-0.3685769707	 1.6166066604	-1.0895434279	 0.142751
H	-0.448685665	 1.9514787461	 0.6644717993	 0.112467
H	-0.7725899954	-2.6032222461	-0.6810225445	 0.117338
H	-1.3534385622	-2.5959205454	 1.0378841232	 0.112396
H	-3.4835676471	-2.5559406088	-0.9276564037	 0.09097
H	-4.4283043482	-0.9130124644	 0.9973347532	 0.114242
H	-2.3451163287	 0.68012999	 1.7054848949	 0.112829
