21
gdb 72226	2.49124	1.8719	1.32156	1.3399	81.67	-0.2319	0.076	0.3079	1039.5385	0.183484	-387.077169	-387.06903	-387.068086	-387.109044	33.297	
C	-0.0638634049	 1.5119269188	 0.0649152818	-0.501671
C	 0.0066342538	 0.0131012903	 0.0128344551	 0.317512
C	 0.8139771925	-0.7895042602	-1.0106967346	-0.289793
C	-0.1700472454	-1.9878277442	-0.8100951916	-0.044132
C	 0.3784413696	-2.971151894	 0.2388825383	-0.204838
C	 0.5687470324	-2.0930975424	 1.5031638175	-0.291343
C	-0.2918851723	-0.8562658496	 1.2242164399	 0.375274
O	-0.8067869924	-0.1434226822	 2.3082226502	-0.484486
C	-1.1135721584	-1.0339351888	-0.0329655255	-0.212182
H	 0.9102612966	 1.9406104523	 0.3311704021	 0.115114
H	-0.3511721439	 1.9242235562	-0.9092448962	 0.10843
H	-0.7873119307	 1.8448873486	 0.8121054059	 0.134507
H	 0.7152608888	-0.3483606782	-2.007114894	 0.096269
H	 1.8773821079	-0.9722998644	-0.8107804311	 0.082591
H	-0.5415877841	-2.4576850555	-1.7207716719	 0.065189
H	-0.3549540469	-3.7626915216	 0.4301711497	 0.092382
H	 1.3050535561	-3.4528945913	-0.0891954542	 0.093965
H	 0.2138076569	-2.5952289597	 2.4100892939	 0.085858
H	 1.6173891999	-1.8306827584	 1.6784905198	 0.103754
H	-1.4547214865	-0.7030067928	 2.7500202191	 0.279921
H	-2.1880939191	-0.915669033	-0.0995140143	 0.077681
