19
gdb 41342	2.96649	1.8802	1.54888	1.2016	73.04	-0.2398	0.068	0.3079	916.3984	0.162711	-422.999422	-422.992972	-422.992028	-423.029823	27.712	
C	 0.0139363204	 1.4924147738	-0.1624488916	-0.159135
O	 1.4552954256	 1.4678240149	 0.0929294553	-0.366461
C	 1.3144158657	 0.1950564319	 0.7389833352	 0.454161
C	 2.1899613573	-1.0430138713	 0.6132260326	-0.310959
C	 1.2427681266	-2.0358521886	 1.3992912139	-0.225546
C	 0.1508437263	-1.1169400736	 2.0406980469	 0.099712
C	 0.9308741013	 0.1808225166	 2.2438990381	-0.290063
O	-0.8396302919	-0.7199610349	 1.0528881133	-0.287735
C	-0.0454226412	-0.0393115099	 0.0931503603	 0.057187
H	-0.5222546907	 2.1064523682	 0.5695719595	 0.111587
H	-0.2038901953	 1.8367420254	-1.1765865601	 0.11232
H	 2.3460383756	-1.3466158587	-0.4246629433	 0.106009
H	 3.1662968542	-0.938933805	 1.0958703523	 0.103783
H	 0.7832430665	-2.7791201891	 0.7437055573	 0.115486
H	 1.7882141787	-2.570534913	 2.181274111	 0.108077
H	-0.380677716	-1.558781121	 2.8823150339	 0.080929
H	 1.7981415765	 0.094139862	 2.9033245744	 0.098513
H	 0.2998152396	 1.0130939883	 2.5562838268	 0.108546
H	-0.0190447593	-0.595760666	-0.8499014357	 0.083591
