21
gdb 39999	3.32242	1.42428	1.33008	1.5773	80.99	-0.2335	0.091	0.3244	1059.6079	0.185389	-387.072215	-387.064966	-387.064022	-387.103579	30.516	
C	 0.0970765701	 1.5316667249	 0.00987623	-0.30087
C	 1.3522323467	 0.6939836044	-0.0071875506	-0.333617
C	 0.0076743103	 0.0192048034	 0.0020821046	 0.383152
C	-0.4682273784	-0.6780686837	 1.2834023374	-0.280956
C	-1.8216440372	-1.3452576553	 1.0227823519	 0.089864
C	-2.6890817003	-0.5469723918	 0.025185197	-0.255676
C	-1.8413898969	-1.3336756487	-0.9982522365	 0.089864
C	-0.4932489813	-0.6633918766	-1.2776021009	-0.280956
O	-1.6133691036	-2.3668873181	 0.0042461207	-0.297368
H	-0.1533602191	 2.0573132066	 0.9259887464	 0.107367
H	-0.1711527834	 2.0677492933	-0.8950842442	 0.107367
H	 1.9329262381	 0.6624378747	-0.923758118	 0.10856
H	 1.9507191774	 0.6520010247	 0.8974411769	 0.10856
H	 0.2316145356	-1.4663438896	 1.5867232572	 0.108418
H	-0.5329999002	 0.0389314622	 2.1105055424	 0.090266
H	-2.2831018534	-1.7531964956	 1.9261757897	 0.072559
H	-3.7271212536	-0.882207473	 0.0334051515	 0.105685
H	-2.6338045494	 0.5424521982	 0.0308882856	 0.10654
H	-2.3204558624	-1.7312867115	-1.8970727189	 0.072559
H	-0.5740876033	 0.0630325789	-2.0950108151	 0.090266
H	 0.2004441643	-1.4480616374	-1.6035518171	 0.108418
