16
gdb 29747	3.3735	1.25507	0.92006	5.3353	78.79	-0.2044	-0.0326	0.1718	1196.2918	0.124109	-437.934704	-437.926016	-437.925072	-437.968165	31.323	
C	-0.0075988689	 1.4427431197	 0.0228959922	-0.355954
N	 0.0250088931	-0.0100638654	 0.0114689134	-0.118525
C	 0.0495358185	-0.7772038466	-1.1057591928	 0.383831
O	 0.0437163754	-0.1604301332	-2.3076065653	-0.430718
C	 0.0772648864	-2.1225448316	-0.7605906521	-0.300124
C	 0.0688306722	-2.1647349578	 0.6442117818	-0.174678
C	 0.0365241834	-0.8624821103	 1.1240514165	 0.178202
C	 0.0169796149	-0.4007451461	 2.4900726453	 0.061831
O	 0.0267802526	-1.129186542	 3.4660000976	-0.301794
H	 0.8691584745	 1.8482465073	 0.5357089928	 0.149067
H	-0.0074107522	 1.7960143326	-1.0075651713	 0.164271
H	-0.9095214581	 1.808531692	 0.5217744279	 0.149044
H	 0.064024838	-0.8315625714	-2.9966886468	 0.31601
H	 0.1003821491	-2.9522118297	-1.4502252481	 0.102117
H	 0.0841331789	-3.0390796155	 1.2757180103	 0.131457
H	-0.0085784277	 0.7060737279	 2.6143061686	 0.045964
