21
gdb 68483	2.72347	1.67105	1.2925	1.9908	77.52	-0.2492	0.0805	0.3297	1052.6399	0.184432	-424.216221	-424.208457	-424.207512	-424.247782	32.01	
C	-0.085509737	 1.5581612214	-0.0288534403	-0.471504
C	 0.0409397481	 0.0403275778	-0.0055127099	 0.295724
C	 1.1310250814	-0.629182846	-0.9009703347	-0.265339
C	 1.4169791635	-1.6200675983	 0.2648433608	 0.126193
C	 0.7691665019	-0.5878558056	 1.2245605906	-0.300046
O	 0.744567445	-2.864241428	 0.1444890262	-0.259836
C	-0.657374347	-2.8444137949	 0.237517377	 0.016244
O	-1.2854042756	-1.9710187483	-0.6609747117	-0.240933
C	-1.3333729451	-0.6085469185	-0.2544580002	-0.125674
H	 0.8767012949	 2.0332447345	 0.1878289052	 0.113609
H	-0.4231926644	 1.9156003101	-1.0084409454	 0.117912
H	-0.8051234701	 1.911993133	 0.7195988814	 0.115567
H	 0.8135531522	-1.0732731273	-1.8454049792	 0.113603
H	 1.9790629546	 0.0413051814	-1.0701927286	 0.091665
H	 2.4613362096	-1.8814455717	 0.4456098317	 0.080373
H	 1.5338931637	 0.0923704416	 1.6105310047	 0.099391
H	 0.1753084153	-0.9494715207	 2.0683320218	 0.099509
H	-0.9751123092	-3.8553626795	-0.0283946253	 0.115464
H	-0.981038995	-2.615267476	 1.2671373765	 0.078959
H	-1.9591367719	-0.5051723401	 0.6478256512	 0.091096
H	-1.842290115	-0.0920580551	-1.0745770718	 0.108026
