22
gdb 107177	3.34819	1.19393	1.10595	1.5786	85.78	-0.2132	0.0719	0.2851	1243.382	0.193665	-367.12453	-367.115464	-367.114519	-367.158233	35.158	
C	-0.4753230323	 1.5832225705	 0.7086601134	-0.378675
C	-0.4897616068	 0.0493182399	 0.7407156225	-0.2775
C	 0.5260807625	-0.5548660742	 1.6763329887	 0.33114
C	 0.2148471969	-1.6782054674	 2.5916321269	-0.305782
N	 0.447700254	-0.3347473931	 3.1678093848	-0.178418
C	 1.9210200886	 0.0030333271	 3.1378073086	-0.029882
C	 2.9427201295	-0.9249152815	 2.5117702369	-0.008301
C	 3.1854586588	-2.4313721572	 2.5873763922	-0.44166
C	 2.0153175354	-0.1319383703	 1.6290983449	-0.16286
H	 0.4700462391	 1.975757427	 0.3211868096	 0.11456
H	-1.2766301048	 1.9640646653	 0.0683923594	 0.110661
H	-0.6197428306	 1.9846141555	 1.715863701	 0.135516
H	-1.4848227425	-0.2957579049	 1.0438091205	 0.103101
H	-0.3166425399	-0.3501569212	-0.2685804298	 0.098573
H	-0.8344628905	-1.9574551096	 2.6548228142	 0.114867
H	 0.8938762134	-2.4899168291	 2.7993636878	 0.120934
H	 2.2244483814	 0.8158634252	 3.7868332969	 0.096475
H	 3.8885060754	-0.3835929314	 2.562207561	 0.095564
H	 2.6140922107	-2.9868774138	 1.840359697	 0.131384
H	 4.2435737907	-2.63655434	 2.3969313063	 0.112515
H	 2.9516736533	-2.8422764198	 3.5750312286	 0.129577
H	 2.3731344778	 0.584752683	 0.9008163286	 0.088211
