14
gdb 124049	3.78006	1.63942	1.15747	4.5232	71.32	-0.2294	-0.0316	0.1978	973.6668	0.103532	-436.682518	-436.676093	-436.675149	-436.713587	24.863	
C	 0.0081718615	 1.4861432351	 0.1346298462	-0.13433
O	 1.2827882541	 2.1206600212	-0.1035888108	-0.268299
C	 2.1269823145	 1.4638040788	-0.9074272694	 0.43376
N	 3.1641818124	 2.0435990519	-1.4503545767	-0.242702
O	 3.808806093	 1.0022718901	-2.1469230958	-0.177895
C	 3.1224357809	-0.1404180635	-1.9815641024	-0.031953
C	 2.031901861	 0.0669655045	-1.2004664698	 0.061765
C	 0.9442873549	-0.6970841143	-0.6338289622	-0.166235
C	-0.0019300644	-0.0170270696	 0.0234453608	-0.118871
H	-0.2817566536	 1.8019443583	 1.1414247174	 0.136613
H	-0.7247317683	 1.9220850208	-0.5629918413	 0.129609
H	 3.5294493047	-1.0091005626	-2.4762425165	 0.155707
H	 0.9148439829	-1.7768575236	-0.726020194	 0.109944
H	-0.8488214035	-0.5180087072	 0.4806986545	 0.112888
