17
gdb 100230	2.63677	1.15408	0.97133	3.402	74.2	-0.2595	0.0207	0.2802	1238.6698	0.134037	-417.974691	-417.964768	-417.963824	-418.009403	36.198	
N	 0.1525095339	 1.4957020848	-0.0387712207	-0.51959
C	 0.0563308984	 0.0347749593	-0.0171957175	 0.008934
C	 0.8386519565	-0.4952760165	-1.2453011627	-0.070971
O	 0.2664644722	-0.0491568335	-2.4545399956	-0.422378
C	 0.7442097891	-0.4930764824	 1.2706016972	-0.34597
C	 0.113858769	 0.0139260239	 2.4862447758	 0.27093
N	-0.3929151354	 0.4314433626	 3.4369612586	-0.309885
C	-1.3276398348	-0.4676946615	-0.1040154083	 0.335299
C	-2.4582939609	-0.86151884	-0.2254528185	-0.48597
H	-0.1142314009	 1.8147017495	-0.9663045804	 0.245383
H	-0.5008905758	 1.9027965793	 0.6241215399	 0.249515
H	 1.8503434411	-0.0809663003	-1.2107673231	 0.127106
H	 0.897535626	-1.5920746797	-1.1969027795	 0.099174
H	-0.6205311858	-0.4265929587	-2.5088234441	 0.291496
H	 0.7223125185	-1.5875025641	 1.2885498907	 0.153981
H	 1.7890316202	-0.166668408	 1.2568340126	 0.161703
H	-3.4637079815	-1.1978981148	-0.2997985142	 0.211242
