17
gdb 74014	2.13757	1.86335	1.09129	3.9311	76.58	-0.2352	-0.0251	0.2101	1100.6662	0.1351	-421.808102	-421.800037	-421.799093	-421.840919	30.083	
C	-0.0484673798	 1.4585166605	-0.0989764565	-0.491457
C	 0.0136116619	-0.0141495187	 0.1434214651	 0.177733
C	-0.9919860447	-0.8739913347	 0.3302538336	 0.082781
C	-2.3815804325	-1.220402263	-0.1477241276	-0.148197
O	-1.8665908787	-2.5258715397	-0.5742989633	-0.30005
C	-0.6336810229	-2.308438204	 0.1736485736	 0.011332
C	 0.7621496292	-2.2001115923	-0.4914053501	 0.348116
O	 1.2949291619	-2.9441726473	-1.2609679931	-0.277472
C	 1.3021234112	-0.817732518	 0.0014445048	-0.406771
H	 0.4745994112	 2.0159938605	 0.6881764024	 0.136453
H	 0.4428467791	 1.7194356218	-1.0447088279	 0.134442
H	-1.0809950253	 1.816834961	-0.1332655463	 0.12812
H	-3.1493633264	-1.3477770052	 0.6256295058	 0.113887
H	-2.7871700918	-0.6324709445	-0.9780041487	 0.123152
H	-0.5877304259	-2.9676750007	 1.0525357288	 0.100746
H	 1.9979139759	-0.3921694694	-0.7289987672	 0.132612
H	 1.8615145979	-0.9542848761	 0.9367135566	 0.134574
