16
gdb 35586	3.11747	1.38516	1.16128	3.95	67.99	-0.2699	-0.0087	0.2612	1052.8226	0.126107	-437.871383	-437.864012	-437.863067	-437.903941	27.309	
N	-0.0772715531	-1.1448141545	 0.1027198512	-0.319575
C	-0.0267947132	 0.0077635387	 0.0349502381	 0.286112
C	 0.0453296724	 1.4665194917	-0.0753324168	-0.014128
O	-0.3467589183	 2.150944909	 1.1285873296	-0.294655
C	 0.8399582483	 2.9924776117	 1.0821305704	 0.105942
C	 1.8023953479	 2.8140240503	 2.2669520787	-0.099776
O	 2.9852889809	 2.25215015	 1.7152715372	-0.244022
C	 2.6028110285	 1.4097752301	 0.6366403303	-0.113934
C	 1.442087813	 2.1459460161	-0.0601845059	-0.11557
H	-0.5713675267	 1.7795245368	-0.9272947357	 0.128753
H	 0.5720102513	 4.0310663887	 0.8707203489	 0.097858
H	 2.0783516071	 3.7523696448	 2.7541955013	 0.116847
H	 1.3343591382	 2.1453201516	 3.0046721541	 0.115458
H	 3.476275287	 1.2743242205	-0.0043402222	 0.122647
H	 2.2810070501	 0.4228076861	 1.000876299	 0.124857
H	 1.7307325467	 2.6447288283	-0.983600438	 0.103187
