18
gdb 14519	3.80248	1.76955	1.49602	2.3896	67.48	-0.2544	0.0633	0.3177	891.5307	0.154359	-384.875979	-384.868544	-384.8676	-384.907394	29.502	
O	 0.7598021177	-0.352608955	 1.3039912134	-0.424917
C	 0.143827949	-0.0119812379	 0.0760372628	-0.119937
C	-1.2765103611	-0.5665787477	 0.0080196093	 0.452748
O	-1.905590167	 0.0474027648	 1.1249510528	-0.510734
C	-2.0505095971	-0.6317533591	-1.3558590786	-0.102364
C	-1.1494984536	-1.8471045629	-1.7303843962	-0.232377
C	-1.5508351837	-2.0869215319	-0.2462877735	-0.108057
C	-2.9951338852	-1.6775900929	-0.6889250714	-0.257807
H	 0.1153332712	-0.1133943351	 1.9812210987	 0.285353
H	 0.0828830465	 1.0812741601	-0.0528437864	 0.090614
H	 0.7843522194	-0.401830435	-0.7148833755	 0.108415
H	-2.6744054446	-0.4651294727	 1.3871673401	 0.286737
H	-2.3396700923	 0.2028827843	-1.9959644275	 0.074763
H	-1.5887921564	-2.544971532	-2.4462648634	 0.097358
H	-0.0999525171	-1.6694391526	-1.959501239	 0.10156
H	-1.2625637416	-2.9242528353	 0.3904886182	 0.079981
H	-3.7041184764	-1.322905537	 0.0637852623	 0.078846
H	-3.4964251578	-2.3707115521	-1.368376886	 0.09982
