21
gdb 90934	2.93997	1.44786	1.40107	1.5917	81.67	-0.221	0.0912	0.3122	1076.9341	0.183342	-387.072982	-387.064873	-387.063929	-387.105064	32.535	
C	-0.113537896	 1.5626871794	-0.0396626196	-0.408329
C	 0.0468062	 0.0541835737	 0.0351884928	 0.147927
O	 0.826251407	-0.4027389518	-1.0886693985	-0.286351
C	 1.5167668374	-1.5546695222	-0.6546188722	 0.064057
C	 2.5870980994	-1.4102276125	 0.4153177529	-0.15232
C	 2.3159820558	-0.133039984	 1.2058815827	-0.237697
C	 0.8004900046	-0.5221527778	 1.2397344899	-0.129819
C	 1.1845329216	-1.9513095071	 0.7418943992	 0.301662
C	 0.6977580497	-3.2737237112	 1.2509156593	-0.520232
H	 0.8506524758	 2.0719805041	 0.0362660597	 0.123383
H	-0.5733078979	 1.8457644188	-0.990764029	 0.127108
H	-0.7604617377	 1.9153057557	 0.7701443698	 0.111418
H	-0.9515583207	-0.415515895	-0.0132992493	 0.061732
H	 1.6595033198	-2.2966859673	-1.4322541238	 0.094583
H	 3.5274868734	-1.9487037189	 0.3581115591	 0.076869
H	 2.7583320472	-0.1734313033	 2.2042450389	 0.099494
H	 2.5828142895	 0.8187765774	 0.7359963002	 0.098647
H	 0.280239626	-0.4230504439	 2.1928209813	 0.068056
H	-0.3869829036	-3.3760756553	 1.1257281212	 0.121093
H	 1.1704295512	-4.0998208957	 0.7090828425	 0.120928
H	 0.9232056475	-3.405839913	 2.3157403929	 0.11779
