15
gdb 125510	4.09128	1.01412	0.90106	2.3146	73.28	-0.2805	-0.0237	0.2568	1291.8895	0.111952	-412.943548	-412.934929	-412.933985	-412.978453	29.809	
C	 0.0509225741	 1.4673072251	-0.0118576265	-0.479315
C	-0.0007612573	-0.0209469505	-0.006753706	 0.391742
N	 0.1125091455	-0.7755911329	-1.0958761871	-0.287757
N	 0.0015945642	-1.9977712369	-0.5873021362	 0.149974
C	 0.076627023	-3.2165140533	-1.3864224531	-0.298135
C	 1.4222698242	-3.5037447041	-1.8678179323	 0.327831
C	 2.5222653543	-3.757967245	-2.2739073342	-0.439322
N	-0.1690574657	-2.0210757348	 0.7284844887	-0.119504
N	-0.1748874993	-0.7724385285	 1.1130955547	-0.256079
H	 0.8716115685	 1.8260439487	 0.6161742979	 0.150932
H	 0.1963939644	 1.8339161478	-1.0288854587	 0.147055
H	-0.8761797165	 1.8873265953	 0.3890242564	 0.149818
H	-0.2878056429	-4.0169405476	-0.7371749961	 0.179057
H	-0.6182867763	-3.1089303415	-2.2248911429	 0.169339
H	 3.4984653998	-3.9783880018	-2.6303545744	 0.214364
