19
gdb 125324	4.15961	1.03804	0.89494	2.255	84.12	-0.2205	0.0264	0.247	1347.7501	0.160432	-382.078965	-382.070394	-382.06945	-382.113684	31.497	
C	 0.1368096788	 1.5328994718	 0.0921598703	-0.504759
C	 0.0611724215	 0.0381037457	 0.0229277017	 0.182306
C	 0.3764928356	-0.7780152319	-1.0473553813	-0.131501
N	 0.1578544423	-2.0618932103	-0.6599681765	 0.038136
N	-0.2858823724	-2.136289828	 0.6109225383	-0.270243
C	-0.3445291889	-0.8722975061	 1.0238715865	-0.076741
C	 0.3293731549	-3.2792660172	-1.3984922532	 0.099266
C	 0.0170669994	-3.349988954	-2.8683291843	-0.285071
C	 1.4497341763	-3.4389002133	-2.3892015038	-0.285708
H	 0.8247011206	 1.8691957863	 0.8762217899	 0.129525
H	 0.4870709059	 1.954576085	-0.8543128982	 0.120056
H	-0.8401123096	 1.9795091459	 0.309315433	 0.129505
H	 0.7336386695	-0.5326228919	-2.0353801601	 0.12703
H	-0.6768969988	-0.6561594204	 2.0294876159	 0.105681
H	 0.0665027608	-4.1181109121	-0.768442129	 0.122621
H	-0.4688785443	-4.2439098921	-3.2427711361	 0.125217
H	-0.2947909213	-2.4331885784	-3.356424438	 0.124748
H	 2.0921073909	-2.581902242	-2.5591040143	 0.124691
H	 1.9596576087	-4.3947988371	-2.4300647108	 0.125241
