18
gdb 50383	3.99249	1.11917	0.96516	3.0573	73.57	-0.2466	0.0174	0.264	1208.2904	0.149707	-439.092935	-439.085132	-439.084188	-439.126262	28.609	
O	 0.0070233105	-0.0340920574	 0.6964304044	-0.326817
C	 0.0211531207	 1.1639590685	 0.5045417092	 0.126733
N	 1.0458654272	 1.8370336242	-0.0680319048	-0.037868
C	 2.4026682313	 1.3769651368	-0.3736642105	-0.191973
C	 2.7968492918	 2.8597712435	-0.6317494745	-0.056985
C	 2.8282974601	 3.3423745081	-2.0931476459	-0.097366
O	 1.8919783835	 4.4083346543	-2.1667839837	-0.23963
C	 0.7772741061	 4.0496601327	-1.3630606304	-0.095721
C	 1.3643148872	 3.2677953168	-0.1668769165	-0.021628
H	-0.8190638917	 1.8393144814	 0.7708247534	 0.066694
H	 2.8930832412	 0.9064878648	 0.4840862091	 0.127255
H	 2.4692010337	 0.7026584131	-1.2336250112	 0.124722
H	 3.6274441604	 3.2391957866	-0.0390507351	 0.094812
H	 3.7984994436	 3.7334559428	-2.4079403165	 0.117681
H	 2.5439520787	 2.524440392	-2.7754689059	 0.097286
H	 0.2672779815	 4.972631306	-1.0760824281	 0.114818
H	 0.0734507386	 3.4072618516	-1.91442582	 0.10049
H	 1.2803306056	 3.8044618241	 0.782280647	 0.097497
