20
gdb 106989	2.92808	1.26655	1.02067	3.472	80.13	-0.2293	-0.0135	0.2158	1251.013	0.169581	-403.131661	-403.122247	-403.121303	-403.165989	34.688	
C	-0.3048891356	 1.5108269738	-0.0404814936	-0.378913
C	 0.0757912592	 0.0307885803	 0.1166258768	-0.322316
C	 0.8439321817	-0.4878452572	-1.0614541398	 0.231089
N	 0.184695645	-0.8184550347	-2.3795186705	-0.365035
C	 0.9903807815	-1.843798145	-1.7003680931	-0.147634
C	 2.4491186312	-1.5845594988	-2.1251168844	-0.101905
C	 2.8375470362	-1.6740083668	-3.5941227308	-0.413364
C	 2.2790559533	-0.1860816929	-1.4518290538	 0.395635
O	 3.0408614522	 0.6990440056	-1.185907039	-0.319687
H	 0.5923044283	 2.1223974587	-0.1690088276	 0.148748
H	-0.9434954459	 1.6632659338	-0.9161147416	 0.122481
H	-0.8434083206	 1.8700953316	 0.8411858067	 0.113877
H	 0.6867156055	-0.0959462612	 1.0188015493	 0.116193
H	-0.823345122	-0.5828675212	 0.2615825693	 0.097285
H	-0.7962829181	-0.9912598317	-2.1541039676	 0.2326
H	 0.5589574307	-2.7788934793	-1.3654686057	 0.103962
H	 3.143673009	-2.1547961439	-1.4947421975	 0.099642
H	 2.0916227506	-1.1727955131	-4.2150104728	 0.142828
H	 3.8066272907	-1.1931678287	-3.759210568	 0.130806
H	 2.918958717	-2.7163545594	-3.9195645261	 0.113706
