17
gdb 42891	2.92914	1.57965	1.28871	3.297	73.68	-0.2413	-0.0076	0.2337	1016.4167	0.136524	-417.93858	-417.93094	-417.929996	-417.97112	28.931	
N	-0.2258662223	 1.1701323106	-0.0879709741	-0.525838
C	-0.0445464282	-0.06621742	 0.0135719714	 0.299134
N	 1.1599243495	-0.8852182151	-0.0780745877	-0.178677
C	 1.1707304797	-1.6996468652	 1.1711887443	-0.254952
C	 0.2552276616	-2.1151437149	 0.0993708047	-0.11271
C	-1.008829618	-1.2525561801	 0.1114754883	 0.424605
C	-2.1737235844	-1.3541673322	 1.1141886212	-0.36031
C	-3.0563970701	-1.4439928852	-0.1451856502	-0.072944
O	-1.8911074299	-1.421134581	-1.0045381618	-0.315016
H	 0.6641701492	 1.6560917696	-0.2305100896	 0.230837
H	 2.097495271	-2.250091756	 1.297346484	 0.138547
H	 0.777880601	-1.257929882	 2.084212414	 0.129063
H	 0.3909535876	-2.9957013464	-0.5161643179	 0.121747
H	-2.1548705456	-2.2494607643	 1.7381399149	 0.116808
H	-2.3194815469	-0.470855944	 1.7364035158	 0.13197
H	-3.6340136574	-2.3656019806	-0.2747536558	 0.108032
H	-3.7047845166	-0.5799136632	-0.3241435516	 0.119703
