17
gdb 54727	2.97899	1.51092	1.46315	4.0209	71.16	-0.2255	0.0055	0.231	977.7387	0.133764	-421.757105	-421.749129	-421.748185	-421.7898	30.35	
C	 0.6686994302	 0.3702179312	 1.2147241552	-0.470996
C	 0.0425325077	 0.0514685242	-0.1288882786	 0.387286
O	 0.4045421163	 0.5667570245	-1.1595650213	-0.320511
C	-1.1906909434	-0.8388752836	-0.1077105329	-0.12308
C	-1.4026294826	-2.0478115624	-0.9667144436	-0.111922
C	-0.1287493054	-2.945113478	-1.0219997798	 0.027126
O	 0.9104586867	-2.3387134647	-0.2374212714	-0.234498
C	-0.1186777439	-3.081806272	 0.4308136896	 0.014984
C	-1.3809292198	-2.1760790719	 0.5630696662	-0.130813
H	 1.5042580438	 1.058113399	 1.07809176	 0.137206
H	-0.078721997	 0.8300143453	 1.8729367551	 0.126614
H	 1.0142690578	-0.5434267995	 1.7048020833	 0.144043
H	-2.0933267386	-0.2311389732	-0.0389050047	 0.120161
H	-2.2410631108	-2.1668154406	-1.6395538601	 0.103311
H	 0.1725970039	-3.6119236912	-1.8196255197	 0.118058
H	 0.1853901695	-3.8881817396	 1.0867283638	 0.115093
H	-2.2053424245	-2.3944025574	 1.2290160988	 0.097937
