20
gdb 98786	4.32031	0.89972	0.87287	3.2976	82.06	-0.2347	0.0272	0.2618	1422.7228	0.171789	-403.196806	-403.187452	-403.186508	-403.232823	33.506	
C	 0.2134064099	 1.4388852128	-0.5301014224	-0.333657
N	-0.0008717996	 0.022092817	-0.3116501239	-0.318788
C	-1.0727004471	-0.4627219712	 0.3807671106	 0.403752
O	-1.9329145852	 0.2586125275	 0.8599201277	-0.386723
C	-1.121181523	-1.9789516978	 0.5307437381	-0.086625
C	-1.0000303796	-2.4222766654	 2.0200506291	-0.259742
C	-1.9518972128	-3.590610311	 2.1124995017	-0.062364
C	-2.7452250431	-3.6751905646	 1.0475052722	-0.061294
C	-2.4715299894	-2.5794530164	 0.0458892662	-0.261371
H	 0.2239265465	 1.6824266719	-1.5985346833	 0.124025
H	-0.6130166801	 1.9660333729	-0.0520623141	 0.172391
H	 1.1575550436	 1.7741859026	-0.086017006	 0.123877
H	 0.6702305573	-0.6319230154	-0.6774612179	 0.244266
H	-0.3077357055	-2.4453125864	-0.0361536436	 0.059276
H	 0.03068176	-2.67739279	 2.2907649638	 0.097905
H	-1.3165171805	-1.6106313484	 2.6879473299	 0.131048
H	-1.994933445	-4.2362981385	 2.9826423316	 0.090839
H	-3.537849673	-4.402389946	 0.9100958356	 0.0911
H	-3.2580065359	-1.8148672875	 0.0800477005	 0.134234
H	-2.4153408875	-2.939021746	-0.9877168958	 0.097849
