19
gdb 80551	2.6954	1.46697	1.28675	2.5507	70.22	-0.2439	0.0614	0.3052	1048.8323	0.160707	-460.141744	-460.133774	-460.13283	-460.173547	32.522	
O	 0.103221178	 1.5435282648	 0.1402143289	-0.447705
C	 0.0438359821	 0.126486312	 0.0682131781	 0.129189
C	 0.1424829186	-0.6259892359	 1.416654902	-0.107032
C	-0.9928226857	 0.0012368632	 2.2440926865	-0.268772
C	-2.1168318705	 0.057773757	 1.1451230831	 0.158763
O	-2.612735559	 1.3481346846	 0.8694479171	-0.454979
C	-1.3423897922	-0.5886479604	-0.0244721181	-0.127297
C	-0.635956612	-1.7721683578	 0.6877949463	 0.130105
O	 0.1044380227	-2.5572447138	-0.221781864	-0.447995
H	 0.233362475	 1.8859152511	-0.7493285716	 0.292159
H	 0.7517843754	-0.261725938	-0.6649700539	 0.09475
H	 1.102484072	-0.8007643932	 1.9052840854	 0.058586
H	-1.2700860692	-0.6167609288	 3.1031923564	 0.095087
H	-0.7562950603	 1.0045999707	 2.6045923203	 0.114273
H	-2.987233518	-0.5422535888	 1.4261703791	 0.080759
H	-1.8386748949	 1.8770166607	 0.6319592074	 0.279668
H	-1.8745054239	-0.7263488931	-0.9651248462	 0.06812
H	-1.2696141293	-2.3970907312	 1.3320117166	 0.068064
H	 0.6955451613	-3.1220512731	 0.2863001667	 0.284256
