19
gdb 63824	3.12468	1.52763	1.35769	0.658	73.84	-0.2484	0.0707	0.3191	1007.612	0.15811	-422.961959	-422.954037	-422.953093	-422.993755	32.202	
C	-0.205215959	 1.6074030274	-0.0232181927	-0.462265
C	 0.0212345115	 0.1044690337	 0.0019633463	 0.41703
O	-1.2101793096	-0.5973966419	-0.1482233592	-0.483364
C	 1.1430298402	-0.4906796658	-0.9284444763	-0.301881
C	 1.762331951	-1.2340340504	 0.29090199	-0.056722
C	 2.8847854412	-0.4935846212	 1.0623353017	 0.010344
O	 2.6477513089	 0.9125439514	 0.944601744	-0.236123
C	 1.897628801	 0.1815293348	 1.9271626807	-0.001518
C	 0.7227824948	-0.5483050179	 1.2325366687	-0.083697
H	 0.7300226497	 2.1500179522	 0.1218580632	 0.144589
H	-0.6274731638	 1.9100320309	-0.990554199	 0.099165
H	-0.9156015597	 1.8961964027	 0.7581103793	 0.11677
H	-1.6002359295	-0.3226592658	-0.9857547932	 0.271752
H	 0.732970634	-1.1562236289	-1.6913236658	 0.093363
H	 1.8000168132	 0.2477557681	-1.39093931	 0.107126
H	 1.8545895652	-2.3182009895	 0.2507174127	 0.076928
H	 3.9082479091	-0.8010448117	 1.2473514935	 0.102829
H	 1.9642097119	 0.5415350845	 2.9478301015	 0.104805
H	 0.07832374	-1.1277029927	 1.8924025247	 0.080868
