15
gdb 29430	5.31902	0.9614	0.81821	2.4922	68.85	-0.1953	-0.0425	0.1528	1307.2135	0.112876	-453.998625	-453.990521	-453.989576	-454.032196	29.576	
O	-0.7612001406	 1.1510705523	-0.8580660772	-0.438987
C	-0.2639135711	-0.0119531117	-0.3807867563	 0.333941
C	 0.5778274868	-0.8793094013	-1.0309939296	-0.210423
N	 0.7822049502	-1.8987457644	-0.1178584535	-0.267073
C	 0.0773625326	-1.6050127219	 0.999285311	 0.368174
C	 0.0350362411	-2.4621907132	 2.2235014736	-0.422781
C	 0.8326278629	-3.7415060203	 2.2125892515	 0.168864
O	 1.5131584631	-4.1526633091	 1.3024253871	-0.2555
N	-0.5731357793	-0.4577488837	 0.8702694904	-0.405335
H	-1.3142308232	 1.5132939629	-0.1556088554	 0.298441
H	 1.028016135	-0.8687158032	-2.0070454242	 0.129223
H	 1.3436247856	-2.7310304808	-0.2165022259	 0.281308
H	 0.3646416579	-1.8916845004	 3.1054045295	 0.159697
H	-1.0027884237	-2.7385883294	 2.4650754877	 0.159724
H	 0.7505098027	-4.3219192058	 3.1564873313	 0.100728
