16
gdb 88352	2.18361	1.41325	0.94381	5.4391	74.11	-0.2743	-0.0208	0.2536	1221.176	0.122967	-396.906635	-396.897547	-396.896603	-396.941081	32.116	
C	-0.5846824324	 1.4430635734	 0.1733893305	-0.429689
C	-0.1441650535	-0.0032567161	 0.1288396931	 0.030405
C	 1.2164118296	-0.395568323	-0.3337900052	-0.251935
N	 0.8296641602	-0.5923016748	 1.0678278262	-0.084291
C	 1.4744010235	 0.2778414476	 2.0490945409	-0.276481
C	 0.5930473613	 0.4513063138	 3.2197797591	 0.331613
N	-0.1195870915	 0.6217761361	 4.1111589922	-0.305638
C	 2.7628153732	-0.3164971967	 2.4541249493	 0.332181
N	 3.7895336822	-0.7592366591	 2.7387758892	-0.299897
H	 0.2513313301	 2.1430464131	 0.2543964679	 0.12414
H	-1.1155030795	 1.6848174084	-0.7526347383	 0.140035
H	-1.2707512981	 1.6232311614	 1.0069138062	 0.153423
H	-0.9557057303	-0.7005493882	-0.0669698909	 0.117014
H	 1.386428369	-1.3074160427	-0.897370077	 0.139664
H	 1.9102434814	 0.413275548	-0.5594832265	 0.12411
H	 1.7029679548	 1.2890436288	 1.6714549632	 0.155343
