21
gdb 106274	2.56151	1.32101	1.03608	2.4691	79.34	-0.2377	0.0785	0.3162	1245.2592	0.180334	-424.169913	-424.160339	-424.159395	-424.203899	36.386	
C	-0.2260039948	 1.6616746824	-0.0926750978	-0.445479
C	 0.008019276	 0.1651421644	 0.0367416677	-0.045788
C	 1.2255888971	-0.5707757429	-0.6128133694	 0.391135
C	 1.4909286432	-0.8911165498	-2.0502370988	-0.512854
C	 2.171681303	 0.0207613373	 0.4638071753	-0.306699
C	 0.8793711637	-0.4752481611	 1.156219212	 0.373245
C	 0.612274221	-0.724334073	 2.6112601787	-0.188442
O	 1.6015448908	-1.569690561	 3.1684959649	-0.416802
O	 0.9583620825	-1.7070539141	 0.3167834533	-0.390587
H	 0.6791334279	 2.255566884	 0.0571154116	 0.12033
H	-0.6190067014	 1.9008104109	-1.0869909445	 0.123044
H	-0.9690709811	 1.9995126235	 0.6377995569	 0.12427
H	-0.9144873921	-0.4037480909	-0.1143715318	 0.078592
H	 1.6589363347	 0.0293579687	-2.6185429034	 0.127063
H	 2.3795772811	-1.5223234745	-2.1470571558	 0.133423
H	 0.6395511536	-1.419268721	-2.4904404228	 0.132463
H	 3.0584908587	-0.5783599	 0.6721896588	 0.106321
H	 2.3855577298	 1.091024381	 0.4512459499	 0.09319
H	 0.6401087519	 0.2184544312	 3.168461969	 0.113423
H	-0.3980484588	-1.1510897605	 2.720940292	 0.095786
H	 1.7036521132	-2.3045716748	 2.5514788743	 0.294366
