21
gdb 40825	3.77815	1.02256	0.85981	1.9741	78.33	-0.2507	0.0897	0.3404	1371.6247	0.184608	-424.212874	-424.20465	-424.203706	-424.246035	31.839	
C	-0.1967566196	 1.4018106169	-0.1627198913	-0.274927
C	 1.2423414945	 1.0278446379	 0.0888421144	-0.274925
C	 0.1805281579	-0.0446091427	 0.0487716297	 0.019124
C	-0.2284046303	-0.7690161345	 1.3114303254	-0.023668
C	-1.6575500407	-1.3255150625	 1.2211046832	-0.094857
O	-1.9815209146	-2.087619537	 2.3763531728	-0.235935
C	-1.0608423452	-3.127266711	 2.5694432317	 0.015856
O	 0.2487406159	-2.6668219357	 2.7663713008	-0.235936
C	 0.7110966834	-1.9406534119	 1.6353235957	-0.094847
H	-0.7342423778	 1.9058207692	 0.6339482671	 0.114745
H	-0.4799581146	 1.7207953497	-1.1594820884	 0.113467
H	 1.9432919167	 1.091102436	-0.7358727983	 0.113468
H	 1.6686903151	 1.2813753128	 1.0540093345	 0.114744
H	 0.1746774079	-0.6673974561	-0.8436251191	 0.081807
H	-0.1954893808	-0.0718677334	 2.1584946027	 0.08271
H	-2.3964209731	-0.5228443581	 1.1543810576	 0.113448
H	-1.7540974646	-1.9540748942	 0.3177071648	 0.083076
H	-1.3567167729	-3.6543223264	 3.4786548723	 0.116205
H	-1.0875314334	-3.8151164949	 1.7005543737	 0.069922
H	 0.7808435659	-2.6123958519	 0.7610054656	 0.083076
H	 1.7189820303	-1.5916141824	 1.8740720051	 0.113447
