18
gdb 77884	2.16581	1.6665	1.30326	1.2222	73.37	-0.2233	-0.0259	0.1974	1064.3975	0.144876	-439.049779	-439.040332	-439.039388	-439.083735	34.252	
C	-0.1404029051	 1.5330839623	 0.0658180285	-0.316902
N	 0.1301846628	 0.0933416122	 0.0755360864	-0.119782
C	 1.3809220837	-0.5044632161	-0.3042136407	-0.121413
C	 2.6060237062	 0.3083321516	 0.1135639027	-0.011381
O	 2.8366368053	 1.5033521243	-0.590471509	-0.423728
C	 2.0215340977	 0.3037199108	 1.5622615842	 0.314121
O	 2.4249254776	 0.7300195871	 2.6078915912	-0.31401
C	 0.8605683156	-0.5802766923	 1.1447995121	 0.199853
C	 0.219446863	-1.6752103508	 1.9421231356	-0.497547
H	 0.6868125527	 2.1676958213	 0.3983095037	 0.129484
H	-0.3994174612	 1.8209709772	-0.9570872476	 0.1313
H	-1.010800314	 1.714396178	 0.7033014568	 0.124073
H	 1.3759702916	-1.2994141467	-1.0422433313	 0.107147
H	 3.5047395056	-0.3321980005	 0.131138931	 0.098636
H	 3.522458659	 1.9928845929	-0.1222908289	 0.296408
H	-0.3645860241	-1.2555293037	 2.7681562402	 0.138885
H	-0.4557617412	-2.2572901976	 1.3102049563	 0.136851
H	 0.9718090846	-2.3429918301	 2.372996709	 0.128005
