19
gdb 22226	2.53214	0.99114	0.72172	3.2837	76.56	-0.2477	-0.0389	0.2088	1557.7766	0.156955	-456.343836	-456.33335	-456.332406	-456.380557	37.41	
C	-0.5399894895	 1.532534036	-0.1845625003	-0.38834
C	-0.0796668757	 0.0814564556	-0.0199200033	-0.171415
C	 0.4526341497	-0.4994266504	-1.3302693	-0.218381
C	 0.9328646146	-1.9308622991	-1.2715549233	 0.227639
N	 0.8476190081	-2.5146405304	-0.1354312645	-0.180538
O	 1.2975239654	-3.8418819229	-0.0999119676	-0.402299
C	 1.4520955196	-2.4576359397	-2.6055397512	 0.378655
N	 1.9080524263	-3.7327319735	-2.6596770439	-0.54122
O	 1.4400298857	-1.7175593464	-3.5749254541	-0.362053
H	 0.282102321	 2.1766305326	-0.5161909076	 0.114794
H	-1.3417597001	 1.6148914049	-0.9268932144	 0.114802
H	-0.9184263004	 1.9362077514	 0.7596042622	 0.110316
H	 0.6968561464	 0.0200411714	 0.7505119447	 0.104017
H	-0.9085885652	-0.5353218589	 0.3444938837	 0.104025
H	-0.3095832919	-0.4402657835	-2.1175847385	 0.129812
H	 1.2802774467	 0.1096553104	-1.7154815979	 0.129747
H	 1.1485807372	-4.0829226449	 0.8199125657	 0.315086
H	 1.9097719494	-4.3270899016	-1.8489188783	 0.27704
H	 2.2462025223	-4.0588384711	-3.5502541216	 0.258315
