18
gdb 45817	2.36735	2.01559	1.17958	3.7523	78.14	-0.2322	0.0081	0.2402	1036.2161	0.150357	-401.980243	-401.972873	-401.971929	-402.012198	28.727	
O	 0.1535620095	 0.0487518503	 0.1386279044	-0.373685
C	 0.0421434606	 1.2478057093	-0.0382541065	 0.366414
C	-1.2912596636	 1.9894246819	 0.0613990117	-0.375922
C	-1.1494513698	 3.3353663206	 0.7330534102	-0.075158
C	-0.01289569	 4.0289838817	 0.7018896166	-0.077444
C	 1.1797739749	 3.5040170337	-0.0251281417	-0.001089
C	 2.5360569151	 3.2494717187	 0.7082336481	-0.256697
C	 2.475715402	 1.7937455314	 0.1638823113	-0.17137
N	 1.1070524219	 2.0559891312	-0.3164475575	-0.088363
H	-1.7138193202	 2.1088348572	-0.9466003153	 0.137014
H	-1.9763418501	 1.3350559668	 0.6057353515	 0.136255
H	-2.0224970957	 3.7314170295	 1.2443590173	 0.102017
H	 0.0715942364	 5.0078908711	 1.1653724598	 0.099362
H	 1.3404177924	 4.0831338524	-0.9473711293	 0.095687
H	 3.3787418814	 3.8618771837	 0.3852664242	 0.110858
H	 2.4412848162	 3.2996798533	 1.7945464242	 0.119146
H	 3.177416836	 1.5805541367	-0.6484607779	 0.116274
H	 2.5159492728	 0.9824651106	 0.8940472589	 0.136702
