20
gdb 30810	2.18356	1.37721	0.89571	1.3751	85.11	-0.1737	0.0451	0.2189	1349.9505	0.170385	-403.193565	-403.183722	-403.182778	-403.228353	36.054	
C	-0.3700249092	 1.584836071	-0.2404586039	-0.366278
C	 0.0774019504	 0.1270536228	-0.02800941	-0.295223
C	 0.9023421709	-0.4143655197	-1.1422592652	 0.255274
C	 2.1867032651	-0.8418637752	-1.26977625	 0.193744
C	 3.2433026974	-0.9007053202	-0.2105428455	-0.507009
C	 2.3514573136	-1.2472634884	-2.6466804842	-0.364595
C	 1.1521444165	-1.0256447346	-3.2486350046	 0.365227
N	 0.6964535318	-1.1307795214	-4.5576141596	-0.595786
O	 0.2580797965	-0.5231699951	-2.3669295114	-0.217954
H	 0.4949751278	 2.2506384768	-0.31770958	 0.117948
H	-0.9482870244	 1.6793882946	-1.1637732576	 0.127991
H	-0.9949009216	 1.9269663074	 0.5907136053	 0.106375
H	 0.6590671818	 0.0477770727	 0.8960086287	 0.108409
H	-0.8122766419	-0.5021587721	 0.1146936153	 0.107169
H	 3.6198827904	-1.9219272717	-0.0771810966	 0.124304
H	 4.1056905102	-0.2750545371	-0.4701042313	 0.126093
H	 2.8670227563	-0.5581709345	 0.7570459249	 0.120918
H	 3.2418334799	-1.6472796914	-3.1060477966	 0.088605
H	 1.2445699294	-1.7793625923	-5.1058232115	 0.252591
H	-0.286424901	-1.3698496415	-4.6054072563	 0.252197
