16
gdb 8463	3.09659	2.03064	1.49145	3.1338	65.94	-0.2372	-0.0215	0.2156	881.5831	0.127626	-383.734138	-383.726026	-383.725082	-383.766391	29.742	
C	-0.0792773206	 1.5119252806	 0.0741450307	-0.500376
C	 0.1619318544	 0.0407701416	-0.0094565114	 0.346017
C	 0.6259006044	-0.7881317315	-1.2220950591	-0.419318
C	 1.299721436	-1.7361470735	-0.1847548941	 0.398274
O	 2.0784107577	-2.6387460125	-0.271530925	-0.301191
C	 0.7688443106	-0.903603631	 0.9811865477	 0.213256
C	 1.2803120412	-0.7676403431	 2.374857008	-0.515231
O	-0.6634545238	-0.8473321004	 0.747177251	-0.311407
H	 0.7747723828	 2.0664596997	-0.3269907208	 0.131385
H	-0.9648097779	 1.7906533824	-0.5074981014	 0.13979
H	-0.2452082453	 1.8177746109	 1.1104604041	 0.136983
H	-0.1730782922	-1.2025033365	-1.8403492455	 0.132324
H	 1.3827079493	-0.3125729069	-1.8540623515	 0.128221
H	 2.3661499921	-0.6334170547	 2.3722820199	 0.138259
H	 0.8170850452	 0.0867854552	 2.8757716253	 0.135104
H	 1.0540744261	-1.6677671901	 2.9554058121	 0.14791
