21
gdb 96169	2.56807	1.43278	1.00739	0.3939	78.	-0.2432	0.0718	0.3149	1204.3542	0.184651	-424.211244	-424.203048	-424.202104	-424.243591	32.922	
O	-0.0766250616	 1.4487380227	 0.1245659302	-0.431878
C	 0.0084656982	 0.0330744569	-0.0165632779	 0.108412
C	 0.7475782617	-0.5374449494	 1.2114848315	-0.096023
O	 1.0151685926	-1.9230269347	 1.1983705464	-0.241029
C	-0.1316432013	-2.7490514862	 1.3562713295	-0.103878
C	-0.8351160476	-3.0296063688	 0.0455067654	-0.005808
C	-2.3410526554	-2.9628937099	-0.0596971495	-0.321541
C	-1.4937022223	-1.8935154964	-0.7011188377	-0.001647
C	-1.4293551243	-0.4785941162	-0.1542109656	-0.235121
H	 0.817893655	 1.8011698968	 0.1760402931	 0.282938
H	 0.5724727557	-0.2359620405	-0.9243470101	 0.068938
H	 1.7291943877	-0.051563428	 1.2833519944	 0.088677
H	 0.172838402	-0.2564968605	 2.1105591391	 0.091783
H	 0.2314651515	-3.6849192427	 1.7943566592	 0.10558
H	-0.823048073	-2.2954440369	 2.0829079105	 0.087326
H	-0.3386592525	-3.7738432945	-0.5703914104	 0.086448
H	-2.8489946499	-3.6811516524	-0.6937553832	 0.112227
H	-2.8957422372	-2.6930011768	 0.8343192691	 0.111311
H	-1.404228441	-1.9497454145	-1.7826801971	 0.086135
H	-1.9253117462	-0.4071659169	 0.8211717577	 0.09779
H	-1.9676944222	 0.2047145291	-0.8194336649	 0.10936
