13
gdb 44218	3.51803	1.48905	1.19369	4.0292	64.22	-0.2635	-0.0822	0.1813	970.0027	0.090454	-456.60969	-456.603068	-456.602124	-456.641083	24.869	
O	-0.2573786917	 0.1769830953	-0.3455373578	-0.305753
C	-0.0624337097	 1.298288717	-0.0157064246	 0.458479
O	-0.9591277972	 2.2024524603	 0.4974610669	-0.247718
C	 0.0863914508	 3.2282820088	 0.6673110379	 0.004006
C	 1.1236718881	 2.2900049623	 0.0405533284	-0.281345
C	 1.4499880269	 2.925883349	-1.2865320171	-0.064205
C	 0.7767233638	 4.0671423793	-1.492516464	-0.174226
C	-0.0885374026	 4.3906856686	-0.3317590706	 0.382265
O	-0.7959181964	 5.3531828812	-0.1723012167	-0.304517
H	 0.1659629619	 3.5339242579	 1.7093219618	 0.126131
H	 1.9834163639	 1.9515076146	 0.6197623714	 0.130554
H	 2.1356417798	 2.4619798647	-1.9857887443	 0.141363
H	 0.8198876425	 4.693074111	-2.3741781513	 0.134966
