22
gdb 87169	3.44663	1.02209	0.99267	1.8485	82.25	-0.2259	0.0789	0.3048	1327.8365	0.193171	-404.292214	-404.282553	-404.281609	-404.327335	35.485	
C	-0.1973059321	 1.4866140634	 0.0167810076	-0.313882
N	 0.0233458011	 0.0510147699	 0.1038151818	-0.113689
C	 1.3495988711	-0.4603495486	-0.2232558896	-0.294068
C	 0.8418794662	-0.5192877609	 1.1846718016	 0.315272
C	 1.4759449407	 0.3848550597	 2.2292919269	-0.480589
C	 0.3134075317	-1.8555499555	 1.6772748248	-0.071024
C	 1.3161992831	-2.7801461637	 2.4087559117	-0.089262
O	 0.6210332449	-2.6228729177	 3.6621951614	-0.274862
C	-0.4484371856	-1.8931126384	 3.0252814916	-0.092765
H	 0.6862450889	 2.1060711807	 0.2337921467	 0.099526
H	-0.5292721349	 1.7246766085	-0.9990306411	 0.125417
H	-0.9967632053	 1.7757256155	 0.706800471	 0.121875
H	 1.3799632865	-1.350487259	-0.8482450138	 0.107598
H	 2.1375859588	 0.2631420842	-0.4322345841	 0.101769
H	 2.0354869775	 1.2047369517	 1.7761288581	 0.119526
H	 0.7202051055	 0.8207106242	 2.8915595815	 0.125424
H	 2.1705804547	-0.1787421077	 2.8586180136	 0.13639
H	-0.2222181986	-2.3293711142	 0.853775165	 0.084336
H	 1.312672492	-3.8233197646	 2.0661939261	 0.096328
H	 2.3552910742	-2.4328036237	 2.4640686017	 0.098842
H	-0.6422196912	-0.9338947411	 3.5185668539	 0.099423
H	-1.3812297995	-2.4713573327	 3.0027560335	 0.098415
