16
gdb 44108	3.39936	1.67035	1.44412	3.0817	74.77	-0.2189	-0.0251	0.1938	916.9091	0.127089	-400.723245	-400.716892	-400.715948	-400.7538	26.329	
O	-0.2290121005	 0.0906085289	 0.2474474657	-0.341244
C	-0.117948877	 1.2702637114	 0.049030311	 0.397166
N	-1.2099295096	 2.1372475633	-0.3289715082	-0.363281
C	-0.658439424	 3.3956838368	 0.0711388032	 0.138881
C	-0.7051843639	 3.9619841356	 1.2860434018	-0.136269
C	 0.7138926841	 4.2182633593	 1.7687013331	-0.262663
C	 1.5397675468	 3.4966752279	 0.6997573671	-0.049655
C	 1.1615007398	 2.103369573	 0.008709859	-0.173858
C	 0.7300927896	 3.4362020202	-0.5341931992	-0.108382
H	-2.0949013256	 1.8501927561	 0.071925893	 0.247631
H	-1.535891409	 3.8628727843	 1.9750573073	 0.099955
H	 1.0353102353	 5.2680714142	 1.8387499898	 0.113115
H	 0.8196817947	 3.7903877839	 2.7731404274	 0.124399
H	 2.6079055948	 3.6876464204	 0.6459961242	 0.09617
H	 2.0323368191	 1.5723390776	-0.3608992441	 0.114446
H	 0.9443002952	 3.8244643571	-1.523103651	 0.103588
