21
gdb 72558	2.31337	1.83983	1.42895	2.8713	80.99	-0.2298	-0.007	0.2228	1024.8396	0.184564	-387.145034	-387.137094	-387.13615	-387.177051	32.146	
C	-0.0014387719	 1.5134946025	 0.0387450838	-0.482544
C	-0.0277756098	-0.0012931658	-0.002906325	 0.211805
C	 0.6416474077	-0.6520296846	-1.2579179539	-0.243936
C	 0.105733947	-2.1168787851	-1.2645462662	-0.216033
C	-0.783583071	-2.1673479525	-0.000363098	-0.020213
C	 0.1330832785	-2.1174253776	 1.2383303416	-0.328942
C	 0.67489919	-0.6793223426	 1.1810490581	 0.406778
O	 1.4930892579	-0.1840788931	 1.9129110325	-0.34059
C	-1.3870245342	-0.7439534155	 0.0131648186	-0.265891
H	 1.0278729198	 1.8763819023	 0.1154243692	 0.132594
H	-0.4540742736	 1.9424413365	-0.8613168244	 0.107387
H	-0.5451028583	 1.8942341766	 0.9091760619	 0.118729
H	 0.322613174	-0.1050672673	-2.1507906452	 0.103492
H	 1.7327618056	-0.5917021891	-1.2158541744	 0.112522
H	-0.4849472335	-2.3149469653	-2.1635292722	 0.099796
H	 0.9073625212	-2.8603862503	-1.2337165706	 0.099714
H	-1.5001230785	-2.9899891079	 0.0102619992	 0.065262
H	-0.4324930009	-2.2438530188	 2.1693582319	 0.124948
H	 0.9448154947	-2.8506730426	 1.2459097049	 0.121294
H	-1.9813501661	-0.5314406774	 0.9083108481	 0.097067
H	-1.9941440186	-0.5244117424	-0.8708889398	 0.096762
