16
gdb 39007	3.25103	1.94031	1.37838	1.0702	74.61	-0.2186	-0.01	0.2087	907.0245	0.128272	-396.935673	-396.929302	-396.928358	-396.966068	26.256	
C	-0.0114055243	 1.4816112244	 0.0121541334	-0.320295
C	 1.3198603244	 0.785566624	 0.0079307373	-0.139455
C	 1.8739659877	 0.4117693104	 1.4032089851	-0.179647
N	 0.9582403306	-0.5715842015	 2.0427919446	-0.340333
C	 0.044464988	-0.7764815094	 1.1810356997	 0.370976
N	-0.9295780803	-1.7507475694	 1.0158344635	-0.390733
C	-1.203479026	-1.7555633056	-0.3649102931	 0.026129
N	-0.6825328209	-0.809836316	-1.0629095101	-0.320222
C	 0.0282609158	-0.0239036412	-0.0932972582	 0.304416
H	-0.382539116	 1.9316522424	 0.9291382042	 0.120722
H	-0.2974094136	 1.9897973846	-0.9028044822	 0.128281
H	 1.9954440092	 0.9340110162	-0.8253338148	 0.106284
H	 2.8646839446	-0.052547731	 1.3317044029	 0.113999
H	 1.9843239708	 1.3012645033	 2.0345214425	 0.116436
H	-1.0006023677	-2.5714298389	 1.5963763671	 0.266507
H	-1.8443560623	-2.5296404522	-0.771783642	 0.136935
