20
gdb 111503	2.46201	1.55448	1.086	2.5181	74.71	-0.2152	0.0837	0.2989	1143.8785	0.1716	-440.251222	-440.242655	-440.241711	-440.284472	32.729	
C	-0.166814153	 1.553708633	 0.2508731455	-0.333747
N	 0.0518784123	 0.1196953507	 0.1250936689	-0.09931
C	-1.1737139934	-0.6113299698	-0.236257351	-0.185921
C	-1.0612762077	-1.9510128802	 0.4492403852	 0.037195
O	 0.1680376246	-2.6395783596	 0.1976044704	-0.25444
C	 0.0402428861	-1.8767218246	 1.4091112203	 0.011625
C	 0.6827184915	-0.5066772406	 1.3098434151	-0.004653
C	 2.2080801196	-0.6058694365	 1.1232109488	-0.064696
O	 2.79386621	 0.6063092393	 0.6804093704	-0.420591
H	 0.7645461148	 2.0447496594	 0.5381106748	 0.136973
H	-0.4963571606	 1.9650317346	-0.7094394219	 0.117361
H	-0.9351449573	 1.8056756516	 1.0070101669	 0.091644
H	-2.0821645325	-0.1084317312	 0.1410810939	 0.08799
H	-1.2714156014	-0.6943669118	-1.3258950016	 0.114537
H	-1.9385628572	-2.5782343153	 0.58187194	 0.100949
H	 0.0814833903	-2.4457466533	 2.3336465873	 0.101985
H	 0.4544160967	 0.0600951459	 2.2284488473	 0.064042
H	 2.6838847593	-0.8519457754	 2.0787105536	 0.101816
H	 2.4119753229	-1.4205932151	 0.4161577192	 0.108368
H	 2.4522648249	 0.7467409888	-0.209995403	 0.288872
