20
gdb 116704	4.19169	0.67719	0.66025	1.6558	84.24	-0.2272	0.0199	0.2471	1788.4394	0.167183	-440.262339	-440.251788	-440.250844	-440.298723	37.402	
C	-0.2425358001	 1.4117198532	 0.1316413913	-0.249038
O	 0.0806139017	 0.0445209644	-0.086679152	-0.196487
C	 0.6338933883	-0.5954389693	 0.9628990041	 0.121185
N	 0.9586952957	-1.8088697884	 0.8719061302	-0.21764
C	 1.5384884445	-2.4312544941	 2.0068699389	 0.020125
C	 1.1984225345	-3.8942506092	 2.2698816018	-0.370395
C	 2.5788741361	-3.505037712	 1.8034149015	 0.374299
C	 3.0564030812	-3.8694106529	 0.4190090673	-0.446703
O	 3.5875742948	-3.4655063602	 2.7839939929	-0.466933
H	 0.6512641388	 2.0049886236	 0.3608370987	 0.127699
H	-0.6830661256	 1.7756054102	-0.7972749897	 0.146114
H	-0.9710212775	 1.528539941	 0.9434912674	 0.126773
H	 0.7632898963	 0.024319645	 1.8632227728	 0.077701
H	 1.7014842736	-1.8186084928	 2.895971185	 0.083106
H	 1.081969777	-4.193129179	 3.305594022	 0.109328
H	 0.531299433	-4.3716096386	 1.5609927061	 0.119049
H	 2.2540236794	-3.7523453133	-0.3116423229	 0.142497
H	 3.8885859118	-3.2214772877	 0.1257942598	 0.121309
H	 3.4072357054	-4.9085518485	 0.3905222215	 0.099698
H	 3.8725921909	-4.3723637814	 2.9444640333	 0.278313
