18
gdb 111133	3.54156	1.28003	1.18199	0.9841	70.54	-0.2342	0.0762	0.3104	1089.2995	0.149103	-438.999818	-438.992396	-438.991452	-439.031807	29.482	
O	-0.0539879691	 1.3997172036	-0.2727037099	-0.428136
C	 0.0072781912	 0.0298913629	 0.111296317	-0.126544
C	-1.4140210576	-0.495043633	 0.1130584934	 0.032919
C	-2.0119434129	-0.7318886523	-1.2964107578	 0.059018
O	-1.2228815986	-1.9785164595	-1.3690707973	-0.312521
C	-1.537045022	-2.0387932262	 0.0695329815	 0.029734
C	-3.0606809365	-2.3034879282	 0.0116213285	-0.048545
N	-3.9067298257	-1.138712615	 0.3635851845	-0.331455
C	-3.4201284569	-1.311759324	-1.0268399938	-0.049203
H	 0.8458540661	 1.7334613534	-0.3304629793	 0.286636
H	 0.6240080552	-0.5550623148	-0.5830535342	 0.103072
H	 0.4339103634	-0.078218867	 1.1222723544	 0.080755
H	-2.0321448809	 0.0418457741	 0.8300867684	 0.11153
H	-1.8572900059	-0.0580834511	-2.1367919644	 0.086348
H	-0.9008208937	-2.7221703694	 0.632299072	 0.074563
H	-3.4570701865	-3.3103728458	 0.0539229459	 0.100006
H	-4.8770644306	-1.4477603127	 0.4043101625	 0.231718
H	-4.1145419689	-1.5048384848	-1.8350531613	 0.100106
