16
gdb 45801	2.87433	1.57726	1.10083	2.6006	71.65	-0.2369	-0.0195	0.2174	1050.2907	0.126508	-437.906254	-437.899026	-437.898081	-437.938016	28.171	
O	-0.1569429289	 0.0647470602	-0.781000707	-0.346538
C	-0.0299103693	 1.0951745429	-0.1539012484	 0.373861
C	-1.1596309747	 1.7609594445	 0.6127633083	-0.336653
C	-1.4949444278	 3.1586574249	 0.1247076001	 0.023919
O	-1.6130893527	 4.1603007176	 1.1340610368	-0.256394
C	-0.5010400329	 4.2360336004	 0.2165867219	 0.014633
C	 0.8704031349	 4.0058658132	 0.7262323117	-0.128064
C	 1.599731466	 2.8979029208	 0.5472792728	 0.013146
N	 1.215802683	 1.69785969	-0.0509572546	-0.323588
H	-2.0234609564	 1.0983979812	 0.5445116135	 0.134294
H	-0.8652499895	 1.8461588554	 1.6641304914	 0.142573
H	-2.247114482	 3.2176265947	-0.6612475077	 0.10631
H	-0.5935323348	 5.0766839652	-0.4736126077	 0.102902
H	 1.3548513009	 4.8402398494	 1.2236352656	 0.104624
H	 2.6347114343	 2.8858760572	 0.8779949698	 0.118743
H	 1.9471919999	 1.1318608224	-0.4586841065	 0.256232
