21
gdb 87624	2.46807	1.48828	1.14239	1.2244	84.96	-0.2181	0.0275	0.2456	1158.5417	0.182614	-387.086878	-387.078094	-387.07715	-387.120007	34.66	
C	-0.6064967922	 1.2241842873	 0.0114929526	-0.412554
C	 0.1232041593	-0.1112436099	-0.1180124948	-0.032727
C	 1.2752179036	-0.0925242971	-1.1661596372	-0.284303
C	 2.3532772884	-0.947985694	-0.5483026884	-0.093033
C	 2.0869877112	-1.2372919563	 0.7248633111	-0.129023
C	 0.7915174087	-0.6581237075	 1.1661501204	 0.30952
C	 0.6668253646	 0.0091051588	 2.5338106334	-0.386713
C	-0.0225023403	-1.2995304186	 2.2566986902	 0.048964
O	-1.4076990245	-1.3212794431	 2.0542619533	-0.419154
H	 0.0696072988	 2.0175247198	 0.3498230244	 0.110956
H	-1.0193098654	 1.5292006897	-0.9562267861	 0.107731
H	-1.437022391	 1.1519348901	 0.7192131707	 0.119143
H	-0.60872379	-0.8639724942	-0.4323484198	 0.092626
H	 0.9440423981	-0.4615074545	-2.1439901238	 0.101306
H	 1.6432259819	 0.9304483301	-1.3361822474	 0.100202
H	 3.2466713839	-1.2489061695	-1.0840591844	 0.089844
H	 2.7240041697	-1.8087654964	 1.3921179507	 0.087854
H	 1.5341526025	 0.0174121526	 3.1864651387	 0.106244
H	 0.0383055407	 0.8906335342	 2.6003825464	 0.114416
H	 0.3806361733	-2.1991157561	 2.7240823369	 0.080621
H	-1.8358876713	-1.1629964654	 2.9021331129	 0.288081
