17
gdb 86532	3.77917	0.92949	0.84171	1.3388	69.92	-0.251	-0.0962	0.1548	1355.7111	0.13371	-458.963715	-458.954593	-458.953649	-458.998847	32.279	
O	 0.3980174272	 1.0303194831	-0.4677023483	-0.429863
C	-0.1821758315	-0.0960217701	 0.1418957962	 0.157179
C	 0.167804773	-0.4151419525	 1.6222154565	-0.276278
C	-1.3449425537	-0.6399039893	 1.9010084057	-0.125274
C	-1.6495807966	 0.1241971839	 0.5557881082	-0.245481
C	-1.7742491157	-2.0754415072	 1.8178322071	 0.284346
O	-1.1713736946	-2.9552981514	 1.2414911169	-0.293529
C	-3.1037012536	-2.4573716366	 2.4902494349	 0.092202
O	-3.7777399627	-1.6929741266	 3.128222135	-0.215406
H	 1.2708020211	 0.787302878	-0.791965812	 0.285497
H	-0.0775827023	-0.9941101592	-0.479300538	 0.088279
H	 0.8331804995	-1.2581952432	 1.8167125469	 0.112193
H	 0.5298592107	 0.4810540501	 2.1315824682	 0.111342
H	-1.7771063594	-0.1817954218	 2.7903780121	 0.108638
H	-1.8349730951	 1.1815072107	 0.756452471	 0.127567
H	-2.4354055249	-0.2648472705	-0.0950326529	 0.11104
H	-3.3698526515	-3.5236085874	 2.3290597925	 0.107549
