17
gdb 24624	4.17173	1.37258	1.13482	4.2224	79.82	-0.2148	0.04	0.2548	1070.4043	0.138425	-380.853888	-380.846842	-380.845897	-380.885489	27.737	
C	 0.1133372596	 1.6050843776	 0.2376401551	-0.319804
C	 1.3136424845	 0.7396212821	-0.1109038121	-0.319814
C	-0.0315771923	 0.1255739975	 0.0967621781	 0.380932
C	-0.5049277913	-0.9446315507	 1.1241888146	-0.476139
C	-1.2715053505	-1.5318960099	-0.057041501	 0.280387
C	-2.0824076113	-2.3601419251	-0.7911023728	-0.222333
N	-2.1213681156	-1.8911613559	-2.0899688629	-0.267225
C	-1.359674367	-0.8112810151	-2.1487448851	-0.035882
N	-0.8274479594	-0.5688389479	-0.9196540685	-0.033736
H	 0.050317674	 2.0268386111	 1.2351312775	 0.128878
H	-0.3033511712	 2.2315640753	-0.5434312256	 0.131057
H	 1.696840346	 0.7893533222	-1.1242472964	 0.131056
H	 2.0694333949	 0.5709913485	 0.6488203801	 0.128878
H	 0.2939254978	-1.5685392698	 1.5332856216	 0.128904
H	-1.1146715307	-0.5527660934	 1.9423813931	 0.128909
H	-2.6318529376	-3.2400622755	-0.4974181254	 0.106885
H	-1.1801460198	-0.2093806512	-3.0251112904	 0.129047
