17
gdb 62282	3.26558	1.5394	1.33559	4.6068	75.46	-0.2524	0.0291	0.2815	982.9602	0.137497	-380.823994	-380.816548	-380.815603	-380.855533	29.877	
N	-0.0459007736	 1.4735704061	 0.0439849201	-0.577184
C	-0.0293032027	 0.031062993	-0.067787586	 0.16115
C	 0.8209619069	-0.5134591212	 0.9998387721	 0.277693
N	 1.5186026119	-0.9389395497	 1.8171061283	-0.343082
C	-1.3761750869	-0.6925220187	-0.1133707659	-0.07859
C	-1.8024327736	-0.7889519419	-1.5873933363	-0.094672
C	-0.7072073111	-0.1487513333	-2.4387830377	-0.258609
C	 0.2871388816	-0.7514000253	-1.417473424	-0.100099
C	-0.831205365	-1.7840128929	-1.002341481	-0.066041
H	 0.8863111877	 1.8673475399	-0.0349096188	 0.239013
H	-0.6284325428	 1.8796930423	-0.6788360358	 0.240159
H	-2.0903021704	-0.7770631486	 0.6946441757	 0.107068
H	-2.8433772656	-0.9464394457	-1.8381349173	 0.099188
H	-0.6213297784	-0.6496730149	-3.4063423885	 0.112238
H	-0.6968887918	 0.9367941357	-2.595166488	 0.083224
H	 1.3181702035	-0.9750992804	-1.6800376391	 0.0903
H	-0.8478180897	-2.8576221345	-0.899647088	 0.108245
