18
gdb 111660	2.32786	1.64279	1.26814	3.6449	71.82	-0.2479	-0.0039	0.244	1062.0836	0.14849	-439.096975	-439.088924	-439.08798	-439.129894	30.254	
C	-0.0528633876	 1.4144388847	 0.4639697076	-0.37879
C	 0.0246731494	 0.1029651748	-0.3131315847	-0.146932
N	-1.2455607445	-0.6215725928	-0.1987776985	-0.08565
C	-1.3459384013	-2.0548097079	-0.3505980178	-0.059129
C	-0.0875630977	-2.8931035013	-0.1947862867	-0.11876
O	 0.4539931126	-2.5844781146	 1.1000138844	-0.223371
C	-0.4309129487	-1.8601076376	 1.8534555958	 0.441768
O	-0.2471665673	-1.6377140902	 3.0146318447	-0.34052
C	-1.5777366146	-1.420803819	 0.9841136858	-0.190098
H	 0.8632955617	 1.9949418778	 0.3222135853	 0.1185
H	-0.9031298405	 2.0136426521	 0.1268734103	 0.127614
H	-0.1691405507	 1.2242381851	 1.5354294815	 0.139145
H	 0.1657169695	 0.3033427461	-1.3814764335	 0.108222
H	 0.8945606373	-0.4772995697	 0.0258185866	 0.115553
H	-2.1458621899	-2.4287181859	-0.9825564098	 0.112117
H	-0.3241062119	-3.961905791	-0.2326735483	 0.129474
H	 0.6815960492	-2.6777670212	-0.9429175339	 0.129725
H	-2.5367197852	-1.2444069894	 1.4570564713	 0.121132
