19
gdb 71072	3.37126	1.56959	1.2632	1.7195	81.63	-0.2204	-0.003	0.2173	1021.9339	0.160686	-385.825952	-385.818672	-385.817728	-385.856996	30.611	
O	-0.347987562	 1.3315849007	-0.2081863932	-0.455221
C	 0.023444475	 0.0018744075	-0.094150541	 0.365708
C	 0.7708712601	-0.7485377204	-1.2433866092	-0.348328
C	 0.1101319336	-1.9810987412	-0.6481867911	 0.16592
C	 0.7433425844	-2.9891044998	-0.0409792322	-0.13083
C	 0.4153491203	-3.1829619992	 1.4156989772	-0.240257
C	 0.7057936415	-1.7649475346	 2.0323449119	-0.230207
C	-0.1181315371	-0.699348383	 1.2930422561	-0.070304
C	-0.9248500696	-1.1487103748	 0.0993681146	-0.217
H	 0.3706894944	 1.8749819923	 0.1332170754	 0.285399
H	 0.3439616334	-0.3912122532	-2.1870481375	 0.112716
H	 1.8649906048	-0.7306720216	-1.2941670717	 0.08929
H	 1.7024607188	-3.3440598257	-0.412150542	 0.086985
H	-0.6354258186	-3.4337826809	 1.5914961114	 0.113677
H	 1.0257796587	-3.9548343553	 1.8913847875	 0.095027
H	 0.4338569869	-1.7475673218	 3.0950705683	 0.093703
H	 1.7834021716	-1.5733351105	 1.982974674	 0.099963
H	-0.6554177903	-0.013270128	 1.9462548753	 0.087699
H	-2.004241896	-1.1949267807	 0.0339283561	 0.09606
