17
gdb 83058	2.68656	1.5055	1.24706	5.1846	78.56	-0.2421	-0.0153	0.2269	1056.0476	0.136672	-380.86505	-380.857174	-380.85623	-380.897176	30.361	
C	-0.1755698326	 1.5639645622	 0.0339062984	-0.431121
C	 0.0061732262	 0.0673594396	 0.073997033	-0.014009
N	 1.2435887361	-0.6307742863	-0.2866589346	-0.146074
C	 2.4821459662	 0.185807385	-0.298164956	-0.219196
C	 2.7256298569	 0.6068218986	 1.1323611077	-0.085634
C	 1.7830293708	 0.1171577543	 1.9357855837	-0.138443
C	 0.7912220476	-0.6649735339	 1.1392825634	 0.136328
C	 0.2904936035	-1.9069720577	 1.6791834658	 0.223254
N	-0.1320380163	-2.8793522599	 2.1406115043	-0.340416
H	 0.6172241828	 2.1052402823	 0.5524547925	 0.132877
H	-0.2058477956	 1.9062844468	-1.0066781408	 0.134237
H	-1.1314756391	 1.8299392736	 0.4952980901	 0.135802
H	-0.8583401088	-0.4810445345	-0.2971747724	 0.115531
H	 3.303358001	-0.4237273292	-0.6943440147	 0.131284
H	 2.3654122859	 1.04077358	-0.9767692312	 0.124279
H	 3.5498202809	 1.2428087427	 1.4331912205	 0.116473
H	 1.7060320444	 0.2376817464	 3.0079689204	 0.12483
