14
gdb 57173	2.33523	1.39911	1.00234	5.9137	66.01	-0.2646	-0.0746	0.19	1144.0214	0.09774	-473.824074	-473.81471	-473.813766	-473.858769	33.401	
N	-0.0660564779	 1.27726612	-0.0991526082	-0.513968
C	 0.0049460714	-0.0704157948	-0.0395127623	 0.377573
O	 1.0421120746	-0.7063269401	-0.0731085277	-0.361162
C	-1.3375384758	-0.8468169964	 0.0609890959	-0.082459
O	-1.0866818284	-2.1983672847	-0.0859034041	-0.399558
C	-2.0128857739	-0.5423540082	 1.41932448	 0.228568
O	-1.9578502653	-1.2941190276	 2.3589364241	-0.254387
C	-2.7370762531	 0.7233760145	 1.4805924098	 0.249983
C	-3.3525268846	 1.7590667354	 1.5045744741	-0.430613
H	 0.7940994334	 1.801799246	-0.08365661	 0.273227
H	-0.93737483	 1.7636281985	 0.0348714088	 0.269394
H	-2.0118425364	-0.4835222337	-0.7295922291	 0.116465
H	-0.118903116	-2.284913195	-0.0230517116	 0.302457
H	-3.907856848	 2.6649043762	 1.5563951504	 0.224479
