14
gdb 19118	3.56043	3.53728	3.53675	0.	61.41	-0.1994	0.0241	0.2235	545.8545	0.110756	-341.426123	-341.421836	-341.420892	-341.4542	18.796	
C	-0.0270750484	 1.5367034767	 0.0413606347	-0.014181
C	-0.0747608001	 1.5221431186	-1.505655792	-0.013894
C	 1.472359228	 1.5650329911	-1.5108240345	-0.013831
C	 1.4723166222	 0.017511712	-1.5396260861	-0.014181
C	 1.5200044787	 0.0320767252	 0.0073906203	-0.013895
C	-0.0271151981	-0.0108169771	 0.0125613716	-0.013831
N	-0.0634794424	-0.0137702728	-1.523047785	-0.190818
N	 1.5087172634	 1.5679883922	 0.0247821073	-0.190816
H	-0.563215304	 2.196098877	 0.7239833263	 0.077614
H	-0.7637768499	 2.054328223	-2.1616316811	 0.077562
H	 2.1236570519	 2.2470787529	-2.0575235677	 0.077547
H	 2.0084505925	-0.6418796474	-2.2222572433	 0.077614
H	 2.2090243819	-0.5001008889	 0.6633685804	 0.077562
H	-0.6784043056	-0.6928780224	 0.5592517993	 0.077548
