20
gdb 87753	4.38952	0.86135	0.81571	4.4279	82.97	-0.2382	0.0271	0.2653	1466.8143	0.170284	-403.146208	-403.136968	-403.136024	-403.181411	33.458	
C	 0.0699149334	 1.5395138051	-0.2501410217	-0.407924
C	 0.0761239324	 0.0351504359	-0.0941312996	-0.050081
C	 1.3834020603	-0.7290459581	-0.058260446	-0.350756
C	 0.5441176596	-0.608254769	 1.1771748268	 0.322462
C	 0.9151842223	 0.0841022098	 2.5029587713	-0.253909
N	 0.2567132021	-1.034595834	 3.1876734245	-0.045811
C	-0.1333876804	-1.7428951334	 1.9660809147	-0.241648
C	-0.078336737	-1.2713603012	 4.4727421162	 0.135711
O	-0.730365191	-2.224091372	 4.8507464049	-0.334485
H	 0.9212298839	 1.9947553777	 0.2670101547	 0.116703
H	 0.1349408354	 1.8252880811	-1.3052959839	 0.12453
H	-0.8444578895	 1.982745789	 0.1597373485	 0.122154
H	-0.7486677875	-0.4740114176	-0.5884631902	 0.090877
H	 1.4370894611	-1.6964453406	-0.5476889023	 0.117781
H	 2.3048628221	-0.1550177022	-0.103614013	 0.113872
H	 1.9889045935	 0.1665317119	 2.7104835301	 0.115472
H	 0.4409963001	 1.0580052342	 2.676804816	 0.116038
H	-1.2185163903	-1.8363575638	 1.8432693439	 0.122324
H	 0.3226005134	-2.7346487547	 1.8691153218	 0.121599
H	 0.319358576	-0.490207098	 5.1541541432	 0.065093
