18
gdb 66998	2.53093	2.02039	1.39517	3.7392	75.13	-0.2334	0.0256	0.259	959.0066	0.149767	-401.966911	-401.959603	-401.958658	-401.99829	29.502	
C	-0.0312129343	 1.4790246393	 0.0287484223	-0.490673
C	-0.0491059403	-0.0270799103	 0.0503097766	 0.21606
C	-0.4744113254	-0.773267907	-1.2364802721	-0.100124
C	-0.1913371644	-2.2718009153	-1.1779422313	-0.250001
C	-0.706423869	-2.2434471482	 0.3035115299	-0.043102
N	 0.3837476764	-1.9713442162	 1.2313986278	-0.311041
C	 0.9386849081	-0.7320935242	 0.9488979469	 0.356684
O	 1.9920509861	-0.3031544245	 1.36555989	-0.382473
C	-1.3145837685	-0.8380690862	 0.0195669066	-0.110872
H	 0.9638601693	 1.837898008	-0.2494595917	 0.142843
H	-0.7575692253	 1.8772384895	-0.686039802	 0.112458
H	-0.26452838	 1.8891978062	 1.0164151696	 0.130049
H	-0.6418567595	-0.1866797333	-2.1318648492	 0.094682
H	-0.87998907	-2.818464054	-1.8284220045	 0.108075
H	 0.8309909784	-2.6318436048	-1.33672887	 0.098476
H	-1.3510796613	-3.0526490967	 0.640960852	 0.088838
H	 1.0152252414	-2.7089374286	 1.5117308145	 0.24429
H	-2.3067217515	-0.4729821838	 0.2503113846	 0.095833
