12
gdb 3430	4.93307	3.20493	2.22554	4.9285	49.68	-0.2778	0.0127	0.2905	575.5021	0.092135	-360.525379	-360.520058	-360.519113	-360.55451	19.713	
O	-0.008665216	-0.0047418376	 0.0275962024	-0.332907
C	 0.0140674896	 1.1848653392	 0.0312996726	 0.454695
O	-1.1138626304	 1.9503335995	 0.1663285115	-0.229427
C	-0.8086390465	 3.3427851516	 0.0516622017	-0.107125
C	 0.710017497	 3.3972539944	 0.0305561312	-0.032695
C	 1.4359504803	 2.7658702445	 1.1515998704	-0.252183
N	 1.1812735143	 2.0090193065	-0.1067777862	-0.170378
H	-1.2325746721	 3.7261142603	-0.882445547	 0.131213
H	-1.2650754675	 3.8732619899	 0.8926597903	 0.131635
H	 1.1952340639	 4.1375030171	-0.5960328154	 0.120125
H	 2.4819290379	 2.9957932727	 1.322165939	 0.142403
H	 0.8744777795	 2.472525082	 2.0349403594	 0.144643
