24
gdb 120753	3.30717	0.80826	0.71859	1.2346	90.42	-0.208	0.0895	0.2975	1706.0494	0.216763	-368.367531	-368.357501	-368.356557	-368.403361	37.428	
C	-5.3630285971	-1.0108809428	-2.0504873905	-0.3808
C	-4.3971646874	-1.9464388074	-1.3187830622	-0.164714
C	-2.9273057557	-1.5315759585	-1.4733365183	-0.195827
C	-1.9911185939	-2.4423587524	-0.7051922809	 0.016469
C	-1.3817126032	-3.6414970472	-1.3492406991	-0.260947
N	-0.549534109	-2.507862536	-0.9602302791	-0.1076
C	 0.0554215068	-1.6482259154	-1.9491526527	 0.07281
C	 1.2908577459	-2.097998843	-2.6702615045	-0.279921
C	 0.0183442385	-1.8429582353	-3.4511746819	-0.278654
H	-6.4021737512	-1.3289694784	-1.9207661595	 0.111797
H	-5.2796510391	 0.015698211	-1.6765735423	 0.11417
H	-5.1537531502	-0.9874903761	-3.1258118337	 0.113657
H	-4.6540815839	-1.9766111271	-0.2517174928	 0.096577
H	-4.5223815447	-2.971832306	-1.6891792971	 0.098715
H	-2.6557410167	-1.5204943895	-2.534143713	 0.106327
H	-2.805863547	-0.5003018462	-1.1123338543	 0.095263
H	-2.2253129979	-2.5096993291	 0.3580368107	 0.083953
H	-1.2151859967	-4.5603999599	-0.7925630689	 0.111079
H	-1.6061678534	-3.7893555177	-2.4040905023	 0.106431
H	 0.0549846773	-0.6154559462	-1.6113530094	 0.09327
H	 2.1206721904	-1.4071968681	-2.7702916273	 0.111056
H	 1.5844303524	-3.1339104083	-2.5363169069	 0.117167
H	-0.4893314373	-2.7084427266	-3.8610706575	 0.111138
H	-0.0442103468	-0.9595956638	-4.0783927066	 0.108585
