16
gdb 32650	1.96947	1.87993	1.03642	5.7833	78.52	-0.2452	-0.0366	0.2086	1129.371	0.126197	-396.985752	-396.977557	-396.976612	-397.019344	29.488	
C	-0.0102948607	 1.5581307942	 0.0690254245	-0.37889
C	-0.0262821141	 0.0350730277	-0.0692135037	-0.175019
N	-1.3762527751	-0.5233645876	-0.0153798305	-0.036384
C	-2.0907234456	-0.8354651459	 1.1079571059	-0.113402
C	-3.3239080823	-1.2679006353	 0.6725717322	-0.098763
N	-3.3926713463	-1.2285310002	-0.6876182022	-0.298301
C	-2.2118299674	-0.7748013569	-1.0771209037	 0.24661
C	-1.8001949862	-0.5608070285	-2.4178575801	 0.240855
N	-1.4199140268	-0.3681683727	-3.4949324354	-0.354217
H	 1.0205480908	 1.9219401576	 0.0336337794	 0.133715
H	-0.5676004641	 2.0275708098	-0.745917459	 0.148786
H	-0.4539752036	 1.8721912186	 1.0180372772	 0.132095
H	 0.4154146946	-0.2680955973	-1.0216527899	 0.155606
H	 0.5563043419	-0.4363873636	 0.7271586157	 0.132064
H	-1.6644500604	-0.7306816348	 2.0925066202	 0.141247
H	-4.1562404245	-1.6091936652	 1.2686931793	 0.123998
