15
gdb 34887	2.31807	1.74776	1.20809	4.577	69.56	-0.2588	0.0206	0.2793	1014.865	0.112767	-416.740508	-416.73307	-416.732126	-416.772634	28.171	
N	-0.1894193693	-1.2088116145	-0.0335523654	-0.334151
C	-0.0959888136	-0.057325632	 0.003367966	 0.297668
C	 0.0284059156	 1.3909023237	 0.0295835561	-0.257195
C	-0.2451547638	 2.1316541578	 1.3583146952	-0.056692
N	 0.7906083404	 1.6881647277	 2.3072230287	-0.321502
C	 1.1026967655	 2.7675135071	 1.3340889184	-0.174605
C	 1.4544315481	 2.0330305159	 0.0547140459	 0.484068
C	 2.7237227979	 1.5675216003	-0.4856825938	-0.256849
O	 1.9821116129	 2.6555387041	-1.0857894829	-0.278253
H	-0.5335226163	 1.8343335422	-0.7974213127	 0.144044
H	-1.200291063	 2.5196782524	 1.6850114104	 0.118679
H	 0.5952672055	 2.1301746437	 3.2049572193	 0.24379
H	 1.4239698307	 3.7535069946	 1.6422360638	 0.120904
H	 3.6541915309	 1.8525337468	 0.0005404862	 0.129094
H	 2.7539014587	 0.6517603103	-1.0720693453	 0.140999
