14
gdb 132642	3.15466	1.38514	0.96314	1.5004	69.6	-0.2033	-0.0116	0.1917	1107.9444	0.102218	-478.045543	-478.03817	-478.037226	-478.0771	29.142	
N	-0.0795195126	 1.3515267531	 0.1309946095	-0.569535
C	-0.0226041988	-0.0201242013	 0.0361635069	 0.271984
N	-1.1699140502	-0.7021565387	-0.0230958058	-0.432692
C	-1.1218841816	-2.0318410449	-0.057893129	 0.431048
O	-2.3060216672	-2.6824420077	-0.1146535143	-0.423305
C	 0.0563279137	-2.7758631319	-0.0453269674	-0.235131
C	 1.2525420801	-2.0635406834	 0.0039885584	-0.183226
C	 1.2094871756	-0.6870961635	 0.0460777262	 0.195876
F	 2.3355521492	 0.0534805103	 0.0856845712	-0.097779
H	 0.7531135309	 1.8491620834	-0.1415014787	 0.261029
H	-0.9492084407	 1.7598583499	-0.1744691169	 0.257697
H	-2.9870678156	-1.9967124806	-0.1092572072	 0.295198
H	 0.0268431546	-3.856168887	-0.079030766	 0.109777
H	 2.2131943825	-2.5661057776	 0.0096554829	 0.119061
