17
gdb 71422	4.9276	1.15395	1.07007	1.5326	78.42	-0.2291	0.0492	0.2783	1145.8577	0.134332	-384.590931	-384.583055	-384.582111	-384.623021	30.983	
C	-0.1117846193	 1.4295116111	-0.0489436172	-0.506535
C	 0.01524258	-0.0534245774	 0.0110982312	 0.448393
O	-1.1288097828	-0.8663141491	-0.2927831935	-0.317486
C	-0.3868069143	-1.9800582961	 0.2579575751	 0.066273
C	 0.5923028608	-1.0066778204	 1.0039807777	-0.192625
C	 1.2646577031	-0.8779381205	-0.362106958	-0.145683
C	 0.7178929214	-2.238821348	-0.8264920442	-0.21774
C	 1.5866327472	-3.3594241233	-0.524975641	 0.324048
C	 2.2926105957	-4.2982256698	-0.2667353311	-0.45564
H	 0.8258364547	 1.9022180928	 0.2579380707	 0.129167
H	-0.3418127654	 1.7573325409	-1.0681544817	 0.136077
H	-0.9092927918	 1.7787387016	 0.6139986009	 0.134915
H	-1.0026657289	-2.7808913406	 0.6595244402	 0.098537
H	 0.9550426936	-0.9191833751	 2.0181087427	 0.103018
H	 2.2213339786	-0.4318121775	-0.6014769876	 0.099528
H	 0.3296541264	-2.2988274856	-1.8494221954	 0.102096
H	 2.918932771	-5.126894493	-0.047075129	 0.193658
