16
gdb 10133	3.38924	1.27594	0.94328	3.3319	70.47	-0.2765	-0.0462	0.2303	1219.2417	0.128567	-379.935544	-379.926391	-379.925447	-379.969829	31.032	
C	 0.0598466584	 1.5005203175	-0.0913267223	-0.39288
C	 0.0384716543	-0.0108710188	 0.0235257159	-0.042843
O	 0.6447880479	-0.5407141615	-1.1724632271	-0.25024
C	 0.7192409359	-1.8767952824	-1.2590112904	 0.343958
N	 0.2970540941	-2.6695421376	-0.3707808142	-0.303249
C	 0.4084213892	-4.1052113845	-0.526575792	-0.34281
C	 1.3507479065	-2.269221317	-2.5119221532	 0.253032
N	 1.8444844696	-2.641382612	-3.4884222724	-0.331344
H	 1.0846505374	 1.8714423169	-0.1781546852	 0.135208
H	-0.5036947424	 1.8339593123	-0.966875392	 0.135208
H	-0.393543922	 1.9425123372	 0.8007155102	 0.126348
H	 0.6006068711	-0.3695361915	 0.8919866377	 0.125412
H	-0.9788838292	-0.4067931619	 0.1077539573	 0.125411
H	 0.9826641025	-4.5086325355	 0.3144295204	 0.140754
H	-0.5926871935	-4.5458843875	-0.4683495991	 0.140755
H	 0.8814167503	-4.4271279738	-1.4631904736	 0.137279
