23
gdb 109915	2.16284	1.43045	1.07565	1.6876	86.36	-0.2505	0.0116	0.2621	1258.2326	0.205688	-388.306987	-388.297197	-388.296253	-388.341321	37.411	
C	-0.0156220066	 1.6325088472	-0.0882789673	-0.392031
C	 0.0398134367	 0.1047983235	 0.0210309513	-0.177392
C	-1.342834791	-0.5428717012	 0.1286144182	-0.018698
C	-1.3939520726	-2.105208082	 0.0793303142	-0.062525
C	-0.1467824121	-2.846296804	 0.5959633312	-0.388589
C	-2.6084304718	-2.409900854	 0.9274651008	-0.058768
C	-3.0349155106	-1.3554474859	 1.6223499865	-0.121657
C	-2.1605704241	-0.1461772083	 1.3973328596	 0.085364
O	-1.3741750363	 0.1598054533	 2.5545372977	-0.433876
H	 0.9861077791	 2.0533065825	-0.2206494217	 0.106244
H	-0.6241194683	 1.9489743364	-0.9434860227	 0.106079
H	-0.4449062068	 2.0714106741	 0.8164826905	 0.13561
H	 0.5552266175	-0.3053126393	-0.857048258	 0.087116
H	 0.6443476708	-0.1669940937	 0.8923916984	 0.095636
H	-1.9429234527	-0.1948382803	-0.7226572341	 0.074053
H	-1.5579001718	-2.432162911	-0.9560013447	 0.076066
H	 0.095105225	-2.5586513398	 1.6247482463	 0.104875
H	-0.3132537599	-3.9288158427	 0.5894292391	 0.11156
H	 0.7294638973	-2.6407650576	-0.025775975	 0.120242
H	-3.0416774162	-3.4047808894	 0.9722967512	 0.093948
H	-3.8596310166	-1.347751155	 2.3265505944	 0.095501
H	-2.7339609655	 0.7693992879	 1.2212629691	 0.085293
H	-1.0431040435	-0.6734832506	 2.9064410351	 0.275949
