16
gdb 88224	3.86578	0.75651	0.67718	4.4932	78.66	-0.2479	-0.0245	0.2234	1623.6351	0.121987	-437.868853	-437.858793	-437.857849	-437.906092	34.382	
N	 0.0286578434	 1.1910701439	 0.322102529	-0.522274
C	 0.0271922115	-0.132440098	-0.0090132603	 0.263145
O	 1.0363491991	-0.7599397606	-0.2721011102	-0.3389
C	-1.292276217	-0.7417926966	-0.0276567122	 0.097456
C	-2.3569069748	-1.3137641933	-0.0735313822	-0.008077
C	-3.5540717395	-2.0860350285	-0.1106217984	-0.247672
C	-3.7856447452	-3.0273701471	-1.3058230356	-0.319102
C	-3.3978995179	-3.6056681052	 0.0161077797	 0.160942
O	-2.1566375645	-4.1779347128	 0.2332057225	-0.421477
H	 0.9141212198	 1.6658847783	 0.3843817876	 0.267373
H	-0.8156424379	 1.6764005451	 0.568966195	 0.266765
H	-4.4320647411	-1.6357528291	 0.3409537362	 0.119928
H	-4.8074801863	-3.1333177103	-1.6529673932	 0.125495
H	-3.0306164813	-3.0118280845	-2.0832849465	 0.139363
H	-4.1671088021	-4.1118891449	 0.5913232507	 0.115667
H	-1.4752458061	-3.4992418764	 0.1348870678	 0.301368
