16
gdb 18767	3.88874	2.30996	1.75113	1.7335	63.81	-0.2415	0.057	0.2985	761.6153	0.131649	-383.670806	-383.664626	-383.663682	-383.700971	24.47	
C	 0.001563063	 1.4873267973	 0.0039033947	-0.107217
O	 1.4612534732	 1.5340730039	-0.0183305559	-0.322069
C	 1.5118742509	 0.1359486347	 0.140805087	 0.418713
C	 2.5679736673	-0.8587516804	-0.2905630138	-0.171446
O	 2.1948652431	-1.7067780161	 0.8318082614	-0.295102
C	 1.4357939333	-0.6513346471	 1.481244676	 0.047081
C	-0.0966119839	-0.8150081776	 1.3289004002	-0.261381
C	-0.0115370084	-0.0642531336	-0.0314834937	-0.131944
H	-0.4030452867	 1.9433784039	 0.9154497956	 0.107649
H	-0.416743512	 1.989611477	-0.8735046195	 0.115421
H	 2.4447455881	-1.3614612934	-1.2562772472	 0.108385
H	 3.5989297476	-0.4907955586	-0.193540967	 0.110678
H	 1.8724032193	-0.3494658158	 2.4371215572	 0.078738
H	-0.4115411525	-1.8583518236	 1.2576566337	 0.118038
H	-0.6921465305	-0.3121000427	 2.0971780657	 0.10235
H	-0.4592377117	-0.514273298	-0.9173512444	 0.082107
