15
gdb 25625	3.62097	0.98099	0.77618	2.0231	84.76	-0.1914	-0.0111	0.1803	1423.2695	0.112929	-416.822759	-416.813964	-416.81302	-416.857973	30.936	
C	-0.129901203	 1.4789405345	 0.0000233762	-0.512766
C	-0.0478393483	 0.0280742384	-0.0216680066	 0.263672
C	 0.0089072226	-1.1796931777	-0.0479795676	-0.159915
C	 0.1206124294	-2.5706960623	-0.0713193601	 0.157784
C	 1.1885164682	-3.4346623523	-0.0183903418	 0.152683
N	 2.5376536246	-3.1561268341	 0.016328301	-0.603579
N	 0.7344782148	-4.7387640805	-0.0688111304	-0.292768
C	-0.5549566903	-4.6211092567	-0.1534747233	 0.055726
O	-1.0200234908	-3.3683484051	-0.1642542284	-0.181051
H	 0.5439883153	 1.9305366005	-0.7371391849	 0.150936
H	-1.1468286085	 1.8093431722	-0.2393279471	 0.15717
H	 0.1269538197	 1.8886983672	 0.9839581395	 0.148095
H	 2.7709852512	-2.2487988054	 0.3927970744	 0.256648
H	 3.0880776315	-3.9024456793	 0.4161580276	 0.259179
H	-1.2838901667	-5.4146033896	-0.2135411985	 0.148185
