16
gdb 53070	6.27577	0.71928	0.65053	3.2793	88.53	-0.2008	-0.0215	0.1793	1667.0383	0.123715	-400.782782	-400.773773	-400.772829	-400.818524	31.731	
C	-0.0682427844	 1.4620932021	 0.016022233	-0.507904
C	 0.0028345334	 0.0096117642	 0.0157221746	 0.195515
C	 0.0741969608	-1.1967644011	 0.0172039697	-0.119626
C	 0.0921824396	-2.6033881518	 0.0099108834	 0.127235
C	 1.1585751957	-3.417727798	 0.15187264	-0.117765
N	 0.7879580222	-4.7609826675	 0.0912257302	-0.318428
C	-0.5787922123	-4.9139717991	-0.099037004	 0.419739
O	-1.1676893237	-5.9642266351	-0.1878579714	-0.363571
C	-1.133133949	-3.483363098	-0.1658300782	-0.470667
H	 0.5365126995	 1.8939401415	-0.7899074675	 0.149207
H	-1.098906535	 1.8062952431	-0.1243624603	 0.150767
H	 0.2938044947	 1.8816934562	 0.9618568218	 0.149208
H	 2.1941220017	-3.1480974933	 0.2971005002	 0.134169
H	 1.4133033996	-5.5454412654	 0.1723417696	 0.26458
H	-1.8823982222	-3.3387139049	 0.6195003576	 0.153771
H	-1.6411655504	-3.3265983228	-1.1231140187	 0.153771
