13
gdb 3583	4.86501	3.09929	2.58698	2.9896	51.91	-0.2391	0.0459	0.285	557.4682	0.101941	-344.359905	-344.354583	-344.353639	-344.388625	21.65	
O	 0.1132204134	 1.4194243142	-0.0575070296	-0.426504
C	-0.0593282446	 0.0490084333	 0.0340187768	 0.153216
C	-0.4323256091	-0.7671525917	 1.2469922635	-0.174621
C	-1.6163798509	-0.1721806516	 2.0574125269	 0.027873
O	-2.0217699299	 1.0917389968	 1.4826445417	-0.270996
C	-2.471241493	-0.1432263689	 0.8784658395	 0.027863
C	-1.34681678	-0.7362302446	-0.0141546849	-0.174617
H	-0.5991348658	 1.8079633052	 0.468563925	 0.2957
H	 0.7191840989	-0.4474245719	-0.5426793183	 0.112707
H	 0.1675717088	-1.5873688746	 1.6217283021	 0.096919
H	-1.8338317848	-0.3261418283	 3.1068418517	 0.11777
H	-3.5395394984	-0.2683727984	 0.7544901553	 0.11777
H	-1.5353662346	-1.5297886895	-0.7267362798	 0.096921
