15
gdb 68723	2.47593	1.66816	1.3363	5.0819	69.75	-0.2763	0.0014	0.2778	983.8314	0.112119	-416.745426	-416.737745	-416.736801	-416.777568	29.014	
C	-0.0260780696	 1.5269014074	 0.038529441	-0.481448
C	-0.0441154972	 0.0309271376	 0.0316056003	 0.232693
N	 1.1574827728	-0.7227845912	-0.3074397612	-0.376895
C	 0.5736174663	-0.9526177105	 1.0248537625	 0.127492
C	 1.3540834352	-0.6874837459	 2.1930063648	 0.246102
N	 1.9623877321	-0.4871860192	 3.155948595	-0.34556
C	-0.6873244088	-1.8076463022	 0.9444546803	-0.064976
O	-1.818434426	-1.0034339194	 1.2896352313	-0.219312
C	-1.2760914597	-0.8740292059	-0.02981865	-0.047448
H	 0.9464449229	 1.8940552598	 0.3735138852	 0.15408
H	-0.2092534786	 1.9176731083	-0.9683024462	 0.134097
H	-0.8025356442	 1.9115121636	 0.7053843899	 0.146917
H	 0.9800632876	-1.5121576638	-0.9264749069	 0.241786
H	-0.779739757	-2.8821357291	 1.0426591063	 0.128538
H	-1.935185576	-1.0687316695	-0.8675026824	 0.123935
