18
gdb 12066	3.96717	1.67264	1.49897	2.3566	66.98	-0.2392	0.0751	0.3143	905.952	0.152905	-384.896855	-384.889057	-384.888113	-384.928529	30.279	
C	-0.1213278611	 1.619133515	 0.1325239741	-0.441474
C	-0.038084166	 0.104974145	 0.1547011086	 0.381995
C	-1.3874266197	-0.5582467485	-0.1370834322	-0.085742
O	-1.8051014512	-0.2834733298	-1.4582358554	-0.422735
O	 0.9059359241	-0.4198418582	-0.8572250104	-0.345967
C	 1.5600284184	-1.1993035896	 0.1486316663	 0.105974
C	 2.2185615318	-0.3193178295	 1.1606100046	-0.312115
C	 0.7353886866	-0.6126903692	 1.2672260059	-0.176075
H	 0.8657910194	 2.0774031851	 0.2198905927	 0.118733
H	-0.5827527087	 1.9494814445	-0.8019168865	 0.138916
H	-0.7432421714	 1.9703584851	 0.962953934	 0.118345
H	-1.2995096697	-1.6410717446	 0.0423528254	 0.084098
H	-2.1595558515	-0.1657244271	 0.5341276947	 0.104305
H	-1.0609419497	-0.5402587168	-2.0182348972	 0.29152
H	 1.8510533627	-2.2128943849	-0.1004932934	 0.104822
H	 2.8257725632	-0.8327607564	 1.9001038047	 0.117191
H	 2.5846824308	 0.6597359076	 0.8676688375	 0.118903
H	 0.2852114519	-1.0804723878	 2.1330712967	 0.099305
