21
gdb 119741	3.39524	0.96332	0.86305	2.239	78.06	-0.2398	0.0653	0.3051	1400.1807	0.182233	-424.184703	-424.175586	-424.174642	-424.219144	33.802	
O	-0.1061118359	 1.4688620911	-0.1540018725	-0.417294
C	 0.0120893821	 0.0611118935	-0.0218163599	-0.072535
C	-1.3943964334	-0.5297389008	-0.0549717849	-0.304772
C	-1.4019905862	-2.0382992337	 0.0650566652	 0.316874
C	-0.9087879795	-2.8962038141	-1.1441024747	-0.289953
C	-2.2296158636	-3.7271644367	-1.1039890373	-0.230055
C	-2.6816187859	-2.9290701177	 0.1370321936	 0.059869
O	-2.2449022153	-3.5268474633	 1.3748626068	-0.293748
C	-1.0741507113	-2.681673235	 1.4294185323	-0.122407
H	 0.7767671774	 1.8493105623	-0.1337435764	 0.285889
H	 0.6163376906	-0.3669359423	-0.8380679035	 0.089841
H	 0.5081617791	-0.2096059596	 0.9250243247	 0.088014
H	-1.9779235791	-0.0835359743	 0.7598528533	 0.108285
H	-1.8746305055	-0.2222670305	-0.9921980491	 0.104961
H	-0.7876063727	-2.3157849386	-2.0625014373	 0.103071
H	 0.0143707148	-3.456086598	-0.9707675735	 0.099391
H	-2.8656563959	-3.5684726281	-1.9792292267	 0.101413
H	-2.1314856791	-4.8000482005	-0.9261342274	 0.110879
H	-3.7106351742	-2.5611079102	 0.1935660591	 0.071257
H	-0.1433447172	-3.2601086658	 1.4957361178	 0.095473
H	-1.1236376695	-1.9881324777	 2.2807341407	 0.095546
