22
gdb 112259	2.00752	1.26598	0.84534	3.8172	84.64	-0.2375	0.0385	0.276	1444.7844	0.193142	-404.387117	-404.376869	-404.375925	-404.423286	36.635	
C	 0.4131207308	-0.7314109168	-1.5096594935	-0.381289
C	-0.1280514426	-0.1317899084	-0.20797627	-0.197705
C	-1.5811972547	-0.5180859849	 0.0496930402	 0.054046
C	-1.872448036	-1.9864429982	 0.4870187193	-0.402317
C	-2.4964849275	-1.3627699118	 1.7534727817	 0.40714
O	-3.0857269351	-1.7579985051	 2.7267968409	-0.377935
N	-2.1527362516	-0.0966408341	 1.3430484128	-0.075966
C	-2.5474666749	 1.1906429719	 1.8737005031	-0.163505
C	-1.408697437	 1.9738343586	 2.5348894117	-0.375709
H	 1.4513571853	-0.4320578324	-1.6787116083	 0.119743
H	 0.3808614486	-1.8257995272	-1.4880128262	 0.123396
H	-0.1736441164	-0.3997889142	-2.3734574216	 0.118337
H	 0.4805907464	-0.4568615638	 0.6448901227	 0.102608
H	-0.0482813511	 0.9617182599	-0.2497347824	 0.101954
H	-2.2078117811	-0.1977096605	-0.795229478	 0.075803
H	-2.5773157697	-2.5415120005	-0.1342440755	 0.129097
H	-0.9877399389	-2.599332121	 0.6742171357	 0.126249
H	-2.9985712739	 1.7853290151	 1.0677790044	 0.105163
H	-3.3346038313	 0.9857572541	 2.6071249858	 0.13929
H	-1.7857629681	 2.9177768389	 2.9414629706	 0.117774
H	-0.9709053982	 1.3969361422	 3.3543432762	 0.133182
H	-0.6141361831	 2.2082687084	 1.8203669405	 0.120643
