15
gdb 67365	2.92674	1.92944	1.33905	2.6022	64.77	-0.2407	-0.0368	0.2039	906.8192	0.112384	-457.715945	-457.709152	-457.708208	-457.746947	27.367	
O	 0.0606237954	 1.4019311648	-0.0171735197	-0.480814
C	 0.0084963367	 0.0379774525	-0.0024272583	 0.348967
C	-0.0132960701	-0.8211864497	 1.3227697583	-0.011246
O	-1.4258334529	-0.5054665782	 1.5549831292	-0.311314
C	-1.3350241327	-0.7836342437	 0.1185788348	-0.011214
C	-0.4050204781	-2.0027510046	 0.3878168247	-0.054678
C	 0.6152819771	-2.1621806323	-0.7372140209	-0.375432
C	 0.8880619439	-0.6807879181	-0.9898922844	 0.337628
O	 1.6202860764	-0.133556495	-1.7773187824	-0.339528
H	 0.6991527502	 1.6337759444	-0.710468037	 0.298198
H	 0.6722187197	-0.7875547102	 2.16965506	 0.108239
H	-2.2401734425	-0.704813677	-0.4837241625	 0.108244
H	-0.8596266019	-2.8694238898	 0.8597201128	 0.102346
H	 1.5273727869	-2.6902240324	-0.4405262826	 0.140287
H	 0.2190616019	-2.6526790508	-1.6323077519	 0.140319
