16
gdb 11407	4.08283	1.57289	1.24576	2.3269	62.43	-0.2251	0.058	0.2831	976.2756	0.131562	-417.0787	-417.070888	-417.069944	-417.111031	28.445	
C	 0.0653632646	 1.4246761341	 0.0436339831	-0.243438
O	 0.0251075175	 0.0079189417	 0.0019030404	-0.225037
C	 0.5558387722	-0.5426022514	-1.1551125192	 0.185346
C	 0.5022345279	-2.0831318807	-1.0687855611	-0.199509
N	-0.579267112	-2.4822792151	-1.9686658495	-0.343667
C	-0.9155779994	-1.4231991031	-2.5904120083	 0.464203
N	-1.8286110211	-1.3161280016	-3.6045106957	-0.5804
O	-0.2771875736	-0.2484099671	-2.3001007777	-0.259136
H	 1.0942364502	 1.7969126202	-0.0715224928	 0.109989
H	-0.5591133718	 1.8678366562	-0.7408615355	 0.124533
H	-0.3150663582	 1.7249476835	 1.0219096744	 0.132122
H	 1.5407099308	-0.1101271071	-1.3755140083	 0.07691
H	 1.4527854008	-2.5365972914	-1.3746997462	 0.10733
H	 0.2995807099	-2.3840811929	-0.0366486492	 0.122068
H	-2.4523757024	-2.1055260464	-3.6718341374	 0.267707
H	-2.2773965052	-0.4166129288	-3.6839686468	 0.260979
