23
gdb 94582	3.17822	0.91379	0.77437	2.4661	86.02	-0.2407	-0.0075	0.2332	1564.4924	0.203639	-388.310155	-388.299806	-388.298862	-388.346611	37.569	
C	-0.1552927902	 1.5255826272	-0.0898776101	-0.391689
C	 0.0394049865	 0.0107910066	-0.0675514486	-0.016172
C	 1.2026589301	-0.4809852694	-0.9819726472	-0.222409
C	 2.110871281	-0.5957228614	 0.2713736138	-0.222154
C	 0.8338189309	-0.5660164737	 1.1534751969	 0.066458
C	 0.8570722265	 0.178417473	 2.47873268	-0.344652
C	 1.680296274	-0.520437621	 3.5568297054	 0.383526
C	 1.8553684491	 0.2369916558	 4.8628625209	-0.472521
O	 2.1652805543	-1.6160559385	 3.3873216779	-0.292247
H	 0.790345518	 2.0622646787	 0.047912897	 0.111157
H	-0.5703737172	 1.8414982617	-1.0531988104	 0.112792
H	-0.8449442995	 1.8597851042	 0.6930572859	 0.108804
H	-0.926310721	-0.4742871931	-0.2435627517	 0.061851
H	 0.9929503816	-1.4565605538	-1.4289289942	 0.099007
H	 1.5223747613	 0.2005933896	-1.7754023772	 0.089987
H	 2.7542237765	-1.4721803699	 0.3620274766	 0.109553
H	 2.7275872188	 0.2982559133	 0.4132795223	 0.089506
H	 0.5105049119	-1.5939326873	 1.3414881353	 0.08484
H	 1.240444011	 1.2013459967	 2.3638461604	 0.112225
H	-0.1610758494	 0.3011064552	 2.8793407829	 0.117967
H	 0.8855078115	 0.5498827974	 5.2648193222	 0.13396
H	 2.3744696175	-0.3894345216	 5.5892378704	 0.14126
H	 2.4359093067	 1.1506931502	 4.6900428515	 0.138956
