18
gdb 79604	2.20134	1.95035	1.51056	4.0222	74.95	-0.2408	-0.0103	0.2305	965.7751	0.148971	-401.931965	-401.924357	-401.923413	-401.964037	29.743	
C	-0.1201214573	 1.5644542767	 0.0543926076	-0.429468
C	-0.030601877	 0.05848545	-0.0841577726	-0.010903
C	 0.6239922215	-0.7624263944	-1.1564530869	-0.057859
C	 1.6614627451	-0.3213470517	-2.1747749357	-0.049384
C	 2.1965439459	 1.0807584045	-2.206071636	-0.306802
C	 2.8967317837	 0.0237789909	-1.3712310614	-0.138358
C	 2.4779058584	-0.0440841392	 0.0874421729	 0.370914
O	 3.1072471997	 0.3479224329	 1.033923472	-0.32826
N	 1.211520703	-0.7084920057	 0.1892090123	-0.136131
H	 0.8525630945	 2.0570076464	 0.0549322335	 0.14843
H	-0.7327276067	 1.9941287356	-0.7447750766	 0.13193
H	-0.5974057663	 1.8086154997	 1.0078576676	 0.135089
H	-0.8905039085	-0.4395658032	 0.3638411512	 0.105725
H	 0.136136242	-1.7035112273	-1.4029038599	 0.098174
H	 1.7190981964	-0.9159266127	-3.0781350192	 0.099429
H	 2.7202057631	 1.3717356969	-3.110553378	 0.125954
H	 1.6645967531	 1.8930754599	-1.7344001008	 0.127968
H	 3.9108389994	-0.2577512093	-1.6268729099	 0.113552
