21
gdb 68922	2.20627	1.86027	1.28335	0.4405	78.61	-0.2241	0.0791	0.3032	1078.9832	0.181523	-424.21185	-424.202965	-424.202021	-424.244724	34.834	
C	-0.1268181253	 1.5050529409	-0.0857023413	-0.45053
C	 0.0516517462	 0.0071739293	-0.0197663837	 0.339427
C	 1.4078636543	-0.650829802	-0.2395616135	-0.395143
C	 0.7428768989	-0.7068575805	 1.1228856954	 0.361136
C	 1.3495154616	 0.043946167	 2.2836180873	-0.441906
O	 0.2148568204	-1.915217957	 1.6194903003	-0.299614
C	-0.7705258549	-2.5512996156	 0.8227198609	-0.086543
C	-1.7316848858	-1.5311589678	 0.2402148417	-0.091522
O	-1.0370507974	-0.654393508	-0.6309346993	-0.295508
H	 0.7544347357	 2.0398815257	 0.2756111339	 0.114686
H	-0.3022205966	 1.8018506093	-1.1250644342	 0.128279
H	-0.9914417668	 1.8252792535	 0.5058802568	 0.118449
H	 1.400355664	-1.5438405712	-0.8542413176	 0.11663
H	 2.2884356633	-0.0261928033	-0.3507034473	 0.105331
H	 1.857071144	 0.9540840285	 1.9586549941	 0.116105
H	 0.5826084498	 0.311864304	 3.0172900142	 0.120607
H	 2.0844176549	-0.5962895866	 2.7822036203	 0.129174
H	-0.3074494642	-3.1243643607	 0.0042749423	 0.098237
H	-1.2890092639	-3.2543179955	 1.482416327	 0.108408
H	-2.5034173103	-2.0201293608	-0.3616304926	 0.108642
H	-2.2206118878	-0.9749301991	 1.0554309851	 0.095656
