10
gdb 130761	5.89436	1.09392	0.92268	2.5835	63.55	-0.2993	-0.1427	0.1566	1111.3952	0.053868	-467.590926	-467.584059	-467.583114	-467.62279	24.355	
O	 0.0425582373	 0.0345082935	 0.5213058513	-0.291967
C	 0.0361304161	 1.1433373581	 0.0788254626	 0.447341
O	-1.1771549311	 1.7344573923	-0.2639965678	-0.238064
N	-1.2608511248	 3.0043606591	-0.7774970397	-0.072057
C	-0.1405410892	 3.6377309147	-0.9308993185	 0.283339
N	 1.1397929569	 3.1874095292	-0.638241423	-0.229634
C	 1.211556516	 1.9997420562	-0.1585876015	-0.096324
C	-0.2486485709	 4.9661687479	-1.4697995908	 0.315622
N	-0.3118975927	 6.0358302655	-1.9016217964	-0.298444
H	 2.1811549523	 1.5769107834	 0.0956520539	 0.180189
