20
gdb 59887	3.39328	0.94924	0.87353	2.2601	77.46	-0.2545	0.0354	0.2899	1438.6495	0.169118	-440.305579	-440.295713	-440.294769	-440.34102	35.232	
C	 0.1299559011	 1.4856593064	-0.2989806696	-0.397333
C	 0.0320089498	-0.0203389335	-0.0798003324	 0.15822
C	-1.3959835667	-0.545379695	-0.1033929654	-0.393742
O	 0.7303778332	-0.7170735039	-1.1459359301	-0.265821
C	 2.0629943393	-0.8495596122	-1.0035292908	 0.46812
O	 2.7167351852	-0.4186999168	-0.0834221867	-0.396097
N	 2.5747563288	-1.6238648547	-2.0396192881	-0.117122
C	 2.4637044532	-1.2535684324	-3.4386390538	-0.222385
C	 3.7859236577	-1.2421917889	-2.731567031	-0.215921
H	 1.1731894345	 1.8070930676	-0.2705930343	 0.140269
H	-0.3058990921	 1.7637355751	-1.2642426316	 0.116654
H	-0.413944348	 2.0162507481	 0.4887506583	 0.118465
H	 0.5255925725	-0.2843164489	 0.8595656418	 0.111049
H	-1.8790235155	-0.3127618275	-1.0576411783	 0.12315
H	-1.4128236691	-1.629414383	 0.0359690138	 0.127052
H	-1.9788147245	-0.0833745401	 0.698911527	 0.119421
H	 2.2126343866	-2.0600071067	-4.1214853903	 0.12813
H	 2.0059743352	-0.2957774775	-3.6703672967	 0.132103
H	 4.2201950858	-0.2791477774	-2.4775490322	 0.137595
H	 4.5012612031	-2.0411836488	-2.9020187595	 0.128192
