18
gdb 68757	2.51659	1.71296	1.24293	3.4655	72.4	-0.2419	0.0211	0.2631	1038.7941	0.147788	-439.121895	-439.113341	-439.112397	-439.154572	32.863	
C	-0.0126169215	 1.5330507624	 0.0019075898	-0.485456
C	-0.0165318387	 0.0268474607	 0.0455755013	 0.244077
C	 1.2308812469	-0.7623507859	-0.303966906	-0.387885
C	 0.6962795218	-0.778981578	 1.1098347104	 0.309648
O	 1.4159750224	-0.2529350345	 2.1655321967	-0.478878
C	-0.2024000703	-1.9321029253	 1.4548003468	 0.363132
O	-0.0369316778	-2.6726024593	 2.4053110204	-0.405081
N	-1.2195986682	-1.9423589998	 0.5450269904	-0.332515
C	-1.3266725232	-0.7158235483	-0.241189161	-0.229333
H	 0.9431883071	 1.9247722856	 0.3596715186	 0.139466
H	-0.1714602622	 1.9043363534	-1.0170404931	 0.120207
H	-0.8007172062	 1.9487388241	 0.6393553443	 0.122431
H	 1.1604818085	-1.6515062521	-0.9241958854	 0.115604
H	 2.1365165353	-0.1784037001	-0.4329045793	 0.125211
H	 1.3971222606	-0.9428609722	 2.8464926233	 0.296796
H	-1.9746294389	-2.6038267533	 0.6308354608	 0.255244
H	-2.1896004746	-0.1164453425	 0.0803475716	 0.111908
H	-1.447919381	-0.9380458449	-1.3086189494	 0.115425
