18
gdb 45548	3.13749	1.46964	1.26648	3.0364	71.48	-0.2595	0.0271	0.2866	1036.4222	0.15102	-439.124094	-439.116805	-439.115861	-439.156862	28.023	
N	 0.2418353302	 0.8617563331	-0.8076250212	-0.536253
C	 0.0861261538	-0.1707987078	-0.0991101761	 0.396586
C	-1.2203284304	-0.9048834107	 0.1107767148	-0.3162
C	-0.821268192	-2.2426623608	 0.7488355628	-0.086547
C	-0.6836746384	-3.4478673087	-0.2159190943	-0.234942
C	 0.8302601814	-3.5473202436	-0.4528728867	-0.097912
O	 1.4135689011	-3.0787186626	 0.7666148564	-0.230456
C	 0.6450220439	-2.015311175	 1.2206510485	 0.205716
O	 1.0759731374	-0.7806028855	 0.6182728856	-0.249215
H	 1.2129004084	 1.1766359377	-0.7726830809	 0.22293
H	-1.8480129501	-0.3127658271	 0.7843319708	 0.137303
H	-1.7641131095	-1.0014290021	-0.8303650683	 0.137498
H	-1.4669280424	-2.4936354646	 1.5905935047	 0.091644
H	-1.0467274886	-4.3588550184	 0.2667398233	 0.115717
H	-1.2459594758	-3.3110557347	-1.1424317599	 0.112498
H	 1.1910364448	-4.5640296219	-0.6197462818	 0.117921
H	 1.1520539349	-2.9195047017	-1.2947027386	 0.114884
H	 0.8070635216	-1.9253107356	 2.296658321	 0.098829
