25
gdb 113195	3.07898	0.89164	0.85097	1.2243	89.6	-0.2496	0.0672	0.3168	1573.682	0.226073	-389.491753	-389.480505	-389.479561	-389.527777	42.028	
C	-0.0014362891	 1.4809178225	-0.5387672712	-0.372283
C	-0.073741086	 0.168244275	 0.2495414984	-0.197281
C	-1.4264589634	-0.505086596	 0.1423183916	-0.031926
C	-1.7695020644	-1.3594299131	-1.069624835	-0.371404
C	-1.5936783289	-1.991049486	 0.2915661968	 0.397079
O	-0.3993530162	-2.7024586472	 0.5214019169	-0.474739
C	-2.8045841642	-2.5440864779	 1.0360015949	 0.000657
C	-3.1374922259	-3.9713501404	 0.5750470575	-0.411267
C	-2.5855844259	-2.4842935967	 2.554114594	-0.388922
H	 0.9842185144	 1.9471079944	-0.441464676	 0.108282
H	-0.1908702249	 1.3117999185	-1.6041716344	 0.114379
H	-0.7465961531	 2.2009902019	-0.1822109047	 0.109519
H	 0.6981500084	-0.5250853157	-0.0973273344	 0.108158
H	 0.1486523107	 0.3631437112	 1.3067362859	 0.095844
H	-2.250920842	 0.0861611346	 0.5373721501	 0.07824
H	-2.7638549541	-1.2973076387	-1.5002021694	 0.104106
H	-0.9726824736	-1.5227143112	-1.78908289	 0.106003
H	-0.4316092088	-3.5090819668	-0.0032067556	 0.28293
H	-3.6560785312	-1.8995217889	 0.7799369642	 0.067724
H	-2.3274619445	-4.6645757131	 0.8302858985	 0.10972
H	-4.0440163464	-4.3402285515	 1.0646885948	 0.11366
H	-3.2972222535	-4.0158047942	-0.5076993922	 0.110933
H	-3.4468874807	-2.8902505504	 3.0944417931	 0.102762
H	-1.7003359696	-3.0638626593	 2.8323621369	 0.126325
H	-2.4290658071	-1.4542940612	 2.8899228392	 0.111499
