14
gdb 132564	3.107	1.41378	0.9775	2.231	68.57	-0.2382	-0.0507	0.1875	1107.1278	0.100736	-478.039875	-478.032207	-478.031263	-478.072546	28.334	
C	 0.002651875	 1.4937785108	-0.050572632	-0.484699
C	 0.0251646391	-0.0061164074	-0.0231144045	 0.180274
N	 0.0461320149	-0.6867309984	-1.1728361429	-0.385159
C	 0.0657934885	-2.0140831991	-1.1142070863	 0.399704
O	 0.0868877414	-2.7059358022	-2.2710019079	-0.417367
C	 0.0650844354	-2.7038981487	 0.1013313198	-0.095765
N	 0.0442581229	-2.033663748	 1.2518286698	-0.277848
C	 0.0250043266	-0.7252191156	 1.1757837701	 0.279155
F	 0.0042812712	-0.0472032884	 2.3248070233	-0.068878
H	 0.8699618077	 1.908166415	 0.474124629	 0.146632
H	 0.0079658402	 1.842396627	-1.0838122756	 0.141025
H	-0.887536175	 1.8814276133	 0.4559575468	 0.146637
H	 0.0834668675	-2.0516476612	-2.9830934001	 0.302623
H	 0.0812393249	-3.7878430372	 0.1336012505	 0.133666
