15
gdb 127357	3.383	1.74257	1.15853	1.6844	73.86	-0.2112	-0.0007	0.2104	992.8185	0.116825	-413.01308	-413.005994	-413.00505	-413.044834	26.584	
C	 0.0116437741	 1.4386058242	 0.0715058167	-0.340967
N	-0.0117700335	-0.0066816258	 0.0419038547	-0.14193
C	-0.1053954984	-0.8310448347	-1.0728640012	-0.009015
N	-0.1064170029	-2.1168995579	-0.8298312101	-0.370726
C	-0.0060844896	-2.1764114375	 0.5527384387	 0.22198
C	 0.0625081408	-3.0090128319	 1.6568372463	-0.179107
N	 0.1530656063	-2.1636425616	 2.7252627487	-0.185306
N	 0.1506136094	-0.8310398559	 2.4254772912	-0.381432
C	 0.0532292741	-0.8787252787	 1.1045341577	 0.406964
H	 0.9406264968	 1.8045798218	 0.5203979086	 0.148653
H	-0.0575713817	 1.8159215723	-0.9508604112	 0.140052
H	-0.831065947	 1.8306330553	 0.6499579397	 0.14865
H	-0.1710957536	-0.3903249101	-2.0591316822	 0.127655
H	 0.0564293769	-4.0785922479	 1.7871314063	 0.13904
H	 0.2199700282	-2.4268055015	 3.693271636	 0.275488
