19
gdb 116422	2.85499	1.31085	0.95042	5.0251	71.73	-0.2565	-0.0019	0.2545	1227.1576	0.161004	-460.208155	-460.199798	-460.198854	-460.241566	31.509	
O	 0.184691703	 1.3478244683	-0.046493936	-0.426006
C	 0.0900550732	-0.0515953579	 0.0263229955	-0.062878
C	-1.3650221713	-0.5636546498	 0.049117107	-0.158705
C	-1.4672434104	-2.07512025	-0.1874293389	-0.228263
C	-2.8992725859	-2.5397644959	 0.0689419196	-0.232985
C	-3.2800920479	-2.208690938	 1.5019913475	-0.060151
O	-3.0531027007	-0.8309935352	 1.8602081953	-0.225699
C	-2.0673697894	-0.088613482	 1.3210313345	 0.431639
O	-1.8102296254	 0.9740618825	 1.8392391727	-0.343358
H	-0.3392820898	 1.6776169515	 0.6989216481	 0.297124
H	 0.5838320415	-0.4546645265	-0.8653873366	 0.102183
H	 0.622826964	-0.457517435	 0.9036406991	 0.08655
H	-1.8933083174	-0.0443898706	-0.7639932218	 0.12401
H	-1.1483340896	-2.3087166	-1.2079663014	 0.112183
H	-0.7816381519	-2.6067899794	 0.4866231888	 0.108373
H	-3.587573089	-2.0435130482	-0.6258083086	 0.115565
H	-3.0074135946	-3.6191673731	-0.0809936549	 0.112753
H	-4.3417588811	-2.3790729178	 1.695415546	 0.127997
H	-2.7054392073	-2.8276073828	 2.202992924	 0.119668
