17
gdb 47397	2.82947	1.59998	1.23175	2.7439	69.23	-0.2289	0.0158	0.2447	1026.4767	0.137593	-455.125593	-455.117811	-455.116866	-455.158456	28.864	
N	 0.0880593465	 1.274317044	-0.215139989	-0.522564
C	 0.0619964519	 0.0306595335	-0.0235487446	 0.334937
O	 1.1423277055	-0.7706879961	 0.2229314924	-0.246373
C	 0.6695735032	-2.096400816	 0.4435879078	 0.004103
O	-0.6301955877	-2.1603185051	-0.0807713039	-0.284759
C	-1.1674116755	-0.8487478759	-0.0330679741	 0.307761
C	-2.2543125785	-0.5624594294	 1.0505127073	-0.215588
N	-3.1416886748	-0.0262611684	-0.0064421426	-0.302769
C	-2.2675923254	-0.5629659585	-1.0773867538	-0.217354
H	 1.0386690277	 1.639320714	-0.1464547671	 0.228604
H	 1.312347182	-2.8029973995	-0.0889126151	 0.130986
H	 0.6862054814	-2.303180786	 1.5252067559	 0.108178
H	-2.5813989017	-1.5022978263	 1.5137445161	 0.101262
H	-1.9988003479	 0.1641574787	 1.828075734	 0.117396
H	-4.0811548531	-0.4046487239	 0.0004528632	 0.222234
H	-2.011199632	 0.1667042057	-1.8504187222	 0.12792
H	-2.6039977216	-1.4984279908	-1.5413231244	 0.106026
