22
gdb 103628	2.59099	1.16023	0.98007	2.1006	79.14	-0.2231	0.0673	0.2904	1323.7085	0.192106	-441.459625	-441.449368	-441.448424	-441.494409	38.395	
C	-0.0709372203	 1.4971722204	-0.0144174384	-0.401742
C	 0.0124558658	-0.0147911331	 0.0756310841	 0.009753
N	 1.0494346341	-0.6747217269	-0.7528876125	-0.101408
C	 0.7049999964	-1.1165999491	-2.0858650554	-0.325146
C	 1.2744316304	-1.6910890585	 0.2945423886	-0.224673
C	 0.6679947931	-0.6974195999	 1.3174850858	 0.353052
O	 1.6502797174	 0.1032185844	 1.9605974853	-0.492127
C	-0.2152075764	-1.2295364261	 2.4289709409	-0.094168
O	 0.5355587005	-1.988417441	 3.3574526514	-0.426661
H	 0.8805718874	 1.9607189684	 0.2572306269	 0.113481
H	-0.3271823508	 1.8098078204	-1.0322449331	 0.116618
H	-0.844183547	 1.882721622	 0.6580137254	 0.119942
H	-0.9845088432	-0.4605917892	-0.0996932787	 0.052587
H	 0.4747312378	-0.253648767	-2.7193607942	 0.121468
H	 1.5539611875	-1.6427671852	-2.5353140698	 0.121721
H	-0.1671122574	-1.7979535358	-2.1020028127	 0.092125
H	 0.6500638054	-2.5919855728	 0.1760497467	 0.089847
H	 2.3165714935	-1.9954857124	 0.4405609701	 0.09911
H	 2.3176417073	 0.3302899987	 1.3034406259	 0.291528
H	-0.7248991728	-0.3819712135	 2.9166879254	 0.090975
H	-0.982333969	-1.8910350999	 2.0159490676	 0.103332
H	 1.3000655502	-1.442297254	 3.5774968708	 0.290383
