17
gdb 125370	2.4244	1.75699	1.03153	4.5583	79.98	-0.2212	-0.0301	0.1911	1131.5025	0.136597	-418.056302	-418.047718	-418.046774	-418.089467	31.717	
C	-0.0068897311	 1.5209945733	 0.0168792285	-0.478672
C	-0.0028991044	 0.0237080214	-0.0211685455	 0.152109
C	-0.0472671642	-0.6970552038	-1.1732112225	-0.051113
N	-0.0414690242	-2.0547481881	-1.1579858715	-0.235637
N	 0.0066374708	-2.809565642	-0.0483773889	-0.248064
C	 0.0509867577	-2.1820081166	 1.0937855523	 0.232515
C	 0.1054024689	-3.0015144008	 2.3455243683	-0.454833
C	 0.0512110477	-0.7088090631	 1.2353503145	 0.240563
O	 0.0943966576	-0.1683535601	 2.3397071044	-0.383541
H	 0.8878504328	 1.8927961158	 0.5273961887	 0.146195
H	-0.049264581	 1.9548960599	-0.9858891694	 0.109494
H	-0.8600433241	 1.8862967293	 0.5983497211	 0.146183
H	-0.0891912882	-0.245984905	-2.1595533148	 0.130279
H	-0.0746265165	-2.5846535824	-2.0130981655	 0.278322
H	 0.0971232213	-4.0662812657	 2.1087659989	 0.126587
H	 1.0043916587	-2.7537331911	 2.9193808682	 0.144766
H	-0.7423586217	-2.7562188611	 2.9935323131	 0.144847
