21
gdb 108211	2.89638	1.45825	1.28628	2.2179	76.39	-0.2593	0.0703	0.3296	1081.5121	0.18561	-424.246862	-424.239007	-424.238062	-424.279028	31.76	
O	 0.0014685434	 1.3835321697	 0.0665943434	-0.421339
C	-0.0084289863	-0.0290553338	-0.0170653964	-0.150562
C	-1.4200637822	-0.5806683286	-0.0852722212	 0.378892
C	-2.3140921282	-0.0438058099	-1.2307426841	-0.255335
C	-3.7329836387	-0.1608349503	-0.6008536179	-0.21935
C	-3.3922573779	-0.7570368523	 0.7826859927	 0.076199
C	-2.9952054497	-2.2431439853	 0.6374753766	-0.216556
C	-1.5746689975	-2.116196569	 0.006418917	-0.266861
O	-2.136363221	-0.1348415137	 1.0905536451	-0.308915
H	-0.6117896411	 1.6078617945	 0.7768892278	 0.29129
H	 0.5452859619	-0.3004872582	-0.9222300541	 0.108536
H	 0.5090226293	-0.4849421399	 0.8420987832	 0.090547
H	-2.0481142772	 0.9924446205	-1.4457396864	 0.11695
H	-2.2011308438	-0.6249604834	-2.1494516064	 0.095342
H	-4.2026515126	 0.8197120936	-0.4915876381	 0.103951
H	-4.412642604	-0.796640368	-1.1741951897	 0.09704
H	-4.1111606246	-0.5432822429	 1.5741755667	 0.073871
H	-2.9511057922	-2.7260113214	 1.6164025722	 0.105542
H	-3.6956764505	-2.8063671877	 0.0155273995	 0.098879
H	-1.4926439865	-2.6017735455	-0.9690108147	 0.100179
H	-0.8091972308	-2.5426593283	 0.6608035149	 0.101701
