18
gdb 34411	2.64855	1.5294	1.2842	4.4822	75.67	-0.244	0.0214	0.2654	1040.623	0.151198	-398.121075	-398.113483	-398.112538	-398.153113	29.802	
N	-0.0169185055	-1.1515284651	-0.3495078142	-0.350346
C	-0.0262514174	-0.0111906222	-0.1561068745	 0.252795
C	-0.0033123466	 1.4336338406	 0.060007897	 0.170348
C	-0.8057305034	 2.2072108586	-1.0072328712	-0.277817
C	-0.0151518842	 3.5271772766	-1.1871695819	-0.192414
N	 1.4000196268	 3.2011783702	-0.9528283882	-0.272483
C	 1.4116896154	 2.174207875	 0.0666622861	-0.061519
C	 1.0316170488	 2.6624528681	 1.488634702	-0.168719
N	-0.1847489323	 1.8147345945	 1.4766965937	-0.349136
H	-0.8113843569	 1.636523082	-1.9414573249	 0.123103
H	-1.8470211542	 2.3574266811	-0.7061221502	 0.114751
H	-0.1484166067	 3.9731683356	-2.1749354498	 0.116627
H	-0.3409606182	 4.2709780995	-0.4512701042	 0.115765
H	 1.8119069261	 2.8369702173	-1.8059556034	 0.22915
H	 2.3006912249	 1.5483941803	 0.0049974655	 0.101437
H	 1.7313974407	 2.3920739342	 2.2856074692	 0.11607
H	 0.8599873513	 3.7438542739	 1.5265686712	 0.109193
H	-1.0618681187	 2.2762630098	 1.6885667178	 0.223197
