18
gdb 52224	4.03182	0.64584	0.59207	1.561	76.68	-0.2505	-0.039	0.2114	1803.9566	0.14453	-439.063254	-439.053662	-439.052718	-439.099498	32.961	
O	-0.1055650666	-0.1901172006	-0.1368950216	-0.229968
C	 0.0861684779	 0.9673713147	 0.129711221	 0.153992
C	 1.3517938096	 1.7316079354	-0.1884885996	-0.267883
C	 1.0662039033	 2.9736766446	-1.0455871514	-0.162799
N	 2.2825605039	 3.7817997636	-1.1349432408	-0.073315
C	 3.129014384	 3.629964841	-2.2910846078	-0.253421
C	 2.3707416337	 4.9137501569	-2.0725675954	-0.092415
C	 1.2831219469	 5.2545724397	-3.0273765887	 0.156078
O	 1.046376796	 6.3826452339	-3.3826751587	-0.258871
H	-0.6940494107	 1.5714899158	 0.6507615519	 0.075837
H	 1.7969459017	 2.0689340871	 0.7570288748	 0.135747
H	 2.0574714621	 1.0592205078	-0.6837219037	 0.126015
H	 0.6798089227	 2.6538901476	-2.0249819212	 0.110656
H	 0.2901234927	 3.5852299189	-0.570112076	 0.121744
H	 4.201684749	 3.6204949598	-2.1198701186	 0.137983
H	 2.7850482793	 2.9851609207	-3.1008399315	 0.124075
H	 2.8949664717	 5.7819246598	-1.682105303	 0.119481
H	 0.6968601229	 4.3939008332	-3.4172999998	 0.077063
