16
gdb 67544	2.61948	1.80581	1.48203	1.817	68.93	-0.2494	0.0101	0.2595	928.7934	0.124236	-437.832267	-437.824852	-437.823908	-437.863924	29.218	
O	 0.1583615783	 1.3921850008	 0.2542326245	-0.472807
C	 0.0955166199	 0.0214085791	 0.0898402927	 0.316912
C	 1.2903661436	-0.7237464441	 0.7460021744	-0.087821
C	 1.1456888561	-2.2133143055	 0.7036313806	-0.303666
C	 1.5550111671	-1.498973282	-0.5549781902	-0.066511
C	 0.3569579152	-0.7908050912	-1.2099233518	 0.018265
O	-0.9512489468	-1.4524655995	-1.0421970433	-0.274234
C	-1.2614088849	-0.6695367683	 0.0575648206	 0.3276
N	-2.3352810286	-0.5256910568	 0.6895282108	-0.557244
H	-0.7242118881	 1.7526073771	 0.110803807	 0.299048
H	 1.9824585726	-0.2068143158	 1.3979209352	 0.108848
H	 1.9476616068	-2.7597365656	 1.1892945883	 0.121484
H	 0.1746381468	-2.691162066	 0.7774685569	 0.137677
H	 2.4914631122	-1.7018449471	-1.0581362034	 0.097219
H	 0.4701466765	-0.3566535408	-2.2011342815	 0.103469
H	-3.0801239467	-1.1154394842	 0.3131864291	 0.231761
