16
gdb 3336	4.3951	3.07192	2.04548	1.521	65.22	-0.2325	0.0173	0.2498	659.3462	0.139988	-288.625728	-288.619884	-288.61894	-288.655174	23.176	
C	 0.00130179	 1.4870464352	 0.1459840347	-0.254085
C	 1.401650633	 2.0844448325	-0.1012405897	-0.204096
C	 2.0770160707	 1.4997952555	-1.3380437403	-0.0331
N	 3.0799264888	 0.441040745	-1.0867768682	-0.335881
C	 1.7742372901	 0.0948163317	-1.7076624554	-0.064058
C	 0.7924146559	-0.649217806	-0.8781476189	-0.04031
C	-0.0287001316	-0.0110706464	-0.0436611025	-0.0516
H	-0.3318477904	 1.7414851124	 1.1582924908	 0.102913
H	-0.7331627788	 1.9507502235	-0.529359391	 0.109606
H	 1.3325667588	 3.1741010585	-0.1861678552	 0.091235
H	 2.0377035878	 1.8664498932	 0.7621159128	 0.118684
H	 2.2850985305	 2.1936316329	-2.1487307964	 0.080192
H	 3.7938240991	 0.4699443409	-1.8122400072	 0.224337
H	 1.7943778387	-0.1700579654	-2.7633858435	 0.083572
H	 0.7499619663	-1.729955561	-0.9851046893	 0.085187
H	-0.7615301089	-0.5725137427	 0.5305695293	 0.087402
