20
gdb 91961	2.36446	1.78114	1.42865	2.3682	78.62	-0.2258	0.069	0.2947	1014.5362	0.172183	-403.113121	-403.105246	-403.104302	-403.144996	32.11	
O	 0.0103507863	 1.4120907768	-0.2196127113	-0.422526
C	 0.0317969901	-0.0009121627	-0.0028529203	-0.016784
C	 0.5545379346	-0.3913144442	 1.40041746	-0.251195
C	-0.6970930689	-0.4851398405	 2.2610115314	-0.026201
C	-1.6876805984	 0.6190402506	 2.1801171711	-0.258116
N	-1.8874503009	-0.6187885072	 1.3959955867	-0.14944
C	-1.4052724018	-0.5153546372	 0.0226280157	 0.406278
C	-2.3869014376	-0.1935708739	-1.0613267651	-0.309444
C	-1.8536376044	-1.6010440511	-0.9210987953	-0.328405
H	 0.9181650278	 1.7303282888	-0.1750927464	 0.281341
H	 0.617317181	-0.4827621353	-0.7969548108	 0.069884
H	 1.0432706672	-1.3710553112	 1.3553028247	 0.108184
H	 1.2914386978	 0.3273639624	 1.7749214023	 0.095453
H	-0.6652886841	-1.1204766498	 3.141833307	 0.086346
H	-2.4041761541	 0.7514917625	 2.985838258	 0.107687
H	-1.4060595859	 1.5207506781	 1.6471604614	 0.138952
H	-3.4102699844	-0.0114868066	-0.7540007148	 0.120378
H	-2.0420324649	 0.4185457296	-1.8865595091	 0.121245
H	-1.1498770837	-1.9640594096	-1.6630470065	 0.106028
H	-2.5180523057	-2.3515241097	-0.5091394587	 0.120337
