18
gdb 64916	2.24135	1.45631	1.03971	2.2648	81.03	-0.2537	-0.0335	0.2202	1189.0357	0.143612	-401.907158	-401.897171	-401.896227	-401.941848	36.322	
C	-0.0334081991	 1.5668858159	-0.0578240355	-0.460704
C	-0.0153681631	 0.0575998768	 0.0190614635	 0.167643
N	 1.2854125314	-0.6245799266	-0.1672552782	-0.387901
C	 0.6587447853	-0.6959528417	 1.1608316347	 0.10007
C	 1.3621351835	 0.0650337067	 2.2741168339	-0.45515
C	 0.1061337591	-1.9601914885	 1.5942135602	 0.278785
C	-0.2956731571	-3.0140613195	 2.0126932634	-0.438491
C	-1.1974241114	-0.6166586599	-0.6057759539	 0.107096
O	-2.1313882414	-0.0240857506	-1.0845946583	-0.256326
H	 0.9321718914	 1.9902034896	 0.2168643497	 0.129924
H	-0.2694384504	 1.8755267373	-1.0797296452	 0.141958
H	-0.8083040886	 1.9790328692	 0.5945916427	 0.134695
H	 1.1614190886	-1.5071381472	-0.6634374028	 0.240765
H	 1.8641292202	 0.9509734495	 1.8861618161	 0.136384
H	 0.6475740233	 0.3633883565	 3.0463609336	 0.134479
H	 2.1139733644	-0.5806749593	 2.7367990929	 0.138271
H	-0.6675559044	-3.9432774672	 2.3687102798	 0.204462
H	-1.1404074318	-1.7265724011	-0.6222141966	 0.08404
