13
gdb 132324	2.05775	1.81765	0.96513	5.1898	65.8	-0.215	-0.03	0.1851	1089.7924	0.090565	-494.085871	-494.078689	-494.077745	-494.11764	27.599	
O	-0.1320076307	 1.3174275599	 0.010748937	-0.403553
C	 0.0465237684	-0.0097419808	 0.0025668565	 0.543273
C	 1.2496201064	-0.6655907885	-0.0075540844	-0.490889
C	 1.1371040713	-2.0795626247	-0.0146029679	 0.359151
F	 2.2876224452	-2.7428924603	-0.0244450028	-0.065239
N	 0.0616615848	-2.7839247318	-0.012551289	-0.378294
C	-1.1568496278	-2.1254116092	-0.0023912307	 0.427783
N	-2.3190730955	-2.6491271873	 0.0013209077	-0.569397
N	-1.102208808	-0.7078942154	 0.0050206628	-0.367095
H	 0.7263470381	 1.756534065	 0.0084593986	 0.322355
H	 2.20282714	-0.1594981986	-0.009997124	 0.113623
H	-2.2215378888	-3.6625677185	-0.0045727477	 0.227524
H	-1.9883517933	-0.2230336898	 0.0125164439	 0.280761
