20
gdb 36033	3.76483	1.05746	0.93242	1.1365	84.68	-0.2251	0.0534	0.2785	1303.5945	0.169037	-365.927409	-365.918278	-365.917334	-365.961264	35.171	
C	-0.2202214247	-0.9809763983	 1.2477987939	-0.45567
C	-0.0284774495	 0.1773553978	 0.9883300296	 0.3002
C	 0.2010602671	 1.5804669907	 0.6729158115	-0.400989
C	 1.6020716469	 1.9188706014	 0.154153389	 0.341222
C	 2.7950227306	 1.1519988321	 0.678866717	-0.319311
C	 2.3170895863	 0.9605649341	-0.7480904441	-0.297813
N	 1.6387035022	 3.3331959084	-0.1595696817	-0.11156
C	 2.0874005785	 4.2608126327	 0.8782390687	-0.227339
C	 2.903528447	 4.025741554	-0.3447816783	-0.238037
H	-0.3979646262	-2.0020645183	 1.4782386237	 0.194925
H	-0.5230097616	 1.9150236849	-0.0802875378	 0.142506
H	 0.0083478311	 2.1875858388	 1.5679697905	 0.130868
H	 3.7336039222	 1.6715646564	 0.8369620384	 0.108456
H	 2.6056945534	 0.3517308542	 1.3850528924	 0.126094
H	 1.8261209297	 0.0274760396	-1.0001651483	 0.126325
H	 2.9215685559	 1.3869346243	-1.5415826315	 0.113435
H	 1.5023126333	 5.1690682388	 0.9901446698	 0.116896
H	 2.4664713001	 3.8364915765	 1.8061727928	 0.115218
H	 3.8353358649	 3.478757425	-0.222117035	 0.116083
H	 2.915729093	 4.7548374968	-1.1503169706	 0.118489
