22
gdb 87825	2.78293	1.34229	1.14555	1.7023	86.35	-0.219	0.0845	0.3035	1201.7098	0.193461	-367.162016	-367.152931	-367.151987	-367.195283	35.427	
C	-0.0699893785	 1.5601553358	 0.0429257086	-0.406837
C	-0.0248991657	 0.0479238363	 0.04057341	-0.064968
C	 1.2765195635	-0.6832832616	-0.2151045981	-0.366417
C	 0.6553342664	-0.7047820478	 1.1502789012	 0.315605
C	 1.2921250919	-0.2050920919	 2.4518019114	-0.24921
N	 0.871285384	-1.4536396213	 3.1853153107	-0.168741
C	-0.6037751422	-1.4871330997	 3.087727309	-0.284762
C	 0.1786453049	-1.9274781786	 1.9114774287	 0.269103
C	 0.2441339385	-3.3444775038	 1.4251651085	-0.495611
H	 0.8419794254	 1.9821122158	 0.4784797598	 0.116062
H	-0.1630353065	 1.9556345025	-0.9745702943	 0.118235
H	-0.9188118678	 1.9362475272	 0.6252458849	 0.116128
H	-0.9133155389	-0.4293719414	-0.3685834323	 0.080651
H	 1.2504275998	-1.5908303361	-0.8103471308	 0.110513
H	 2.1764078752	-0.0895209858	-0.352233234	 0.108435
H	 2.3827696734	-0.1411124365	 2.4197023707	 0.109833
H	 0.8909120034	 0.7151610515	 2.8926336147	 0.100067
H	-1.0491257469	-2.2533700928	 3.7160116328	 0.114064
H	-1.1522706585	-0.5470868427	 3.0604483597	 0.104996
H	-0.5429079225	-3.5450775592	 0.688121881	 0.118643
H	 1.210068158	-3.5572208267	 0.9554489738	 0.124713
H	 0.1100049335	-4.0409664132	 2.2576991541	 0.129498
