16
gdb 98933	4.10534	0.9095	0.74805	2.8921	78.66	-0.2393	-0.0363	0.203	1459.9622	0.122639	-434.034957	-434.025159	-434.024215	-434.072226	34.166	
C	-2.0690587548	 1.6006623397	-0.0364526971	-0.222847
O	-2.2867540191	 0.1881958154	-0.0402068725	-0.193915
C	-1.1931555569	-0.5662662887	 0.0303592312	 0.516931
N	-0.020815953	-0.0725729745	 0.0980558722	-0.600632
N	-1.4873659306	-1.9349561621	 0.0216164441	-0.406133
C	-2.695779078	-2.6285507185	-0.0486597217	 0.258064
N	-3.8437764943	-2.0758624367	-0.1240471329	-0.487436
C	-2.4882607387	-4.057906831	-0.0258102144	 0.24243
C	-2.3420886613	-5.2519326395	-0.008420675	-0.435435
H	-3.0636956116	 2.0425060304	-0.0992949364	 0.133842
H	-1.5633704038	 1.9116096664	 0.8812106	 0.139279
H	-1.4566413812	 1.8998498508	-0.8908223612	 0.139283
H	 0.6992826338	-0.7883479667	 0.1458017414	 0.210822
H	-0.673553934	-2.5243183057	 0.075900606	 0.259328
H	-4.5609234309	-2.7976766465	-0.1636575395	 0.231771
H	-2.2279499054	-6.3083974628	 0.0060443658	 0.214649
