18
gdb 6455	4.57645	1.2664	1.18548	2.5153	69.23	-0.264	-0.0341	0.2299	1070.6101	0.151987	-384.947771	-384.939453	-384.938509	-384.980372	31.239	
C	 0.0681585456	 1.6104494281	 0.0563778476	-0.408009
C	 0.0527875391	 0.0902282895	 0.0089987943	 0.051326
C	 1.0900480187	-0.6332210396	-0.8928767757	-0.299851
C	 1.3151885089	-1.6931822129	 0.2377182778	 0.341839
O	 2.6296405399	-2.0517256545	 0.5189984506	-0.482989
C	 0.6196194423	-0.694567993	 1.2236836962	-0.299951
C	 0.4776345533	-2.9263821004	 0.016536796	 0.11907
O	 0.9419776042	-4.0399430375	 0.088974498	-0.284416
H	 1.071591012	 1.983199366	 0.2902555007	 0.117158
H	-0.2331554221	 2.0413272496	-0.9047873881	 0.118272
H	-0.6170325288	 1.9914659165	 0.8216353062	 0.118266
H	-0.9591207448	-0.2588341637	-0.2259770902	 0.073387
H	 0.7736730434	-0.9855202079	-1.8785334904	 0.102975
H	 2.0112420735	-0.0539398437	-1.0004182378	 0.122176
H	 2.6521677867	-3.0222287386	 0.4981798015	 0.289662
H	 1.4015693992	-0.1335783622	 1.7428908276	 0.122169
H	-0.0799246259	-1.0968638248	 1.9615970746	 0.102984
H	-0.5939070651	-2.7593623108	-0.217089799	 0.095932
