17
gdb 37647	3.28305	2.43648	2.16097	0.3028	72.5	-0.1954	0.0666	0.262	738.1513	0.140489	-380.767895	-380.762791	-380.761846	-380.796956	23.305	
C	-0.0325022678	 1.532430682	-0.0263552529	-0.179107
C	 1.4831546539	 1.5429959336	 0.0858445092	-0.00714
C	 1.3976928371	 0.087256547	 0.6179942591	-0.026646
C	 2.361803932	-0.3680767631	-0.4876265966	-0.005707
C	 1.5572742777	-1.0629335802	-1.5883321487	-0.119164
C	 0.2152627349	-0.4372386645	-1.3655725833	-0.035736
C	 1.2783517579	 0.3349648048	-2.131642002	-0.053206
N	 2.1950180886	 0.9845358522	-1.1552144088	-0.156901
N	 0.0003219779	 0.0196284841	 0.0050730917	-0.136864
H	-0.5275567696	 1.9274336129	 0.865957709	 0.10724
H	-0.4979417115	 1.9549488108	-0.9226471529	 0.10523
H	 2.0328781863	 2.3727288903	 0.5335033742	 0.074118
H	 1.4559072296	-0.2459460106	 1.6558072031	 0.073015
H	 3.3786879935	-0.6810516108	-0.2463909674	 0.075828
H	 1.7499999525	-2.0011421873	-2.089020795	 0.098285
H	-0.6492871767	-0.8116868927	-1.9033093849	 0.094679
H	 1.1786300236	 0.6978185117	-3.1485221539	 0.092075
