25
gdb 103333	2.72457	1.31014	1.06914	0.1009	93.14	-0.2744	0.0915	0.3659	1287.0773	0.229076	-352.297241	-352.28757	-352.286625	-352.331313	38.017	
C	-1.5277697137	-0.5819627396	 0.6240104382	-0.375569
C	-0.2064541728	-0.023784718	 0.0795395147	-0.267569
C	 0.3148285923	-0.7628084938	-1.1778846589	 0.416774
C	-0.426594331	-0.1607098331	-2.3863351324	-0.488305
C	 1.8714385381	-1.046578894	-1.2180701974	-0.126911
C	 1.6358772358	-2.105225194	-0.0936469601	-0.234211
C	 0.4991885118	-2.3270588443	-1.1321452995	-0.113766
C	 1.6426178647	-2.2294156642	-2.2120776445	 0.067648
C	 1.4881351517	-2.0594068892	-3.7270242763	-0.456284
H	-2.3095750303	-0.59968818	-0.1427884059	 0.115079
H	-1.4022073865	-1.6072345809	 0.9875689099	 0.117503
H	-1.8980433821	 0.0240856747	 1.4570124019	 0.109217
H	-0.3472008617	 1.029769308	-0.1934924997	 0.088329
H	 0.5325509022	-0.0133187898	 0.8842464464	 0.094657
H	 0.091242568	 0.7257928203	-2.7717533968	 0.113
H	-0.571686174	-0.8539441117	-3.2122152328	 0.121476
H	-1.4243919229	 0.1685617521	-2.0789093172	 0.109287
H	 2.6699832022	-0.3003136967	-1.2591766632	 0.058817
H	 2.3850388114	-2.8975420909	-0.0250117803	 0.085277
H	 1.3566066836	-1.7577327865	 0.8982789536	 0.092478
H	-0.291308853	-3.0810374038	-1.0870804757	 0.059243
H	 2.3680560126	-3.0339490009	-2.0503360309	 0.063033
H	 1.3048377001	-1.0335841215	-4.0454708782	 0.124795
H	 2.4128176839	-2.3831093028	-4.2164475949	 0.108757
H	 0.6819327795	-2.6855817295	-4.1263132996	 0.117244
