20
gdb 119689	4.91477	0.99192	0.92855	1.9486	79.78	-0.2393	0.0879	0.3272	1333.8531	0.171411	-403.077734	-403.069423	-403.068479	-403.111127	31.275	
C	 0.155929292	 1.3336413274	 0.1115094508	-0.220216
O	 0.1056143257	-0.0716345437	 0.0735027265	-0.232878
C	 0.5604134201	-0.6023700598	-1.1522347413	-0.185373
C	 0.4595584339	-2.0924048663	-1.1066180488	 0.338615
C	-0.664648478	-2.9236005866	-0.510413662	-0.287202
C	 0.3971177229	-4.0374371023	-0.4687816579	-0.006952
C	 0.7155195714	-4.3857529088	-1.9358946855	-0.239167
C	 1.2943571836	-2.9831590286	-1.9735434362	-0.090629
N	 1.5286611057	-2.9543990485	-0.4856341458	-0.190168
H	 1.1844434801	 1.7097465552	-0.007952386	 0.10581
H	-0.4672555863	 1.7876639333	-0.6761441512	 0.101271
H	-0.2233571377	 1.6482990514	 1.0866455641	 0.128061
H	-0.0472771227	-0.2086229422	-1.9872940257	 0.087198
H	 1.606951207	-0.3103892591	-1.3437008423	 0.094754
H	-0.9093547179	-2.5556661617	 0.4875055507	 0.126477
H	-1.5806974851	-3.0937139794	-1.0867493614	 0.089929
H	 0.398648372	-4.7957796998	 0.3114097465	 0.083073
H	 1.5098005479	-5.1331031048	-2.0072845464	 0.112512
H	-0.1107018201	-4.6534469747	-2.6034068493	 0.094963
H	 2.0326127455	-2.5847667207	-2.6615962787	 0.089924
