12
gdb 132718	6.05825	1.0211	0.87382	0.8446	73.87	-0.2592	-0.0569	0.2023	1184.3566	0.077337	-439.641879	-439.634868	-439.633924	-439.67353	26.257	
F	 0.0018238786	 0.0172110053	 0.0039340426	-0.06163
C	-0.016197709	 1.3461546748	 0.010685536	 0.251556
C	-1.2165352568	 2.0427106377	 0.0299033456	-0.119557
N	-1.2401008986	 3.371745371	 0.036741868	-0.263767
C	-0.0521662927	 3.9978611665	 0.0241694536	 0.1847
N	 1.1523072371	 3.4043567713	 0.0054198024	-0.263769
C	 1.1648011102	 2.0751678223	-0.0012725098	-0.11956
C	-0.0715882789	 5.429614796	 0.0314708498	 0.257328
C	-0.0879203353	 6.6315948784	 0.0375687879	-0.342591
H	-2.1658685431	 1.5127235832	 0.0398127288	 0.137742
H	 2.1281618665	 1.5712587892	-0.0164047249	 0.137743
H	-0.1025414481	 7.6937454442	 0.0429767598	 0.201805
