11
gdb 5354	6.03722	1.62288	1.27905	4.0324	65.94	-0.2786	-0.0885	0.1901	851.3965	0.075095	-356.497714	-356.491832	-356.490887	-356.5279	21.313	
N	 0.0513932656	-1.1471290467	-0.0047033438	-0.312565
C	-0.0085486259	 0.0078034744	 0.0034745039	 0.247951
C	-0.0284334924	 1.4453606486	 0.011004699	 0.204693
N	-1.2196684982	 2.0578045866	 0.0299542692	-0.284642
C	-1.1889036606	 3.3870161274	 0.0364179087	-0.016712
C	 0.0110938858	 4.101124081	 0.0241477497	 0.00637
N	 1.1966897358	 3.491304547	 0.0052697618	-0.227152
C	 1.1758596937	 2.1603552769	-0.001307153	-0.03567
H	-2.1458429906	 3.9010918349	 0.051770393	 0.135251
H	 0.0132530802	 5.1875988456	 0.0296848656	 0.135968
H	 2.1290071866	 1.6401065943	-0.0166044242	 0.146507
