21
gdb 50661	2.12487	1.58772	1.05155	2.9425	82.84	-0.2423	-0.0158	0.2265	1197.9203	0.183109	-387.104097	-387.095463	-387.094519	-387.138295	32.954	
O	-0.0596537694	-0.0664878798	 0.0626434507	-0.262705
C	 0.0331101289	 1.1315185029	-0.0172304712	 0.16448
C	 1.3230188934	 1.9171951711	 0.0352968297	-0.134941
C	 1.4584646644	 2.8694494848	-1.1868925443	-0.235855
C	 2.0212893695	 4.1844988918	-0.6181061892	-0.206382
C	 1.3248189984	 4.2944479199	 0.7450543248	-0.280423
C	 1.3507189459	 2.8597831756	 1.2674298687	 0.355348
C	 0.7129578186	 2.4852258235	 2.5837594574	-0.334564
C	 2.2143141936	 2.501433856	 2.4532444339	-0.303236
H	-0.8762019797	 1.7712203144	-0.1260371892	 0.067245
H	 2.1443237129	 1.1969766227	 0.0771452056	 0.089266
H	 2.0726819217	 2.4339688106	-1.9783868585	 0.110126
H	 0.4657140777	 3.0565557665	-1.6176311796	 0.101944
H	 3.1052895403	 4.1007355898	-0.4775997844	 0.105136
H	 1.8373331688	 5.0413167283	-1.2720986482	 0.097929
H	 1.8075488164	 4.9981271829	 1.4295455979	 0.097673
H	 0.2893658429	 4.6335102548	 0.6063556547	 0.098757
H	 0.2368069655	 3.27489836	 3.1561332585	 0.112733
H	 0.2237715281	 1.5202351824	 2.668182209	 0.128595
H	 2.7317532847	 1.5474805525	 2.4390746352	 0.117775
H	 2.7643342974	 3.3011886793	 2.9391135485	 0.111097
