16
gdb 54740	3.17766	1.37871	1.1883	5.4101	70.59	-0.2461	-0.0433	0.2028	1070.3185	0.122361	-437.881317	-437.873049	-437.872104	-437.914583	30.36	
C	 0.058773829	 1.4206820736	 0.5827687344	-0.487592
C	 0.0111062426	 0.146828192	-0.2336177448	 0.398867
O	 0.9683097791	-0.2781337216	-0.8407534256	-0.302814
C	-1.3187006362	-0.5598523391	-0.2519210342	-0.125052
C	-2.0038851704	-0.9434452783	-1.5134811254	-0.045186
C	-1.0584450964	-1.343872385	-2.6443553961	-0.372953
C	-0.4969287761	-2.3592507422	-1.6359304167	 0.433334
O	 0.2428144656	-3.2848874653	-1.6701271243	-0.288388
N	-1.4565707729	-2.0069678504	-0.5670416075	-0.188249
H	 1.0168888514	 1.9192002289	 0.4355009753	 0.152644
H	-0.7621758657	 2.091294502	 0.3054620807	 0.14473
H	-0.0697451321	 1.1821875407	 1.6452965238	 0.154835
H	-1.9851435979	-0.2789291078	 0.5602632171	 0.113638
H	-3.0750436102	-0.8170272228	-1.6200165991	 0.120598
H	-1.5735409537	-1.8433185243	-3.4689949313	 0.141558
H	-0.364662526	-0.6007636304	-3.0363564362	 0.150028
