21
gdb 116637	3.83195	0.95322	0.82798	2.3673	83.28	-0.2222	0.0206	0.2427	1464.9219	0.184271	-420.410134	-420.400957	-420.400013	-420.445494	33.73	
C	 0.2136117419	 1.5604302542	 0.0995027815	-0.361291
C	-0.0603404406	 0.059425476	-0.0416122423	-0.138285
N	 0.6343365044	-0.4770097963	-1.2053663098	-0.290879
C	 1.6574427326	-1.2040369588	-1.0649885065	 0.377756
C	 2.433074784	-1.6928726827	-2.2753174014	-0.255918
N	 3.0460350537	-3.0158376988	-2.1341541508	-0.287491
C	 3.765762407	-3.0975286064	-0.8649417837	-0.173077
C	 2.8690294355	-2.7632272011	 0.3211198156	-0.074629
O	 2.1969018985	-1.5049151337	 0.1618539767	-0.259867
H	 1.2711507315	 1.7431706511	 0.314510151	 0.117742
H	-0.0398535507	 2.08625691	-0.8255895412	 0.123262
H	-0.3795545039	 1.9853714826	 0.9155707442	 0.107434
H	 0.2093532056	-0.4577416538	 0.8869821115	 0.099545
H	-1.1337662371	-0.0908603273	-0.2097963622	 0.097868
H	 1.769857395	-1.6699010482	-3.1407661985	 0.132219
H	 3.2417081601	-0.9719758092	-2.4643491794	 0.126293
H	 2.3191889395	-3.7267890508	-2.154173914	 0.219076
H	 4.1839841859	-4.1019857688	-0.7387078308	 0.108468
H	 4.6061448079	-2.3925694734	-0.9050519049	 0.116183
H	 2.112433435	-3.5516110796	 0.4520767338	 0.099899
H	 3.4357834443	-2.6785498652	 1.2534184113	 0.11569
