15
gdb 124035	3.7946	1.62844	1.15826	2.4227	74.32	-0.1964	-0.0082	0.1882	988.2335	0.11663	-416.829493	-416.822896	-416.821952	-416.86047	25.948	
C	 0.0289417913	 1.4874167334	 0.1357707508	-0.144885
O	 1.3489752891	 2.0839577102	-0.0112416292	-0.280181
C	 2.126689877	 1.4075837059	-0.864048945	 0.448657
C	 2.0149841359	 0.0761904211	-1.2286978653	 0.089807
C	 3.1356126557	-0.1291273466	-2.0692834517	-0.117578
N	 3.8706482179	 0.9679587526	-2.2100594091	-0.235288
N	 3.2284162014	 1.9071301572	-1.4489675421	-0.313085
C	 0.9529137496	-0.6916770603	-0.6146009237	-0.156378
C	 0.0276617739	-0.0231824419	 0.0892410406	-0.132417
H	-0.3402043044	 1.8626108364	 1.0929701741	 0.129695
H	-0.6114986339	 1.9064696194	-0.6583742161	 0.117714
H	 3.4340409739	-1.0338423993	-2.5796079004	 0.113147
H	 3.5976580298	 2.8404089679	-1.3861749234	 0.276945
H	 0.9439501257	-1.7744870157	-0.6798671054	 0.102295
H	-0.7742362128	-0.5277537403	 0.6161405961	 0.101551
