18
gdb 9858	4.68163	0.986	0.94525	1.643	76.49	-0.2438	0.0553	0.2991	1312.3578	0.150809	-347.76697	-347.757503	-347.756559	-347.802678	32.846	
C	 0.0940970794	 1.4553074403	 0.2668703571	-0.497406
C	 0.0456104745	 0.0162225991	 0.0499905005	 0.07239
C	 0.0143244598	-1.1748129642	-0.1230990427	 0.067995
C	-0.0409954482	-2.6191894998	-0.3304453729	-0.418311
C	-1.4372349088	-3.2122571741	-0.1382232486	 0.428747
C	-2.5392092892	-2.6289453196	-0.9920062392	-0.457192
C	-1.5434941295	-4.5871460323	 0.3702542815	-0.231398
O	-1.790026369	-3.4677522135	 1.2260393677	-0.265902
H	 1.0878721226	 1.7727675128	 0.6017558614	 0.147863
H	-0.1372712352	 2.0072483834	-0.6509345581	 0.145218
H	-0.626434377	 1.7662743605	 1.03135833	 0.149746
H	 0.3049602742	-2.86156298	-1.345038541	 0.125826
H	 0.6430129348	-3.1220023221	 0.362928725	 0.131545
H	-2.3281471791	-2.7814647853	-2.0562071227	 0.1178
H	-3.4955378297	-3.0998721839	-0.7533012784	 0.124514
H	-2.6242987137	-1.5527884827	-0.8166129366	 0.14018
H	-2.417068187	-5.1882772498	 0.1203430366	 0.110142
H	-0.6418055989	-5.1571856688	 0.5936919801	 0.108242
