20
gdb 59616	2.94655	1.14169	1.0063	2.5371	76.55	-0.2607	0.0263	0.2871	1271.5545	0.171352	-440.317193	-440.308177	-440.307233	-440.351136	34.052	
C	 0.0144362168	 1.5496448138	-0.063468401	-0.408762
C	 0.0017924577	 0.030723782	 0.1187216068	 0.118454
O	 0.644547659	-0.3598471883	 1.3225083113	-0.433707
C	-1.4147289038	-0.5531317148	 0.0590428605	 0.115659
C	-1.4960167879	-2.0830028975	 0.1541158856	-0.253854
C	-2.8204541602	-2.3005662831	 0.8960443823	-0.305199
C	-2.9553869541	-1.0475146055	 1.7322751434	 0.410747
N	-3.6971860006	-0.8978360068	 2.7414277463	-0.535455
O	-2.1356514859	-0.0728715737	 1.2205281321	-0.270025
H	 1.0369897826	 1.92539606	 0.0207958885	 0.126717
H	-0.381584935	 1.8330218516	-1.0444716064	 0.11383
H	-0.6004555808	 2.0335750618	 0.7020165636	 0.128369
H	 0.5824209957	-0.4372269834	-0.6860926249	 0.092231
H	 0.0886257795	-0.0397600487	 2.0436966936	 0.286948
H	-1.9315416349	-0.1809016087	-0.8360653564	 0.082042
H	-1.4591819646	-2.5582025054	-0.828131419	 0.108826
H	-0.6520473675	-2.4423863847	 0.7493966262	 0.13287
H	-3.6666011488	-2.3514896758	 0.2007373075	 0.131567
H	-2.8554873806	-3.1928969828	 1.5213518894	 0.139648
H	-3.6153208467	 0.0509208401	 3.1114249908	 0.219094
