19
gdb 74009	2.10805	1.81181	1.05783	2.6849	84.22	-0.2282	-0.0135	0.2147	1155.3911	0.159047	-385.901215	-385.892916	-385.891972	-385.934195	31.7	
C	-0.0797635969	 1.4423477176	-0.0888767457	-0.491076
C	 0.0016633881	-0.0368165874	 0.115691284	 0.151903
C	-0.9965166696	-0.9098921337	 0.280524922	 0.193507
C	-2.4353411959	-1.1573315841	-0.1194277713	-0.313296
C	-1.9087092812	-2.5095321703	-0.7394831543	-0.237212
C	-0.6053542533	-2.3483487277	 0.1222873657	-0.156572
C	 0.8338752896	-2.2423008182	-0.4039372441	 0.369877
O	 1.4668683319	-3.0559418664	-1.0181798236	-0.297518
C	 1.3071359077	-0.8098120764	-0.0197248698	-0.405492
H	 0.4499545005	 1.9869518296	 0.703321281	 0.129334
H	 0.388958507	 1.7390585954	-1.0361615233	 0.125436
H	-1.1171460142	 1.7885778678	-0.0947091893	 0.124239
H	-3.1039752289	-1.3486361307	 0.726740397	 0.113224
H	-2.9115172832	-0.4352259948	-0.7877479891	 0.109867
H	-2.5107103911	-3.4013065971	-0.5548925621	 0.109382
H	-1.708180366	-2.4202127234	-1.8091249182	 0.120328
H	-0.6286758928	-2.9733110613	 1.0235727139	 0.099546
H	 1.9736665601	-0.4049991003	-0.7901065926	 0.125442
H	 1.8990277485	-0.8644236885	 0.9054742097	 0.129082
