15
gdb 123467	5.52818	0.91143	0.83169	2.2408	66.02	-0.2716	-0.0259	0.2457	1328.8536	0.113063	-453.918016	-453.910429	-453.909485	-453.951883	26.784	
C	-0.004105049	 1.52328069	-0.1741383213	-0.358007
C	-0.2310849178	 0.1436513483	 0.3994588102	 0.111035
C	-1.3790624468	-0.6670836076	-0.0209074822	-0.186221
O	-0.0639785018	-0.9528286019	-0.4986399003	-0.227783
C	 1.4273239988	 1.9618335158	-0.164867263	 0.387769
N	 2.37504512	 1.3125806659	 0.4576971126	-0.165001
O	 3.5190117217	 2.0852621412	 0.2144194105	-0.157304
C	 3.1150850346	 3.1127710497	-0.5310537946	 0.108221
N	 1.8512878452	 3.1125655637	-0.8057726858	-0.310555
H	-0.3704402548	 1.5574807923	-1.205310359	 0.143463
H	-0.5892525292	 2.2626535418	 0.3889619956	 0.138523
H	 0.1862579712	-0.0262643498	 1.3910449732	 0.115084
H	-1.8017359642	-1.401459234	 0.6629426769	 0.118588
H	-2.0720760127	-0.273967085	-0.7643956356	 0.113553
H	 3.8658785647	 3.8303346596	-0.8283987573	 0.168635
