23
gdb 59042	2.46802	1.24465	1.04462	1.4358	88.45	-0.2297	0.0259	0.2556	1304.8095	0.20545	-388.312324	-388.302401	-388.301456	-388.346853	37.627	
C	-0.0493236822	 1.5580247558	 0.2506206707	-0.397241
C	-0.0231270712	 0.033672829	 0.0398618256	-0.075261
C	 0.8851628028	-0.6474493721	 1.0843352252	-0.386938
C	-1.4116482695	-0.5577532167	 0.0421556053	 0.358475
C	-1.9154466183	-1.4099087846	-0.8536494672	-0.194442
C	-3.3519627997	-1.7831876697	-0.5836839199	-0.25567
C	-3.5717157127	-1.2511633797	 0.8517547342	-0.24465
C	-2.4750759271	-0.181394983	 1.0607514259	 0.027469
O	-1.9369073695	-0.1629924996	 2.3830689617	-0.430822
H	 0.9629827821	 1.9701569324	 0.1874212592	 0.106393
H	-0.6638936918	 2.0572165871	-0.5058978263	 0.10682
H	-0.4516184569	 1.8035326356	 1.2380538397	 0.127412
H	 0.4075781205	-0.1640204473	-0.9508114717	 0.069778
H	 1.8969251511	-0.2289845671	 1.0397537106	 0.099484
H	 0.4900137651	-0.5021862587	 2.0920396308	 0.141928
H	 0.9532091261	-1.7235982229	 0.8981343221	 0.107376
H	-1.3737332388	-1.7742542011	-1.7212547048	 0.083303
H	-4.0250639732	-1.2941465558	-1.3021678966	 0.104346
H	-3.5421990541	-2.8590172993	-0.6727036603	 0.102675
H	-4.5832217907	-0.8722971672	 1.0251440906	 0.086429
H	-3.3792697699	-2.0475516051	 1.5780525811	 0.111951
H	-2.8598441952	 0.8251892614	 0.8219544786	 0.069518
H	-2.6146158768	 0.1819150384	 2.9727201156	 0.281668
