18
gdb 72213	3.44708	1.64019	1.37542	2.2075	75.07	-0.2349	0.0193	0.2542	971.4408	0.150004	-401.937787	-401.930753	-401.929808	-401.968803	28.611	
C	-0.0738153352	 1.5527821477	 0.0191317496	-0.503673
C	 0.0057076725	 0.0556481325	-0.0399023811	 0.329751
C	 0.7569486319	-0.7443789529	-1.1089534856	-0.314454
C	-0.3119578095	-1.8724508979	-0.9768406899	 0.095593
O	 0.1865331587	-3.0856077315	-0.3912699072	-0.234044
C	 0.7187492358	-2.9161822734	 0.8437894954	 0.118361
N	 0.6361328479	-1.9013429936	 1.5995001669	-0.274286
C	-0.2232513369	-0.8322105728	 1.1709677627	-0.034486
C	-1.1215591802	-0.9924696962	-0.0244980631	-0.172027
H	 0.8942152956	 1.9887058879	 0.2930368945	 0.127952
H	-0.3647183735	 1.9722762686	-0.9511484239	 0.117332
H	-0.8079351166	 1.8845024703	 0.7602345548	 0.122623
H	 0.7171165306	-0.2648781404	-2.0910482765	 0.105772
H	 1.7898225813	-1.0327955687	-0.8926198778	 0.111908
H	-0.7974913373	-2.1737744771	-1.9029805356	 0.09634
H	 1.2663482807	-3.8046029121	 1.1513813225	 0.122815
H	-0.6568189674	-0.2965453042	 2.0096883097	 0.096413
H	-2.1985148487	-0.8886170361	 0.0032321946	 0.088109
