23
gdb 72483	2.44077	1.73166	1.44058	1.2548	83.93	-0.2443	0.0781	0.3224	1052.7475	0.209189	-388.320217	-388.312345	-388.3114	-388.35187	32.821	
C	-0.0808113453	 1.5084072776	 0.0135790777	-0.468068
C	 0.0231112173	-0.0141427388	-0.0049236136	 0.290816
C	 0.8256772323	-0.5775301776	-1.209917959	-0.223807
C	 1.4213388925	-1.9307839668	-0.7184645848	-0.208482
C	 0.9092940765	-2.0809188812	 0.7355259036	-0.024096
C	 0.7874846869	-0.6176322779	 1.1933324634	-0.244861
C	-0.4943569365	-2.7039887089	 0.7473761619	-0.078503
O	-1.3613459276	-2.0494060668	-0.1669701783	-0.252494
C	-1.3877223151	-0.6412122741	 0.0027093937	-0.096373
H	 0.9128462911	 1.9655709153	 0.0715842883	 0.112204
H	-0.5696972634	 1.8868875328	-0.8915605823	 0.112688
H	-0.6599156576	 1.8613208488	 0.8748218364	 0.110946
H	 0.1888153597	-0.7037150827	-2.0900442409	 0.099745
H	 1.6214778965	 0.1228567265	-1.4844828498	 0.087591
H	 1.111357063	-2.7704984908	-1.3463036682	 0.100267
H	 2.5150982439	-1.9013713837	-0.7318811743	 0.091189
H	 1.5750583819	-2.6815958604	 1.3631654374	 0.059311
H	 1.77351404	-0.1499319621	 1.3039960429	 0.08546
H	 0.2526117635	-0.5020937071	 2.1429463358	 0.08572
H	-0.4665024092	-3.7514642619	 0.42997848	 0.10186
H	-0.9119805185	-2.6690579742	 1.7687190035	 0.080081
H	-1.9010982202	-0.3757735798	 0.9438926773	 0.078846
H	-1.9884511717	-0.2545765359	-0.8278001908	 0.099959
