21
gdb 37067	3.11784	1.59927	1.36048	1.7402	80.74	-0.244	0.0841	0.3281	1026.344	0.18633	-387.098772	-387.091602	-387.090658	-387.12986	30.084	
C	 0.0493484328	 1.4086510302	-0.0505230503	-0.382106
C	 1.3768143078	 0.691862059	 0.0167456198	 0.290958
C	 2.0455301688	 0.5267607258	 1.3690877676	-0.301581
C	 0.9114450849	 0.019794211	 2.3019225567	-0.218982
C	-0.0664423294	-0.7619862693	 1.3821925562	-0.301582
C	 0.0803202417	-0.0992761632	 0.0247875268	 0.290959
C	 0.0384225407	-0.8180335151	-1.3076276532	-0.162368
O	 0.9753210932	-0.1300776491	-2.1426454482	-0.260313
C	 2.0230919263	 0.3930430493	-1.3199419486	-0.162367
H	-0.2856391483	 1.9664366505	 0.8172513601	 0.107328
H	-0.2249297849	 1.8484407308	-1.0038959253	 0.12064
H	 2.8375881928	-0.2283988423	 1.2847947989	 0.097628
H	 2.5131121682	 1.4397113603	 1.7533605849	 0.09897
H	 1.2897861587	-0.5918479852	 3.1256121886	 0.099719
H	 0.3955056487	 0.8699570408	 2.7594734621	 0.10757
H	 0.2421124754	-1.8121827316	 1.3009036721	 0.097628
H	-1.0886495941	-0.7581125775	 1.7757084107	 0.09897
H	 0.3250514901	-1.8748276081	-1.1710599565	 0.084365
H	-0.9246159956	-0.7883225906	-1.8282795264	 0.1051
H	 2.4323560548	 1.260159381	-1.8491075122	 0.1051
H	 2.8330245074	-0.3444225069	-1.1866247639	 0.084365
