20
gdb 94327	2.59024	1.22122	1.09985	1.688	86.18	-0.2392	0.0355	0.2746	1230.3955	0.169576	-365.945163	-365.935955	-365.935011	-365.979223	35.069	
C	-0.2488220529	 1.4538442861	 0.0988907203	-0.389669
C	 0.0344859245	-0.0381515131	-0.0404029036	-0.062012
C	 1.2852759727	-0.4090897848	-0.9026809441	-0.224921
C	 2.0748228682	-0.7721587248	 0.3920900329	-0.319015
C	 0.7550729005	-0.6668378548	 1.1624319299	 0.378816
N	 0.5336125734	-0.2935971998	 2.5474427292	-0.370802
C	 0.2093053476	-1.6817780527	 2.1142934264	-0.34122
C	-1.1734205034	-2.0672981266	 2.1034003295	 0.389775
C	-2.3252034596	-2.4111069362	 2.05966353	-0.447576
H	 0.6595808306	 2.0103825055	 0.356225936	 0.107321
H	-0.6399675334	 1.864366206	-0.8380461039	 0.10903
H	-0.9810688557	 1.6351993112	 0.8906041394	 0.134041
H	-0.8809524738	-0.567346093	-0.3215862141	 0.083087
H	 1.1181594172	-1.2706324949	-1.5525180831	 0.106023
H	 1.7023582807	 0.4042245763	-1.5008488435	 0.099821
H	 2.5834672289	-1.739649996	 0.4116898802	 0.103967
H	 2.7922749633	 0.0021205757	 0.683454334	 0.107
H	 1.4100394492	-0.3012891054	 3.0661544554	 0.232078
H	 0.8999058809	-2.4669633297	 2.4173979425	 0.10721
H	-3.344581939	-2.707181079	 2.0359200864	 0.197048
