19
gdb 106294	3.75594	1.16686	1.0899	2.1232	76.01	-0.2251	0.0143	0.2394	1161.4472	0.158498	-422.982593	-422.974133	-422.973189	-423.015325	33.504	
O	-0.0594730167	 1.4040726274	-0.1772390127	-0.423487
C	 0.0113495262	-0.0063487072	-0.0094488364	-0.204599
C	-1.3946757546	-0.5416682178	 0.0037420452	 0.313668
C	-2.3253574165	-0.5164405578	-1.264853292	-0.268852
C	-3.1070249502	-1.5596433694	-0.4146450189	 0.370661
O	-4.0555985729	-2.3628563431	-1.0385765552	-0.485656
C	-1.6990096239	-2.0793640032	 0.0601978958	-0.331929
C	-3.5032549165	-0.6925494146	 0.7994946061	-0.18509
C	-2.3801511744	-0.0270030112	 1.0700186532	-0.103994
H	 0.8366009366	 1.7531662731	-0.173035423	 0.288423
H	 0.5816581422	-0.4782556683	-0.8252362344	 0.084921
H	 0.5140822226	-0.2696666277	 0.9364063922	 0.084942
H	-2.8293098006	 0.4214706848	-1.5012820406	 0.104226
H	-1.8555163371	-0.9539068098	-2.1517989823	 0.093237
H	-4.4576850813	-2.9319668117	-0.3736886344	 0.278444
H	-1.178330499	-2.6549063012	-0.7121269189	 0.093825
H	-1.6356915174	-2.5683382446	 1.03571896	 0.08589
H	-4.4806714998	-0.6559048623	 1.2613467465	 0.097958
H	-2.1623796266	 0.7197679147	 1.8200506497	 0.107409
