23
gdb 81708	2.49457	1.49482	1.23286	1.3839	84.12	-0.249	0.0787	0.3277	1140.073	0.209068	-388.293604	-388.285506	-388.284562	-388.325529	33.586	
O	-0.1446892641	 1.4567501353	 0.0185780488	-0.456566
C	-0.0026386466	 0.0455273248	-0.010802049	 0.137142
C	 0.2937609183	-0.5745978216	 1.3887213381	-0.031318
C	-1.2467287236	-0.6890338688	 1.5911616123	-0.239773
C	-1.4176994073	-0.5876183404	 0.0466942324	 0.009903
C	-1.5523349866	-1.9323598534	-0.680211694	-0.220093
C	-0.7678345646	-3.1153505043	-0.0816046559	-0.188586
C	 0.725453364	-2.8507000506	 0.1660885334	-0.188879
C	 1.0460937932	-1.913583899	 1.3489963585	-0.212833
H	 0.7135912913	 1.8350358208	 0.2359087906	 0.276407
H	 0.6484545324	-0.2595796043	-0.8426368449	 0.050736
H	 0.8010057323	 0.1073263078	 2.0799902983	 0.0538
H	-1.6248663562	-1.5837366054	 2.0927628034	 0.087891
H	-1.6485607316	 0.1918881794	 2.094847175	 0.103286
H	-2.1915298861	 0.1011361827	-0.3024162833	 0.073555
H	-2.6133483601	-2.2093173995	-0.7114506376	 0.094055
H	-1.2456380264	-1.790875428	-1.7260970019	 0.094331
H	-1.2369314018	-3.4354685248	 0.8574380608	 0.096101
H	-0.8686151464	-3.9659159943	-0.7662815882	 0.090307
H	 1.2311983701	-3.8059759446	 0.350270124	 0.089805
H	 1.1739828086	-2.4526792746	-0.7535455553	 0.096592
H	 2.1253315324	-1.7135248349	 1.3382709425	 0.089423
H	 0.8468900889	-2.4451375521	 2.289483842	 0.094714
