18
gdb 39073	2.37953	2.17918	1.57671	2.1776	76.19	-0.2346	0.0033	0.2379	906.3307	0.151464	-401.964728	-401.957997	-401.957053	-401.995582	27.573	
C	 0.0316123997	 1.4063864115	 0.1908623856	-0.252497
C	 1.5020862465	 1.822182484	-0.0080147933	-0.073956
C	 2.2999965153	 1.639643046	 1.3043585066	-0.156491
N	 2.2176237118	 0.3805244804	 2.0078382219	-0.259551
C	 1.4232628262	-0.5895843762	 1.8875398898	 0.129895
O	 0.3707337626	-0.8926045441	 1.0763112951	-0.244173
C	 0.0641665045	-0.1015317255	-0.0953267883	 0.084746
C	 1.1692072614	-0.2225095868	-1.1230661171	-0.094036
C	 1.9638101636	 0.8448500299	-1.0678719113	-0.05427
H	-0.3657073484	 1.6329317762	 1.1836622764	 0.109659
H	-0.6054168706	 1.8922862511	-0.5545220833	 0.106876
H	 1.6083597641	 2.8664520186	-0.32278493	 0.071927
H	 3.363138236	 1.8337836903	 1.1125568178	 0.11017
H	 1.9837683352	 2.4206404545	 2.0114617132	 0.112944
H	 1.5274885501	-1.4254352369	 2.5817945539	 0.115857
H	-0.8978630103	-0.5043188447	-0.4182766125	 0.088044
H	 1.3065677464	-1.1062519963	-1.7335551691	 0.102248
H	 2.8726628057	 0.9897870382	-1.6415382354	 0.102611
