19
gdb 24128	4.85168	0.9327	0.87826	1.7	83.32	-0.1946	0.0474	0.2419	1368.788	0.161519	-382.073669	-382.065573	-382.064629	-382.107204	30.825	
C	-0.1237758029	 1.6373584249	 0.092141783	-0.28462
N	-0.2167146384	 0.2524412672	-0.3798870812	-0.07709
C	-0.1887547628	-0.7819270283	 0.649013423	-0.212589
C	-1.4528967769	-0.4551166911	-0.0680471078	-0.220009
C	 1.3056343366	 2.06846588	 0.1726272188	 0.32398
C	 1.9797891239	 2.87462247	 1.0638415872	-0.245817
C	 3.3277963309	 2.9770410133	 0.6163578029	-0.140583
C	 3.4364322337	 2.2250073294	-0.5303818831	-0.096485
N	 2.202253956	 1.6892115231	-0.7946911403	-0.265778
H	-0.6851160282	 2.2530700436	-0.6250608808	 0.113244
H	-0.5994006523	 1.7838585155	 1.076892476	 0.09475
H	 0.36784754	-1.6815835513	 0.4033442334	 0.11715
H	-0.102754211	-0.4625210134	 1.6858647359	 0.118462
H	-2.2181495658	 0.0810478084	 0.4909763458	 0.111852
H	-1.8338803977	-1.1111937127	-0.8455598304	 0.117423
H	 1.5488585398	 3.344717998	 1.9352818347	 0.083636
H	 4.1238235038	 3.5353223291	 1.0847762405	 0.088667
H	 4.2805516468	 2.0207318253	-1.1693350276	 0.110491
H	 1.9733981344	 1.0291814491	-1.5186974802	 0.263315
