23
gdb 104995	2.27851	1.24619	1.02278	0.6261	90.94	-0.2554	0.0543	0.3097	1322.7655	0.20333	-351.116727	-351.106263	-351.105319	-351.151935	39.759	
C	-1.4796680029	-0.1787470901	-0.1725860959	-0.386074
C	 0.039627186	-0.2027255407	 0.0394098994	-0.254886
C	 0.838678507	-0.7371946498	-1.1454293593	 0.381562
C	 2.1708323197	-1.3751349698	-0.8353725075	-0.313099
C	 0.9921855275	-2.2375477484	-1.2229285789	-0.314492
C	 0.6983194546	 0.0731517329	-2.4508975185	-0.234597
C	 1.1963863845	 1.5281347744	-2.2909114422	-0.391509
C	 1.3713927794	-0.5514853996	-3.5900509546	 0.316013
C	 1.9341489519	-1.0317067911	-4.5384763508	-0.463758
H	-1.7741917757	 0.5240349433	-0.9586495739	 0.117841
H	-1.8540979765	-1.1685517401	-0.4541888161	 0.120568
H	-1.9935887604	 0.1271162859	 0.7439833946	 0.111752
H	 0.3883782832	 0.8020335754	 0.308109661	 0.098039
H	 0.26611967	-0.8349532182	 0.9060694408	 0.09307
H	 2.9670093113	-1.2717896984	-1.5643150181	 0.120767
H	 2.5038990729	-1.3838876199	 0.1972605485	 0.103187
H	 0.5133452287	-2.8307716116	-0.4506190066	 0.102107
H	 1.0177895852	-2.7051887219	-2.1999781226	 0.123292
H	-0.3714777932	 0.1124798781	-2.6989221565	 0.107478
H	 1.1058723815	 2.0681709899	-3.2366263162	 0.123685
H	 0.6128646423	 2.0624337977	-1.5367702461	 0.117732
H	 2.2473158613	 1.5410511222	-1.9883445926	 0.128055
H	 2.4217618517	-1.4617606204	-5.378042418	 0.193266
