18
gdb 38238	3.26844	1.77909	1.44548	2.1809	76.05	-0.2376	0.0234	0.261	928.72	0.151294	-401.898204	-401.891749	-401.890804	-401.928793	26.906	
C	-0.0269229654	 1.6115873867	 0.1540239557	-0.259179
C	 1.4646606487	 1.2185701442	 0.0083532122	-0.07917
C	 1.174693914	 0.0488068035	 1.0197192298	-0.304532
C	-0.0118908356	 0.0505566608	 0.0202370252	 0.289247
C	-1.1753011291	-0.8145539772	-0.3457458611	-0.205364
O	-1.5871443234	-0.451819478	-1.6938708748	-0.242678
C	-0.7368437131	 0.1978437224	-2.5336947001	 0.132173
N	 0.4673263421	 0.5769817083	-2.3823659613	-0.296256
C	 1.0311316227	 0.2078963247	-1.1037539998	 0.053952
H	-0.3360466249	 2.0030850327	 1.1269238234	 0.087831
H	-0.4670478761	 2.1794662164	-0.6654913355	 0.11418
H	 2.3284212314	 1.8837815834	 0.0121742905	 0.078774
H	 1.8460520622	-0.8140539329	 0.9840647164	 0.095886
H	 0.9587445981	 0.3499621868	 2.0475697692	 0.097293
H	-0.9024837845	-1.8768269194	-0.3507772316	 0.118681
H	-2.0661619983	-0.6842475866	 0.2757077525	 0.120668
H	-1.2627712264	 0.3906829957	-3.4675807132	 0.124046
H	 1.7285791078	-0.6276437014	-1.2360127276	 0.074448
