20
gdb 79134	2.65158	1.63475	1.42602	2.0363	77.11	-0.2233	0.0752	0.2985	1014.2955	0.172505	-403.108879	-403.101047	-403.100102	-403.140786	31.54	
C	-0.328837531	 1.5568086892	 0.1219103396	-0.421791
C	 0.0497576944	 0.0912148684	-0.032152981	 0.074966
C	 0.6598759831	-0.5242999123	-1.3215433967	-0.089274
C	 1.5769989542	-1.3138847894	-0.3548800022	-0.04211
C	 2.4779864834	-0.242682888	 0.1017307603	-0.008955
C	 2.6450166324	 0.8247319818	-0.9705258888	-0.285725
C	 1.5844212113	 0.4529520809	-2.0466498983	 0.134816
O	 2.1501993341	-0.2532857663	-3.143257	-0.444889
N	 1.1788951555	-0.4436094476	 0.8157418117	-0.174236
H	 0.4597670394	 2.2484864734	-0.1807993182	 0.11702
H	-1.2230362376	 1.7845615286	-0.4688148913	 0.117059
H	-0.5611695785	 1.758215109	 1.1730589395	 0.128345
H	-0.8177682213	-0.513019628	 0.2545323713	 0.086501
H	-0.0109853284	-1.0574573668	-1.9940113891	 0.075008
H	 1.7237228443	-2.3838124481	-0.2748266811	 0.091555
H	 3.3153175204	-0.4711166751	 0.7524651875	 0.093523
H	 2.5284210864	 1.8421459702	-0.5857638783	 0.10662
H	 3.6495764217	 0.7565044636	-1.403152857	 0.098426
H	 1.0365307115	 1.3379754762	-2.4020713273	 0.063292
H	 2.7768702946	 0.3300697603	-3.5831351007	 0.279849
