15
gdb 84059	3.55425	1.21985	1.01493	4.144	73.18	-0.2614	-0.0585	0.2029	1129.3199	0.114536	-416.797101	-416.789712	-416.788768	-416.829133	28.325	
O	 0.0461630678	 1.4009645861	-0.1072485211	-0.428729
C	 0.0411878382	-0.0117741159	-0.0621399335	 0.107241
C	 0.7164672196	-0.5488654101	 1.19431274	-0.213155
C	-0.1134299353	-1.2937623911	 1.9395913571	 0.25313
C	 0.1837169365	-1.9058608516	 3.1864961766	 0.203107
N	 0.3965420996	-2.429942004	 4.197429892	-0.333798
C	-1.4723639967	-1.367997261	 1.2960424223	-0.164232
N	-2.0975939349	-0.0222010043	 1.184012319	-0.343392
C	-1.3709649104	-0.6048877985	 0.0341526921	-0.079649
H	-0.5802526515	 1.6786761195	 0.5769235542	 0.294311
H	 0.5590252068	-0.3474841729	-0.9673991349	 0.103973
H	 1.7285946237	-0.2734528478	 1.4635510026	 0.133845
H	-2.1015842696	-2.2406593206	 1.4222150238	 0.116916
H	-3.0997083969	-0.1248528493	 1.0372383038	 0.244204
H	-1.916645037	-0.8764842984	-0.8613892141	 0.106227
