19
gdb 95041	2.49115	1.81391	1.26443	1.0729	74.88	-0.2429	0.0212	0.2641	1020.8789	0.161724	-423.03761	-423.029964	-423.029019	-423.070031	30.054	
O	 0.1322336887	 1.3776246886	-0.2723424571	-0.425241
C	 0.0154667041	 0.0143180056	 0.0924678943	 0.102758
C	 0.3447663103	-0.2847039583	 1.5650481919	-0.125545
O	-0.2903909277	-1.5211762917	 1.8261491468	-0.260754
C	-1.5677983918	-1.4850785372	 1.1625524108	 0.070461
C	-2.655753859	-0.8962192644	 2.0249028522	-0.086603
C	-3.158756914	 0.2234673162	 1.5101780909	-0.062037
C	-2.5334287057	 0.597807984	 0.1910268333	-0.271339
C	-1.4445441555	-0.4864348043	-0.0337328463	-0.081053
H	 1.0621018741	 1.6202815083	-0.2284613075	 0.2875
H	 0.6570407324	-0.6093410109	-0.54646254	 0.073465
H	 1.4133499308	-0.4062356083	 1.7678447558	 0.096975
H	-0.045937553	 0.530419313	 2.1953103994	 0.095296
H	-1.7759155141	-2.5191638707	 0.8687101793	 0.078539
H	-2.9476057613	-1.356374911	 2.9620393879	 0.09629
H	-3.9427758769	 0.8211758807	 1.9645744557	 0.094649
H	-3.2740599958	 0.5857244683	-0.6181229849	 0.104708
H	-2.1104437949	 1.606903478	 0.2015363101	 0.133715
H	-1.5887004506	-0.9844695759	-0.9931006025	 0.078217
