13
gdb 131702	4.22584	1.01853	0.82669	1.0003	68.91	-0.2764	-0.0541	0.2222	1288.9155	0.087967	-452.702608	-452.694439	-452.693495	-452.736085	28.772	
O	-0.0650555362	 1.3835946675	-0.4883108861	-0.406351
C	-0.0341720193	 0.1585449645	 0.1931725238	-0.16738
C	-1.3283621096	-0.5818745767	 0.0519345703	 0.387481
N	-2.25323892	-0.3379766712	-0.822390503	-0.370365
C	-3.1810678281	-1.3255532607	-0.5412278583	 0.195265
N	-2.8398219253	-2.1245743937	 0.4456607918	-0.169636
O	-1.5957245245	-1.623856825	 0.8436294141	-0.184879
C	-4.4003715658	-1.4772702507	-1.2462359899	 0.277975
C	-5.4314418016	-1.5986753165	-1.850374364	-0.359159
H	-0.6731546662	 1.2887064859	-1.2324269786	 0.306961
H	 0.7746803127	-0.5005693592	-0.1665484091	 0.131826
H	 0.1621542519	 0.3490216248	 1.2545977763	 0.147973
H	-6.3444776979	-1.706559719	-2.3831958673	 0.21029
