17
gdb 47662	2.64474	1.552	1.17071	2.5746	70.37	-0.2442	-0.0034	0.2409	1059.37	0.138028	-455.165373	-455.157471	-455.156527	-455.198049	29.829	
O	-0.0704637279	 0.0028943897	 0.1921257992	-0.365408
C	-0.0641986303	 1.2067606009	 0.0092635858	 0.359334
C	-1.4017823138	 1.9507483619	-0.0752031553	-0.195698
O	-1.3200037009	 3.3621275125	 0.0872140338	-0.231285
C	-0.9660293126	 3.7724176701	 1.3538286815	 0.096914
N	 0.1552984805	 4.2176853153	 1.6995398651	-0.203155
C	 1.3013656419	 4.2449819572	 0.8053923574	-0.135915
C	 1.3186162768	 3.3247412264	-0.4361760298	-0.186159
N	 1.0941767762	 1.912910464	-0.1419887903	-0.292038
H	-1.8374152002	 1.7787809848	-1.0633816716	 0.147587
H	-2.0630364526	 1.4922936266	 0.670173506	 0.139665
H	-1.7834733461	 3.7208402719	 2.0774334164	 0.122468
H	 1.44526905	 5.2806452474	 0.4687110887	 0.124205
H	 2.1741220292	 4.009781739	 1.4270608704	 0.117568
H	 0.6075919232	 3.6692924068	-1.1851230151	 0.141461
H	 2.3171300774	 3.3992282733	-0.8808145244	 0.10912
H	 1.9088211293	 1.3264561221	-0.030548758	 0.251336
