17
gdb 54180	3.33968	1.09264	0.94951	1.5342	70.86	-0.2501	-0.0168	0.2333	1235.5799	0.13432	-455.177571	-455.168163	-455.167219	-455.211984	33.898	
C	 0.2854007694	 1.2790296876	-0.3358257649	-0.466086
C	 0.0112151627	-0.1509467649	 0.0740789184	 0.174869
C	 0.6767974462	-1.2800434171	-0.6823611041	-0.25677
N	 1.0688273008	-0.9699039745	 0.6722328167	-0.119557
C	 2.3382354755	-0.5242334187	 1.0233341434	 0.137658
O	 3.3653028534	-0.9382028636	 0.5489162156	-0.277298
C	-1.3962438185	-0.3909378412	 0.6056121098	 0.367923
N	-1.5109307643	-1.4385908738	 1.4629457618	-0.536446
O	-2.3281613565	 0.2992752053	 0.2393586104	-0.36229
H	 1.2685747082	 1.3708756057	-0.8052837424	 0.128118
H	-0.4843163296	 1.6011255301	-1.0391927343	 0.161806
H	 0.242962155	 1.951964968	 0.5259716554	 0.134959
H	 0.1458280968	-2.2167842658	-0.8221159115	 0.136784
H	 1.3769839003	-1.0128989816	-1.4695963812	 0.145541
H	 2.3005741148	 0.2114687195	 1.8483033306	 0.093904
H	-0.6845025823	-1.8709996589	 1.8410688226	 0.271569
H	-2.4108208219	-1.620479206	 1.8747369336	 0.265314
