21
gdb 118862	2.49914	0.98514	0.84998	1.5789	76.75	-0.235	0.0775	0.3125	1479.2571	0.179048	-461.316568	-461.305947	-461.305003	-461.352649	37.721	
C	 0.0353431432	 1.3092860787	 0.1507088805	-0.226036
O	 0.2510138805	-0.0796091145	 0.0701561413	-0.251477
C	 0.609710549	-0.6609224639	 1.3144473868	-0.128503
C	 0.6441506786	-2.1496535994	 1.1015965168	 0.357194
O	-0.5885400712	-2.6874321892	 0.7145633123	-0.474423
C	 1.911288965	-2.7838069214	 0.5446588644	-0.378783
C	 1.4920137538	-3.0429885966	 1.9627392408	 0.066584
O	 2.2966128101	-2.5139241145	 2.9685605681	-0.233971
C	 1.6438257497	-2.4581248843	 4.2233181616	-0.238668
H	 0.9418148501	 1.8440432865	 0.4745952577	 0.107147
H	-0.2408410571	 1.6570502664	-0.8477513411	 0.127741
H	-0.777076099	 1.5569907618	 0.8521028131	 0.106182
H	 1.5831962495	-0.2885075154	 1.6628672017	 0.101549
H	-0.1483629139	-0.4074070641	 2.0741216419	 0.088441
H	-0.8573801018	-2.1893708986	-0.0677981385	 0.288313
H	 1.799250016	-3.5922927573	-0.1680401276	 0.11779
H	 2.7705943631	-2.1392197461	 0.3961085886	 0.123589
H	 1.0577656551	-4.0190959729	 2.1858418734	 0.095948
H	 0.7559815196	-1.8107899473	 4.1954932152	 0.111767
H	 1.3310385612	-3.4584594743	 4.5576713375	 0.112157
H	 2.3610832786	-2.0526120937	 4.9405699856	 0.127462
