18
gdb 93047	2.49851	1.9193	1.2754	1.6368	72.45	-0.2507	0.0195	0.2702	1005.5697	0.149384	-439.081788	-439.074154	-439.07321	-439.114059	29.065	
C	 0.1105688239	 1.5658511687	-0.0533369364	-0.404521
C	 0.0780648505	 0.0478422901	 0.0110788611	 0.104728
O	 0.6643520189	-0.4398497669	-1.2146970419	-0.236759
C	 1.1453343961	-1.7011381066	-1.2218341853	 0.130799
N	 1.4191769034	-2.4718099212	-0.2551835702	-0.269686
C	 1.3065684721	-1.9589110986	 1.091817213	-0.0482
C	 2.6298535842	-1.3353190886	 1.6034711998	-0.072542
O	 2.0954043062	 0.000150956	 1.4667199619	-0.292691
C	 0.7672955255	-0.5156863211	 1.2398688155	 0.093345
H	 1.1439589182	 1.9157070676	-0.0038594215	 0.150541
H	-0.343381227	 1.9152033098	-0.9837744871	 0.12826
H	-0.4437564067	 1.9912196573	 0.7886659988	 0.120413
H	-0.9599593921	-0.3159405627	 0.0303012841	 0.090297
H	 1.3024812796	-2.0315621938	-2.2475434101	 0.125019
H	 0.8601754201	-2.7182192458	 1.7364984865	 0.088405
H	 2.8716798831	-1.5693454766	 2.6478780767	 0.101446
H	 3.5037740549	-1.5045796882	 0.9678981466	 0.117034
H	 0.1240341291	-0.3538956792	 2.1168904685	 0.074112
