15
gdb 51073	4.29838	1.10037	1.03838	2.6513	65.84	-0.2523	-0.0093	0.243	1141.8207	0.111769	-457.699942	-457.692663	-457.691719	-457.732467	27.051	
O	 0.0861004044	-0.0652616066	 0.1797759748	-0.25582
C	 0.1028084241	 1.1196794243	 0.2844904625	 0.148149
O	 1.0536835268	 1.8844740594	-0.3291136663	-0.229627
C	 0.9366701185	 3.2509295659	-0.1801267073	 0.34422
C	 2.0028045049	 4.3110868842	-0.0401634054	-0.170354
C	 1.4454233697	 5.1115532697	-1.2161813315	-0.229287
C	 0.1025068372	 4.4021072473	-0.9054425513	-0.002936
O	-0.2828052099	 4.9372445338	 0.3897484195	-0.277373
C	 0.8028272857	 4.2119336611	 0.9518700955	-0.004513
H	-0.6088573289	 1.7272936412	 0.8707999556	 0.10677
H	 3.0234879315	 4.1894908385	 0.2975208247	 0.110799
H	 1.4300901289	 6.2028988016	-1.1555269776	 0.112094
H	 1.8723276867	 4.7776483292	-2.1645262573	 0.118946
H	-0.721638059	 4.3242414919	-1.6103750015	 0.103347
H	 0.8995496393	 4.1296981385	 2.0256786355	 0.125586
