12
gdb 133461	3.5442	1.24387	1.09662	4.0217	53.07	-0.2475	-0.0014	0.2462	1034.8816	0.076113	-563.208978	-563.201814	-563.20087	-563.242768	25.807	
F	-0.4952734744	 0.2869933633	-0.425185377	-0.058356
C	 0.0161700563	 1.418392314	 0.0657445014	 0.255159
F	 1.321787677	 1.2164285459	 0.2591202404	-0.058436
F	-0.1161382637	 2.3736838674	-0.8804715048	-0.095622
C	-0.680384252	 1.8599530542	 1.3157792997	 0.168321
N	-0.7581193348	 1.1852926272	 2.4375574644	-0.291647
C	-1.4847542713	 1.9839832258	 3.2839086343	-0.089947
C	-1.8450633744	 3.1516703442	 2.6571659292	-0.098688
N	-1.3218582127	 3.0595463519	 1.3919924391	-0.274212
H	-1.7073959468	 1.67577104	 4.2936825063	 0.120842
H	-2.4065155617	 4.011917019	 2.9807684028	 0.141189
H	-1.3880448514	 3.7369134871	 0.6504120741	 0.281398
