16
gdb 47278	3.32897	1.29055	0.97296	2.1241	77.62	-0.2579	-0.0849	0.173	1155.6555	0.125791	-437.917159	-437.909459	-437.908514	-437.949971	28.844	
N	-0.0257755263	 0.6479292713	 1.3268389512	-0.494454
C	 0.0945247119	 0.0713227482	 0.1965118581	 0.353309
O	 1.3054209835	-0.3755172792	-0.2254234785	-0.252059
C	 1.5415768089	-0.6774965081	-1.6026600788	-0.114672
C	 0.8952690065	-1.9856959046	-2.0412837518	-0.315489
C	-0.5882087646	-1.8846766958	-2.3586995691	 0.361172
O	-1.0885759663	-2.5836450014	-3.2175214987	-0.314539
C	-1.4376239406	-0.9195502451	-1.6219427488	-0.181416
C	-1.1401509582	-0.1153833249	-0.5884110873	-0.074411
H	 0.8866351991	 0.7028381628	 1.7854907606	 0.228153
H	 1.21921146	 0.1604955827	-2.2323398256	 0.123536
H	 2.6284035326	-0.7552475414	-1.6758413807	 0.132587
H	 1.3870948655	-2.3780206173	-2.9360654063	 0.135648
H	 1.0371151485	-2.7285026841	-1.2457967599	 0.145173
H	-2.4586281688	-0.9130546002	-1.9936185368	 0.124261
H	-1.9392577715	 0.4879491572	-0.1700365775	 0.143201
