17
gdb 72110	2.68943	1.85881	1.4663	1.4903	70.95	-0.2336	-0.017	0.2165	931.7812	0.136516	-421.800513	-421.793337	-421.792393	-421.831929	28.478	
C	 0.0033201166	 1.539479382	 0.0245830037	-0.509198
C	 0.0362971992	 0.0344328016	 0.0167403198	 0.138329
C	-1.2650932148	-0.7908162187	-0.1833620369	-0.257168
C	-0.6874204806	-2.0763389975	 0.4464001736	 0.069524
O	-0.4282393508	-1.6280435632	 1.8098210392	-0.289994
C	 0.6335678103	-0.8883381098	 1.2057376745	 0.065145
C	 0.8418651736	-1.9446906428	 0.0721514627	-0.218563
C	 0.9736756173	-0.7769680965	-0.8932505352	 0.412522
O	 1.6706947989	-0.519355734	-1.8323187475	-0.330985
H	 1.0041151984	 1.9568184018	 0.1734387334	 0.128466
H	-0.3731920559	 1.9245750537	-0.928934009	 0.134083
H	-0.6474093098	 1.9166590565	 0.8203835403	 0.125706
H	-2.1086421807	-0.4234477726	 0.4053262992	 0.117598
H	-1.555102511	-0.8818891274	-1.2337523631	 0.114223
H	-1.2315517702	-3.0171769031	 0.3851536009	 0.094304
H	 1.3963275251	-0.4936707355	 1.873155058	 0.104663
H	 1.4948372945	-2.8101717245	 0.1341066162	 0.101344
