19
gdb 89879	2.99312	1.03546	0.90142	3.5708	78.59	-0.2354	-0.0195	0.2159	1350.4333	0.157038	-423.01038	-423.001431	-423.000487	-423.044695	33.178	
C	-0.784315373	 1.2505923088	 0.2647874048	-0.398276
C	-0.0131569777	-0.0372533796	 0.0712340922	 0.154432
C	 0.765467989	-0.2296515957	-1.253688775	-0.385393
C	 1.9894471999	-0.2603165335	-0.3453444544	 0.452193
C	 3.1973944112	-1.1062873922	-0.3668486811	-0.373237
C	 3.3458436378	 0.419800354	-0.4975422737	-0.182529
C	 3.7225360666	 0.9930838876	-1.8029605602	 0.164283
O	 4.3047586588	 2.0385128808	-1.9622671871	-0.268891
O	 1.2320945585	-0.0561960186	 0.8341406679	-0.314424
H	-0.1776790853	 2.1148033527	-0.0222288944	 0.12866
H	-1.6946577526	 1.243406313	-0.3447364159	 0.120217
H	-1.0757202349	 1.3668182213	 1.3130980132	 0.132298
H	-0.626692169	-0.9029448564	 0.3483427704	 0.086182
H	 0.5600275059	-1.1547591084	-1.7949795012	 0.118674
H	 0.7070295051	 0.6171668186	-1.9403298173	 0.123103
H	 3.5300587628	-1.5416132394	 0.5685293519	 0.139381
H	 3.3991401119	-1.7007915123	-1.2535504391	 0.124931
H	 3.6938065132	 0.9646414765	 0.3733982245	 0.119143
H	 3.4143988418	 0.3701015627	-2.6778581655	 0.059254
