15
gdb 25859	4.13036	1.13372	0.89339	6.8771	85.77	-0.1903	-0.0489	0.1413	1226.5931	0.11482	-450.156709	-450.148689	-450.147745	-450.189237	30.606	
N	 0.1485681161	 1.3487526054	 0.1755067962	-0.562099
C	-0.0104659525	-0.0172049156	 0.0099407293	 0.17913
N	 1.1599958344	-0.7198919308	-0.1492392741	-0.541912
H	 1.0430854318	-1.7233979528	-0.1390764882	 0.284136
H	 1.9402269838	-0.3930087139	 0.4036259358	 0.262201
C	-1.2209380928	-0.6469771794	 0.0121608794	 0.358701
C	-2.5665769379	-0.2009129613	-0.027831423	-0.142853
N	-3.4109151541	-1.1944460643	-0.0141717979	-0.308352
C	-2.6304867267	-2.361727238	 0.0278236585	 0.422395
N	-2.9724521661	-3.5806685358	 0.0475829818	-0.558303
O	-1.2798517325	-2.029164005	 0.0434107546	-0.266407
H	 0.8043200897	 1.7679887475	-0.4723963292	 0.26191
H	-0.7097958257	 1.8752483781	 0.2393955167	 0.264101
H	-2.9007153472	 0.8303158086	-0.0717314601	 0.117749
H	-3.9895674902	-3.6268307527	 0.0313907303	 0.229604
