15
gdb 55613	2.35529	1.16817	0.89842	4.3642	74.01	-0.2815	-0.0136	0.2679	1306.6842	0.109442	-416.780902	-416.771275	-416.770331	-416.816568	33.34	
C	-0.001631304	 1.4425215568	-0.1050264665	-0.465368
C	-0.0241133011	-0.0482454233	 0.0887476883	 0.414148
N	-0.0646768447	-0.725879704	 1.1557709815	-0.51048
O	 0.0090370638	-0.6655972278	-1.1280079895	-0.242019
C	 0.0163112939	-2.1007755996	-1.1070882784	-0.199447
C	-0.6244311286	-2.5911492436	-2.3214128767	 0.318728
C	-1.1664296382	-3.0210493752	-3.3010782406	-0.380455
C	 1.404572469	-2.5945448025	-0.9927838547	 0.299046
N	 2.486645903	-2.9868556748	-0.9045728153	-0.320656
H	 0.9232726997	 1.7380647874	-0.609234822	 0.161004
H	-0.8336679311	 1.7514727844	-0.7442760488	 0.156046
H	-0.0692856198	 1.9588161752	 0.8533139834	 0.135062
H	-0.0963948181	-0.1291826954	 1.9776119259	 0.234079
H	-0.5240011948	-2.4380287856	-0.214188683	 0.186156
H	-1.641640979	-3.3997968621	-4.1727650034	 0.214155
