19
gdb 79831	2.2432	1.833	1.39876	0.498	74.51	-0.2272	0.0768	0.304	1014.3975	0.159934	-422.996051	-422.988122	-422.987177	-423.02809	31.27	
C	-0.0651606395	 1.5176265738	 0.0057876965	-0.525755
C	 0.0169576147	 0.0224083532	 0.0157210113	 0.351875
C	 0.0284779819	-0.9145513231	-1.152003586	-0.142097
C	 1.2766146702	-1.7845032638	-1.0851188607	-0.104049
O	 1.8219053736	-1.557869663	 0.2223868183	-0.26854
C	 0.8116557629	-0.9068248411	 0.976893554	-0.019418
C	-0.4720890245	-1.7917179244	 1.1363947537	 0.100561
O	-1.247625658	-1.4449144171	 2.2687372355	-0.439405
C	-1.0424260823	-1.0755263544	-0.0778716197	-0.132065
H	 0.9153016843	 1.9681001848	-0.1887359384	 0.123705
H	-0.7509668894	 1.8669675692	-0.7733526339	 0.119894
H	-0.4281052868	 1.9033791118	 0.9645357115	 0.12797
H	-0.315295252	-0.5590957471	-2.116920995	 0.091588
H	 1.0647800477	-2.8529692924	-1.2266515051	 0.099605
H	 2.020113546	-1.4825588011	-1.8328205772	 0.104291
H	 1.2440481	-0.505447136	 1.8942249022	 0.077715
H	-0.3092719422	-2.8782326937	 1.0780916459	 0.06223
H	-0.8143595102	-1.81549779	 3.0448290821	 0.282393
H	-2.0981146464	-0.9887033357	-0.308835785	 0.089501
