14
gdb 18551	4.30038	2.02909	1.62515	4.1015	61.93	-0.2535	-0.0065	0.247	776.8545	0.10922	-382.579434	-382.573453	-382.572509	-382.609605	23.084	
O	 0.0231673382	 0.0838283347	-0.6341561126	-0.320686
C	 0.0537837343	 1.1669795029	-0.1497221074	 0.454688
O	-0.9550414104	 1.8202452006	 0.5177115139	-0.256523
C	-0.1479754699	 3.03831456	 0.6790999671	 0.114997
C	 0.214225909	 3.3224603342	 2.1397943308	-0.280656
C	 1.5462282048	 2.6277726736	 2.3098297143	-0.057244
C	 2.0125843591	 2.1106311453	 1.1717446283	-0.077621
C	 1.0592551601	 2.3216033212	 0.0247312744	-0.265481
H	-0.6198298236	 3.8611729837	 0.1424914266	 0.101392
H	 0.2861973474	 4.3994775288	 2.336359351	 0.117753
H	-0.5616052682	 2.9297586478	 2.8078985723	 0.135384
H	 2.0491761667	 2.5668613868	 3.2682713689	 0.107408
H	 2.9402777348	 1.5637112375	 1.0579133996	 0.114889
H	 1.4976266577	 2.703199493	-0.8989757272	 0.111701
