18
gdb 54551	3.01874	1.5495	1.29353	2.1777	76.53	-0.2416	-0.0293	0.2123	1030.707	0.146806	-401.865995	-401.858009	-401.857065	-401.899227	30.201	
C	-0.0766754603	 1.4257156398	-0.2219646848	-0.495457
C	-0.0492116747	 0.0006457965	 0.2861398268	 0.255633
O	 0.9002647895	-0.4815066642	 0.8630854421	-0.29658
C	-1.3040635271	-0.8016290427	 0.0670847112	 0.297137
C	-2.2139402696	-0.932834486	-1.1655542815	-0.314911
C	-2.9350945596	-1.6532279147	-0.0254142223	-0.008574
C	-1.6307714283	-2.2215119845	 0.613987885	-0.102848
C	-2.0435238533	-1.6114331829	 1.9483001226	-0.191603
N	-2.5546158038	-0.5366147808	 0.9876283689	-0.194436
H	 0.8317342161	 1.9476656484	 0.0806160132	 0.141899
H	-0.1584788972	 1.4340804161	-1.3150927218	 0.142905
H	-0.9618795085	 1.9400587211	 0.167478594	 0.158436
H	-2.6819262369	-0.0115340489	-1.5220496159	 0.112224
H	-1.8390970103	-1.5475086148	-1.9874216689	 0.107853
H	-3.932490546	-2.0949060016	 0.0024815688	 0.088751
H	-1.1124589201	-3.1556039021	 0.3810942961	 0.077014
H	-2.8503878777	-2.09691045	 2.5067058845	 0.101555
H	-1.2567327822	-1.2636445186	 2.622061342	 0.121
