21
gdb 84492	2.51958	1.53978	1.15312	1.6281	84.45	-0.2341	0.0118	0.2459	1139.0979	0.182957	-387.089076	-387.080367	-387.079423	-387.122072	34.622	
C	-0.7439257816	 1.1413686794	-0.0616952921	-0.402033
C	 0.0084686426	-0.1844130659	-0.1098403858	-0.098489
C	 1.071147608	-0.2771151696	-1.2518126166	 0.072763
O	 1.6421571842	 0.9759491617	-1.6374183948	-0.430354
C	 2.116869253	-1.2001505553	-0.6707724196	-0.145792
C	 1.9767265618	-1.3212780192	 0.6515478945	-0.122448
C	 0.7823449554	-0.5978958676	 1.157928486	 0.334416
C	 0.8870315155	 0.2541110312	 2.411903062	-0.316851
C	 0.0854500437	-1.018134681	 2.4301148035	-0.315962
H	-0.0619536999	 1.9847514324	 0.0717209678	 0.1171
H	-1.2882484031	 1.3082368389	-0.9961406294	 0.117636
H	-1.4746307535	 1.1549493681	 0.7545244708	 0.106514
H	-0.7138508294	-0.987973133	-0.3060098057	 0.079995
H	 0.6160713057	-0.655525938	-2.1727754014	 0.08255
H	 2.2462948	 1.2393756949	-0.9341775331	 0.276015
H	 2.9209225139	-1.6148063765	-1.2674424114	 0.096754
H	 2.641362325	-1.8703430363	 1.3117047753	 0.096716
H	 1.8379541771	 0.2728245404	 2.9342258246	 0.109087
H	 0.3504733576	 1.1962905459	 2.4320322033	 0.118196
H	-0.996850016	-0.9360856263	 2.4562591545	 0.113459
H	 0.47863484	-1.8713526341	 2.9735412075	 0.110727
