11
gdb 20307	6.37139	1.59989	1.27878	3.0543	68.23	-0.2464	-0.0918	0.1546	856.9385	0.072978	-356.413133	-356.406914	-356.40597	-356.443578	22.691	
C	 0.0046856942	-1.1985797065	-0.0033469317	-0.342224
C	 0.0346492493	 0.0040356095	 0.0030176612	 0.221674
C	 0.0167205311	 1.4283741956	 0.0102897802	 0.18071
C	-1.200205426	 2.1351739361	 0.0302545007	-0.021762
N	-1.2426363777	 3.4599518612	 0.0375292268	-0.16591
N	-0.0935033685	 4.1354594844	 0.0255227162	-0.175253
C	 1.03816088	 3.4309044679	 0.0068255452	 0.098251
N	 1.1693800295	 2.1027413141	-0.0017196034	-0.29099
H	-0.0054164575	-2.2613926862	-0.009799061	 0.214738
H	-2.1535104715	 1.6173112703	 0.0404909533	 0.139425
H	 1.953536057	 4.0157423836	-0.0025584775	 0.14134
