23
gdb 86998	5.691	0.56423	0.54925	2.9682	88.34	-0.2465	-0.0177	0.2287	2054.1005	0.204166	-388.299979	-388.28981	-388.288866	-388.336421	36.697	
C	-0.0284625985	 1.6061698467	-0.0061258175	-0.407019
C	 0.048360621	 0.0877133837	 0.0042973117	 0.058406
C	 1.0683222068	-0.6273962516	-0.9263037006	-0.260398
C	 1.3413510565	-1.6478810481	 0.2133481607	 0.0551
C	 2.7672798554	-2.135506995	 0.4357739784	-0.225356
C	 2.9071022766	-3.0257307344	 1.6852510627	-0.270502
C	 4.3456841711	-3.3985759964	 1.9524555928	 0.159651
O	 4.7694125406	-4.5226195216	 2.0340207065	-0.238447
C	 0.7211334042	-0.6276189349	 1.2106006947	-0.240858
H	 0.9608480476	 2.050636441	 0.1528545961	 0.109261
H	-0.4112048676	 1.979830415	-0.962620133	 0.114678
H	-0.6909089094	 1.977265983	 0.7841154215	 0.114139
H	-0.9499978309	-0.3349702315	-0.1573315938	 0.072102
H	 0.712202768	-1.0110084669	-1.8859111227	 0.095385
H	 1.9456739219	 0.0045797132	-1.1086936473	 0.093193
H	 0.6729881733	-2.5105995684	 0.1056942749	 0.072341
H	 3.1078969396	-2.6929994419	-0.4465246949	 0.109788
H	 3.4349602545	-1.2678475904	 0.5302834328	 0.095536
H	 2.541128742	-2.4690111207	 2.560495073	 0.120713
H	 2.317961666	-3.9431961852	 1.5945708025	 0.119412
H	 5.0283796383	-2.5221102922	 2.0661155628	 0.066914
H	 1.495378657	 0.00655502	 1.6602073465	 0.090967
H	 0.076555956	-1.0058815534	 2.0082428921	 0.094994
