17
gdb 17804	4.50272	1.59736	1.40708	3.3517	68.95	-0.2394	0.0259	0.2653	916.6306	0.143665	-363.842992	-363.83569	-363.834746	-363.875088	27.822	
N	-0.0764945875	 1.3721796005	 0.057897836	-0.52462
C	 0.1200447242	 0.0207061844	-0.0477103089	 0.366811
O	 1.2351473121	-0.4655068773	-0.0949893787	-0.361961
C	-1.1684701283	-0.7822693268	-0.061428837	-0.070528
C	-1.8475875576	-1.176145849	-1.4241899609	-0.056576
C	-0.7051072082	-2.2124102566	-1.6332951939	-0.218725
C	-1.1185351657	-2.334675936	-0.134444271	-0.037897
C	-2.5979719875	-2.2763995873	-0.6218765309	-0.225811
H	 0.7287996541	 1.9718446466	-0.0215930674	 0.258282
H	-0.9890681333	 1.7832094213	-0.0349394191	 0.256252
H	-1.8715289241	-0.3754317869	 0.675390911	 0.071915
H	-2.2694642004	-0.48923476	-2.1603010544	 0.069115
H	-0.9543266681	-3.0670733748	-2.2681336158	 0.085654
H	 0.2946040664	-1.8327405276	-1.8332881189	 0.128628
H	-0.691863942	-2.9987540718	 0.6166347951	 0.080233
H	-3.3481066131	-1.9404551736	 0.1002036912	 0.086388
H	-2.950398581	-3.1361299951	-1.1973463764	 0.092837
