19
gdb 79896	4.03694	1.39441	1.21637	1.6773	74.44	-0.2462	0.0926	0.3388	1061.3799	0.161544	-422.975977	-422.968883	-422.967939	-423.007154	28.917	
C	-0.1887776357	 1.5830173821	-0.0267821492	-0.437547
C	 0.0250217869	 0.0760898168	 0.0163165121	 0.028158
C	 1.1957659648	-0.6080515452	-0.747086827	-0.135058
C	 2.1572194981	-0.1077897526	 0.3727799427	 0.148721
O	 3.355706899	-0.8313394563	 0.5519592794	-0.278158
C	 3.0958251788	-2.1274464093	 1.0275308416	 0.015598
O	 2.0305465709	-2.7369846197	 0.3415841827	-0.278501
C	 0.9606353491	-1.8358747176	 0.1827873921	 0.155826
C	 0.8755515297	-0.5932567542	 1.1360021476	-0.172821
H	 0.7272081431	 2.1601017569	 0.1204365214	 0.122786
H	-0.6121119895	 1.8774497809	-0.9930705062	 0.12172
H	-0.8994819778	 1.8897838088	 0.7482403071	 0.120391
H	-0.9323472144	-0.4360689443	-0.1388071515	 0.070198
H	 1.3845665471	-0.6238999012	-1.8208764862	 0.074234
H	 2.4167285804	 0.949220873	 0.399891683	 0.081692
H	 3.9907832494	-2.7318857053	 0.86474715	 0.118887
H	 2.859387783	-2.0828409245	 2.104670944	 0.085502
H	 0.0491591655	-2.417134482	 0.0252829293	 0.082053
H	 0.6766286816	-0.5761266862	 2.2085411973	 0.076321
