18
gdb 125760	2.92039	1.25364	0.91894	2.1582	75.29	-0.2434	-0.0063	0.2371	1268.8568	0.146382	-439.09178	-439.082327	-439.081383	-439.126356	33.649	
C	-0.0265780551	 1.472454548	 0.0054748905	-0.496755
C	 0.0149544883	-0.0215027973	 0.0182628619	 0.331972
N	 0.1182858924	-0.689975181	-1.1065619537	-0.211729
O	 0.1253810548	-2.0341509941	-0.7472455855	-0.219509
C	 0.0334924584	-2.1332110403	 0.5940918741	 0.312066
C	 0.0257734459	-3.5220881923	 1.1590279343	-0.180128
O	-0.9230421775	-3.6899442082	 2.2018525038	-0.400785
C	-0.0453309861	-0.8926481518	 1.1531605496	 0.006988
C	-0.1506014876	-0.511731736	 2.5970099852	-0.523643
H	 0.8064470463	 1.8938519931	 0.578435456	 0.136475
H	 0.0326511916	 1.8414201857	-1.0200431931	 0.150953
H	-0.9522591553	 1.843767785	 0.458673094	 0.135179
H	-0.1301668004	-4.2314110894	 0.3339449012	 0.123299
H	 0.9961355212	-3.7573930695	 1.6099084875	 0.136038
H	-1.7906080853	-3.4706905941	 1.8451798061	 0.28914
H	 0.7666792724	-0.0290165195	 2.9550187057	 0.131238
H	-0.9689699469	 0.198033169	 2.7633139234	 0.12748
H	-0.3368035673	-1.3930289773	 3.2132859989	 0.151723
