16
gdb 62409	2.36369	1.54123	1.36506	5.2889	73.8	-0.2615	-0.04	0.2215	1023.3142	0.123443	-400.752064	-400.743772	-400.742828	-400.784844	30.799	
C	-0.0811623465	 1.6040690566	-0.0338561156	-0.449506
C	 0.0232507873	 0.076057244	-0.0542923458	-0.014213
C	-1.2698194644	-0.5346635196	 0.2400149162	 0.260565
N	-2.2973440722	-1.0164245584	 0.4621498482	-0.330823
C	 0.7121408046	-0.6442600657	-1.2449496809	-0.060039
C	 2.1381521647	-0.2433875532	-1.3460966035	-0.311247
C	 1.7605264897	-1.2998928542	-0.3133042393	-0.159861
C	 1.1250949866	-0.6269648657	 0.8585370944	 0.398252
O	 1.2591508941	-0.6735851013	 2.042176047	-0.294495
H	 0.8773409245	 2.0664115026	-0.2794284756	 0.128368
H	-0.8292456234	 1.9536801068	-0.7507293788	 0.143042
H	-0.3766523658	 1.9408023741	 0.9632261709	 0.157122
H	 0.1695711338	-1.1262685285	-2.0463670169	 0.129255
H	 2.6810165601	-0.6449626185	-2.1951496381	 0.141226
H	 2.4794373963	 0.7369510952	-1.0311788048	 0.134542
H	 2.2007650506	-2.288215834	-0.3250878973	 0.127812
