15
gdb 43593	3.27364	1.37454	1.10362	4.4359	70.91	-0.2688	0.0032	0.272	1070.3434	0.112563	-420.61842	-420.610911	-420.609967	-420.650612	28.702	
O	-0.0178875335	 0.0470949385	 0.2540418869	-0.336598
C	 0.0289636572	 1.2173670013	 0.0179088639	 0.444442
O	-1.1055853326	 1.9531112189	-0.228333792	-0.235393
C	-0.788551421	 3.2583527162	-0.7650982522	-0.084819
C	-1.6337737394	 4.2728541221	-0.1482907002	 0.335614
C	-2.3168220501	 5.1298839061	 0.3423381916	-0.443056
C	 0.7125555084	 3.4535392733	-0.5338798574	-0.058149
C	 1.1729686671	 3.3061119434	 0.878427115	-0.288777
C	 1.2214063894	 2.1147211881	-0.0649085274	-0.187166
H	-0.9931019126	 3.2217097124	-1.8427113342	 0.126518
H	-2.9271742712	 5.8823894155	 0.7781443246	 0.209194
H	 1.255956433	 4.0729609285	-1.2351299817	 0.115833
H	 2.1292164485	 3.7436511252	 1.1396084734	 0.131326
H	 0.4356821899	 3.3103978954	 1.6741696382	 0.146121
H	 2.167487897	 1.6770610151	-0.3510838982	 0.124908
