19
gdb 112190	2.55914	1.24137	0.92035	3.5662	76.91	-0.2421	-0.0375	0.2046	1299.8103	0.157101	-423.013532	-423.00445	-423.003506	-423.047768	33.351	
C	 0.0449974678	 1.5469915081	-0.1670105384	-0.383382
C	 0.0420467556	 0.0214028375	-0.0265667564	-0.201398
C	-1.3566390147	-0.5625787515	 0.1409995637	-0.079428
C	-2.3215848428	-0.5392107276	-1.0930441486	-0.380393
C	-2.6218657907	-2.034310796	-0.850695645	 0.33778
O	-3.4271395953	-2.8127709084	-1.2691667296	-0.298643
C	-1.5088214687	-2.09766765	 0.1860854308	 0.326675
C	-0.4910330088	-3.1550336302	 0.324081981	-0.248223
O	-1.4743249552	-2.9240398157	 1.3297721691	-0.259383
H	 1.0629101855	 1.9306695673	-0.2838782659	 0.117715
H	-0.5344325917	 1.8677411368	-1.0392863759	 0.121314
H	-0.3932926401	 2.0250457706	 0.715724488	 0.120075
H	 0.5181094172	-0.4330584568	-0.9055819974	 0.095799
H	 0.653707917	-0.2654734174	 0.8385342813	 0.106686
H	-1.8473368354	-0.1230657852	 1.0166157985	 0.095092
H	-3.1891267169	 0.1219106807	-1.041252056	 0.136791
H	-1.8111886548	-0.3749322438	-2.0482523975	 0.132051
H	-0.6055874695	-4.0792391969	-0.2397948713	 0.13511
H	 0.5276553217	-2.8760093314	 0.5880608597	 0.12576
