17
gdb 22348	3.32647	1.07779	0.84096	2.694	79.58	-0.1929	-0.0049	0.188	1314.2368	0.136265	-455.123896	-455.115081	-455.114137	-455.157435	33.725	
N	 0.0144997476	 1.3637905855	-0.0169948299	-0.581296
C	-0.0951938058	 0.00305312	-0.020246115	 0.321195
C	-1.1895361275	-0.7933609753	-0.0562998043	-0.304907
C	-0.7890061011	-2.1862572265	-0.0095878899	 0.398765
C	 0.7266701548	-2.2610121435	-0.0921617258	-0.337244
C	 1.1881767688	-0.8005822733	 0.1090442124	 0.054055
O	 2.2096477576	-0.342313203	-0.7712756512	-0.43474
N	-1.4901213448	-3.2548563579	 0.0744021943	-0.267095
O	-2.8711916873	-2.9442940369	 0.1368023299	-0.407234
H	 0.9116471715	 1.7162369694	-0.31829077	 0.260938
H	-0.777563928	 1.9073434454	-0.3216319144	 0.257712
H	-2.2205295866	-0.4734309918	-0.0958085174	 0.105469
H	 1.1523188652	-2.9526186114	 0.6372505475	 0.127165
H	 1.040716502	-2.6078333296	-1.0845344721	 0.114103
H	 1.6133069539	-0.6499376103	 1.1083020211	 0.113022
H	 1.9263216939	-0.5392564282	-1.6720841297	 0.280572
H	-3.2654688943	-3.8193013227	 0.2034850344	 0.29952
