19
gdb 116219	2.2281	1.57414	1.03147	1.9812	71.44	-0.2429	0.0612	0.3041	1182.7373	0.158494	-460.123704	-460.114979	-460.114035	-460.157803	31.923	
C	 0.0910048646	 1.4713152339	-0.0194882251	-0.239231
O	-0.2108325545	 0.0954637291	-0.1240490032	-0.245129
C	 0.5533742262	-0.5799368001	-1.0963820628	 0.025
C	 2.00472669	-0.9010823244	-0.6718356533	-0.115451
O	 2.326044196	-2.1155658094	-1.3319795153	-0.246628
C	 1.1664177201	-2.9361312095	-1.2550416948	-0.164179
C	-0.0129184107	-1.9774170923	-1.3597306472	 0.377331
C	-1.407347484	-2.3372272204	-1.1101371813	-0.238101
O	-0.9280699505	-2.12529372	-2.4452148294	-0.275815
H	 1.1170308296	 1.6477715347	 0.3353491345	 0.11142
H	-0.0352548906	 1.9860099532	-0.9841449669	 0.112772
H	-0.6063021527	 1.8989790105	 0.7045450748	 0.131787
H	 0.5450666703	-0.020057311	-2.0438369053	 0.090342
H	 2.7411881845	-0.1541857339	-0.9752296371	 0.112967
H	 2.0333380743	-1.0118388995	 0.4255014667	 0.095925
H	 1.1859232261	-3.6558495578	-2.0764675688	 0.127709
H	 1.1427969344	-3.4816010738	-0.2975747927	 0.097391
H	-1.6611070376	-3.3682353449	-0.8636740497	 0.11196
H	-2.0857682254	-1.5786382544	-0.7279234231	 0.129929
