22
gdb 121615	3.12698	0.75116	0.70964	3.4992	80.94	-0.2371	0.0396	0.2767	1729.8744	0.19244	-441.523962	-441.512777	-441.511833	-441.562061	39.264	
C	 0.1610412329	 0.5329961549	-1.0054383256	-0.37735
C	 0.0350169527	-0.1760229106	 0.3526484256	-0.079115
C	 0.4589526191	 0.747083018	 1.5049977283	-0.378255
C	-1.4212161302	-0.6042780262	 0.5578388939	 0.425467
O	-2.32485233	 0.2132322212	 0.6368461349	-0.398401
N	-1.6296657011	-1.9486847865	 0.6424371623	-0.323311
C	-2.9474089977	-2.538504125	 0.7721081167	-0.146317
C	-3.1963433648	-3.5656514752	-0.3222121836	-0.079018
O	-2.1822210023	-4.5580951333	-0.2003519617	-0.42525
H	 1.1825535555	 0.8948943515	-1.1583116614	 0.109179
H	-0.0892455013	-0.1382599734	-1.8334556225	 0.109387
H	-0.5220601065	 1.3859492389	-1.042810994	 0.141001
H	 0.6798689209	-1.0642617144	 0.351579429	 0.062635
H	 0.4301119957	 0.2258847927	 2.467213231	 0.11325
H	 1.4769983068	 1.1170465001	 1.3483842986	 0.107483
H	-0.2207211723	 1.6013267741	 1.5628813194	 0.141643
H	-0.8597452033	-2.5862100461	 0.5207474114	 0.251599
H	-3.0532675517	-3.0272979173	 1.749527576	 0.113285
H	-3.6724767361	-1.7241434989	 0.7143603281	 0.146473
H	-4.1999671191	-3.9996681613	-0.1971932064	 0.094036
H	-3.1543696584	-3.0741601167	-1.3054115775	 0.099043
H	-2.2470479688	-5.1563055863	-0.9499627024	 0.292536
