13
gdb 27395	2.08398	2.01067	1.02418	8.1428	63.94	-0.2419	-0.009	0.233	1059.401	0.090793	-486.141444	-486.133633	-486.132688	-486.173829	29.188	
N	 0.112806289	 1.307288921	 0.1358056312	-0.565949
C	-0.0275242967	-0.0374103621	 0.0403391212	 0.489607
N	-1.1510375166	-0.6374129616	 0.0326969979	-0.373911
C	-1.1588441491	-2.0506715733	-0.0036644992	 0.376632
O	-2.1935632819	-2.6661896558	-0.0016330971	-0.340887
N	 0.0866933927	-2.7181668173	-0.0425453478	-0.374047
C	 1.1500902998	-2.0170535134	-0.0543330514	 0.489903
N	 2.3983432557	-2.5355205228	-0.1519759348	-0.566011
O	 1.2063062093	-0.6434983726	-0.0082134158	-0.246758
H	 0.9866079316	 1.7197377775	-0.1452903366	 0.271029
H	-0.7287456	 1.8426003405	-0.0019862714	 0.284616
H	 2.4681417624	-3.5303694415	-0.0140903168	 0.284676
H	 3.179171754	-1.9634929787	 0.1229078308	 0.271101
