21
gdb 83352	2.14298	2.00882	1.55741	1.5502	81.55	-0.2363	0.0117	0.2479	997.1063	0.18355	-387.096397	-387.088314	-387.08737	-387.128191	33.03	
C	-0.0953449222	 1.5465754817	-0.0454221988	-0.435237
C	 0.0354258556	 0.0278528492	 0.0019459873	-0.003425
C	 1.07788994	-0.5878790571	-0.951531813	 0.041445
O	 2.3280665349	-0.0418008532	-0.4272185078	-0.278666
C	 2.1891376192	-0.0584074252	 0.994740248	-0.099897
C	 0.7489837147	-0.6150963013	 1.2448751592	 0.242871
C	 0.1837964234	-0.3680514704	 2.6308140508	-0.502754
C	 0.8322579889	-2.05991994	 0.7712421186	-0.113702
C	 1.0248654822	-2.0507582931	-0.5519748063	-0.094583
H	 0.8791789432	 2.0395848725	-0.0707541196	 0.135905
H	-0.6423261532	 1.8506124873	-0.9442682388	 0.115156
H	-0.6538206762	 1.9251840366	 0.8173893443	 0.113434
H	-0.9424442628	-0.442140935	-0.1339028286	 0.072865
H	 1.0316801028	-0.3414321022	-2.0115354854	 0.068647
H	 2.9591366702	-0.6938732973	 1.4486966718	 0.094044
H	 2.299518355	 0.961006438	 1.3873082317	 0.092927
H	 0.1492225442	 0.700830956	 2.8656460428	 0.118951
H	-0.8326907374	-0.7656591929	 2.7193832748	 0.120105
H	 0.7964458056	-0.8533197391	 3.3991195858	 0.117512
H	 0.8393167949	-2.9138286543	 1.4389322368	 0.094331
H	 1.2303720568	-2.88972218	-1.2040257337	 0.10007
