17
gdb 67302	3.21652	1.59371	1.32964	2.8513	72.75	-0.2317	0.0774	0.3091	980.9082	0.136739	-417.869757	-417.862587	-417.861643	-417.900999	29.193	
O	-0.0780135399	 1.3276987589	-0.0185037636	-0.469687
C	-0.0481300513	-0.0370092461	-0.0236581414	 0.342778
C	 0.8851222838	-0.9989561948	-0.8555257101	-0.088885
N	 1.9599702156	-0.9220546181	 0.1893133056	-0.369137
C	 0.683659754	-1.0193943195	 0.9718308294	-0.094407
C	-0.0644166863	-1.9501117726	-0.0496050391	-0.192811
C	-1.2332673927	-0.9713500679	-0.1720158684	 0.361572
N	-2.5039181005	-0.9090776721	 0.5225183664	-0.386422
C	-2.4675513807	-0.9565993131	-0.9691703388	-0.334836
H	 0.8291399224	 1.6377136999	 0.0995661829	 0.29787
H	 1.0795689329	-0.993401467	-1.928366116	 0.085865
H	 2.4762658056	-1.8044904747	 0.2362972839	 0.208671
H	 0.6406081809	-1.0380550808	 2.0609508125	 0.090582
H	-0.0582613366	-3.0386419995	-0.0639014025	 0.079733
H	-2.7559630983	-1.8237998315	 0.8906247831	 0.228839
H	-2.8002249975	-0.0428969298	-1.4536039456	 0.129585
H	-2.7751594612	-1.8736155811	-1.4661300482	 0.110691
