18
gdb 19708	5.20216	1.73105	1.56481	1.6751	70.82	-0.2494	0.0783	0.3277	854.921	0.156419	-347.7672	-347.760817	-347.759872	-347.797319	26.309	
O	 0.2044190109	 1.3966233371	-0.1905939568	-0.454004
C	 0.0487948578	 0.0101202907	-0.0406605891	 0.180565
C	 0.0306897318	-0.6526051436	 1.3596498195	-0.111433
C	-1.4477259826	-0.1695429033	 1.5614125289	-0.02041
C	-2.2108864115	-1.2231770734	 2.3666655848	-0.243035
C	-1.6277301651	-2.5132741399	 1.7258112646	-0.238466
C	-0.6716472479	-1.8888637992	 0.7085088886	 0.005698
C	-1.3548378011	-0.6368555764	 0.0671659043	-0.111445
H	-0.374045796	 1.8447483712	 0.4347062197	 0.281003
H	 0.7252181392	-0.4419026452	-0.7712802503	 0.07893
H	 0.8228965918	-0.6715533931	 2.1113773347	 0.065139
H	-1.6534484336	 0.8782500324	 1.7947227503	 0.046956
H	-2.0038729212	-1.1511571734	 3.4391992815	 0.098156
H	-3.2942355648	-1.1364879696	 2.235478661	 0.098155
H	-1.1026626412	-3.1454364382	 2.4488937909	 0.098319
H	-2.3931041406	-3.1307738001	 1.2451137767	 0.098319
H	-0.0832916795	-2.5507268574	 0.0697306336	 0.062416
H	-2.1598579765	-0.6376469688	-0.6710673328	 0.065138
