19
gdb 52842	2.25266	1.12098	1.00382	2.4766	80.31	-0.2396	0.0301	0.2697	1334.1356	0.156621	-422.990152	-422.979974	-422.97903	-423.026464	36.64	
C	-0.1044043471	 1.43629172	-0.0619437728	-0.501976
C	-0.0366650558	-0.0181050805	-0.0228274828	 0.044313
C	 0.0597431849	-1.220028323	 0.0264306611	 0.009677
C	 0.1103801124	-2.6804705209	 0.0232636228	 0.210277
O	 1.0557103848	-3.1825662874	-0.8990837412	-0.465277
C	 0.2512380254	-3.3057264688	 1.4394868184	-0.26095
C	-1.2942733665	-3.3961013293	 1.534014083	-0.265512
C	-1.3466225223	-3.2824200535	-0.013667935	 0.103119
O	-2.3755959984	-2.5880636557	-0.653284956	-0.432839
H	 0.8937972509	 1.8791894217	 0.0226201344	 0.1568
H	-0.5498061556	 1.7917585867	-0.9973466788	 0.152975
H	-0.7103960657	 1.825032583	 0.7636254871	 0.154295
H	 0.9502894807	-2.6990011236	-1.7258617279	 0.282243
H	 0.7200505847	-4.2879565937	 1.3450965288	 0.118971
H	 0.7821894741	-2.7174667347	 2.1876600134	 0.110254
H	-1.7305177365	-4.2863279521	 1.9893182538	 0.104584
H	-1.723694526	-2.5072843776	 2.0052233501	 0.103565
H	-1.2852415483	-4.2693835247	-0.4814241843	 0.098763
H	-2.2856129258	-1.658126136	-0.4071478841	 0.276718
