19
gdb 57507	2.9931	1.02423	0.92092	3.3935	79.08	-0.2887	-0.0494	0.2393	1348.8594	0.156315	-419.232716	-419.222557	-419.221613	-419.267615	37.106	
C	-0.1229343587	 1.5762521315	 0.1107685349	-0.417931
C	 0.0279458998	 0.0535007395	 0.0844650029	 0.354581
C	 0.657502176	-0.4971198503	 1.366143253	-0.417932
C	-1.3138912412	-0.623086531	-0.1988294397	-0.398783
O	 0.8314719693	-0.3542145	-1.088345578	-0.283241
C	 2.0961119841	 0.0161152969	-1.2632134926	 0.320408
N	 2.7909344019	 0.7459846674	-0.4898736323	-0.517351
C	 2.610722753	-0.543975174	-2.508433972	 0.257962
N	 3.0825935903	-0.9547031957	-3.4803401374	-0.318108
H	 0.8280491968	 2.0679766274	 0.3140273795	 0.154403
H	-0.5151861339	 1.9374689053	-0.8444891736	 0.12242
H	-0.835213231	 1.8504628849	 0.8949522139	 0.120206
H	-0.0207975396	-0.3119146887	 2.2046458759	 0.120205
H	 0.8074248876	-1.5776904125	 1.2840284632	 0.122414
H	 1.6140732924	-0.0199262486	 1.5776622528	 0.154409
H	-1.7370178797	-0.263364403	-1.1404915651	 0.127415
H	-1.1933448488	-1.7075522596	-0.2663846105	 0.127421
H	-2.01954935	-0.4013410537	 0.6064384738	 0.121503
H	 3.7303935113	 0.8772502941	-0.8574049288	 0.249999
