15
gdb 52595	2.05581	1.10179	0.91973	5.0645	78.85	-0.2899	-0.011	0.2789	1361.6938	0.109627	-379.661123	-379.650929	-379.649985	-379.697826	34.275	
C	-0.0172378488	 1.4809613871	 0.0047067019	-0.501745
C	 0.0035862138	 0.0271579421	-0.0108698728	 0.092908
C	 0.0342745654	-1.1743097449	-0.0252500522	 0.112881
C	 0.0379112114	-2.6421409196	-0.0389563851	-0.266744
C	-1.4073696552	-3.2073400955	 0.1204863204	-0.397054
C	 0.6044650659	-3.1303235151	-1.3187877455	 0.319172
N	 1.0094541892	-3.5140090255	-2.3292450353	-0.322317
C	 0.8766568311	-3.1519652523	 1.0718351486	 0.319169
N	 1.4976228089	-3.5528261204	 1.9583826677	-0.322314
H	 0.5854949094	 1.8696854634	 0.8318612465	 0.166605
H	 0.3889248777	 1.8857116852	-0.9279165762	 0.166612
H	-1.0375490172	 1.8600368633	 0.1221164065	 0.1608
H	-2.0231848378	-2.8426397794	-0.7028202245	 0.156911
H	-1.386059718	-4.2985994126	 0.1081808319	 0.158205
H	-1.8216126057	-2.8586650056	 1.0675325681	 0.156912
