21
gdb 82203	2.46532	1.80616	1.32687	1.8181	80.68	-0.2508	0.0804	0.3312	1054.1762	0.182762	-387.080477	-387.072149	-387.071205	-387.112736	33.403	
C	-0.0149776341	 1.5420119317	 0.0514824833	-0.39617
C	 0.0177114887	 0.0110894216	-0.0228238161	-0.060721
C	 0.7272227051	-0.5620942011	-1.2601456872	-0.058471
C	 2.2007930395	-0.3330819733	-1.4837346619	-0.28915
C	 1.7353596662	-1.6060953634	-0.8175893072	-0.064783
C	 1.7178210991	-1.5942380595	 0.6934595305	-0.041809
O	 2.1031318249	-0.3399622327	 1.2845323493	-0.299732
C	 0.6984117833	-0.6505873639	 1.1863997407	 0.404297
C	-0.0330812015	-0.7648904643	 2.49665027	-0.485695
H	 0.9982322343	 1.9457709425	 0.126273193	 0.132379
H	-0.4864021852	 1.9658370805	-0.8405135521	 0.112366
H	-0.5816550283	 1.887227407	 0.9229239331	 0.110187
H	-1.0166164258	-0.3588842358	-0.04182465	 0.071488
H	 0.1163926874	-0.7287018376	-2.1411599162	 0.081567
H	 2.5539957355	-0.4105156887	-2.5065399769	 0.103976
H	 2.7290416534	 0.3826901868	-0.8672100433	 0.135214
H	 1.8462619934	-2.5599836384	-1.3193430489	 0.081359
H	 2.025206916	-2.4772072595	 1.2487428784	 0.087412
H	-0.2762555533	 0.22551154	 2.8977882845	 0.127593
H	-0.9713563552	-1.3163519925	 2.3742437532	 0.11997
H	 0.5849915166	-1.2827341995	 3.2343834437	 0.128724
