19
gdb 57086	2.96647	1.18363	0.91321	1.2202	82.74	-0.2374	0.0179	0.2553	1285.8385	0.158558	-385.861625	-385.852558	-385.851614	-385.895778	34.088	
O	-0.2374383752	 1.3451675574	 0.0502874842	-0.417394
C	 0.0157558744	-0.0570842553	 0.0779882703	-0.054749
C	 0.5494260747	-0.5245399149	-1.2049417253	 0.296529
C	 1.0366886109	-0.8677400966	-2.2495455319	-0.447742
C	 0.9458420099	-0.4540890429	 1.2577624046	-0.045186
C	 0.3573253375	-0.0378716998	 2.634026754	-0.23777
C	-0.183742475	-1.3407337794	 3.2810267582	-0.250773
C	 0.4677809342	-2.4294599991	 2.4633338164	-0.062285
C	 1.0905150835	-1.9546213849	 1.3861279387	-0.075644
H	 0.5684176695	 1.7781722917	-0.2534549021	 0.283438
H	-0.965702909	-0.515598074	 0.2488660577	 0.118603
H	 1.4436437509	-1.1795869993	-3.1797705719	 0.198959
H	 1.9115675155	 0.0333480869	 1.0681545294	 0.069658
H	 1.1556071118	 0.3768226622	 3.255818178	 0.099548
H	-0.4008862688	 0.7405435607	 2.5265157432	 0.117975
H	 0.0664350185	-1.407627308	 4.346131885	 0.104238
H	-1.2787532188	-1.4130526537	 3.2249898238	 0.107537
H	 0.4041722951	-3.478553126	 2.7324868041	 0.092808
H	 1.6048833603	-2.5493696349	 0.6406007934	 0.102252
