15
gdb 25787	4.40645	1.05017	0.84894	3.7277	72.37	-0.2069	-0.0237	0.1832	1279.479	0.113378	-454.004405	-453.995777	-453.994833	-454.037846	31.621	
N	-0.1565360452	 1.321537851	 0.0501246086	-0.542492
C	 0.0384023544	-0.0282517761	-0.002833675	 0.307933
O	 1.1389891176	-0.5521621532	-0.033947254	-0.369707
C	-1.1967274953	-0.8336843676	-0.0066057269	 0.315335
C	-1.3672969473	-2.1852372835	-0.0453450196	-0.330109
C	-2.7789277325	-2.4195307614	-0.0278845521	 0.233307
N	-3.403216258	-3.6662546321	-0.1285442331	-0.606327
C	-3.3597494792	-1.1808559538	 0.0197785237	-0.094913
O	-2.4032397297	-0.2053127755	 0.0287975101	-0.203208
H	 0.6503131732	 1.9181115354	-0.0159269548	 0.262263
H	-1.077756686	 1.7191391296	-0.0067515201	 0.268331
H	-0.5740632599	-2.91456531	-0.0855389942	 0.133608
H	-2.8816595803	-4.4060082057	 0.3220088333	 0.251269
H	-4.3572894466	-3.6694838712	 0.2061169329	 0.246611
H	-4.3824484551	-0.8436192459	 0.0422950311	 0.1281
