14
gdb 105588	1.99186	1.61652	1.30619	4.4393	62.14	-0.2992	-0.0317	0.2675	1023.2785	0.100409	-473.84346	-473.835084	-473.83414	-473.876881	29.466	
O	-0.0047444593	 1.4554466624	 0.0698853239	-0.398749
C	 0.030879245	 0.0683482316	-0.1147609225	-0.107221
C	-1.3962407082	-0.5370141553	-0.0904217733	-0.115307
C	-1.512926797	-2.0625864493	 0.157806522	-0.120903
O	-2.0175500861	-1.8120383345	 1.5114610233	-0.229478
C	-1.968853169	-0.4627369726	 1.3472110974	 0.470278
O	-2.2050143815	 0.4013415588	 2.1267530086	-0.320614
C	-2.2437108064	 0.0028431267	-1.1392271213	 0.275497
N	-2.9220144022	 0.401086692	-1.9855160307	-0.318768
H	-0.4263513899	 1.6433541206	 0.9185405306	 0.308722
H	 0.4917742976	-0.1150381978	-1.0895243414	 0.141127
H	 0.6306645605	-0.4494351189	 0.6503980432	 0.110879
H	-2.2536557823	-2.5860944217	-0.4456896549	 0.159439
H	-0.5688616411	-2.6085943721	 0.1954057051	 0.145099
