15
gdb 12757	3.34617	1.79371	1.48751	0.9736	67.12	-0.2209	0.0321	0.253	876.209	0.117627	-362.565701	-362.558189	-362.557245	-362.597185	29.014	
O	 0.0553828683	 1.4242723404	 0.0259507149	-0.455796
C	-0.0184060707	 0.0488394742	 0.0097871553	 0.36275
C	-0.3941790062	-0.7669924426	-1.199255276	-0.333267
C	-1.2095526861	-0.8780593084	 0.0652221872	-0.077459
N	-0.5170610243	-1.8249033645	 0.9696449517	-0.31981
C	 0.6383887914	-0.8466862284	 1.085647484	-0.249116
C	 1.965361024	-1.3872131653	 0.8448842046	 0.353118
C	 3.071636375	-1.8056004422	 0.6278850029	-0.452042
H	 0.7328906412	 1.700317982	-0.6020811433	 0.291643
H	-0.8607842034	-0.1780464757	-1.9830636824	 0.115093
H	 0.2094194983	-1.608247751	-1.528883469	 0.125999
H	-2.2746249274	-0.6923913601	 0.1176983123	 0.105435
H	-0.9930991123	-1.8784780459	 1.8656234035	 0.22525
H	 0.6123412114	-0.3151189056	 2.0433008545	 0.11092
H	 4.0449228009	-2.1871571569	 0.4413375096	 0.197281
