14
gdb 76590	3.54708	0.80878	0.78335	6.8117	79.12	-0.2533	-0.0389	0.2143	1446.93	0.099401	-436.6417	-436.63282	-436.631876	-436.675984	31.611	
O	 0.1130436887	 1.3612448598	-0.0028199756	-0.412718
C	 0.0150805381	-0.0132676904	 0.0003298408	 0.107645
C	-0.4357176465	-0.7071689417	 1.2484860171	 0.034149
O	-0.8309390902	 0.1233867987	 2.2984674682	-0.412019
C	-1.374065516	-0.7053116401	 0.0388923659	-0.347719
C	-2.5525999581	 0.0863894019	 0.0487894847	 0.136749
C	-3.5525213774	 0.7681179502	 0.0375161826	 0.05261
C	-4.6807086171	 1.5331186827	 0.0302653695	 0.202035
N	-5.6424956977	 2.1862159226	 0.0248038272	-0.342202
H	-0.3751403178	 1.6848623018	 0.7673105945	 0.296752
H	 0.7590279589	-0.4728357657	-0.641092429	 0.128984
H	-0.0117650781	-1.6678471579	 1.5347458478	 0.112871
H	-0.0537464503	 0.3123288853	 2.837461369	 0.305608
H	-1.4505049464	-1.6495521772	-0.4923871629	 0.137253
