13
gdb 132319	1.94493	1.73986	0.91835	3.1487	66.73	-0.2063	-0.0285	0.1777	1120.7759	0.08899	-502.033719	-502.026589	-502.025645	-502.065419	27.62	
F	 0.1005960304	 0.0558500385	 0.0025566162	-0.053211
C	-0.0511639758	 1.3698081654	 0.0111294038	 0.449778
C	-1.257879975	 1.9751463577	 0.0306683867	-0.505396
C	-1.2170008847	 3.4040698091	 0.037152955	 0.380381
F	-2.3965808907	 4.0214339867	 0.0563821163	-0.071718
C	-0.0731334471	 4.1255428544	 0.0250279635	-0.324537
C	 1.2186387706	 3.4713770176	 0.0040945497	 0.410349
N	 2.3279791031	 4.113706386	-0.0079594984	-0.557941
N	 1.1201695227	 2.0529051442	-0.001562932	-0.455795
H	-2.1816747968	 1.4191996694	 0.0405820669	 0.136607
H	-0.087013213	 5.2058841478	 0.03054801	 0.131837
H	 3.1343645299	 3.4889479524	-0.022108778	 0.196041
H	 1.9730172063	 1.5127064408	-0.0159148797	 0.263606
