16
gdb 478	5.88257	3.5926	2.86567	0.3029	60.48	-0.243	0.0951	0.338	542.9521	0.143756	-234.474951	-234.469056	-234.468112	-234.50378	22.864	
C	-0.0187158986	 1.5508892854	 0.0393573012	-0.493919
C	 0.0514560401	 0.0513228615	 0.0137572036	 0.381324
C	-0.8538926657	-0.8290935513	 0.8319911004	-0.314705
C	 0.635442294	-0.9413397756	 1.028331991	-0.082751
C	 1.2442663104	-1.7784751602	-0.1008124833	-0.21534
C	 0.6438669911	-0.7755147121	-1.1404835948	-0.277573
H	 0.942673477	 2.0021751927	-0.2333022667	 0.112616
H	-0.7707388915	 1.9268913141	-0.6658974379	 0.116891
H	-0.2902743043	 1.9189008246	 1.0345608361	 0.114739
H	-1.389911744	-0.323245712	 1.6296844147	 0.103724
H	-1.4108611528	-1.6437531417	 0.371572055	 0.097383
H	 1.0966647749	-0.7449947732	 1.9897242778	 0.078031
H	 2.3365916409	-1.7715814305	-0.1052752317	 0.099718
H	 0.90412118	-2.8179741557	-0.1632998638	 0.092222
H	-0.0744765902	-1.1764611861	-1.8640665448	 0.089816
H	 1.4218929386	-0.2374813598	-1.6888083969	 0.097823
