16
gdb 68649	2.5572	2.00805	1.55255	3.5675	67.74	-0.2415	-0.0182	0.2233	886.1327	0.126533	-437.915248	-437.908438	-437.907493	-437.945956	28.452	
O	 0.0598323834	 1.3884954991	 0.0483484858	-0.504674
C	-0.0039955152	 0.0070059635	 0.0585458279	 0.295007
C	-1.3783491257	-0.7243790408	 0.0064528454	-0.254126
C	-0.6830502116	-2.1082359589	-0.0342043893	-0.071523
N	 0.1505549086	-1.9008087943	-1.2527097517	-0.311089
C	 0.6583528095	-0.6314894587	-1.1893425719	 0.377469
O	 1.4443574794	-0.0619670291	-1.9162315	-0.403487
C	 0.214658579	-1.9980939568	 1.2107248004	-0.09018
C	 0.6335172652	-0.7328283969	 1.2482389224	-0.131284
H	 0.6564304233	 1.6146118429	-0.6833916809	 0.292589
H	-1.9706214312	-0.5616909061	 0.9072544678	 0.116946
H	-1.9597163124	-0.5114742182	-0.894144709	 0.113452
H	-1.3107950437	-2.9915737501	-0.1294987935	 0.086413
H	 0.6673670114	-2.6472365676	-1.6915653299	 0.256202
H	 0.4893002012	-2.8213794182	 1.8562661927	 0.109887
H	 1.3343491088	-0.2567813596	 1.9205288137	 0.118397
