14
gdb 128388	2.84403	1.55185	1.01035	3.5499	72.26	-0.2418	-0.0839	0.1579	1098.2927	0.100015	-466.0952	-466.086878	-466.085933	-466.129086	29.315	
C	 0.0356284817	 1.4299728405	 0.0460542931	-0.322266
N	 0.0975849104	-0.0147446634	-0.0355090346	-0.330643
C	 0.6262802614	-0.6710421305	-1.0799340457	 0.431729
N	 1.1203256574	-0.0136192772	-2.0937435817	-0.213009
O	 1.6433718006	-0.7978970543	-3.1229803999	-0.215997
N	 1.6533012805	-2.1783283865	-3.1011571315	 0.076289
N	 1.1808628926	-2.8021668236	-2.1316962366	-0.211919
C	 0.6214835438	-2.1335430557	-1.0266093024	 0.340019
N	 0.1310210308	-2.7440484324	-0.0218402531	-0.513908
H	 1.0381913544	 1.8696618974	 0.0050406441	 0.150231
H	-0.5460646095	 1.8461514133	-0.7837377849	 0.150277
H	-0.4377317243	 1.7071118119	 0.9885170898	 0.136824
H	-0.2593415597	-0.6045527614	 0.7003217351	 0.279535
H	 0.2111000598	-3.755123898	-0.1527148417	 0.242837
