18
gdb 10030	3.24652	1.04745	0.82766	2.8456	78.41	-0.2417	-0.0254	0.2163	1407.1307	0.150184	-347.796737	-347.786553	-347.785609	-347.833966	33.727	
C	-0.0258384333	 1.5703088921	 0.0670579994	-0.394592
C	 0.0767530921	 0.0435823656	 0.0507332499	-0.184283
C	 0.6575737633	-0.516865391	-1.2786974164	-0.234994
C	 2.1268073292	-0.1055081595	-1.3983169964	 0.173163
O	 2.5412296031	 0.7403758483	-2.1441548631	-0.24841
C	 0.5681352368	-1.971884136	-1.3424793888	 0.019389
C	 0.5408627543	-3.1757653937	-1.3784645247	 0.109739
C	 0.4881494036	-4.6294803702	-1.4356423375	-0.498926
H	 0.9477143889	 2.045407864	-0.0871025745	 0.134467
H	-0.6942592299	 1.9287123721	-0.7228163606	 0.123774
H	-0.4224338001	 1.9186958379	 1.0251584176	 0.117161
H	 0.7003312726	-0.3103212777	 0.8809452512	 0.11008
H	-0.9099387848	-0.4071166621	 0.1964528725	 0.117301
H	 0.1279730178	-0.0578272825	-2.1220299304	 0.117189
H	 2.7992778535	-0.6566521007	-0.7023604922	 0.084855
H	 1.4638870633	-5.0512513133	-1.7005272075	 0.151993
H	 0.1923483817	-5.0565963636	-0.4712120103	 0.149849
H	-0.2340233624	-4.9698543594	-2.1857372182	 0.152246
