20
gdb 6844	3.21834	1.52117	1.35614	1.9768	71.54	-0.2421	0.0774	0.3195	1038.9334	0.174325	-386.12054	-386.111202	-386.110258	-386.154498	33.607	
C	 0.1935519758	 1.4605362529	-0.0217614287	-0.239764
O	-0.2972920974	 0.2000916541	-0.4225441169	-0.237202
C	 0.6111812329	-0.5270996827	-1.2000379072	 0.042133
C	 1.7489285771	-1.2831781754	-0.4795999954	-0.105939
O	 1.3215448113	-2.5354746279	-1.0449390232	-0.324038
C	 0.1162218574	-1.9384969473	-1.6197853403	 0.383777
C	-1.1281788309	-2.427880133	-0.8907372923	-0.415136
C	 0.0534525223	-2.1976591969	-3.1173520855	-0.431951
H	 1.0848326418	 1.3723380904	 0.6176289819	 0.110338
H	 0.4524128675	 2.0880732476	-0.8889607491	 0.107412
H	-0.5989692972	 1.9513935023	 0.5476586385	 0.130942
H	 0.959664082	 0.0777123842	-2.0504635822	 0.066223
H	 2.7787073268	-1.0339359394	-0.7607382752	 0.098147
H	 1.6545615392	-1.2634345218	 0.6148671571	 0.098097
H	-1.0629044118	-2.2237731228	 0.1794150269	 0.124852
H	-2.0256981145	-1.9342398575	-1.2753086877	 0.118483
H	-1.2321687382	-3.5074535522	-1.0379807308	 0.116446
H	-0.0711228298	-3.2673558163	-3.3137543908	 0.123976
H	-0.792923079	-1.6659169182	-3.5653934333	 0.117942
H	 0.9736504448	-1.8670352601	-3.6074927356	 0.115263
