16
gdb 66710	2.82804	1.68752	1.2844	4.5984	78.17	-0.2424	0.0119	0.2543	992.0753	0.123906	-363.525902	-363.518488	-363.517544	-363.557647	28.933	
C	 0.0088445121	 1.4915557052	 0.0645420935	-0.52297
C	-0.0024267838	 0.0029549134	-0.0176160633	 0.282474
C	 0.2752682174	-0.9943326929	-1.1909083383	-0.149473
C	-0.6315637687	-2.0207847279	-0.5305609519	-0.085071
C	 0.8550123106	-2.0070897477	-0.2182741775	-0.166664
C	 0.6041921281	-1.0245434823	 0.9643765259	 0.252347
C	 1.2522327227	-0.8053844366	 2.2001955653	 0.119826
N	 1.7888803013	-0.61902646	 3.2110292189	-0.363974
C	-0.9019894717	-1.0240916458	 0.632937692	-0.200004
H	 0.9811401097	 1.8996509687	-0.2319590075	 0.136016
H	-0.7559303869	 1.9265493381	-0.5886880996	 0.13095
H	-0.1942786173	 1.8212420975	 1.0886205631	 0.14128
H	 0.5033233636	-0.8347260897	-2.2355988774	 0.101993
H	-1.236209592	-2.8005524255	-0.9710768191	 0.103674
H	 1.61040198	-2.7653586768	-0.3666647226	 0.109376
H	-1.723467735	-0.8931008977	 1.3245909184	 0.110218
