18
gdb 51324	4.67261	1.03455	0.99107	3.5435	78.24	-0.255	0.028	0.283	1235.0632	0.148694	-401.893338	-401.885756	-401.884812	-401.926637	28.933	
N	-0.0620578747	 1.29978046	-0.1372012278	-0.445699
C	-0.0465954964	 0.0401270363	-0.0523090413	 0.121183
O	-1.1983991222	-0.6542172111	-0.0311809285	-0.201489
C	-1.1168270983	-2.0746371937	-0.0667125654	 0.174014
C	-2.2484322121	-2.842276727	 0.5766434061	-0.114981
C	-3.3505177109	-3.0095291638	-0.4756625923	-0.059589
C	-2.8976048154	-2.2734914691	-1.7357503557	-0.227648
C	-1.4754201102	-2.7938091267	-1.39421581	-0.119645
C	-2.1437378933	-3.9123263685	-0.4969001107	-0.086931
H	 0.8905528818	 1.6580017149	-0.1168232341	 0.226476
H	 0.8482171723	-0.5954579421	 0.0217323465	 0.080568
H	-0.1439455038	-2.4056610837	 0.3156480079	 0.082095
H	-2.4435163267	-2.9755651287	 1.6321719322	 0.092976
H	-4.3574023801	-3.2587072659	-0.167133233	 0.090916
H	-3.2871337198	-2.7561839762	-2.6356898979	 0.099992
H	-3.0328467626	-1.1898039237	-1.7944647872	 0.117508
H	-0.7217153331	-2.9378760955	-2.1650325906	 0.073542
H	-2.0132894745	-4.9804858053	-0.4190207981	 0.096711
