19
gdb 115616	3.09782	1.03853	0.93024	2.6981	71.78	-0.2542	0.0561	0.3104	1326.3861	0.157264	-460.117983	-460.108722	-460.107778	-460.152435	33.688	
C	 0.0237520472	 1.5912749259	-0.0474392298	-0.419393
C	 0.065120153	 0.0859072304	-0.040982086	-0.015803
O	 1.3694677647	-0.5318938744	-0.0633988415	-0.283603
C	 0.5781355887	-0.6854038391	 1.0922386907	 0.336529
C	 1.0025771998	-0.2749189192	 2.4983821468	-0.153224
O	 0.5361448921	-1.5428436508	 3.0178365579	-0.31237
C	 0.1594272235	-2.0251077276	 1.6952459606	 0.023676
C	-1.3099844513	-2.4122397739	 1.6862349273	-0.069936
O	-1.5640911439	-3.4031254025	 2.6611797234	-0.417824
H	 0.7544374217	 2.0072544283	 0.651281864	 0.12918
H	 0.2476742399	 1.9777140863	-1.0467564899	 0.136606
H	-0.9729943879	 1.9467022751	 0.2352426665	 0.127877
H	-0.6532453397	-0.4049764235	-0.7001349848	 0.0988
H	 2.0844334487	-0.1484497913	 2.6245247956	 0.120029
H	 0.4775941147	 0.5760855117	 2.9486355143	 0.111476
H	 0.7892747176	-2.8712620387	 1.3929004816	 0.099353
H	-1.9245543886	-1.512430777	 1.8526840294	 0.08159
H	-1.5866961388	-2.835432995	 0.7141495965	 0.111659
H	-1.2036677913	-3.0596758849	 3.4881273874	 0.295378
