16
gdb 78058	3.30655	1.19043	0.98235	2.3728	72.46	-0.2441	-0.0335	0.2106	1180.4654	0.122291	-437.825862	-437.817588	-437.816644	-437.85908	30.189	
C	 0.0401794577	 1.5154049332	-0.1005384248	-0.344518
N	 0.0082614708	 0.0586464866	 0.0488475026	-0.100838
C	-1.1554617175	-0.5639022317	 0.8029732725	-0.162381
C	-0.2297383646	-1.8050835851	 1.0280068669	-0.087771
C	 0.0722483576	-2.673977553	-0.16613105	 0.133315
O	 0.0595956258	-3.8788615282	-0.0991541799	-0.254731
C	 0.6841731917	-0.5569809695	 1.2632005053	-0.162411
C	-0.5001716484	 0.036719652	 2.0815994388	 0.433948
O	-0.7335613635	 0.7471157829	 3.0037433295	-0.305309
H	 1.0373645943	 1.8033361594	-0.4454247546	 0.136179
H	-0.6785762153	 1.7968454182	-0.875399822	 0.13618
H	-0.1913772763	 2.0795827999	 0.8150858144	 0.133104
H	-2.1756771579	-0.5393448745	 0.4236662641	 0.113377
H	-0.4462185801	-2.4199905975	 1.9024208993	 0.111047
H	 0.3057793545	-2.1414413542	-1.1053207357	 0.107433
H	 1.7626104212	-0.5245784086	 1.4089520737	 0.113374
