18
gdb 36529	4.01719	0.97556	0.83058	4.4649	72.41	-0.2769	0.032	0.3089	1346.2791	0.149207	-439.10412	-439.095948	-439.095004	-439.137426	30.377	
N	-0.012262036	-1.1949232363	 0.0975128231	-0.304193
C	-0.004639017	-0.0399549167	 0.1083816259	 0.271288
C	 0.0025013079	 1.4214930219	 0.0960117479	-0.363145
C	 1.4179074718	 2.007075904	 0.0375020241	 0.127902
C	 1.4210041393	 3.5319796032	-0.1212218091	-0.221887
C	 2.8574405093	 4.0378918758	 0.0491219901	-0.096793
O	 3.4128708931	 3.5554433624	 1.2643873095	-0.229092
C	 3.3740641204	 2.1563491481	 1.3149406299	 0.014968
O	 2.0631019927	 1.6482000434	 1.2512413915	-0.247444
H	-0.5745370336	 1.7701316372	-0.7673452679	 0.15129
H	-0.4963526099	 1.7898115158	 0.9987864291	 0.162733
H	 1.9603625882	 1.5545213736	-0.8101636966	 0.0873
H	 1.0276842201	 3.820962844	-1.1022627403	 0.104476
H	 0.7844947644	 3.9771192978	 0.6515913833	 0.117115
H	 3.4758413717	 3.7086284201	-0.8033274141	 0.094838
H	 2.8976911565	 5.1285913887	 0.0962418107	 0.12004
H	 3.9755867267	 1.7309663505	 0.4888918567	 0.08293
H	 3.7845372844	 1.8535086665	 2.2792688361	 0.127675
