18
gdb 17112	4.79304	1.54225	1.46395	2.548	67.55	-0.2387	0.0893	0.328	928.4875	0.154746	-384.903425	-384.89632	-384.895376	-384.934791	27.32	
C	-0.0364072111	 1.3135122672	-0.1506032718	-0.237577
O	-0.0507656883	-0.0333282211	 0.2598651462	-0.24827
C	-1.3104430305	-0.6448531475	 0.1446678603	 0.175594
C	-1.7285533195	-1.0468579081	-1.3128828387	-0.26361
C	-1.797481311	-2.5703885389	-1.0756252454	 0.079826
C	-2.5796455897	-2.7003274976	 0.2519501816	-0.235844
C	-1.2515246835	-2.0703890762	 0.7270354448	 0.039166
O	-0.5678713119	-2.8151600524	-0.3260086192	-0.290672
H	 0.9754717329	 1.6917013881	 0.0134806968	 0.128505
H	-0.2859232318	 1.4271579478	-1.2164348447	 0.105664
H	-0.743634681	 1.9246617284	 0.4332446203	 0.100994
H	-2.0749754883	-0.0299050702	 0.6446223407	 0.060781
H	-2.6755679677	-0.6113257412	-1.641771723	 0.095801
H	-0.9425931251	-0.7933448043	-2.0274171228	 0.117509
H	-1.9383303378	-3.2339436514	-1.9287796056	 0.080037
H	-3.5163596451	-2.1506654253	 0.3814339702	 0.092981
H	-2.6729251404	-3.7369344414	 0.5756410649	 0.114237
H	-0.8259264101	-2.197857116	 1.7214104053	 0.084877
