20
gdb 61959	2.37432	0.88446	0.69719	3.571	82.84	-0.2535	0.0272	0.2807	1628.8698	0.168357	-403.14967	-403.139035	-403.13809	-403.186679	37.57	
C	 0.0332124308	 1.8287966865	 0.2188388641	-0.406764
C	-0.0215861977	 0.3067164356	 0.0571392689	 0.028822
C	 0.6921821072	-0.4124364621	 1.2138381273	-0.172425
C	 0.7750645126	-1.9405991298	 1.0288695307	-0.364169
C	 1.4728739073	-2.5965912726	 2.127449856	 0.293632
C	 2.0520650305	-3.1104877311	 3.0470049458	-0.434097
N	-1.4090090791	-0.1343534468	-0.0832824958	-0.271487
C	-1.8503856911	-0.9168778278	-1.1041457567	 0.156328
O	-1.1541931912	-1.3851081492	-1.9808897251	-0.330441
H	 1.0698276223	 2.1730385023	 0.2759662825	 0.127183
H	-0.449592308	 2.3268165787	-0.6263112265	 0.12775
H	-0.4719257644	 2.1477089598	 1.1388328524	 0.112848
H	 0.4576295505	 0.022955993	-0.8847241297	 0.124968
H	 1.7058900148	-0.0073754101	 1.3052677996	 0.113897
H	 0.1827822546	-0.1885594276	 2.1598358054	 0.100493
H	-0.2364037016	-2.3534812497	 0.9384309089	 0.13617
H	 1.2761577855	-2.1681368303	 0.0799404623	 0.144565
H	 2.5623524915	-3.5796118377	 3.8511485356	 0.192305
H	-2.0885385045	 0.2051124339	 0.5806349407	 0.244109
H	-2.9439077098	-1.0884275351	-1.0462108666	 0.076313
