17
gdb 78579	5.18777	1.06936	1.02438	4.7398	77.74	-0.2564	0.0072	0.2636	1185.6397	0.136366	-380.784504	-380.776982	-380.776038	-380.816504	28.938	
C	-0.1887170099	 1.6223977166	-0.0568979413	-0.430227
C	-0.0336849161	 0.1123626158	-0.0006324136	 0.002537
C	 1.1914382454	-0.5572262221	-0.6403623495	-0.019005
C	 2.1494223574	-0.2109442332	 0.5379154688	-0.078328
C	 2.5272973096	-1.6924287091	 0.6258453894	-0.134785
C	 2.9164657476	-2.2477915868	 1.9154413071	 0.287994
N	 3.2344528166	-2.6691178492	 2.9440009042	-0.324181
N	 1.0354744232	-1.7992408173	 0.2838343547	-0.163053
C	 0.7515454347	-0.5349954355	 1.1495041243	-0.02024
H	 0.7506272824	 2.1378613992	 0.1680616434	 0.120139
H	-0.5173524146	 1.9434553231	-1.0506385892	 0.126603
H	-0.9379986193	 1.9626079373	 0.6650645326	 0.128678
H	-0.9706819818	-0.4092266987	-0.2245644912	 0.0931
H	 1.4569034652	-0.6913211118	-1.6911209382	 0.090901
H	 2.783630201	 0.6669882333	 0.6835172939	 0.089484
H	 3.169936843	-2.0940773164	-0.164080112	 0.121822
H	 0.4991342756	-0.6412547853	 2.2051962065	 0.108561
