15
gdb 44024	3.3926	1.80626	1.5572	2.6232	71.44	-0.2347	-0.0103	0.2244	865.6468	0.113427	-416.630099	-416.623819	-416.622874	-416.660559	25.857	
N	 0.0009091129	 1.1587348813	-0.4496460829	-0.531867
C	-0.0344629762	-0.0238721775	-0.0513363239	 0.342343
O	 1.0227908401	-0.8718162835	 0.3827893611	-0.292167
C	 0.0404047006	-1.8247381857	 0.8693964658	 0.293063
C	-0.6809398469	-1.7850718495	 2.2169168919	-0.310006
C	-1.7976291011	-2.0211968683	 1.1709551985	-0.098286
C	-0.8777734616	-2.9293883879	 0.229766747	-0.074381
N	-1.2242423376	-2.1487688368	-0.9872222132	-0.355749
C	-1.0828845222	-1.115919543	 0.1028164595	 0.130669
H	 0.9516205618	 1.5333914482	-0.447831068	 0.242255
H	-0.4799835646	-2.5899339178	 2.9268728407	 0.111626
H	-0.7120274351	-0.8134734161	 2.71673365	 0.120079
H	-2.868160344	-2.1627225521	 1.3238077494	 0.107165
H	-0.7941325156	-4.0197938152	 0.2411123972	 0.093464
H	-0.4163755504	-2.1102864759	-1.6161771032	 0.221792
