21
gdb 105452	2.60153	0.93667	0.78012	4.1628	83.71	-0.2386	0.0239	0.2626	1523.0437	0.181549	-383.261049	-383.250994	-383.25005	-383.296837	36.642	
C	 0.5326961166	-0.0269979565	 1.4747296817	-0.372852
C	 0.0632551977	-0.1511919172	 0.0219658559	-0.228467
C	-1.3596455516	-0.676670925	-0.1065311626	 0.371432
C	-1.731145498	-1.4760363923	-1.3445023348	-0.318719
C	-1.5799228238	-2.158438459	-0.0015063311	-0.320425
N	-2.3538992986	 0.1763330528	 0.5161120777	-0.349642
C	-2.7438918597	 1.3265349097	-0.2951573202	-0.264125
C	-3.7844290911	 2.1097775699	 0.3754052422	 0.247763
N	-4.6223884459	 2.7134015509	 0.892638585	-0.299296
H	 1.5417564438	 0.3927273069	 1.5266019184	 0.109558
H	-0.1415482669	 0.6191067979	 2.0424262534	 0.134914
H	 0.5490144027	-1.0048431709	 1.967518031	 0.114515
H	 0.140676975	 0.8249183024	-0.47582804	 0.093568
H	 0.7295131734	-0.8194995259	-0.5354239291	 0.097486
H	-2.7378965423	-1.3688980569	-1.7356842631	 0.11005
H	-0.975220362	-1.6518190333	-2.102492381	 0.115781
H	-0.7130872981	-2.7891666662	 0.1638767215	 0.120085
H	-2.4796570253	-2.5140468506	 0.4912924657	 0.114719
H	-3.1758912406	-0.3537786958	 0.7791287724	 0.23242
H	-1.8727799562	 1.9749003864	-0.4438893335	 0.158453
H	-3.1101304692	 1.0625623028	-1.3030718892	 0.132783
