12
gdb 132788	2.45508	1.84639	1.05417	3.3953	60.39	-0.2447	-0.0219	0.2228	994.4595	0.078065	-518.114048	-518.106908	-518.105964	-518.145629	26.757	
N	 0.0023427449	 1.3634027833	 0.1191709145	-0.569728
C	 0.0080063859	 0.0066940311	 0.0443559595	 0.316047
C	-1.1906331723	-0.719484474	 0.0258644419	 0.035444
F	-2.36493973	-0.0764281727	 0.0385363068	-0.06876
C	-1.0945405338	-2.0950919378	-0.0130927529	 0.241957
F	-2.202779746	-2.8162820028	-0.0344266025	-0.043744
N	 0.0572095819	-2.738324481	-0.0320510737	-0.321833
C	 1.1412193352	-1.9619909959	-0.0160163289	 0.064171
N	 1.1867244465	-0.6346895313	 0.0179136325	-0.326657
H	 0.8752429227	 1.8302725061	-0.0628669045	 0.272135
H	-0.8504239602	 1.8581549885	-0.0778737956	 0.272542
H	 2.0987218652	-2.4750577735	-0.0353809671	 0.128425
