16
gdb 4769	4.9214	1.29662	1.05246	1.5079	68.14	-0.2147	0.0185	0.2332	1100.9877	0.130368	-383.768265	-383.760255	-383.759311	-383.801104	28.778	
C	-0.1782682422	 1.4769115255	 0.0038891188	-0.500151
C	-0.0338576162	-0.013151364	-0.0006428637	 0.265401
C	 0.2730582552	-0.8089464018	-1.0587539281	-0.118233
O	 0.312160628	-2.1221649879	-0.6897627056	-0.182406
C	 0.0325817927	-2.166337728	 0.6416515921	 0.32741
C	 0.0142403235	-3.5131783686	 1.2919882212	-0.161107
O	-0.7888071077	-3.5258912109	 2.4584030548	-0.406129
C	-0.1906638586	-0.9107675025	 1.1142161045	-0.375396
H	 0.5286913522	 1.9465230868	 0.6971753709	 0.131203
H	 0.0030432331	 1.8948852333	-0.9902304152	 0.124459
H	-1.1835934582	 1.7822011316	 0.3158238957	 0.129416
H	 0.479889789	-0.608064197	-2.0974090427	 0.129596
H	-0.3036891897	-4.2637167333	 0.5510751634	 0.107881
H	 1.0180239047	-3.804634846	 1.6252728533	 0.130341
H	-1.6639489461	-3.2119437033	 2.2058163409	 0.283811
H	-0.4252672496	-0.6509610141	 2.1348756798	 0.113903
