19
gdb 93002	2.72236	1.52566	1.11403	1.57	76.14	-0.2426	-0.0015	0.2411	1123.011	0.159092	-423.025768	-423.017384	-423.01644	-423.058311	32.894	
C	-0.0438997659	 1.495207582	 0.0483232593	-0.483586
C	 0.0789645658	-0.0084036155	 0.0138573685	 0.379746
O	-0.6533081287	-0.6966858008	 1.0683126018	-0.306931
C	 0.778412765	-0.7307829898	 1.0897324325	-0.058151
C	 1.4265396316	-2.0693508129	 0.8126319735	 0.107473
O	 1.5100274203	-2.8606433048	 1.9920052718	-0.437978
C	 0.7247732831	-2.8319512428	-0.3280205626	-0.295871
C	 0.3354679422	-1.9509928784	-1.4859185315	-0.096317
C	 0.0296945405	-0.663626562	-1.3250224603	-0.083688
H	 0.7639955708	 1.9627371389	-0.5249193784	 0.125558
H	-0.9951527659	 1.8124174294	-0.392900007	 0.128807
H	-0.0036848137	 1.863042415	 1.0760065326	 0.129961
H	 1.2355130045	-0.1610846687	 1.9004110754	 0.090077
H	 2.4692955475	-1.8758786738	 0.5305016346	 0.096256
H	 0.6105143672	-2.972018089	 2.3215292198	 0.285239
H	 1.3655630934	-3.6562904701	-0.6543784394	 0.112464
H	-0.1835837486	-3.2927660398	 0.0850027676	 0.120256
H	 0.2681210958	-2.4080517123	-2.4692382945	 0.098106
H	-0.2738099049	-0.0498925246	-2.1681562837	 0.088579
