17
gdb 71184	2.64999	1.62224	1.3378	0.6505	77.32	-0.2386	0.0401	0.2787	1002.4393	0.134936	-384.601945	-384.594133	-384.593189	-384.633886	31.299	
O	-0.0811573212	 1.4274444248	 0.0224797739	-0.477556
C	-0.0591302457	 0.047601306	-0.0028103065	 0.374303
C	 0.456523714	-0.7610657015	-1.2262560051	-0.306688
C	-0.5404378852	-1.8305930591	-0.7805415108	-0.056977
C	-0.5539227344	-1.845613489	 0.7540488564	-0.072582
C	-1.369202159	-0.8320619868	-0.0089902357	-0.150758
C	 0.4327290966	-0.7781739687	 1.2484647824	-0.227719
C	 1.8457581227	-1.0659735487	 1.4126794854	 0.293666
C	 3.0235111486	-1.2830145325	 1.5341714335	-0.453329
H	 0.8283096867	 1.7465384406	-0.0166405938	 0.287845
H	 0.1336804476	-0.2835480439	-2.1551956669	 0.104069
H	 1.5228932743	-1.0052619819	-1.2655849829	 0.103169
H	-0.8929242506	-2.6845425182	-1.3433649631	 0.090382
H	-0.9099055043	-2.7030900444	 1.3090455178	 0.095015
H	-2.420283605	-0.5874624196	-0.0019627655	 0.099632
H	 0.0278216641	-0.2986074981	 2.1456648066	 0.104151
H	 4.0591805107	-1.4877349889	 1.6484053942	 0.193378
