15
gdb 18182	4.25533	1.89357	1.53599	1.5216	71.18	-0.2274	0.0039	0.2312	828.7534	0.119243	-325.461672	-325.454964	-325.45402	-325.492347	26.386	
C	-0.1076564518	-1.2627185533	-0.1659427016	-0.47837
C	-0.049629304	-0.0656099634	-0.0782548575	 0.355767
C	 0.0043152369	 1.3893441918	 0.0420399502	-0.195196
C	-0.6284715534	 1.9175598523	 1.3268773636	-0.086627
C	 0.2290190448	 2.6981176646	 1.9794788799	-0.082114
C	 1.5332436187	 2.7514459098	 1.2619615357	-0.065999
C	 2.2464413005	 1.4474806534	 1.1380972257	-0.232944
N	 1.4008393316	 1.9242242902	 0.0371823283	-0.100018
H	-0.1566748154	-2.3200315399	-0.2525410563	 0.199781
H	-0.5042525312	 1.8202824201	-0.8328193589	 0.120451
H	-1.6289211894	 1.6422977253	 1.6356481577	 0.11401
H	 0.0391031034	 3.2202548086	 2.9091327776	 0.109115
H	 2.0706690437	 3.691636274	 1.1714317687	 0.098455
H	 3.3059129266	 1.4237945221	 0.8981395157	 0.118087
H	 1.889904739	 0.6240768045	 1.7510769009	 0.125602
