21
gdb 76644	2.7516	1.23819	1.19489	2.9003	78.35	-0.2233	0.0609	0.2842	1186.7958	0.182652	-424.188124	-424.179009	-424.178065	-424.222538	34.025	
C	 0.024884816	 1.539939018	-0.1990449349	-0.41594
C	 0.0492091119	 0.0340864159	-0.0403461769	-0.078409
C	 1.3422047884	-0.7476882992	-0.1435791151	 0.111017
O	 2.5649349892	-0.129071453	-0.3936238852	-0.435643
C	 0.6380283723	-0.642928485	 1.1942763499	-0.123859
C	 1.2095647886	 0.1151411857	 2.366007808	 0.125591
C	 2.1780712166	-0.6468027813	 3.3040126852	-0.28494
C	 3.1691926204	 0.4898078289	 3.0001879682	-0.069018
O	 2.2644468909	 1.0802211651	 2.0321002877	-0.309497
H	 0.9213355622	 2.0131734112	 0.2064082225	 0.136622
H	-0.0453825069	 1.8109332334	-1.2578635734	 0.119054
H	-0.8395253662	 1.9760347155	 0.3138178361	 0.110801
H	-0.825747544	-0.4640745295	-0.4525494122	 0.079322
H	 1.2996267862	-1.7074480981	-0.6514258135	 0.093934
H	 2.6992581285	 0.5235576036	 0.3112895171	 0.298482
H	 0.1188177989	-1.5365431358	 1.5378144847	 0.087843
H	 0.4121118182	 0.6375274302	 2.9117656979	 0.087489
H	 1.8605477909	-0.7502870168	 4.3421586016	 0.112398
H	 2.4817961178	-1.6197238323	 2.9144211207	 0.122666
H	 3.3619319024	 1.1796767408	 3.8295441506	 0.112039
H	 4.1199905979	 0.2030382327	 2.5400657013	 0.120048
