23
gdb 113830	3.99771	0.83313	0.74276	0.0696	88.69	-0.2109	0.0915	0.3024	1627.7477	0.204568	-384.403133	-384.39304	-384.392096	-384.438928	37.065	
C	-0.0314912212	 1.6595453293	-1.0366729803	-0.37587
C	 0.1791338399	 0.4291432939	-0.1571572771	-0.109242
N	-1.1120103796	-0.1643719813	 0.1837186262	-0.089571
C	-1.6104930082	-1.2520393103	-0.6479853519	-0.267719
C	-1.1864877329	-1.5093797181	 0.7617879772	-0.006472
C	 0.0356842755	-2.3283315776	 1.0504018084	 0.001312
C	 0.4705673585	-2.5674462203	 2.4606940309	-0.261933
N	-0.0352634745	-3.6651307327	 1.6490459305	-0.092069
C	-1.3223367382	-4.2460603426	 2.0050009962	-0.309724
H	 0.9252733391	 2.1383439407	-1.2675513021	 0.109544
H	-0.509596074	 1.3849902962	-1.9827652845	 0.117789
H	-0.6751433393	 2.3856421611	-0.5325679859	 0.126168
H	 0.854826636	-0.2731575975	-0.6722988748	 0.085084
H	 0.6710640379	 0.7175117119	 0.7793114146	 0.10498
H	-2.6624883786	-1.214128521	-0.919777227	 0.112517
H	-0.9533292141	-1.6341596552	-1.4302141736	 0.106056
H	-1.9660841214	-1.586822091	 1.516231174	 0.088696
H	 0.8094276078	-2.2635667564	 0.2889685372	 0.089776
H	 1.5246122934	-2.6053495786	 2.7248125016	 0.113232
H	-0.1790951699	-2.1731135216	 3.2428939202	 0.105878
H	-2.0165711598	-3.5600634436	 2.5140785309	 0.102965
H	-1.8128443512	-4.6247485455	 1.1027442553	 0.12501
H	-1.1436392052	-5.0937059498	 2.6744290441	 0.123592
