19
gdb 78574	4.96382	1.04365	0.99554	0.8533	86.65	-0.2517	0.0481	0.2998	1251.1385	0.158594	-348.647224	-348.639291	-348.638347	-348.679408	31.672	
C	-0.1758646962	 1.6292000895	-0.1211710324	-0.420137
C	-0.0544181942	 0.114768126	-0.0466510497	-0.003376
C	 1.1830344804	-0.5864856202	-0.6534306036	-0.068889
C	 2.0871277465	-0.2483917059	 0.5826235565	-0.045358
C	 2.5412540227	-1.7248839256	 0.7378375909	-0.213569
C	 2.9283646258	-2.200590794	 2.0514257275	 0.298954
C	 3.2482684216	-2.5924547326	 3.1431168123	-0.445842
C	 1.0484298559	-1.8031040605	 0.3224356067	-0.043326
C	 0.6569006878	-0.5392033042	 1.1606171639	-0.051644
H	 0.7645446079	 2.1257089503	 0.1395465858	 0.114421
H	-0.4548733968	 1.9524938445	-1.1302427966	 0.115001
H	-0.9469260714	 1.9950668794	 0.565914299	 0.11608
H	-1.006045509	-0.3647248803	-0.3106404074	 0.062909
H	 1.5132160156	-0.6349539563	-1.6931673246	 0.067672
H	 2.689881528	 0.6463507154	 0.736631701	 0.079253
H	 3.2462141107	-2.0677876901	-0.0287071359	 0.09146
H	 3.5319054158	-2.9389888421	 4.1057218141	 0.190638
H	 0.4363757167	-2.6931720458	 0.1709571578	 0.076137
H	 0.3795905322	-0.5316184176	 2.2149738049	 0.079618
