25
gdb 100933	2.42598	0.90395	0.70152	2.5511	85.18	-0.2477	0.0637	0.3115	1689.1068	0.227737	-426.623417	-426.612131	-426.611187	-426.660009	41.68	
C	-0.0865361892	 1.4882423499	 0.2265897548	-0.39183
C	 0.2274599283	-0.0092388154	 0.1429525846	-0.17001
C	 0.7144754667	-0.4904370378	-1.2432071114	 0.039682
C	 2.1452726926	 0.0102977814	-1.5046259375	-0.415412
C	 0.5536425662	-2.0335415058	-1.3683763668	-0.041118
C	-0.9257505574	-2.4016042572	-1.6149924602	-0.054507
O	-1.2159879971	-3.7710200475	-1.4273683804	-0.436425
C	 1.4346304287	-2.648651243	-2.4685056439	-0.099615
O	 1.2712770483	-4.0687177018	-2.5976522199	-0.423079
H	 0.7890011884	 2.1096007593	 0.0145649205	 0.117739
H	-0.8706913989	 1.7661464561	-0.486599919	 0.115812
H	-0.4399925414	 1.755835864	 1.2273081289	 0.114643
H	 0.9929741759	-0.2678332072	 0.8876069422	 0.092599
H	-0.669546225	-0.5661074889	 0.4331559563	 0.102563
H	 0.063047035	-0.0350469582	-2.005196369	 0.07002
H	 2.4719648244	-0.171635949	-2.5320669742	 0.117628
H	 2.2142778775	 1.0884285505	-1.3351975997	 0.115614
H	 2.8625958425	-0.4738123523	-0.8310306769	 0.112614
H	 0.8514039758	-2.4890804084	-0.410782433	 0.065597
H	-1.5742028107	-1.8558015814	-0.923112545	 0.102905
H	-1.1976921057	-2.0667910351	-2.6328639399	 0.077722
H	-0.5970303081	-4.2454113678	-1.9993684734	 0.281002
H	 1.1554698717	-2.2409422939	-3.4471365324	 0.115902
H	 2.4933108651	-2.4173146328	-2.3058904564	 0.1006
H	 1.6401916064	-4.4753738979	-1.8058565583	 0.289355
