12
gdb 25170	3.15664	1.56279	1.04529	6.3574	74.17	-0.2553	-0.1086	0.1467	1028.1341	0.078782	-431.689218	-431.682168	-431.681224	-431.721147	25.823	
N	-0.0472558095	 1.2716099112	 0.3560860147	-0.505102
C	-0.0197716146	 0.0602157237	 0.0066321998	 0.36446
O	 1.1493678567	-0.567013996	-0.4142909896	-0.21566
C	 1.128211674	-1.8655077567	-0.7784307521	 0.065177
C	 0.0013663971	-2.5991986079	-0.752603664	-0.099417
N	-1.2012562388	-2.0564959836	-0.3487113021	-0.287174
C	-1.2099657687	-0.8131655832	 0.0060695446	 0.136466
C	-2.4515522901	-0.2266569925	 0.4301585142	 0.314625
N	-3.4603439057	 0.226377639	 0.7681040338	-0.314662
H	 0.8713365751	 1.7102298916	 0.2897076303	 0.240888
H	 2.1040230711	-2.2227174058	-1.082532201	 0.160332
H	-0.0004156065	-3.6397388397	-1.0475870686	 0.140068
