15
gdb 133537	2.48044	1.43496	1.29546	1.6858	53.5	-0.2601	0.0573	0.3174	999.9274	0.108954	-585.423114	-585.414646	-585.413702	-585.456786	30.629	
N	-0.0602869647	 1.5220545115	-0.0853604896	-0.564379
C	-0.0324435122	 0.0751054186	 0.0091233862	 0.093389
C	 0.1536002347	-0.4790734729	 1.4411911374	-0.096725
O	-1.1357839991	-1.1179870435	 1.4105333473	-0.265668
C	-1.4226231862	-0.5969804453	 0.0998308278	-0.096723
C	 0.8920856385	-0.5639842026	-1.0211685144	 0.229252
F	 2.1544939128	-0.1246835634	-0.8674790315	-0.084799
F	 0.9156978677	-1.900335511	-0.9319769732	-0.071964
F	 0.5059851369	-0.2474722738	-2.270578828	-0.084798
H	 0.8793575536	 1.8923901039	 0.0357134495	 0.240603
H	-0.3582564998	 1.7998168551	-1.017457219	 0.240605
H	 0.9677351168	-1.1974856353	 1.5830203949	 0.117623
H	 0.2123225325	 0.3109582665	 2.1977301275	 0.112983
H	-2.2445028487	 0.1271821752	 0.1069689619	 0.112978
H	-1.6272121427	-1.391596423	-0.6252757869	 0.117623
