18
gdb 13639	6.24808	0.81626	0.77063	1.4656	76.87	-0.2362	0.0674	0.3035	1497.57	0.151649	-347.76157	-347.752104	-347.75116	-347.797693	32.855	
C	-0.022561441	 1.4054663929	-0.3249349542	-0.496036
C	-0.0418149118	-0.015878773	-0.0083017171	 0.070347
C	-0.0492282099	-1.1909830926	 0.2544914349	 0.064095
C	-0.0809235021	-2.6167292087	 0.5713774668	-0.375862
C	-1.4188914561	-3.2669257536	 0.2467963975	-0.000036
C	-1.7247041093	-3.7052610985	-1.1702940603	-0.315953
C	-1.4827865497	-4.7290776584	-0.0879676479	 0.080574
O	-0.2749415919	-5.4364431493	-0.0625818251	-0.415311
H	 0.8365137868	 1.6636684501	-0.9544880472	 0.143896
H	-0.92772346	 1.706566577	-0.8644262606	 0.14375
H	 0.0384306504	 2.0173141677	 0.5822055587	 0.143802
H	 0.7113908201	-3.145629751	 0.0311541258	 0.135762
H	 0.1405753834	-2.7619143805	 1.6373015933	 0.125809
H	-2.2537208296	-2.8723336639	 0.8181028476	 0.093974
H	-2.7278384727	-3.5761752789	-1.5617596704	 0.10989
H	-0.931436445	-3.5746104849	-1.8997216116	 0.115963
H	-2.3411626452	-5.2899260167	 0.2822116694	 0.08615
H	-0.2723897764	-6.0464246276	-0.8071685297	 0.289186
