19
gdb 46352	3.45911	1.1644	0.91904	2.4894	77.65	-0.2246	0.0239	0.2485	1270.9022	0.160364	-419.171768	-419.163509	-419.162565	-419.205431	30.514	
N	-0.1354598326	 1.1602902305	-0.3269260414	-0.548886
C	-0.0253158403	-0.0401535235	 0.0147411825	 0.450434
O	 1.0360537713	-0.7361812919	 0.5482681434	-0.253316
C	 0.2398353715	-1.9603383183	 0.6478880879	-0.098526
C	-0.9693690189	-1.2335697356	 0.0145763139	-0.108591
N	-2.1265382151	-1.0813563953	 0.8519519936	-0.077005
C	-3.1241409893	-2.1740582997	 0.889461317	-0.165025
C	-4.2394591013	-1.1050042106	 0.9694827968	-0.231037
C	-3.1737782281	-0.1125669468	 0.4446568422	-0.147289
H	 0.7273550896	 1.6794556889	-0.1536579101	 0.228715
H	 0.6923198208	-2.7674333277	 0.0676807238	 0.117712
H	 0.0981216072	-2.2504584587	 1.6907819536	 0.125964
H	-1.2082997186	-1.5851449878	-1.0059299878	 0.080562
H	-3.1671916973	-2.7465055324	-0.0526948289	 0.084569
H	-3.0102383188	-2.875381158	 1.7224896022	 0.102789
H	-5.1233599552	-1.2614720912	 0.3512307878	 0.10712
H	-4.5445639327	-0.8926728597	 1.9955326893	 0.115893
H	-3.0897465062	 0.8705893487	 0.9129911336	 0.119322
H	-3.2320450562	 0.021692779	-0.6461294096	 0.096595
