19
gdb 107489	2.14699	1.83897	1.28852	1.0615	75.9	-0.2366	0.0837	0.3203	1057.6025	0.157922	-422.958219	-422.949741	-422.948797	-422.991157	32.346	
C	-0.1484943004	 1.3786706708	 0.0435085664	-0.263235
O	 0.0332204074	-0.0354615064	-0.0085210071	-0.276353
C	 0.6678273097	-0.4883068821	-1.1336180233	 0.365381
C	 1.6014737022	-1.6561418249	-1.0411846678	-0.331872
C	 2.1266006282	-0.3684839286	-1.6326366826	-0.151037
C	 1.6313001502	-0.2449441773	-3.0830896787	-0.317691
C	 0.1809269569	-0.3528149386	-2.5687930076	 0.369551
C	-1.0656267435	-0.7946133782	-3.1955739935	-0.275349
O	-0.7979146071	 0.5995968708	-2.949709338	-0.280498
H	 0.8176821355	 1.8987267773	-0.0061222311	 0.10786
H	-0.7877566473	 1.728414527	-0.7720728984	 0.145288
H	-0.6223220187	 1.5933453639	 1.0036991308	 0.124904
H	 1.9251989203	-1.8597396881	-0.0255010169	 0.122685
H	 1.4681397399	-2.5407377685	-1.6610414043	 0.105161
H	 2.9703837741	 0.158407956	-1.206854751	 0.096254
H	 1.8040167304	 0.741206149	-3.5212722562	 0.120826
H	 1.9708010201	-1.0185526562	-3.7795411398	 0.101965
H	-1.0769355958	-1.0808858821	-4.246225387	 0.115655
H	-1.8531700521	-1.2305924936	-2.5827899639	 0.120505
