16
gdb 52751	2.46879	0.82157	0.63496	4.098	79.36	-0.2625	-0.042	0.2205	1702.661	0.120695	-400.741315	-400.730883	-400.729939	-400.779903	33.964	
C	-0.0411989696	 1.5031823089	-0.0172259737	-0.500487
C	 0.0102969336	 0.0491379905	-0.0134725226	 0.139036
C	 0.0633505447	-1.1522971659	-0.0136684312	 0.051879
C	 0.0952087234	-2.6142273361	-0.0001979912	-0.347438
C	-1.3382881059	-3.2123810435	 0.1266156193	-0.276139
C	-1.3506187267	-4.725232147	 0.2491074896	 0.142631
O	-1.998719082	-5.3197648842	 1.0698588012	-0.230962
C	 0.7767012687	-3.135787045	-1.1995242458	 0.295601
N	 1.297876069	-3.5628788923	-2.1377964637	-0.321969
H	 0.9643790148	 1.9323924113	 0.0429445332	 0.160199
H	-0.5116337794	 1.8781535107	-0.9321469959	 0.159637
H	-0.6176642648	 1.8791801608	 0.8345488895	 0.157317
H	 0.6813912285	-2.9506292837	 0.8668490006	 0.16412
H	-1.8339091383	-2.7807328796	 0.9980683579	 0.145145
H	-1.9080280765	-2.9327646754	-0.768103845	 0.152283
H	-0.7198204497	-5.2641156595	-0.4913974321	 0.109146
