19
gdb 124797	2.4445	1.40993	1.00169	3.87	77.56	-0.2357	0.0189	0.2547	1220.2669	0.159359	-419.237258	-419.227761	-419.226817	-419.27205	34.549	
C	 0.03895138	 1.4479228591	-0.2385603583	-0.387281
C	 0.0040327274	-0.0194216531	 0.2166750395	 0.050689
O	 0.4741720953	-0.1245813867	 1.548985037	-0.442224
C	-1.3747518203	-0.6148594199	 0.0782133917	 0.267096
N	-2.1110436565	-0.7826102755	 1.1729232391	-0.318582
N	-3.2695071877	-1.3060916014	 0.7342392789	-0.199425
C	-3.284830455	-1.4780217888	-0.6097829724	-0.100732
C	-2.0667643813	-1.0385306133	-1.0879606439	 0.126196
C	-1.5908647424	-1.0279301186	-2.5084439357	-0.515662
H	 1.0471762957	 1.8483432305	-0.1012590598	 0.121587
H	-0.2354888146	 1.5482604284	-1.2940327047	 0.107338
H	-0.6574006202	 2.042477442	 0.3604755726	 0.118884
H	 0.6933820769	-0.592596188	-0.4219083293	 0.078181
H	-0.2994932902	-0.2979568353	 2.1007876881	 0.293233
H	-3.98779805	-1.5374807813	 1.3984061386	 0.274897
H	-4.1396290602	-1.8964226423	-1.1187294979	 0.135489
H	-1.4958823005	-0.0101314444	-2.904338103	 0.133924
H	-0.6076909415	-1.501906043	-2.6065385458	 0.133356
H	-2.284010495	-1.5684362284	-3.1590450449	 0.123037
