15
gdb 44983	3.8181	1.21385	1.04728	3.5977	71.9	-0.2581	0.0011	0.2592	1114.4846	0.111842	-420.622195	-420.614591	-420.613647	-420.654344	29.397	
O	 0.0207739784	 0.0831594216	-0.4286580362	-0.31696
C	-0.0463323006	 1.2027432173	-0.0237039984	 0.425372
C	-1.3009803893	 2.035143244	 0.2565314261	-0.448133
C	-0.7861854449	 3.3429491831	 0.8362327747	 0.117645
C	 0.0461095259	 3.221450774	 2.1170454701	-0.342912
C	 0.7304878744	 3.2034966282	 0.7910345714	 0.062231
O	 1.0725302221	 1.9408046539	 0.27077868	-0.215001
C	-1.4524853103	 4.5714256803	 0.5329823251	 0.179715
C	-2.0231606611	 5.5980551666	 0.2742246168	-0.374279
H	-1.8350752482	 2.1949593052	-0.6840710958	 0.156885
H	-1.9646213603	 1.4766662177	 0.9215872968	 0.151737
H	 0.1349768929	 4.1201117163	 2.7155705519	 0.14117
H	-0.0063544224	 2.2916803004	 2.6747927948	 0.133703
H	 1.3909240737	 3.9931868209	 0.458698971	 0.134157
H	-2.5253968204	 6.5054229104	 0.0459219716	 0.19467
