17
gdb 43780	4.00217	1.20922	1.08888	2.6142	79.23	-0.24	-0.0115	0.2286	1115.0044	0.136183	-384.667655	-384.660106	-384.659162	-384.699509	30.261	
O	 0.0229427323	 0.0513273247	-0.0351673001	-0.330116
C	 0.0187277111	 1.2513333286	-0.0032772347	 0.431972
C	-1.196124723	 2.2056855537	 0.0177541064	-0.380291
C	-0.4157873636	 3.5444414366	 0.0560292933	 0.242077
C	 0.7004858778	 3.2813893914	-1.0128511593	-0.269941
C	 1.1911789056	 2.221640869	 0.0265683549	-0.150256
C	 0.6930141787	 3.2248648307	 1.1172587408	-0.269941
C	-1.1744753463	 4.768089098	 0.0858355075	 0.057573
C	-1.8053481232	 5.7916657929	 0.1109105309	-0.338184
H	-1.816655694	 2.0904852358	-0.8752377826	 0.133685
H	-1.8229167218	 2.0434102177	 0.8989817491	 0.133681
H	 0.3873794882	 2.9384914738	-2.0023814248	 0.112845
H	 1.3910444446	 4.1218648063	-1.098956962	 0.120388
H	 2.1912124244	 1.7959951298	 0.0187800618	 0.088763
H	 1.3827999469	 4.0594594779	 1.2526544405	 0.120388
H	 0.3730426265	 2.8300302714	 2.084992754	 0.112844
H	-2.3641675643	 6.6943159216	 0.1333165543	 0.184511
