21
gdb 37074	3.19508	1.61967	1.31901	1.8003	80.76	-0.2525	0.086	0.3385	1043.6564	0.185739	-387.11434	-387.107007	-387.106063	-387.145591	30.6	
C	 0.2612816911	 1.325643768	-0.6563953579	-0.206522
C	 1.3086213082	 2.0873896753	 0.2058870844	-0.316982
C	 1.8693686161	 1.0072870476	 1.1026463123	 0.390243
C	 2.5604262145	 1.1178082044	 2.4425952479	-0.316982
C	 2.346902229	-0.2897653966	 3.0701700663	-0.206523
C	 1.0333638757	-0.843747193	 2.4469308534	-0.316982
C	 0.9681281296	-0.1503826695	 1.1052049633	 0.390243
C	-0.2184414768	 0.1258323611	 0.2102220778	-0.316981
O	 2.2191866223	-0.1962738414	 0.3851364499	-0.34552
H	-0.5646922533	 1.9679621235	-0.9723108059	 0.095165
H	 0.7454818104	 0.9467024703	-1.5585300454	 0.120467
H	 2.0643411799	 2.5875880518	-0.4079270027	 0.104828
H	 0.832142208	 2.8554914115	 0.8281870575	 0.098858
H	 3.620144794	 1.382545867	 2.3719641273	 0.104828
H	 2.0670413156	 1.8990029655	 3.0346899129	 0.098858
H	 3.1792337484	-0.9383507115	 2.7900741976	 0.120467
H	 2.3087995434	-0.2576893449	 4.162016389	 0.095165
H	 1.0365006859	-1.936218882	 2.3792997012	 0.104828
H	 0.1562830569	-0.5554204487	 3.0401146939	 0.098858
H	-1.0786179655	 0.4010636476	 0.8336112097	 0.098858
H	-0.5193022136	-0.7311781858	-0.4005925125	 0.104828
