17
gdb 19692	5.38391	1.60848	1.46186	2.2238	67.5	-0.2332	0.0805	0.3137	894.3936	0.142879	-363.772473	-363.765617	-363.764673	-363.803554	26.222	
C	 0.1698251451	 1.342909168	 0.0160960972	-0.24027
O	-0.1811214996	-0.0051438742	 0.2407364011	-0.256165
C	 0.6211096211	-0.640771439	 1.2031202053	 0.152821
C	 0.1905360686	-2.0997713633	 1.312632191	-0.06983
C	 1.1966220189	-2.5269683307	 0.3128056664	-0.033091
C	 1.9737419483	-1.1985897214	 0.6603814112	-0.132816
C	 2.4991027571	-1.9718689196	 1.8766510288	-0.153826
N	 1.3594910429	-2.9442085823	 1.7334762719	-0.154866
H	 1.185927714	 1.4471056676	-0.3920791076	 0.106141
H	-0.5418771846	 1.7437366681	-0.709363742	 0.130093
H	 0.107611024	 1.9370221947	 0.9409821598	 0.107152
H	 0.675880754	-0.031164741	 2.1199730774	 0.058531
H	-0.7973017107	-2.4898569109	 1.5175738746	 0.102183
H	 1.1669523648	-3.2061171742	-0.5278442208	 0.099714
H	 2.606121753	-0.5961239741	 0.0112031719	 0.076359
H	 3.4335255493	-2.5083707151	 1.6942952122	 0.111003
H	 2.5530946237	-1.4512111926	 2.8409843014	 0.096867
