22
gdb 78267	3.13905	1.35033	1.15175	1.5546	86.74	-0.2184	0.0895	0.3079	1182.5791	0.193506	-367.159712	-367.150628	-367.149684	-367.192705	35.598	
C	 0.730086238	 2.2101604659	-1.9825423303	-0.422096
C	 0.4223399616	 0.7676714777	-1.6514731181	 0.022458
C	 1.235807158	-0.3987660961	-2.0619617938	-0.077212
C	 2.7157404653	-0.1554310533	-1.9890784628	-0.164248
C	 3.2693475456	-0.9771912449	-0.8378591153	-0.053077
C	 4.7701418947	-1.0127466222	-0.6495785455	-0.431955
C	 2.5047315823	 0.2853649285	-0.5358815953	 0.370135
C	 3.0052600795	 1.4027137421	 0.3321385232	-0.502895
N	 1.0533018925	-0.037340126	-0.5747964074	-0.189976
H	 1.7974709459	 2.3921398098	-2.114014612	 0.128554
H	 0.2271667255	 2.4806100234	-2.9175680235	 0.11809
H	 0.3550401921	 2.8805783055	-1.2015359531	 0.122743
H	-0.6468499189	 0.5572702756	-1.6476711282	 0.090438
H	 0.7825139411	-1.2998865652	-2.4670140062	 0.091436
H	 3.3538899903	 0.2364053995	-2.7747693369	 0.08383
H	 2.7636056381	-1.9146934655	-0.6096643376	 0.084835
H	 5.2438739525	-0.0758499542	-0.9600375585	 0.11512
H	 5.0401132826	-1.1930797043	 0.3967553388	 0.120683
H	 5.2131973394	-1.8145113241	-1.2500206369	 0.119931
H	 4.0928891492	 1.4970184197	 0.279010404	 0.121508
H	 2.5692684937	 2.3685828543	 0.0640273171	 0.120536
H	 2.738401811	 1.1984811241	 1.3757821682	 0.131161
