16
gdb 56963	2.31829	1.2445	1.03899	2.7976	70.15	-0.2777	-0.0618	0.2159	1199.4443	0.12186	-437.883196	-437.874042	-437.873098	-437.917869	31.866	
C	-0.349420096	 1.285924438	 0.1461948354	-0.402458
C	 0.1243390241	-0.1552480025	-0.1330464113	-0.180428
C	 0.8858049769	-0.2397487364	-1.3826971167	 0.259483
N	 1.5045527712	-0.3067572549	-2.3564925991	-0.315953
C	 0.9835314575	-0.6666707948	 1.0164417844	 0.06994
O	 0.2960619528	-1.0043496837	 2.2006189956	-0.225394
C	 0.9480982448	-2.070502117	 1.50751298	-0.050543
C	 0.0824694856	-3.1094770581	 0.8596134332	 0.148027
O	-1.0739987334	-2.9468937901	 0.563277937	-0.244617
H	 0.4993515866	 1.9688564633	 0.2420404223	 0.136646
H	-0.9876405968	 1.642876108	-0.6648673007	 0.144346
H	-0.9210518464	 1.299155267	 1.0770219713	 0.14977
H	-0.7482236632	-0.8103861345	-0.2160717496	 0.168776
H	 1.9194898565	-0.124594927	 1.1643762023	 0.123992
H	 1.8444971264	-2.4564981091	 1.9932037977	 0.118466
H	 0.6083033933	-4.0668040879	 0.6562499984	 0.099948
