20
gdb 89612	3.66353	1.13407	0.97164	2.5532	80.54	-0.236	-0.0204	0.2156	1275.9627	0.169445	-403.131803	-403.122604	-403.121659	-403.165737	34.441	
C	-0.2451613705	 1.5287960976	 0.0228206297	-0.405926
C	 0.2034275963	 0.1181328201	-0.3125113388	 0.085525
C	 1.6030131743	-0.1396973677	-0.9388320131	-0.346243
C	 1.8684547211	-1.0662544454	 0.242260174	 0.268964
C	 1.6979804024	-0.3283354572	 1.5212778331	-0.283815
N	 0.482145239	-0.8028600674	 0.865083774	-0.179409
C	 2.4270696324	-2.4403776096	 0.1154724551	 0.284928
C	 2.2605263629	-3.3752042329	 1.2979767009	-0.504285
O	 2.9800605662	-2.7770214916	-0.9107285911	-0.307387
H	 0.5084625185	 2.0872115865	 0.5860434778	 0.117348
H	-0.4453227623	 2.084980566	-0.8991436044	 0.125103
H	-1.1667462566	 1.5080161165	 0.6134797002	 0.13003
H	-0.5746523431	-0.3772267523	-0.8989982945	 0.094192
H	 1.5722241666	-0.6660996507	-1.8924004768	 0.132611
H	 2.2757613153	 0.71805903	-1.0280910684	 0.103909
H	 1.9050043783	-0.8525805208	 2.4485896619	 0.126097
H	 1.9417590559	 0.7311256665	 1.542132099	 0.118938
H	 1.2520773503	-3.2971029926	 1.7145959386	 0.156488
H	 2.4659101602	-4.3974370762	 0.9785144427	 0.14213
H	 2.9691380626	-3.1067378887	 2.0901530003	 0.140801
