19
gdb 48209	2.55024	1.18617	0.90477	1.4931	76.03	-0.2516	-0.0455	0.2061	1306.9475	0.158891	-419.145201	-419.136052	-419.135108	-419.180341	32.632	
O	-0.2003130311	 0.0206704719	-0.5876033732	-0.245991
C	-0.0802828658	 1.0529421418	 0.0222802516	 0.123472
C	 1.2126947514	 1.8591615001	 0.0996551312	-0.127584
C	 1.4547227863	 2.6635176018	-1.1806562455	 0.008176
C	 1.2377012499	 2.0872504884	-2.5273329836	-0.256059
N	 0.3572304263	 3.1619233133	-2.0300413499	-0.321365
C	 1.192382037	 2.758458682	 1.3228296882	 0.01401
C	 1.5504522818	 2.2182488725	 2.6589877536	-0.25408
N	 2.4433150968	 3.1688168557	 1.9725242729	-0.320087
H	-0.9413205748	 1.4874513618	 0.5795225669	 0.091535
H	 2.0303175732	 1.1311252879	 0.1999159907	 0.102752
H	 2.2534619671	 3.3934863237	-1.0617494653	 0.106808
H	 1.8900350053	 2.3751033479	-3.3467434599	 0.121706
H	 0.8410527137	 1.0777507111	-2.5831776245	 0.141034
H	-0.535229475	 2.7646725585	-1.7446205394	 0.232212
H	 0.4557334431	 3.559504149	 1.2753511408	 0.10737
H	 1.0703472174	 2.6041648491	 3.5532313051	 0.12689
H	 1.8497403562	 1.1744437194	 2.7206920174	 0.116892
H	 3.230166461	 2.6692271841	 1.5631971129	 0.232309
