17
gdb 2223	3.5915	2.78296	2.08	1.7883	64.1	-0.2284	0.0799	0.3083	714.6112	0.147788	-309.67984	-309.672685	-309.67174	-309.710496	26.876	
C	 0.0140973777	 1.5715365596	 0.0250302009	-0.4223
C	 0.0616129588	 0.0608466086	 0.0844713093	-0.072713
C	 1.3069322578	-0.7378468254	-0.1760863796	 0.043461
O	 2.4712424754	-0.037798841	 0.276174795	-0.285483
C	 1.9884241573	-0.103929005	 1.6439178917	-0.131816
C	 0.6814433317	-0.765336851	 1.2056499472	 0.252929
C	-0.0448298626	-1.8304662881	 1.9735300213	-0.497508
H	 1.0009946482	 1.9989590364	 0.2175909934	 0.136757
H	-0.2992916896	 1.9065714851	-0.9694073213	 0.116845
H	-0.6924513768	 1.9828090864	 0.7540430926	 0.112538
H	-0.8255614012	-0.4379509949	-0.3046367638	 0.083009
H	 1.4413948153	-1.4884665465	-0.9479419278	 0.097302
H	 2.6244354097	-0.7701435117	 2.2398141496	 0.103792
H	 1.9398084948	 0.88179735	 2.1220015933	 0.101424
H	-0.5967711665	-1.4073029497	 2.8219097283	 0.121534
H	-0.7713184543	-2.3476771729	 1.3385802318	 0.12127
H	 0.6475541641	-2.58247305	 2.3693524381	 0.118959
