22
gdb 93234	2.62976	1.31719	0.94079	2.7413	83.25	-0.223	-0.0118	0.2112	1302.3952	0.194624	-404.377868	-404.368598	-404.367654	-404.411672	35.177	
C	-0.0883300426	 1.5412474397	 0.0007458893	-0.3991
C	 0.0625542708	 0.0222008825	 0.0247749519	-0.095379
C	 0.7744098261	-0.5222352055	-1.2320485335	-0.14875
N	 0.9130564533	-1.9726203503	-1.1911021012	-0.062911
C	 1.4083012527	-2.5070340969	-2.4492035761	-0.320727
C	 1.7316621585	-2.3951775063	-0.0615884078	-0.150334
C	 1.090075857	-1.9643763612	 1.2668015124	-0.302569
C	 0.7919528966	-0.4736139851	 1.2710116911	 0.37931
O	 1.1146588038	 0.2563610239	 2.1799272654	-0.311331
H	 0.8888879089	 2.0315565566	-0.0427533708	 0.125284
H	-0.6726415117	 1.8596430236	-0.8681997672	 0.106639
H	-0.5866951486	 1.8948257574	 0.9056885008	 0.131764
H	-0.9287630562	-0.4538288215	 0.0469016799	 0.100798
H	 0.1902315641	-0.2529773477	-2.1187005548	 0.10321
H	 1.7583877985	-0.0186994946	-1.3338797702	 0.081087
H	 2.4245611238	-2.1510800966	-2.705457441	 0.094689
H	 1.4372311332	-3.6001045444	-2.4008380797	 0.119257
H	 0.7359729885	-2.2207576993	-3.2638836247	 0.119463
H	 1.8303455277	-3.4854520081	-0.0880726854	 0.104639
H	 2.758067087	-1.979302293	-0.1231437396	 0.084837
H	 0.1404705773	-2.5012900409	 1.385801642	 0.122895
H	 1.7332472212	-2.2013326822	 2.117299959	 0.117228
