18
gdb 34406	2.63417	1.53113	1.27722	3.9339	75.43	-0.2657	0.0267	0.2924	1043.9279	0.149819	-401.96262	-401.954986	-401.954041	-401.994901	29.519	
N	-0.0728643747	-1.1198190351	-0.510255435	-0.348756
C	-0.0594137329	 0.0040944976	-0.2358530012	 0.207101
C	-0.0317338545	 1.4159562762	 0.0886540493	 0.158725
C	-0.420591171	 2.3817463046	-1.0850686903	-0.282235
C	 0.971386322	 3.0644398697	-1.0043755654	-0.246808
C	 1.3883460018	 2.1200755621	 0.1587475185	 0.083138
O	 1.5026638986	 2.7025506972	 1.4331500356	-0.246537
C	 0.1899577716	 2.9513762712	 1.9250571895	-0.101832
C	-0.6479325855	 1.7478800473	 1.4637573751	-0.285183
H	-0.6218320626	 1.8644764102	-2.0235645456	 0.131285
H	-1.2747285249	 3.0215506985	-0.8508438326	 0.112074
H	 1.5824747897	 2.9502087944	-1.9017012327	 0.117989
H	 0.9648333501	 4.1192339306	-0.7216991204	 0.117215
H	 2.270275947	 1.5026490065	-0.0150967433	 0.105681
H	 0.2527647067	 3.049118977	 3.0108936136	 0.124795
H	-0.2118401344	 3.8919753003	 1.5181777321	 0.100218
H	-1.7167304751	 1.9660507429	 1.4005214122	 0.119402
H	-0.5053565221	 0.9059735388	 2.1456286907	 0.133727
