21
gdb 68884	2.34059	1.75231	1.32972	1.8377	81.8	-0.2359	0.0838	0.3197	1074.6967	0.181749	-387.059444	-387.050799	-387.049855	-387.092204	33.865	
C	 0.1101945628	 1.5366624673	-0.0502548999	-0.505599
C	-0.0668638396	 0.0654994565	 0.1467043375	 0.353708
O	 1.0193948828	-0.7969135558	-0.2367458815	-0.33718
C	 0.5197080719	-0.9025756792	 1.1086000307	 0.35371
C	 1.499564854	-0.7562744413	 2.2279513861	-0.505584
C	-0.7141437843	-1.8051266403	 1.0304839669	-0.09929
C	-1.8273589821	-1.4414976484	 2.0515087629	-0.234557
C	-2.4417658723	-0.4276881665	 1.04363948	-0.234552
C	-1.3404122265	-0.7714409888	 0.0030688874	-0.099266
H	 1.0807495352	 1.8660261963	 0.3307476107	 0.130006
H	 0.063308122	 1.7907335566	-1.1155394409	 0.130423
H	-0.6757935196	 2.1000001532	 0.4629364652	 0.123796
H	 2.1419816999	 0.114548194	 2.0711451299	 0.130002
H	 0.9862590289	-0.643077014	 3.1882603256	 0.123793
H	 2.1430045618	-1.6412390904	 2.2943279535	 0.130427
H	-0.5439412116	-2.8595431844	 0.8069217895	 0.070181
H	-2.4911030562	-2.2791492509	 2.2764176231	 0.104157
H	-1.478213755	-1.0281091214	 3.0021646244	 0.095745
H	-3.4445383216	-0.7058871059	 0.7121941953	 0.10415
H	-2.4751921742	 0.6167625045	 1.3669668634	 0.095738
H	-1.6513796464	-1.031479061	-1.0100616998	 0.070193
