21
gdb 100467	3.64626	0.59601	0.58061	2.6936	85.97	-0.2503	0.0353	0.2855	2044.5122	0.178318	-424.183873	-424.172289	-424.171345	-424.222652	39.891	
C	-0.1907138809	 1.4941935176	 0.0779485071	-0.230942
O	-0.056831843	 0.1000811189	 0.2380445089	-0.239426
C	-1.2460327963	-0.6340025315	-0.0379024504	-0.039267
C	-1.4669339347	-0.8230399532	-1.548373495	-0.392205
C	-1.1512813909	-1.9242368004	 0.6456402177	 0.012169
C	-1.0870189201	-2.9947259084	 1.1942604296	 0.1288
C	-1.0265216121	-4.3125500579	 1.8346995349	-0.020392
C	-2.410493911	-4.7650421816	 2.3233674729	-0.383705
O	-0.4264237901	-5.2905202719	 0.9872660145	-0.413511
H	 0.7541834199	 1.9409078731	 0.3962061642	 0.131825
H	-0.3799576081	 1.7890622371	-0.9646542291	 0.106314
H	-1.0019885516	 1.8993853113	 0.70333516	 0.105146
H	-2.1084399002	-0.0846003611	 0.3782595979	 0.090798
H	-1.5712561444	 0.1434207618	-2.0489586049	 0.118009
H	-0.6177388174	-1.3565349854	-1.9823050362	 0.135954
H	-2.3772978537	-1.4011814765	-1.7291083816	 0.123615
H	-0.3527738024	-4.251505789	 2.6981057897	 0.120941
H	-3.1104385796	-4.8307314193	 1.4839734698	 0.114642
H	-2.3262510502	-5.7505648347	 2.7885903165	 0.125392
H	-2.8179049917	-4.0577540813	 3.0516447293	 0.124647
H	-0.8820081516	-5.2538995677	 0.1389946041	 0.281195
