20
gdb 32444	3.08909	1.21446	0.88622	2.1876	84.48	-0.1803	0.0548	0.2351	1340.9202	0.169519	-403.18489	-403.174568	-403.173624	-403.220932	36.409	
C	 0.0212720086	 1.3649366597	-0.0603089594	-0.240702
O	 0.0175621932	-0.0452635778	-0.0293198515	-0.261899
C	-1.2152568414	-0.6219331324	-0.0072737627	 0.295027
C	-2.4590400511	-0.0327097781	-0.0107435786	-0.235854
N	-3.3768771775	-1.0662694892	 0.0189375356	-0.321956
C	-2.7363134855	-2.2804919114	 0.0407250544	 0.253261
C	-3.5083078697	-3.5589083966	 0.0746728514	-0.504754
C	-1.3751820196	-2.0409213373	 0.025102923	 0.062649
C	-0.2484115432	-3.0268546618	 0.038174738	-0.508094
H	 1.0659949967	 1.6813810392	-0.0752078301	 0.126754
H	-0.4869138029	 1.7466718329	-0.9575581211	 0.112939
H	-0.4733320815	 1.7858508281	 0.8269499683	 0.112939
H	-2.7704920247	 0.9967534636	-0.0309780996	 0.111652
H	-4.3734542012	-0.9450044252	 0.0238650427	 0.251341
H	-4.1590605642	-3.6716616029	-0.8020020062	 0.123808
H	-2.829886861	-4.4142945507	 0.0883295385	 0.136896
H	-4.1456654417	-3.6328212824	 0.9652135593	 0.123807
H	 0.3887291121	-2.9229295791	-0.8480052178	 0.125457
H	 0.402121557	-2.8843253524	 0.9091259138	 0.125457
H	-0.6140522122	-4.0571825961	 0.063598552	 0.111274
