22
gdb 120819	4.27362	0.59814	0.56399	3.2642	85.05	-0.2391	-0.0186	0.2206	2014.6148	0.192344	-404.338704	-404.328193	-404.327249	-404.376125	36.807	
C	-0.4028457409	 1.4846842314	-0.0361208466	-0.383357
C	-0.2017543894	-0.0273161327	-0.1612140954	-0.159062
C	 1.0196975204	-0.4032204563	-1.0112140855	-0.17924
C	 1.1928604377	-1.9004843198	-1.1265228956	-0.017466
N	 0.3553683258	-2.6035621759	-2.1138457194	-0.337432
C	 1.8214905391	-2.6103777689	-2.2762863948	-0.042909
C	 2.3764361075	-1.9289418069	-3.5133734772	-0.283773
C	 2.1541965483	-2.7816678484	-4.7460388082	 0.158856
O	 3.0172850174	-3.1182375706	-5.5157612517	-0.241381
H	 0.4648914454	 1.9640378122	 0.4309802695	 0.113352
H	-0.5456111189	 1.9473725749	-1.0189736607	 0.116332
H	-1.2808690093	 1.7209470445	 0.5728909159	 0.113212
H	-0.0967545833	-0.4678428116	 0.839403702	 0.091133
H	-1.0912098067	-0.4872103563	-0.6082735798	 0.110985
H	 0.9098363232	 0.0360779055	-2.00843743	 0.101014
H	 1.9275085583	 0.0307466425	-0.5701805259	 0.095981
H	 1.324522548	-2.3978055849	-0.1645912886	 0.083826
H	 0.0279169768	-3.4938083841	-1.7505870195	 0.233655
H	 2.3379938081	-3.536223832	-2.0246533398	 0.093725
H	 1.8509237226	-0.9805792317	-3.6748736101	 0.125415
H	 3.4464216507	-1.7243617012	-3.4121734734	 0.11926
H	 1.0952926793	-3.0916177595	-4.8919750753	 0.087876
