14
gdb 4399	3.6306	2.07212	1.32044	4.6664	72.29	-0.189	-0.0253	0.1637	871.2372	0.108979	-378.762269	-378.75545	-378.754506	-378.793013	26.665	
N	 0.1002023291	 1.3463827565	 0.1747848917	-0.561358
C	-0.0594416216	-0.0118696793	 0.061891117	 0.453191
C	-1.2370755186	-0.6917737352	 0.0328039186	-0.284551
C	-1.1732624453	-2.1160855987	-0.0130371336	-0.047751
C	 0.0117370878	-2.773711302	-0.0325158626	-0.187434
C	 1.2559600368	-2.0482104112	-0.0096343983	 0.382585
N	 2.4168658451	-2.5630994373	-0.0278340444	-0.543026
O	 1.1324598504	-0.6377631024	 0.0334539095	-0.270806
H	 0.990239715	 1.6986988657	-0.1444212966	 0.265383
H	-0.6917356168	 1.908314277	-0.0943682516	 0.265724
H	-2.1771146647	-0.1584869327	 0.0547879735	 0.091676
H	-2.1018282396	-2.6777276061	-0.0338249597	 0.107468
H	 0.0879249053	-3.8514691602	-0.0680109923	 0.114886
H	 3.136674277	-1.8417018939	-0.0020902711	 0.214014
