16
gdb 133773	3.05964	1.00881	0.91998	1.2168	58.05	-0.2694	0.07	0.3394	1256.0884	0.119854	-569.376251	-569.36725	-569.366305	-569.411272	32.087	
O	-0.1824761622	 1.4571965442	-0.5088921586	-0.422952
C	 0.0249308238	 0.1507873877	 0.0126783631	-0.116205
C	-1.3290910883	-0.5103373198	 0.0906665291	 0.012547
C	-1.918607532	-1.2420294495	-1.0851845221	-0.292034
C	-1.5232395187	-2.0073188946	 0.1532262039	-0.190669
C	-0.3850092781	-2.9841119401	 0.1267809816	 0.286004
F	 0.492030117	-2.7522848022	-0.8683019483	-0.084118
F	 0.3130591557	-2.9643447171	 1.2768974223	-0.084124
F	-0.8386746205	-4.2379505895	-0.0338468809	-0.076209
H	 0.665008335	 1.9118540666	-0.5152454784	 0.287792
H	 0.7017911362	-0.432870259	-0.6235895184	 0.101411
H	 0.4705002814	 0.1916656563	 1.0192029478	 0.09587
H	-2.030387625	 0.0524513976	 0.7001961785	 0.104603
H	-2.9748885979	-1.1356069184	-1.3013693223	 0.124154
H	-1.2859388095	-1.3641458777	-1.9568687063	 0.136025
H	-2.314349677	-2.3651223545	 0.8032989591	 0.117903
