16
gdb 56970	2.29508	1.15631	0.85543	4.8368	71.04	-0.264	-0.0358	0.2282	1311.8002	0.122301	-437.881061	-437.871866	-437.870922	-437.915964	32.42	
O	-0.4028637307	 1.2798911715	 0.1325760034	-0.404126
C	 0.0460503512	-0.0384824076	-0.1173772555	-0.042056
C	 0.8455533406	-0.098777468	-1.3608603768	 0.261334
N	 1.49412155	-0.1144016759	-2.3168682799	-0.308484
C	 0.83432702	-0.6103985249	 1.0514574226	-0.021678
C	 0.123355955	-1.1409924908	 2.2475258631	-0.318229
C	 0.9020100838	-2.1052609008	 1.3611946725	-0.102408
C	 0.1474166329	-3.1134040019	 0.5747064925	 0.167697
O	 0.5533184881	-4.2221596981	 0.3383656171	-0.256428
H	 0.3668665059	 1.8538707002	 0.2236844056	 0.296737
H	-0.866665204	-0.6198412755	-0.2780343627	 0.140847
H	 1.7717389742	-0.0878597161	 1.2247985099	 0.115868
H	 0.5189605546	-0.9349226182	 3.2347051751	 0.140231
H	-0.9600320607	-1.1987828659	 2.2002692006	 0.137424
H	 1.8549442155	-2.473526135	 1.7242687149	 0.122
H	-0.8617009064	-2.7882333432	 0.2292268676	 0.071274
