19
gdb 45537	4.05873	1.19858	0.97318	4.27	83.23	-0.2311	-0.0362	0.1949	1207.294	0.161901	-385.94772	-385.940246	-385.939302	-385.97989	29.498	
O	 0.0484652686	-0.0112764178	-0.2489660411	-0.335143
C	 0.0096873912	 1.1879794378	-0.1045568842	 0.394148
C	-1.2766889729	 2.0363027597	 0.053661621	-0.378405
C	-0.7926025881	 3.4858632217	-0.0643054774	-0.050562
C	-1.1161326085	 4.569921242	 0.9788024914	-0.235312
C	 0.0472742005	 5.579123834	 0.7970153479	-0.207653
C	 1.2955105792	 4.7209425131	 0.41592313	-0.33327
C	 0.7128599836	 3.381435351	 0.0648877787	 0.392478
C	 1.1584843205	 2.1205381675	 0.0156918688	-0.372879
H	-2.0311589794	 1.7375464324	-0.6772741816	 0.123455
H	-1.6889706427	 1.8312141529	 1.0489565853	 0.129593
H	-1.0358494903	 3.8872741148	-1.0596219043	 0.092299
H	-2.0979486721	 5.0319914592	 0.8464940066	 0.102493
H	-1.087077572	 4.1319072347	 1.9843226048	 0.103804
H	-0.1904454983	 6.2702937017	-0.0182270802	 0.108047
H	 0.219082906	 6.1866391034	 1.6885979732	 0.106619
H	 1.8516209287	 5.1604981437	-0.4196576865	 0.126013
H	 2.005840117	 4.6281195627	 1.2438160447	 0.126924
H	 2.1800627089	 1.7716962556	 0.100025863	 0.107349
