21
gdb 81237	2.80609	1.52969	1.38948	1.5984	82.6	-0.241	0.0933	0.3342	1055.2398	0.184706	-387.017955	-387.010292	-387.009347	-387.049874	31.032	
C	-0.0998975866	 1.5830790729	 0.0961007047	-0.45219
C	 0.0479204285	 0.0717819723	-0.0028322827	 0.044519
C	 1.2024331992	-0.6021564377	-0.7940121313	-0.101771
C	 2.1794009553	-0.2044265479	 0.375898331	-0.325974
C	 0.8840099759	-0.7479658164	 1.0482691809	 0.297168
C	 0.2951709838	-1.3528995245	 2.2920950745	-0.199481
O	-0.6305151858	-2.3239292056	 1.7608775878	-0.284848
C	-0.3444645691	-2.665584525	 0.3768157224	-0.123083
C	 0.9357952105	-1.9116760199	 0.0328422736	-0.018974
H	 0.834870972	 2.1084503311	 0.305859092	 0.117087
H	-0.5005416781	 1.9871525496	-0.8404558167	 0.117858
H	-0.8099224947	 1.8433231832	 0.8891795568	 0.119874
H	-0.932378595	-0.3610214304	-0.2134681677	 0.074177
H	 1.4109761491	-0.5229251262	-1.8628927612	 0.069644
H	 3.0742785508	-0.8225962532	 0.4853659383	 0.09683
H	 2.4205147651	 0.8516245058	 0.4948216041	 0.098212
H	 1.0588676366	-1.843133217	 2.9143966442	 0.093219
H	-0.2792391739	-0.6630434727	 2.9192512568	 0.104088
H	-0.2004680463	-3.749741805	 0.3131899878	 0.096947
H	-1.2192824191	-2.4076536944	-0.2300960358	 0.105345
H	 1.8177373916	-2.5521562791	 0.1271591207	 0.071354
