21
gdb 82835	2.55409	1.57276	1.51355	1.1744	81.24	-0.2288	0.0765	0.3053	1032.592	0.183417	-387.052914	-387.044886	-387.043942	-387.084768	32.827	
C	-0.2609688896	 1.5387513359	 0.0265172259	-0.420668
C	 0.0731024356	 0.0544062775	 0.0091561545	 0.048913
C	 1.0653238948	-0.5285149312	-1.0382922864	-0.143502
C	 2.4411142031	 0.1854621611	-1.0867963688	-0.22917
C	 2.8881851961	-0.5077696961	 0.2246038411	-0.113357
C	 2.2348289138	 0.1105453965	 1.4864369507	-0.229657
C	 0.8908491252	-0.5949779336	 1.163841864	-0.097495
C	 1.6341725339	-1.4689815625	 0.1014429298	 0.411322
O	 1.6023693718	-2.8473301678	 0.1608222963	-0.480496
H	 0.6324571047	 2.1630553097	 0.1223373295	 0.115833
H	-0.7720277074	 1.8358191095	-0.8964532965	 0.111966
H	-0.9227441996	 1.7812777434	 0.8658735075	 0.112898
H	-0.856907133	-0.5198912013	-0.0813019321	 0.075353
H	 0.6445367814	-0.8756387726	-1.984083882	 0.056871
H	 3.0283942577	-0.173431303	-1.93817111	 0.091776
H	 2.4495473892	 1.2797585634	-1.1055246411	 0.091661
H	 3.9250381014	-0.8396108665	 0.2995154874	 0.059575
H	 2.6735172188	-0.3078492967	 2.3969657947	 0.101604
H	 2.236685695	 1.2017942469	 1.5729406022	 0.089731
H	 0.3295653514	-1.0132175284	 2.000022264	 0.065622
H	 2.0920981056	-3.1998163042	-0.5907930307	 0.281221
