20
gdb 16174	4.21983	1.54714	1.34572	1.7336	74.09	-0.2509	0.0883	0.3392	1005.4285	0.177968	-349.016059	-349.00818	-349.007236	-349.048194	30.304	
C	 0.2985387337	 1.471870964	 0.2381506347	-0.379832
C	-0.1692673976	 0.0530180264	-0.1127740991	-0.277339
C	 0.4787884701	-0.4868197316	-1.3634871724	 0.438103
C	 0.1767618903	 0.1057205605	-2.7347853975	-0.278305
C	 0.8500351651	-0.8665811884	-3.7325524153	-0.212765
C	 0.860021699	-2.2435315633	-3.0243288972	-0.2404
C	 0.8945731598	-1.8849253947	-1.5527187856	-0.010657
O	 1.864494622	-0.8730240064	-1.233812936	-0.309031
H	 1.385309508	 1.4958821063	 0.3620265594	 0.133919
H	 0.0325767872	 2.1891759407	-0.5448711567	 0.116613
H	-0.1586636824	 1.8141223673	 1.1711934395	 0.111622
H	 0.0610095097	-0.6232530097	 0.7176119026	 0.103767
H	-1.2592350993	 0.0394780785	-0.2432510388	 0.096188
H	-0.9119690489	 0.1297902767	-2.8726126409	 0.097716
H	 0.5416303106	 1.1314992813	-2.8448878866	 0.105802
H	 0.3397288531	-0.8953029355	-4.6982548589	 0.09514
H	 1.8778411978	-0.5456746329	-3.9132419663	 0.119206
H	-0.056878041	-2.8109597571	-3.2290191536	 0.099516
H	 1.7057910644	-2.8673139311	-3.3301715436	 0.106994
H	 0.7491636687	-2.644826031	-0.7875311575	 0.083742
