21
gdb 78083	2.65568	1.21549	0.99233	0.9601	89.81	-0.2424	0.0535	0.2959	1295.3247	0.180797	-349.901076	-349.891643	-349.890699	-349.934779	36.429	
C	 0.018549839	 1.5628713861	 0.0198425708	-0.42159
C	 0.098291246	 0.0516494581	 0.0852408221	-0.062574
C	 1.3224910547	-0.783985669	-0.1961736697	-0.115566
C	 2.6015249296	-0.1023774728	 0.3391432929	-0.179608
C	 1.9479741328	-0.0927037088	 1.7716782072	-0.308287
C	 0.6896557079	-0.7691499362	 1.2039198927	 0.351701
C	-0.0768167632	-1.8359680821	 1.9333606818	-0.499647
C	 3.8039803313	-0.9058127871	 0.2326878404	 0.294011
C	 4.7947031807	-1.5821247116	 0.1433421483	-0.438689
H	 0.9035947565	 2.0532768973	 0.433484476	 0.120391
H	-0.0906052664	 1.9024727174	-1.016086425	 0.119078
H	-0.8479651751	 1.929081648	 0.5814050176	 0.115951
H	-0.792897431	-0.4293926743	-0.3170885206	 0.081169
H	 1.3299785332	-1.5724509326	-0.9398327385	 0.089734
H	 2.7926896322	 0.8910717626	-0.0828921217	 0.09708
H	 2.4952368372	-0.7447001181	 2.4546589104	 0.117086
H	 1.8229814722	 0.8870549986	 2.2437819043	 0.095742
H	-0.6372186038	-1.4168208143	 2.7785222375	 0.117957
H	-0.7988063037	-2.3267545067	 1.2721827421	 0.116866
H	 0.5923520135	-2.6076924165	 2.3310439287	 0.11909
H	 5.6735655064	-2.1719995179	 0.0618989528	 0.190106
