19
gdb 106527	3.1528	1.42591	1.22518	1.0194	70.36	-0.2506	0.0796	0.3302	1060.1692	0.160676	-460.134791	-460.127095	-460.126151	-460.166775	30.815	
O	 0.0024492418	 1.4232682398	-0.0764396695	-0.421359
C	 0.0200453868	 0.0207351221	 0.1050060215	-0.141889
C	-1.3642882079	-0.5710276832	-0.0289515794	 0.395147
C	-2.1365603504	-0.5628322507	-1.3817111154	-0.306623
C	-2.9142734778	-1.7601647612	-0.7689773565	 0.106159
C	-1.6246433837	-2.1027222585	 0.0273776231	-0.271426
O	-3.9051102631	-1.3088561647	 0.1594347531	-0.272964
C	-3.5571550163	-0.0702977975	 0.7327004231	 0.020076
O	-2.1708367886	 0.0429629314	 0.9972298635	-0.325694
H	-0.6784874699	 1.752210774	 0.5228050725	 0.287696
H	 0.6745190584	-0.3981318073	-0.6661691624	 0.10489
H	 0.4339532729	-0.2579117585	 1.0879196937	 0.094385
H	-2.6752328017	 0.332222095	-1.6941617795	 0.114359
H	-1.4873004792	-0.8947462304	-2.1942462655	 0.111717
H	-3.3892269158	-2.5044583034	-1.4085804577	 0.084447
H	-0.9022236183	-2.6715434959	-0.5645485866	 0.099707
H	-1.7595138631	-2.5447947605	 1.0155145697	 0.108088
H	-3.8748147747	 0.7521223161	 0.0731027015	 0.091787
H	-4.0805982495	 0.0104434836	 1.6889719207	 0.121497
