18
gdb 59407	2.95632	0.9599	0.94102	3.7882	73.7	-0.2815	0.005	0.2865	1351.5491	0.144174	-439.078074	-439.067951	-439.067007	-439.113572	35.953	
C	 0.0040294222	 1.4588535552	-0.2794779955	-0.41491
C	 0.1104960711	 0.0216216117	 0.2276589292	 0.090382
O	 0.7827279188	-0.0702646879	 1.4766241122	-0.422588
C	-1.2646729733	-0.6116929596	 0.3425589509	 0.012386
O	-1.9178642243	-1.0310195689	-0.8558473453	-0.270322
C	-1.5458054195	-2.0444578038	 0.0930165444	 0.220534
C	-0.5127091485	-3.0630149234	-0.3345416375	-0.46802
C	-2.6782923669	-2.6146434222	 0.8123110724	 0.257277
N	-3.5587968662	-3.0861751405	 1.3936917818	-0.33051
H	 0.9984891828	 1.9061742919	-0.3535965427	 0.132772
H	-0.472137147	 1.4863647798	-1.2639655832	 0.142775
H	-0.6004623984	 2.0691154361	 0.4034060581	 0.114205
H	 0.7187736137	-0.5585829807	-0.4713595185	 0.100796
H	 0.3899252411	 0.5719114807	 2.0785248153	 0.28573
H	-1.9267858581	-0.1047737365	 1.0500282364	 0.104863
H	 0.2791095632	-2.5903083615	-0.915618315	 0.142389
H	-0.0720281935	-3.545598945	 0.5423377076	 0.153056
H	-0.9818501573	-3.8333998653	-0.9526192309	 0.149185
