19
gdb 9273	4.3503	0.92065	0.79526	5.118	73.25	-0.2674	0.0415	0.3089	1423.3077	0.163513	-365.078063	-365.068356	-365.067412	-365.113248	33.504	
C	 0.0573052511	 1.3943452248	 0.0736864593	-0.237613
O	-0.1132580781	 0.0086026924	-0.1224767929	-0.247046
C	 0.6590109006	-0.5523359377	-1.1768737968	 0.134373
C	 2.1358124672	-0.6956962251	-0.8009479345	-0.407403
C	 0.0277132485	-1.9079144219	-1.4992118743	-0.189954
C	-1.4534017705	-1.772330688	-1.9009087845	-0.343166
C	-2.0768070581	-3.0609227227	-2.1885206346	 0.255065
N	-2.5550771259	-4.0885046684	-2.4145241883	-0.309337
H	 1.063675701	 1.6500613393	 0.433486254	 0.112038
H	-0.1332386274	 1.9613972	-0.8509561631	 0.105552
H	-0.6681422365	 1.7018490749	 0.8307361871	 0.132013
H	 0.5762372533	 0.1004030209	-2.0647123713	 0.064949
H	 2.696670175	-1.1554649987	-1.620586856	 0.121121
H	 2.5932963519	 0.2749937508	-0.5917296783	 0.120972
H	 2.2410882881	-1.3244540384	 0.0886260569	 0.129164
H	 0.59074039	-2.3866407634	-2.3062723209	 0.118224
H	 0.1062527319	-2.5555336757	-0.619524233	 0.127986
H	-2.0009444958	-1.2786733212	-1.0931155662	 0.168946
H	-1.5505791264	-1.1348425117	-2.7880293626	 0.144118
