14
gdb 13035	3.96632	1.39698	1.16849	3.7373	63.88	-0.2684	0.0045	0.2729	998.7874	0.107631	-378.75171	-378.744081	-378.743137	-378.784824	26.2	
O	-0.0005829395	-0.031928455	-0.3174806683	-0.355593
C	-0.0360342916	 1.1508780123	-0.1171190803	 0.416407
C	-1.1073146496	 2.2401225606	 0.1151890069	-0.369142
C	 0.0853957576	 3.2294825881	 0.26579093	-0.17511
N	 0.9711641201	 2.0899024139	-0.0061061706	-0.075641
C	 2.4001912897	 1.9268925478	-0.0026581438	-0.300255
C	 3.006843767	 2.2721188308	 1.2933504553	 0.26218
N	 3.4644817324	 2.5726662031	 2.3103657536	-0.297573
H	-1.7617389686	 2.4160257151	-0.739699542	 0.141936
H	-1.7065181476	 2.0872326448	 1.0139011294	 0.145955
H	 0.1415623189	 4.0228046825	-0.4861425723	 0.120598
H	 0.2137068127	 3.6572002386	 1.2646799888	 0.135118
H	 2.5992850407	 0.8739700515	-0.2309746977	 0.190001
H	 2.8798701479	 2.5334291158	-0.781968149	 0.161119
