19
gdb 42431	5.81373	0.65457	0.6212	2.5473	83.64	-0.2456	-0.015	0.2306	1793.6842	0.156735	-385.86965	-385.859884	-385.85894	-385.905639	35.029	
O	-0.0663529233	-0.0945331693	-0.0698901546	-0.334369
C	-0.0508500895	 1.119862826	-0.0352246317	 0.382593
C	 1.2514298738	 1.9052247815	-0.0085239562	-0.307359
C	 2.4944306913	 1.0028435431	-0.0313317684	-0.359917
C	 3.735682677	 1.7658218816	-0.0048802028	 0.286088
C	 4.7456970932	 2.4173021041	 0.0175366946	-0.431456
C	-1.3057831318	 1.9244935251	-0.016316595	-0.106366
C	-2.5014422714	 1.3709300116	-0.7801303791	-0.246558
C	-2.5059928418	 1.3287838294	 0.7076623674	-0.246551
H	 1.2581746911	 2.597543864	-0.860549228	 0.136116
H	 1.2530891977	 2.5462811559	 0.8827574593	 0.136167
H	 2.4547027844	 0.3142636892	 0.8199255616	 0.145735
H	 2.4602262179	 0.365808403	-0.9220600385	 0.145683
H	 5.6476228551	 2.9769157948	 0.0369165187	 0.192482
H	-1.1875192091	 3.0018254051	 0.0145857692	 0.089214
H	-3.1350560319	 2.0876231013	-1.289535183	 0.119769
H	-2.3272738118	 0.4388709844	-1.3051949478	 0.13948
H	-2.3348747411	 0.3684626066	 1.1801712471	 0.139475
H	-3.1428241998	 2.0155895624	 1.2529621071	 0.119773
