24
gdb 113186	2.42548	1.02157	0.92015	2.3198	85.45	-0.2424	0.0712	0.3136	1452.9167	0.215826	-405.530324	-405.519387	-405.518443	-405.56647	40.6	
C	 0.2432113699	 0.6314608071	-1.7797635468	-0.406416
C	 0.0531972967	-0.1257180416	-0.4565287145	 0.00106
C	 0.5173455852	 0.7101242977	 0.7453096172	-0.401514
C	-1.3839191143	-0.6255990491	-0.2922074589	 0.330277
C	-2.4729647699	 0.4341654378	-0.3169541918	-0.481602
N	-1.6680851977	-1.8883758581	-1.0085118495	-0.392222
C	-1.6890883952	-1.8722981311	 0.4728957289	-0.082279
C	-0.6920461637	-2.8029333389	 1.128315372	-0.075918
O	-1.008245429	-4.1544607123	 0.8351015594	-0.423076
H	 1.3029486918	 0.850030797	-1.9458662127	 0.11117
H	-0.1152627188	 0.0336232234	-2.623268864	 0.12353
H	-0.2903760169	 1.5879313739	-1.7845975228	 0.111401
H	 0.6845420863	-1.0175255956	-0.5143650531	 0.08288
H	 0.3962984359	 0.1635638688	 1.6863813284	 0.115552
H	 1.5749525321	 0.9739299224	 0.6444497645	 0.114217
H	-0.044409776	 1.6470469241	 0.8284436654	 0.114407
H	-2.5012568015	 0.951174756	-1.2816782146	 0.125755
H	-3.4565218654	-0.016049457	-0.1490730801	 0.113163
H	-2.320091832	 1.1901621729	 0.4598313086	 0.127345
H	-2.6176067743	-1.8830216299	-1.3731115108	 0.225813
H	-2.6737596843	-1.9083175923	 0.9379012938	 0.082239
H	 0.3339165364	-2.5631629399	 0.8188078957	 0.090312
H	-0.7414795781	-2.7029209303	 2.2179023751	 0.10502
H	-1.0629960374	-4.2017577851	-0.1273387393	 0.288884
