14
gdb 53999	1.98837	1.5473	1.46436	0.729	60.57	-0.2614	-0.0667	0.1947	993.5081	0.096896	-511.00745	-510.99818	-510.997236	-511.041801	32.788	
N	 0.6952000456	 0.0935265438	 0.8035241309	-0.500721
C	-0.1207302267	 0.1141187198	-0.2578493516	 0.372327
O	 0.0283339483	 0.7653216991	-1.277887667	-0.37829
C	-1.383849977	-0.7940264808	-0.1574850392	 0.080878
O	-2.127160679	-0.6673018016	-1.3266822025	-0.464774
C	-0.9516672819	-2.260694744	 0.0355100835	 0.114832
O	-0.3017063282	-2.6613360322	 0.9616051355	-0.232806
C	-2.233055624	-0.3649835179	 1.0552775566	 0.1148
O	-1.8489857275	-0.3767432394	 2.1922558393	-0.232489
H	 1.5283363022	 0.6588116377	 0.7955109577	 0.277172
H	 0.4776573644	-0.4872802675	 1.5995896793	 0.298763
H	-1.6230476844	-0.0324531731	-1.8714247099	 0.304616
H	-1.3215474657	-2.9065579779	-0.7868226385	 0.122904
H	-3.2507196961	-0.0480587059	 0.7484210259	 0.122788
