16
gdb 15179	9.05185	0.64221	0.624	0.865	71.76	-0.2498	0.0248	0.2747	1731.7192	0.128546	-383.677681	-383.668643	-383.667699	-383.71442	30.329	
O	-0.2247957023	 1.414726828	-0.3555005809	-0.414773
C	-0.2646065599	 0.0078674852	-0.5184422117	-0.063826
C	-1.0454651585	-0.5537759068	 0.6759201812	-0.328675
C	-1.1620238152	-2.0045409756	 0.6369042606	 0.06848
C	-1.2523192956	-3.2045781315	 0.5778752607	 0.099073
C	-1.331501767	-4.6387723817	 0.5265550343	-0.117168
C	-2.622879338	-5.3514894479	 0.6003410631	-0.159201
O	-1.9348924748	-5.2329002112	-0.6371667564	-0.21608
H	 0.2493376573	 1.7922442024	-1.1018156316	 0.290413
H	-0.7680361436	-0.2822135157	-1.4523373129	 0.103421
H	 0.743998109	-0.4311317833	-0.5341673343	 0.099956
H	-0.542290904	-0.2382932106	 1.5980945381	 0.141003
H	-2.0389555094	-0.0894976323	 0.6905335427	 0.140744
H	-0.44635871	-5.1706022573	 0.8744879358	 0.11492
H	-2.6529709535	-6.3510314435	 1.0327922132	 0.118136
H	-3.5385866646	-4.769908408	 0.6875279382	 0.123576
