17
gdb 105302	2.7556	1.02239	0.91126	2.0922	72.27	-0.2659	-0.0575	0.2084	1305.3779	0.133513	-458.964651	-458.955479	-458.954535	-458.999043	32.851	
O	 0.0717654327	 1.4148046543	-0.3388707037	-0.419585
C	 0.0771387661	 0.0799622459	 0.1165369288	-0.153029
C	-1.3242009782	-0.5207504334	 0.1114143155	 0.194865
C	-1.8941801046	-1.1652106396	-1.1262221921	-0.329823
C	-1.5707192681	-2.0467510609	 0.0491748229	-0.154928
C	-0.4265272657	-2.9936664172	-0.019280301	 0.161437
O	-0.3869581065	-4.0329251804	 0.5886753861	-0.254805
C	-2.3059247684	 0.2000263001	 0.9656857574	 0.134408
O	-2.0586775377	 1.2205594508	 1.565197203	-0.278997
H	-0.4300023819	 1.9155637147	 0.317049807	 0.300328
H	 0.7352414165	-0.4756078214	-0.5569192301	 0.110164
H	 0.4956309827	-0.0024691631	 1.1306110438	 0.110914
H	-2.9412340546	-1.0158403832	-1.3668720414	 0.140218
H	-1.2345481017	-1.2022746627	-1.987220012	 0.147307
H	-2.3963080748	-2.4204593346	 0.6474861212	 0.118519
H	 0.3996688624	-2.6922729702	-0.7000847089	 0.082661
H	-3.3166181482	-0.2637295991	 1.0179240433	 0.090344
