19
gdb 61285	2.11474	1.16319	0.86355	3.6291	77.28	-0.271	0.0219	0.2929	1395.6012	0.157251	-419.244183	-419.233943	-419.232999	-419.280254	35.949	
C	 0.028776404	 1.5496785748	-0.0216593569	-0.413707
C	-0.0340207549	 0.0266669809	-0.0152223048	 0.14539
C	 0.7244214289	-0.5835379648	-1.2048630418	-0.352493
C	 0.6331239061	-2.04157569	-1.2447604879	 0.26799
N	 0.5524927388	-3.1934816419	-1.2773742951	-0.307851
O	 0.603809225	-0.506936834	 1.1568521439	-0.252923
C	-0.1345642194	-0.613020775	 2.2873010716	 0.403527
C	 0.6766417109	-1.2839239532	 3.3642051114	-0.463222
N	-1.3280738062	-0.1854550123	 2.3373082513	-0.520703
H	 1.0662904699	 1.8953549914	 0.0288706575	 0.121268
H	-0.4269316499	 1.9473473977	-0.9339952788	 0.120301
H	-0.5207508274	 1.9411623336	 0.8356375235	 0.153638
H	-1.0757432754	-0.3038542255	-0.0205551854	 0.130323
H	 0.3222756338	-0.1768782478	-2.1386673506	 0.153252
H	 1.7804553964	-0.2963610843	-1.1508856422	 0.15653
H	 0.1095008399	-1.3548735436	 4.2934123177	 0.12856
H	 0.9675185589	-2.2877633662	 3.0403913946	 0.159079
H	 1.5978428784	-0.7225372091	 3.5469303685	 0.146864
H	-1.735599888	-0.3622103607	 3.2519668634	 0.224175
