18
gdb 27884	1.81304	1.78149	0.90437	1.2418	84.96	-0.1943	0.0168	0.211	1265.5627	0.148421	-402.026769	-402.017971	-402.017027	-402.060504	33.906	
C	-0.0109518795	 1.5011567733	-0.0099717984	-0.490276
C	 0.0167648111	-0.0085405272	-0.0018879175	 0.359289
C	 0.0584629206	-0.7146501964	-1.2074733434	-0.38868
C	 0.1108865588	-2.1079488748	-1.1921751651	 0.423792
O	 0.1487057776	-2.8466658621	-2.3395770717	-0.44522
C	 0.1197381886	-2.809164184	 0.0103993444	-0.300077
C	 0.0776014737	-2.1102550129	 1.2192403169	 0.351704
N	 0.1451596351	-2.7965573074	 2.433139877	-0.591619
C	 0.0223850341	-0.7078464385	 1.2013219083	-0.301628
H	 0.9891055549	 1.91391755	-0.1907851782	 0.132344
H	-0.6650744324	 1.8853590294	-0.799157786	 0.122922
H	-0.3617966978	 1.8997187654	 0.9458058828	 0.12055
H	 0.0478423272	-0.1809673053	-2.1546004279	 0.067246
H	 0.1385365458	-2.2468170421	-3.0923645103	 0.294293
H	 0.1606440527	-3.8927769175	-0.0109816461	 0.08603
H	-0.1783261181	-3.7522442402	 2.3971386299	 0.245346
H	-0.2522754358	-2.3020341439	 3.2184260659	 0.244315
H	-0.0100217867	-0.1644685957	 2.1413491594	 0.069669
