20
gdb 36857	3.76368	1.12924	0.99499	0.8224	79.74	-0.2298	0.0855	0.3153	1253.4156	0.170832	-403.066862	-403.058581	-403.057637	-403.100314	31.683	
C	 0.7985048079	 0.3961991936	-0.2129755363	-0.280006
N	-0.353138809	 0.5980591602	 0.6612235822	-0.068378
C	-1.4905064948	 1.2941223589	 0.0659827517	-0.204341
C	-1.550648378	-0.1691351677	 0.3263029631	-0.225752
C	 1.7056765249	 1.5830949869	-0.2232558726	 0.502764
C	 3.1994022013	 1.5792490336	-0.3391006899	-0.343982
C	 2.5349243563	 2.2948195489	 0.8231029581	-0.169117
C	 1.8659582208	 3.5593998945	 0.3052015734	-0.08803
O	 1.1827580684	 2.8178434646	-0.7438564756	-0.324169
H	 1.3580940379	-0.4738783876	 0.1490597954	 0.107602
H	 0.4985640358	 0.1784092963	-1.2562161087	 0.092065
H	-2.007067104	 1.9923117641	 0.7181635973	 0.113012
H	-1.4003371984	 1.620806502	-0.9671308519	 0.122421
H	-1.5081450647	-0.831368328	-0.5374527248	 0.1066
H	-2.1091592829	-0.5618491703	 1.1711252773	 0.114129
H	 3.6932972557	 0.6497695281	-0.0726141025	 0.113919
H	 3.6735232657	 2.1436379074	-1.137870794	 0.112157
H	 2.717668536	 2.0449694625	 1.8588190671	 0.105422
H	 1.1404223477	 3.989961579	 1.0037730045	 0.112086
H	 2.5090349034	 4.3501587131	-0.0997872238	 0.101597
