13
gdb 8252	6.16355	1.13169	1.01454	5.1713	58.76	-0.2935	-0.0082	0.2853	1073.3511	0.095446	-398.639136	-398.631938	-398.630994	-398.671409	25.272	
O	 0.1857377684	 0.121315674	-0.7489509777	-0.299284
C	 0.0332587661	 1.1452769508	-0.1721968033	 0.456629
C	-1.1144895318	 2.0876134256	 0.1990552047	-0.444487
C	 0.0055253212	 2.9223351243	 0.8460816028	 0.139813
C	-0.0377146345	 3.0782342444	 2.3642902319	-0.356196
C	 1.1710695305	 3.6993416941	 2.902504906	 0.269535
N	 2.1217904313	 4.2039890535	 3.3208285915	-0.288292
O	 0.9947890176	 1.9266513377	 0.4305519734	-0.240715
H	-1.6253342796	 2.5370079867	-0.6532392682	 0.15708
H	-1.8486247465	 1.6535210068	 0.8809616054	 0.149485
H	 0.2168471437	 3.8759999253	 0.3578713203	 0.126312
H	-0.9018181524	 3.6965990683	 2.6347635778	 0.164947
H	-0.177260704	 2.0967238684	 2.8308013255	 0.165173
