17
gdb 92876	2.42893	1.59034	1.12748	1.8593	71.17	-0.2436	-0.0617	0.182	1077.8223	0.136438	-458.990562	-458.982285	-458.981341	-459.023405	31.613	
O	 0.0528469795	 1.4526649193	 0.0678191026	-0.445268
C	 0.0848908962	 0.0416311554	 0.0334274099	 0.112838
C	 0.8079394376	-0.5522742464	 1.2552003457	-0.279991
C	 0.7138122931	-2.0492054325	 1.2866927606	-0.057281
C	-0.2788774574	-2.737621083	 0.7039618162	-0.14233
C	-1.3748427086	-2.0658404912	-0.0105847737	 0.355362
O	-2.3277316849	-2.6625638649	-0.4761462919	-0.344738
C	-1.3257590935	-0.5310623149	-0.0887245654	-0.014688
O	-2.0644847543	 0.0041587482	 1.0150273551	-0.451574
H	-0.6765463827	 1.6876670381	 0.6560038231	 0.292136
H	 0.6419179767	-0.2365213679	-0.8691779642	 0.098404
H	 1.8524970041	-0.2261556005	 1.2609680958	 0.119397
H	 0.3505714355	-0.1451461712	 2.1672377253	 0.136585
H	 1.4890836201	-2.5873482718	 1.8273992286	 0.114781
H	-0.3369283728	-3.8202129237	 0.7541999504	 0.111112
H	-1.7790642792	-0.2220833062	-1.0392592793	 0.093098
H	-2.9753358595	-0.2978239167	 0.9296413513	 0.302158
