17
gdb 65830	3.29676	1.108	1.07761	3.1418	72.81	-0.2587	0.0144	0.2731	1169.8751	0.137008	-418.0737	-418.065219	-418.064275	-418.106792	31.682	
C	 0.3223330881	 1.3613888272	 0.0549325955	-0.429635
C	-0.1286885169	-0.112913869	-0.002893738	 0.106046
C	 0.5653529369	-0.8528970823	-1.1950068811	-0.196203
N	 1.7819233035	-1.3465348001	-0.5849010156	-0.305542
C	 1.7396123195	-1.4741969112	 0.7796964843	 0.403233
O	 2.5973195083	-1.9563840561	 1.480848443	-0.366162
C	 0.3907947092	-0.9003273056	 1.2294692446	-0.367558
C	-1.5857113575	-0.1787709055	-0.129566782	 0.255902
N	-2.7360209027	-0.2259835001	-0.2316934178	-0.338244
H	 1.413263572	 1.4081681113	 0.1157590985	 0.1406
H	-0.0030520754	 1.904430219	-0.8361062618	 0.138446
H	-0.0967709111	 1.8589337864	 0.9329749352	 0.14277
H	-0.0692958022	-1.6625659487	-1.5779261409	 0.130448
H	 0.7736914612	-0.1637433134	-2.0187021975	 0.128768
H	 2.5263990687	-1.7763038386	-1.1110504701	 0.260183
H	 0.5053501977	-0.2791872776	 2.1188447764	 0.145072
H	-0.2682493392	-1.7354497358	 1.4862666972	 0.151878
