19
gdb 57614	3.47646	1.02415	0.96317	2.3539	75.52	-0.2521	0.0185	0.2706	1278.2154	0.158109	-419.198391	-419.1888	-419.187856	-419.232733	35.519	
C	-0.0496132744	 1.6658209155	-0.0520751291	-0.429238
C	 0.0460194204	 0.1363489986	-0.0356340607	 0.3029
O	 0.7677405364	-0.3191505955	 1.1002939892	-0.467047
C	-1.3720135218	-0.5189429932	-0.039942353	-0.35393
C	-2.094991725	-0.2276283663	 1.1936989707	 0.246638
N	-2.6067626328	 0.0274053731	 2.1987907819	-0.312378
C	 0.7960810146	-0.3698850427	-1.261228171	 0.007362
C	 2.2744770695	-0.4384611707	-1.2765570911	-0.249281
N	 1.4663160442	-1.6751556442	-1.2332937285	-0.336524
H	 0.9532491533	 2.0950585398	 0.0056010086	 0.136438
H	-0.5268182021	 2.022169493	-0.9706020498	 0.1228
H	-0.6370464043	 2.032271299	 0.7964932133	 0.134645
H	 0.3252691524	 0.0011154295	 1.8947689834	 0.299528
H	-1.9551881226	-0.1651715592	-0.896553104	 0.151465
H	-1.2615888843	-1.6032798185	-0.1391650316	 0.166336
H	 0.2764316916	-0.160669129	-2.1948152995	 0.089316
H	 2.8119585533	-0.2716326256	-2.2054174954	 0.117961
H	 2.7988927164	-0.1448638159	-0.3732923252	 0.128881
H	 1.4640590954	-2.0076518279	-0.2703341183	 0.244129
