21
gdb 73486	2.43556	2.12309	1.54579	1.2915	80.29	-0.2515	0.0763	0.3277	948.914	0.186272	-387.092819	-387.085816	-387.084871	-387.123538	30.419	
O	-0.0155169312	 1.3727696182	 0.0012796574	-0.506946
C	 0.0412998124	-0.0325669347	-0.0459402137	 0.476763
C	 0.7356714789	-0.6290760203	-1.282489619	-0.3102
C	-0.035686183	-1.9611418635	-1.5020730667	-0.211242
C	-0.7790725645	-2.1418625603	-0.1642179959	-0.018293
C	 0.2945379233	-2.2172881245	 0.9726262598	-0.225218
C	 0.3057724035	-0.7262570787	 1.350686329	-0.095085
C	-1.2017500576	-0.4867701284	 1.6499650699	-0.246132
C	-1.3449649089	-0.7226493985	 0.1296654474	-0.059336
H	 0.8697329797	 1.7001813525	 0.1916510965	 0.276062
H	 0.6327377086	 0.0582725281	-2.1264225741	 0.102956
H	 1.8076376834	-0.7881336738	-1.1185741334	 0.090233
H	-0.7476135047	-1.8612353372	-2.3288177817	 0.094877
H	 0.6188604903	-2.8069076864	-1.7335167994	 0.091814
H	-1.5050392171	-2.9564475617	-0.1589441344	 0.058046
H	-0.0136841842	-2.8418546969	 1.8165098512	 0.093493
H	 1.2550135236	-2.5961626717	 0.6095179369	 0.088051
H	 1.0941996211	-0.3704328845	 2.0182016496	 0.047652
H	-1.6969487115	-1.1777931771	 2.3383721338	 0.081159
H	-1.4179500201	 0.546826553	 1.9195659055	 0.110094
H	-2.215573052	-0.4001505137	-0.4429096184	 0.061253
