17
gdb 83392	2.87893	1.73443	1.56636	1.8961	66.72	-0.2354	0.0542	0.2896	907.8522	0.13761	-458.866524	-458.85987	-458.858926	-458.897125	27.925	
O	 0.0167266802	 1.5221289737	 0.0073967127	-0.452026
C	 0.0216841139	 0.1307572268	-0.0194590637	 0.123971
C	 0.1571655606	-0.6184587052	 1.3015669971	-0.004551
O	-0.9723981464	 0.0029413072	 2.0419749285	-0.319107
C	-2.1031638189	-0.0156567206	 1.095336838	-0.183014
C	-1.3443041942	-0.7075624048	-0.0124855541	 0.368312
O	-1.6541370847	-1.4746030099	-1.1646066366	-0.347502
C	-0.5968019795	-2.4124157867	-0.7463336189	-0.155034
C	-0.5773580002	-1.8297784192	 0.7027232127	-0.093243
H	-0.2708263287	 1.7756727729	 0.8944747707	 0.295045
H	 0.6838159475	-0.1982035657	-0.819172086	 0.096355
H	 1.0186533118	-0.6182460797	 1.9676606595	 0.087153
H	-2.9312196532	-0.5942315835	 1.5116191137	 0.120411
H	-2.4194342599	 1.011060076	 0.8873085875	 0.113268
H	-0.9572475304	-3.4418241477	-0.8020159847	 0.124644
H	 0.3037713681	-2.3010479495	-1.3561268014	 0.123534
H	-1.1021752159	-2.4510131141	 1.4272540952	 0.101783
