14
gdb 123361	7.28497	0.76818	0.73499	4.5508	69.41	-0.2893	-0.0513	0.2381	1454.9031	0.100449	-428.960524	-428.952445	-428.9515	-428.994831	27.845	
C	 0.0114896265	-1.2012229368	-0.0042054072	-0.419244
C	-0.0260855091	-0.0007674826	 0.0027732461	 0.284413
C	-0.0266119594	 1.4545802505	 0.0107154622	-0.352564
C	 1.4140093892	 2.0056798351	-0.0011619858	-0.147112
N	 1.424844882	 3.4622997379	 0.0065892694	 0.163695
N	 1.3855524842	 4.210872349	-1.0853841009	-0.120886
N	 1.3541966943	 5.4351288971	-0.6557126747	-0.080845
N	 1.3697265039	 5.4278475791	 0.6916244852	-0.080858
N	 1.4108624348	 4.1990311283	 1.1072102358	-0.120849
H	 0.0259670537	-2.2633858215	-0.0101583748	 0.210399
H	-0.5631982097	 1.8422644322	-0.8629949866	 0.16195
H	-0.5449975448	 1.8326721631	 0.8994885009	 0.161909
H	 1.9636025293	 1.6762287244	 0.8809672142	 0.170006
H	 1.9452876351	 1.6856786343	-0.8978750936	 0.169985
