18
gdb 31050	2.30189	1.43106	0.90354	0.8633	78.11	-0.1694	0.0431	0.2125	1289.5262	0.147986	-435.303592	-435.294034	-435.29309	-435.338179	34.334	
C	 0.0159032035	 1.4673550286	 0.0486550493	-0.323688
N	 0.4769938441	 0.1004493158	-0.1721962109	-0.391361
C	 0.7980999003	-0.6642256728	 0.9429678012	 0.230418
C	 0.6640718597	-2.0014472058	 1.1483889378	 0.221115
C	 0.1210453804	-3.1526875898	 0.3912371563	-0.503135
O	 1.2401339709	-2.2644001463	 2.4037325745	-0.222346
C	 1.6438022233	-1.0632117882	 2.8416005631	 0.453339
N	 2.1770765003	-1.0103566789	 4.1071727467	-0.591106
N	 1.42526347	-0.0686940455	 2.0379067309	-0.387089
H	 0.7572916371	 1.9976302125	 0.647755275	 0.156937
H	-0.0761074359	 1.9688613046	-0.9184812309	 0.11381
H	-0.951221745	 1.5307525668	 0.5719975587	 0.104334
H	-0.1041585922	-0.4059354353	-0.8255043055	 0.227889
H	-0.4063194414	-2.794467715	-0.4984538375	 0.12112
H	 0.9001015849	-3.8477964073	 0.0497934389	 0.128979
H	-0.5958373405	-3.7323717487	 0.986036688	 0.131973
H	 2.6501233751	-1.8544720167	 4.3953234333	 0.261326
H	 2.7184101054	-0.1737258779	 4.2672178211	 0.267486
