15
gdb 49508	4.01587	1.21924	1.15094	3.0021	65.58	-0.2693	-0.0537	0.2155	1051.6725	0.113169	-457.779102	-457.772048	-457.771104	-457.810999	26.654	
O	-0.6403347504	 0.8130837428	 0.5669730642	-0.233959
C	 0.2229345416	 0.9704947214	-0.2592027794	 0.113569
C	 1.363312119	 1.950197186	-0.1574791503	-0.099793
C	 1.1190377867	 3.3880110629	-0.7376666082	 0.079177
C	 0.3648407073	 3.7288324272	 0.5611459577	-0.251723
C	 1.481883871	 2.7985307428	 1.1575085458	-0.192508
C	 2.700995141	 3.6290299655	 0.7771557246	 0.456096
O	 3.6920498867	 3.9358617683	 1.361810863	-0.339975
O	 2.4171934135	 4.0061566384	-0.5238897912	-0.243594
H	 0.2358695234	 0.3676116083	-1.1947388895	 0.095244
H	 2.2756738189	 1.4788826587	-0.5384834039	 0.114125
H	 0.77557991	 3.5950777301	-1.7483410654	 0.110097
H	 0.3592644744	 4.778275067	 0.8603900375	 0.127365
H	-0.6241673357	 3.2823502648	 0.6378956733	 0.149695
H	 1.4506863425	 2.3678037958	 2.1529977218	 0.116185
