15
gdb 125257	3.95863	1.06406	0.84304	0.2533	71.38	-0.2469	-0.0189	0.228	1297.236	0.112826	-453.977655	-453.96944	-453.968496	-454.011192	29.193	
C	 0.1616066886	 1.5378455465	-0.0023112129	-0.491935
C	-0.0321767229	 0.0646141429	 0.0534978266	 0.456732
C	-1.1242906651	-0.736212546	-0.075669548	-0.43541
C	-0.5846205133	-2.0421759424	 0.0887875493	 0.500949
N	-1.2331751891	-3.2705542186	 0.056579515	-0.400327
C	-2.573418357	-3.4739432255	-0.1479523381	 0.151623
O	-3.3976496985	-2.6090002821	-0.3322449721	-0.300042
N	 0.7136862292	-2.0307773023	 0.2979610165	-0.244151
O	 1.0652937651	-0.6833509291	 0.2751251975	-0.208764
H	 0.8576055933	 1.8104406902	-0.8022407677	 0.152902
H	-0.7925800562	 2.0345982391	-0.1855327763	 0.147029
H	 0.5768937419	 1.9132903367	 0.9385299975	 0.152902
H	-2.1491311105	-0.471543615	-0.256976802	 0.154897
H	-0.6422041144	-4.077040842	 0.1997507968	 0.270207
H	-2.8176869412	-4.5524548425	-0.1236848119	 0.093389
