20
gdb 98604	3.99615	1.05199	0.96849	3.4533	81.1	-0.2286	0.0197	0.2482	1308.4392	0.170609	-403.110754	-403.102042	-403.101098	-403.145048	32.424	
C	 0.0521609999	 1.4236052192	-0.4020010892	-0.371428
C	-0.0416537339	-0.0748246951	-0.119374401	-0.289145
C	-1.4759091723	-0.5938243919	-0.173135426	 0.367374
O	-2.3941084085	 0.0343983835	-0.6650042754	-0.362912
N	-1.6785881874	-1.8038815179	 0.4703120763	-0.100238
C	-0.9001784109	-3.0857805776	 0.2409319486	-0.035854
C	-2.0456106545	-3.8030377048	 1.0052874602	-0.218754
C	-2.7101526601	-2.8060278613	 0.0143155393	-0.012408
C	-1.7084396401	-3.3020660702	-1.0736650388	-0.221939
H	 1.0964118932	 1.7477215887	-0.4291222924	 0.104931
H	-0.4172728977	 1.6638577926	-1.3582461408	 0.136995
H	-0.466821449	 1.9996747657	 0.3690742337	 0.127374
H	 0.5388845425	-0.638835188	-0.8638638228	 0.116815
H	 0.3942365532	-0.3284414777	 0.8532059881	 0.11841
H	 0.1745254899	-3.1476759815	 0.4101082506	 0.095125
H	-2.1814651572	-4.8643828469	 0.7937824397	 0.103374
H	-2.1385804872	-3.5604717484	 2.063940992	 0.112609
H	-3.7570707046	-2.5326885209	-0.0922244965	 0.111742
H	-1.5086733137	-2.6082222962	-1.891847478	 0.118319
H	-1.8204866918	-4.3313224514	-1.4247101377	 0.09961
