18
gdb 126603	5.61708	0.69272	0.67858	5.3159	74.08	-0.3152	-0.042	0.2732	1692.2204	0.14775	-431.407065	-431.398133	-431.397189	-431.443252	30.522	
C	 0.0210443662	 1.5637456384	 0.0104056188	-0.383988
C	-0.0052489137	 0.0331376509	 0.0015903579	-0.169989
C	-1.429913817	-0.5315021317	 0.0128455853	-0.180113
C	-1.4337146799	-2.0627127176	 0.0052166736	-0.157576
N	-2.7878244522	-2.6093890376	 0.0149417774	 0.166409
N	-3.4787898692	-2.8598112005	 1.1154732282	-0.122623
N	-4.6375620679	-3.2763116132	 0.7016157299	-0.085139
N	-4.647923318	-3.274742229	-0.6447033865	-0.085194
N	-3.4957634533	-2.8570028	-1.0754048391	-0.12255
H	 1.0481113527	 1.9398546225	 0.0023214746	 0.121364
H	-0.4918974766	 1.9737444183	-0.8661255899	 0.122989
H	-0.4741738325	 1.9631140256	 0.9018729423	 0.122995
H	 0.5264172042	-0.3387528578	-0.8839506024	 0.105743
H	 0.544356102	-0.3491857187	 0.8716388451	 0.105726
H	-1.9683154522	-0.1807770319	 0.9010413105	 0.126488
H	-1.9857315977	-0.1718383006	-0.8609693843	 0.126367
H	-0.9486877999	-2.4584838754	-0.8896281627	 0.154579
H	-0.9320984951	-2.4673370216	 0.8869150913	 0.154513
