18
gdb 35866	2.34737	1.68263	1.12497	3.0014	75.56	-0.2547	0.027	0.2817	1091.8256	0.14866	-401.953722	-401.945491	-401.944547	-401.987643	30.683	
N	-0.4538027632	-0.8297469589	-0.9727435804	-0.33572
C	-0.3033663611	 0.2309389717	-0.5382460241	 0.278121
C	-0.0975292136	 1.5678673756	 0.0008111638	-0.221649
C	-0.4167858177	 1.698887727	 1.5205742277	-0.257762
C	 0.6864384345	 2.6656503827	 2.0274843285	-0.092608
O	 1.3976498679	 3.1156545177	 0.8747077223	-0.279785
C	 1.3477811732	 2.0769519764	-0.0622779933	 0.440214
C	 2.5445520266	 1.1796525026	-0.2383879265	-0.339447
C	 2.1685043109	 2.2120485653	-1.2930922225	-0.337053
H	-0.7286256158	 2.2620433805	-0.5653211324	 0.133672
H	-1.4237191099	 2.0892772662	 1.6760172232	 0.126747
H	-0.3525815577	 0.7288047495	 2.0161595899	 0.133566
H	 0.2889610496	 3.5491316483	 2.532153741	 0.118124
H	 1.3662891846	 2.1464663153	 2.7162331648	 0.106778
H	 3.40638361	 1.3980183822	 0.3818300674	 0.12396
H	 2.38975055	 0.1318538311	-0.4705947425	 0.140258
H	 1.753182026	 1.8574377981	-2.2303453182	 0.129816
H	 2.7852739156	 3.0999585088	-1.3716860588	 0.132768
