15
gdb 28755	3.48875	1.14327	0.87769	2.3359	68.62	-0.2003	-0.0385	0.1618	1238.8902	0.112995	-453.998829	-453.990759	-453.989815	-454.032126	29.435	
O	 0.2944507955	 1.2927381102	 0.3468637472	-0.42389
C	 0.0668137111	-0.0057547952	 0.0868277024	 0.443212
N	-0.4690185992	-0.5036205566	-0.9962042967	-0.36547
C	-0.4548852248	-1.8728264787	-0.7858105578	-0.182898
C	 0.088161622	-2.1789655261	 0.4302717512	 0.308752
C	 0.2812875008	-3.4772123624	 1.1382944347	-0.431398
C	 1.4142980156	-3.5497738871	 2.1392715464	 0.165631
O	 2.0041983113	-2.6035895108	 2.6021622988	-0.249789
N	 0.4082015491	-0.9463998817	 0.9991964287	-0.354627
H	-0.0034898488	 1.7770865064	-0.4333736307	 0.313202
H	-0.8494056706	-2.5540807283	-1.5247514229	 0.104282
H	-0.6088542367	-3.772677511	 1.7251381037	 0.148997
H	 0.4106641593	-4.2906950586	 0.4141434996	 0.144843
H	 1.6525334442	-4.5821384512	 2.4764548319	 0.095602
H	 0.972492791	-0.8330620789	 1.8267125034	 0.283553
