17
gdb 111343	2.47101	1.55034	1.12612	1.5285	68.84	-0.2475	0.0669	0.3144	1105.8679	0.133596	-458.872528	-458.864215	-458.863271	-458.905878	30.459	
C	-0.0397117733	 1.3810006627	-0.2877682708	-0.239612
O	-0.0126094746	 0.081648955	 0.2657921017	-0.236815
C	-1.2282213673	-0.5898922985	 0.1695601071	 0.024259
C	-1.6778572141	-1.1989542674	-1.1855906855	-0.0184
O	-0.7396726541	-2.2180574928	-1.5407352177	-0.230982
C	-1.7600141981	-2.5474745658	-0.5888349789	-0.09895
C	-1.2415031938	-2.0238380972	 0.7414798628	 0.409637
C	-0.4083644077	-2.6475618195	 1.7598368637	-0.253236
O	-1.7952619815	-2.3281370784	 2.0015390358	-0.28265
H	 0.9448288459	 1.8230562617	-0.1214275323	 0.133916
H	-0.2403421252	 1.3610239154	-1.368839036	 0.113599
H	-0.8018689011	 2.0109234108	 0.1967169632	 0.108038
H	-2.0550841194	-0.0106200865	 0.6140822673	 0.08403
H	-2.2653194728	-0.7559578201	-1.9811055145	 0.111242
H	-2.4235808151	-3.3766726319	-0.8005089407	 0.120554
H	-0.1792224784	-3.7096607611	 1.6969512453	 0.122291
H	 0.3080481906	-2.0353642063	 2.3028131695	 0.13308
