21
gdb 109936	2.07626	1.44556	1.13614	1.0356	75.13	-0.2475	0.0685	0.316	1202.3948	0.179539	-461.340312	-461.330085	-461.32914	-461.375168	38.015	
C	-0.4963876946	 1.5829851698	-0.0946746742	-0.249864
O	-0.2592285324	 0.2323353627	 0.2665973778	-0.254542
C	-1.3265225733	-0.6331992887	-0.030863859	 0.079655
C	-1.250946932	-1.3676583611	-1.4060644992	 0.089657
O	 0.0835981271	-1.4541542165	-1.8643160681	-0.446425
C	-1.716780613	-2.6548376984	-0.6800064366	-0.302169
C	-1.3248897597	-2.0041385546	 0.6904044237	 0.360312
C	 0.0341055608	-2.4466363629	 1.2182841585	-0.450333
O	-2.3092416315	-2.0266000863	 1.7080872851	-0.482462
H	 0.3932308064	 2.1518422361	 0.1851110378	 0.132495
H	-0.666870572	 1.6964819418	-1.1744890589	 0.118089
H	-1.3653802123	 1.9883860867	 0.4417874841	 0.121683
H	-2.2962295574	-0.1449900166	 0.1247914275	 0.082951
H	-1.9007831312	-0.9970976926	-2.207215007	 0.066985
H	 0.5724804639	-0.7673456391	-1.389485821	 0.288784
H	-2.7977265674	-2.8005604329	-0.7455722319	 0.102376
H	-1.194693416	-3.5686885724	-0.9704356848	 0.105766
H	 0.7880792486	-2.4234249122	 0.4294220178	 0.133493
H	 0.3559520879	-1.7995621664	 2.0383092887	 0.128478
H	-0.031519094	-3.4786108962	 1.5864676158	 0.100602
H	-2.2212110482	-2.8540802101	 2.1929999438	 0.274468
