19
gdb 94036	4.29158	0.86489	0.78662	1.5053	83.47	-0.2481	0.0077	0.2558	1462.5934	0.158308	-385.868706	-385.859468	-385.858524	-385.903404	34.405	
O	-0.5224016389	 1.522412728	-0.2991624621	-0.432915
C	-0.0133459029	 0.2236753563	 0.0150971362	 0.106757
C	-1.1091304074	-0.8625452744	 0.202494114	-0.244005
C	-1.0588499181	-1.7514765734	-1.0644509778	-0.309156
C	 0.2553610379	-1.3726358373	-1.7122478527	 0.347316
C	 0.7816158771	-2.0998954898	-2.9264340466	-0.456958
C	 0.9780092505	-3.5311203073	-2.6986360829	 0.315324
C	 1.1334441738	-4.7055722057	-2.4971026775	-0.462175
C	 0.832105094	-0.3345763228	-1.1033860701	-0.228131
H	-0.8869824666	 1.476938158	-1.1901149089	 0.271085
H	 0.553396407	 0.3829101409	 0.9380823082	 0.086819
H	-0.8819980764	-1.4642682954	 1.087363427	 0.108107
H	-2.0813689694	-0.3928044327	 0.3691829337	 0.106532
H	-1.0961103617	-2.8197607773	-0.8271256434	 0.123035
H	-1.8960745064	-1.566870178	-1.7524381167	 0.102321
H	 0.0751259626	-1.9718958721	-3.7603471203	 0.13714
H	 1.7249670961	-1.645057919	-3.2501320797	 0.137897
H	 1.276539397	-5.7436789855	-2.3261019206	 0.198691
H	 1.7682726217	 0.1261195875	-1.4010473997	 0.092314
