19
gdb 107511	1.98299	1.63601	1.08613	4.9739	79.5	-0.2332	0.0157	0.2489	1173.9613	0.159472	-382.038816	-382.029978	-382.029033	-382.072666	32.987	
C	 0.1803948033	 1.5549426995	-0.1494115843	-0.376389
C	-0.1073910804	 0.0609137918	 0.059858201	-0.303277
C	 0.6399111574	-0.5256151052	 1.2248516077	 0.345368
C	 2.0768535628	-1.0010399606	 1.1657943078	-0.319344
C	 1.0133040632	-1.9436500704	 1.6324547976	-0.088661
N	 0.7717667234	-1.6750102883	 3.0714007907	-0.319249
C	 0.24152667	-0.3168270984	 2.7038941231	-0.199808
C	 0.8418049947	 0.8003497973	 3.4378738238	 0.312549
N	 1.3108360162	 1.6983605094	 3.9943162814	-0.334012
H	 1.2444600958	 1.7250742431	-0.3399497611	 0.127375
H	-0.3854282938	 1.9463014929	-1.0000090408	 0.115239
H	-0.0935448504	 2.1412522047	 0.7335822458	 0.131868
H	-1.186095538	-0.091482794	 0.2006308145	 0.097565
H	 0.162883084	-0.4969713613	-0.8451953089	 0.104306
H	 2.4389901986	-1.1623988342	 0.1550606765	 0.117852
H	 2.8211264192	-0.6476319118	 1.8739055402	 0.134779
H	 0.7911011164	-2.9025946024	 1.1802511852	 0.10387
H	 0.0165666391	-2.2456636318	 3.4375310802	 0.23103
H	-0.8478210615	-0.2523624102	 2.8007625697	 0.118937
