18
gdb 39937	3.01818	1.65187	1.25921	1.8787	77.29	-0.2284	0.0272	0.2557	1017.6372	0.149444	-401.931532	-401.924318	-401.923374	-401.963207	29.16	
C	-0.2269679878	 1.4067613684	 0.0892108911	-0.298307
C	 1.2099653368	 0.9973236771	-0.0870378578	-0.310005
C	 0.1311790537	-0.0631734618	-0.0032430209	 0.363716
N	 0.0920687975	-0.7666206238	 1.2447382991	-0.309811
C	-0.2011905171	-1.9952407363	 1.2716410737	 0.09924
O	-0.5260390344	-2.8334679653	 0.2517256977	-0.228284
C	-0.5376290776	-2.2928203413	-1.0493542634	 0.106849
C	-1.6385335399	-1.3492902227	-1.4389366961	-0.324806
C	-0.2197111048	-0.8390915768	-1.2425799033	-0.149243
H	-0.5342657496	 1.769897225	 1.062584106	 0.122492
H	-0.7457039294	 1.8467426209	-0.755605189	 0.112461
H	 1.6820729733	 1.1641470358	-1.0494041628	 0.110829
H	 1.8690468516	 1.0800439546	 0.7684664462	 0.125231
H	-0.2261210311	-2.5416571662	 2.211157846	 0.124503
H	-0.1830986559	-3.0324885015	-1.7572897114	 0.111509
H	-2.0373619175	-1.4134937895	-2.4452148372	 0.11743
H	-2.3646034319	-1.098112586	-0.6726968746	 0.131396
H	 0.3359238042	-0.5789772306	-2.1376627334	 0.094801
