15
gdb 123564	4.01929	1.6464	1.2755	4.0413	70.29	-0.2281	0.0022	0.2303	933.9804	0.116742	-412.949053	-412.942894	-412.941949	-412.97946	24.892	
C	 0.0383854834	 1.4733592062	-0.0111809938	-0.246063
C	 1.2732601972	 0.6561765082	 0.0411758053	-0.016181
C	 1.9544661339	 0.3624117403	 1.401551162	-0.373017
C	 0.8408059542	-0.3708957266	 2.0979653211	 0.276292
C	-0.2120927335	-0.5313769015	 1.2435499689	 0.395155
N	-1.1314615258	-1.2128768751	 1.9447119794	-0.334753
N	-0.6535294124	-1.4628465583	 3.2065050704	-0.131238
N	 0.5445616261	-0.9433633045	 3.2887561931	-0.285084
N	-0.0855592907	-0.0127157494	-0.0591704606	-0.207494
H	-0.2967250956	 1.9657323727	 0.8977558041	 0.134177
H	-0.2352719745	 1.9700766825	-0.9368023456	 0.130624
H	 1.875414982	 0.5762903083	-0.8570864698	 0.111368
H	 2.8474972272	-0.2553299687	 1.2569822848	 0.130883
H	 2.2722122473	 1.2797327352	 1.9082493586	 0.132437
H	-2.0485388889	-1.5416971293	 1.690547632	 0.282894
