15
gdb 26008	4.88647	0.98481	0.97174	3.4174	67.44	-0.2267	0.0154	0.2422	1242.9896	0.112746	-454.012927	-454.004583	-454.003638	-454.047969	29.134	
C	-0.0254806004	 1.4316354405	 0.2664675735	-0.484224
C	-0.1073793367	 0.0299596942	-0.2806066366	 0.399956
O	 0.3365864148	-0.3584974208	-1.3220831362	-0.321674
O	-0.7860595296	-0.7697629012	 0.6076157087	-0.281732
C	-0.8538211654	-2.1120889913	 0.3234693528	 0.389649
C	-1.8705694868	-2.766884273	-0.3158137661	-0.203216
N	-1.4893844598	-4.0915576552	-0.2803262632	-0.226835
C	-0.2925011981	-4.1561071386	 0.3643124902	 0.021874
N	 0.1180117081	-2.9666104174	 0.7463959838	-0.297285
H	 0.5981352229	 1.4350762654	 1.1654909193	 0.158987
H	 0.4075233053	 2.0906819956	-0.4847895448	 0.148157
H	-1.0179180113	 1.7848681756	 0.5580333465	 0.148897
H	-2.7819713212	-2.4306331816	-0.7775271553	 0.138474
H	-2.0043371424	-4.8649947997	-0.6660210565	 0.272158
H	 0.2270903206	-5.0874181624	 0.5293422239	 0.136813
