20
gdb 8407	3.44456	1.59573	1.40623	1.9751	75.1	-0.2387	0.0668	0.3054	991.0891	0.175901	-348.973744	-348.965223	-348.964279	-349.006341	32.049	
C	-0.0306381025	 1.5218522925	-0.02843387	-0.454203
C	-0.0086452495	 0.0052258243	-0.0101322398	 0.285943
C	-1.2328348807	-0.6506603773	-0.6201674276	-0.454205
C	 1.3295375953	-0.6876527763	-0.1849405707	-0.396257
C	 0.6542794357	-0.6789668653	 1.1550276869	 0.266771
C	 1.1434330543	-0.0852742856	 2.4732742401	-0.139938
O	 0.624617257	-1.219893447	 3.2012050887	-0.27701
C	 0.1625728325	-1.8578666708	 1.990453632	-0.139937
H	 0.8735408929	 1.9460400833	 0.419071681	 0.114967
H	-0.0998338625	 1.8982234746	-1.0556159357	 0.117052
H	-0.8919439125	 1.913470965	 0.5257670403	 0.117061
H	-1.3487836157	-0.3587470237	-1.6703522838	 0.117052
H	-1.1676121687	-1.7425804081	-0.5856265518	 0.114967
H	-2.1470151175	-0.3546080834	-0.0919821471	 0.117062
H	 1.3569851128	-1.6242083472	-0.7350464246	 0.108424
H	 2.2158146645	-0.0721924176	-0.3123250449	 0.108425
H	 2.2325541014	 0.0079188207	 2.5821200709	 0.098222
H	 0.6718126552	 0.8549629531	 2.7892863697	 0.098691
H	-0.922645547	-2.0265121872	 2.0044265355	 0.098691
H	 0.6700364548	-2.815834504	 1.812983611	 0.098222
