15
gdb 69022	2.69723	1.40005	1.18629	2.0866	75.23	-0.2212	-0.0084	0.2128	1067.1646	0.111129	-416.754366	-416.745825	-416.744881	-416.787258	32.506	
N	-0.0978849259	 1.4541286988	-0.1980906569	-0.586796
C	-0.0198022823	 0.0552315105	-0.0811444446	 0.108479
C	-0.3021474296	-0.8462678169	-1.2703161974	-0.34826
C	-1.1504072886	-1.0349604131	-0.0526671041	 0.166034
N	-0.3207903659	-1.8331183554	 0.9043919815	-0.41049
C	 0.5650750547	-0.7438327364	 1.0818710835	 0.376916
O	 1.3643702121	-0.4974485835	 1.9390936026	-0.340395
C	-2.549986111	-0.8985216567	 0.0747651989	 0.249263
C	-3.7420727362	-0.7886004298	 0.2025305911	-0.438387
H	-0.0498431396	 1.9070177473	 0.7079331435	 0.250954
H	 0.6442832056	 1.8268728384	-0.780530356	 0.247229
H	-0.7714219418	-0.3108433758	-2.0899745173	 0.143852
H	 0.3876565242	-1.6382787859	-1.5450499171	 0.130874
H	-0.7524903878	-2.2550311291	 1.717446351	 0.253398
H	-4.7941978281	-0.6911412525	 0.3076261413	 0.197327
