17
gdb 6444	3.66127	1.4361	1.24432	3.2563	68.89	-0.2878	0.0129	0.3007	1022.3921	0.141125	-363.869053	-363.860741	-363.859797	-363.901634	30.924	
C	 0.1067632914	 1.6480497349	 0.0267271541	-0.40894
C	 0.0571595	 0.1291252537	 0.0121680304	 0.050054
C	 1.0621301427	-0.6400325303	-0.890773877	-0.272911
C	 1.2487678706	-1.6854522226	 0.2412721594	 0.27416
O	 2.5913819976	-2.0668514587	 0.4225022141	-0.455921
C	 0.6249177987	-0.6482229816	 1.2333605973	-0.295353
C	 0.3887663895	-2.8679962726	 0.0732433561	 0.226316
N	-0.2758772854	-3.8088373795	-0.0275742494	-0.339382
H	 1.1207593671	 2.0065852769	 0.2364440151	 0.115957
H	-0.2018468583	 2.063120949	-0.9388681253	 0.122366
H	-0.5591413209	 2.0589930956	 0.793221327	 0.121492
H	-0.9622338557	-0.2100123368	-0.1980187223	 0.092846
H	 0.7295466234	-1.0030162343	-1.863935321	 0.122469
H	 2.004141344	-0.096204582	-1.0039556592	 0.122973
H	 2.6396905608	-2.713373691	 1.1363543398	 0.292186
H	 1.442057445	-0.1033644027	 1.7151968894	 0.115303
H	-0.0701446105	-1.017925978	 1.9892513614	 0.116385
