18
gdb 19946	3.81804	1.47689	1.13461	2.6016	72.83	-0.2332	-0.0164	0.2168	1062.9731	0.153417	-347.799712	-347.791884	-347.79094	-347.832631	29.054	
O	 0.2726667262	 0.0619520707	-0.1602159774	-0.293861
C	 0.0690344449	 1.2310668542	-0.0092109608	 0.383695
C	-1.1982962997	 2.0773940089	 0.2038115951	-0.338225
C	-0.2745505614	 3.2058764614	 0.7514729533	-0.255599
C	 0.9899301951	 2.4538362191	 0.2138880685	-0.096014
C	 2.2070101248	 2.289597497	 1.0799551419	 0.02576
C	 3.5321678755	 1.9081060066	 0.4700168374	-0.259212
C	 3.3338125966	 3.2954248399	 1.0246504547	-0.278881
H	-1.677322386	 2.3296477713	-0.7481019703	 0.130294
H	-1.953861739	 1.6531248543	 0.8693503629	 0.128107
H	-0.4427172025	 4.2079356449	 0.3556030237	 0.107688
H	-0.2824522591	 3.2518512487	 1.8432187959	 0.113121
H	 1.2786266894	 2.8536702668	-0.7677409928	 0.093936
H	 1.9983073943	 1.864648055	 2.0587017469	 0.08367
H	 4.1651267637	 1.2177963509	 1.0156416599	 0.116688
H	 3.5771388296	 1.7905199602	-0.6073612655	 0.115805
H	 3.2446086013	 4.1174091659	 0.321916267	 0.109612
H	 3.8323380764	 3.5577517543	 1.9511527497	 0.113416
