21
gdb 96141	2.52975	1.72643	1.29508	2.2126	77.92	-0.2407	0.0787	0.3193	1064.262	0.184467	-424.216453	-424.20863	-424.207685	-424.248358	31.647	
C	 0.0146320613	 1.5285097076	-0.027738101	-0.401825
C	-0.0279856657	 0.0051856686	 0.0260622923	 0.119468
O	 0.5373969452	-0.4340223988	-1.1998244856	-0.249574
C	 0.6989945575	-1.8277244764	-1.3800047739	-0.078529
C	 1.9344408452	-2.4017829601	-0.6681517579	-0.211891
C	 1.9964935362	-2.0706329818	 0.8205497254	 0.116269
C	 0.6338735681	-2.0463966349	 1.5418553502	-0.299493
C	 0.7142073929	-0.5300042821	 1.271599346	 0.095725
O	 2.1347055961	-0.6356309755	 1.0232596975	-0.284051
H	 1.0540974413	 1.8692305283	-0.0105566895	 0.138174
H	-0.4516117612	 1.885810038	-0.9490773756	 0.122258
H	-0.5141442693	 1.9634866756	 0.8254473872	 0.108918
H	-1.0771859614	-0.3374660562	 0.09478888	 0.059871
H	-0.2125435114	-2.3652455978	-1.072535258	 0.086982
H	 0.8055675882	-1.9769460008	-2.4596091481	 0.106296
H	 1.9445314887	-3.4917881927	-0.8050186484	 0.092262
H	 2.8407397041	-2.0036689321	-1.1383670004	 0.116555
H	 2.811166157	-2.6134552316	 1.310995159	 0.075777
H	-0.1957067249	-2.6126827206	 1.114986404	 0.102028
H	 0.7211595203	-2.2758449264	 2.605116404	 0.108959
H	 0.4965799218	 0.1200489996	 2.1268089829	 0.075819
