19
gdb 86315	1.9824	1.65844	1.15885	1.8938	71.45	-0.2573	-0.0351	0.2222	1134.2243	0.157582	-460.170699	-460.161336	-460.160392	-460.205875	34.697	
C	-0.0273783677	 1.4919246179	 0.2637219162	-0.490923
C	-0.0272611902	 0.0214923053	-0.0750142624	 0.437076
O	 1.0051405921	-0.5703978736	-0.3579432295	-0.373888
C	-1.3371763299	-0.7139600742	-0.0583018974	-0.241314
C	-1.5531778511	-1.5889560668	-1.3627474819	 0.159741
O	-0.827750735	-1.2629684531	-2.512240161	-0.431421
C	-1.1636562764	-2.8661313691	-0.5787335719	-0.303942
C	-1.2530090568	-2.0755634377	 0.749651353	 0.159744
O	-0.2305976638	-2.2309971041	 1.6900566518	-0.431425
H	 0.9846977792	 1.8950251169	 0.2128427148	 0.143507
H	-0.6813211133	 2.0326920151	-0.4302343634	 0.150408
H	-0.4401255016	 1.6414738863	 1.2681714181	 0.150411
H	-2.165348806	-0.0558085681	 0.2109893736	 0.072932
H	-2.6065852881	-1.5709804603	-1.6513349481	 0.09831
H	 0.1073038025	-1.2693284095	-2.2686502224	 0.293891
H	-1.7963269385	-3.7492502331	-0.6922652367	 0.105409
H	-0.1264395066	-3.1438082274	-0.7900863572	 0.10928
H	-2.1892652063	-2.2475030985	 1.2855009038	 0.098309
H	 0.6043774575	-2.0751014059	 1.2293850607	 0.293894
