14
gdb 76032	2.90743	1.21081	1.0905	4.8485	70.69	-0.2646	-0.007	0.2576	1118.2681	0.097938	-436.633214	-436.62432	-436.623376	-436.666596	32.749	
O	-0.2756962931	 1.3571386768	-0.1584651234	-0.425539
C	-0.0855270447	-0.0143840245	-0.0663940294	 0.031065
C	-0.4892762485	-0.7285262997	 1.2142306309	-0.36067
C	-0.9318186653	 0.0779551824	 2.3062450639	 0.296412
C	-1.2688159936	 0.8244300037	 3.1883737415	-0.38764
C	-1.3758164888	-0.8185066471	-0.0616071891	 0.243323
O	-2.5526916427	-0.1029653952	-0.1152171238	-0.444322
C	-1.4070717153	-2.0972248554	-0.7286189199	 0.273836
N	-1.3945963225	-3.1303448696	-1.2480017027	-0.336036
H	-0.2889242473	 1.7252131583	 0.7377119904	 0.304716
H	 0.7705179343	-0.3865550359	-0.6201896812	 0.140208
H	 0.0723344714	-1.6241803683	 1.4594146362	 0.148769
H	-1.5929051816	 1.4423177599	 3.9898135786	 0.214149
H	-2.3051107522	 0.7960672246	-0.3844303519	 0.301731
