21
gdb 90667	4.44823	1.05288	1.0175	1.5299	83.54	-0.2256	0.0822	0.3078	1283.9125	0.182417	-387.039242	-387.03084	-387.029896	-387.072223	32.733	
C	-0.0530125533	 1.4228946135	-0.0717536093	-0.401141
C	 0.0020151452	-0.0776300402	 0.1266011933	 0.141058
O	 0.975558921	-0.6925979939	-0.7780678234	-0.303991
C	 1.7738059421	-1.0945766959	 0.3351429109	 0.022023
C	 0.7803596991	-0.566567764	 1.3506822523	-0.248195
C	 1.0357021662	-2.0461352153	 1.2177780855	 0.361126
C	 0.1434813867	-3.2091303623	 0.7701343664	-0.295667
C	 1.0959292178	-4.1641338887	 1.5525523366	-0.205869
C	 1.7447271691	-2.9314203671	 2.2520456606	-0.311573
H	 0.9337822123	 1.8697249692	 0.0811799771	 0.122438
H	-0.3876438774	 1.6583529837	-1.0865614788	 0.12624
H	-0.7564125376	 1.8751998992	 0.6365319856	 0.113069
H	-0.9899679738	-0.5269435594	-0.0140794576	 0.079836
H	 2.8531013785	-1.0261515456	 0.2426582068	 0.095975
H	 0.9248369077	-0.0132637883	 2.2708206478	 0.089928
H	-0.8614165831	-3.1691706981	 1.2031690589	 0.097386
H	 0.0561416787	-3.3588220134	-0.308203397	 0.11268
H	 0.6245834026	-4.9020016832	 2.2048433709	 0.098294
H	 1.7967761458	-4.681255937	 0.8930028668	 0.106808
H	 2.8376823869	-2.8901569345	 2.2799487412	 0.098889
H	 1.3681646457	-2.7787378687	 3.2688319558	 0.100688
