19
gdb 83747	2.56338	1.72104	1.39317	2.7284	73.97	-0.2516	0.068	0.3196	999.9556	0.160353	-422.9988	-422.991096	-422.990152	-423.030874	30.94	
O	-0.0746860727	 1.4143529058	 0.0978888422	-0.426492
C	-0.0638699258	 0.0228789566	 0.0438734609	 0.113739
C	-0.4404935733	-0.7757610097	 1.264362764	-0.087544
C	-1.1363963793	-0.0054898001	 2.3925524029	-0.239749
C	-2.6120230035	 0.1416127864	 1.9445333161	-0.275735
C	-2.5821054279	 0.0219673894	 0.4253562598	 0.431309
C	-3.7599445826	 0.1368147718	-0.4380259346	-0.253768
O	-2.8460242906	 1.2320557497	-0.3358052647	-0.294204
C	-1.3543495572	-0.7643274279	 0.0426679937	-0.212077
H	-0.8488594913	 1.7202310872	-0.3915015824	 0.307996
H	 0.7388053115	-0.3837431804	-0.5703534303	 0.087977
H	 0.1497626983	-1.6517857178	 1.5076271336	 0.086306
H	-1.0544952155	-0.5381536728	 3.3425366484	 0.097191
H	-0.6704363188	 0.9761257927	 2.515331824	 0.127107
H	-3.2033867822	-0.6892067174	 2.3477734332	 0.106435
H	-3.0842105704	 1.0751757185	 2.2612915533	 0.113076
H	-3.7777059414	-0.3729003473	-1.4010427261	 0.114714
H	-4.7395367185	 0.3140145874	 0.0051383985	 0.114776
H	-1.4580183386	-1.6112959222	-0.6260529622	 0.088944
