15
gdb 37117	3.28492	1.78296	1.78093	0.651	67.2	-0.243	-0.0046	0.2384	833.6446	0.113132	-420.539027	-420.532828	-420.531884	-420.569281	25.668	
C	-0.0443699864	 1.5988579956	 0.0389750632	-0.355708
C	 1.4193271135	 2.0232118887	 0.1391988926	-0.059503
C	 2.2779109884	 1.0068775726	-0.0206984776	-0.148192
C	 1.5198125857	-0.2608373615	-0.1753616865	 0.218807
O	 0.690236393	-0.6234772312	 0.9482423783	-0.28062
C	 0.0745098844	 0.0951371604	-0.1187554276	 0.247551
C	-0.200012638	-0.8807120803	-1.260445933	-0.053574
O	 0.6173352843	-0.4930414361	-2.3734467615	-0.229212
C	 1.2356417842	-1.2362651132	-1.3127368565	-0.047542
H	-0.6227821869	 1.8948074644	 0.9211547368	 0.129393
H	-0.5321933312	 2.0462514684	-0.834737965	 0.132122
H	 1.7047363453	 3.0459838489	 0.3637970944	 0.106218
H	 3.3575506263	 1.0791594989	 0.0023974288	 0.110697
H	-1.0733077639	-1.4866207311	-1.4675600878	 0.114368
H	 1.7111789513	-2.1739606745	-1.5702541584	 0.115194
