20
gdb 89816	2.90063	1.24777	1.00944	2.2552	83.8	-0.2257	0.0095	0.2352	1242.924	0.171104	-403.139417	-403.130494	-403.129549	-403.173292	34.147	
C	-0.1931820169	 1.5411315777	 0.0965597782	-0.492356
C	-0.1485831844	 0.0478924375	 0.0548140823	 0.278696
C	-0.2660684599	-0.7583966215	-1.0056115372	-0.259814
C	-0.1275435892	-2.192487678	-0.6490699187	 0.336533
C	-0.676882394	-3.2843872501	-1.4919003088	-0.293502
N	 0.7797105495	-3.0762031275	-1.4220066559	-0.358697
C	-0.0718287781	-2.2291110255	 0.8797131941	-0.330072
C	 0.1365881389	-0.754952739	 1.3156071394	 0.031861
O	 1.4373802842	-0.4672657986	 1.831608991	-0.43205
H	 0.7060101444	 1.932497479	 0.5853075552	 0.139972
H	-0.2698581336	 1.9785931179	-0.9024139436	 0.11934
H	-1.0476847461	 1.8929339747	 0.6890873889	 0.128142
H	-0.423895512	-0.4311100749	-2.0298138984	 0.090152
H	-1.0287971672	-4.1991766758	-1.0210119322	 0.117504
H	-1.2041108123	-3.0166247879	-2.4048791804	 0.10819
H	 1.0987486129	-2.5933579272	-2.2599614965	 0.225688
H	-1.0143306953	-2.6118971684	 1.2838696827	 0.107079
H	 0.7335253271	-2.8689915129	 1.2466830442	 0.119842
H	-0.5353587772	-0.4802132719	 2.1359682794	 0.085292
H	 2.0717119892	-0.6733116177	 1.1351274266	 0.278199
