14
gdb 98398	3.17158	1.05626	0.79777	4.9838	61.75	-0.265	-0.0531	0.2118	1316.4929	0.097247	-510.997273	-510.987709	-510.986765	-511.033128	31.617	
O	-0.0474486418	 1.44693487	 0.0645846895	-0.38816
C	 0.0167185486	 0.0497949595	 0.021692684	-0.212651
C	-1.4224347256	-0.4674298991	-0.0602653532	 0.449181
O	-2.3600129289	 0.2788372122	-0.1390193176	-0.290025
N	-1.6119364573	-1.8846172139	-0.0158106216	-0.232006
C	-2.9721168213	-2.3424216098	 0.0502287842	 0.169911
O	-3.3038115713	-3.4892158532	 0.0148202584	-0.246737
C	-0.5246039302	-2.7910827881	-0.030037901	 0.171622
O	-0.6039781887	-3.9729507409	 0.1339542444	-0.241636
H	 0.853269336	 1.7845044825	 0.0749116043	 0.300736
H	 0.5739264449	-0.3172397175	-0.8562461817	 0.129798
H	 0.4979919509	-0.3814772717	 0.9146248984	 0.129177
H	-3.653804304	-1.4862307734	 0.129572653	 0.153196
H	 0.4345278886	-2.2841957665	-0.2228767612	 0.107595
