20
gdb 78546	2.38806	1.54853	1.25235	1.2839	79.81	-0.2049	0.0729	0.2779	1111.8115	0.168348	-403.047112	-403.037996	-403.037051	-403.080182	35.547	
C	-0.0367488477	 1.5239545731	-0.0121242483	-0.327423
N	 0.2284305692	 0.0897713102	 0.0472988081	-0.10552
C	 1.3762155018	-0.6846695074	-0.3313299369	-0.202916
C	 2.7751348621	-0.2339139157	 0.2351577382	 0.37388
O	 3.9286811093	-0.8779501758	-0.1763338289	-0.45197
C	 2.7720089669	 1.0456977279	 1.0143540556	-0.377752
C	 2.2129517663	-0.2264834341	 1.6333797321	-0.167601
C	 0.8251593595	-0.7207376579	 1.0701846274	 0.311742
C	 0.0242704783	-1.7601404815	 1.798141796	-0.479544
H	 0.6110149794	 2.0253223949	-0.738569534	 0.123313
H	-1.074602073	 1.6790888859	-0.3306997038	 0.115601
H	 0.0853119672	 2.0082748001	 0.9624448215	 0.126012
H	 1.302802407	-1.4171764351	-1.1311068351	 0.091893
H	 4.257902352	-0.4284246224	-0.9634771796	 0.284436
H	 3.7561551017	 1.2868278414	 1.4089403663	 0.115297
H	 2.176565339	 1.9123546543	 0.7675309138	 0.108443
H	 2.6517529448	-0.6532825632	 2.5259381663	 0.095465
H	-0.4497573086	-1.336601571	 2.692630354	 0.117143
H	-0.762065626	-2.1521239764	 1.1481883252	 0.128076
H	 0.6608122909	-2.5901655272	 2.123680222	 0.121425
