17
gdb 67512	2.36181	1.57386	1.19991	2.3245	73.32	-0.2211	-0.0271	0.194	1064.0639	0.133942	-421.744911	-421.736837	-421.735893	-421.777872	31.14	
O	-0.1018644897	 1.2707374315	-0.2037487279	-0.450694
C	-0.0598400562	-0.1036561022	-0.1528129089	 0.373308
C	 0.3856584275	-0.9380753396	-1.3857079882	-0.120528
C	 0.6594522136	-2.3801731474	-1.0917811476	-0.313518
C	-0.7676883819	-1.8962741934	-1.1153727922	-0.051243
C	-1.2178508214	-1.0340981221	 0.1034863789	-0.164368
C	-0.17640911	-0.8446526106	 1.1839229249	-0.175249
C	 0.6959990549	-1.8613072545	 1.8588279621	 0.101855
O	 1.6288125695	-1.5630127001	 2.5645384528	-0.264974
H	 0.782830759	 1.6094095136	-0.0196204268	 0.293743
H	 0.6539132543	-0.4520436555	-2.3146594275	 0.101052
H	 0.9337441251	-2.9669560202	-1.9647670771	 0.121273
H	 1.1734966236	-2.7017679782	-0.1934023925	 0.123456
H	-1.4844068001	-2.2833978545	-1.827187219	 0.100016
H	-2.2579455027	-0.783508759	 0.2686082183	 0.104244
H	-0.5011991435	-0.1004030434	 1.9110445263	 0.130138
H	 0.3977462779	-2.9239798844	 1.7235925243	 0.091491
