19
gdb 59898	2.50336	1.04323	0.81048	1.7057	77.85	-0.2571	0.0113	0.2684	1460.3534	0.155191	-423.037352	-423.026842	-423.025898	-423.074489	37.08	
C	-0.1888771845	 1.1137924127	 0.7956920209	-0.398167
C	-0.0576952294	-0.0276919619	-0.2062470316	 0.145692
C	 0.5813349182	-1.2795811708	 0.3748370651	-0.392428
O	-1.3823452792	-0.4297227742	-0.6606397495	-0.240142
C	-1.9239446822	 0.2719668371	-1.661883158	 0.448687
O	-1.4140255177	 1.2197834379	-2.2042452049	-0.36426
C	-3.3211380619	-0.2414743688	-2.0211097253	-0.46521
C	-3.5001830628	-1.6840290898	-1.9587426127	 0.321847
C	-3.6659712789	-2.8729777064	-1.9301497265	-0.452957
H	 0.8008686544	 1.4060300739	 1.1600312006	 0.121143
H	-0.6509789216	 1.9853044136	 0.3269670993	 0.14099
H	-0.794199676	 0.8056497899	 1.6541011063	 0.122444
H	 0.4936574511	 0.317679963	-1.0850427919	 0.111939
H	 0.0090897444	-1.644712912	 1.2331769601	 0.127538
H	 0.6256604059	-2.0753578545	-0.3731236945	 0.129403
H	 1.5998112034	-1.0589632061	 0.7078287256	 0.120548
H	-4.0211121051	 0.2517577534	-1.3324102336	 0.160676
H	-3.5457819623	 0.1439226424	-3.0195622079	 0.162554
H	-3.8036720458	-3.9252667094	-1.8988135815	 0.199703
