16
gdb 95535	2.18339	1.72601	1.2504	5.2528	69.56	-0.2415	0.0099	0.2514	1024.102	0.126021	-434.082398	-434.073941	-434.072997	-434.115614	30.766	
O	-0.067494377	 1.4226636167	 0.07401652	-0.417277
C	 0.0132688197	 0.0171237265	 0.013373859	 0.090915
C	-1.4203098287	-0.5073139767	 0.0645964713	-0.171482
N	-1.390002412	-1.9434453512	-0.1558983215	-0.294704
C	-0.3885265715	-2.5324944264	-0.8641961703	 0.109634
N	 0.6355556787	-1.9766582735	-1.3994898679	-0.269032
C	 0.7095912375	-0.5163550965	-1.2665243105	-0.181029
C	 0.1540758758	 0.1318847698	-2.467961348	 0.308969
N	-0.2933713373	 0.6262216534	-3.4118392358	-0.33501
H	 0.8220375305	 1.7897525942	 0.0467174937	 0.294647
H	 0.5737372881	-0.3945851315	 0.8659600112	 0.093099
H	-1.8588791842	-0.2900069782	 1.0423457874	 0.126673
H	-2.013711551	 0.0148244597	-0.6972874158	 0.146614
H	-2.1708034216	-2.5041725339	 0.1381903959	 0.257064
H	-0.4871198618	-3.6146905522	-0.9534643413	 0.121925
H	 1.772303865	-0.2428425202	-1.2214827873	 0.118993
