19
gdb 63022	2.23179	1.76592	1.39907	1.7026	74.42	-0.235	-0.0237	0.2113	1022.0593	0.158544	-423.04768	-423.039189	-423.038245	-423.080378	33.349	
C	 0.0865341869	 1.5963166525	-0.0232998581	-0.442485
C	 0.0899899536	 0.0745503765	-0.0159340869	 0.294287
O	-1.2470104696	-0.4491979275	 0.0455429505	-0.476212
C	 0.7523716373	-0.6078046535	-1.1910796056	-0.04633
C	 2.2569322636	-0.552357638	-1.2728133113	-0.310666
C	 1.5899333264	-1.7736707801	-0.6935701646	-0.044023
C	 1.4984096155	-1.835463567	 0.8186112715	-0.331727
C	 0.8125256169	-0.5277205174	 1.2231874501	 0.338431
O	 0.765297709	-0.0524714777	 2.3289853053	-0.328064
H	 1.0926538712	 1.9955514099	-0.1800394686	 0.122071
H	-0.5648339002	 1.9646080717	-0.8207413584	 0.12151
H	-0.2739673148	 1.9726860661	 0.9398172026	 0.126894
H	-1.6695287185	-0.0580118185	 0.8197457499	 0.286558
H	 0.1732890402	-0.6821269858	-2.1038562044	 0.097114
H	 2.7010116466	-0.6355213281	-2.2582653945	 0.118823
H	 2.8007152442	 0.1097480924	-0.603281619	 0.115337
H	 1.6249996728	-2.7006032652	-1.2528514523	 0.091347
H	 0.860162657	-2.6657858555	 1.1455766081	 0.139364
H	 2.4560626818	-1.9381412549	 1.3379263657	 0.12777
