21
gdb 79874	2.43016	1.66942	1.39171	1.2976	82.23	-0.2234	0.0703	0.2936	1058.3067	0.182784	-387.031971	-387.023631	-387.022687	-387.064131	33.678	
C	-0.0136032333	 1.53672862	-0.003883048	-0.495963
C	-0.0043652111	 0.0322888357	-0.0204478187	 0.304558
C	-0.9046018736	-0.7765436908	 0.8428925148	 0.040337
O	-1.8433048257	-1.6909904061	 0.3403588943	-0.421711
C	 0.5680891114	-1.008045248	 1.0215352131	-0.184652
C	 1.2635434788	-1.7689762446	-0.1254598006	-0.009613
C	 0.5655573963	-2.9497812735	-0.8741569744	-0.230295
C	-0.0175587512	-1.934558106	-1.9147723232	-0.233838
C	 0.6888479518	-0.7672890253	-1.1559894286	-0.06933
H	 0.9805562588	 1.9459382561	-0.2174364438	 0.115608
H	-0.7020220887	 1.9313977209	-0.7620944964	 0.12338
H	-0.3342709495	 1.9255799705	 0.9681950719	 0.114474
H	-1.3082986185	-0.1736826889	 1.6612959822	 0.084027
H	-1.9703844694	-2.3748865614	 1.0065124396	 0.284282
H	 1.0318211178	-0.8248153797	 1.9865607425	 0.074877
H	 2.3416953819	-1.8515391859	 0.017336823	 0.064404
H	 1.2840140169	-3.6496939556	-1.3095573303	 0.089381
H	-0.1686329688	-3.5192445546	-0.3044884885	 0.084677
H	 0.384278687	-2.0762855872	-2.9216805105	 0.0863
H	-1.1032231568	-1.8852138994	-1.9683783355	 0.118431
H	 1.3615704059	-0.1387339262	-1.7421271728	 0.060667
