21
gdb 89464	2.24656	1.51442	1.39977	2.3538	78.03	-0.2364	0.0641	0.3005	1102.2089	0.180021	-424.202688	-424.192971	-424.192027	-424.23716	36.324	
C	-0.663404795	 1.3072347015	-0.0511878474	-0.419981
C	 0.080994555	-0.0203368378	-0.0273901848	-0.033224
C	 1.4240698851	-0.1509677708	-0.8215620469	-0.29789
C	 2.1172946526	-0.7284835307	 0.4430904496	 0.410336
C	 2.8993046569	-2.0104448048	 0.3700377028	-0.474483
O	 2.7968267729	 0.3197945327	 1.182918827	-0.329958
C	 1.6437617674	 0.5587639032	 2.0222229386	-0.139973
C	 0.8129723297	-0.4963758197	 1.2622012845	 0.277441
O	 0.2350866477	-1.5283572502	 2.008315404	-0.478707
H	-0.004953555	 2.1446808196	 0.2012456936	 0.124673
H	-1.072766306	 1.5032202024	-1.0480077318	 0.120929
H	-1.5022800694	 1.3154440567	 0.6550917151	 0.106566
H	-0.5962681619	-0.8293726221	-0.3228777515	 0.077206
H	 1.378009614	-0.8239138581	-1.6813722086	 0.099509
H	 1.8673149437	 0.7981717335	-1.1321085386	 0.107611
H	 3.8223177996	-1.8563913967	-0.2003241965	 0.124902
H	 3.1665366767	-2.3590289274	 1.3712679692	 0.129412
H	 2.3160616835	-2.7918973307	-0.126527918	 0.119848
H	 1.8319984459	 0.2666500818	 3.0629441495	 0.101942
H	 1.3129397867	 1.6039319327	 1.9908822619	 0.092578
H	-0.6599187603	-1.2682428852	 2.2521946683	 0.281263
