19
gdb 79067	2.12388	1.99398	1.67971	1.1255	78.47	-0.2243	0.0139	0.2382	949.9188	0.159174	-385.860329	-385.85245	-385.851506	-385.892132	31.929	
C	-0.032365835	 1.6239467817	-0.0414556244	-0.423344
C	 0.1013607287	 0.1080231311	-0.0067979472	-0.017755
C	 0.709529806	-0.6618586166	-1.1755562409	-0.097474
C	 2.2613046216	-0.7703405687	-1.0880353006	-0.089623
C	 3.0026486109	 0.1497984103	-0.1805756292	-0.07814
C	 2.4063999792	 0.1741604112	 1.016339144	-0.177724
C	 1.1425063326	-0.6521912893	 0.9437476585	 0.349381
O	 0.6461890133	-1.2234634149	 2.1209001085	-0.502567
C	 1.371789428	-1.6399441893	-0.2411784144	-0.108636
H	 0.9225100056	 2.1082569709	-0.2599824284	 0.119351
H	-0.7462662612	 1.9248834782	-0.8166229609	 0.112718
H	-0.4042679748	 2.0160159617	 0.9129114769	 0.102298
H	-0.863206368	-0.3573704792	 0.2236273689	 0.084261
H	 0.2221033862	-0.8549391503	-2.1245832166	 0.084239
H	 2.7337332741	-1.1860409571	-1.9706301526	 0.084717
H	 3.8607045023	 0.7356746419	-0.4869613741	 0.098227
H	 2.6581964369	 0.813399129	 1.8551547177	 0.089061
H	 0.5440704233	-0.5278930656	 2.7787284858	 0.277922
H	 1.3617368604	-2.7218049149	-0.1996880312	 0.093089
