20
gdb 75721	2.16164	1.72933	1.32391	3.6931	78.71	-0.2347	0.0019	0.2365	1078.8154	0.170478	-403.152449	-403.143623	-403.142679	-403.185629	33.506	
C	-0.367167887	 1.5340780547	-0.0722127328	-0.410417
C	-0.0265026908	 0.0531920816	 0.0045546175	-0.195212
C	 1.1907571492	-0.4257929917	-0.816321022	 0.381221
O	 1.6547891906	-0.1492770458	-1.8860075553	-0.331512
N	 1.7158589606	-1.2139968047	 0.2420055861	-0.174721
C	 2.8849332771	-0.6005975958	 0.9549614443	-0.181909
C	 1.9153372394	 0.2183457946	 1.8547283565	-0.306904
C	 0.7332668541	-0.5776025187	 1.2131737136	 0.356751
C	-0.0392628641	-1.5009822947	 2.1284841105	-0.473825
H	 0.4997735872	 2.1654726754	 0.1426878265	 0.123979
H	-0.709721507	 1.7841015387	-1.080474567	 0.141574
H	-1.1633496231	 1.7941061403	 0.6324486418	 0.120447
H	-0.9175305958	-0.5454749686	-0.2183482947	 0.103488
H	 3.4694141764	-1.3558913545	 1.4852788544	 0.118217
H	 3.5443417555	-0.0404024948	 0.2879575755	 0.132207
H	 2.0293760653	 0.0748392174	 2.9311751406	 0.110706
H	 1.9122526875	 1.2905557423	 1.6463651874	 0.115327
H	-0.7138803464	-0.9252497005	 2.7728391739	 0.121886
H	-0.6401257486	-2.2105371842	 1.5511857839	 0.126057
H	 0.63357906	-2.074142491	 2.7747249793	 0.12264
