15
gdb 37207	2.87393	2.09069	1.77467	1.5525	62.56	-0.2541	0.0256	0.2797	809.0127	0.112667	-457.623979	-457.617703	-457.616759	-457.65429	25.619	
C	 0.0277072983	 1.5107230709	-0.0034016509	-0.147626
O	 1.5012125748	 1.5227255605	-0.025340131	-0.327869
C	 1.5175088281	 0.0856283221	-0.0422962643	 0.28631
C	 1.4868909391	-0.6530955706	 1.3131023525	-0.152326
O	 0.0238093322	-0.7338749484	 1.2555906602	-0.324603
C	 0.0226823107	-0.0392841987	-0.0006667823	 0.265469
C	 0.0714874251	-0.8955722286	-1.282924051	-0.05246
O	 0.6858929204	-0.0695702004	-2.2628159177	-0.215122
C	 1.5618722818	-0.7296043899	-1.3465302271	-0.055526
H	-0.3669543199	 1.9667645715	 0.9090136935	 0.119493
H	-0.382918542	 1.9900308236	-0.8950755637	 0.129172
H	 1.9455702685	-1.6467121231	 1.352930101	 0.115965
H	 1.8302267834	-0.0447446217	 2.1550040863	 0.127451
H	-0.5714207224	-1.7010162972	-1.6185916094	 0.118154
H	 2.3391890918	-1.3522257799	-1.7755699362	 0.113517
