18
gdb 71172	2.56084	1.64578	1.33479	4.3159	79.18	-0.2676	0.0254	0.2931	1020.0613	0.148472	-364.7855	-364.777839	-364.776895	-364.817411	30.268	
C	 0.0009873864	 1.5614174493	 0.0309001552	-0.512633
C	 0.0441443447	 0.0588576787	 0.0823218424	 0.312149
C	-1.2493985304	-0.7972070445	 0.2184101219	-0.284079
C	-0.3597597673	-1.8659428994	 0.8450330717	-0.055495
C	 0.981106765	-1.8420949396	 0.1009036579	-0.073836
C	 0.7000676452	-0.8556090476	 1.2068927976	-0.151026
C	 0.9048224711	-0.7439502915	-0.9617561533	-0.181344
C	 0.336555383	-1.0241399844	-2.2770236457	 0.267306
N	-0.1279915498	-1.2413770001	-3.3137326866	-0.340114
H	 1.0071666652	 1.9941586395	 0.0423682159	 0.121383
H	-0.5009543742	 1.9017478408	-0.8822269667	 0.137012
H	-0.5496392508	 1.9666858728	 0.8861419958	 0.12539
H	-1.9239318158	-0.3597701081	 0.9598508181	 0.103339
H	-1.8030727923	-1.0285144593	-0.6974706025	 0.118994
H	-0.6558448173	-2.7428259266	 1.4053653836	 0.094792
H	 1.6556322837	-2.6872817516	 0.1122326087	 0.102445
H	 1.2273207713	-0.6345901565	 2.1229935825	 0.099293
H	 1.881279502	-0.266139982	-1.0858193966	 0.116421
