21
gdb 55756	3.31827	1.07041	0.93386	2.6007	83.25	-0.231	-0.0087	0.2224	1332.3435	0.181298	-387.086014	-387.076708	-387.075764	-387.121352	34.447	
C	 0.1451928869	 0.7186771497	-1.008493103	-0.478272
C	 0.0965613741	 0.0533132679	 0.3543124412	 0.390817
O	 1.0187150272	 0.113228078	 1.1346883704	-0.304066
C	-1.1676240409	-0.7416538854	 0.6882544359	-0.407634
C	-1.0233573754	-2.1687016837	 0.2108000677	 0.381918
C	-1.4376110077	-2.638178298	-1.1594728839	-0.315702
C	-2.0756783096	-3.2722102236	 0.0483577669	-0.115933
C	-1.1229970784	-4.3025625344	 0.6637104689	-0.22115
C	-0.0409667245	-3.1835077663	 0.8197387377	-0.278153
H	 1.1357890966	 1.1387776463	-1.1867577096	 0.13993
H	-0.1078163068	 0.0006745928	-1.7958593112	 0.144221
H	-0.6039048339	 1.5182995987	-1.0554619941	 0.13815
H	-1.2915845741	-0.7200235489	 1.7760202328	 0.117583
H	-2.0477822017	-0.2821726135	 0.2240594995	 0.098694
H	-2.0776846914	-1.9569863468	-1.7127445725	 0.106017
H	-0.7526850165	-3.2095097849	-1.7836246905	 0.104292
H	-3.1458886786	-3.2194408581	 0.2126691336	 0.084797
H	-1.4646759208	-4.6834771805	 1.6285243415	 0.104999
H	-0.8657870409	-5.1544094285	 0.0253415649	 0.096427
H	 0.9015091117	-3.3216794745	 0.2806391675	 0.098146
H	 0.1904502447	-2.9676473163	 1.8649306263	 0.114922
