20
gdb 113319	2.31841	1.17484	0.89196	2.3608	83.32	-0.2469	0.0254	0.2722	1372.3428	0.16916	-403.091204	-403.081221	-403.080277	-403.126033	37.098	
C	 0.5102304367	 1.1798007879	 0.3638138691	-0.377557
C	-0.1799563977	-0.1020180552	-0.1179130958	-0.212772
C	 0.4771869318	-0.6558448851	-1.3635037222	-0.014274
N	 1.7348279105	-1.4100320346	-1.2252283389	-0.388655
C	 0.5279240878	-2.1082533046	-1.7401729281	 0.069641
C	 0.0413749468	-3.2370728215	-0.8150394034	-0.134051
O	 0.5051125939	-3.0893879807	 0.5050367677	-0.414706
C	 0.4617721273	-2.4266821804	-3.1425434258	 0.247814
C	 0.3995398869	-2.7264960762	-4.3061623371	-0.40581
H	 1.558924542	 0.985350101	 0.6099736695	 0.126152
H	 0.4855046059	 1.9620928469	-0.4034363948	 0.110164
H	 0.0209929222	 1.5756132498	 1.258575041	 0.116074
H	-0.1716206796	-0.8604523917	 0.6670589682	 0.133526
H	-1.2314543778	 0.1066996099	-0.3530811278	 0.10053
H	 0.4331281112	 0.0163508128	-2.2202988116	 0.091929
H	 2.3819608825	-1.2060060767	-1.9811686717	 0.24374
H	-1.05394496	-3.2543751747	-0.7930885098	 0.117514
H	 0.3775008898	-4.1901442462	-1.252577089	 0.100634
H	 1.3810286701	-2.6814078	 0.4219678168	 0.292176
H	 0.3412065199	-2.9814931007	-5.3354910961	 0.197932
