21
gdb 39368	2.25966	2.05242	1.52505	0.242	86.89	-0.2302	0.0172	0.2474	983.2667	0.187067	-349.975342	-349.968272	-349.967328	-350.00627	30.079	
C	-0.0192881504	 1.4712910245	 0.0914683108	-0.219433
C	 1.4525556547	 1.9247359312	-0.0443466305	-0.034875
C	 2.1924396206	 1.9295454156	 1.3164492215	-0.206056
C	 2.4931528366	 0.5451441113	 1.9282766821	-0.240973
C	 1.3576241588	-0.4330197276	 2.1406052972	-0.044714
C	 0.3469872334	-0.7299500501	 1.3180209239	-0.068403
C	 0.0620192867	-0.0712918281	-0.0206159559	-0.083217
C	 1.2416744165	-0.2271519389	-0.9756800862	-0.066843
C	 1.999572752	 0.8689469721	-0.9890397559	-0.079625
H	-0.491591378	 1.8037264522	 1.0193584816	 0.090526
H	-0.5981715861	 1.8635250253	-0.7514851681	 0.092141
H	 1.5184093965	 2.9348057708	-0.464821429	 0.063719
H	 3.1534216236	 2.4474917974	 1.2021636526	 0.08938
H	 1.6037097402	 2.5271912075	 2.0236397079	 0.096451
H	 3.2446525784	 0.0506353707	 1.2950501844	 0.115473
H	 2.9878589858	 0.7116872106	 2.89179209	 0.093629
H	 1.4213686941	-1.002506567	 3.0662727532	 0.08194
H	-0.3453262378	-1.5102786614	 1.6272069879	 0.078888
H	-0.8595103332	-0.4932567199	-0.4332452365	 0.06314
H	 1.4494520259	-1.1536042677	-1.4990264733	 0.092122
H	 2.9296772817	 0.9858554316	-1.5351415577	 0.08673
