23
gdb 108253	2.4505	1.29755	1.25911	1.754	84.92	-0.2348	0.0711	0.3059	1209.6765	0.204639	-388.274876	-388.265303	-388.264359	-388.309084	36.444	
C	 0.0160832597	 1.5944365869	-0.0345472436	-0.380916
C	-0.0065084941	 0.0682519527	-0.197320113	-0.295042
C	-1.3897725597	-0.5214367126	-0.0143297237	 0.277118
C	-2.4641399642	-0.2723471235	-1.1141409422	-0.28687
C	-2.8014806431	-1.795151038	-1.1497510657	-0.265608
C	-1.7471903063	-2.051557337	-0.0429202032	 0.396045
C	-0.7903997486	-3.2087993451	-0.1637047753	-0.475736
O	-2.3434574135	-1.9621597744	 1.2764134844	-0.334255
C	-1.9900206653	-0.5677246588	 1.4042051459	-0.125858
H	 1.0250264915	 1.9925937321	-0.1780422195	 0.114244
H	-0.6416606614	 2.0806082424	-0.762753902	 0.120739
H	-0.3193481193	 1.8918149769	 0.9650524976	 0.119279
H	 0.3741344986	-0.197232269	-1.1924553437	 0.093557
H	 0.6826429335	-0.3859422623	 0.5268314479	 0.097208
H	-3.282439893	 0.3956815526	-0.831779327	 0.097924
H	-2.0342917732	 0.0944066419	-2.0503791618	 0.098066
H	-3.8142281003	-2.0741816355	-0.8516278283	 0.107505
H	-2.5688367982	-2.2726194829	-2.105827639	 0.095857
H	-0.3038715486	-3.2169879343	-1.1443890882	 0.1137
H	-0.0189956633	-3.1657896523	 0.6109852871	 0.120356
H	-1.3326405165	-4.1544425668	-0.0471422803	 0.127861
H	-1.2604141154	-0.4140255634	 2.212037063	 0.091313
H	-2.8640711896	 0.0693044605	 1.5925013107	 0.093513
