18
gdb 40408	3.66532	1.28167	1.1361	1.4729	76.05	-0.2404	0.0057	0.246	1113.2893	0.148775	-401.905762	-401.898251	-401.897307	-401.937962	29.557	
C	-0.1007237431	 1.4857125902	-0.0505181823	-0.239743
N	 1.2193430248	 0.8366517909	-0.0447492166	-0.318912
C	 0.007746396	 0.0058654109	 0.046137696	-0.121018
C	-0.2083977639	-0.7374550292	 1.3216886001	 0.467118
C	 0.2374059521	-0.165670017	 2.6673708546	-0.351256
C	 0.4686463408	-1.4023079664	 3.5102444395	-0.079036
C	 0.2708842873	-2.5306330595	 2.8235579036	-0.0758
C	-0.1748753289	-2.2107638046	 1.4359241791	-0.080509
O	-1.4303329505	-1.4862507908	 1.3857064404	-0.311673
H	-0.3210095642	 2.0736603016	 0.8358382006	 0.122162
H	-0.4789177943	 1.9068056619	-0.9781014262	 0.115427
H	 1.6027210606	 0.7976277453	-0.9846151079	 0.236879
H	-0.2951198756	-0.5581795921	-0.8335458656	 0.085022
H	 1.149942334	 0.4297192624	 2.5462224544	 0.139144
H	-0.5289117492	 0.4876487404	 3.1015684696	 0.119624
H	 0.736170904	-1.3437248907	 4.5593641646	 0.101107
H	 0.379661343	-3.5396498788	 3.2009530596	 0.100379
H	-0.0003217628	-2.8776347745	 0.5961453366	 0.091084
