21
gdb 6481	3.86521	1.35891	1.241	1.6015	76.19	-0.2056	0.0816	0.2872	1105.0425	0.186517	-366.227444	-366.218159	-366.217215	-366.260966	34.172	
C	 0.0358650427	 1.3756332623	-0.0684452415	-0.249216
O	-0.0581390479	-0.0166194835	 0.1349916792	-0.286369
C	-1.3633692332	-0.5678364567	 0.0857016787	 0.419857
C	-2.2728820548	-0.0165209164	 1.1756355955	-0.460855
C	-1.9456258697	-0.6588902662	-1.3609330012	-0.222063
N	-1.4169575186	-2.0295791347	-1.4647011575	-0.059509
C	-2.2251443159	-3.0365437445	-2.1081649519	-0.31926
C	-1.2144437909	-2.1070211164	-0.0067882895	-0.202895
H	 1.1005865995	 1.6097597115	-0.1457001185	 0.128051
H	-0.4579612089	 1.695967342	-0.9975679287	 0.104517
H	-0.3868202329	 1.9550647715	 0.764547477	 0.106009
H	-2.5078680861	 1.0403452447	 1.0139147399	 0.118201
H	-3.2191367213	-0.5633850361	 1.2002059129	 0.11712
H	-1.7910617254	-0.1142589319	 2.1541482827	 0.124441
H	-3.047268561	-0.6053886687	-1.3665345528	 0.076644
H	-1.5553119271	 0.0398591328	-2.1092547281	 0.100086
H	-2.3438674847	-2.7963347977	-3.1703647961	 0.118674
H	-1.7301688216	-4.0113995279	-2.0399603687	 0.119881
H	-3.2372828924	-3.1373503439	-1.6669818664	 0.082314
H	-0.244176785	-2.5065610064	 0.3046793169	 0.108853
H	-2.0200629148	-2.6376118337	 0.5263994782	 0.075519
