18
gdb 93542	3.42171	1.24024	0.94807	1.8389	75.7	-0.2412	-0.0011	0.24	1219.5871	0.150432	-435.323118	-435.314748	-435.313804	-435.356377	31.526	
C	 0.1718311082	 1.6206069953	 0.0254215028	-0.385274
C	-0.0891934145	 0.1105540527	-0.0188249273	 0.050313
C	 0.6153709539	-0.5216436444	-1.2305956628	-0.186899
N	 0.169138683	-1.8740823145	-1.5220908429	-0.335551
C	 0.3656178989	-2.9795503627	-0.7503056224	 0.440699
O	 0.2656268239	-4.1181887021	-1.1676199715	-0.397227
N	 0.6999915891	-2.7617063022	 0.5952191863	-0.354832
C	 0.6194992145	-1.662096274	 1.445918897	 0.095859
N	 0.3016832763	-0.4504332099	 1.2656286876	-0.250596
H	 1.2456947556	 1.8244628793	 0.0957509312	 0.118636
H	-0.2189365042	 2.1196624757	-0.8672455106	 0.104967
H	-0.3060084001	 2.0507041169	 0.908075113	 0.130332
H	-1.1685201284	-0.0539838814	-0.147685419	 0.096424
H	 0.3982864809	 0.0760889982	-2.119491593	 0.117112
H	 1.7025881404	-0.4826320339	-1.0724348093	 0.120628
H	-0.0137859565	-2.116006246	-2.4828234952	 0.257794
H	 0.8913678448	-3.6442979822	 1.0469050297	 0.262257
H	 0.8960433743	-1.9601007545	 2.4599292763	 0.115357
