17
gdb 47704	2.19468	1.6588	0.98023	4.9166	70.84	-0.2514	-0.0123	0.239	1156.3419	0.139186	-455.228164	-455.220078	-455.219134	-455.261745	29.837	
O	 0.0301058555	-0.1195464508	 0.122563298	-0.342947
C	-0.0368117559	 1.0917780027	 0.127411721	 0.399806
C	-1.377003316	 1.7923309528	 0.2506113309	-0.299864
C	-1.4212168953	 3.1691372393	 0.9107168486	-0.220155
C	-0.704663767	 4.2469825081	 0.1031196795	-0.155369
N	 0.7436697541	 4.1798072348	 0.1995310668	-0.333345
C	 1.6078165876	 3.1416661611	 0.0017956412	 0.445003
O	 2.8059870185	 3.3263516463	-0.1096770059	-0.391292
N	 1.1402226364	 1.8153054049	-0.043268341	-0.377039
H	-1.7789341156	 1.8677491558	-0.7695959671	 0.13562
H	-2.019301984	 1.083022871	 0.7770713499	 0.141239
H	-2.4721852084	 3.4611938447	 1.0092587482	 0.115644
H	-1.0035997312	 3.1339471617	 1.9230638022	 0.121873
H	-1.0418933291	 4.20415478	-0.9447653553	 0.111616
H	-0.9860902104	 5.2329561897	 0.4834408255	 0.120966
H	 1.2428785128	 5.0542469431	 0.1458948828	 0.259365
H	 1.9310595581	 1.1927534249	-0.1585602955	 0.26888
