15
gdb 13362	5.89995	1.05597	0.98551	1.7162	70.2	-0.2501	0.0178	0.2678	1194.8126	0.118995	-362.647647	-362.639537	-362.638593	-362.682486	27.184	
C	-0.0643327192	 1.4471022564	 0.0466783949	-0.497115
C	 0.0048295658	-0.0066927843	 0.027668341	 0.041275
C	 0.0513615424	-1.2091749878	 0.000402247	 0.120088
C	 0.1307614763	-2.6653669133	-0.0072176659	-0.172371
C	 0.594415173	-3.2700983351	 1.3589793443	-0.115533
O	-0.4685921213	-4.1810682921	 1.719808201	-0.217724
C	-1.3870079489	-4.0761378511	 0.7318577571	 0.128686
N	-1.1922429385	-3.30338023	-0.2518339656	-0.255305
H	 0.6324704189	 1.8887773592	-0.674072321	 0.149511
H	-1.0710391324	 1.7953992348	-0.20878853	 0.154309
H	 0.183199901	 1.8459866988	 1.0365227227	 0.147863
H	 0.8043596641	-2.9797457065	-0.8138032246	 0.116667
H	 1.5235175598	-3.8394086413	 1.2827159563	 0.123731
H	 0.6873315409	-2.515796091	 2.1426643213	 0.130828
H	-2.262378622	-4.7012136268	 0.8710218315	 0.14509
