21
gdb 60493	2.59053	0.9095	0.70738	4.4485	77.	-0.2677	0.0163	0.284	1616.6669	0.179222	-461.384526	-461.373825	-461.372881	-461.421833	37.156	
C	-0.7417197517	 1.4759326023	 0.0317255223	-0.393653
C	-0.377381843	 0.0107462897	-0.1727759111	 0.153946
C	 0.7671391632	-0.4390404356	 0.7382167329	-0.393306
O	-1.5702460129	-0.7376457053	 0.0716231755	-0.261325
C	-1.5682631367	-2.0674370379	-0.390087155	-0.06384
C	-3.0129689001	-2.5344020446	-0.4461716188	-0.100753
O	-3.7372878747	-1.8281061334	-1.454834609	-0.180006
C	-4.3130119838	-0.660045191	-1.0970943128	 0.180316
O	-4.8281134053	 0.0671206934	-1.892208867	-0.283677
H	 0.1175818911	 2.1181228346	-0.1818121437	 0.116267
H	-1.5644438481	 1.7610837727	-0.6288356027	 0.134776
H	-1.0538604594	 1.6501481615	 1.066464109	 0.122598
H	-0.0810760582	-0.1442438691	-1.2234492192	 0.073949
H	 0.4849458002	-0.3188041444	 1.7892181355	 0.123354
H	 1.0331346149	-1.4869737936	 0.5704434291	 0.115587
H	 1.6616104164	 0.1627404892	 0.5496066732	 0.119968
H	-1.1236903871	-2.1348543738	-1.3952538928	 0.105988
H	-1.0020833454	-2.7373223926	 0.2767793142	 0.095848
H	-3.0636434362	-3.5924546452	-0.7139425318	 0.125664
H	-3.4873781757	-2.3963738356	 0.5334595692	 0.121469
H	-4.2693180774	-0.4750169113	-0.0094547271	 0.08683
