20
gdb 22777	3.00474	0.99652	0.80402	1.3156	80.55	-0.2413	0.0059	0.2472	1448.9517	0.168145	-440.223921	-440.213854	-440.21291	-440.259389	36.224	
C	-0.4239347394	 1.5722946956	-0.0441006496	-0.238619
O	-0.3454844713	 0.3145324691	 0.5889066094	-0.236119
C	-1.2112137407	-0.637902791	 0.040448975	 0.135878
C	-0.8154159855	-1.276005644	-1.3350684923	-0.362801
C	-0.9804380385	-2.6245620708	-0.6667236564	 0.419188
N	-1.073983667	-3.8268556566	-1.0513323419	-0.240186
O	-0.9237083715	-3.9230925415	-2.4493706932	-0.395151
C	-1.1146025638	-2.0415150699	 0.7289707609	-0.1339
C	 0.0965434395	-2.2515912108	 1.6410513626	-0.384949
H	 0.2690649858	 2.2399072967	 0.4730842639	 0.129491
H	-0.1384574564	 1.5180645112	-1.1052704649	 0.110853
H	-1.4396549556	 1.9934667049	 0.0178835294	 0.106602
H	-2.2429357835	-0.2560132612	 0.0248258704	 0.070683
H	-1.4530880713	-1.0831976271	-2.2009722152	 0.123708
H	 0.2244687576	-1.0628548149	-1.6063296041	 0.12982
H	-1.0310488163	-4.8685578083	-2.598491662	 0.305102
H	-2.028636858	-2.338586093	 1.2522454999	 0.089679
H	 1.026837032	-1.9669113216	 1.1432415372	 0.122647
H	 0.0046850549	-1.6462569324	 2.5468070687	 0.124237
H	 0.1663959889	-3.3049355244	 1.9262816523	 0.123836
