17
gdb 67796	3.23074	1.92485	1.53105	2.2868	76.65	-0.2355	-0.0109	0.2246	894.072	0.137841	-380.856723	-380.849823	-380.848879	-380.88751	28.018	
C	-0.0233881908	 1.5572608425	 0.0151778162	-0.48359
C	-0.116379595	 0.0686136112	-0.1516371677	 0.322036
C	 0.7136595068	-0.6675991131	-1.1209286399	-0.132001
C	 0.166605301	-1.8532818366	-1.4343931265	-0.067345
C	-1.0384867066	-2.1203066016	-0.5448602832	-0.08849
N	-0.3809959926	-2.8856197084	 0.555977736	-0.21243
C	-0.0188131199	-1.996381111	 1.4053074216	 0.05205
N	-0.4685406698	-0.6732777987	 1.2590883275	-0.208362
C	-1.3341530375	-0.7350201027	 0.0715666641	-0.094451
H	 0.9920389613	 1.859777481	 0.2908696819	 0.130414
H	-0.2791279701	 2.0596338719	-0.9248100593	 0.127438
H	-0.7042390495	 1.901386089	 0.795939254	 0.139134
H	 1.6658613462	-0.2933431081	-1.4781584702	 0.101273
H	 0.6120758568	-2.6202564299	-2.055256494	 0.117929
H	-1.8727606597	-2.664330919	-0.9862728863	 0.081236
H	 0.6218578731	-2.2251408991	 2.2521881898	 0.121316
H	-2.3333475736	-0.3156118974	 0.1521667961	 0.093845
