19
gdb 127427	2.35488	1.57992	0.96264	0.844	80.87	-0.1962	0.0336	0.2298	1235.9859	0.157683	-419.239508	-419.229139	-419.228195	-419.275189	35.81	
C	-0.0662051142	 1.3842256612	-0.0530119024	-0.325518
N	-0.0100503368	-0.0562116839	 0.0338916933	-0.022671
N	-0.0275626651	-0.794294203	-1.0927098555	-0.335321
C	 0.0353003909	-2.0651554322	-0.6882759247	 0.254865
C	 0.0385134485	-3.1990718326	-1.6631764888	-0.520531
C	 0.0930550903	-2.1241228118	 0.721326633	 0.093566
O	 0.165627401	-3.2175759374	 1.5397043818	-0.453413
C	 0.0626214998	-0.817386234	 1.1672293161	 0.300245
C	 0.0972552275	-0.2679503541	 2.5523770452	-0.514461
H	 0.8252743674	 1.8451965202	 0.3867602441	 0.132871
H	-0.1174909955	 1.6399354397	-1.1108469982	 0.159239
H	-0.9514162654	 1.7801473941	 0.4571588599	 0.132867
H	 0.9484127445	-3.807769248	-1.5842202864	 0.121434
H	-0.8178523166	-3.8700176691	-1.5177840995	 0.121522
H	-0.0136200636	-2.8063731529	-2.6808268751	 0.147406
H	 0.1722008576	-4.0081876527	 0.9924143179	 0.296905
H	 0.9661907601	 0.3796419435	 2.7222766495	 0.129668
H	-0.7986210802	 0.3184914541	 2.790583868	 0.129622
H	 0.1534699198	-1.0953033512	 3.2631870219	 0.151704
