18
gdb 73766	2.18829	1.92185	1.10915	4.6429	80.09	-0.2432	-0.0407	0.2025	1103.5454	0.147055	-401.977147	-401.968431	-401.967487	-402.010788	31.932	
C	 0.1446059926	 1.5181044342	 0.1145850945	-0.503506
C	 0.0544228506	 0.0320291948	 0.0022563581	 0.198847
C	-0.0594519284	-0.7385214179	-1.0976106179	 0.105687
C	-0.067812529	-0.3775202435	-2.5468258136	-0.495712
C	-0.0814278626	-2.1679680618	-0.6808126061	 0.319741
O	-0.0567062442	-3.1399722724	-1.3912783324	-0.325534
N	-0.1081476164	-2.2262665593	 0.7679715532	-0.13203
C	 1.1757557656	-1.8236969989	 1.3755596949	-0.242916
C	 0.057435244	-0.843722546	 1.2129047365	-0.125381
H	 1.0616747437	 1.8153870941	 0.6376354862	 0.14036
H	 0.1301512338	 2.0076191337	-0.8612295016	 0.136355
H	-0.6921975384	 1.9129405547	 0.7041858455	 0.141335
H	 0.166523435	 0.676002553	-2.7165456058	 0.120033
H	 0.6555965022	-0.992795885	-3.0917298193	 0.148062
H	-1.0468570262	-0.5870132816	-2.9927762212	 0.143938
H	 1.3791076667	-2.2594608455	 2.3498447396	 0.132378
H	 2.035899317	-1.7223122041	 0.7182568213	 0.131074
H	-0.5122017759	-0.5387132284	 2.0873783279	 0.107268
