17
gdb 2951	5.60694	1.88302	1.55582	2.7781	59.91	-0.2453	0.0789	0.3242	811.1367	0.150016	-346.859078	-346.852049	-346.851105	-346.890737	25.722	
O	 0.0239380568	 1.3654816977	 0.1623641263	-0.424628
C	 0.0054096872	-0.0399504014	 0.0330367274	-0.06038
C	-1.4156943683	-0.56007083	-0.1637093632	 0.125536
C	-1.5375893215	-2.096832825	-0.1675384921	-0.257526
C	-2.7490920848	-2.3597405847	 0.7443043138	-0.211702
C	-2.6592751853	-1.1851442409	 1.719692345	-0.071205
O	-2.2238568276	-0.0820272683	 0.9305748552	-0.284371
H	-0.6620608728	 1.570847114	 0.8099857131	 0.288388
H	 0.626023075	-0.2963587061	-0.8333936309	 0.103683
H	 0.4464357462	-0.533367722	 0.9169542245	 0.077412
H	-1.8301205714	-0.1137407255	-1.0764528911	 0.083184
H	-1.6631814083	-2.4991848074	-1.1747616284	 0.110544
H	-0.6348494024	-2.5492145927	 0.2596741387	 0.105005
H	-3.6811786345	-2.3004769628	 0.1733493683	 0.111457
H	-2.7131872306	-3.3328281136	 1.2402628753	 0.104133
H	-3.6144060655	-0.9139004527	 2.178810193	 0.109636
H	-1.9402068122	-1.3994089788	 2.5264200951	 0.090835
