17
gdb 66639	3.38394	1.83196	1.67472	1.7706	68.97	-0.2447	0.069	0.3137	851.4536	0.13854	-421.794545	-421.788426	-421.787482	-421.824598	26.591	
O	-0.1179060617	 1.3962151732	 0.1175550327	-0.467849
C	 0.0282160654	 0.028728789	 0.0435571855	 0.397136
C	-1.0493929997	-1.0080086674	 0.0666043417	-0.137225
C	-0.1848348063	-0.8476355829	-1.1854570507	-0.169059
C	 0.8636351366	-1.9960892209	-1.1246019483	 0.048088
C	 1.9917758511	-1.3905779352	-0.2591007949	-0.219845
C	 1.0197155344	-0.879468708	 0.8133556206	-0.16621
C	-0.1229261741	-2.0035641303	 0.7868964832	 0.068431
O	 0.2937853502	-2.9401800041	-0.1982681897	-0.253215
H	 0.5852017767	 1.8091009277	-0.3958417687	 0.286547
H	-2.1286137071	-0.9309015408	 0.0787314325	 0.095792
H	-0.6132538796	-0.4565470577	-2.0978315179	 0.092553
H	 1.122506848	-2.4916559585	-2.0580972955	 0.075312
H	 2.6890826788	-2.1582790036	 0.0841920305	 0.105048
H	 2.5375268435	-0.5802495678	-0.7528072115	 0.08658
H	 1.3938041608	-0.5457591436	 1.7782237867	 0.07564
H	-0.430413697	-2.4996262992	 1.7038872338	 0.082277
