18
gdb 29361	3.20553	1.21746	0.89207	3.0561	85.9	-0.22	-0.0384	0.1816	1282.8876	0.147414	-402.021737	-402.012536	-402.011592	-402.055949	33.033	
C	 0.0246894983	 1.5261453763	-0.0080311943	-0.503174
C	 0.0144263797	 0.0275861474	 0.0134472648	 0.200682
C	-0.0144347432	-0.8126564756	-1.0908312365	-0.149445
N	-0.0150395869	-2.0975094439	-0.6619232943	-0.297551
C	 0.0133557857	-2.1263322264	 0.7149484995	 0.142954
C	 0.0185563024	-3.3998506548	 1.3914755029	 0.074794
O	-0.0008391618	-4.4723010184	 0.8088855446	-0.328698
C	 0.0321864445	-0.8045845813	 1.16457012	 0.12261
C	 0.0647765405	-0.3300623013	 2.5851135976	-0.513142
H	 0.9183645109	 1.9348184809	 0.4788896716	 0.127912
H	 0.006099376	 1.9065904016	-1.0331843334	 0.123004
H	-0.8420410961	 1.9474092976	 0.5154876668	 0.12791
H	-0.0345651872	-0.5694581774	-2.1424978111	 0.129007
H	-0.0314799774	-2.9407315019	-1.2122926023	 0.276433
H	 0.041809164	-3.3498534025	 2.4992463978	 0.070415
H	 0.9532307148	 0.2824866841	 2.7800305877	 0.132915
H	-0.8060428209	 0.2951202289	 2.8161601998	 0.132917
H	 0.0734077468	-1.1594128234	 3.2958601889	 0.130456
