21
gdb 91824	3.32848	1.29396	1.0902	1.1782	85.11	-0.2308	0.0146	0.2453	1205.0016	0.18213	-387.088008	-387.07929	-387.078345	-387.120897	34.363	
C	 0.1958978062	 1.5567211107	-0.0932798074	-0.395301
C	-0.0241409879	 0.0511207262	 0.0025818653	 0.089501
O	 0.5653001381	-0.5148824236	-1.1708221447	-0.273416
C	 0.6448563688	-1.9102741833	-1.1997060883	 0.063075
C	 2.013870308	-2.5180596087	-1.0218131061	-0.341637
C	 0.9592126863	-2.6481301229	 0.0725428569	 0.26782
C	 0.3416641366	-4.0144558834	 0.3068273243	-0.461415
C	 1.0593358406	-1.7781851893	 1.2751839077	-0.154461
C	 0.5690333824	-0.5410252815	 1.2619683856	-0.072523
H	 1.2653802586	 1.7857834118	-0.0707685902	 0.125696
H	-0.2206945097	 1.9398480596	-1.0282330423	 0.124001
H	-0.2904493888	 2.0681491773	 0.7429848734	 0.112391
H	-1.1109809026	-0.1479455836	-0.0084900666	 0.076658
H	-0.041093368	-2.3715731172	-1.9096252164	 0.082355
H	 2.270358227	-3.4064082564	-1.5903934687	 0.105328
H	 2.8247937067	-1.817235552	-0.8609917636	 0.11929
H	 0.2550459004	-4.5751102817	-0.6292431437	 0.115235
H	 0.9560293624	-4.6091877401	 0.9932114444	 0.117766
H	-0.6594168861	-3.9279817977	 0.7434306764	 0.120325
H	 1.5076174315	-2.1998241461	 2.1722731435	 0.088163
H	 0.5909475095	 0.0890857919	 2.1467714205	 0.09115
