17
gdb 47257	2.25868	1.72854	1.12429	4.2036	74.57	-0.2301	-0.0484	0.1817	1081.7171	0.135974	-421.858623	-421.850385	-421.84944	-421.89207	30.372	
O	 0.0890974282	-0.0132314324	-0.097870694	-0.2861
C	 0.0075397574	 1.1859822237	 0.0199779602	 0.310469
C	-1.3180347637	 1.9231280815	 0.0785765082	-0.298267
C	-1.4989742392	 2.9545695333	-1.0671164551	-0.271623
C	-0.6338437802	 4.1854256731	-0.9324710909	-0.046144
C	 0.6995849653	 4.1880946291	-0.951175789	-0.064521
C	 1.5599617624	 2.9492480239	-1.0973336082	-0.363499
C	 1.3146705782	 2.0088937034	 0.0817698311	 0.326816
O	 2.0773593187	 1.8812731882	 1.0053863849	-0.28644
H	-2.1032980534	 1.1623732431	 0.0406174832	 0.126394
H	-1.3855074725	 2.4458263584	 1.0412596163	 0.132162
H	-1.3068632939	 2.4526639507	-2.0257188686	 0.124246
H	-2.5512024827	 3.2498988134	-1.0855230714	 0.119686
H	-1.1510579099	 5.1316782839	-0.7987449736	 0.101211
H	 1.2327989491	 5.123691571	-0.8140639554	 0.109532
H	 1.3220352793	 2.417621139	-2.0289726415	 0.132322
H	 2.6212594171	 3.2039524866	-1.1047176161	 0.133755
