20
gdb 111991	4.11885	1.10266	0.9746	2.1349	81.49	-0.2254	0.0075	0.2329	1285.0934	0.170412	-403.114314	-403.105422	-403.104477	-403.147834	33.593	
C	-0.1023594119	 1.3916955918	 0.0168249246	-0.23102
O	 0.1653111163	 0.0155403732	-0.108258985	-0.239099
C	 0.7076888275	-0.5726658539	 1.0599562616	 0.12155
C	-0.3006673597	-0.8451909176	 2.173631701	-0.120926
C	-0.2920211841	-2.1220727925	 2.5520734214	-0.098426
C	 0.6767442152	-2.9266101077	 1.7303043743	 0.295722
C	 1.4086724531	-4.1008123349	 2.3230848363	-0.496027
N	 0.2369861838	-2.939086568	 0.3052579676	-0.349829
C	 1.2563626011	-1.9630435817	 0.7612695304	-0.1462
H	 0.7976884763	 1.9588370291	 0.306059988	 0.098749
H	-0.4403365151	 1.7435785775	-0.9611027704	 0.127526
H	-0.8912994542	 1.6047890735	 0.7538786714	 0.10449
H	 1.5241632759	 0.0717079268	 1.4349517877	 0.062885
H	-0.9531828175	-0.0752102758	 2.5681996051	 0.098931
H	-0.9190590633	-2.5642242227	 3.3189199061	 0.096825
H	 0.7149375383	-4.9126563476	 2.5711306446	 0.12645
H	 2.1515523665	-4.4969095481	 1.6230713287	 0.115803
H	 1.9300472747	-3.8174710666	 3.2439160535	 0.127043
H	 0.7305454664	-3.6893140193	-0.1790930167	 0.221183
H	 2.2709159909	-2.0614126053	 0.39074179	 0.084368
