24
gdb 58303	2.88736	0.89127	0.8001	1.3946	86.35	-0.225	0.0691	0.2941	1572.5008	0.215384	-405.516891	-405.506076	-405.505132	-405.553189	39.822	
C	 0.1494852275	 1.4889164294	-0.2092257703	-0.418287
C	 0.0147097888	-0.0184599117	 0.0191829389	 0.132118
O	 0.6663926509	-0.4159178055	 1.227325759	-0.438497
C	-1.4367539744	-0.5294027991	 0.0977432899	 0.030606
C	-1.4629235297	-2.0641506631	 0.0802844031	-0.402946
C	-2.1876765319	 0.0521004579	 1.3074196432	-0.14385
N	-3.6068820801	-0.3035173034	 1.2827848542	-0.069194
C	-4.0318055197	-1.4069874788	 2.1394319801	-0.217681
C	-4.3555427014	-0.000439735	 2.4975030342	-0.223142
H	 1.2040310934	 1.7616766489	-0.3360679117	 0.102264
H	-0.3809797631	 1.7980446673	-1.1159223083	 0.118285
H	-0.2419164439	 2.0605808509	 0.6365099133	 0.12778
H	 0.4855033967	-0.5316751761	-0.8366880535	 0.059622
H	 1.5808669562	-0.1205951504	 1.1838460769	 0.280628
H	-1.948922218	-0.1676645647	-0.8031950646	 0.07691
H	-2.4881457445	-2.4402938607	 0.0612814759	 0.123375
H	-0.9491973132	-2.4491935637	-0.8074535206	 0.102146
H	-0.9553787751	-2.4703518262	 0.9602175328	 0.124739
H	-1.6934632248	-0.2678096624	 2.239709287	 0.097667
H	-2.1369454507	 1.1458449536	 1.2768860639	 0.094556
H	-4.793674894	-2.0628799655	 1.7269622859	 0.112836
H	-3.2742076815	-1.9094869811	 2.7385417525	 0.11226
H	-3.8127883226	 0.4339793449	 3.3361081571	 0.10588
H	-5.357595155	 0.3936920645	 2.351644101	 0.111925
