15
gdb 49412	4.29959	1.46123	1.2882	0.8961	68.66	-0.2576	-0.0419	0.2158	946.0604	0.113711	-416.762897	-416.756192	-416.755248	-416.794486	25.59	
O	-0.7040311831	 1.0044034629	-0.4038076537	-0.244385
C	 0.2540993474	 1.0465658517	 0.3268555898	 0.129921
C	 1.4216836802	 1.9845680365	 0.169807208	-0.121463
C	 1.4128631323	 2.7464706047	-1.1541788968	-0.026712
C	 0.7493671168	 3.9197130946	-0.5436914286	-0.035477
C	 1.1057912751	 3.3817635555	 0.8759704076	-0.046017
N	 2.4163951589	 3.9540757434	 1.2166666797	-0.189976
C	 2.9286234207	 4.249790043	 0.0894342815	 0.039112
N	 2.1090984591	 4.0912276792	-1.0769258615	-0.169145
H	 0.3251425118	 0.3872081052	 1.2209272661	 0.088508
H	 2.3422365799	 1.5067736636	 0.5195213432	 0.099804
H	 1.3185682836	 2.3209308428	-2.1436332128	 0.125682
H	-0.0605371219	 4.5568527942	-0.8762528867	 0.114431
H	 0.3906459449	 3.3949916445	 1.6944566887	 0.098882
H	 3.9403058942	 4.6193223083	-0.0397207644	 0.136833
