21
gdb 80717	3.3112	1.00298	0.92357	0.947	88.21	-0.2459	0.0578	0.3038	1362.5099	0.181758	-349.891512	-349.882379	-349.881435	-349.925473	35.26	
C	 0.3393796651	 1.682099636	-0.6355265803	-0.422841
C	 0.4080428635	 0.1904216847	-0.372866277	 0.018233
C	 1.6391926984	-0.6648625675	-0.4637104404	-0.072495
C	 2.8662629746	 0.0333238193	 0.1438447919	-0.259315
C	 2.1375851582	 0.0662176163	 1.5278168349	 0.04298
C	 2.0421890981	 1.3667077514	 2.3452696731	-0.379464
C	 3.3420089474	 1.8090040596	 2.8378982724	 0.302699
C	 4.4293821785	 2.1456103642	 3.2254208997	-0.454159
C	 0.8822515882	-0.5243444428	 0.8709629539	-0.119788
H	 1.2720066481	 2.1995539693	-0.4016965892	 0.123597
H	 0.1283088308	 1.866450205	-1.6949366467	 0.114373
H	-0.4604324622	 2.1533298747	-0.0533752724	 0.116014
H	-0.4569266823	-0.3320290789	-0.7808011671	 0.085324
H	 1.6902527048	-1.5273123675	-1.1178255697	 0.082743
H	 3.7615161083	-0.5903753344	 0.1577779123	 0.106176
H	 3.1354884314	 1.0008119795	-0.2914096348	 0.100992
H	 2.5893409161	-0.6944766685	 2.171421769	 0.087711
H	 1.5871628229	 2.1654282351	 1.7508359476	 0.129863
H	 1.3657121901	 1.2003950291	 3.1945964535	 0.126318
H	 5.3828080642	 2.4550174468	 3.5749708185	 0.192293
H	 0.239969856	-1.2504563715	 1.3579962506	 0.078746
