19
gdb 91553	3.11364	1.32026	1.10512	1.8908	75.31	-0.242	0.0766	0.3186	1152.3103	0.159007	-422.973633	-422.965409	-422.964464	-423.006711	31.929	
O	 0.5617919412	 1.1787766165	-0.1848563896	-0.433796
C	 0.2843474584	-0.1702360358	 0.0608679636	 0.082938
C	 0.1355691275	-0.6492896565	 1.5588599663	-0.291494
C	-1.3068446165	-1.0282585043	 1.2321617969	-0.0436
O	-1.945413336	 0.1701946713	 0.7404379536	-0.305964
C	-1.1761261272	-0.6250990812	-0.1832033033	 0.395238
C	-1.8194592098	-1.0697508917	-1.438982652	-0.147633
C	-3.3197373621	-1.200817007	-1.5239729857	-0.269251
C	-2.6249887962	-0.0863026913	-2.2603650135	-0.257696
H	-0.1708352137	 1.6726149482	 0.2058807581	 0.286676
H	 1.0199619159	-0.7593752526	-0.4927456876	 0.092874
H	 0.7741565882	-1.5040932682	 1.7952838679	 0.108081
H	 0.2602043222	 0.126737112	 2.3181847235	 0.108522
H	-1.9538559288	-1.7696468803	 1.6859174812	 0.107145
H	-1.2294415696	-1.7922911621	-1.9956272693	 0.089185
H	-3.7233113997	-2.0287096445	-2.0956601376	 0.110984
H	-3.8860630482	-0.9333753298	-0.6398469921	 0.12815
H	-2.7345322371	 0.9171367476	-1.8656935178	 0.125126
H	-2.5462577584	-0.1430807502	-3.3399681325	 0.114515
