16
gdb 7329	4.25995	1.18425	0.98553	0.3577	63.65	-0.2393	-0.0281	0.2112	1181.5678	0.130549	-417.136716	-417.127817	-417.126873	-417.171225	31.149	
C	-0.2974086133	 1.3659164766	-0.2472311677	-0.373852
C	 0.367978009	 0.062376594	 0.1985377235	-0.14594
N	 1.0838478397	-0.5951754933	-0.8795328439	-0.304519
C	 0.7459762096	-1.7943611631	-1.3839455545	 0.328708
O	-0.1733466457	-2.5125221884	-1.0166785126	-0.400528
C	 1.6862144576	-2.206008501	-2.5399755643	 0.336048
N	 1.3516562453	-3.4102022802	-3.0378166933	-0.5162
O	 2.6013060781	-1.4929331316	-2.9160147242	-0.379857
H	 0.4414601757	 2.07932314	-0.6274323893	 0.119851
H	-1.0283027352	 1.1784661254	-1.0389033075	 0.133048
H	-0.8134438159	 1.8351144118	 0.596026339	 0.122917
H	 1.0613040102	 0.256485615	 1.0263229999	 0.114136
H	-0.3773671167	-0.6541495197	 0.5518833672	 0.147483
H	 1.8753007757	-0.154300246	-1.3308449633	 0.266855
H	 0.5639696533	-3.8857264632	-2.6250895792	 0.282999
H	 1.8722527126	-3.8119007663	-3.7982344998	 0.268851
