11
gdb 123287	10.09263	0.69054	0.64632	1.027	84.4	-0.2596	-0.0714	0.1882	1572.7024	0.06546	-414.346822	-414.339452	-414.338507	-414.379382	26.226	
C	 0.0777987194	-3.7422223215	-0.0186901018	-0.578954
C	 0.0497255387	-2.5350103123	-0.0118464409	 0.25332
C	 0.0178663692	-1.178092947	-0.0041315503	 0.094559
C	-0.0079363521	 0.0322458939	 0.0027327211	 0.332945
C	-0.0314344761	 1.4436253493	 0.0106450666	 0.061483
N	-1.1581183504	 2.1279237513	 0.029691515	-0.170197
O	-0.7275041103	 3.450814155	 0.0311441165	-0.14114
C	 0.6080973505	 3.4163793765	 0.0130497651	 0.060077
N	 1.1127735489	 2.2276149272	-0.0001924119	-0.288269
H	 0.1027402254	-4.8041838574	-0.0247157182	 0.203157
H	 1.1253499969	 4.3646523049	 0.0113907788	 0.173018
