20
gdb 66356	2.25954	1.45097	1.35435	3.7189	78.62	-0.2125	0.0327	0.2452	1101.287	0.173395	-399.33791	-399.329244	-399.3283	-399.370714	33.744	
C	-0.0015840103	 1.5361881939	 0.0350258244	-0.429002
C	-0.0184527759	 0.0011246894	 0.0100055633	 0.080416
C	 0.6703284028	-0.550301938	-1.2769720513	-0.180281
N	 0.855102539	-1.9932847163	-1.2806231333	-0.285727
C	 1.5128772746	-2.4689768781	-0.0601184977	-0.161104
C	 0.8344708781	-1.9638599248	 1.221939338	-0.177279
N	 0.6295378361	-0.5079807373	 1.2323402172	-0.302608
C	-1.4216999067	-0.4684390178	 0.0096244578	 0.301419
N	-2.5109691733	-0.8515003145	-0.0438613668	-0.35121
H	 1.0337515021	 1.8910417756	-0.0079826835	 0.119637
H	-0.5394536131	 1.946879923	-0.8228746768	 0.13831
H	-0.4601913822	 1.9068838208	 0.954148492	 0.147308
H	 0.107459266	-0.2553459512	-2.1686238749	 0.116245
H	 1.6586266959	-0.0727501534	-1.3346036756	 0.100489
H	-0.0444911987	-2.4528576232	-1.390636383	 0.231308
H	 1.5408543553	-3.5637602941	-0.0796881678	 0.10618
H	 2.5552319729	-2.1189177253	-0.0837708722	 0.097549
H	-0.1482371169	-2.4401604465	 1.3307819743	 0.126036
H	 1.4200140368	-2.2286680888	 2.1089392053	 0.104584
H	 1.5259661374	-0.0368537235	 1.3223003008	 0.217729
