17
gdb 35568	2.91068	1.52293	1.27849	1.2113	72.74	-0.249	0.0432	0.2922	1017.164	0.136347	-421.776785	-421.769122	-421.768177	-421.809268	29.476	
C	-0.2937920936	-1.2331608087	-0.5384630743	-0.458253
C	-0.1764615589	-0.0663613344	-0.2712160923	 0.346884
C	-0.0215118865	 1.3288288466	 0.0754349674	-0.240152
C	-0.0143999793	 1.7075156254	 1.5988931113	-0.274909
C	 1.368604476	 2.3970158926	 1.4309799229	 0.081881
O	 2.4722340337	 1.7475765674	 2.0304750043	-0.250686
C	 2.7976545088	 0.6650443905	 1.1841576606	 0.003383
O	 2.5109983262	 1.0751892617	-0.1402518016	-0.240592
C	 1.4218355604	 1.9600489883	-0.0639745201	 0.083857
H	-0.3999495525	-2.2600460084	-0.7870051663	 0.197118
H	-0.7440367927	 1.9337180889	-0.481877348	 0.105386
H	-0.8272279221	 2.3695822639	 1.9031355352	 0.112321
H	 0.0141965973	 0.8488827737	 2.2714721959	 0.122232
H	 1.4202833418	 3.4576620502	 1.6789578208	 0.091891
H	 3.8667392078	 0.4541122891	 1.2690058092	 0.123739
H	 2.2066685295	-0.2287165173	 1.4408649974	 0.101226
H	 1.526243204	 2.7071805606	-0.8517408027	 0.094674
