18
gdb 72681	2.28628	1.48855	1.46184	4.0221	76.49	-0.2586	0.0167	0.2753	1035.9445	0.147944	-401.945083	-401.936791	-401.935847	-401.977974	31.901	
O	 0.1928256985	 1.2980839665	-0.5322785259	-0.458001
C	 0.0505839166	 0.0035991318	-0.066839696	 0.384849
C	 0.6097722508	-1.0380574503	-1.0653564068	-0.263277
C	-0.7764384049	-1.7403792564	-1.1623534698	-0.278624
C	-1.3336183084	-0.8266085463	-0.0393845534	 0.122336
C	-0.9477807275	-1.2840013053	 1.4058162536	-0.285545
C	 0.2694893621	-0.3142532737	 1.425495595	-0.287732
C	-2.6154206477	-0.1987033282	-0.210279905	 0.189993
N	-3.6260863535	 0.3511683882	-0.3426093246	-0.349182
H	-0.242498361	 1.904101093	 0.0782994621	 0.289484
H	 0.9352262302	-0.569044856	-1.9945970103	 0.12868
H	 1.4260542336	-1.6488576259	-0.6724339657	 0.106974
H	-1.2684501218	-1.5640427835	-2.120145175	 0.129482
H	-0.8083299645	-2.8099952483	-0.9426919211	 0.110955
H	-1.7087429078	-1.0735237482	 2.1574667342	 0.129963
H	-0.6923516678	-2.3445840386	 1.457489381	 0.11486
H	 1.244720716	-0.7232351209	 1.7028017609	 0.110125
H	 0.0735607571	 0.5640000222	 2.0498157766	 0.10466
