18
gdb 7146	6.59489	0.8008	0.72696	0.6032	65.69	-0.2672	0.018	0.2852	1544.5773	0.15124	-422.112319	-422.102499	-422.101555	-422.148488	32.89	
C	-0.2159147954	 1.511751109	 0.0130796643	-0.391055
C	-0.0305074407	 0.0068256992	 0.0022648231	-0.042372
O	-1.3409432647	-0.5946766125	 0.0114322028	-0.246157
C	-1.3695666633	-1.9409240243	 0.0044314993	 0.44407
O	-0.3800511689	-2.6324741531	-0.0086483187	-0.360794
C	-2.7921915088	-2.452292837	 0.0150883066	-0.311109
C	-2.8599704991	-3.9727847845	 0.0084564907	-0.067922
O	-4.2349349472	-4.3259474862	 0.0191877883	-0.423677
H	 0.7601700927	 2.0059145982	 0.006467602	 0.123136
H	-0.7759130794	 1.8430271125	-0.8659632836	 0.130127
H	-0.7585353369	 1.8324219986	 0.9068310797	 0.130124
H	 0.5095421519	-0.3341928343	-0.8867184368	 0.121598
H	 0.5267534585	-0.3447854753	 0.8763627916	 0.121631
H	-3.307810561	-2.0530787343	 0.8955504686	 0.139697
H	-3.3237696415	-2.0448390029	-0.8520225913	 0.139719
H	-2.3452391698	-4.361245106	-0.8817934068	 0.102538
H	-2.3292857217	-4.3696907354	 0.8855225717	 0.102506
H	-4.2957749846	-5.2853919918	 0.0156013986	 0.28794
