16
gdb 9493	3.07247	1.65602	1.52653	3.1731	65.15	-0.2649	0.0175	0.2824	912.4814	0.129948	-379.906551	-379.898217	-379.897273	-379.939352	30.076	
C	-0.4258283373	 1.4349714126	 0.0416814874	-0.402648
C	 0.1995801736	 0.0636907765	-0.0530530878	 0.133326
O	 1.4822988324	 0.0530203961	-0.7204296864	-0.286879
C	 2.039155194	-0.8464349279	 0.2499721892	-0.109768
C	 0.8380446669	-0.5986736846	 1.2205020132	 0.069182
N	 1.0312583967	 0.3232037623	 2.3284400967	-0.550365
C	 0.1678311397	-1.8034118548	 1.7047603236	 0.27112
N	-0.3454061579	-2.7728867107	 2.0681944925	-0.332448
H	 0.2280205748	 2.1511059021	 0.54397639	 0.119875
H	-0.630561512	 1.8064032294	-0.967083796	 0.136176
H	-1.3704595658	 1.3825441807	 0.5905059713	 0.139363
H	-0.4901903786	-0.6363510526	-0.5437643414	 0.094777
H	 2.1156483957	-1.874597532	-0.1256841682	 0.117842
H	 3.0141242901	-0.5131965835	 0.6228616756	 0.109192
H	 1.5129812215	-0.1404311583	 3.0928646445	 0.246568
H	 1.6158672862	 1.0981248345	 2.030274616	 0.244688
