18
gdb 8183	2.72185	2.56241	1.7482	1.2472	66.94	-0.2396	0.063	0.3026	815.9125	0.154067	-384.920762	-384.913473	-384.912529	-384.951691	29.174	
C	-0.060617989	 1.5271150817	-0.0001644653	-0.408928
C	 0.0638855343	 0.0148073467	 0.0493866838	 0.095016
O	 0.9196035203	-0.4965242341	-0.998511513	-0.293975
C	 1.8764736344	-1.2739344222	-0.2516462671	 0.106947
C	 2.2722132134	-0.3392339251	 0.9175942008	-0.273788
C	 0.7848115721	-0.5930666728	 1.2803278794	 0.359562
O	 0.3227086107	-0.2649545454	 2.549198262	-0.481173
C	 1.0038388608	-2.0567017049	 0.7566871346	-0.302886
H	 0.9092292527	 2.0184174116	 0.1096349558	 0.123223
H	-0.4929488445	 1.8386303965	-0.9554661098	 0.124732
H	-0.7161869179	 1.8753864523	 0.8048486439	 0.113954
H	-0.937229213	-0.4319593797	-0.0589368203	 0.061794
H	 2.5902590205	-1.7362901434	-0.9290099408	 0.084481
H	 2.9500589416	-0.8065874971	 1.6334078487	 0.107119
H	 2.5953204296	 0.6734510606	 0.6730719468	 0.103095
H	-0.6071366272	-0.5115699334	 2.6102177244	 0.282515
H	 0.1464757861	-2.6039434301	 0.3560454673	 0.094131
H	 1.5783623252	-2.6667213712	 1.4553156788	 0.104182
