21
gdb 68591	2.07846	1.89512	1.55855	1.7551	77.63	-0.2409	0.0697	0.3106	1016.1639	0.181589	-424.223317	-424.21446	-424.213516	-424.255777	35.414	
C	 0.0403708451	 1.520667144	 0.0830240436	-0.508316
C	-0.0153883164	 0.0213196082	 0.0051293912	 0.382633
C	 0.8085740391	-0.7100144722	-1.0813187579	-0.251364
C	 0.5897662713	-2.1716723752	-0.5821275024	-0.222822
C	-0.2856202961	-1.830437654	 0.634462333	 0.014118
O	 0.409854046	-0.6885350218	 1.2192004271	-0.340553
C	-1.3287425177	-0.8174141969	 0.068069618	 0.386141
C	-2.359696588	-0.3450558322	 1.0799219846	-0.484861
O	-1.9085677827	-1.0755085872	-1.1919163435	-0.484225
H	 1.0738204376	 1.8572586845	 0.214807789	 0.12837
H	-0.3427385114	 1.9576189938	-0.8447297193	 0.128493
H	-0.5527829266	 1.9026889245	 0.918253249	 0.123678
H	 0.4208288897	-0.5371436585	-2.0868109352	 0.111544
H	 1.8548906979	-0.3982666404	-1.0396759744	 0.096532
H	 0.0679849944	-2.7965940155	-1.3095191858	 0.103236
H	 1.5161868115	-2.6639025579	-0.2795636272	 0.099084
H	-0.537399234	-2.6100877647	 1.3551491654	 0.06589
H	-1.8920224493	-0.1327528646	 2.0423036321	 0.14567
H	-2.8674388723	 0.556853266	 0.7225574402	 0.121697
H	-3.1207914914	-1.1204155377	 1.2374499552	 0.104674
H	-2.7877096569	-1.4417312423	-1.0553142227	 0.28038
