14
gdb 130044	3.42216	1.60159	1.09936	3.6729	69.81	-0.2362	-0.0327	0.2035	1009.6227	0.104065	-432.867438	-432.860762	-432.859818	-432.89834	26.318	
N	-0.0355194968	 1.3725471889	 0.132327469	-0.572838
C	 0.0016034998	 0.0046736035	 0.0335486131	 0.258925
N	-1.0580278158	-0.7356951473	 0.0167868301	-0.318348
C	-0.6716940241	-2.1564275571	-0.0080223663	-0.277572
C	 0.8353659342	-2.1327608267	-0.0266948348	 0.352846
N	 1.828506161	-2.9729937521	-0.0532079679	-0.245449
O	 2.9720807192	-2.1423612605	-0.0380384231	-0.170554
C	 2.5970426965	-0.8475247379	-0.001162288	-0.111205
C	 1.2434994671	-0.7738476273	 0.0059384887	 0.126699
H	 0.7302199273	 1.8800189567	-0.2817377687	 0.255542
H	-0.9449151034	 1.7754537554	-0.0429939426	 0.26223
H	-1.068503349	-2.6785114779	 0.8706646653	 0.142045
H	-1.0965999943	-2.6499422924	-0.8896627609	 0.140748
H	 3.4066699085	-0.1347820953	 0.018999056	 0.156931
