18
gdb 94164	2.41469	1.41662	1.20813	1.7763	67.84	-0.2364	0.0291	0.2654	1102.7833	0.145963	-476.240856	-476.231268	-476.230324	-476.275524	35.071	
C	-0.2215237194	 1.6685728839	 0.303062778	-0.44004
C	-0.0472436002	 0.1784151646	 0.0706231434	 0.290027
O	 0.9765692399	-0.1150517301	-0.9242374932	-0.338129
C	 1.8122670823	-0.7819731915	 0.0503207674	-0.091609
C	 0.765657125	-0.6063389804	 1.1573520494	 0.028025
O	 1.2598688958	 0.1119922842	 2.2548857074	-0.419491
C	-1.387468541	-0.4862315593	-0.2486363028	 0.333151
N	-1.42208271	-1.128490772	-1.4398042028	-0.522868
O	-2.3108374359	-0.4340017321	 0.5454604412	-0.389215
H	 0.6908053386	 2.1000598407	 0.7185317117	 0.130447
H	-0.453995974	 2.1638674677	-0.644659625	 0.126112
H	-1.0504788761	 1.8367245983	 0.9949899893	 0.14076
H	 2.0502262548	-1.8094231164	-0.2439932944	 0.108318
H	 2.7362271687	-0.2270138267	 0.2455751606	 0.119837
H	 0.2688631432	-1.5307236464	 1.4712860112	 0.093213
H	 0.5600433412	 0.1765415562	 2.9133514687	 0.296242
H	-0.6045708719	-1.1160252844	-2.0271852208	 0.273643
H	-2.2699878809	-1.5829423864	-1.7340964092	 0.261576
