17
gdb 76259	2.50136	1.54634	1.05688	2.4784	72.21	-0.2535	-0.056	0.1976	1124.9364	0.135219	-458.998516	-458.98987	-458.988926	-459.031842	32.35	
C	-0.1546355678	 1.5115922748	 0.0254556103	-0.494889
C	-0.0498039103	 0.0284200491	-0.0401696645	 0.328151
C	-0.0262907254	-0.7533847461	-1.1353108587	-0.290877
C	 0.2086848685	-2.1485434384	-0.7492530239	 0.350151
O	 0.5934765408	-3.0885916797	-1.4121286809	-0.352523
C	-0.0166224944	-2.2390499054	 0.7662444136	 0.001183
O	 0.9100045427	-3.1083706236	 1.3748289515	-0.444197
C	 0.1396546505	-0.7765817493	 1.2449095317	 0.008134
O	 1.4326566753	-0.5354935046	 1.7637535734	-0.440867
H	 0.7251807949	 1.9162134401	 0.5394569578	 0.165491
H	-0.2325161566	 1.9681624227	-0.9635816663	 0.133197
H	-1.0269471352	 1.8083061649	 0.6215463436	 0.141113
H	-0.0703366309	-0.4196740204	-2.1647883499	 0.119855
H	-1.0468851974	-2.5823289137	 0.9430126939	 0.104394
H	 1.2385340678	-3.6776591598	 0.6614111717	 0.301853
H	-0.6164648116	-0.5020133804	 1.9951233966	 0.073615
H	 1.8118619792	-1.4161888002	 1.91125408	 0.296216
