19
gdb 38984	2.93033	1.71855	1.2493	1.6847	74.9	-0.2402	0.0844	0.3246	1020.7081	0.161132	-422.997207	-422.990071	-422.989127	-423.028511	29.161	
C	-0.0357710787	 1.5319452907	-0.0891890004	-0.270255
C	 1.4920486288	 1.5506090869	 0.0626879766	-0.069959
O	 2.0356161877	 0.7744149867	-1.0268442559	-0.309194
C	 1.5653519561	 0.0811943951	 0.1249277881	 0.453766
C	 2.373972235	-0.9342767856	 0.8617692539	-0.344446
C	 1.5536142327	-1.4058945201	 2.0810222578	-0.207307
C	 0.0910053798	-1.6589926394	 1.6959647444	-0.069608
O	-0.541303314	-0.4775511417	 1.2162346959	-0.260304
C	 0.0306515592	-0.0247241633	 0.0045807271	 0.04441
H	-0.5703308381	 1.938139254	 0.771474019	 0.119905
H	-0.4190663823	 1.961062124	-1.0171534488	 0.109832
H	 2.137946748	 2.3117713915	 0.4855902532	 0.102585
H	 2.5609701542	-1.7863555926	 0.1935703857	 0.111511
H	 3.3504659387	-0.535409873	 1.1545319745	 0.1114
H	 1.9871808267	-2.3184803705	 2.5041398939	 0.099839
H	 1.5743630831	-0.6386142168	 2.8632985653	 0.110659
H	 0.0291979909	-2.4609386643	 0.9404757914	 0.088225
H	-0.4900604723	-1.9756588054	 2.5665224557	 0.110342
H	-0.3447353154	-0.5988520761	-0.8543454473	 0.068599
