23
gdb 86381	2.42945	1.42574	1.07912	1.129	84.9	-0.2499	0.0743	0.3242	1235.8974	0.205705	-388.301024	-388.291691	-388.290746	-388.33426	37.075	
C	-0.0285369138	 1.5706194822	 0.0323029341	-0.396849
C	 0.0440526297	 0.0426222608	 0.0254519919	 0.025362
C	 0.8027968349	-0.5458836693	-1.1915740546	-0.251494
C	 1.3158570688	-1.9314383386	-0.7422870409	-0.019952
C	 2.5306776584	-2.4463158573	-1.5156989211	-0.415854
C	 1.5318190161	-1.770049705	 0.7615494674	 0.407183
O	 1.5486026431	-2.9310657907	 1.5402907751	-0.481959
C	 2.2734715561	-0.547013427	 1.245785374	-0.363956
C	 0.7519647439	-0.5764922507	 1.2271439675	-0.087908
H	 0.9740326659	 2.0097000821	 0.0848525821	 0.112198
H	-0.5130994287	 1.9487880523	-0.8746458958	 0.108759
H	-0.597856687	 1.9385678691	 0.8924225186	 0.110959
H	-0.9815550462	-0.3521088323	 0.0159069867	 0.072795
H	 0.1730248599	-0.6036817356	-2.0842526673	 0.095567
H	 1.6504194623	 0.1006236489	-1.4517424586	 0.094444
H	 0.501716464	-2.6620618516	-0.845947107	 0.078099
H	 3.3794427874	-1.7593918602	-1.4212118017	 0.112448
H	 2.8484053594	-3.427585792	-1.1447279593	 0.104519
H	 2.3074958617	-2.5579535393	-2.5818402097	 0.113865
H	 2.4245878505	-3.3247650076	 1.4676480504	 0.280767
H	 2.7316541742	-0.636191431	 2.2248025048	 0.109027
H	 2.8178803723	 0.085247279	 0.5512771157	 0.105518
H	 0.2451819571	-0.6004987162	 2.1857764279	 0.086461
