17
gdb 28112	4.99452	1.2501	1.01239	2.9545	84.48	-0.1832	-0.0038	0.1795	1158.4997	0.138237	-380.923416	-380.915842	-380.914898	-380.955491	29.206	
C	-0.020034295	 1.4688013797	 0.0223632174	-0.503692
C	-0.000840773	-0.0217340741	-0.0288283358	 0.304881
N	-0.0371942594	-0.7567991129	-1.1294898266	-0.380041
C	 0.0022237117	-2.0479749282	-0.6820241541	 0.26619
C	 0.0617974716	-2.1098263061	 0.6860900697	 0.309931
N	 0.0594588361	-0.8037316924	 1.1109431529	-0.427388
C	 0.1024448235	-3.4859680886	 1.1432163872	-0.204229
C	 0.0672724241	-4.2717087538	 0.0419419673	-0.086176
C	-0.0002287269	-3.4415013344	-1.2352217534	-0.410702
H	 0.8842617407	 1.8774143069	 0.4897034054	 0.128363
H	-0.0792164005	 1.848073492	-0.9984721248	 0.157837
H	-0.8817298242	 1.8513087072	 0.582846041	 0.127955
H	 0.0944092917	-0.4610413524	 2.055888851	 0.259663
H	 0.1515715525	-3.8255945903	 2.1694671518	 0.096537
H	 0.083713766	-5.3533316893	 0.0388395568	 0.097305
H	-0.9009966259	-3.676748893	-1.8171327301	 0.131793
H	 0.854079617	-3.6499674703	-1.8925221257	 0.131775
