21
gdb 67681	2.13415	2.07077	1.6127	0.4877	87.99	-0.2196	0.0005	0.2201	988.5026	0.184831	-349.928051	-349.920514	-349.919569	-349.959415	31.259	
C	 0.060949826	 1.6435382833	-0.204948942	-0.505047
C	-0.0393923955	 0.1483384964	-0.0626818614	 0.303797
C	 0.5546387654	-0.9052517402	-0.9475305989	-0.089714
C	 1.5928210227	-1.7140161788	-0.1204240762	-0.216585
C	 1.621069734	-1.0218358999	 1.299325415	-0.270162
C	 0.179186509	-0.5817094081	 1.2594321005	 0.078304
C	-0.8414962876	-1.405140129	 1.5386225147	-0.116409
C	-1.7867406219	-1.519331851	 0.3557745504	-0.268723
C	-0.9952025137	-0.7883932235	-0.7314712866	-0.100053
H	 1.0328164892	 2.0170462136	 0.1390587954	 0.114477
H	-0.0540605384	 1.9412351857	-1.2524225351	 0.114248
H	-0.7144510556	 2.1562307135	 0.3758529432	 0.118589
H	 0.8431021654	-0.6550517916	-1.9656432554	 0.076439
H	 1.3245037414	-2.7690802344	-0.0049362381	 0.102784
H	 2.568413168	-1.6741913602	-0.6182622203	 0.095025
H	 1.8590789446	-1.7185148536	 2.1061410022	 0.098573
H	 2.3441603504	-0.1995460635	 1.3155229208	 0.098494
H	-0.8156310095	-2.158607865	 2.3204189366	 0.08672
H	-1.964319643	-2.5816452402	 0.1391850096	 0.104922
H	-2.779242684	-1.062595686	 0.4849727569	 0.102481
H	-1.5269714368	-0.4702999472	-1.6256325412	 0.07184
