16
gdb 44018	4.56869	1.57866	1.3786	3.6306	72.47	-0.2401	0.0013	0.2414	913.0401	0.126755	-400.678581	-400.672577	-400.671632	-400.708657	25.577	
O	-0.0775175728	-0.0073091541	 0.0620927282	-0.344429
C	 0.0186943218	 1.1837194198	-0.0562862208	 0.403977
N	-1.0665488278	 2.101208991	-0.2550077557	-0.461892
C	-0.357134082	 3.3526451777	-0.0838895058	 0.349518
C	-0.3573317801	 4.8884764935	-0.0757508562	-0.336752
C	 1.1563264032	 4.4562795208	 0.0533439439	-0.10707
C	 0.8002866372	 3.24606173	 0.9622422117	-0.057535
C	 1.2787797943	 2.0906676142	 0.0257143777	-0.222582
C	 0.9424022033	 3.2673695382	-0.9255031882	-0.025969
H	-1.8947547216	 1.8968614969	 0.2902819449	 0.244279
H	-0.6421396266	 5.3918716223	-1.0043518513	 0.111292
H	-0.8046793289	 5.3836956215	 0.7912452794	 0.105866
H	 2.0222036499	 5.1113311893	 0.1259422039	 0.087508
H	 0.6840890779	 3.2369481432	 2.0467854932	 0.082932
H	 2.2354058266	 1.5759713541	 0.0935520989	 0.084429
H	 0.9693228957	 3.2878299816	-2.0153740539	 0.086428
