21
gdb 94680	2.41205	1.60556	1.18477	2.2416	77.5	-0.2305	0.0623	0.2929	1121.168	0.181893	-424.227896	-424.218823	-424.217879	-424.260741	36.128	
C	-0.0507122334	 1.5628201701	 0.0077115423	-0.413041
C	 0.0415720553	 0.0367622721	 0.015007241	-0.011937
C	 0.7727788041	-0.5671787488	-1.2118302748	-0.243381
C	 1.3111205296	-1.9450910741	-0.7545534743	-0.268976
C	 1.554856068	-1.7711207718	 0.7325614509	 0.411876
O	 1.6028302524	-2.9196859657	 1.515200251	-0.490835
C	 2.3086299313	-0.5299630146	 1.1887021187	-0.428113
C	 0.7901477035	-0.5654962365	 1.1971187127	 0.310704
O	 0.1245448727	-0.6888839678	 2.4239179538	-0.485676
H	 0.9466632943	 2.0170454738	 0.0006240588	 0.112844
H	-0.5892428731	 1.9247214665	-0.8743265479	 0.114569
H	-0.5825362547	 1.9303477152	 0.892257888	 0.10866
H	-0.9748666776	-0.3778287583	 0.0619962605	 0.079633
H	 0.1156171216	-0.6458644538	-2.0817761774	 0.101356
H	 1.6022240042	 0.086840231	-1.5040068692	 0.101508
H	 0.5526556623	-2.7260900461	-0.8803276897	 0.106477
H	 2.1999587602	-2.2556992405	-1.312797626	 0.100808
H	 1.0485929653	-2.7423086292	 2.2878432918	 0.286799
H	 2.7834862341	-0.6299956392	 2.1591885309	 0.108847
H	 2.8402683218	 0.1004694504	 0.4828024534	 0.108387
H	 0.3400627581	 0.0705697575	 2.9743643455	 0.28949
