18
gdb 3076	10.19351	1.06355	1.02267	0.8903	65.71	-0.2335	0.0906	0.3241	1167.7837	0.159106	-326.92799	-326.919817	-326.918873	-326.961037	28.225	
C	 0.6101853699	 1.5552572353	-0.2530069386	-0.225156
O	 0.6533437994	 0.1770985941	 0.0235440766	-0.231018
C	-0.2243947912	-0.5723089431	-0.7861215393	-0.046868
C	-0.0956311303	-2.038068893	-0.3900832944	-0.157876
N	-1.0009631032	-2.8525834815	-1.1892849038	-0.066223
C	-0.457343328	-3.3985825783	-2.4302843388	-0.219836
C	-0.7002277188	-4.2769048852	-1.253355943	-0.217931
H	 0.9007817705	 1.7735212365	-1.2933646294	 0.101858
H	-0.3943732075	 1.9754800014	-0.0850650467	 0.103771
H	 1.315695606	 2.0480861539	 0.4206085783	 0.125315
H	-1.2673994059	-0.2422662325	-0.6536345847	 0.096599
H	 0.0241449677	-0.4434798303	-1.8538192089	 0.08429
H	 0.9599059528	-2.3473716199	-0.4906538009	 0.087507
H	-0.3681314584	-2.1470820797	 0.6654500392	 0.112342
H	-1.1337368035	-3.4114736466	-3.2800428031	 0.116468
H	 0.5799932111	-3.1739477322	-2.6756412017	 0.109937
H	 0.1749040651	-4.6385210688	-0.7154169129	 0.110094
H	-1.5578106757	-4.9432292	-1.2268783279	 0.116728
