17
gdb 70856	3.60652	1.58644	1.32986	2.3975	69.85	-0.2127	0.0673	0.28	955.0819	0.135978	-421.764488	-421.757386	-421.756442	-421.795281	30.046	
O	-0.1626368331	 1.3241561908	-0.0889436054	-0.478368
C	 0.0263663125	-0.0508052122	-0.065068503	 0.38921
C	 1.0933025288	-0.7352318888	-0.8998172733	-0.367741
C	 0.7608071958	-2.1716094107	-0.5394581561	 0.389207
O	 1.4213829027	-3.2498543615	-1.1120299855	-0.478378
C	-0.7232930813	-2.3350435056	-0.292585965	-0.12051
C	-1.2175596804	-0.9077957751	 0.0269147534	-0.120477
C	-0.259767221	-0.8416086302	 1.2107499301	-0.169119
C	 0.233923384	-2.2679450726	 0.8916641398	-0.169073
H	 0.5611449007	 1.7355793884	 0.3962064812	 0.283692
H	 0.9722423123	-0.5378307621	-1.9696793923	 0.112497
H	 2.1098904884	-0.4508517597	-0.5973435199	 0.080906
H	 2.304639015	-3.2986815861	-0.7299576242	 0.283698
H	-1.2946777249	-3.1718342189	-0.6694695275	 0.095105
H	-2.217103968	-0.5082508914	-0.0731616374	 0.09511
H	-0.3994990822	-0.3811265099	 2.1797456482	 0.087116
H	 0.5235283608	-3.0480225745	 1.5831323469	 0.087124
