23
gdb 91811	2.32991	1.61096	1.20289	1.4443	84.37	-0.2216	0.0763	0.2979	1161.9302	0.205263	-388.290854	-388.281471	-388.280526	-388.324317	36.779	
C	 0.7309279824	 1.4298266752	-0.3860128981	-0.394977
C	 0.0299988646	 0.1245739922	-0.0089652788	 0.108027
O	 0.1027162714	-0.8020970995	-1.1086213277	-0.276001
C	 0.8888091687	-1.9053409182	-0.756307134	 0.068961
C	 2.3243787929	-1.6682677886	-0.3487395303	-0.379022
C	 1.2374473507	-1.8856077376	 0.6977467247	 0.320828
C	 1.2694875652	-3.1228649424	 1.5629107165	-0.483954
C	 0.5610028961	-0.6308287325	 1.2558860738	-0.075216
C	 1.4222854701	 0.1936985766	 2.2171150167	-0.40419
H	 1.8085531441	 1.3055519343	-0.5205129129	 0.118416
H	 0.31648249	 1.7959101745	-1.3294259026	 0.124567
H	 0.56620738	 2.1968288841	 0.3774574037	 0.111508
H	-1.0346733791	 0.3531288927	 0.1283307894	 0.079685
H	 0.6044742449	-2.8032606683	-1.2950349348	 0.093619
H	 3.0273829863	-2.4829292289	-0.4942938518	 0.106593
H	 2.7505248087	-0.6827762672	-0.4977790773	 0.111719
H	 1.6717287331	-3.979963054	 1.0135481101	 0.11502
H	 1.9015609333	-2.9786150094	 2.4474191505	 0.117872
H	 0.2647304766	-3.3902804079	 1.9113876841	 0.115662
H	-0.3152391755	-0.9820983315	 1.8162607778	 0.073585
H	 2.3324922241	 0.5613978977	 1.735461423	 0.118473
H	 0.8748819034	 1.0571816199	 2.6085201342	 0.113958
H	 1.7243405681	-0.4168143408	 3.074225004	 0.114865
