19
gdb 62964	2.12974	1.87055	1.42874	2.2639	75.45	-0.2266	0.0626	0.2892	1009.9409	0.158697	-419.125763	-419.117296	-419.116351	-419.158129	33.582	
C	-0.030804136	 1.5622854423	-0.1148698824	-0.462712
C	 0.0351179651	 0.0498692265	 0.0070147856	 0.314238
O	-1.252470107	-0.5452997293	-0.0314460821	-0.479496
C	 1.0583623381	-0.689098045	-0.8993291371	-0.110543
N	 2.3975165739	-0.1745411767	-0.5256663384	-0.350895
C	 1.7667926495	-1.2552782804	 0.2801508153	-0.161728
C	 0.7989833211	-0.5684133778	 1.2185057464	 0.390876
C	 0.9274964765	-0.0527892068	 2.5943803938	-0.309685
N	 0.1324720749	-1.2653188388	 2.3021702334	-0.37034
H	 0.9754986895	 1.9845678515	-0.096359799	 0.151452
H	-0.5076661422	 1.8542222577	-1.0601371679	 0.100772
H	-0.6159580161	 1.9919205763	 0.704933457	 0.117272
H	-1.7595389785	-0.1108442176	-0.7252858202	 0.279254
H	 0.8598537918	-1.126713098	-1.8702663002	 0.091309
H	 3.0729984196	-0.6196006845	-1.1468791818	 0.231606
H	 2.2427687454	-2.2173013982	 0.4201083057	 0.101088
H	 1.8357643425	-0.2263231669	 3.1650796323	 0.117199
H	 0.406000477	 0.8692882667	 2.8411468861	 0.108665
H	-0.8625472652	-1.052989651	 2.2675842935	 0.241668
