16
gdb 19420	4.17126	2.02191	1.63506	2.11	70.33	-0.2309	0.0068	0.2377	806.3221	0.133011	-342.730051	-342.723788	-342.722844	-342.760167	25.457	
C	-0.005774058	 1.5137924033	-0.0401773733	-0.277683
N	 1.2457691972	 0.7468259939	 0.055573487	-0.370545
C	-0.047473936	 0.0288493224	 0.0061934311	 0.370385
C	-0.4619593769	-0.7792610082	 1.1904857187	-0.134525
C	-0.9922776739	-1.950061887	 0.8228644211	-0.066645
C	-1.0438598251	-2.0602013854	-0.666178765	-0.091806
N	-1.9182107453	-1.0186817516	-1.2893835921	-0.334452
C	-0.4571408761	-0.7984999763	-1.191049567	-0.166123
H	-0.2557236848	 2.091054668	 0.8459065443	 0.120108
H	-0.2677060024	 1.9924407131	-0.9804143799	 0.113931
H	 1.6975316528	 0.6987483212	-0.8558031069	 0.227624
H	-0.3477461794	-0.4133255782	 2.2035192688	 0.104908
H	-1.3763558125	-2.7110764108	 1.4905430665	 0.10209
H	-0.9377158138	-3.0155711792	-1.1684406154	 0.091521
H	-2.1270836273	-1.3060245322	-2.2454536231	 0.226205
H	 0.1365174015	-0.7588363129	-2.0999101848	 0.085007
