19
gdb 106431	2.62507	1.3279	1.05289	5.4326	80.77	-0.2532	0.0257	0.279	1200.0603	0.160015	-382.022889	-382.014399	-382.013455	-382.056266	32.102	
C	 0.012457427	 1.5374927005	-0.0054117516	-0.391063
C	-0.0626556695	 0.0065677603	-0.0235754065	-0.313836
C	-1.4689887567	-0.5186680072	 0.0552708621	 0.350551
C	-2.5598557342	-0.3279106896	 1.1564844722	-0.285801
C	-3.2014033059	-1.129821488	-0.0031160877	-0.024911
N	-2.5186951276	-0.2390824815	-1.0215369578	-0.342695
C	-1.9251576005	-2.0177131166	-0.0313903229	-0.190677
C	-1.6135134329	-2.76159576	-1.2394264246	 0.286056
N	-1.3375685273	-3.4021767044	-2.1612869404	-0.334317
H	 1.0513717097	 1.873373398	-0.0627136814	 0.125054
H	-0.5224603637	 1.9683622104	-0.8577104266	 0.129309
H	-0.4215557422	 1.9493402844	 0.9117007121	 0.119194
H	 0.3933048166	-0.3816308233	-0.9418081156	 0.132256
H	 0.5094414443	-0.4091637593	 0.8152976512	 0.108423
H	-2.4180843369	-0.822206186	 2.1235967328	 0.099678
H	-2.9310064156	 0.692811001	 1.2772844669	 0.103273
H	-4.2313125062	-1.4631733635	-0.1256896501	 0.102873
H	-2.8664531736	 0.7182755091	-0.9098086041	 0.210862
H	-1.742327555	-2.6221802244	 0.8587784122	 0.11577
