18
gdb 40391	4.32566	1.18284	1.10939	2.486	75.51	-0.2092	0.0669	0.2762	1126.7625	0.14789	-401.83013	-401.822698	-401.821753	-401.86227	29.523	
C	 0.4810932557	 1.4412986231	 0.0434602067	-0.177371
O	 1.0696830251	 0.2133011429	-0.3931777013	-0.234065
C	-0.286403518	 0.1845443335	 0.0577408247	-0.053591
C	-0.5587454824	-0.572486998	 1.3041947191	 0.367339
C	 0.4877284176	-0.9329663605	 2.3214937839	-0.350249
C	-0.2587697228	-2.0379650435	 1.61661416	-0.119488
C	-1.7146804621	-2.2046601933	 2.1399381355	-0.050363
N	-1.9390495706	-1.2485124331	 3.2562852694	-0.338979
C	-2.0109463244	-0.7917933832	 1.8445364028	-0.138417
H	 0.8687138125	 1.833035632	 0.9822044248	 0.117222
H	 0.3068655886	 2.1773180666	-0.7402873093	 0.113215
H	-1.0117928321	 0.0336835155	-0.7454484401	 0.086904
H	 1.5004793042	-0.7931187448	 1.9577724355	 0.12572
H	 0.3251508832	-0.7417946262	 3.3742098505	 0.13852
H	 0.231676009	-2.7624935191	 0.9798989282	 0.098362
H	-2.328286597	-3.0886283689	 2.0270716652	 0.095298
H	-2.8997107266	-1.3821662524	 3.5714863709	 0.229961
H	-2.90251777	-0.3229539705	 1.4477096935	 0.089984
