18
gdb 79323	3.53958	1.25389	1.18303	3.7088	78.93	-0.2235	-0.0198	0.2036	1111.0569	0.147391	-401.887124	-401.879249	-401.878304	-401.919667	30.049	
C	-0.0562420086	 1.5298982212	-0.0019089893	-0.331905
N	 0.1051300823	 0.0819106735	 0.0280874061	-0.075991
C	 0.7808396861	-0.5757711488	-1.0831784282	-0.075203
C	 2.2843333083	-0.6061310555	-0.8320083807	-0.139622
C	 2.5107775087	 0.0602869445	 0.5274796166	-0.251696
C	 1.1244871536	-0.5335187562	 0.9292975102	-0.093147
C	 1.3479699921	-1.63753504	-0.1600836542	 0.288785
C	 1.3141160442	-3.0892837986	-0.2244689924	 0.003725
O	 1.1124573731	-3.8258677093	 0.7133560857	-0.275365
H	 0.8565785681	 2.0950857793	-0.2452473872	 0.103903
H	-0.816640213	 1.7824729822	-0.748192091	 0.125447
H	-0.4222110282	 1.8650263903	 0.9738567201	 0.126397
H	 0.3345822943	-0.7025970112	-2.062510314	 0.110166
H	 3.0030738811	-0.8099138146	-1.6158681999	 0.103058
H	 3.3125881448	-0.4378828597	 1.0765056646	 0.118618
H	 2.6502696934	 1.1446744281	 0.5719730596	 0.100595
H	 0.8391940368	-0.6836581611	 1.9677705465	 0.098037
H	 1.5050369529	-3.4904105741	-1.2477206124	 0.0642
