15
gdb 131570	7.0019	0.62348	0.59617	2.4642	81.94	-0.2237	-0.0029	0.2208	1789.7829	0.113816	-416.790684	-416.782134	-416.78119	-416.825704	29.872	
O	 0.2717237781	 0.9592653134	 0.892829546	-0.409256
C	-0.0321770276	 0.1463387285	-0.2363878972	-0.231141
C	-1.3870187172	-0.3726843344	-0.125277316	 0.235486
C	-2.507737219	-0.8143457352	-0.0576898595	-0.107172
C	-3.8123284407	-1.346099003	 0.0336061612	 0.12047
C	-5.0078536893	-0.7429791998	-0.3353525269	-0.163769
N	-5.9843831099	-1.6330839528	-0.0612470072	-0.175486
N	-5.5264333758	-2.7887036195	 0.4644984622	-0.206942
C	-4.213921984	-2.6206376716	 0.5246042006	-0.126686
H	 1.1752587026	 1.2734865331	 0.7831130718	 0.288136
H	 0.0570204469	 0.7206574629	-1.1734218083	 0.115339
H	 0.6689316209	-0.7007021121	-0.3163104129	 0.117124
H	-5.2102555296	 0.2281608338	-0.7569055329	 0.14408
H	-6.9742561762	-1.5223436038	-0.2022330048	 0.28028
H	-3.5804859792	-3.4033570793	 0.9136890938	 0.119535
