17
gdb 55241	3.86984	0.97256	0.90259	4.8308	69.45	-0.238	0.0167	0.2547	1291.3177	0.137539	-455.22834	-455.219494	-455.21855	-455.263297	31.833	
N	 0.1112571708	 1.1232955696	 0.6625471959	-0.526484
C	-0.0690320999	 0.2111856897	-0.3331999667	 0.403554
O	 0.7585348016	 0.018595274	-1.2041611138	-0.365588
C	-1.3755454638	-0.5755071114	-0.2688581692	-0.098655
C	-2.037271499	-0.7155933004	-1.6627688776	-0.180536
N	-2.7015898882	-2.0039933709	-1.5717244929	-0.307345
C	-2.2107901585	-2.8409064251	-0.6050915289	 0.401336
O	-2.5390588584	-3.9904403838	-0.4170729988	-0.375697
C	-1.1544399067	-2.0410246907	 0.1661887735	-0.341143
H	 0.9876568762	 1.6178510791	 0.7042374382	 0.264925
H	-0.5514604835	 1.2485426619	 1.4068610405	 0.261884
H	-2.0832796707	-0.098403218	 0.4167788469	 0.077453
H	-2.7522148078	 0.0896041724	-1.8584311082	 0.112621
H	-1.263200662	-0.6965914344	-2.4389881966	 0.139271
H	-3.288503345	-2.3725838077	-2.3032403594	 0.253028
H	-0.1685113309	-2.3948046193	-0.1550868484	 0.152644
H	-1.2428224842	-2.2102215149	 1.2401763655	 0.128733
