21
gdb 72724	2.57963	1.9492	1.55561	1.6775	82.26	-0.2347	0.0594	0.2941	965.4455	0.183787	-386.985405	-386.977971	-386.977027	-387.016506	31.689	
C	-0.0457802535	 1.5468376335	-0.0443896823	-0.450784
C	-0.004955552	 0.0255949828	 0.0428738992	 0.469374
O	-1.2676431445	-0.3618317663	 0.758947403	-0.372418
C	-0.4411350769	-0.4436559665	 1.9866818979	-0.225553
C	 0.7722621578	-0.7413862736	 1.0678441708	 0.214748
C	 2.0551846037	-0.3247856367	 0.2658839902	-0.338427
C	 1.043702719	-0.5843140931	-0.9802184005	-0.119768
C	 0.855745412	-2.0931828435	-0.9285802394	-0.218476
C	 0.6540288161	-2.2312838803	 0.60465056	-0.217322
H	 0.8244648079	 1.9774762366	-0.545788125	 0.113503
H	-0.9293016678	 1.804536021	-0.6390196802	 0.132175
H	-0.1620741011	 2.0293580858	 0.9304552212	 0.116925
H	-0.4388008821	 0.5136904256	 2.5168687415	 0.106381
H	-0.7795889282	-1.2436243107	 2.6499392673	 0.110338
H	 2.3598996778	 0.7146362323	 0.3686981042	 0.114288
H	 2.9267345552	-0.98420002	 0.3131454872	 0.100088
H	 1.2269691677	-0.1115806612	-1.9480616313	 0.063845
H	-0.0166196734	-2.4218345223	-1.4997424709	 0.105589
H	 1.729094686	-2.6342369583	-1.303905918	 0.093972
H	 1.4352677196	-2.8301694798	 1.0833644994	 0.089786
H	-0.3135298832	-2.6659447452	 0.8536595556	 0.111737
