23
gdb 91127	2.73676	1.50592	1.33012	0.131	88.13	-0.2429	0.0756	0.3185	1108.6835	0.207846	-351.105552	-351.09756	-351.096616	-351.137688	32.879	
C	-0.1326208952	 1.6041407895	-0.093700315	-0.426216
C	 0.0260606621	 0.0917893993	 0.0032111619	 0.057513
C	 0.8604345014	-0.7205892284	-1.0396078147	-0.278838
C	 1.3636821292	-1.6531150548	 0.1098130072	-0.022387
C	 2.8074192058	-1.4771796548	 0.6756082931	-0.008622
C	 3.803562421	-0.5529644369	-0.0628616425	-0.236156
C	 3.187245792	 0.6777966837	 0.6721585308	-0.245259
C	 2.2873082707	-0.2717893924	 1.5312630775	-0.027278
C	 0.8080844045	-0.6165370827	 1.1427271079	-0.046354
H	 0.8222402933	 2.132305874	-0.1412417541	 0.12054
H	-0.7037149625	 1.8752816064	-0.9894106809	 0.111968
H	-0.67952138	 1.9923471548	 0.7733531946	 0.112784
H	-0.9813018317	-0.3438246778	 0.02209626	 0.072031
H	 0.2819827159	-1.2107194771	-1.8269238387	 0.093056
H	 1.6498409767	-0.1404324946	-1.524101462	 0.099269
H	 0.985579513	-2.6756118015	 0.0602576629	 0.059242
H	 3.2099290466	-2.3820237969	 1.1360656255	 0.056836
H	 4.8398134526	-0.7409779912	 0.231011795	 0.095753
H	 3.7622966805	-0.5511829647	-1.1558553834	 0.096686
H	 3.9056116275	 1.2440590275	 1.2702464281	 0.098054
H	 2.6678201917	 1.3868192853	 0.0280910526	 0.102841
H	 2.4681195921	-0.2070638799	 2.6057610432	 0.059878
H	 0.2210805628	-0.9265998068	 2.011247671	 0.054661
