15
gdb 131668	2.73961	1.33622	0.90323	5.0557	71.15	-0.2559	-0.0491	0.2068	1200.3701	0.112982	-453.966519	-453.958271	-453.957327	-453.999975	29.083	
O	-0.001270465	 1.4132488209	 0.0069620108	-0.408923
C	 0.0094850497	 0.0001934611	 0.0018984503	-0.194793
C	-1.4192086844	-0.4531739092	 0.0124574908	 0.40912
C	-2.5660794499	 0.2876195129	 0.023802356	-0.303347
C	-3.6191137605	-0.6714753078	 0.029783642	 0.021009
N	-3.1772368081	-1.9100344514	 0.0229129507	-0.229725
N	-1.814899472	-1.7816637205	 0.0121877862	-0.10817
C	-0.9804060684	-2.905461127	 0.0022800416	 0.181913
O	-1.3535059893	-4.0425752305	 0.0022029335	-0.257467
H	 0.9098821353	 1.7201371755	-0.0002218039	 0.2982
H	 0.5243910477	-0.3951981133	-0.8895367146	 0.115943
H	 0.5395304826	-0.4014418216	 0.8815811024	 0.115919
H	-2.631150232	 1.3620850702	 0.0272677193	 0.13468
H	-4.6843989775	-0.4874793973	 0.0389540757	 0.128711
H	 0.0836512521	-2.6070695421	-0.0056121908	 0.096929
