18
gdb 40305	6.50053	0.59276	0.57098	2.1649	84.25	-0.2409	0.0293	0.2702	1920.7248	0.147908	-401.860569	-401.851638	-401.850693	-401.897236	31.166	
C	 0.6243249989	 1.5255441454	-0.0003908752	-0.22123
N	 1.183988353	 0.2521862491	-0.4585869136	-0.294611
C	-0.2158157613	 0.2895330625	 0.0345238676	-0.22455
C	-0.5093489643	-0.4010806602	 1.2595535441	 0.124099
C	-0.7791575681	-0.9739402217	 2.2855440513	 0.10774
C	-1.1103998833	-1.6644538727	 3.5121114016	-0.217825
C	-2.2469755007	-1.102494038	 4.414136922	-0.073144
O	-2.8934120291	-2.3870282818	 4.4676419141	-0.268581
C	-2.0271280697	-2.9199305344	 3.4492359218	-0.072711
H	 1.045597019	 1.8990361085	 0.9275377726	 0.130562
H	 0.364452745	 2.2889978023	-0.7292469322	 0.117069
H	 1.1747412799	 0.2123345835	-1.474856849	 0.236425
H	-1.0008361758	 0.2340544074	-0.717143404	 0.109576
H	-0.2054823305	-1.8637213981	 4.0932228864	 0.113649
H	-1.9521265151	-0.7438597858	 5.4060521083	 0.109273
H	-2.8669570463	-0.3452542278	 3.9181876451	 0.106943
H	-2.5410634438	-3.0403929293	 2.4874838623	 0.107241
H	-1.5737413078	-3.871757799	 3.7453927567	 0.110075
