19
gdb 35713	2.37545	1.41964	1.05591	5.3635	79.1	-0.2506	0.0244	0.275	1178.9568	0.160954	-382.042428	-382.034035	-382.033091	-382.075928	31.485	
N	-0.4756525514	-0.9805278702	-0.7035425479	-0.333523
C	-0.2800655395	 0.0957757347	-0.3283329237	 0.28056
C	-0.0301107621	 1.4475189354	 0.1401545336	-0.142522
C	 0.24543681	 1.6784463109	 1.6576662521	-0.228618
C	 1.3412017184	 2.703360304	 1.2673569371	-0.2586
C	 1.3565244123	 2.1291224621	-0.180242899	-0.039937
C	 2.4797572211	 1.1787325774	-0.5356498886	 0.017735
C	 3.8934888324	 1.5289338772	-0.2550842631	-0.255798
N	 3.2474501515	 0.4146146973	 0.4596419919	-0.310592
H	-0.847163173	 2.0882492697	-0.2038621639	 0.124848
H	-0.5970003342	 2.0335185135	 2.2530747245	 0.118911
H	 0.6560419445	 0.7824102427	 2.1271500813	 0.131568
H	 0.974771818	 3.7321473833	 1.2876192695	 0.115195
H	 2.2762074335	 2.6694508656	 1.8320893678	 0.108205
H	 1.2822300329	 2.8769103093	-0.9752757246	 0.093804
H	 2.2749292806	 0.5971430412	-1.4328787382	 0.11468
H	 4.6764800215	 1.239283096	-0.9497754479	 0.124857
H	 4.0906070079	 2.4509847778	 0.2874737074	 0.110718
H	 3.0091646157	 0.704702332	 1.4046511417	 0.228509
