17
gdb 126863	4.48352	0.98218	0.84688	4.4449	85.59	-0.2144	-0.0534	0.1609	1366.3659	0.136492	-414.159442	-414.150883	-414.149938	-414.194315	30.938	
C	-0.0154328265	 1.560150368	-0.0263908354	-0.358247
C	-0.0528637892	 0.0290001511	-0.0727311279	-0.136867
N	-1.4309659501	-0.4327540049	-0.1171792495	-0.313316
C	-1.8481132876	-1.1825151783	-1.062929385	 0.397834
C	-3.229597377	-1.6338674518	-1.1108046847	-0.210632
C	-3.6160657607	-2.4292058723	-2.1202122335	 0.057243
N	-2.6902868021	-2.7846195793	-3.0728437634	-0.246059
N	-1.3968745438	-2.3721305606	-3.0608641053	-0.03819
N	-0.9913450654	-1.6274187372	-2.13234011	-0.254628
H	 1.0121109557	 1.915954775	 0.100911544	 0.104909
H	-0.4113720249	 1.985958374	-0.9539487967	 0.113364
H	-0.6217124133	 1.9361941045	 0.802841076	 0.119407
H	 0.5552599487	-0.3402363651	-0.905648205	 0.114842
H	 0.3884526343	-0.3600707833	 0.8555125594	 0.098686
H	-3.9111159055	-1.3195824076	-0.332115126	 0.127223
H	-4.6156767378	-2.8246658451	-2.2538288125	 0.143425
H	-2.9109475048	-3.3752057971	-3.8567048044	 0.281006
