21
gdb 97873	6.63281	0.4229	0.40248	0.1317	97.84	-0.2371	0.0448	0.2818	2777.3687	0.179815	-349.911794	-349.900324	-349.89938	-349.951134	38.833	
C	 0.0221316558	 1.6469708375	 0.0113205927	-0.363712
C	 0.03003127	 0.1073705752	 0.0022301974	-0.311881
C	-1.3098709858	-0.4712858595	 0.0112919172	 0.084971
C	-2.4232820234	-0.9280427148	 0.0191096381	 0.063295
C	-3.7784535926	-1.486274423	 0.029502539	-0.49589
C	-3.8133636935	-2.9515230731	 0.0222441126	 0.063295
C	-3.8401913963	-4.1546921072	 0.0161943151	 0.084965
C	-3.8996634624	-5.6130050326	 0.008873121	-0.311879
C	-5.3395914482	-6.1579572036	 0.0205475064	-0.363712
H	 1.0453446635	 2.0344172362	 0.0040471313	 0.113176
H	-0.5009129092	 2.0378483244	-0.8657266117	 0.126952
H	-0.4844239175	 2.0274971583	 0.902484931	 0.12695
H	 0.5751846355	-0.250252861	-0.8807751057	 0.128002
H	 0.59150269	-0.2605202536	 0.8706731205	 0.128011
H	-4.3195124301	-1.1132326941	 0.9108046171	 0.152191
H	-4.3365948685	-1.1041696682	-0.8371403462	 0.152177
H	-3.3714507184	-5.9945990585	-0.8743967993	 0.128009
H	-3.3536617158	-6.0041026591	 0.8770376647	 0.128002
H	-5.3341742215	-7.252063256	 0.0145478414	 0.113177
H	-5.8753149606	-5.8205975151	 0.9120421692	 0.126951
H	-5.893283101	-5.8109897922	-0.856157782	 0.126951
