20
gdb 40603	3.77282	1.14068	1.08495	1.8954	83.24	-0.2042	0.0729	0.2772	1208.8493	0.171877	-365.896609	-365.888933	-365.887989	-365.929145	31.078	
C	-0.2779044986	 1.3669575167	-0.2264126082	-0.26802
C	 1.1544846816	 1.4286747614	 0.237894382	-0.268065
C	 0.5008259454	 0.0890269862	-0.0131107045	-0.00984
C	 0.1530880423	-0.7637625856	 1.17236736	 0.002691
C	-0.6361410325	-2.0491177675	 1.2810753539	-0.103807
C	-0.2376499308	-3.1916978858	 0.3048320848	-0.05463
N	 0.8201504426	-2.7225130489	-0.6279422052	-0.3324
C	 1.1631476941	-3.1321445711	 0.7590045918	-0.054647
C	 0.824990536	-1.9870772133	 1.7547473993	-0.103803
H	-1.0528707788	 1.6174140778	 0.4916058576	 0.101818
H	-0.5087119139	 1.6621937169	-1.2441822583	 0.105641
H	 1.9137129364	 1.7666509515	-0.4589901693	 0.105644
H	 1.3396872919	 1.7206012589	 1.2671479457	 0.101817
H	 0.8103491861	-0.443877513	-0.8973661404	 0.118306
H	-0.1452125359	-0.1264508204	 2.0093276513	 0.080018
H	-1.5262628723	-2.1228854905	 1.8943051573	 0.08425
H	-0.8616721743	-4.0412445519	 0.0597977574	 0.092015
H	 1.0487776164	-3.5149207116	-1.2289113264	 0.226747
H	 1.8754663554	-3.924796899	 0.9473617419	 0.092006
H	 1.1894412487	-2.0069028607	 2.7748290096	 0.084257
