22
gdb 116616	2.21115	1.10082	0.79687	1.9764	86.39	-0.2463	0.0306	0.2769	1535.3227	0.193215	-404.355903	-404.345669	-404.344725	-404.392496	36.274	
C	 0.6662912619	 0.0756195278	 0.5770712716	-0.360159
C	-0.4425805629	 0.5937727624	-0.3393124901	-0.14844
N	-1.6682584407	-0.1759326289	-0.135932585	-0.333008
C	-2.2839650621	-0.6304927087	-1.1254197167	 0.466295
O	-2.0079657482	-0.5261834158	-2.4825220391	-0.268637
C	-3.1510879063	-1.3695605507	-2.8156395838	-0.106026
C	-3.5240471358	-1.4852595987	-1.3197253424	-0.144623
C	-3.5236806281	-2.8705753414	-0.6734723162	-0.19423
C	-3.7011250002	-2.8091619992	 0.8468794807	-0.383613
H	 1.5688377052	 0.6866640886	 0.4750482356	 0.10729
H	 0.3436964349	 0.1007064024	 1.6219462476	 0.122722
H	 0.9241826851	-0.9587753326	 0.3289317183	 0.115306
H	-0.6608514258	 1.6392540344	-0.0851462911	 0.106596
H	-0.1093989227	 0.5795289247	-1.3852946176	 0.109286
H	-3.8548382341	-0.8387759332	-3.4615476823	 0.117477
H	-2.8243937145	-2.298033087	-3.2933252717	 0.116327
H	-4.4415934273	-0.9452275626	-1.0647776099	 0.101964
H	-4.325672037	-3.468995944	-1.1243577433	 0.098111
H	-2.5818262852	-3.3776408817	-0.9181888429	 0.10227
H	-2.9184381898	-2.1945890305	 1.2993198003	 0.152622
H	-4.6684016613	-2.3680464521	 1.1121403921	 0.112227
H	-3.6585690153	-3.8100962131	 1.2866540758	 0.110244
