16
gdb 57241	2.78191	1.24488	1.05858	6.1207	76.	-0.2832	-0.0786	0.2046	1163.2256	0.120289	-400.741511	-400.731558	-400.730613	-400.776525	35.289	
C	-0.0238317735	 1.5363395333	-0.018636831	-0.419935
C	-0.0049104974	-0.0125353549	-0.0073482684	-0.058723
C	 0.7523017952	-0.5390032262	 1.2371245864	-0.41999
C	-1.3859409712	-0.5141901289	 0.0171345836	 0.289559
N	-2.4795315956	-0.8771889375	 0.0932637878	-0.33144
C	 0.6873629214	-0.5297134005	-1.2909735452	 0.257075
O	 0.1346239132	-1.2276697174	-2.1055668075	-0.273345
C	 2.0702427036	-0.1156379071	-1.4594083451	 0.258829
C	 3.2166258829	 0.2139156298	-1.6218163058	-0.393568
H	 0.9987522795	 1.9195281138	-0.051430001	 0.139939
H	-0.5720607988	 1.9169368013	-0.8838607749	 0.149285
H	-0.5089894493	 1.9062063644	 0.8878868566	 0.145167
H	 0.2683508143	-0.1729963785	 2.1458552365	 0.145166
H	 0.7551684731	-1.6314068881	 1.2631598322	 0.149253
H	 1.7850553588	-0.1830065391	 1.2210432502	 0.139934
H	 4.2298095641	 0.4963717255	-1.7797785744	 0.222794
