15
gdb 3243	8.96094	1.34653	1.31533	2.2964	57.57	-0.2668	0.0872	0.354	916.9499	0.124314	-345.603479	-345.596551	-345.595606	-345.635135	24.388	
C	-0.168671954	 1.6293262691	 0.0109221711	-0.263978
C	-0.1508539188	 0.1489654132	 0.3154425712	 0.104779
C	-1.2554351496	-0.7413791462	-0.0564835282	-0.179683
O	-0.0441061503	-0.7253692158	-0.8138915878	-0.238082
C	 1.2156719045	 2.1452565877	-0.3083351637	 0.104776
C	 1.6574087306	 3.4915065028	 0.0706411357	-0.179682
O	 2.0864123702	 2.3471836662	 0.8107226184	-0.238082
H	-0.8337552081	 1.8122654491	-0.8415516678	 0.108765
H	-0.5651613726	 2.1765500886	 0.8745520032	 0.108765
H	 0.4790397197	-0.1397711546	 1.1576863192	 0.108202
H	-1.4384530273	-1.6493898365	 0.5162300202	 0.116421
H	-2.1284332519	-0.3296007559	-0.5622519681	 0.111588
H	 1.6984851529	 1.66868798	-1.1623160334	 0.108201
H	 2.4316654364	 3.9928759528	-0.5082674737	 0.116421
H	 0.9679695485	 4.1543937694	 0.5928890537	 0.111588
