16
gdb 44836	2.41951	1.86353	1.39622	4.1442	68.31	-0.2328	-0.0554	0.1774	944.8631	0.126282	-437.922235	-437.915351	-437.914407	-437.953701	27.358	
O	 0.0225285075	-0.0059567105	-0.0247904164	-0.305605
C	-0.0137477616	 1.1926002853	 0.0019933486	 0.415276
C	-1.2572396855	 2.1057523423	 0.0249794858	-0.344286
C	-0.5987213021	 3.5061765141	 0.0676196909	-0.024014
C	 0.0375956235	 3.7538432001	 1.4484332184	-0.316496
C	 1.2220826134	 2.7734966953	 1.4076710217	 0.448284
O	 1.992753852	 2.5044139845	 2.2845888418	-0.306858
C	 1.179370823	 2.180303974	-0.0169137067	-0.235802
N	 0.6357278673	 3.3473795289	-0.7519226821	-0.309335
H	-1.8384095696	 1.9660305206	-0.8929235741	 0.133782
H	-1.907168027	 1.8533233457	 0.8679131155	 0.136402
H	-1.2307219138	 4.3182385606	-0.290052709	 0.090512
H	 0.4154441321	 4.7766044007	 1.5339162261	 0.14586
H	-0.612040177	 3.5507474952	 2.3029859465	 0.133228
H	 2.1206119509	 1.769950357	-0.3725477375	 0.109933
H	 0.4002845868	 3.0837208261	-1.7070714996	 0.22912
