20
gdb 109608	1.92417	1.34454	1.00434	3.9174	81.13	-0.2693	0.0153	0.2846	1300.2494	0.168763	-403.154443	-403.144114	-403.14317	-403.189786	37.267	
C	-0.2529147027	 1.5118765591	-0.2039139748	-0.379848
C	 0.1769810546	 0.0683023282	 0.0825553542	-0.200987
C	 0.8241532616	-0.5846500105	-1.1231072038	-0.055421
C	 0.9128168168	-2.07893069	-1.3307144795	-0.103704
C	 0.3502146569	-3.088895418	-0.3547964072	-0.425489
C	-0.037673072	-1.2394933004	-2.189801529	 0.224294
O	-1.4089713129	-1.2733817843	-1.9197307348	-0.448407
C	 0.2921113384	-1.038810957	-3.5834363172	 0.247651
N	 0.5493318929	-0.9034063986	-4.703633722	-0.347958
H	 0.5967853949	 2.123123982	-0.5269308199	 0.116317
H	-1.007875335	 1.5413402203	-0.9951190043	 0.136256
H	-0.6791844496	 1.9779617577	 0.6894179782	 0.113959
H	 0.8968867737	 0.0503895348	 0.9105586926	 0.101542
H	-0.6899645043	-0.5118415264	 0.4061611698	 0.117006
H	 1.6641053016	-0.0228026262	-1.5238839814	 0.108077
H	 1.8064164675	-2.4112019732	-1.8517576418	 0.108373
H	-0.6404751287	-2.8020899464	 0.0021181939	 0.13535
H	 0.2661869614	-4.0734124567	-0.8268378643	 0.124304
H	 1.0074387606	-3.1946640116	 0.5143302111	 0.130168
H	-1.7822449756	-2.0613142128	-2.3318366	 0.298515
