17
gdb 19694	4.8244	1.69087	1.56875	1.5743	67.24	-0.2458	0.0685	0.3144	867.0925	0.143318	-363.789888	-363.782999	-363.782055	-363.821203	26.085	
C	-0.2065640389	 1.3107721533	-0.0591949696	-0.242877
O	 0.1514248666	-0.0434953068	 0.1204250238	-0.251291
C	 0.6980619203	-0.6312692989	-1.0273741496	 0.177799
C	 1.1848327436	-2.0528414827	-0.9037766574	-0.105968
C	 0.0416235853	-2.9711475848	-1.1805306167	-0.028738
C	-1.2045210415	-2.1436892016	-1.4418781984	-0.233885
C	-0.2226039987	-1.1889655585	-2.1432401924	-0.065147
N	 0.7933401049	-2.3622994107	-2.3325112089	-0.168523
H	 0.6590514142	 1.9215358802	-0.3588501077	 0.108567
H	-0.9936994443	 1.4339237996	-0.8179360544	 0.10918
H	-0.5827751214	 1.6771716065	 0.8985418838	 0.130444
H	 1.47990814	 0.006751109	-1.4653328511	 0.077443
H	 2.1243394969	-2.4004213647	-0.4908414329	 0.09594
H	 0.1114744654	-4.0322628354	-0.9693785643	 0.096725
H	-1.8598305926	-2.6392595203	-2.1620468408	 0.109017
H	-1.7800468308	-1.7607597236	-0.5949460752	 0.110414
H	-0.5117168289	-0.5897948906	-3.0040668581	 0.080901
