20
gdb 13397	5.68958	1.05774	0.94257	0.9959	77.84	-0.2344	0.0295	0.264	1278.9402	0.177497	-349.007053	-348.998595	-348.997651	-349.040576	30.628	
C	-0.0303859283	 1.4138276478	 0.0120648793	-0.225454
O	-0.0258244852	 0.0076507719	 0.0055311827	-0.234672
C	 0.6646057669	-0.547792103	 1.1046756542	-0.062842
C	 0.5897174698	-2.0689248157	 1.0112355657	-0.029375
C	 1.3709921646	-2.7857127263	 2.1452119009	-0.23393
C	 0.5164905141	-4.0208270679	 2.5318099896	-0.25244
C	-0.8478214728	-3.6752102973	 1.9824305009	-0.071387
C	-0.8082382016	-2.6287057262	 1.1604110542	-0.056399
H	 0.9905244205	 1.826530111	-0.0306506638	 0.101524
H	-0.5812092222	 1.7454115859	-0.8717620147	 0.125199
H	-0.5235371772	 1.8184948316	 0.9105234783	 0.102586
H	 1.717966527	-0.2155953331	 1.1033181017	 0.08095
H	 0.2161033962	-0.205973529	 2.0542270667	 0.081744
H	 0.9910671604	-2.3430986212	 0.0244619987	 0.083958
H	 2.3907783455	-3.0477765666	 1.8525644702	 0.097542
H	 1.4470441005	-2.1138783811	 3.0084806811	 0.099509
H	 0.8986338869	-4.9419549724	 2.0692169768	 0.104653
H	 0.5102829058	-4.2041253153	 3.6124383657	 0.100557
H	-1.7347470037	-4.2543013789	 2.2168882587	 0.088185
H	-1.6483230574	-2.2118652041	 0.617706453	 0.100091
