20
gdb 74492	2.81975	1.341	1.00607	2.1745	84.28	-0.2221	0.0144	0.2366	1229.1866	0.171972	-403.131995	-403.123605	-403.122661	-403.164775	32.592	
C	 0.0377531507	 1.510513095	-0.0503990476	-0.476862
C	-0.018180788	 0.0124549939	 0.0309218286	 0.252771
C	-1.1539161268	-0.6895870993	 0.0608919869	-0.215394
C	-1.1634720309	-2.1698343456	 0.0773005648	 0.309645
C	-2.1608576294	-2.8884411701	 0.9209337294	-0.27621
N	-2.2826167542	-2.9070627395	-0.5441844767	-0.361976
C	 0.2030335292	-2.7616628955	-0.217495539	-0.159169
O	 1.2168275227	-2.0599002265	 0.479765347	-0.243386
C	 1.310216016	-0.7087927962	 0.0790022506	-0.156665
H	 0.6067948851	 1.8400185599	-0.9296619053	 0.127489
H	-0.963012728	 1.945456105	-0.1151035278	 0.124422
H	 0.5419750346	 1.9393112552	 0.825251177	 0.127632
H	-2.1184658616	-0.1826078722	 0.0607406846	 0.074435
H	-1.8958112573	-3.8415395423	 1.3719832738	 0.120274
H	-2.8631010006	-2.2930666169	 1.4994226468	 0.110565
H	-3.0046983038	-2.2561719015	-0.8461642439	 0.228743
H	 0.2625176614	-3.805186176	 0.1005686379	 0.111442
H	 0.3798456676	-2.7247999974	-1.3052129429	 0.093332
H	 1.8061065025	-0.6287219667	-0.9076115068	 0.095509
H	 1.9743593508	-0.2225682233	 0.8040364525	 0.113402
