17
gdb 84738	2.40663	1.74125	1.04263	5.0199	78.71	-0.2152	-0.0546	0.1606	1118.1322	0.136489	-418.040079	-418.031641	-418.030696	-418.073787	31.633	
C	-0.5978520084	 1.4383191086	-0.1171118115	-0.393106
C	 0.2222287146	 0.1466076831	-0.0019695398	-0.156644
C	 0.9458928482	-0.223277878	-1.2705138411	-0.128149
C	 2.1255633444	-0.8419487588	-1.2475142978	 0.004164
N	 2.7846299628	-1.1626095027	-0.060574708	-0.375189
C	 2.3892285424	-0.7321257776	 1.1953527218	 0.290809
N	 2.9557790792	-1.0038286876	 2.3050887567	-0.482983
C	 1.1593180545	 0.1876584598	 1.209551123	 0.344396
O	 0.946693273	 0.8897025764	 2.1637522429	-0.281004
H	 0.0496181931	 2.2862213521	-0.3594051221	 0.126115
H	-1.346976288	 1.341538135	-0.908292133	 0.111859
H	-1.1019166311	 1.6566637948	 0.8252776054	 0.142127
H	-0.4802573918	-0.6744516272	 0.2382798143	 0.124755
H	 0.4750037108	 0.0009249279	-2.2198712969	 0.10102
H	 2.6505533311	-1.144290365	-2.1457777375	 0.118909
H	 3.6284328511	-1.7116455944	-0.1127181064	 0.246939
H	 3.7693554641	-1.6107770865	 2.1729981	 0.205982
