17
gdb 28165	4.99227	1.24856	1.01132	3.6849	82.77	-0.1853	0.0056	0.1908	1159.8552	0.138332	-380.921897	-380.914305	-380.913361	-380.954064	29.144	
C	-0.0199298002	 1.4706268746	 0.0381328294	-0.503771
C	-0.0012901005	-0.0196732816	-0.0331375973	 0.306649
N	-0.0383404461	-0.7395573722	-1.1399141635	-0.385717
C	 0.0000128758	-2.0410648763	-0.70272529	 0.271161
C	 0.0601153924	-2.114562725	 0.6628746725	 0.290368
C	 0.1013610092	-3.5304564234	 1.1342213454	-0.415175
C	 0.0542007687	-4.2639700418	-0.2091223728	-0.090557
C	-0.0032482447	-3.399206245	-1.2430195978	-0.183108
N	 0.0594897229	-0.815231502	 1.0990307221	-0.417363
H	 0.8827190521	 1.8720052689	 0.5143461392	 0.12834
H	-0.0746623531	 1.8631121531	-0.9779204548	 0.158774
H	-0.8839835129	 1.8457873578	 0.5996099729	 0.128128
H	 1.0107061179	-3.7845949461	 1.6951458155	 0.127983
H	-0.7484337226	-3.81054209	 1.7710361671	 0.127989
H	 0.0674682667	-5.3435446877	-0.2727489369	 0.095152
H	-0.0447161402	-3.6597190873	-2.292353583	 0.101427
H	 0.0954644645	-0.4815959661	 2.047524882	 0.25972
