17
gdb 45753	3.10089	1.34135	1.01878	2.756	74.97	-0.2356	-0.0168	0.2189	1162.8265	0.137204	-418.036227	-418.028394	-418.02745	-418.069463	29.189	
O	 0.0777161123	 0.0063692087	-0.2357371088	-0.371362
C	-0.0081067976	 1.2015866541	-0.0844603352	 0.388474
C	-1.2303817114	 2.1217092896	-0.0619073987	-0.292053
N	-0.72946091	 3.480423055	 0.1592264393	-0.262026
C	 0.5399138882	 3.3641390498	 0.2474598833	 0.068163
N	 1.060248716	 2.0791084543	 0.1195214696	-0.110245
C	 2.424812972	 1.6437841633	 0.1732732289	 0.063051
C	 3.5423231294	 2.476862635	-0.3922056003	-0.287766
C	 3.4204313835	 2.2794338375	 1.1045350029	-0.287847
H	-1.7810392164	 2.055777763	-1.0065288999	 0.153848
H	-1.9228156762	 1.8248919452	 0.733278183	 0.153879
H	 1.21054189	 4.2007355527	 0.4133161336	 0.138943
H	 2.4592437039	 0.5697435556	 0.034380404	 0.13664
H	 4.3360753646	 1.9671908701	-0.9264070793	 0.130463
H	 3.2943588956	 3.4544161567	-0.7918981898	 0.123686
H	 3.0916918872	 3.1260034163	 1.6979122559	 0.123688
H	 4.1296155989	 1.632775543	 1.6085898213	 0.130466
