19
gdb 80447	2.47177	1.41828	1.20103	3.0051	77.24	-0.2265	0.0071	0.2336	1130.8907	0.158014	-423.020529	-423.011686	-423.010742	-423.053373	34.482	
C	 0.0823046075	 1.4830296221	 0.0355954176	-0.487908
C	 0.0346055172	-0.0109631306	-0.031525875	 0.311402
C	 0.0467256576	-0.7806881319	-1.129434261	-0.318034
C	 0.0444915966	-2.2397626766	-0.8090923573	 0.33314
O	-0.607395493	-3.1368855912	-1.6522760906	-0.464995
C	 1.2406670656	-2.742156807	-0.0550243026	 0.094249
O	 2.4568788802	-2.065365393	 0.0036461421	-0.427649
C	 0.0167197428	-2.3014509974	 0.7300782653	-0.194047
C	-0.0090241855	-0.8620048025	 1.2293341871	-0.320715
H	 0.9727112865	 1.8319362696	 0.5732732302	 0.131327
H	 0.0897846434	 1.9332451082	-0.9605509918	 0.126897
H	-0.7827879361	 1.87718156	 0.5842332094	 0.128666
H	 0.0817905492	-0.4210661283	-2.1525773167	 0.09631
H	-1.5457455696	-2.9138776621	-1.6511356689	 0.279064
H	 1.3914842457	-3.8161897389	-0.1057229856	 0.112475
H	 2.3243595463	-1.1978544537	-0.3987783799	 0.282173
H	-0.5505851033	-3.0668085344	 1.2470117891	 0.088378
H	 0.8563980458	-0.6458333629	 1.8710595856	 0.122349
H	-0.902233277	-0.6402039495	 1.827422473	 0.106918
