21
gdb 36880	4.73612	0.83256	0.79868	2.0072	82.93	-0.2323	0.086	0.3183	1504.4659	0.182956	-387.000199	-386.992022	-386.991077	-387.033888	31.855	
C	-0.2901015602	 1.5700881373	-0.0126064818	-0.284583
C	-0.2599802384	 0.0545322774	-0.0687247917	 0.048119
C	-0.1644527757	-0.7576617865	 1.1992915583	-0.254786
C	-1.4425530146	-0.7554907886	 0.3955399837	-0.278935
C	 1.1059754576	 2.1726304296	 0.0878459628	 0.061789
C	 2.0800267017	 2.3100177921	-1.1224459506	 0.040803
C	 1.2420325352	 3.4769867485	-1.696926973	-0.229668
C	 1.4221358059	 3.6741979137	-0.1723469618	 0.019284
O	 2.8481756728	 3.30119157	-0.3323336276	-0.310203
H	-0.8318065989	 1.9574340649	-0.8829993532	 0.098385
H	-0.8683079682	 1.8824638464	 0.8678321575	 0.096402
H	 0.2785681862	-0.347612208	-0.9238007477	 0.082004
H	 0.4450328553	-1.6544162004	 1.1986231268	 0.111955
H	-0.1621484141	-0.2225663975	 2.1437319272	 0.110704
H	-2.2939107895	-0.2186678571	 0.8018383996	 0.109638
H	-1.7068366883	-1.6505254649	-0.1566733234	 0.110965
H	 1.6350721591	 1.8056917648	 0.9717529623	 0.084022
H	 2.650054774	 1.5430497013	-1.6482077131	 0.08977
H	 1.8049894595	 4.1777266752	-2.3142653505	 0.107769
H	 0.2462333983	 3.27364588	-2.0947827711	 0.097191
H	 1.1997098623	 4.5461381117	 0.4443338173	 0.089377
