20
gdb 62567	2.38062	1.52607	1.18008	4.1024	80.35	-0.2371	0.0135	0.2506	1138.5038	0.169322	-403.158316	-403.149044	-403.1481	-403.191537	35.668	
C	 0.0613654122	 1.5199051223	 0.0329018626	-0.463344
C	 0.0516493747	 0.0025566873	 0.0582134953	 0.270292
C	-1.1944021053	-0.5864595013	-0.5852244494	-0.457594
C	 1.3280993398	-0.829499621	-0.2122113726	-0.332423
C	 2.5060337403	-0.1172938013	 0.4227443046	 0.422902
O	 3.551241887	 0.3417511778	 0.0553164811	-0.353959
N	 1.8990008638	-0.1542209715	 1.691972285	-0.388355
C	 0.6802797538	-0.8020943772	 1.1740147265	 0.316207
C	 0.0489929134	-1.8838149969	 2.0003236515	-0.485245
H	 0.951323197	 1.9463211825	 0.4994005343	 0.126812
H	 0.0232839466	 1.8843957815	-0.9991530063	 0.127784
H	-0.8175653602	 1.9154456895	 0.5553644763	 0.115807
H	-1.2980279399	-0.2200964326	-1.6122340181	 0.126615
H	-1.1673247818	-1.6782777612	-0.6268067189	 0.121232
H	-2.0947688604	-0.2892554528	-0.0355828395	 0.122194
H	 1.3527257417	-1.613824336	-0.9565685423	 0.107737
H	 1.9048408331	 0.6319890315	 2.332984928	 0.235878
H	-0.4044443692	-1.4625472084	 2.9056348033	 0.124163
H	-0.7373827632	-2.4077418794	 1.4532709216	 0.127639
H	 0.8026487365	-2.6125560727	 2.3133260471	 0.13566
