18
gdb 25596	5.91664	0.67586	0.64054	4.1107	80.12	-0.2091	-0.0154	0.1937	1692.7985	0.147923	-401.994952	-401.986123	-401.985179	-402.030194	31.637	
O	-0.6083524584	 0.6467405465	 0.7020180524	-0.239155
C	 0.0428623382	 0.9755504216	-0.2562872407	 0.157626
C	 1.3295188607	 1.7632586395	-0.2097558279	-0.256484
C	 1.2486974216	 3.0516618406	-1.0636512526	-0.340262
C	 2.5527711532	 3.7912325424	-1.1356874757	 0.29132
C	 2.8593938586	 4.9705389929	-0.4928262178	-0.182687
N	 4.1549434026	 5.301791733	-0.8005860711	-0.2307
C	 4.6893802432	 4.3534501644	-1.6336889496	-0.070793
C	 3.722015767	 3.4037093195	-1.8592047242	-0.242
H	-0.2898043611	 0.7093439458	-1.2890304557	 0.065208
H	 1.5735834208	 1.9919462756	 0.8309215486	 0.121774
H	 2.1270623324	 1.1240349482	-0.6137568943	 0.121082
H	 0.9119357084	 2.7840519229	-2.0740848081	 0.107678
H	 0.4760576869	 3.7065349557	-0.6453475412	 0.111125
H	 2.2610388476	 5.5951970919	 0.1515607755	 0.116788
H	 4.6348692935	 6.1211104981	-0.4729620195	 0.262408
H	 5.7010625346	 4.4376462697	-1.9966054534	 0.118902
H	 3.8320020401	 2.5271357118	-2.4804996047	 0.088168
