19
gdb 57816	3.66202	0.57964	0.54706	4.3664	82.91	-0.265	0.0023	0.2673	2061.5653	0.15606	-423.024029	-423.013307	-423.012363	-423.062702	36.211	
C	-0.1071159912	 1.3467511555	-0.2223050538	-0.375937
C	-0.2314987481	-0.1706958043	 0.023098895	-0.126575
C	 0.6534598111	-0.6270934198	 1.2000464078	-0.376144
C	-1.6281031462	-0.5502274012	 0.236732931	 0.094091
C	-2.7780615992	-0.8518481856	 0.4319384143	 0.056848
C	-4.1638313788	-1.237708501	 0.6535949707	-0.248798
O	-4.3305345704	-2.6649869417	 0.785364164	-0.166712
C	-4.3893078203	-3.3689601008	-0.3628265619	 0.182571
O	-4.4881050187	-4.5581018301	-0.3825584757	-0.270155
H	 0.9357754429	 1.6096372624	-0.4241769792	 0.118013
H	-0.7144582126	 1.6606305773	-1.0751750622	 0.12506
H	-0.4385269237	 1.9078901798	 0.6567243115	 0.126473
H	 0.1180765013	-0.6866108189	-0.8819309581	 0.111449
H	 0.5774638744	-1.7062579261	 1.3549446451	 0.130873
H	 1.7006044766	-0.3779249083	 1.0019896754	 0.116128
H	 0.3503511467	-0.1287037941	 2.1258272959	 0.126171
H	-4.5446877614	-0.8258608035	 1.5917853909	 0.155916
H	-4.8071536837	-0.8653812235	-0.1547119147	 0.139324
H	-4.3478803586	-2.7286623562	-1.2654476759	 0.081403
