21
gdb 95908	2.22813	1.48324	1.173	4.6047	81.84	-0.2566	0.0299	0.2865	1163.5631	0.183786	-383.299066	-383.289558	-383.288614	-383.333077	35.821	
C	-0.619671804	 1.2764527918	 0.0782762273	-0.414497
C	 0.0108780055	-0.1074736409	-0.0363835837	 0.040137
C	 1.035777468	-0.275622182	-1.1819076891	-0.24197
C	 1.9787677078	-1.4375835875	-0.7556547318	-0.231498
C	 1.5193707686	-1.8544713931	 0.6622964176	-0.235272
C	 0.8031604964	-0.5924110783	 1.2178516067	 0.093214
N	 1.7069188617	 0.465314576	 1.6966443533	-0.535615
C	-0.1041564919	-0.937159843	 2.3216158991	 0.286471
N	-0.8187346859	-1.2340391138	 3.1800307565	-0.350088
H	 0.1373423556	 2.0416854169	 0.2670488339	 0.127943
H	-1.1472563661	 1.5317470214	-0.8463581043	 0.112408
H	-1.3421097844	 1.3130362231	 0.899287421	 0.134363
H	-0.7862238802	-0.8458935206	-0.1852243965	 0.092006
H	 0.5313196917	-0.4740049367	-2.1309919288	 0.10951
H	 1.598757659	 0.6540455505	-1.3235969818	 0.101837
H	 1.9302762071	-2.283388827	-1.4452859234	 0.111226
H	 3.0218146084	-1.1078246935	-0.7469719341	 0.103555
H	 0.805164433	-2.6824670754	 0.6079787129	 0.118889
H	 2.3380463839	-2.1725623822	 1.3134267266	 0.102866
H	 2.2523306286	 0.1215750874	 2.4817653468	 0.239414
H	 2.3687896871	 0.702809617	 0.9638164017	 0.2351
