18
gdb 37413	3.61094	1.83908	1.70102	3.1765	72.93	-0.2256	0.0792	0.3048	854.0918	0.151981	-401.890554	-401.884858	-401.883913	-401.920239	25.265	
C	-0.0199808725	 1.4898429946	 0.0720859963	-0.169504
C	 1.5163507518	 1.3848988166	-0.0067477559	-0.053844
C	 1.7799274682	 0.7323467657	 1.3655224664	-0.243082
C	 0.7664100703	-0.4564041588	 1.179626291	-0.051126
C	 1.6385055997	-1.5813223051	 0.6279966625	 0.059603
O	 1.1461837407	-2.2731498001	-0.5153283282	-0.244036
C	 1.9936571057	-1.1290332206	-0.7194423858	 0.014457
C	 1.1917794511	 0.1366864824	-0.9172133257	-0.025704
N	-0.0343602218	-0.0173827133	-0.0238456086	-0.120881
H	-0.4712741644	 1.9095452223	 0.9759065421	 0.098964
H	-0.4986967692	 1.9096402626	-0.8157543988	 0.108681
H	 2.1663756062	 2.2036218873	-0.3205368953	 0.063461
H	 2.8076532438	 0.3894453475	 1.5134685641	 0.09824
H	 1.520645187	 1.4060160436	 2.1863553145	 0.100635
H	 0.130483474	-0.6893522193	 2.0330617964	 0.077703
H	 2.309008553	-2.1323505051	 1.2814312459	 0.100435
H	 2.9475616164	-1.3092092515	-1.2048579887	 0.099457
H	 0.9121897601	 0.389934331	-1.9411715922	 0.08654
