16
gdb 46583	2.94147	1.79896	1.39403	3.5521	69.86	-0.2573	0.0027	0.26	937.792	0.125675	-437.845064	-437.838145	-437.8372	-437.876256	27.407	
N	 0.0193822128	 1.2186612307	 0.449515177	-0.543479
C	-0.0078356016	 0.0678670884	-0.0652863046	 0.363999
O	 0.9804133513	-0.4643193126	-0.872311335	-0.257088
C	 0.8607002336	-1.9038944581	-1.0071080665	-0.161023
C	-0.5126671306	-2.214913233	-0.4754799959	 0.25949
C	-1.1404383243	-3.0544455992	 0.6580926469	-0.29486
C	-1.7281554074	-1.7211274153	 1.2582488594	-0.299359
C	-1.049939952	-0.9711811642	 0.1017671978	 0.221814
O	-1.5390114435	-1.4928083954	-1.1404774488	-0.279053
H	 0.894953281	 1.6935881806	 0.2223103301	 0.228837
H	 1.0036310691	-2.1477517985	-2.0627431145	 0.134924
H	 1.643442379	-2.388183657	-0.4122418188	 0.121721
H	-1.8506479661	-3.8152427112	 0.3300505772	 0.124021
H	-0.3925216957	-3.5086638891	 1.3111206326	 0.120148
H	-2.8139454421	-1.6247495479	 1.2949154227	 0.12749
H	-1.3028613935	-1.4728288282	 2.2313557304	 0.132416
