17
gdb 54878	2.55788	1.51407	1.06735	2.2255	74.81	-0.2457	-0.0371	0.2086	1130.7322	0.134181	-421.878795	-421.870187	-421.869243	-421.91274	31.411	
C	 0.1991519608	 1.0336418993	 0.8850629095	-0.487528
C	 0.0340454416	 0.1275811382	-0.3132898667	 0.372068
O	 0.8520284652	 0.0313676919	-1.1958738516	-0.286521
C	-1.2685499787	-0.6953938033	-0.3516249518	-0.268873
C	-1.5122356207	-1.4226216591	-1.6445142339	-0.05011
C	-1.6317656444	-2.7401027738	-1.4824957829	-0.084833
C	-1.48887171	-3.1652913464	-0.0478926592	-0.357917
C	-1.2472885593	-1.8446460604	 0.6933753543	 0.383925
O	-1.0703893767	-1.7159989181	 1.8759810157	-0.302069
H	 1.204266804	 1.4563776404	 0.8992433672	 0.139777
H	-0.5362434041	 1.8457302429	 0.833033884	 0.138639
H	-0.007291887	 0.4748725458	 1.8035263698	 0.171982
H	-2.0886531852	-0.0199049181	-0.0680066049	 0.120171
H	-1.55980802	-0.9014119208	-2.591995448	 0.115353
H	-1.8062119111	-3.4490189634	-2.2831155711	 0.10831
H	-2.3787131946	-3.6593372954	 0.3634703424	 0.141446
H	-0.6505262297	-3.8510336198	 0.1311692474	 0.146181
