20
gdb 78773	2.60089	1.75364	1.3344	1.5277	77.86	-0.2465	0.0597	0.3061	1029.2273	0.170637	-403.090963	-403.082504	-403.081559	-403.123259	33.494	
C	-0.0493398851	 1.6020147035	-0.0197931608	-0.464979
C	 0.072822058	 0.0795850601	-0.0019588873	 0.321568
C	-1.3047203023	-0.5684152439	 0.1964572472	-0.438786
C	 0.8343024646	-0.6312833433	-1.1185923054	-0.070481
C	 2.2886351275	-0.7071359583	-0.7906290025	-0.120808
C	 2.5251612073	-0.1194116018	 0.5914135317	 0.124585
O	 2.8006026796	 1.2446541408	 0.8096800146	-0.430474
C	 1.1155290894	-0.6348821946	 0.9076997434	-0.08638
N	 1.3272510026	-1.718526713	-0.2077437996	-0.169447
H	 0.9076564535	 2.0871369362	-0.2057706946	 0.139095
H	-0.7612486834	 1.9088262268	-0.7952214651	 0.103376
H	-0.4340665791	 1.9698813327	 0.9383180741	 0.110582
H	-1.9842611643	-0.2887152932	-0.6164006749	 0.109826
H	-1.2343092653	-1.6592034359	 0.2221350103	 0.132919
H	-1.7558423586	-0.2286088543	 1.1353466945	 0.110991
H	 0.4724719725	-0.8676280719	-2.1149301888	 0.087857
H	 3.0297006885	-1.0077874777	-1.5236305767	 0.090784
H	 3.2527857836	-0.75461971	 1.1141573418	 0.087101
H	 3.7526735373	 1.3741262137	 0.7679019128	 0.286287
H	 0.8480141938	-0.9454388559	 1.9169807452	 0.076384
