13
gdb 132026	2.42919	1.8507	1.05167	5.847	65.47	-0.2076	-0.0239	0.1837	1012.799	0.090509	-494.081547	-494.07411	-494.073166	-494.113344	28.252	
N	 0.0113732386	 1.4169517588	 0.1647297423	-0.592096
C	-0.0496357312	 0.0427431939	 0.0624402252	 0.020045
C	-1.1749529076	-0.7003629935	 0.0376874787	 0.291109
F	-2.4099641062	-0.1996052059	 0.0449502315	-0.064696
N	-1.1206691609	-2.0742198968	-0.0039155015	-0.358701
C	 0.0925993768	-2.6880607293	-0.0205998337	 0.090196
N	 1.2253271318	-2.0709787242	-0.0154405958	-0.318789
C	 1.2473051202	-0.6740432323	 0.0092537898	 0.371889
O	 2.2846355518	-0.0308916425	-0.01946084	-0.382608
H	 0.9389688972	 1.7454207317	-0.0785376614	 0.269914
H	-0.7450974844	 1.9392936593	-0.2501166226	 0.252531
H	-1.982732518	-2.5970406079	-0.0164185904	 0.280024
H	 0.0579501618	-3.7744080011	-0.0432332222	 0.141183
