22
gdb 106045	2.57358	1.51479	1.18907	1.668	85.01	-0.2353	0.0823	0.3176	1162.4411	0.194699	-367.169188	-367.16041	-367.159466	-367.202519	34.001	
C	 0.4030544897	 1.3799780509	 0.3834308184	-0.382502
C	-0.1484682359	 0.0447773929	-0.1311814501	-0.301771
C	 0.5119493352	-0.4326461804	-1.3949750268	 0.339667
C	 0.7277936409	-1.8874728729	-1.6877842624	-0.091511
C	 1.1344291599	-2.0664818669	-3.1375524431	-0.247162
C	 1.8496156274	-0.7189164642	-2.9311012053	-0.029011
C	 0.7620357681	 0.3510496083	-2.6816587585	-0.020615
C	-0.3486676507	 0.6279074347	-3.68665203	-0.433333
N	 1.9103504681	-0.9960019718	-1.3926580047	-0.204163
H	 1.4828952556	 1.3112360113	 0.5445595881	 0.135113
H	 0.2193677189	 2.192615327	-0.3270244528	 0.114224
H	-0.0683883515	 1.6570511433	 1.331007636	 0.110526
H	-0.016284954	-0.7252713637	 0.6386702365	 0.105446
H	-1.2306331735	 0.1249068057	-0.3019700587	 0.100352
H	 0.4205421828	-2.6544097451	-0.9844496099	 0.088107
H	 1.8586419106	-2.8796927315	-3.2352473328	 0.110816
H	 0.3720710383	-2.1583339133	-3.9175913222	 0.094161
H	 2.766077397	-0.4756008625	-3.4663002718	 0.075939
H	 1.2684342105	 1.2860267828	-2.415726485	 0.081871
H	-0.8955303812	-0.2798180662	-3.9576813849	 0.118754
H	-1.074105099	 1.3389451214	-3.2762677292	 0.118587
H	 0.0545789829	 1.0662788002	-4.6064262508	 0.116505
