18
gdb 9508	2.98028	1.68275	1.47834	3.0906	68.24	-0.2521	-0.0287	0.2234	949.6621	0.151201	-384.935361	-384.926526	-384.925582	-384.969401	31.291	
C	-0.3465190275	 1.4433712016	-0.0285245966	-0.409051
C	 0.1470909359	 0.0100910435	-0.0549764169	 0.124996
O	 1.3575390656	-0.1463916811	-0.8207619198	-0.290411
C	 2.0600545292	-0.7561455608	 0.2829380824	-0.114319
C	 0.8429163716	-0.6131875555	 1.2154311405	 0.147461
C	 1.0043224738	 0.2710268985	 2.4501205429	-0.476354
C	 0.1827118836	-1.9174856032	 1.603337141	 0.115953
O	 0.5929718977	-3.0179640161	 1.3386802247	-0.248315
H	 0.4145893758	 2.1274665011	 0.3548364069	 0.123854
H	-0.5958432866	 1.7544265761	-1.0478809762	 0.135497
H	-1.2493188792	 1.5358916975	 0.584618093	 0.117696
H	-0.6459811855	-0.6399128136	-0.4544823615	 0.081072
H	 2.3468900815	-1.7916422742	 0.0743875928	 0.127237
H	 2.9441026544	-0.1764282754	 0.5741103672	 0.097987
H	 1.4156765467	 1.2487999179	 2.1893006459	 0.133828
H	 0.0466713446	 0.4314291233	 2.9579418892	 0.124801
H	 1.6876278282	-0.196225243	 3.1676400038	 0.132821
H	-0.7708959796	-1.7842759865	 2.1681178206	 0.075247
