18
gdb 45482	2.92695	1.69739	1.51051	2.5936	73.97	-0.2376	-0.0231	0.2146	941.0756	0.150857	-401.96572	-401.958995	-401.95805	-401.996919	27.408	
O	 0.0568409523	 0.0308835207	-0.4506180871	-0.323385
C	 0.016186874	 1.1843487979	-0.1042203359	 0.397968
C	-1.2384203488	 2.0250086228	 0.1410479196	-0.329237
C	-0.7330922451	 3.3162075359	 0.8086267122	-0.016923
C	-0.7048097907	 3.2166770123	 2.342222142	-0.199863
C	 0.5493911844	 2.3569609076	 2.6220733957	-0.262601
C	 1.4453844514	 2.6874623144	 1.4298020549	-0.010633
C	 1.1885343304	 2.1011674979	 0.0752663819	-0.154616
N	 0.7236094717	 3.4699842918	 0.4115880859	-0.125404
H	-1.6660299698	 2.241308364	-0.8454060238	 0.140621
H	-1.9926693856	 1.4739555367	 0.7085970029	 0.12789
H	-1.2746276709	 4.1961141527	 0.4594522356	 0.08973
H	-0.5701608521	 4.2154476124	 2.7691349935	 0.112
H	-1.6254887415	 2.797173817	 2.7570086116	 0.105328
H	 1.0356044238	 2.6263658738	 3.562244022	 0.112498
H	 0.3115584922	 1.2899546461	 2.6801808384	 0.123316
H	 2.4645202876	 3.0086892078	 1.6266424404	 0.101824
H	 2.0131994766	 1.999376898	-0.6239035497	 0.111487
