20
gdb 116123	3.08432	1.04046	0.83176	3.1636	75.71	-0.2108	-0.014	0.1968	1375.4204	0.172009	-440.298424	-440.289389	-440.288445	-440.332507	33.687	
O	-0.0015078628	 1.4303810002	-0.01805143	-0.424449
C	 0.0339539235	 0.0114498276	 0.0111757074	-0.086806
C	-1.4041041901	-0.4975569936	 0.0022524552	 0.006532
C	-2.160813669	-0.0873840641	-1.2759793449	-0.166547
N	-3.5358482438	-0.5810712493	-1.3349543435	-0.28956
C	-3.619962455	-2.0389949032	-1.1992187582	-0.258726
C	-2.8643807884	-2.5815873351	 0.0142961346	 0.37319
O	-3.3486326456	-3.3769198592	 0.7857932412	-0.305464
C	-1.4531759907	-2.0300033107	 0.1754147714	-0.31811
H	 0.9022618492	 1.7574622462	-0.0405070663	 0.290031
H	 0.5707625271	-0.3931984382	-0.8639691382	 0.085138
H	 0.5511499925	-0.3572584459	 0.9115235769	 0.089844
H	-1.9163331043	-0.0338831011	 0.8573435034	 0.087313
H	-2.1702047361	 1.0012053407	-1.3657641321	 0.125394
H	-1.6251874164	-0.4777279172	-2.154541324	 0.096491
H	-4.0832669087	-0.1459365552	-0.5981209052	 0.222672
H	-4.6642410588	-2.3537250284	-1.1351763427	 0.123617
H	-3.1887572219	-2.4929550221	-2.1044891459	 0.117486
H	-0.8340977078	-2.4950236686	-0.607978881	 0.114369
H	-1.059435783	-2.3530624729	 1.143201442	 0.117587
