13
gdb 81728	3.24631	1.327	1.04579	4.0537	65.53	-0.2591	-0.058	0.2011	1072.5957	0.088787	-452.711328	-452.703571	-452.702627	-452.743906	28.335	
O	-0.0303618718	 1.4649308296	 0.1604900646	-0.415545
C	 0.0202806362	 0.0858822973	 0.0282867071	 0.045716
C	-1.3067443087	-0.7007226971	 0.0297677565	-0.146927
N	-2.013705263	-0.2145000954	-1.1507778841	-0.37181
C	-1.0080028658	-1.3362226357	-1.3091872414	 0.123912
C	-1.3791923996	-2.6091490117	-1.8195095596	 0.170182
N	-1.6568955358	-3.6493916282	-2.2442226552	-0.331311
C	 0.325225689	-0.5791017852	-1.3719910062	 0.346358
O	 1.2513401977	-0.5897112875	-2.1150595856	-0.267418
H	-0.693268622	 1.7848331489	-0.4654551289	 0.303874
H	 0.7381012934	-0.3015051683	 0.7588989519	 0.135784
H	-1.8173807229	-1.1626963906	 0.8643915016	 0.140205
H	-2.9411236166	-0.6373364262	-1.1923427706	 0.266981
