17
gdb 45168	2.9736	1.82109	1.59585	4.9202	70.72	-0.254	0.0175	0.2715	890.7424	0.140103	-421.883824	-421.877657	-421.876713	-421.914196	25.928	
O	 0.009477285	 0.0421128582	 0.421347571	-0.353691
C	 0.0075289779	 1.1877972629	 0.0604301937	 0.4334
O	-1.1695552245	 1.8254838505	-0.1996233744	-0.244171
C	-1.0558696238	 3.1990584625	-0.6271487033	 0.084145
C	-0.1590907881	 3.2613521334	-1.8759300254	-0.241812
C	 1.2153138073	 3.0609450075	-1.2601668413	-0.065115
C	 1.1437789898	 3.5130979204	 0.173498095	-0.065136
C	-0.2744663701	 3.9905269634	 0.4361286218	-0.241819
C	 1.224801177	 2.0227346478	-0.1423311338	-0.182518
H	-2.078535218	 3.5388894345	-0.7853725739	 0.096534
H	-0.4383974529	 2.4972676142	-2.6066680558	 0.12209
H	-0.2352018532	 4.2445510501	-2.3530168473	 0.110776
H	 2.1122449069	 3.1688877423	-1.8570383065	 0.10006
H	 1.9856871731	 3.9688091086	 0.6793738902	 0.100048
H	-0.3653647248	 5.0671465787	 0.2552602448	 0.110777
H	-0.6405166896	 3.7746694115	 1.4437136692	 0.122083
H	 2.150568308	 1.5035295333	 0.0675598659	 0.11435
