23
gdb 105218	1.86009	1.39472	1.0923	2.5402	81.66	-0.2435	0.0644	0.3079	1276.7435	0.203578	-425.402463	-425.391822	-425.390878	-425.437386	40.271	
C	 0.3512738348	-1.2061768462	 1.6736367473	-0.394494
C	 0.0625084545	-0.4127455391	 0.3851962065	-0.023792
C	 1.1717469334	-0.6475968712	-0.6489496032	-0.418606
C	-1.3702918502	-0.6620421158	-0.1165852787	 0.316361
C	-2.414129083	 0.1418484892	 0.6307989433	-0.157015
O	-2.236941212	 1.5176304398	 0.3082499958	-0.417707
C	-1.6841550275	-0.9030633914	-1.5838455344	-0.342728
C	-1.8369514574	-2.0232586743	-0.6060235219	 0.044525
O	-0.9378130326	-3.0891902893	-0.7445534043	-0.414721
H	 1.2899213946	-0.8752910354	 2.1301964591	 0.111981
H	-0.4388170665	-1.0831525617	 2.4214373507	 0.106449
H	 0.4534159859	-2.2764004454	 1.4635378084	 0.098626
H	 0.0874805455	 0.6532012736	 0.643424564	 0.092299
H	 1.058482692	 0.0132142059	-1.5131137876	 0.115226
H	 2.148529641	-0.436802352	-0.2001570397	 0.101559
H	 1.1759812799	-1.6816036951	-1.0037908228	 0.132229
H	-3.4221655583	-0.1978913385	 0.3443554627	 0.080046
H	-2.3132633287	-0.0176527709	 1.71625098	 0.082913
H	-2.8129717927	 2.0356621197	 0.8782096746	 0.285811
H	-2.5725558561	-0.4434848676	-2.0025284377	 0.111728
H	-0.8543234656	-0.9896224932	-2.2742717893	 0.124179
H	-2.8495129805	-2.329243984	-0.3391148353	 0.077555
H	-0.8329815903	-3.5033171471	 0.1179465825	 0.287577
