23
gdb 58594	2.64141	1.04951	0.97263	0.6855	90.97	-0.2556	0.0555	0.3111	1387.2194	0.203145	-351.117649	-351.107174	-351.10623	-351.152793	39.828	
C	 0.4048934288	 1.4043637136	 0.2973033599	-0.400343
C	-0.0635492355	-0.0174097196	-0.0505531315	-0.02095
C	-1.5975542837	-0.1055862554	-0.081144762	-0.400346
C	 0.585001709	-0.556779663	-1.3301791638	 0.374905
C	 0.2394691171	 0.2216905263	-2.6083627208	-0.438666
C	 0.8515033225	-0.2833261974	-3.831709219	 0.292384
C	 1.3531002005	-0.6948388978	-4.844143675	-0.439873
C	 1.9649626145	-1.1507297812	-1.1963338087	-0.313856
C	 0.7715372355	-2.050698603	-1.4218674856	-0.313859
H	 1.4973738714	 1.4692054112	 0.3127879632	 0.116765
H	 0.0339123251	 2.1427501578	-0.4220238603	 0.114185
H	 0.0340350001	 1.7020870464	 1.2835149637	 0.11035
H	 0.2811943942	-0.677063059	 0.7572630639	 0.067886
H	-2.0306822258	 0.585944333	-0.8122117752	 0.114186
H	-1.9316038333	-1.1164213782	-0.3352739605	 0.116765
H	-2.0183131835	 0.1544994678	 0.89563859	 0.11035
H	-0.8498139093	 0.2283364488	-2.7447143409	 0.131927
H	 0.5338609568	 1.2718553242	-2.483229548	 0.131922
H	 1.7921581458	-1.0522324148	-5.7422891925	 0.194048
H	 2.6586625808	-1.0282953093	-2.0204501713	 0.122507
H	 2.4258393336	-1.1431891983	-0.2138631675	 0.103603
H	 0.4193562115	-2.6562941252	-0.5930520391	 0.103603
H	 0.6795470038	-2.5207711369	-2.394468499	 0.122507
