18
gdb 83722	2.68789	1.65751	1.23037	3.5632	71.32	-0.2477	0.0217	0.2695	1031.2851	0.150158	-439.119692	-439.112068	-439.111124	-439.151892	29.945	
O	 0.3865624977	 0.8780843084	 0.9220285928	-0.436607
C	 0.0094981682	-0.2604550551	 0.1882874271	 0.030668
C	-1.4840288401	-0.3563726478	-0.1100311929	-0.033845
C	-2.1998137259	 0.9468116285	-0.5703432774	-0.225275
C	-2.5904544526	 0.2518022342	-1.905501402	-0.227853
C	-1.6010138813	-0.8997509001	-1.576465027	-0.011877
N	-0.2572084173	-0.7150654836	-2.0998161094	-0.306858
C	 0.6465391343	-0.2206473186	-1.2104679769	 0.366684
O	 1.7584204281	 0.2133761501	-1.43850877	-0.394292
H	 1.2525133239	 1.1316494447	 0.5678909375	 0.293351
H	 0.3569124393	-1.1805251444	 0.6887187011	 0.089171
H	-2.0448265223	-0.9280844908	 0.628711732	 0.080435
H	-3.0246400513	 1.2846989988	 0.0583920037	 0.108717
H	-1.4999480866	 1.775741337	-0.6882513404	 0.123199
H	-3.625127687	-0.1014753013	-1.9097403762	 0.107631
H	-2.4046644172	 0.7987350798	-2.8334597895	 0.101769
H	-1.9561693932	-1.9215598353	-1.7366959282	 0.082805
H	-0.0499239265	-0.7162204346	-3.0875431343	 0.252177
