17
gdb 63114	2.24528	1.71262	1.22558	5.3878	74.61	-0.2493	-0.0004	0.2489	1055.758	0.135396	-417.968098	-417.959482	-417.958538	-418.000893	32.654	
C	 0.0058964964	 1.5541731128	-0.0139791919	-0.471595
C	 0.0116094776	 0.0402559021	-0.0742255346	 0.184871
N	-1.1275821277	-0.6751292235	 0.4433554063	-0.548835
C	 0.6410741712	-0.7501286025	-1.208731431	-0.19501
C	 1.9370034779	-0.1046667013	-1.6782130068	-0.119021
O	 2.4392655322	-0.0197853527	-0.312389191	-0.318723
C	 1.2990601442	-0.7333897136	 0.1676249148	 0.338313
C	 1.4764953778	-1.7313132113	 1.1725653831	 0.248252
N	 1.6313898542	-2.5199590862	 2.0048310433	-0.357329
H	 0.9736676927	 1.9811842905	-0.2834897378	 0.143998
H	-0.7588450011	 1.9626323618	-0.6841672039	 0.117882
H	-0.2289559885	 1.8829707031	 1.0042004986	 0.124047
H	-1.3073306356	-0.4193677857	 1.4095309734	 0.243108
H	-1.9621266622	-0.4557690401	-0.0918776758	 0.236803
H	 0.1131102114	-1.5626525513	-1.6870521133	 0.126995
H	 2.5667908104	-0.7761670332	-2.2700333021	 0.129712
H	 1.878123329	 0.876406631	-2.1601405912	 0.116532
