18
gdb 80919	2.86279	1.44499	1.27079	2.2686	72.49	-0.2441	0.0646	0.3087	1058.0021	0.146436	-438.982456	-438.974249	-438.973305	-439.014803	32.146	
C	 0.0690931528	 1.4251736529	-0.0269018076	-0.526678
C	-0.0219230803	-0.0600168697	 0.0994475526	 0.225006
O	 0.628062905	-0.9091266813	-0.9620347479	-0.377583
C	 0.0340600906	-1.8912344212	-0.005793064	-0.117016
C	 0.6340845921	-1.029813163	 1.143703264	 0.175033
O	 2.0146908633	-0.983700749	 1.2717039408	-0.459802
C	-1.2165154044	-1.0197238453	 0.0443413032	 0.436679
C	-2.5452715243	-1.0524122882	 0.6726116546	-0.343995
N	-2.3736645699	-1.0624673683	-0.8082503275	-0.386975
H	 1.1120792267	 1.7475690136	 0.0469979405	 0.14368
H	-0.3319637973	 1.7637987106	-0.9873557934	 0.135268
H	-0.4943283259	 1.9072801048	 0.7784769339	 0.13204
H	 0.1507236451	-2.9487434708	-0.2372479259	 0.103777
H	 0.1821187337	-1.099610804	 2.1352259298	 0.093854
H	 2.3440899279	-0.9472553429	 0.360732458	 0.286179
H	-2.9453240574	-1.9738826096	 1.086308646	 0.127716
H	-2.9108907305	-0.1455614663	 1.1491487802	 0.116454
H	-2.5765860773	-0.1458115724	-1.2004814371	 0.236361
