27
gdb 123250	10.2032	0.3692	0.36272	0.784	95.57	-0.2474	0.0897	0.337	3139.7086	0.249783	-390.70143	-390.689167	-390.688223	-390.740593	42.364	
C	 0.0763792736	 1.5379042213	 0.0094018813	-0.380044
C	 0.0170520913	 0.0081510788	 0.0017493482	-0.162615
C	-1.4142523557	-0.5398261623	 0.0124440773	-0.161338
C	-1.4756104988	-2.0701268827	 0.0048020106	-0.196229
C	-2.9008686216	-2.6055866521	 0.0156260231	-0.052519
O	-2.8582330712	-4.0159409218	 0.0075142598	-0.24777
C	-4.1344619658	-4.6162179835	 0.016673546	-0.028655
C	-3.967850418	-6.1295987767	 0.0066456309	-0.181433
C	-5.3087972352	-6.8672147948	 0.0156952097	-0.381939
H	 1.1097738309	 1.8984823658	 0.0015111309	 0.110969
H	-0.4294453927	 1.9582947875	-0.8670883775	 0.112736
H	-0.4126413091	 1.9488042604	 0.8998193125	 0.112736
H	 0.5435609539	-0.375620342	-0.8820008306	 0.095348
H	 0.560264278	-0.3850365069	 0.8711345369	 0.095347
H	-1.9413838018	-0.1549482023	 0.8968536159	 0.091962
H	-1.9581103426	-0.1455118957	-0.8575624273	 0.091963
H	-0.9619513925	-2.4635762755	-0.8810248846	 0.102736
H	-0.9450252696	-2.473016858	 0.876293377	 0.102732
H	-3.440183494	-2.2433584699	 0.9090298525	 0.079981
H	-3.4572769005	-2.2336762178	-0.863200264	 0.079982
H	-4.7020262365	-4.2994987478	 0.910184757	 0.079158
H	-4.7193731633	-4.2896656809	-0.8619862765	 0.079157
H	-3.3857330144	-6.4092211646	-0.8789945488	 0.10544
H	-3.3685178653	-6.4189696522	 0.8775493487	 0.105442
H	-5.1614341836	-7.9510233601	 0.0082925906	 0.116199
H	-5.8960584773	-6.6186811835	 0.9067447998	 0.115326
H	-5.913339568	-6.6089545427	-0.8609133696	 0.115327
