13
gdb 19101	5.29952	2.18654	2.09715	3.2291	59.7	-0.2374	-0.0261	0.2112	660.3308	0.097096	-361.376159	-361.370964	-361.37002	-361.405338	21.067	
O	 0.0067046615	 0.0044240824	-0.0628855967	-0.312501
C	-0.0118546316	 1.1977605514	-0.0611502474	 0.464115
C	-1.0879640258	 2.2902342463	 0.0888604153	-0.214716
C	-0.7590065142	 3.3009051188	-1.0201215511	-0.040403
C	 0.0033831471	 4.2182582412	-0.1463740105	-0.053002
C	-0.022721148	 3.1124341701	 0.9453531247	-0.070624
C	 1.0299741382	 2.3207765824	 0.0900554865	-0.140959
N	 0.7677385968	 3.2980887457	-1.0380277925	-0.148325
H	-2.1171728356	 2.102396662	 0.3799769826	 0.098857
H	-1.2615595023	 3.4674891305	-1.9634177572	 0.113964
H	 0.1362144902	 5.2925863861	-0.1437186897	 0.108396
H	-0.0491380905	 3.1800908017	 2.0281412489	 0.096231
H	 2.0806036742	 2.1621621414	 0.317018257	 0.098967
