18
gdb 94420	2.54919	1.37665	1.25945	2.6163	73.2	-0.2571	0.0247	0.2818	1093.3371	0.147721	-439.068105	-439.059615	-439.058671	-439.101443	31.642	
O	 0.3341096962	 0.94014521	-0.6198298688	-0.43021
C	 0.11579711	-0.1903327501	 0.1866969461	 0.07713
C	-0.0603828303	-0.0124325825	 1.7196081754	-0.266556
C	-1.2650396443	-0.9901952168	 1.6388742949	-0.302706
C	-1.3255083145	-0.748338617	 0.1098443447	 0.184391
C	-2.439680598	 0.0949782467	-0.5406899187	-0.138023
O	-2.7292912799	-1.0061875924	-1.4658880523	-0.263648
C	-1.7433700674	-1.7860189182	-0.9010312477	 0.377086
N	-1.3564209641	-2.9493885658	-1.1675116095	-0.560114
H	 1.2788592776	 1.1160508675	-0.6590248951	 0.291035
H	 0.8256317413	-0.9962665086	-0.0414227951	 0.096482
H	 0.7774690586	-0.2778744175	 2.3679603119	 0.100785
H	-0.3813634729	 1.0088501584	 1.9429801677	 0.111134
H	-0.9879968111	-2.0242229618	 1.8571394425	 0.131485
H	-2.1616507948	-0.7354122725	 2.2076599813	 0.109934
H	-3.308031908	 0.3122939295	 0.086909793	 0.11372
H	-2.1084592144	 0.9823601858	-1.0813650699	 0.141303
H	-1.8853790139	-3.3532816546	-1.9423211206	 0.226772
