16
gdb 131855	5.60527	0.76688	0.69501	5.6254	68.52	-0.2165	-0.0276	0.189	1540.7364	0.124203	-471.162016	-471.153497	-471.152553	-471.196307	30.312	
O	-0.0503920214	 1.403145578	-0.2912217237	-0.41899
C	-0.0168534738	 0.0244088966	 0.0536177877	-0.09262
C	-1.4572735231	-0.4600167179	 0.0886505187	-0.133509
N	-2.0655414531	-0.2581305268	-1.2149334221	-0.39298
C	-3.3905798964	-0.5900283906	-1.3791062948	 0.333199
C	-4.2330202998	-1.4001513466	-0.6766868973	-0.063307
O	-5.4182591883	-1.4180131253	-1.3174200712	-0.160209
N	-5.2912967432	-0.5847226027	-2.4320249371	-0.002588
N	-4.1162552146	-0.1166840664	-2.4529387675	-0.206142
H	 0.8439232302	 1.6930189932	-0.4914141003	 0.29715
H	 0.544402072	-0.5577993225	-0.6910823643	 0.106738
H	 0.4452152473	-0.1350295983	 1.0388411509	 0.098878
H	-1.4665315872	-1.529021398	 0.3345048529	 0.112559
H	-2.0021184928	 0.0695945501	 0.8879964755	 0.109258
H	-1.8276205159	 0.6408891839	-1.6143092614	 0.259006
H	-4.1490583797	-1.9883446266	 0.219213604	 0.153558
