13
gdb 50066	4.37694	0.98718	0.87279	2.7126	67.65	-0.2763	-0.1124	0.1639	1239.117	0.087434	-452.74483	-452.736403	-452.735459	-452.779052	28.634	
O	-0.141577399	 0.4282885772	-0.3297869222	-0.270208
C	 0.038748158	 1.5848382376	-0.0633942959	 0.159663
N	 1.2145493654	 2.0623164308	 0.5336956313	-0.06367
C	 2.5316333488	 1.6624616599	 0.1539901228	-0.219787
C	 2.0717369114	 3.1149293888	 0.0446639254	-0.148824
C	 1.8842471233	 3.6379957426	-1.3430645823	 0.306936
O	 1.1796735747	 3.1330794745	-2.1820000558	-0.277764
C	 2.6657182703	 4.8541294851	-1.6386139088	 0.234897
N	 3.2860104213	 5.8060373785	-1.8528513366	-0.286102
H	-0.7238232412	 2.3754339202	-0.159692334	 0.106887
H	 3.2204483681	 1.4071905118	 0.9534798558	 0.151886
H	 2.635925218	 1.1063333929	-0.7742773296	 0.165236
H	 2.431244981	 3.8353192201	 0.7747276798	 0.140851
