21
gdb 97976	6.5774	0.4524	0.4443	1.1713	89.58	-0.2395	0.0378	0.2772	2472.7446	0.180769	-387.041099	-387.030478	-387.029534	-387.0794	36.956	
O	 0.0716472139	 0.9396187652	 0.9503180643	-0.41001
C	-0.0725457512	 0.2050886923	-0.261157749	-0.216259
C	-1.4014290813	-0.3883720637	-0.3228277666	 0.146785
C	-2.4991099896	-0.8773954791	-0.3976375367	 0.020267
C	-3.8171770063	-1.496869249	-0.4623623344	-0.351128
C	-3.8862714842	-2.8663191245	 0.2486424433	-0.196295
C	-5.2653144513	-3.4838540982	 0.1765702319	 0.037081
C	-5.6838588128	-4.2801186982	-1.0358120929	-0.256329
C	-5.4436903648	-4.976010303	 0.2821142001	-0.282371
H	 0.9577590203	 1.31593021	 0.9517062657	 0.287596
H	 0.0730544263	 0.8565012967	-1.1387701772	 0.113248
H	 0.6840571142	-0.5938967465	-0.3316727034	 0.112377
H	-4.5587641021	-0.8199585426	-0.0172113059	 0.128147
H	-4.1163688352	-1.6196501928	-1.5114180306	 0.129492
H	-3.1528730947	-3.5417422838	-0.207706764	 0.101788
H	-3.5808949722	-2.7388844638	 1.2939582104	 0.11122
H	-6.047355146	-2.8829751609	 0.6359491677	 0.081255
H	-6.7035720233	-4.1884874182	-1.393128581	 0.11071
H	-4.95071172	-4.4254386799	-1.8230822117	 0.109849
H	-4.5511097559	-5.5858802809	 0.3771061156	 0.111436
H	-6.2997855639	-5.3573364293	 0.8276473344	 0.111142
