14
gdb 19633	6.02011	1.72001	1.65451	0.9199	72.63	-0.2164	0.0314	0.2478	793.1604	0.106316	-308.12103	-308.114868	-308.113923	-308.150967	25.112	
C	 0.0563625314	-1.166301134	-0.0376701709	-0.38262
C	 0.0184993569	 0.0379945087	-0.0124069974	 0.024218
C	-0.0383426272	 1.4468096885	 0.0299365022	 0.356403
C	-0.9170066699	 2.4545767286	 0.8439604483	-0.17354
C	-0.8261800022	 3.4614229099	-0.2904993897	-0.089546
C	 0.2132768108	 3.4699150563	 0.8209049238	-0.089547
C	 1.0956429651	 2.4870580563	-0.0030139506	-0.153296
C	 0.0622660279	 2.478543737	-1.1078308775	-0.153279
H	 0.0931093715	-2.2267406539	-0.0627096799	 0.175468
H	-1.6973443734	 2.2953844658	 1.574990909	 0.095838
H	-1.5286881637	 4.2263960235	-0.59018606	 0.094255
H	 0.4594877697	 4.242635485	 1.5356061763	 0.094257
H	 2.1603309546	 2.3021212077	-0.0419002131	 0.100695
H	 0.1735693684	 2.2857457308	-2.1659972906	 0.100695
