21
gdb 86418	2.36956	1.55265	1.16829	1.6771	76.7	-0.2557	0.0608	0.3165	1119.259	0.184716	-424.218569	-424.210414	-424.20947	-424.250825	33.171	
O	 0.3996772524	 0.8291195123	-1.0101441084	-0.438173
C	 0.0621261485	-0.1834792232	-0.0696543277	 0.124937
C	 0.6211786	 0.1481486453	 1.3349701939	-0.243453
C	-0.1603811971	-0.4985162872	 2.5039336732	 0.124938
O	-0.007781743	 0.2522170628	 3.7026541174	-0.438173
C	-1.632860061	-0.704339523	 2.1128005374	-0.031741
C	-1.6973385485	-1.6826927742	 0.9103992837	-0.234723
C	-1.4507100195	-0.4464419275	 0.0059888255	-0.031742
C	-2.1166431393	 0.4035535965	 1.1295273762	-0.254767
H	-0.0021415519	 1.6530681363	-0.7127494147	 0.274036
H	 0.5438875587	-1.0841829717	-0.4676452164	 0.089616
H	 1.689072535	-0.0748421125	 1.4000014537	 0.110143
H	 0.5384221095	 1.2362633436	 1.4610124236	 0.081048
H	 0.2656748516	-1.4780904806	 2.7502441236	 0.089616
H	-0.3704647666	 1.1315515834	 3.5476541478	 0.274035
H	-2.2302046989	-0.9210410916	 3.0009538686	 0.068977
H	-0.9630979065	-2.4954471417	 0.8743894188	 0.090831
H	-2.6982503843	-2.0988603103	 0.7729194827	 0.099825
H	-1.8846303214	-0.4317613802	-0.9960561909	 0.068977
H	-3.2052660772	 0.4061081318	 1.0357206523	 0.103472
H	-1.7816158304	 1.4355249916	 1.2848182397	 0.07232
