14
gdb 80786	2.04162	1.83764	1.18082	5.802	68.24	-0.2649	-0.0234	0.2415	1021.6711	0.100639	-436.654608	-436.646884	-436.64594	-436.686873	28.845	
O	-0.0517126741	 1.4182718578	-0.0808102249	-0.425047
C	 0.0135380776	 0.027922032	-0.0160253862	 0.118385
C	-0.0209829408	-0.6628692452	 1.4095887769	-0.245072
C	-1.504440118	-0.1519813544	 1.5028231585	-0.267596
C	-1.392569993	-0.6618718665	 0.0141589671	 0.055461
C	-2.3962651802	-0.6539847587	-1.0066196663	 0.165265
N	-3.2049757969	-0.6665433881	-1.8331925802	-0.343
C	-0.6210157559	-1.8509060416	 0.6679341566	 0.42607
O	-0.5817760365	-3.0351532479	 0.6189536883	-0.294966
H	 0.8396866863	 1.7719370178	 0.0007755508	 0.301471
H	 0.7287585666	-0.3875510633	-0.7337038577	 0.10913
H	 0.7425866607	-0.6478468991	 2.1819543691	 0.111778
H	-2.1844489782	-0.6964344134	 2.1568578024	 0.135354
H	-1.6030439576	 0.9269741205	 1.5860038257	 0.152768
