16
gdb 49471	2.19649	1.54713	1.07242	5.7916	73.73	-0.2509	-0.0316	0.2192	1115.0112	0.124431	-400.736281	-400.728324	-400.72738	-400.769309	29.302	
O	 0.0742320386	 0.0013460942	-0.522035327	-0.262055
C	 0.0241394079	 1.1098835207	-0.0470245471	 0.14179
C	 1.229347092	 1.9755175369	 0.0838011082	-0.096497
C	 1.2612830331	 3.4715026114	-0.1666720994	-0.076887
C	-0.0100347688	 4.1727264	 0.3321118718	-0.265253
C	 0.3219678866	 3.6695399491	 1.7869959978	-0.151194
C	-0.6832235278	 2.9303371583	 2.5388426747	 0.277147
N	-1.487533918	 2.3485771458	 3.1319763717	-0.325134
C	 1.5492031987	 2.9277165974	 1.2226742049	-0.092565
H	-0.9377879363	 1.5324818388	 0.3044720566	 0.096484
H	 2.1185595271	 1.4682800227	-0.2804949041	 0.120304
H	 1.9520011926	 3.8850198972	-0.8902372344	 0.113972
H	 0.0487960279	 5.2598462261	 0.2692878084	 0.130114
H	-0.9601036553	 3.8482358602	-0.0949001947	 0.132729
H	 0.6500474897	 4.5128232522	 2.3999688932	 0.139698
H	 2.4884063921	 2.8333873488	 1.7527840193	 0.117347
