23
gdb 104439	2.91101	1.13818	1.03791	2.0078	81.11	-0.2416	0.0704	0.312	1274.6133	0.206596	-425.433141	-425.423787	-425.422843	-425.466585	36.521	
C	-0.1652854974	 1.6110348923	 0.0119166615	-0.426123
C	-0.0240017569	 0.076710163	-0.0107494633	 0.267234
C	-1.4268051455	-0.5458313366	-0.0012914263	-0.107631
O	-2.1322124349	-0.120554578	-1.1591749618	-0.428039
C	 0.7431473008	-0.3981702532	-1.2703867457	-0.209722
C	 2.2409992431	-0.1014609106	-1.1855223927	-0.093418
O	 2.8248742152	-0.6556797702	-0.0172576027	-0.243269
C	 2.2390289642	-0.1315331443	 1.1605953974	-0.086325
C	 0.7396070353	-0.4347406452	 1.2334318275	-0.235196
H	 0.8001514795	 2.1207106819	-0.038432508	 0.110533
H	-0.7718634603	 1.9457852392	-0.8327555052	 0.133899
H	-0.6612901557	 1.9381079393	 0.9331114181	 0.10441
H	-1.3358509424	-1.643782131	 0.0202390866	 0.081686
H	-1.9542277825	-0.2388504241	 0.9173798958	 0.079622
H	-3.0110532199	-0.508776168	-1.1372816645	 0.288405
H	 0.6179622571	-1.4837001201	-1.3732271991	 0.093329
H	 0.3176300532	 0.0596932736	-2.1685773759	 0.106673
H	 2.7702557937	-0.5500478297	-2.0316171504	 0.103507
H	 2.4272672972	 0.9852885132	-1.2186098399	 0.086055
H	 2.7657413432	-0.5979443707	 1.9986638206	 0.103355
H	 2.4178124356	 0.9553814814	 1.221078054	 0.086438
H	 0.3204716512	 0.0015561434	 2.1489177425	 0.088502
H	 0.6194890064	-1.5233248156	 1.3084311418	 0.096075
