22
gdb 114219	4.55447	0.89883	0.82243	1.7542	89.61	-0.2238	0.02	0.2438	1487.3259	0.195221	-367.204118	-367.195205	-367.19426	-367.238008	34.458	
C	 0.1617029573	 1.5344306467	 0.0185697618	-0.388005
C	 0.0188067909	 0.0096895873	 0.0101840543	-0.177546
C	-1.4373995234	-0.483994483	 0.0468383702	-0.018695
C	-1.569427617	-2.0263653581	-0.0976863562	-0.342179
C	-2.6955594012	-2.4309654028	 0.8592854475	 0.331497
C	-3.8351029936	-3.2975557767	 0.442765022	-0.290385
N	-2.8251650696	-3.7986460439	 1.3922981866	-0.364442
C	-2.8516934739	-1.2738404745	 1.7807268862	-0.122337
C	-2.1763675525	-0.2114671051	 1.3442265899	-0.084585
H	 1.213540012	 1.8316927119	-0.0358498374	 0.113325
H	-0.3554667968	 1.9846567549	-0.8362700057	 0.114045
H	-0.257251701	 1.9764238733	 0.9283751518	 0.118633
H	 0.4988034406	-0.3915344214	-0.8920412907	 0.09398
H	 0.5596685548	-0.4202940569	 0.8633155162	 0.096721
H	-1.9740200412	 0.0111013689	-0.7778452874	 0.076654
H	-1.7456883041	-2.3434688006	-1.1293709805	 0.098136
H	-0.6342750029	-2.4956030533	 0.2355080246	 0.103166
H	-4.8247295637	-3.146001832	 0.8666297816	 0.114378
H	-3.8342397436	-3.6768876277	-0.5766056785	 0.10749
H	-2.1742183634	-4.4143241194	 0.9091435923	 0.226715
H	-3.4698964235	-1.3278946964	 2.669179926	 0.099759
H	-2.1661011544	 0.7596514888	 1.8263125854	 0.093675
