17
gdb 73905	2.32693	1.34457	0.8657	4.1598	78.67	-0.2482	-0.0643	0.1838	1280.4666	0.133823	-421.8828	-421.873976	-421.873032	-421.916901	31.848	
C	-0.0072947607	 1.5107467056	 0.095239778	-0.497454
C	 0.0098884419	 0.0190128431	-0.0050260511	 0.21791
C	-0.0039505929	-0.7560980744	-1.1133121296	 0.128384
C	 0.0220501146	-2.2301153809	-0.7956039093	-0.423668
C	 0.0555014337	-2.2705433198	 0.7342145029	 0.393494
O	 0.0830683272	-3.2543723663	 1.4234993431	-0.297277
C	 0.0477641408	-0.8203479813	 1.2459156208	-0.415086
C	-0.0399388874	-0.2925392025	-2.500999122	 0.069
O	-0.050734093	-1.0451330083	-3.4527974765	-0.269334
H	 0.8779070789	 1.8650151738	 0.6381521056	 0.142697
H	-0.0348896331	 2.0105471156	-0.8736326899	 0.141379
H	-0.8768983844	 1.842238468	 0.6763928715	 0.14269
H	-0.8530776009	-2.7690356134	-1.1774121797	 0.15266
H	 0.8936746807	-2.7463124757	-1.2149815412	 0.152658
H	 0.9346795093	-0.6268872324	 1.864241483	 0.146651
H	-0.8163438197	-0.6495539923	 1.9020540093	 0.146649
H	-0.057465535	 0.8069803911	-2.6512230749	 0.068648
