20
gdb 58538	2.06723	1.432	1.40764	3.281	75.	-0.2432	0.0179	0.2611	1112.838	0.169015	-440.308519	-440.298473	-440.297528	-440.343244	36.868	
C	-0.0286424443	 1.5596600907	 0.0408904708	-0.395318
C	 0.0019925156	 0.0231722302	-0.0092916531	-0.010735
C	 0.6153808601	-0.4557389684	-1.3332246768	-0.412955
C	 0.721786112	-0.5349556161	 1.2288609507	 0.287693
O	 0.0722960995	-0.0248814802	 2.3694535112	-0.47793
C	 1.0038820602	-2.0841710502	 1.2602800256	-0.231539
N	 2.427980149	-1.7538145286	 1.1649060672	-0.317726
C	 2.282814007	-0.3911997765	 1.2163684553	 0.342836
O	 3.0688562311	 0.5195162631	 1.2578085881	-0.368037
H	 0.9886217486	 1.9638756669	 0.034934429	 0.139026
H	-0.560022203	 1.955623523	-0.8302332391	 0.102435
H	-0.5282706459	 1.912768704	 0.943870449	 0.129953
H	-1.0313039304	-0.3467715598	 0.0515616708	 0.082538
H	 1.6401869852	-0.0871994255	-1.4495359368	 0.134486
H	 0.6336110347	-1.5453566009	-1.4264655555	 0.110233
H	 0.0301561555	-0.0672321427	-2.1719279692	 0.117464
H	 0.6810568941	-0.0454996595	 3.1149953026	 0.291307
H	 0.7101426144	-2.5422899355	 2.2099947515	 0.109166
H	 0.6168926039	-2.6763128997	 0.4269860951	 0.114358
H	 3.2541188826	-2.3327089843	 1.1405880737	 0.252746
