21
gdb 105888	2.04043	1.48459	1.31721	0.9434	78.79	-0.2384	0.074	0.3125	1147.5766	0.180703	-424.181635	-424.171957	-424.171013	-424.215788	36.224	
C	-0.3149531457	 1.3336663989	-0.1180684755	-0.259312
O	 0.2184328974	 0.0313114778	 0.0650867155	-0.280179
C	 0.7708512637	-0.5123302243	-1.0780339639	 0.388035
C	-0.0961281626	-1.0849483357	-2.1524662595	 0.024579
O	 0.0421841083	-0.7220034142	-3.4998872119	-0.419971
C	 0.8568308559	-2.0077164822	-1.4347343542	-0.210724
C	 2.2837396324	-1.8002382244	-1.9588968524	-0.248644
C	 2.2370083788	-0.3026432911	-1.5002394472	-0.027215
C	 2.6184311359	 0.8015798162	-2.4807491522	-0.425887
H	 0.466333046	 2.0643125731	-0.3675550009	 0.115387
H	-1.0728928103	 1.348525095	-0.9133109629	 0.115607
H	-0.7794371577	 1.6230110899	 0.8274989826	 0.124893
H	-1.1292235956	-1.1989828404	-1.8198121042	 0.091743
H	-0.1356125368	-1.5023074527	-4.036376774	 0.286366
H	 0.5026752746	-2.8684091228	-0.8798185492	 0.092181
H	 3.0352005473	-2.389994757	-1.4311877354	 0.102
H	 2.4044175927	-1.9510560929	-3.0354205572	 0.093226
H	 2.8237946448	-0.2052665701	-0.5805352291	 0.080137
H	 2.0321387404	 0.7283644434	-3.3986006048	 0.142243
H	 2.45238603	 1.7933846237	-2.0454960202	 0.108929
H	 3.6814437005	 0.7344235096	-2.7401428632	 0.106604
