14
gdb 128199	4.1151	1.15257	0.90578	6.7074	71.9	-0.2424	-0.0875	0.1549	1207.7649	0.099794	-469.985435	-469.977049	-469.976105	-470.01952	29.37	
C	 0.0123419194	 1.4899693279	-0.0008483673	-0.319304
N	-0.011578324	 0.0357953616	-0.0620559244	-0.35599
C	 0.5593102886	-0.7100047302	-1.0346069887	 0.498722
C	 0.6300882861	-2.0745847663	-1.0425899387	-0.407642
C	 1.2433046215	-2.7437642452	-2.1427166727	 0.483
O	 1.4001391697	-3.917684406	-2.3325221689	-0.343786
O	 1.7348984903	-1.8621963675	-3.1491566454	-0.253941
N	 1.6330241259	-0.4838651825	-3.0717073421	 0.069468
N	 1.0871199387	 0.0478326124	-2.0894340968	-0.199224
H	 1.0133204888	 1.8796357447	 0.2169145758	 0.144493
H	-0.3242026018	 1.9212258417	-0.9448256439	 0.165122
H	-0.6675404423	 1.8050892845	 0.7926240231	 0.135648
H	-0.340456237	-0.4611991543	 0.7486850777	 0.26309
H	 0.2341053259	-2.6835918509	-0.2393858276	 0.120343
