17
gdb 43924	3.58413	1.57813	1.37427	3.9557	73.85	-0.246	0.0134	0.2594	954.848	0.138423	-417.926655	-417.920131	-417.919187	-417.957312	27.502	
N	-0.0740975707	 1.2298085351	-0.4330634342	-0.541024
C	 0.0030567219	 0.0125898868	-0.127730004	 0.283975
N	 1.0660866297	-0.9392590512	 0.0742067623	-0.450257
C	 0.1659536217	-1.7557339741	 0.8986425241	 0.306361
C	-0.4201833225	-3.1698464468	 1.1651349563	-0.32905
C	-1.4178015054	-2.2417067325	 1.9885838756	 0.107122
C	-0.1917076954	-1.3948099473	 2.3685842171	-0.269984
O	-2.0899920984	-1.3559893316	 1.0429625812	-0.29071
C	-1.0036363334	-1.134183183	 0.1506071026	 0.078802
H	 0.8484934984	 1.6529403738	-0.5554991454	 0.21736
H	 1.9754430849	-0.6434401086	 0.4094335027	 0.238001
H	-0.8086835206	-3.7311355047	 0.3137706027	 0.114787
H	 0.1487610909	-3.8128358307	 1.8391778418	 0.10837
H	-2.1346038695	-2.6461590694	 2.6994574872	 0.097574
H	 0.4766822832	-1.8669190105	 3.0919563223	 0.10005
H	-0.3839088077	-0.3486730084	 2.6153763565	 0.11938
H	-1.2139470572	-1.6171186369	-0.810403849	 0.109245
