14
gdb 75105	3.03633	1.5152	1.05109	1.9297	67.33	-0.2527	-0.0629	0.1898	1065.0458	0.102143	-470.057939	-470.050195	-470.049251	-470.090461	28.962	
N	 0.023703949	 1.3466257534	-0.0902301635	-0.539915
C	-0.0680811362	-0.0110007593	-0.0313503756	 0.248628
N	-1.1788889175	-0.6395767779	-0.0514954237	-0.307503
C	-1.1392181225	-2.0878483492	-0.026011327	-0.235792
C	 0.1528652851	-2.7179349235	-0.4723443337	 0.374375
N	 0.2275765934	-3.8211064607	-1.0674615187	-0.478831
O	 1.3151346388	-2.0147096006	-0.1336491548	-0.229244
C	 1.2877526646	-0.6738406009	 0.0729650497	 0.401697
O	 2.2962654309	-0.0791300007	 0.3330143515	-0.318743
H	 0.9002044279	 1.7542116945	 0.1930489737	 0.278892
H	-0.8222142203	 1.8727862055	 0.0561682133	 0.267496
H	-1.3582098966	-2.435372754	 0.9957664185	 0.143981
H	-1.934861611	-2.4918306273	-0.6566963267	 0.156455
H	 1.1998511743	-4.0791385693	-1.2471579229	 0.238505
