21
gdb 93928	3.55357	1.03326	0.8325	3.9569	80.11	-0.2258	0.0643	0.2901	1408.0893	0.184375	-420.468644	-420.459285	-420.45834	-420.503126	34.919	
C	-0.1434496674	 1.4959358956	 0.0836941854	-0.408357
C	 0.1426682329	-0.0021245384	 0.0372702747	 0.017012
C	 1.0079144394	-0.4591720802	-1.1526259546	-0.223831
C	 1.5123750531	-1.8449921624	-0.7232855897	-0.184218
N	 1.5622484946	-1.7497596392	 0.7350344101	-0.098973
C	 0.9364173812	-0.5301378062	 1.2432754626	-0.146121
C	 2.2745244687	-2.5597256148	 1.5758266344	 0.433294
N	 2.8780824663	-3.6597632311	 0.9651260315	-0.571435
O	 2.4088072455	-2.3200928266	 2.7650638817	-0.411975
H	 0.7881761912	 2.0719580993	 0.1205862715	 0.118583
H	-0.7029397962	 1.8191121506	-0.8001030475	 0.115399
H	-0.7347163403	 1.7614014045	 0.9662066025	 0.120683
H	-0.8103705025	-0.5465676139	-0.0065331993	 0.079217
H	 0.4634063735	-0.4846963794	-2.0999717068	 0.102888
H	 1.8566822584	 0.224594408	-1.2728470808	 0.108614
H	 0.8150154342	-2.6326998939	-1.0505293833	 0.097265
H	 2.4980876428	-2.0821161637	-1.1375897076	 0.119975
H	 1.6969979176	 0.1950511633	 1.5665836756	 0.106746
H	 0.3115049065	-0.7495212643	 2.1128307648	 0.122423
H	 2.402863895	-4.0850825571	 0.1831145404	 0.246665
H	 3.2063622353	-4.3247695001	 1.6495576744	 0.256145
