12
gdb 23945	9.41681	0.67884	0.6332	8.6804	87.07	-0.2431	-0.0532	0.1899	1600.9586	0.080163	-394.558643	-394.551357	-394.550413	-394.591165	26.111	
N	 0.0570456753	-3.7092901535	-0.018553431	-0.339891
C	 0.0460236066	-2.5464387274	-0.0119591023	 0.155603
C	 0.0271259135	-1.1845068191	-0.0041554307	 0.293017
C	 0.0004220711	 0.0265713295	 0.0029151732	-0.097321
C	-0.0364916333	 1.4340606086	 0.0112528667	 0.103443
C	-1.1616476437	 2.2350125042	 0.0309022352	-0.183789
N	-0.6892752723	 3.5169252369	 0.0316602387	-0.222875
C	 0.6782862538	 3.451927635	 0.0128318911	-0.001882
N	 1.1082482181	 2.2182316683	 0.0001577918	-0.291312
H	-2.2122341554	 2.0000333956	 0.0437785255	 0.156655
H	-1.2499474429	 4.3533408254	 0.0438762658	 0.28188
H	 1.2959595092	 4.3373819665	 0.009419166	 0.146471
