19
gdb 67010	2.16651	1.71119	1.56753	3.5811	79.8	-0.2285	0.0137	0.2422	1014.707	0.158316	-385.877105	-385.868585	-385.867641	-385.909882	32.587	
C	-0.0881906632	 1.5524412292	-0.0958382495	-0.524077
C	 0.0434580925	 0.0682468324	-0.0093608829	 0.300646
C	 0.591511596	-1.0110522008	-0.8818310345	-0.120076
C	 1.3328715618	-1.6825987342	 0.2749421899	-0.280605
C	 0.3519075066	-0.9226317676	 1.215143645	 0.126695
C	 0.68289089	-0.5677451866	 2.6372029694	-0.503537
C	-1.0206024855	-1.5300167951	 0.8543050887	 0.416532
O	-1.9162375004	-1.9659891564	 1.5262897446	-0.355538
C	-0.9102228754	-1.034234989	-0.5472399301	-0.244423
H	 0.8492255734	 2.0516636731	 0.1739911761	 0.129099
H	-0.3487156414	 1.8603404419	-1.1137266829	 0.130684
H	-0.8702797436	 1.9240922433	 0.5752325492	 0.135297
H	 0.8927335877	-0.9365338844	-1.9200287346	 0.095892
H	 1.3355971322	-2.7771861112	 0.3357164967	 0.101104
H	 2.3552619551	-1.3034857148	 0.3661896337	 0.103384
H	 1.60674445	 0.0162793751	 2.7041678925	 0.115755
H	-0.125101862	 0.0073818124	 3.1003435504	 0.130801
H	 0.8167079655	-1.4778682029	 3.2318099513	 0.135834
H	-1.6744700694	-0.9309593644	-1.3056304526	 0.106534
