17
gdb 105601	2.18631	1.499	1.25151	1.9844	70.13	-0.2349	-0.0435	0.1915	1085.5846	0.13469	-455.127807	-455.118639	-455.117695	-455.162184	32.359	
C	-0.3037410444	 1.5168692916	-0.0400394456	-0.334865
N	 0.0999822783	 0.1051574016	 0.0583257206	-0.347528
C	 0.7004893249	-0.4372727739	-1.1379830736	 0.059728
C	 0.5758865937	-1.9844140071	-1.2986711078	-0.120342
O	-0.1945274329	-1.8088833895	-2.5248422191	-0.247462
C	-0.1627744185	-0.4413829607	-2.4016463592	 0.421469
N	-0.6567370869	 0.4598471181	-3.1177627912	-0.533415
C	 2.1359964618	 0.0249931832	-1.402492282	 0.132933
O	 2.7782358455	 0.6436472802	-0.5956065453	-0.25394
H	 0.5232913325	 2.2006553757	-0.2763135941	 0.119518
H	-1.0684684252	 1.6236271317	-0.8108179168	 0.156356
H	-0.7344825922	 1.8123227927	 0.9202290728	 0.119458
H	 0.7940936657	 0.0300754384	 0.798237478	 0.230417
H	 1.4901366999	-2.55133439	-1.4909484638	 0.125075
H	-0.0223668764	-2.4409723322	-0.50889839	 0.141668
H	-1.1853681927	 0.0698521326	-3.9005598379	 0.236094
H	 2.5664850468	-0.2834341524	-2.380908295	 0.094837
