23
gdb 92539	2.21124	1.67953	1.34037	1.4511	83.81	-0.2359	0.0728	0.3088	1110.533	0.207174	-388.294187	-388.285526	-388.284581	-388.326998	34.57	
C	 1.0911042968	 1.0391304866	-0.7080667262	-0.401977
C	 0.2752896822	-0.0813309564	-0.0559855569	 0.105155
O	 0.2684888775	-1.260141722	-0.8705478841	-0.27536
C	 1.1851505615	-2.2225393331	-0.3772267734	 0.11348
C	 2.6533312994	-2.0997296735	-0.8802234917	-0.237855
C	 3.0847748865	-1.565909069	 0.5172759007	-0.242894
C	 1.629641008	-1.7741593392	 1.0442162378	-0.042383
C	 0.7370664779	-0.5581302423	 1.3481140861	 0.000858
C	 1.3349826854	 0.5083421482	 2.2654455845	-0.414353
H	 2.1577680709	 0.8072470547	-0.7627646881	 0.118407
H	 0.7286679188	 1.1974211574	-1.7276659808	 0.122505
H	 0.9747344647	 1.9784707926	-0.1576884118	 0.111171
H	-0.76785947	 0.2556452238	-0.0076652948	 0.0768
H	 0.7255716621	-3.2073653437	-0.4996244409	 0.070235
H	 3.1047354345	-3.0595932341	-1.1448422161	 0.096857
H	 2.7760086488	-1.4160517708	-1.7227448416	 0.105194
H	 3.8325590981	-2.1783251574	 1.0261945725	 0.098828
H	 3.4414310779	-0.5334893685	 0.5300237874	 0.09891
H	 1.5569600441	-2.5287263929	 1.830086612	 0.066343
H	-0.1589733709	-0.9571362193	 1.8403592795	 0.078849
H	 2.2566584019	 0.9346130582	 1.8595905961	 0.121093
H	 0.6311780302	 1.3322362185	 2.4252095545	 0.115595
H	 1.5708848536	 0.0836164923	 3.2466019853	 0.114541
