19
gdb 26358	2.58142	1.34446	1.07377	2.5812	78.83	-0.1852	0.0468	0.232	1195.7954	0.159546	-419.21877	-419.209518	-419.208573	-419.253302	34.633	
C	 0.0224584678	 1.4584747326	-0.0800987662	-0.323635
N	-0.0600146584	 0.0031788033	 0.0144064133	-0.176529
C	 0.8410585381	-0.5368154046	 1.0294847802	-0.323746
C	-1.3885842733	-0.5046550501	 0.0821144197	 0.133044
C	-2.3810626672	-0.3733730288	 1.0374931751	-0.152086
N	-3.4676757501	-1.0712733327	 0.5927557944	-0.238887
C	-3.2070716773	-1.6569488069	-0.6343329443	-0.186872
C	-1.9189471733	-1.3137554443	-0.9647108655	 0.27142
O	-1.2215708865	-1.6550810922	-2.0777419667	-0.454404
H	 1.0498559473	 1.7538787917	-0.3212471932	 0.112553
H	-0.6368948387	 1.8110005261	-0.8765873287	 0.127891
H	-0.2649433604	 1.9694045611	 0.8558882145	 0.095597
H	 0.6132635079	-0.1729855749	 2.0470592871	 0.095656
H	 0.7739611094	-1.6271802287	 1.0350108026	 0.127963
H	 1.8728740399	-0.251926203	 0.7946211081	 0.112496
H	-2.3994495965	 0.1509394991	 1.9790693708	 0.116257
H	-4.3385868184	-1.1507924934	 1.0847969803	 0.261359
H	-3.9428611667	-2.2499704927	-1.1490694516	 0.119056
H	-0.3578396536	-1.2293201916	-1.9584392497	 0.282866
