14
gdb 690	6.83781	3.52199	3.0011	1.6252	52.69	-0.2317	0.0887	0.3204	503.2217	0.11981	-270.389386	-270.383858	-270.382914	-270.417957	21.073	
C	-0.0670798397	 1.5541402571	 0.0032352382	-0.402965
C	 0.0933008887	 0.0500139515	 0.0739794005	 0.157495
O	 1.1321116187	-0.4724859422	-0.8134336901	-0.306472
C	 1.6962191707	-1.2172000334	 0.267958013	 0.114529
C	 2.2312079025	-0.303323255	 1.3218434634	-0.295733
C	 0.748591569	-0.62519817	 1.2823146612	-0.142001
H	 0.8500886184	 2.0705145239	 0.2980060949	 0.121624
H	-0.319626036	 1.8597304307	-1.0171499848	 0.128358
H	-0.8778291406	 1.8769895291	 0.6653635446	 0.117226
H	-0.8545344684	-0.4459072973	-0.1739665368	 0.080835
H	 2.0268184544	-2.2303998917	 0.0714294391	 0.101736
H	 2.7647842188	-0.7860685513	 2.1350847099	 0.113191
H	 2.6094244073	 0.6756869874	 1.0426983069	 0.115701
H	 0.2235754962	-1.0824151188	 2.10984996	 0.096477
