19
gdb 57268	2.11494	1.6286	1.23398	2.6214	75.04	-0.2596	0.01	0.2696	1099.2211	0.157155	-419.194565	-419.184762	-419.183818	-419.228639	36.727	
C	-0.2072605136	 1.5406984941	-0.0917747965	-0.408026
C	 0.0034923973	 0.0211923016	-0.0309689536	 0.141816
O	 0.7552191804	-0.2250372056	 1.150296284	-0.432264
C	-1.3297200317	-0.6287370588	 0.0910604393	 0.248664
N	-2.3599376445	-1.1434784094	 0.1937184521	-0.348751
C	 0.7451899195	-0.5268618178	-1.2685229536	 0.301065
C	 2.0774842553	 0.1412059683	-1.5466711288	-0.4581
C	 0.5639041632	-1.9649998953	-1.6171708463	-0.299528
N	-0.0122076508	-0.9057025488	-2.4670388005	-0.355552
H	 0.7630323679	 2.0391225601	-0.083149196	 0.142837
H	-0.7492453265	 1.8186529379	-0.9986705223	 0.139793
H	-0.7754853087	 1.8706257716	 0.7799632157	 0.1469
H	 0.9543857296	-1.168474544	 1.1843183516	 0.292006
H	 2.700438456	 0.1568795463	-0.6480559686	 0.128793
H	 2.6041172477	-0.4035222565	-2.3329357915	 0.130622
H	 1.9419523215	 1.1696187744	-1.8938161431	 0.12954
H	 1.3928308244	-2.5096987048	-2.060226631	 0.122347
H	-0.1180130704	-2.5722214649	-1.027845349	 0.132787
H	-1.0156903767	-0.8513926485	-2.300405932	 0.245053
