17
gdb 133875	3.51898	2.15095	1.87617	2.3177	73.27	-0.2283	0.0744	0.3027	785.0566	0.139289	-384.596376	-384.59102	-384.590076	-384.625639	24.482	
C	 0.4444737774	-0.6675210703	-1.5433892751	-0.361137
C	 1.0910368595	 0.6939634747	-1.1648231622	-0.060781
C	 1.208623207	 0.8356320309	 0.3635814197	-0.10519
C	 0.1034263158	 1.5631984398	-0.3654662332	-0.10519
C	-1.0873779161	 0.6781286647	-0.074788528	-0.061062
C	-1.044648359	-0.1189813687	 1.2614687451	-0.013414
O	-1.3958974749	-1.3924320469	 0.5230808287	-0.399329
C	-0.3989094147	-0.6925618805	-0.2898483435	 0.421277
C	 0.4635250374	-0.3428521786	 0.9482709523	-0.061064
H	 1.1823382107	-1.4718034751	-1.6101895003	 0.114757
H	-0.1270137134	-0.609840146	-2.4739007915	 0.114757
H	 1.8235993345	 1.1527044997	-1.8175370669	 0.090038
H	 2.0416256789	 1.3440926335	 0.8303082958	 0.088887
H	 0.0735480979	 2.6397045796	-0.4679405514	 0.088887
H	-2.051483003	 0.8437725279	-0.5516685408	 0.079093
H	-1.5750166299	 0.020352941	 2.2045304461	 0.090379
H	 0.9847972418	-1.1550479257	 1.4512263653	 0.079093
