18
gdb 83487	2.96679	1.52803	1.47288	3.547	72.53	-0.2538	0.0203	0.274	987.9314	0.14988	-439.100439	-439.093092	-439.092147	-439.13199	29.161	
C	-0.1193116069	 1.5165266668	 0.0318237331	-0.438708
C	 0.056611089	 0.0032482384	 0.0307336286	-0.002532
C	 1.0800090361	-0.6032239941	-0.9566480421	 0.047926
C	 2.4018117393	-0.0517451528	-0.4170121219	-0.089876
O	 2.1844047649	-0.0507541671	 1.006275054	-0.278212
C	 0.8605256194	-0.5925473596	 1.2048965232	-0.00227
C	 0.9120302294	-2.0458678406	 0.7768558893	 0.448893
N	 0.8494777892	-3.0787687975	 1.4926491302	-0.566779
O	 1.0566376733	-2.0099626347	-0.5972590939	-0.264037
H	 0.800425928	 2.0291161536	 0.3229094954	 0.142075
H	-0.4217198047	 1.8796931515	-0.9561201358	 0.120652
H	-0.8999453031	 1.8065583905	 0.7415410886	 0.128958
H	-0.9047521295	-0.5045511202	-0.0909251318	 0.098508
H	 0.9025762856	-0.5090145916	-2.0263672573	 0.096397
H	 3.2407532451	-0.7070591925	-0.6726889839	 0.120727
H	 2.6158848157	 0.9651722809	-0.7660766995	 0.108344
H	 0.5483145546	-0.414635255	 2.2300203607	 0.106383
H	 0.9272829344	-3.9225156961	 0.9204335132	 0.223552
