16
gdb 129662	3.03991	1.29045	0.94724	2.4785	69.05	-0.1903	0.0064	0.1967	1190.9814	0.125029	-471.185362	-471.176281	-471.175337	-471.219561	32.853	
N	-0.0757307015	 1.3694973548	-0.1382023797	-0.605909
C	-0.0939267013	-0.0153720081	-0.0502790715	 0.391164
C	-1.1234482232	-0.9122175794	-0.0824923631	-0.001133
N	-2.5098540215	-0.668229662	-0.1355050644	-0.630275
C	-0.458231414	-2.1659385	 0.0085099121	 0.328976
C	-1.1021315931	-3.5186455549	 0.0209823021	-0.188039
O	-2.0983067996	-3.6399637732	-0.9961105878	-0.412521
N	 0.8515024731	-2.0402325411	 0.0567606433	-0.238701
O	 1.0869139327	-0.6627155862	 0.0362516722	-0.214772
H	 0.8642823636	 1.7398731211	-0.0751834233	 0.261816
H	-0.6727930481	 1.8159818115	 0.5487136365	 0.26293
H	-2.7237770587	 0.1218633939	-0.7353640025	 0.241417
H	-2.9862292614	-1.487566642	-0.4986125018	 0.255445
H	-0.3295041854	-4.2931509666	-0.0612064704	 0.125946
H	-1.6372965168	-3.6762562249	 0.9634087914	 0.13211
H	-1.6540286947	-3.5457384428	-1.8458233032	 0.291547
