15
gdb 48082	4.19514	1.03507	0.84142	4.8002	70.99	-0.2419	-0.1084	0.1335	1294.0316	0.112664	-453.965254	-453.956918	-453.955973	-453.999225	29.009	
O	 0.0385182678	-0.0363334569	 0.355668035	-0.216224
C	 0.0253272584	 1.1607288027	 0.2564571584	 0.085771
C	 1.330869892	 1.9435015413	-0.0008160238	 0.22655
O	 2.3969208019	 1.3854151719	-0.117659284	-0.282983
C	 1.2199637843	 3.4269634656	-0.0778800954	 0.29102
N	 0.1199379621	 4.0566664354	 0.1463181112	-0.294504
C	 0.446406669	 5.4874329363	-0.0058382012	-0.170507
C	 2.0000998354	 5.5678326617	-0.0706046059	-0.185315
N	 2.3259772229	 4.1753173057	-0.3960789703	-0.341399
H	-0.8906696095	 1.7716921391	 0.335777916	 0.133354
H	-0.0135801551	 5.8499848662	-0.9342157062	 0.128733
H	 0.0177367536	 6.0675073059	 0.8153089977	 0.126265
H	 2.3598794306	 6.2561396503	-0.8391303799	 0.123208
H	 2.4341771501	 5.8678955411	 0.892928698	 0.113878
H	 3.2384730964	 3.7829921037	-0.2200435995	 0.262154
