16
gdb 82678	2.83364	1.59359	1.23604	3.667	73.61	-0.2561	0.0106	0.2667	1012.8194	0.124389	-400.69889	-400.691432	-400.690487	-400.730761	28.771	
C	 0.043819434	 1.5978881631	-0.060166388	-0.424316
C	 0.0682898198	 0.0818344478	 0.0149674231	-0.048645
C	 1.1235798447	-0.7090826059	-0.8119209776	 0.03685
O	 2.398515404	-0.1272449527	-0.403512597	-0.279706
C	 2.212250379	-0.7854993419	 0.8341482942	 0.060006
C	 1.2236567682	-1.7715057426	 0.3432337771	-0.192971
C	 0.7038483838	-0.6249935472	 1.2266035952	 0.172758
C	 0.2449647405	-0.6774799063	 2.5694636932	 0.164118
N	-0.1291495951	-0.7125587837	 3.6653412612	-0.350754
H	 1.0531878619	 2.0042583816	 0.0345364257	 0.140087
H	-0.3756399996	 1.9321477436	-1.0150700236	 0.120614
H	-0.5761554439	 2.0136709255	 0.7403642654	 0.133218
H	-0.919354382	-0.3551241173	-0.1628273592	 0.098098
H	 1.042664734	-0.8752721091	-1.8828259612	 0.102841
H	 3.0153777711	-0.8292438024	 1.5568242825	 0.139168
H	 1.1060764797	-2.8421594324	 0.425800819	 0.128633
