18
gdb 75932	2.73872	1.57023	1.13266	3.6158	72.04	-0.2495	0.0238	0.2733	1078.993	0.148866	-439.114582	-439.106434	-439.10549	-439.147175	31.605	
O	 0.4318644975	 0.7323045817	-0.8564370099	-0.440272
C	 0.0935314756	-0.3758163982	-0.0684388089	-0.040273
C	 0.4293235663	-0.1292810404	 1.4085161012	 0.397921
O	 1.3488123716	 0.5649907281	 1.7948404176	-0.400764
N	-0.4935680465	-0.7975427366	 2.1461312507	-0.325065
C	-1.5649116912	-1.3998700816	 1.3554941568	-0.240954
C	-1.389316751	-0.7189659815	-0.0043006178	 0.319888
C	-2.4098883902	 0.2600732235	-0.5176935897	-0.295919
C	-2.2132325722	-1.074915192	-1.2021220889	-0.332132
H	 1.0818767633	 1.2260480737	-0.3331421173	 0.29476
H	 0.6643867905	-1.2654768121	-0.3923817015	 0.089513
H	-0.4580048075	-0.8151723026	 3.1527625544	 0.256983
H	-1.4432773156	-2.4903712783	 1.2871009101	 0.113218
H	-2.5455339524	-1.197363355	 1.7980958535	 0.118409
H	-3.3145195582	 0.4088775073	 0.0627704159	 0.107795
H	-2.0279873797	 1.1433620239	-1.0147009702	 0.140502
H	-1.7214685724	-1.0821568704	-2.1692485374	 0.126544
H	-2.986286718	-1.8286656296	-1.0872508787	 0.109846
