17
gdb 50385	4.73027	0.84998	0.7442	2.3739	85.7	-0.2367	-0.029	0.2077	1459.5579	0.134584	-384.685221	-384.676536	-384.675592	-384.719351	31.836	
O	 0.8670158048	-0.3168115255	-0.1061422354	-0.24914
C	 0.400857991	 0.7913303682	-0.0655011369	 0.155126
C	 1.1904131122	 2.0714276798	 0.0720838887	-0.065414
C	 0.9677284866	 3.031890169	-1.1356930395	-0.284512
C	 0.9104400447	 4.3945929962	-0.5005174146	-0.171211
C	 0.8009553759	 4.3353910683	 0.8340914494	 0.202338
C	 0.7651826127	 2.8935504312	 1.3215110446	-0.35084
C	 0.6841020794	 5.424662221	 1.7293578916	 0.197277
C	 0.5860109609	 6.3154035743	 2.5351133647	-0.404476
H	-0.7029172259	 0.95414266	-0.1324559857	 0.071148
H	 2.2474415205	 1.8054523279	 0.1426596132	 0.103018
H	 1.7630042669	 2.9331734745	-1.881725725	 0.125722
H	 0.0264232882	 2.8128452364	-1.6634274251	 0.117885
H	 0.9197023335	 5.3121977846	-1.0763428617	 0.107535
H	-0.2494039942	 2.6375394467	 1.6581876122	 0.120276
H	 1.4285653874	 2.7178603527	 2.1727702539	 0.129933
H	 0.4992717753	 7.1124747548	 3.2313115355	 0.195336
