18
gdb 120122	3.36475	0.98043	0.90589	3.3276	73.09	-0.2471	-0.0117	0.2354	1347.0379	0.146474	-439.046566	-439.037797	-439.036853	-439.081044	31.53	
C	-0.2557160994	 1.3367511245	-0.3527853457	-0.230036
O	-0.2177719757	-0.0456202837	-0.6280101816	-0.234496
C	 1.0827776637	-0.5830119056	-0.5583186499	-0.089377
C	 0.9528926894	-2.0768794739	-0.7438816826	-0.019455
C	 1.0264434781	-2.8032502182	-2.0185798248	-0.026279
C	 1.9882640361	-2.1799603743	-3.0249438925	-0.383662
C	 3.023342616	-2.264511621	-1.8907412279	 0.398668
O	 4.1769857572	-1.9991674299	-1.7653314391	-0.294125
N	 2.1433030066	-2.9597527562	-0.9598620114	-0.206135
H	 0.1143337802	 1.5604650905	 0.6597554523	 0.110997
H	 0.3452960034	 1.9128886303	-1.0734423247	 0.109058
H	-1.2981576146	 1.6539623627	-0.428017673	 0.132627
H	 1.7387194012	-0.1242361793	-1.3142757451	 0.101776
H	 1.5416174656	-0.3822661072	 0.4244303433	 0.108741
H	 0.2916074531	-2.5212182061	-0.0037560748	 0.120364
H	 0.3825075585	-3.6475518426	-2.2324669988	 0.115932
H	 2.2531692968	-2.8552155404	-3.8426699717	 0.14657
H	 1.7535906738	-1.1953539698	-3.435529462	 0.138832
