13
gdb 9455	2.80476	1.7959	1.73947	3.2816	59.1	-0.2662	-0.0601	0.2061	830.5668	0.093526	-398.607824	-398.59997	-398.599026	-398.640428	27.575	
O	 0.2415462529	 1.4415313007	 0.3044718942	-0.445309
C	 0.0189253865	 0.0820151584	 0.0587821206	 0.177848
C	-1.4842865099	-0.3079786727	-0.1118713063	-0.271449
C	-1.1717260535	-1.0491609955	-1.4494129268	-0.340437
C	 0.197043898	-0.3716829505	-1.4396485938	 0.350158
O	 1.0211419828	-0.0765722111	-2.2478899491	-0.275746
C	 0.7450646445	-0.7932807476	 0.9884095524	 0.228218
N	 1.3344553832	-1.4945212368	 1.6943321737	-0.321976
H	 1.1355641857	 1.6558436053	 0.0077632694	 0.306265
H	-1.914105658	-0.9038798817	 0.6912650412	 0.139872
H	-2.0677251733	 0.6017058242	-0.2591620053	 0.145272
H	-1.0799655091	-2.1329680996	-1.3262550119	 0.158732
H	-1.8022804498	-0.8460557131	-2.3169340483	 0.148552
