21
gdb 119717	3.09093	1.00585	0.90382	1.8978	80.02	-0.244	0.0759	0.3199	1400.5525	0.181571	-424.17909	-424.169602	-424.168658	-424.213805	35.	
C	-0.1513155342	 1.3310922295	-0.0447921903	-0.219331
O	-0.1570357972	-0.0738883478	-0.1184358167	-0.239045
C	 0.7676205952	-0.577862835	-1.0680993416	-0.189674
C	 0.7369686787	-2.0706064362	-1.0180660917	 0.298245
C	 1.3850845888	-2.9342353935	 0.0748030832	-0.274798
C	 1.7954515849	-3.9857366696	-1.0024657102	-0.217112
C	 1.1372208876	-3.1226075861	-2.0863848354	-0.160928
C	-0.2963250238	-2.8763112792	-1.7554776072	 0.072139
O	-1.0532096451	-3.8844440456	-1.1507746994	-0.421694
H	 0.8357045612	 1.7228197383	 0.2496224873	 0.102683
H	-0.4270967352	 1.7937429657	-1.0064205092	 0.101198
H	-0.8855686653	 1.6240400856	 0.7098459018	 0.125274
H	 0.5098010414	-0.2216298557	-2.0811978848	 0.081556
H	 1.780612885	-0.1998123545	-0.8430340736	 0.081999
H	 2.2475100611	-2.4436447244	 0.5324812546	 0.098485
H	 0.7160064313	-3.2807937598	 0.8666036375	 0.095311
H	 2.8781868343	-4.0582458489	-1.1219164773	 0.097969
H	 1.3780257523	-4.9883682751	-0.887919875	 0.112703
H	 1.5205969893	-2.9713366189	-3.0895590049	 0.084008
H	-0.8337080121	-2.304261874	-2.5138920579	 0.080944
H	-1.6621847881	-3.4629630546	-0.5348597794	 0.290069
