15
gdb 45958	3.00547	1.64994	1.19012	1.8168	67.31	-0.258	-0.0212	0.2367	991.7055	0.114357	-453.947584	-453.94038	-453.939436	-453.979584	27.206	
N	-0.0043325436	 1.248205962	 0.4929287866	-0.476838
C	 0.0208313658	 0.053474351	 0.0679318034	 0.304613
C	 1.2271280562	-0.771030778	-0.3203555019	-0.154535
O	 1.3142396315	-1.9488197453	 0.5116218201	-0.23122
C	 0.2022377428	-2.7113867713	 0.6844054926	 0.430898
O	 0.2855131113	-3.7999556073	 1.1777232206	-0.318999
C	-1.0944038916	-2.1072455695	 0.2184316893	-0.187445
C	-1.8548605136	-1.1629061253	 1.1054387633	-0.228149
N	-1.1674257821	-0.6823791929	-0.0823604823	-0.074631
H	 0.935861467	 1.6424468883	 0.5158410808	 0.226535
H	 1.1742869507	-1.0736527052	-1.3734850125	 0.139599
H	 2.1568796767	-0.2257544871	-0.1551566897	 0.139099
H	-1.6596373124	-2.7617087911	-0.4391960747	 0.139059
H	-2.9390225963	-1.1608040546	 1.06095737	 0.142814
H	-1.4253785224	-0.9016365037	 2.0682778944	 0.149201
