18
gdb 117609	2.2616	1.20857	1.04182	3.1081	78.64	-0.2649	0.0105	0.2754	1257.0165	0.143995	-401.911367	-401.900859	-401.899914	-401.947036	36.88	
C	 0.3120847295	 0.9679912339	 0.4497553933	-0.25691
O	-0.4006497566	 0.1514499424	-0.4689400119	-0.239509
C	 0.3892328587	-0.5309305464	-1.4047942175	-0.083325
C	 0.510167959	-2.0592156824	-1.0724886821	-0.131054
C	-0.9034135696	-2.6863129252	-0.9694935487	-0.404642
C	 1.2936359642	-2.6990814257	-2.1327257361	 0.33428
C	 1.912386462	-3.187588186	-3.0384260484	-0.44712
C	 1.2090776672	-2.2256845516	 0.217458855	 0.307646
N	 1.7442267635	-2.3468181887	 1.2344326161	-0.351375
H	 0.9957459668	 0.3849688904	 1.0768135076	 0.145028
H	 0.880838753	 1.7490084055	-0.0743853116	 0.113209
H	-0.4362854623	 1.4445527603	 1.086572833	 0.134744
H	-0.0976303439	-0.4640825473	-2.3846984093	 0.122323
H	 1.3939276553	-0.0999086369	-1.4897831599	 0.118011
H	-1.4000080409	-2.6093004351	-1.9399604245	 0.133404
H	-0.8389438857	-3.739178071	-0.689692855	 0.142564
H	-1.4856360085	-2.1428518293	-0.2239150292	 0.15345
H	 2.4682460782	-3.632396777	-3.8270492908	 0.209274
