19
gdb 98450	2.94296	1.11489	1.07414	2.7113	71.77	-0.2499	0.0064	0.2563	1242.1752	0.157276	-460.173446	-460.16361	-460.162666	-460.2096	33.917	
C	-0.2204524396	 1.3187165132	-0.1111743613	-0.241822
O	-0.1477855289	-0.1105341382	-0.2034457568	-0.240096
C	 0.7331886821	-0.5894242591	-1.1063898395	 0.401034
O	 1.4229490284	 0.1123570853	-1.8025070764	-0.367312
C	 0.7284607571	-2.1047138225	-1.1012328752	 0.16323
C	 1.3194583287	-2.6384639	 0.2058284075	-0.469928
C	-0.6171501237	-2.7530248786	-1.5297155947	-0.104439
O	-0.005736901	-3.3641551811	-2.6781846824	-0.272338
C	 1.2690971162	-2.7456405868	-2.3983921757	-0.115455
H	 0.7479211262	 1.7354026194	 0.1767728924	 0.142459
H	-0.5174234669	 1.7514430877	-1.0696791873	 0.143751
H	-0.9696550714	 1.5292392155	 0.6519116744	 0.135036
H	 0.7380392786	-2.2926271185	 1.0647609797	 0.135977
H	 1.3149837392	-3.7326265248	 0.2006107331	 0.128928
H	 2.3543663134	-2.3039628443	 0.3341990734	 0.130468
H	-1.0191986917	-3.4928904395	-0.8262795007	 0.101996
H	-1.4138463043	-2.0507559171	-1.8033585074	 0.106311
H	 1.566430315	-2.0279574738	-3.1692786143	 0.123903
H	 2.0639931126	-3.488095717	-2.2594488388	 0.098297
