19
gdb 17263	3.08446	2.1235	1.77731	1.8977	76.16	-0.2282	0.0883	0.3165	856.4577	0.165723	-327.834582	-327.827274	-327.82633	-327.865543	29.386	
C	 0.0179088969	 1.5285525965	 0.0291044832	-0.521792
C	 0.0078254322	 0.021926814	 0.0237090893	 0.212428
C	 0.5236141798	-0.9725412546	-1.0506540957	-0.201985
N	-0.0311827634	-1.9353902195	 0.0182564679	-0.186246
C	 0.6468727483	-0.9807713144	 1.0214460107	-0.201984
C	-1.1819932679	-0.9471799632	 0.090628882	 0.432426
C	-2.3975151515	-1.0759040228	 0.9306161055	-0.380188
C	-2.4885826601	-1.0698286078	-0.6003331411	-0.380186
H	 1.0407426117	 1.9157312839	-0.0294425968	 0.122833
H	-0.54103228	 1.9286915816	-0.824053435	 0.122136
H	-0.4371012108	 1.92164672	 0.9449922301	 0.122132
H	-0.0117867742	-1.0241134348	-2.0019056075	 0.100789
H	 1.6054558519	-1.0600577788	-1.1886959026	 0.093232
H	 1.7374110709	-1.0688482097	 1.029559166	 0.093232
H	 0.2280005846	-1.0401356072	 2.0290244559	 0.100789
H	-2.5710874837	-2.0215935442	 1.4339233292	 0.124079
H	-2.7653608217	-0.205353001	 1.465132021	 0.112113
H	-2.9167856897	-0.1952403882	-1.0805569435	 0.112113
H	-2.7210477333	-2.01158215	-1.0869879686	 0.124079
