20
gdb 92038	2.23017	2.01723	1.46866	0.9886	77.28	-0.2147	0.0662	0.2809	978.2499	0.173751	-403.105223	-403.097766	-403.096822	-403.136545	31.081	
O	 0.0309790123	 1.4778617242	-0.1165286828	-0.42332
C	 0.008875762	 0.0513068558	-0.0235869183	 0.067481
C	 0.7925828163	-0.4782080243	 1.202130889	-0.172253
N	 0.1915646844	-0.3700594714	 2.5275712692	-0.105006
C	-0.5296444886	 0.8621028999	 2.8651166951	-0.27134
C	-1.2841201051	-0.394523042	 2.5916322004	-0.016693
C	-2.0983739866	-0.6289487695	 1.3499081757	-0.027238
C	-2.5593931879	 0.4714202338	 0.4289691291	-0.295471
C	-1.435921953	-0.4317026685	-0.0037162855	-0.035604
H	 0.9499188765	 1.7589311932	-0.0518460748	 0.280381
H	 0.4952319001	-0.3731171677	-0.9151643752	 0.07047
H	 0.987882988	-1.5445697699	 1.0264094654	 0.104709
H	 1.7735586135	 0.0156492607	 1.2396734466	 0.090776
H	-0.4076719663	 1.19505197	 3.8933767654	 0.105249
H	-0.5644980104	 1.6545467934	 2.1262191238	 0.133693
H	-1.650770778	-0.942599999	 3.4569563132	 0.085606
H	-2.7574352583	-1.4872807616	 1.4314824636	 0.081711
H	-3.5177835673	 0.3483151724	-0.0632247084	 0.108014
H	-2.3096931904	 1.494370529	 0.6790663931	 0.133708
H	-1.6694968312	-1.1666122083	-0.7658824346	 0.085125
