13
gdb 24377	3.8983	1.69089	1.18812	1.0718	65.73	-0.2175	-0.0348	0.1827	932.1521	0.092842	-452.779887	-452.773659	-452.772715	-452.810986	23.268	
C	-0.0225754863	 1.495387958	 0.1225982737	-0.178458
O	 1.263240973	 2.0058026307	-0.3511365775	-0.23672
C	 2.2532179181	 1.1995202908	-0.7719215258	 0.139517
N	 2.2801850204	-0.0794889592	-0.8420817861	-0.356575
C	 1.0968282028	-0.6245782619	-0.4095233251	 0.339179
C	-0.0065936483	 0.0071243651	 0.0470053012	 0.169169
N	-0.975425968	-0.9215341247	 0.3786048627	-0.325877
C	-0.4054279728	-2.0557579332	 0.105292076	 0.045915
O	 0.8613211157	-1.9652555772	-0.380956068	-0.175705
H	-0.1566355941	 1.8746810914	 1.1429960178	 0.139229
H	-0.7954394803	 1.9516688901	-0.5079086355	 0.139227
H	 3.1117201837	 1.7906599904	-1.0765850671	 0.145732
H	-0.8091687938	-3.0491565403	 0.2152532037	 0.155366
