17
gdb 77534	3.12825	1.31302	1.0945	4.9695	75.16	-0.2702	0.0066	0.2767	1123.2237	0.13611	-417.959554	-417.95134	-417.950396	-417.992089	31.592	
C	-0.0011687522	 1.4467623244	 0.0993962119	-0.515473
C	-0.0288812443	-0.0442570637	-0.0347885237	 0.260519
C	 0.6106791548	-0.9603840255	-1.1132842584	-0.302562
C	 0.0143489778	-1.8966932387	-0.0339408771	 0.183932
N	 0.5099321482	-0.9700946767	 1.0687939754	-0.409857
C	 0.1130105522	-3.3299877698	 0.0615212867	 0.158492
N	 0.1804990456	-4.4827699298	 0.1226052719	-0.344902
C	-1.2755911467	-0.9928891345	-0.0458491276	 0.152422
O	-2.1163430581	-1.0074940548	 1.0439015812	-0.437901
H	 1.0222747515	 1.8206355198	 0.2073976618	 0.128773
H	-0.4429974343	 1.9176634306	-0.784427562	 0.135283
H	-0.5768597812	 1.7573500828	 0.9766113129	 0.14212
H	 0.1622874701	-0.981649999	-2.1113172703	 0.113716
H	 1.7021928949	-0.948886297	-1.1566051128	 0.114584
H	 1.5342335617	-0.9565382159	 1.0694540952	 0.220108
H	-1.8693259122	-1.0211753329	-0.9602762617	 0.103081
H	-1.5353678879	-0.9973502292	 1.8206841364	 0.297662
