15
gdb 17515	4.72472	1.83249	1.63604	2.7984	64.79	-0.256	-0.0408	0.2151	797.0311	0.119507	-362.608373	-362.601927	-362.600983	-362.639245	24.464	
O	-0.7118219876	 0.8960520929	 0.7079033493	-0.241374
C	 0.0437062945	 1.0975241588	-0.2094672481	 0.051043
C	 1.2868132363	 1.9164414406	-0.1017391249	 0.261538
C	 1.5183658211	 2.9319199673	 1.0292811901	-0.285286
C	 2.3090132666	 3.6816077958	-0.0278973977	-0.033847
C	 3.0163556993	 2.6907388667	-0.8961912995	-0.034788
C	 2.6718339012	 1.2935990529	-0.4207770529	-0.282212
N	 1.5759440476	 3.034623969	-1.1735999243	-0.194412
H	-0.1357647225	 0.6687934392	-1.2207498027	 0.08548
H	 0.5927856417	 3.4520480157	 1.2839302854	 0.129045
H	 2.0184011677	 2.5901093044	 1.9398508278	 0.107527
H	 2.5464417137	 4.7388840117	-0.0585781699	 0.103479
H	 3.8011695117	 2.9835867426	-1.5842543971	 0.103066
H	 3.22645463	 0.8369926252	 0.4046025932	 0.111413
H	 2.6097259988	 0.5989472672	-1.2629050787	 0.119327
