21
gdb 95861	2.82409	1.15076	0.8632	4.2312	84.16	-0.2276	0.0404	0.268	1356.9396	0.184821	-383.297146	-383.288414	-383.287469	-383.33037	33.426	
C	-0.0049133844	 1.4590554989	-0.0040291113	-0.32319
N	-0.0077434835	 0.0055287742	 0.0247648188	-0.065313
C	-1.3551539548	-0.5436844677	-0.1019148241	-0.131435
C	-1.3134021338	-2.0678171156	-0.2317299348	-0.22396
C	-0.5692299525	-2.7015025382	 0.9476517414	-0.197692
C	 0.8204155429	-2.0446487687	 1.0986848833	-0.156294
C	 0.6801076481	-0.5102590018	 1.1979888907	-0.140883
C	 1.5427587636	-2.5733843336	 2.255487867	 0.26149
N	 2.1066487606	-2.9870944658	 3.1758402957	-0.325015
H	 1.0244473856	 1.8295080014	 0.0279228768	 0.121599
H	-0.4638910073	 1.8093176041	-0.9337034489	 0.121309
H	-0.5570792898	 1.9133563086	 0.8405205398	 0.096873
H	-1.9879795317	-0.2630830058	 0.7656692849	 0.076967
H	-1.8219024678	-0.1038993232	-0.9896490794	 0.102239
H	-2.3333891065	-2.4617375724	-0.2871276742	 0.102904
H	-0.8102890462	-2.3303128022	-1.169888685	 0.108595
H	-1.1333216072	-2.5470356576	 1.8756040915	 0.115601
H	-0.4621892142	-3.7818744508	 0.8141535443	 0.116416
H	 1.4139896398	-2.2653226072	 0.2027341218	 0.129885
H	 1.6728136922	-0.0533378984	 1.2550699535	 0.117837
H	 0.1524437866	-0.2608425782	 2.1405073083	 0.092065
