17
gdb 66776	2.47162	2.219	1.7862	0.706	69.34	-0.2266	0.0705	0.2971	843.9044	0.137475	-421.773083	-421.766404	-421.76546	-421.803807	27.54	
O	-0.0450602328	 1.4119750174	 0.054423288	-0.491019
C	-0.0173128979	 0.0317914552	 0.0254821191	 0.389953
C	-1.28849456	-0.8790114964	 0.0841929017	-0.169847
C	-0.4045141966	-1.8823720769	 0.7794721621	-0.070933
C	-0.4974920032	-1.8644463718	-0.7520122892	-0.098702
C	 0.5381065034	-0.8061275301	-1.1570882824	 0.036061
O	 1.9001719628	-1.1064117335	-0.9173821585	-0.287252
C	 2.0658754632	-1.2140142109	 0.5136395819	-0.097485
C	 0.6984629089	-0.8592020854	 1.1008221673	-0.138124
H	 0.8058350082	 1.7403611257	-0.2588109063	 0.288197
H	-2.344887977	-0.6707460411	 0.142303364	 0.101639
H	-0.6968442357	-2.7502050145	 1.3556373641	 0.090262
H	-0.858971478	-2.7117909483	-1.319033603	 0.090337
H	 0.42416112	-0.3897801747	-2.1590531057	 0.081544
H	 2.379923771	-2.2334141442	 0.7721376191	 0.102266
H	 2.8596081617	-0.523162348	 0.8286891596	 0.095144
H	 0.6905357619	-0.4708691625	 2.1193613283	 0.077962
