20
gdb 111167	3.76066	1.11922	1.02942	2.5526	80.4	-0.2397	0.0727	0.3124	1232.5278	0.171569	-403.037433	-403.029304	-403.02836	-403.070144	32.23	
O	-0.0586894048	 1.3998801389	 0.6199916125	-0.421105
C	 0.0887128844	 0.1098308975	 0.049035853	-0.117906
C	-1.2601358357	-0.5864154345	 0.0180631471	 0.066088
C	-1.4967775911	-2.1221890554	 0.0337547968	-0.188667
C	-1.0363631056	-2.0690221461	 1.5087529102	-0.183779
N	-1.9260273794	-0.809368838	 1.4089299311	-0.216425
C	-2.8540095578	-1.7299022049	 0.6272247829	 0.470375
C	-4.1920156613	-1.3834181241	 0.0922955164	-0.376319
C	-4.0239652451	-2.4588999398	 1.1724831567	-0.384343
H	-0.5999896564	 1.2837517141	 1.4109131172	 0.295073
H	 0.4437026779	 0.256430078	-0.9775584494	 0.108078
H	 0.8586568725	-0.4727741293	 0.5737767879	 0.08911
H	-1.9323700789	-0.0203252026	-0.6337305691	 0.08809
H	-1.2750004586	-2.8654214123	-0.7391119884	 0.069416
H	-1.4426522805	-2.8197810472	 2.189370309	 0.108616
H	 0.0101353984	-1.8639608881	 1.73192128	 0.104069
H	-4.6338720416	-0.4400195873	 0.3959593285	 0.127632
H	-4.4570540217	-1.7050852001	-0.9098903997	 0.117975
H	-4.1777631675	-3.4950095708	 0.8877912271	 0.117356
H	-4.3566783471	-2.2109670381	 2.1751679902	 0.126666
