22
gdb 26086	3.03455	1.20394	1.06515	1.7465	88.64	-0.1941	0.0503	0.2444	1258.0818	0.194285	-367.262566	-367.25308	-367.252136	-367.296466	37.022	
C	-0.0070421396	 1.5373876511	-0.0006669518	-0.396498
C	-0.0079736243	-0.0088224909	-0.0001122381	 0.131732
C	 0.7600756915	-0.5195045031	 1.2408702331	-0.396521
C	-1.4619557384	-0.5054363446	 0.0755191661	-0.404281
C	 0.6420097639	-0.5285905406	-1.2629259223	 0.33924
C	 0.1652493171	-1.3230036797	-2.2856086123	-0.255714
C	 1.2129064022	-1.504316297	-3.2328437314	-0.148919
C	 2.3060880701	-0.8162785335	-2.7676298015	-0.096157
N	 1.9510907196	-0.2304786275	-1.5773502909	-0.306383
H	 1.0095369106	 1.9433887955	-0.0411194892	 0.095989
H	-0.554228786	 1.9268220544	-0.8643035128	 0.121329
H	-0.4790841667	 1.9244641206	 0.9091452637	 0.108662
H	 0.2949368726	-0.1510335099	 2.1618929104	 0.108673
H	 0.7660322917	-1.6130842798	 1.2723840083	 0.12133
H	 1.8020884242	-0.1816835122	 1.241662311	 0.095982
H	-2.0459791275	-0.1535183265	-0.7801321773	 0.1181
H	-1.5070722089	-1.5984891283	 0.091952985	 0.118098
H	-1.9399793861	-0.1333492235	 0.9874148631	 0.105228
H	-0.8302282441	-1.7329743338	-2.3504838526	 0.087552
H	 1.1649499867	-2.0743111568	-4.1479747164	 0.088492
H	 3.2972125027	-0.6919987341	-3.1736146468	 0.110451
H	 2.5613186988	 0.3359983503	-1.015169007	 0.253616
