19
gdb 68571	2.65111	1.87187	1.49766	1.4463	79.17	-0.2286	0.0082	0.2368	948.5371	0.161467	-385.903975	-385.896801	-385.895857	-385.934813	30.553	
O	-0.0751496942	 1.426040524	 0.0499006403	-0.496916
C	 0.0025156052	 0.0134744897	-0.0215130539	 0.377288
C	-1.4051066843	-0.597302723	-0.1190002532	-0.242158
C	-1.0341516785	-2.0162747639	-0.6090035991	-0.115343
C	 0.0443550473	-1.6767809272	-1.6429579596	-0.069827
C	 0.6365981326	-0.534821827	-1.2979495219	-0.13148
C	-0.363884616	-2.7427086222	 0.5522326355	-0.066378
C	 0.4375944226	-2.0704000487	 1.3801048054	-0.040983
C	 0.7065924061	-0.5895417406	 1.2222754818	-0.311094
H	 0.8145433605	 1.7694486554	 0.1858251851	 0.272304
H	-1.944998295	-0.5950309446	 0.8313603058	 0.095539
H	-1.9821480142	-0.0518525989	-0.8703504541	 0.103965
H	-1.8758478649	-2.5851506768	-1.009782277	 0.064836
H	 0.3252019263	-2.3364460252	-2.4556929213	 0.096132
H	 1.4932559626	-0.0704599137	-1.7741736939	 0.086313
H	-0.5269090666	-3.8095338008	 0.6729344578	 0.085742
H	 0.9399510021	-2.5767591239	 2.2004152457	 0.086323
H	 1.7924117912	-0.4120760735	 1.1665394593	 0.091811
H	 0.354236747	-0.0445283691	 2.1091842073	 0.113926
