16
gdb 36680	3.3205	0.78917	0.67669	6.9974	74.62	-0.2942	0.0003	0.2946	1573.5009	0.124715	-396.929656	-396.920777	-396.919833	-396.964522	31.083	
N	-0.16113169	-1.1273692479	 0.0338672766	-0.297958
C	-0.0540262501	 0.0168871068	 0.1523927184	 0.258794
C	 0.0920701974	 1.4637567204	 0.285559119	-0.335348
C	 1.3689253533	 1.995413574	-0.3989478905	-0.205938
C	 1.4551497839	 3.4978488608	-0.2696887215	-0.02253
N	 1.8201437361	 4.018973428	 1.0484235184	-0.309284
C	 2.7540517184	 4.219550142	-0.0779222668	-0.201738
C	 4.0131993465	 3.5165291421	-0.011615705	 0.333404
N	 5.0251978025	 2.9584999117	 0.0111972017	-0.32542
H	-0.7993270051	 1.9403192844	-0.1400436598	 0.148512
H	 0.1172662648	 1.7233849661	 1.3493650731	 0.171478
H	 2.2461695553	 1.5320679668	 0.0599265515	 0.154195
H	 1.3694641105	 1.7172471871	-1.4578492531	 0.133514
H	 0.711461256	 4.0549814727	-0.839114974	 0.108004
H	 1.3440250372	 4.8930874014	 1.2542196354	 0.251293
H	 2.8333401832	 5.2121518637	-0.5128869931	 0.139023
