21
gdb 120918	3.3025	0.96723	0.8744	1.382	79.46	-0.2424	0.0757	0.3181	1419.2744	0.181807	-424.175644	-424.166263	-424.165319	-424.21022	34.702	
C	 0.1219523564	 1.3960054272	-0.0285234735	-0.221079
O	 0.0386222266	-0.0045278263	 0.0462482143	-0.236877
C	-1.285241882	-0.4853388236	-0.103425414	-0.082471
C	-1.2450407785	-1.9960897016	 0.0382477153	 0.015417
C	-1.0187355252	-2.6425187776	 1.442345082	-0.244931
C	-2.2651698577	-3.5139400218	 1.2323245814	-0.120976
C	-3.4765261772	-2.658384407	 1.0346387599	 0.110642
O	-3.6602965897	-1.4213901691	 1.6696210604	-0.416712
C	-2.5439829772	-2.8002415453	-0.1216144229	-0.130149
H	 1.1714208055	 1.6724350423	 0.1039660273	 0.120816
H	-0.2236751774	 1.7768386701	-1.0036570224	 0.098728
H	-0.4760484332	 1.8862502404	 0.756656049	 0.100575
H	-1.9498056089	-0.042009184	 0.650059028	 0.10985
H	-1.6820952664	-0.2109438093	-1.0977667456	 0.075366
H	-0.4908540503	-2.3785185662	-0.6561478362	 0.082936
H	-0.0910026812	-3.2130462004	 1.5014282495	 0.104337
H	-1.0660387249	-1.9575092873	 2.2937438328	 0.093768
H	-2.342537157	-4.567070577	 1.4775567926	 0.083934
H	-4.3992668331	-3.2265941275	 0.9060220062	 0.087098
H	-3.7958713591	-1.5884274303	 2.6086465835	 0.285321
H	-2.8881030295	-3.2207555556	-1.0601851676	 0.084408
