18
gdb 18118	4.30572	1.87513	1.39651	1.5473	73.41	-0.2339	0.0163	0.2502	896.4386	0.156813	-347.815536	-347.808895	-347.807951	-347.846333	26.031	
C	-0.0613916249	 1.4975355119	 0.0479860188	-0.242251
C	 1.4246673739	 1.9565784368	-0.0507665318	-0.245108
C	 2.142462576	 0.7665244729	-0.7151108351	-0.058502
C	 3.4833692942	 0.22353958	-0.2100058782	-0.09453
O	 3.436219081	-1.1801515112	-0.4943284218	-0.270291
C	 2.0797362395	-1.6465401283	-0.412200712	-0.178167
C	 1.2491634332	-0.4017459002	-0.361730491	 0.332663
C	 0.0540335889	-0.0167733238	 0.0735558134	-0.240049
H	-0.5647480473	 1.8969944539	 0.9355648575	 0.102815
H	-0.6470952373	 1.8411922357	-0.8170320005	 0.105984
H	 1.5446947817	 2.8973581488	-0.5939915911	 0.097063
H	 1.8220938563	 2.1055143623	 0.9600647793	 0.103132
H	 2.2002524725	 0.8914831905	-1.806368635	 0.081741
H	 4.3666735126	 0.6231592043	-0.715557568	 0.105511
H	 3.5869945769	 0.4022698023	 0.8731975782	 0.08575
H	 1.8858652656	-2.2707090241	-1.2944248072	 0.113729
H	 1.9393929092	-2.2743998431	 0.4795077701	 0.108536
H	-0.7453544121	-0.6640150886	 0.4172203145	 0.091973
