17
gdb 8691	2.63638	1.71346	1.36425	2.4946	64.58	-0.2842	0.0114	0.2955	980.1158	0.139365	-400.997061	-400.987581	-400.986637	-401.030921	33.346	
C	-0.0883836227	 1.3762878225	 0.0674082768	-0.258104
O	 0.0422667816	-0.034232364	-0.0163466677	-0.263825
C	 0.7326736487	-0.5427474012	-1.1391974314	 0.206533
C	 2.1945337621	-0.0829872548	-1.2323639864	-0.430344
C	 0.6532827111	-2.0845636718	-0.9758473656	-0.100444
O	 1.2243533569	-2.7770594768	-2.0601777469	-0.411968
C	 0.0154405701	-0.1928414822	-2.3951499571	 0.242882
N	-0.5512585024	 0.0400674964	-3.3757459801	-0.345177
H	 0.8793300789	 1.8734911229	 0.2087344451	 0.119053
H	-0.5774210625	 1.7900050254	-0.8244876796	 0.133738
H	-0.7156688778	 1.5716728919	 0.9391277448	 0.140148
H	 2.6714618395	-0.2394656681	-0.2604292565	 0.132556
H	 2.7106949692	-0.6859665036	-1.9822630838	 0.155095
H	 2.2822550394	 0.9696145183	-1.5085509859	 0.13295
H	 1.228755741	-2.3493316994	-0.0845390804	 0.127161
H	-0.3957160012	-2.3545030377	-0.8008453452	 0.118476
H	 0.6418795782	-2.6796468078	-2.82214401	 0.301269
