19
gdb 58708	1.98495	1.50597	1.2243	2.5084	75.39	-0.2449	0.0212	0.2661	1138.3932	0.159057	-419.195511	-419.186141	-419.185197	-419.229486	34.662	
C	 0.105342082	 1.4583205084	-0.1881501841	-0.430233
C	-0.0694788332	-0.0406005302	 0.0463639865	 0.082556
O	 0.6446313126	-0.4827975717	 1.1885605815	-0.435164
C	-1.5539544356	-0.4808798251	 0.1431018969	 0.144097
C	-2.3101141985	-0.488103332	-1.224798526	-0.212685
N	-1.9792697026	-1.9218055732	-1.3615852767	-0.312603
C	-1.7089662159	-2.0334214252	 0.0896313718	-0.207161
C	-2.2087857376	 0.1875134707	 1.2570380104	 0.222993
N	-2.6960769822	 0.7271246612	 2.1571059292	-0.353806
H	 1.1700901302	 1.6945198081	-0.2571018942	 0.1337
H	-0.3794763836	 1.7830056749	-1.1136161889	 0.1242
H	-0.3246746833	 2.0360284082	 0.6379311972	 0.135705
H	 0.3572205619	-0.6004334705	-0.7924711343	 0.114831
H	 0.3648552593	 0.0519874743	 1.9416167464	 0.291976
H	-3.3771972674	-0.2626059459	-1.1021699911	 0.113562
H	-1.8987417749	 0.153493045	-2.0109280013	 0.115456
H	-2.7287028724	-2.5077463456	-1.7102991328	 0.22843
H	-0.8129944921	-2.6001703135	 0.355895423	 0.133916
H	-2.5563873468	-2.3828257878	 0.6924955766	 0.110231
