19
gdb 85232	2.72966	1.5031	1.09507	2.8022	75.46	-0.2383	-0.0254	0.2129	1145.3881	0.15799	-423.052928	-423.044128	-423.043183	-423.086216	33.164	
C	 0.1553904481	 1.5926776301	 0.0279218792	-0.402357
C	 0.0044213106	 0.0702643171	 0.0213744294	-0.010965
C	 0.61626905	-0.6300385168	-1.2182957074	-0.352573
C	 1.1552003689	-1.9729277763	-0.7151142268	 0.373875
O	 1.3135556072	-2.9782233944	-1.3598039796	-0.316475
C	 1.3898632571	-1.847087749	 0.7760631816	 0.286943
C	 1.6886065464	-3.0502856317	 1.6164014774	-0.495297
O	 2.1284648488	-0.6264656686	 1.0419531273	-0.292491
C	 0.7089485484	-0.6055128153	 1.1923417111	-0.022457
H	 1.2143879404	 1.8695830134	 0.0234759661	 0.134501
H	-0.3179397801	 2.0391398099	-0.8520352106	 0.119704
H	-0.3071195978	 2.0340586643	 0.917090891	 0.115552
H	-1.060871747	-0.1878103634	 0.0858004801	 0.084863
H	-0.0942169124	-0.7885442656	-2.0317277862	 0.128537
H	 1.4547258058	-0.051348352	-1.6216217752	 0.140412
H	 2.5950563294	-3.5468436155	 1.2580096108	 0.145194
H	 1.8326206556	-2.7637857532	 2.6606538785	 0.129618
H	 0.8698739539	-3.7732843939	 1.5534737308	 0.135231
H	 0.3491423067	-0.4720916191	 2.2108467226	 0.098186
