21
gdb 112878	3.09183	1.04748	0.82716	2.1362	78.94	-0.2351	-0.0177	0.2174	1420.1942	0.181678	-424.265079	-424.255564	-424.25462	-424.299707	35.587	
C	 0.1671858976	 1.5964396751	 0.1319753858	-0.391072
C	 0.0244047653	 0.0733177057	 0.050873969	-0.185355
C	 0.5384890832	-0.5364265357	-1.2620400985	-0.084132
C	 0.6947506689	-2.0665675599	-1.2682260626	-0.245717
C	 0.6681142279	-2.4617181366	-2.7506208025	 0.110178
O	 0.3782155569	-3.8432405751	-2.8627295066	-0.430901
C	-0.3963937241	-1.5280312035	-3.3505463672	-0.351124
C	-0.3434702851	-0.2595948194	-2.4928582793	 0.396649
O	-0.9117288756	 0.7736422678	-2.7425587482	-0.317585
H	 1.2193238722	 1.8948873063	 0.0567722237	 0.106873
H	-0.3800051988	 2.0802362775	-0.6790836558	 0.151015
H	-0.2162971572	 1.9721753801	 1.085739707	 0.107928
H	 0.5718837684	-0.3930089203	 0.8795260014	 0.097088
H	-1.0275902089	-0.2098869792	 0.1835745412	 0.100742
H	 1.5142357644	-0.0816951723	-1.4998508	 0.099722
H	 1.5960450824	-2.4134927336	-0.757684043	 0.107482
H	-0.1666008456	-2.5379234066	-0.777930479	 0.113367
H	 1.6484708881	-2.2374171285	-3.2015038391	 0.071785
H	 0.4171751573	-4.0860110081	-3.7930697725	 0.284215
H	-0.2879493063	-1.2990765748	-4.4138396721	 0.119825
H	-1.384490561	-1.986250419	-3.2078716116	 0.139016
