18
gdb 10876	2.71157	1.99524	1.71436	1.9379	68.23	-0.2485	0.0777	0.3262	872.6908	0.153015	-384.889004	-384.880941	-384.879997	-384.920715	31.185	
C	-0.0058248527	 1.4486946434	 0.0529205135	-0.525117
C	 0.0150050071	-0.0544635674	 0.0050877969	 0.287471
C	 0.5814062931	-0.9846413663	-1.1201625978	-0.273436
C	 0.04254121	-1.9614908357	-0.0382422304	-0.167017
C	 0.6915401718	-1.0173213297	 1.024602512	 0.121047
O	 2.0938175325	-0.9051669836	 1.0913160747	-0.448667
C	-1.1984276076	-1.0203367776	 0.0359875518	 0.109747
O	-1.9876781404	-0.9657291681	 1.2012325517	-0.445811
H	 1.0122788165	 1.8478583231	 0.1037936691	 0.12916
H	-0.4907770781	 1.867059283	-0.8357700608	 0.114449
H	-0.5537335158	 1.7999685823	 0.933665186	 0.127374
H	 0.051424289	-0.9668937912	-2.0774357076	 0.081385
H	 1.6612305926	-0.9673275928	-1.2501944244	 0.116894
H	 0.0500411577	-3.0525735189	-0.0648968364	 0.060723
H	 0.2415769969	-1.0441844542	 2.0201093124	 0.079745
H	 2.416212636	-1.5569416842	 1.720219467	 0.283542
H	-1.8182202415	-1.0067343407	-0.8703150083	 0.064192
H	-2.611960877	-1.6970579414	 1.1755270005	 0.284319
