17
gdb 96840	3.46498	1.11862	0.87148	1.8232	73.36	-0.2553	-0.016	0.2393	1294.6669	0.135995	-455.195912	-455.187049	-455.186104	-455.230093	32.067	
C	 0.0854546624	 1.4134909131	 0.1355786562	-0.344679
N	 0.0096986666	-0.036075214	 0.0489418212	-0.298447
C	 0.4645585655	-0.6153958388	-0.9766513455	 0.400936
C	 0.4409712965	-2.11647317	-1.2146460675	-0.322524
C	 1.4433447578	-2.3384246317	-2.3540326355	 0.03342
O	 1.0354402741	-3.315308114	-3.2762610326	-0.434449
C	 1.5452362215	-0.9598206902	-3.017180431	 0.385195
O	 1.9582142791	-0.7437946726	-4.1324243586	-0.370042
N	 1.0647108903	-0.0389037806	-2.1129317239	-0.37686
H	 1.0536809989	 1.8222314245	-0.1930833992	 0.10624
H	-0.7031691385	 1.8891913883	-0.4642887731	 0.126165
H	-0.0678966376	 1.7197538316	 1.173114039	 0.136024
H	 0.6595786419	-2.6636814535	-0.2982986446	 0.139613
H	-0.5540870683	-2.4132809326	-1.5633657051	 0.149302
H	 2.4410179081	-2.5702825286	-1.9430943568	 0.103287
H	 1.4227533608	-3.0618871949	-4.1257045853	 0.297025
H	 1.0706893406	 0.9501186239	-2.3110754375	 0.269793
