21
gdb 63205	2.68331	1.58868	1.32942	1.5237	83.35	-0.2415	0.0185	0.26	1073.3147	0.182957	-387.089638	-387.081226	-387.080282	-387.122126	33.243	
C	 0.1120041639	 1.540309738	 0.0141236879	-0.419478
C	 0.007133144	 0.0073400743	-0.0158175132	 0.221706
C	-1.4724324106	-0.425167552	-0.0366044638	-0.424291
C	 0.7482808531	-0.600698394	-1.1968033675	-0.082632
C	 1.5930102198	-1.5745321661	-0.8593493599	-0.105199
C	 1.6490475738	-1.788490068	 0.6277046124	-0.127679
C	 2.7809842588	-1.0308740561	 1.3611393896	-0.076914
O	 1.8996737848	 0.0721091316	 1.6549192037	-0.292852
C	 0.7417029123	-0.654858953	 1.1796143651	 0.094743
H	 1.1543493464	 1.8561344133	 0.0810211823	 0.133457
H	-0.331371677	 1.9714452342	-0.8900256324	 0.104375
H	-0.422901407	 1.9526635736	 0.8764960804	 0.112081
H	-1.965449474	-0.0852768334	-0.953630391	 0.112642
H	-1.5688424703	-1.5151817658	 0.006929243	 0.113751
H	-2.0157782696	 0.0015492144	 0.8141473931	 0.113073
H	 0.5636633505	-0.2622386928	-2.2122229635	 0.090174
H	 2.1997964746	-2.1454989261	-1.5544423982	 0.093319
H	 1.4782468321	-2.8197291219	 0.9457052246	 0.079396
H	 3.1350309893	-1.5201067511	 2.2786128644	 0.094473
H	 3.6425182199	-0.7239538328	 0.7570630852	 0.102122
H	 0.0666096452	-0.8950969064	 2.0098026276	 0.063733
