21
gdb 120313	3.26792	0.95037	0.84644	1.9258	80.2	-0.2316	0.0761	0.3078	1468.6061	0.18078	-424.16835	-424.158725	-424.15778	-424.203388	34.84	
C	 0.169850754	 1.3571802669	-0.1176497397	-0.223595
O	 0.2124314795	-0.0472772177	-0.06632455	-0.232636
C	 0.5332175026	-0.5368211864	 1.2218520223	-0.090795
C	 0.5778652526	-2.0399459585	 1.1475419102	-0.100477
C	 1.8280732597	-2.8132690009	 0.8479180535	 0.054786
O	 2.9808332251	-2.1640198411	 1.3941826632	-0.286149
C	 2.4659662497	-2.3628889261	 2.736323926	-0.13512
C	 1.1638329123	-2.9648785039	 2.2043412298	 0.230221
C	 0.4088580578	-4.0877767415	 2.8534325376	-0.49853
H	 1.1406693469	 1.8069198555	 0.1455658491	 0.104593
H	-0.0832426454	 1.6407280713	-1.1423612066	 0.124739
H	-0.592480836	 1.7707740487	 0.5629470905	 0.09886
H	 1.5067819918	-0.1418660065	 1.5480706875	 0.102326
H	-0.225255097	-0.2055173654	 1.9527102299	 0.0795
H	-0.3054294989	-2.4732789635	 0.6818424807	 0.094348
H	 1.9763375984	-3.4859889947	 0.0104886553	 0.101799
H	 3.0784951535	-3.0976958373	 3.2733601104	 0.105456
H	 2.4204761257	-1.432571416	 3.3149087372	 0.102684
H	-0.1682041092	-3.7358886134	 3.7173173845	 0.122845
H	-0.2980062742	-4.5446825049	 2.1537287061	 0.124472
H	 1.0879521914	-4.8732992545	 3.2041217826	 0.120672
