21
gdb 53416	2.87133	0.97811	0.77416	0.2601	94.52	-0.228	0.0308	0.2588	1547.2252	0.181616	-349.956986	-349.946924	-349.945979	-349.99387	35.891	
C	 0.0632561527	 1.5235987081	-0.0421280581	-0.498296
C	 0.0238015506	 0.0676950412	-0.0255209946	 0.052477
C	-0.0013246345	-1.1369278196	-0.0139758534	 0.078538
C	-0.0318445941	-2.596510329	 0.014141232	-0.250251
C	 0.6579250218	-3.2168887575	 1.2662503566	-0.212712
C	-0.1352536514	-4.5099982806	 1.5654954052	-0.26009
C	-1.4633224207	-4.2494034188	 0.898875402	-0.171365
C	-1.4342555259	-3.2136342223	 0.0597183847	 0.3429
C	-2.5374700613	-2.7022976205	-0.8086772538	-0.49341
H	 1.039433284	 1.8986873871	 0.2854619558	 0.146112
H	-0.1197258433	 1.91738298	-1.0482654866	 0.145065
H	-0.6943044404	 1.9526981516	 0.6232195668	 0.145279
H	 0.4665906224	-2.9606923996	-0.8995187088	 0.098572
H	 1.7262930747	-3.3840414012	 1.1105786373	 0.099399
H	 0.5502154124	-2.517129922	 2.0994276211	 0.11344
H	 0.3509533721	-5.3965663014	 1.1326336046	 0.102551
H	-0.2220877679	-4.7043711917	 2.6405719276	 0.101282
H	-2.332473837	-4.8793380465	 1.060004312	 0.083688
H	-3.4654333888	-3.2568799268	-0.6458159678	 0.118512
H	-2.7252705355	-1.6396407081	-0.617848814	 0.135751
H	-2.2739046699	-2.7834084124	-1.8716273787	 0.122557
