15
gdb 80318	3.74898	1.20915	1.16673	4.1367	73.03	-0.2372	-0.0531	0.1841	1070.9932	0.114689	-412.978901	-412.971127	-412.970183	-413.011175	29.363	
N	 0.1244767517	 1.4565013155	 0.0222737639	-0.525717
C	 0.0078444	 0.0345680587	-0.0337740589	-0.002662
C	-1.3286557552	-0.6416847296	 0.0718893224	-0.069841
N	-2.4396626862	 0.1851380349	-0.3203351181	-0.343457
C	-2.2822773068	 0.4497028613	-1.6768313324	 0.240577
N	-1.2399924107	-0.0467600687	-2.2477889169	-0.265678
C	-0.512082375	-0.7548708056	-1.2485521599	-0.060094
C	-3.2525738838	 1.2613919216	-2.3503426539	 0.263222
N	-4.0663579203	 1.9063580136	-2.8586285646	-0.319482
H	 0.536402247	 1.8385810287	-0.8217436853	 0.245035
H	-0.7824657466	 1.8923295037	 0.1494315161	 0.241193
H	 0.7985620933	-0.5091843849	 0.4796864148	 0.108259
H	-1.5277949611	-1.434825755	 0.7816323737	 0.114643
H	-3.3605928296	 0.0236089318	 0.0586429016	 0.267314
H	 0.0375676134	-1.6295826357	-1.5752511525	 0.106686
