14
gdb 127747	6.03169	0.97151	0.8412	5.6271	68.43	-0.2533	-0.0287	0.2246	1292.5473	0.101998	-466.192306	-466.184176	-466.183232	-466.226354	27.689	
C	 0.10295436	 1.4200203078	 0.1325082572	-0.31716
N	 0.0617703957	-0.0243783342	 0.0339975267	 0.15485
N	-0.0273532127	-0.6614270218	-1.1196094829	-0.112291
N	-0.0407190046	-1.9453840751	-0.844068406	-0.259086
C	 0.04361523	-2.021627651	 0.5037433367	 0.527026
N	 0.0642702602	-3.1776431958	 1.262819367	-0.39576
C	 0.004425231	-4.4881903412	 0.8273655035	 0.152798
O	-0.0776199278	-4.8583314559	-0.3125231366	-0.262627
N	 0.1101263029	-0.8289335434	 1.0936167309	-0.346112
H	 1.0345841113	 1.7322133494	 0.6092803048	 0.162585
H	 0.0475080841	 1.8135207041	-0.8815161049	 0.17633
H	-0.7441936973	 1.7751589012	 0.7232068385	 0.162586
H	 0.1316264165	-3.0238257556	 2.2579259573	 0.270689
H	 0.0434862606	-5.1733690385	 1.6973574978	 0.086173
