19
gdb 90186	3.98412	1.51983	1.36717	2.209	78.04	-0.2281	0.0759	0.3039	989.5848	0.160295	-385.785144	-385.778293	-385.777349	-385.816024	28.829	
C	-0.0898249429	 1.5376355645	-0.0671451421	-0.405298
C	 0.0249448849	 0.0176069886	 0.0382821944	 0.037108
C	 0.9345213806	-0.6313230122	-1.096409046	-0.377628
C	 1.8743107127	-1.3101970725	-0.134395369	 0.485413
O	 3.0451790431	-2.1607256735	-0.0274385977	-0.399513
C	 2.624755746	-1.8472859905	 1.3823372524	 0.001013
C	 2.2437706355	-0.3838669338	 1.0587616344	-0.09317
C	 0.7303195	-0.4722547404	 1.3557793402	-0.112014
C	 1.11378467	-1.9384486767	 1.0673017307	-0.102331
H	 0.8962401441	 2.0141408291	-0.0286556758	 0.118183
H	-0.5672175341	 1.8382546584	-1.0055530273	 0.117462
H	-0.6876516342	 1.9437438944	 0.7561215315	 0.115125
H	-0.9788226879	-0.4198447031	-0.0143954332	 0.076617
H	 0.3787200125	-1.3191383029	-1.7386712466	 0.110592
H	 1.4141443691	 0.1273532088	-1.7212828613	 0.109459
H	 3.2377131126	-2.2868934683	 2.1675182436	 0.093552
H	 2.9091938674	 0.4767101917	 1.0038979067	 0.081192
H	 0.2859321561	-0.1442547967	 2.2964857712	 0.064137
H	 0.4930644046	-2.832667325	 1.0186900139	 0.0801
