18
gdb 84801	2.73197	1.34569	1.1007	2.6504	73.25	-0.2374	0.0029	0.2403	1133.8513	0.148928	-439.125684	-439.117145	-439.116201	-439.15932	32.493	
N	 0.5942958494	 0.3305463821	-0.7651995313	-0.511802
C	-0.1060207952	 0.0202739131	 0.3697622476	 0.338075
O	 0.1062188191	 0.5549706868	 1.4419463148	-0.364967
C	-1.238269421	-0.9904993054	 0.1776800764	-0.103365
C	-2.412520041	-0.4611464652	-0.6957711899	-0.277109
C	-2.9238273205	-1.7051984022	-1.3737020375	-0.058517
C	-2.1120650192	-2.747213528	-1.2136785539	-0.062042
C	-0.8744644569	-2.3894035756	-0.432114552	 0.024374
O	 0.2339060863	-2.3988549396	-1.350777001	-0.429718
H	 1.3966408385	 0.9295222368	-0.6472796095	 0.251688
H	 0.5925045602	-0.335795547	-1.5244041439	 0.262651
H	-1.6200714772	-1.1743564763	 1.1837927622	 0.106897
H	-3.1719609367	 0.0320737985	-0.0799212917	 0.120571
H	-2.08217537	 0.2819325825	-1.4321880885	 0.12454
H	-3.8482901048	-1.7167125012	-1.9411615367	 0.10197
H	-2.2465508742	-3.7351401781	-1.6376565868	 0.101277
H	-0.65970707	-3.1048121077	 0.3715849504	 0.086897
H	 1.0409488334	-2.5134980936	-0.8377026787	 0.288581
