18
gdb 88297	4.01237	0.98512	0.90708	3.0995	76.39	-0.2473	-0.037	0.2103	1315.4973	0.147738	-439.061658	-439.053238	-439.052293	-439.095226	31.758	
O	-0.1821329414	 1.5171589112	-0.0030751356	-0.41424
C	-0.0157387124	 0.1543839263	-0.0796990447	 0.157902
C	-0.1625414013	-0.7397584659	 1.0899328628	-0.324624
C	-1.2446193775	-0.8048271008	 0.0009821162	-0.207456
C	-2.5372305966	-0.1634070801	 0.2727865994	 0.427876
O	-2.6302533305	 0.8408618988	 0.9799944183	-0.412542
C	-3.7579770096	-0.7385985265	-0.3654674052	-0.110486
C	-4.9485061061	-0.9216933223	 0.5308826356	-0.219363
N	-4.9403950088	 0.1285073784	-0.4744975224	-0.301225
H	-0.9670589346	 1.6797259266	 0.5494680557	 0.307055
H	 0.7108909727	-0.1070012008	-0.8420665547	 0.120944
H	 0.4784953869	-1.6093402673	 1.1829737941	 0.125603
H	-0.4744369165	-0.2841422968	 2.0240708823	 0.139077
H	-1.2531931784	-1.6691517929	-0.6524946225	 0.098036
H	-3.6047618874	-1.4308966323	-1.1873180105	 0.10199
H	-5.6199952563	-1.75328853	 0.3379868493	 0.128473
H	-4.8202072355	-0.6472608699	 1.5741219388	 0.133263
H	-4.6970147367	 1.0097242644	-0.0199845869	 0.249719
