19
gdb 106080	2.62335	1.58418	1.36308	1.6257	82.15	-0.2132	-0.0367	0.1765	1034.7611	0.159626	-385.782619	-385.774784	-385.77384	-385.814995	30.93	
O	 0.3767764618	 1.2859110586	-0.4697578875	-0.41404
C	 0.1549985521	-0.0830289164	-0.1495922755	-0.203274
C	-1.3001970311	-0.4129308688	-0.0418817809	 0.305177
C	-2.0488745331	-1.7141397759	 0.0352968618	-0.136793
C	-2.4940655422	-1.4389304636	 1.5203476238	-0.264865
C	-2.2734333004	 0.0176797313	 1.0818951199	-0.019136
C	-3.3467300513	 0.660777344	 0.5781146096	-0.098105
C	-3.3671101442	 0.5109088159	-0.940875516	-0.264323
C	-2.3358269261	-0.6236883079	-1.0836225241	-0.088446
H	-0.0580943522	 1.8094228593	 0.2119971258	 0.284797
H	 0.6113845427	-0.6601113335	-0.9612080656	 0.108071
H	 0.677798133	-0.3583808982	 0.780953577	 0.087644
H	-1.6776578943	-2.680186187	-0.3019399193	 0.091707
H	-3.5031750673	-1.7071352937	 1.8458679218	 0.101452
H	-1.751839294	-1.8738508038	 2.1995199983	 0.10639
H	-4.2824704498	 0.7372545877	 1.1261774633	 0.097219
H	-4.3874572037	 0.2464011502	-1.2446099549	 0.109485
H	-3.066520616	 1.3761584331	-1.5481598572	 0.116609
H	-2.0422832941	-0.9666575614	-2.0749869102	 0.080431
