20
gdb 90871	3.34405	1.5422	1.31389	0.429	77.88	-0.2342	0.0833	0.3175	1035.444	0.172934	-403.108223	-403.100865	-403.099921	-403.139673	30.2	
C	-0.8243528049	 1.3082167264	 0.1480835523	-0.399025
C	 0.0407363478	 0.0647939376	 0.0149974612	 0.150923
C	 0.7478352374	-0.0347110402	-1.3422091093	-0.189015
N	 1.59454976	-1.2387681211	-1.4128847595	-0.090112
C	 2.9966454247	-1.1908635084	-1.0235722434	-0.040124
C	 3.2718104373	-0.1156505576	 0.0320563369	-0.27774
C	 2.114579134	-0.728894395	 0.8986480352	 0.113107
O	 0.9708844091	 0.0764778307	 1.0986376868	-0.285708
C	 1.9696640626	-1.8527630521	-0.1474573637	-0.103922
H	-0.2203697144	 2.2123834792	 0.0234420659	 0.120039
H	-1.6175720579	 1.3091086556	-0.6058812098	 0.114221
H	-1.2866064639	 1.3418795111	 1.1381859983	 0.126865
H	-0.5942423048	-0.8319939141	 0.1111872992	 0.074879
H	-0.0080747843	-0.1034636255	-2.1322775658	 0.106498
H	 1.333969249	 0.8727506883	-1.5337402663	 0.102879
H	 3.7205623656	-1.6435296453	-1.6913712704	 0.094881
H	 4.2440313762	-0.2452634884	 0.5144464735	 0.104975
H	 3.1588923425	 0.9309175194	-0.2647141672	 0.10065
H	 2.4533937374	-1.0521273147	 1.8853216832	 0.086684
H	 1.7417574668	-2.8984805159	 0.0266533828	 0.089045
