18
gdb 39586	3.40219	1.55226	1.124	1.89	76.35	-0.2449	0.0071	0.252	1057.9835	0.151308	-401.964689	-401.957856	-401.956912	-401.995811	27.659	
C	-0.0057747033	 1.4657628108	-0.2451600378	-0.258242
C	 1.2920193378	 2.2098718153	 0.1920219352	-0.262162
C	 2.4195430952	 1.1989075232	 0.1182818763	 0.074307
N	 3.8310853386	 1.5303965407	 0.4161312679	-0.30633
C	 4.2805775051	 0.4506106085	 0.9170022008	 0.092663
O	 3.4274894061	-0.588955131	 1.1688101512	-0.256231
C	 2.1345898256	 0.068517222	 1.0944444543	 0.125565
C	 0.9315662767	-0.7052240629	 0.6709942801	-0.149651
C	-0.0536612129	-0.0153481887	 0.0885898926	-0.027537
H	-0.8838539856	 1.9602569929	 0.1887077527	 0.114811
H	-0.1340359347	 1.5647170883	-1.3326351196	 0.119486
H	 1.471142371	 3.0715457496	-0.4568895983	 0.110495
H	 1.1922437534	 2.5890327827	 1.215624577	 0.10566
H	 2.4176049346	 0.7816688225	-0.9020940432	 0.090043
H	 5.3163987022	 0.2528223057	 1.1701566343	 0.135066
H	 1.971937262	 0.4900457198	 2.100798952	 0.092297
H	 0.8447654422	-1.7623896597	 0.8992224639	 0.103839
H	-0.9725884641	-0.5265746598	-0.1893606295	 0.09592
