20
gdb 10504	2.59255	1.56938	1.15124	2.6402	75.16	-0.2448	-0.0205	0.2242	1107.5215	0.17499	-349.007403	-348.998211	-348.997267	-349.042286	33.097	
C	 0.3792761552	 0.1416350826	 1.7030989087	-0.384877
C	 0.0334869029	 0.0126995032	 0.2144672426	-0.254522
C	-1.2866525646	-0.698830128	-0.0609387376	 0.377784
C	-2.5341516804	-0.0107361596	 0.4848011134	-0.353753
C	-2.7471560488	 1.354420726	-0.1358037948	 0.16526
O	-2.8838909279	 2.3799173454	 0.4809019805	-0.24402
C	-1.4224464121	-1.4445967651	-1.3707356434	-0.315424
C	-1.2765265605	-2.2092230251	-0.0774639039	-0.311354
H	 1.3678111838	 0.592380989	 1.8326288873	 0.115159
H	-0.3397804391	 0.7744184314	 2.232081883	 0.130514
H	 0.3890571076	-0.8385464817	 2.1913816725	 0.116582
H	 0.013497173	 1.0120466369	-0.240987978	 0.105242
H	 0.8338496018	-0.5353775023	-0.2968742336	 0.094769
H	-3.4148825286	-0.6207559655	 0.2401749695	 0.113084
H	-2.5011909617	 0.1042824654	 1.5722157164	 0.121158
H	-2.7651024606	 1.3501041598	-1.2508386643	 0.07473
H	-2.3895743949	-1.4577117358	-1.8626078877	 0.109993
H	-0.5811616327	-1.4305580411	-2.055459047	 0.114229
H	-0.3329697395	-2.7093942862	 0.1143103595	 0.114269
H	-2.1425332729	-2.7374657594	 0.3070535667	 0.111175
