22
gdb 76555	2.41144	1.22375	1.17363	1.2235	83.15	-0.2139	0.0715	0.2855	1242.0368	0.192444	-404.307021	-404.297059	-404.296115	-404.341494	37.231	
C	-0.1229046306	 1.5478171966	 0.3078366178	-0.419514
C	 0.0204650139	 0.044577255	 0.2219336294	-0.059105
N	 1.25087976	-0.6296155317	-0.2345244154	-0.176941
C	 2.4239538389	 0.1561787619	-0.5919804234	-0.319667
C	 0.8740914116	-0.7313965956	 1.1608069418	 0.322714
C	 1.5481642066	-0.2088946661	 2.4413236787	-0.32227
C	 0.7574850711	-1.3058414293	 3.2168822466	-0.238449
C	 0.4927734685	-2.0325941584	 1.8789852754	 0.070885
O	-0.810668903	-2.5443681407	 1.7333287159	-0.43231
H	 0.7399081803	 2.0333872687	 0.7690784959	 0.120347
H	-0.264591442	 1.9856419969	-0.6866462766	 0.122282
H	-1.0045648027	 1.8010445005	 0.9063879411	 0.125314
H	-0.8783146737	-0.4549305371	-0.1392864752	 0.082876
H	 2.6286906875	 1.0139758118	 0.0646653452	 0.104335
H	 3.3024742526	-0.4973012967	-0.5693102	 0.120704
H	 2.3126199866	 0.5286075972	-1.6154845082	 0.120694
H	 2.6283173165	-0.3869502452	 2.4494690658	 0.105302
H	 1.3665641847	 0.8282962136	 2.7306649734	 0.105163
H	 1.2832066357	-1.8592935919	 3.9966140595	 0.09957
H	-0.1810980825	-0.9162599863	 3.6182880408	 0.116497
H	 1.2498940249	-2.8082481772	 1.6875755523	 0.064809
H	-0.8501943046	-3.0211032161	 0.8979500293	 0.286761
