22
gdb 104930	2.20708	1.35035	1.00774	2.6069	84.79	-0.2521	-0.0292	0.2228	1297.1585	0.191315	-404.348529	-404.338002	-404.337058	-404.383788	38.727	
C	 0.3991537032	 1.4259355512	 0.4003175687	-0.384814
C	-0.2669254591	 0.1604199319	-0.1543031055	-0.251881
C	 0.4944604686	-0.4230885895	-1.3339816162	 0.179218
N	 1.8552619042	-0.9648953343	-1.074820389	-0.39406
C	 0.8148492944	-1.9059218637	-1.4794055208	 0.263232
C	 0.3669433905	-2.8672691311	-0.3911074063	-0.431983
C	 0.8829420545	-2.5773503146	-2.8434081741	-0.467713
C	 0.3357574222	 0.3598314791	-2.5978976234	 0.115165
O	-0.4987140394	 1.2136998563	-2.7730632369	-0.264629
H	 1.4234870254	 1.2115458889	 0.7193744595	 0.127036
H	 0.429234821	 2.2176651427	-0.3534675643	 0.129537
H	-0.1552958227	 1.8073945565	 1.2628843911	 0.11049
H	-0.3587186061	-0.5816117121	 0.6403412458	 0.097445
H	-1.2793464877	 0.3953008232	-0.4979756628	 0.118122
H	 2.4758420193	-0.7467650286	-1.8551123855	 0.226486
H	 0.5261625641	-2.454259999	 0.6044289025	 0.138572
H	-0.6902985654	-3.1288287683	-0.5053017183	 0.122866
H	 0.9498218111	-3.7923740513	-0.4621948319	 0.120083
H	 1.552783483	-3.4429304668	-2.7872265778	 0.127061
H	-0.1031673221	-2.946231922	-3.1445737239	 0.134263
H	 1.2521780656	-1.9243726838	-3.6353958917	 0.119971
H	 1.0834123751	 0.1300779653	-3.3909919993	 0.065534
