19
gdb 95321	2.6785	1.73974	1.50868	0.7645	68.94	-0.2539	0.0772	0.3311	952.2269	0.162533	-460.178766	-460.171581	-460.170637	-460.210083	29.313	
O	 0.079445766	 1.3871377499	-0.1607438897	-0.447127
C	 0.0966302954	-0.0221175985	 0.0094035746	 0.138526
C	 0.8233481513	-0.4429041497	 1.3050443066	-0.239074
C	-0.0620994203	-0.2352048704	 2.5509330289	-0.23524
C	-1.49226713	-0.6833569133	 2.2412246089	 0.205933
O	-1.5166541101	-2.0388737718	 1.8067898048	-0.27387
C	-1.5001189956	-2.0255017735	 0.3770529885	-0.104193
C	-1.3520589243	-0.5383576662	 0.0289232995	 0.020285
O	-2.0016007568	 0.0780673914	 1.1548597859	-0.273169
H	-0.6129423485	 1.71893859	 0.4246804386	 0.286465
H	 0.627206964	-0.4249372006	-0.860853168	 0.082974
H	 1.0975562004	-1.5009532641	 1.2339878715	 0.110099
H	 1.7529721843	 0.1268706688	 1.3845283117	 0.10942
H	 0.3289220472	-0.7982559284	 3.4038941618	 0.10908
H	-0.0931060841	 0.8206026903	 2.8444566302	 0.104398
H	-2.1741021718	-0.5695806403	 3.0888608826	 0.090606
H	-0.6720200584	-2.6386265785	 0.0045389163	 0.109651
H	-2.4435055845	-2.4335102942	-0.0040247917	 0.110533
H	-1.8858952842	-0.236707891	-0.8741170108	 0.094702
