17
gdb 71378	2.72846	1.80378	1.29657	2.1207	74.46	-0.2362	0.0183	0.2545	990.7882	0.135386	-417.935026	-417.926978	-417.926034	-417.967161	31.278	
C	-0.0377292685	 1.4776315503	 0.0388114203	-0.506375
C	-0.0516516616	-0.0197983141	-0.0139086317	 0.259188
C	-1.2236933512	-0.9814767276	-0.1796748939	-0.2303
N	-0.3082772354	-2.1113739409	 0.2841817266	-0.216135
C	 0.6066076554	-1.0297272477	 0.8793582466	-0.166141
C	 1.1650209366	-0.8195287841	-0.5433460309	 0.298576
O	 2.2722223327	-0.1569341853	-0.9928805062	-0.459303
C	 0.6518339477	-2.1707540048	-0.8516606938	 0.323345
N	 1.0132192664	-3.0995324339	-1.6155882785	-0.577794
H	 0.9664893	 1.8507746965	 0.2575195826	 0.140891
H	-0.3473764895	 1.9040938238	-0.9212457396	 0.132742
H	-0.7201287899	 1.8470997198	 0.8114703344	 0.124538
H	-2.0152687598	-0.8230943238	 0.5584043189	 0.113455
H	-1.6562364824	-1.1359778054	-1.174622583	 0.111401
H	 1.0760765181	-1.0556620829	 1.8512960365	 0.117819
H	 2.9957664301	-0.7924880851	-1.0500006308	 0.304994
H	 0.4640144011	-3.9425644348	-1.4336386175	 0.229099
