21
gdb 70521	2.42846	1.72478	1.25321	1.0526	83.3	-0.2344	0.0222	0.2566	1088.1949	0.183508	-387.080599	-387.072357	-387.071413	-387.112832	33.224	
C	-0.2082011058	 1.4662541103	-0.0852728839	-0.466148
C	-0.0306228258	-0.0344439614	-0.0101348895	 0.448525
C	-0.7899529877	-0.8237531334	 1.0185644945	-0.363666
C	 0.7169020608	-0.6711160829	 1.13326999	-0.065839
C	 1.6261816543	-1.8535944194	 0.8295741266	-0.27927
C	 2.7288481991	-1.5230724165	-0.1556520439	-0.076037
C	 2.5636737455	-0.9125355852	-1.328264394	-0.033833
C	 1.2845935094	-0.4271116421	-1.9589047378	-0.143342
O	 0.0840526916	-0.6907874604	-1.2493724371	-0.2878
H	 0.6767179915	 1.966662317	-0.4930838155	 0.119004
H	-1.0663327321	 1.7189484216	-0.7172644764	 0.123095
H	-0.3851295882	 1.8792233731	 0.9117627615	 0.116936
H	-1.4310386267	-0.285384248	 1.7081114186	 0.106753
H	-1.1646871447	-1.7932564667	 0.7088134522	 0.11884
H	 1.0854947554	 0.0059556343	 1.8997207935	 0.081557
H	 2.0638129396	-2.2230846882	 1.7629774442	 0.097814
H	 1.0270711638	-2.6811425731	 0.432698898	 0.119198
H	 3.7360255157	-1.8275429404	 0.1200033402	 0.085123
H	 3.4390673959	-0.7299293939	-1.9513529779	 0.083916
H	 1.3799494227	 0.6489612039	-2.1819578444	 0.098975
H	 1.1553489958	-0.9215057788	-2.9308512189	 0.1162
