18
gdb 83497	2.92797	1.49439	1.45619	4.2668	70.82	-0.2369	0.0323	0.2692	979.3918	0.150808	-439.133073	-439.125717	-439.124773	-439.164489	29.782	
O	-0.0528117863	 1.421090059	-0.0179626685	-0.436643
C	 0.0028307105	 0.0143332016	 0.0245798347	 0.135565
C	 0.353656281	-0.5968423964	 1.4098114992	-0.060759
C	-0.7630810202	-0.009497896	 2.307111916	-0.201674
C	-1.9964525747	-0.0304937358	 1.3501288087	-0.218594
C	-1.4067065175	-0.5996110822	 0.0190133642	-0.156549
C	-1.0824587355	-2.0677310048	 0.3243378407	 0.404996
O	-1.6922815686	-3.0665403316	 0.0213545211	-0.387755
N	 0.0574348266	-1.9971650752	 1.1054666655	-0.298755
H	 0.8478013195	 1.7595365742	-0.0384100122	 0.287775
H	 0.6446484645	-0.3954755483	-0.765338453	 0.080509
H	 1.377228616	-0.4588486823	 1.7625500352	 0.07146
H	-0.9064749412	-0.6135593409	 3.2061356505	 0.097797
H	-0.5158195607	 1.0095623848	 2.6130084765	 0.108166
H	-2.8152235505	-0.6522255686	 1.7181935227	 0.115881
H	-2.3811774001	 0.9764109116	 1.1825536438	 0.120947
H	-2.0225287041	-0.459097704	-0.8661372817	 0.089595
H	 0.3137972514	-2.7664012349	 1.7062489768	 0.248036
