16
gdb 23264	2.98606	1.53247	1.09478	1.7647	76.16	-0.2174	-0.0366	0.1808	1070.549	0.125602	-434.029525	-434.021751	-434.020807	-434.061411	30.858	
N	-0.0518860413	 1.3436709556	-0.1987610022	-0.576545
C	-0.0183968277	-0.0082623632	-0.034976522	 0.299471
N	-1.0706753594	-0.7494469334	 0.0471946467	-0.296331
C	-0.661911205	-2.134142944	 0.0623517062	 0.004852
C	-0.0468416581	-2.653370195	-1.2046672952	-0.292368
C	 0.8498225035	-2.212871198	-0.0447552211	-0.14177
C	 1.2664578405	-0.7916542897	-0.0327521862	 0.36087
N	 2.4922414805	-0.4364041966	 0.0304588213	-0.2523
O	 2.6550160932	 0.960179799	 0.0926640788	-0.39594
H	 0.7786164076	 1.8587199947	 0.0390760754	 0.271889
H	-0.94604003	 1.7829860454	-0.0454586744	 0.256855
H	-1.2370196538	-2.7961225166	 0.699225207	 0.096902
H	-0.0715073055	-3.7217157333	-1.3937541651	 0.118127
H	-0.1073265089	-2.02705231	-2.0885582329	 0.125408
H	 1.462095166	-2.9514343723	 0.4542330077	 0.107099
H	 3.6117722184	 1.0522540875	 0.1395475459	 0.313781
