19
gdb 31483	3.10248	1.07111	0.84527	2.0191	80.98	-0.2081	0.017	0.2251	1398.5462	0.157855	-423.066654	-423.056837	-423.055893	-423.101963	34.805	
C	 0.2116440705	 1.3672462077	-0.1102990054	-0.4952
C	-0.0556490961	-0.0947033384	-0.0625627904	 0.255342
C	-1.1917966325	-0.8486090457	-0.0188103063	 0.189433
C	-2.6129107908	-0.3759243339	-0.0021354591	-0.505748
C	-0.7501837628	-2.218730922	 0.0049123798	-0.374146
C	 0.6060396909	-2.2021216392	-0.018364648	 0.343264
C	 1.6648936623	-3.2478696696	-0.0349432471	-0.175838
O	 2.3833718956	-3.3050261066	-1.264262909	-0.413508
O	 1.0467766312	-0.907265885	-0.0576905257	-0.230859
H	 0.7560488541	 1.647930587	-1.0196743273	 0.135816
H	-0.7267772918	 1.9252201126	-0.0940214954	 0.134611
H	 0.8152502985	 1.6933880181	 0.7446402338	 0.136933
H	-3.1727072025	-0.7600690178	-0.8627473341	 0.130667
H	-3.1377341446	-0.7157996038	 0.8982521289	 0.129562
H	-2.6774394873	 0.7150216964	-0.0283428832	 0.12232
H	-1.3746899073	-3.0991746606	 0.0335661869	 0.108047
H	 2.3561097461	-3.0941070509	 0.8091915602	 0.099633
H	 1.196658653	-4.2270139972	 0.0952089709	 0.122475
H	 2.7272659437	-2.4207077612	-1.4289067894	 0.287195
