23
gdb 119103	1.79046	1.028	0.7149	0.1739	96.12	-0.2248	0.0621	0.287	1712.5617	0.203429	-351.131895	-351.120782	-351.119837	-351.170352	39.39	
C	-0.1453591267	 1.6502193019	 0.1071652517	-0.380856
C	-0.0973072354	 0.1304160941	 0.2843712494	-0.159036
C	-1.3719232741	-0.5666564459	-0.2047244146	-0.256009
C	-1.3376984455	-2.0860369865	-0.0561714179	 0.177716
C	-1.7117923972	-2.6766270243	 1.2972744991	-0.288676
C	-2.6597046617	-2.8139119984	 0.1400800717	-0.308803
C	-0.3188065236	-2.7618940744	-0.8202307863	 0.024969
C	 0.5368752432	-3.3067886283	-1.4719387382	 0.066568
C	 1.5674320602	-3.9729798628	-2.2562713032	-0.500622
H	 0.7757678567	 2.1224545089	 0.4628255771	 0.110204
H	-0.2728740889	 1.9223469406	-0.9466956922	 0.113361
H	-0.9806013269	 2.091072372	 0.6635264769	 0.110135
H	 0.7621316523	-0.2805618497	-0.257858947	 0.10904
H	 0.0633158109	-0.1147687166	 1.3419851868	 0.093456
H	-2.2365839497	-0.1823516144	 0.3521504671	 0.086825
H	-1.5448937923	-0.3157756541	-1.259370496	 0.099165
H	-1.1746294449	-3.5574601305	 1.6276197746	 0.120845
H	-1.9617796575	-1.9756857901	 2.0869723179	 0.112938
H	-3.5605961986	-2.2093553729	 0.1360457948	 0.112883
H	-2.766586829	-3.7885536443	-0.3209105054	 0.120679
H	 1.2579227791	-4.9844817136	-2.5428531634	 0.145236
H	 1.7827955422	-3.4226792132	-3.1791597177	 0.145694
H	 2.5065218776	-4.0610448076	-1.6979925752	 0.144287
