20
gdb 110994	2.62625	1.51855	1.19779	1.8333	80.52	-0.2133	0.0074	0.2208	1123.768	0.170578	-403.090605	-403.081978	-403.081033	-403.12378	33.199	
C	 0.21482028	 1.3753472177	 0.0983306533	-0.243598
O	-0.2269965003	 0.0790826092	-0.2432247477	-0.247666
C	 0.5422649533	-0.5357596301	-1.2198581617	 0.182878
C	 1.7919302535	-1.4072121997	-0.7601433812	-0.119358
N	 0.7750301209	-2.4074561963	-0.3059849958	-0.320964
C	 0.0519672119	-1.9966157887	-1.5638750949	 0.258154
C	-1.4042003641	-2.3511032617	-1.7088593544	-0.516502
C	 1.0706653417	-2.3120399154	-2.6767471335	-0.141724
C	 2.2310086157	-1.9168039466	-2.1371209709	-0.099802
H	 1.2128666482	 1.3600606129	 0.5597272543	 0.110248
H	 0.2503643274	 2.0365604451	-0.781588437	 0.104973
H	-0.4992256097	 1.7811384666	 0.8183739825	 0.130059
H	 0.7238392331	 0.1334839156	-2.071191596	 0.061336
H	 2.535945632	-1.0629345915	-0.0420086691	 0.066216
H	 1.1358728883	-3.3606550706	-0.3817829787	 0.194836
H	-1.9729031406	-1.9431264661	-0.8701917604	 0.143489
H	-1.814337498	-1.9455789953	-2.6399325293	 0.114296
H	-1.5417428045	-3.437805835	-1.7256536435	 0.116679
H	 0.8478889869	-2.6826642409	-3.6679723776	 0.102985
H	 3.2209535342	-1.8678074195	-2.5690908483	 0.103467
