15
gdb 4571	5.79791	1.55933	1.23914	0.7926	71.96	-0.2182	-0.0258	0.1924	949.9109	0.121142	-358.917985	-358.910612	-358.909668	-358.950547	27.066	
C	-0.0171635812	 1.5193127182	 0.0103351642	-0.500685
C	 0.0048349091	 0.0144491474	 0.0020866593	 0.227164
C	 0.0086661321	-0.7370073741	-1.1737000325	-0.049579
N	 0.0505246379	-2.0653738962	-1.2073845999	-0.311851
C	 0.0928900749	-2.6786931461	-0.0130005727	 0.430927
N	 0.1990496028	-4.0417758459	-0.0210438266	-0.554323
N	 0.0653025736	-2.0783269245	 1.1883420797	-0.31187
C	 0.0231185973	-0.7496553248	 1.1695234633	-0.049624
H	 0.9947758387	 1.9428264269	 0.0039823823	 0.134937
H	-0.5382687661	 1.914218583	-0.867252766	 0.128357
H	-0.5231928022	 1.904627261	 0.9008997358	 0.128323
H	-0.0323075867	-0.2373260682	-2.1415488024	 0.103597
H	-0.0338899901	-4.5049396042	-0.8833502331	 0.260518
H	-0.0232546347	-4.5142750444	 0.8390024908	 0.260517
H	-0.0058766555	-0.2604488882	 2.1431372276	 0.103591
