22
gdb 116722	4.03911	0.72857	0.66391	2.8565	89.51	-0.241	0.0207	0.2616	1780.6157	0.192576	-404.335009	-404.324724	-404.323779	-404.371646	36.395	
C	-0.3801816175	 1.7049923918	-0.1087281976	-0.249117
O	-0.1120172409	 0.3425448954	 0.1978940616	-0.193988
C	-1.1743563177	-0.4849744162	 0.14926476	 0.119116
N	-1.0457634173	-1.7138030732	 0.3883924933	-0.213896
C	-2.2212830855	-2.5395712142	 0.3160614076	 0.066421
C	-2.145145903	-3.787785342	-0.6054856727	-0.233897
C	-2.8835541807	-4.602518969	 0.489179752	-0.225309
C	-2.5106318116	-3.4978851594	 1.5236178761	-0.003997
C	-1.2949787453	-3.8308253342	 2.3818752881	-0.376954
H	 0.5683431946	 2.2343350372	-0.011481161	 0.146463
H	-0.7516572487	 1.820964215	-1.1343003729	 0.127089
H	-1.1061484599	 2.1398808779	 0.5892331003	 0.12667
H	-2.1252564782	 0.0075238218	-0.1123136546	 0.071383
H	-3.1281417295	-1.9551705077	 0.084856373	 0.048051
H	-2.6082145346	-3.7080265188	-1.5921808933	 0.08998
H	-1.1074131968	-4.1062040786	-0.7294890587	 0.113786
H	-3.9605424618	-4.6623435444	 0.3096723242	 0.094331
H	-2.5116346655	-5.6092056118	 0.6964839525	 0.094559
H	-3.3320391946	-3.1646993853	 2.1663391583	 0.05852
H	-0.4548116076	-4.1787085899	 1.7735719372	 0.121557
H	-0.9497114871	-2.9529932742	 2.9358276898	 0.117511
H	-1.5433401007	-4.6182388301	 3.1021667368	 0.101721
