13
gdb 25261	3.47046	1.66896	1.13506	3.5766	65.44	-0.2548	-0.0356	0.2192	966.1559	0.093183	-452.81381	-452.807519	-452.806575	-452.844627	24.037	
O	-0.0637878341	-0.0484319577	 0.0045186346	-0.363413
C	 0.0330174533	 1.1458608993	 0.0102203427	 0.415711
O	-1.0709499528	 1.9845674521	 0.0285711255	-0.255475
C	-0.7077511436	 3.3863684919	 0.0306852659	-0.188695
C	 0.7851700143	 3.3475058352	 0.0103871677	 0.265687
C	 1.1785691526	 2.0452464645	-0.0014038143	 0.129587
N	 2.5490608986	 2.0682007214	-0.0206038534	-0.397972
C	 2.8928679173	 3.3936494205	-0.018246626	 0.007236
N	 1.8447320035	 4.2043085014	 0.0003627144	-0.340799
H	-1.1533726224	 3.8602024082	-0.850313414	 0.145697
H	-1.1294790143	 3.851310183	 0.9280285412	 0.145665
H	 3.1765142594	 1.2808575816	-0.0334169949	 0.288053
H	 3.9250674281	 3.7118099487	-0.0307780492	 0.148718
