16
gdb 39075	2.49629	2.2581	1.63862	2.1792	68.75	-0.2423	-0.0058	0.2365	854.448	0.127249	-437.894764	-437.888292	-437.887348	-437.925445	26.074	
C	 0.0211953787	 1.5164326983	 0.2690405842	-0.153747
N	 1.1145601732	 2.274727333	-0.2922600306	-0.261711
C	 1.8835285955	 1.9871661043	-1.2481880803	 0.134895
O	 2.047840749	 0.9002424961	-2.0605692975	-0.242319
C	 1.4246960247	-0.3566597298	-1.7281101513	 0.14621
O	 0.0741424269	-0.2056513334	-1.415925076	-0.229886
C	-0.0011772256	 0.0003225923	 0.00051812	 0.003553
C	 1.2246147858	-0.702120263	 0.5323463777	-0.080003
C	 2.0540193721	-0.9314232919	-0.4777971291	-0.112518
H	 0.0007058002	 1.6929161669	 1.3522041465	 0.110599
H	-0.9107894981	 1.9430242296	-0.12640272	 0.126683
H	 2.6012072153	 2.7397362193	-1.576937655	 0.120009
H	 1.5242207213	-0.9432092645	-2.6430122049	 0.104524
H	-0.9449608586	-0.4275427354	 0.3560528338	 0.093754
H	 1.387486004	-0.9013042664	 1.5831942074	 0.119927
H	 3.0477290256	-1.3558236756	-0.4558660249	 0.120031
