19
gdb 41621	3.40642	1.56476	1.33287	1.3798	80.78	-0.2352	0.0054	0.2405	1006.1798	0.16188	-385.842037	-385.83513	-385.834185	-385.873235	28.222	
C	 0.0396220243	 1.5727600413	-0.2022909554	-0.216607
C	 1.5494590604	 1.5346749029	 0.1604391016	-0.223322
C	 1.3913282357	 0.0844915457	 0.6970432482	-0.060887
C	-0.0294570734	 0.0264839883	-0.011415311	-0.0551
C	 0.2598565943	-0.7251880452	-1.3014774551	-0.210909
C	 1.4488754097	-1.3142747054	-1.2275642882	 0.176825
C	 2.7713269607	-1.4695090912	-1.9355093947	-0.150751
O	 3.3966698004	-0.7883495803	-0.8018781279	-0.308181
C	 2.2010620432	-1.0317910722	 0.032433531	 0.1028
H	-0.5590043241	 2.1000665526	 0.5458173094	 0.099562
H	-0.2256843978	 1.9584490798	-1.1908552304	 0.095065
H	 2.2051695857	 1.5659111035	-0.7118192246	 0.118119
H	 1.8981886187	 2.2756627337	 0.8821804443	 0.099523
H	 1.3693649375	 0.0249384156	 1.7865760497	 0.062339
H	-0.8866613811	-0.3459211348	 0.55832882	 0.073049
H	-0.3596784049	-0.6137365775	-2.1852382211	 0.097984
H	 3.153090348	-2.4943696493	-2.034447853	 0.106851
H	 2.9061038996	-0.9317963666	-2.8796639747	 0.118538
H	 2.411768863	-1.873551831	 0.7054205418	 0.075102
