23
gdb 117541	2.09104	1.0582	0.74174	3.0813	87.52	-0.2454	0.0325	0.2778	1613.9216	0.204098	-384.48947	-384.478223	-384.477278	-384.526288	40.074	
C	 0.074322552	 1.566803199	-0.0390071997	-0.392242
C	 0.1525009769	 0.0449264303	-0.1021265433	-0.120068
N	 0.5484386225	-0.5031335793	 1.1973890674	-0.279039
C	 0.6710351753	-1.9555767609	 1.2481047535	-0.100832
C	 1.7494282412	-2.4468881249	 0.3531559222	 0.271457
N	 2.6111484427	-2.761123258	-0.3518182553	-0.344159
C	 0.8810179168	-2.4577064306	 2.700839401	 0.016104
C	-0.2957420126	-2.0275818231	 3.5847886005	-0.391859
C	 1.0867400515	-3.9766768878	 2.7494353245	-0.407231
H	 1.0558829811	 2.0031426323	 0.1789698682	 0.117721
H	-0.2619161821	 1.9741510194	-0.9966355451	 0.122582
H	-0.6205953758	 1.8879517063	 0.7421350926	 0.127447
H	-0.8344689293	-0.3682060264	-0.3464553586	 0.106628
H	 0.8335156638	-0.2613214158	-0.9139706076	 0.107774
H	 1.427195102	-0.0839554851	 1.489883995	 0.222867
H	-0.2717555432	-2.3787830598	 0.8749380527	 0.122323
H	 1.7952447446	-1.974360695	 3.0736137934	 0.084269
H	-0.1089858828	-2.3034593489	 4.6270492569	 0.113558
H	-0.4598439573	-0.950384425	 3.5279997528	 0.13311
H	-1.2189064863	-2.5288083228	 3.2696233451	 0.111676
H	 1.9503265419	-4.2931776024	 2.1586307745	 0.142692
H	 1.2439290515	-4.303554798	 3.781528191	 0.118626
H	 0.2039465358	-4.5032311737	 2.3674130483	 0.116595
