16
gdb 93484	2.99314	1.36436	0.9973	1.2686	66.72	-0.2682	-0.0449	0.2234	1132.6581	0.124292	-475.051719	-475.043659	-475.042715	-475.084809	30.143	
O	 0.1666786668	 1.2377416086	 0.4003467628	-0.434957
C	-0.0436446145	-0.0862068484	 0.0176649514	 0.031961
C	-1.5187847893	-0.358572378	-0.306179553	-0.119068
O	-1.7257985625	-1.7556703468	-0.5314562825	-0.246225
C	-0.8192349971	-2.4505780227	-1.2831138058	 0.38228
N	-0.8901411036	-3.7048283448	-1.4205157673	-0.506436
C	 0.2674478044	-1.6602269947	-1.9803230535	-0.397584
C	 0.7592502404	-0.4420514218	-1.2214990905	 0.363968
O	 1.6656489563	 0.2651730377	-1.5965091463	-0.327582
H	 0.9335455971	 1.5375989585	-0.1140489852	 0.299401
H	 0.2479409933	-0.7947787559	 0.8154570217	 0.114106
H	-2.1517076479	-0.0891694707	 0.5406530776	 0.14411
H	-1.8369560999	 0.2308149768	-1.1762216298	 0.12174
H	-1.6951503376	-4.0726839803	-0.9090702256	 0.226286
H	 1.0925117549	-2.3298709425	-2.2279719929	 0.177373
H	-0.1188517209	-1.2840563551	-2.9384925111	 0.170625
