21
gdb 116208	2.2249	1.43991	0.97363	2.3117	77.78	-0.2459	0.072	0.3179	1268.8736	0.182474	-424.210149	-424.201205	-424.200261	-424.244435	33.526	
C	-0.0205142502	 1.6482470907	-0.0371663553	-0.390259
C	-0.1008195762	 0.1173602815	-0.0379280573	-0.205443
C	 0.6960465996	-0.5285847844	-1.1727550651	-0.062502
C	 2.2152667534	-0.2787896856	-1.1346784661	-0.101224
O	 2.7950425072	-1.3378091267	-1.8840595333	-0.246915
C	 2.0819725227	-2.5127033165	-1.5344130051	-0.156382
C	 0.6476404866	-2.0612700996	-1.2518274075	 0.386322
C	-0.3370884117	-2.9318971255	-0.6035384215	-0.250446
O	-0.4082586223	-2.6575808827	-2.007430559	-0.272954
H	 1.0058421676	 1.9988863148	 0.1133325292	 0.12154
H	-0.37640052	 2.0617231998	-0.9872155451	 0.12046
H	-0.6345794987	 2.07347454	 0.7623105608	 0.115916
H	 0.2549702783	-0.2726616315	 0.9248079785	 0.095755
H	-1.1515313606	-0.1841214622	-0.1249815503	 0.107787
H	 0.3129099413	-0.1609696036	-2.1333222405	 0.097609
H	 2.5222900452	 0.6619797277	-1.5962339202	 0.115242
H	 2.5812802556	-0.2904870261	-0.092070762	 0.08414
H	 2.1293995133	-3.2212566133	-2.3651871549	 0.125384
H	 2.5234898856	-2.9817047382	-0.6392189425	 0.091073
H	-0.0593530157	-3.9532870718	-0.3406019381	 0.110731
H	-1.1377981608	-2.5078768768	-0.0002803147	 0.114167
