22
gdb 96880	3.21867	0.93529	0.89546	2.3197	85.64	-0.2444	0.034	0.2783	1467.2936	0.192371	-404.357984	-404.347644	-404.346699	-404.394063	37.101	
C	 0.3388680077	 1.4351857762	-0.0694973801	-0.338307
N	 0.3952099806	-0.0156716219	 0.0431602041	-0.329513
C	 0.4914430351	-0.7037197765	-0.9957726141	 0.474476
C	 0.5612195275	-2.1838334707	-1.2953645345	-0.423709
C	 0.6051083716	-1.7230634626	-2.7707393099	 0.148329
O	 0.5569621168	-0.319905462	-2.3293499601	-0.282529
C	 1.8145086423	-2.0245093208	-3.6512015435	 0.011509
C	 1.6484791409	-1.3357839226	-5.0150081858	-0.39134
C	 3.1524845913	-1.6411646318	-3.0045091156	-0.401637
H	 1.1905605984	 1.8703081198	 0.4655718575	 0.125309
H	 0.3460651862	 1.8067024222	-1.1009600084	 0.123613
H	-0.5674796205	 1.7973214423	 0.4281798979	 0.125366
H	 1.4539216726	-2.6858407227	-0.9193924116	 0.133741
H	-0.3222921801	-2.7533953754	-1.0022592745	 0.132403
H	-0.3167543939	-1.9500646599	-3.3176416555	 0.086665
H	 1.8007218711	-3.1130642603	-3.8102124299	 0.080311
H	 2.4891735158	-1.5680664804	-5.6756150296	 0.113479
H	 0.7282015406	-1.6547802223	-5.515597291	 0.1113
H	 1.6046264182	-0.2487231787	-4.8919299121	 0.134489
H	 3.3278922654	-2.1684793585	-2.0622548461	 0.115653
H	 3.9800701461	-1.8881171029	-3.6761126912	 0.115409
H	 3.1907504164	-0.5666522203	-2.8035539261	 0.134982
