17
gdb 69748	3.10691	1.4998	1.2907	4.3908	71.28	-0.2524	0.0059	0.2583	1019.326	0.136186	-421.81388	-421.806479	-421.805535	-421.845591	29.098	
C	-0.007316102	 1.5596735902	 0.067154659	-0.498378
C	 0.0293173605	 0.0602799153	 0.0128173138	 0.351295
C	-0.8793119517	-0.831222089	 0.8042608994	-0.357098
C	 0.6069481814	-0.9712509166	 1.0044479346	-0.113011
C	 1.2528306154	-1.7287412772	-0.16709496	 0.109921
O	 0.4530133182	-2.8017940496	-0.7793809318	-0.266221
C	-0.0601445969	-1.9346626627	-1.7303605725	 0.440963
O	-0.8069827701	-2.2009502535	-2.6149980751	-0.324102
C	 0.6908557837	-0.7200885682	-1.170674235	-0.29345
H	 0.9686233213	 1.9956946442	-0.1740465187	 0.12137
H	-0.7376147629	 1.9612777066	-0.6451819524	 0.134125
H	-0.2930169953	 1.9062520373	 1.0653720112	 0.125139
H	-1.3894903509	-0.3334328869	 1.6230528076	 0.118894
H	-1.4568759728	-1.6287051947	 0.347158935	 0.144893
H	 1.0773378071	-0.8179369842	 1.9678138176	 0.094761
H	 2.3021788756	-2.0054896412	-0.0959217903	 0.104309
H	 1.3063046495	-0.1373533398	-1.8527057524	 0.10659
