20
gdb 64220	2.94672	1.22877	1.12134	2.2244	74.66	-0.2416	0.0607	0.3023	1182.0206	0.170122	-440.235582	-440.226401	-440.225457	-440.269593	34.404	
C	-0.1150164252	 1.5723352401	-0.0425685832	-0.463696
C	-0.0038900088	 0.0554695884	-0.0111601919	 0.313739
O	-1.2196646981	-0.5636448911	-0.3791688997	-0.470483
C	 1.2722712819	-0.5391708594	-0.6648134996	-0.112922
O	 1.7879907277	-0.9508500628	 0.6209996921	-0.300189
C	 0.5523601355	-0.5978070445	 1.2868825515	 0.089754
C	 0.7864587442	 0.2297826505	 2.5239930063	-0.021665
C	 1.9177428494	-0.0961150343	 3.4240494357	-0.246422
N	 1.9480598283	 1.1279510283	 2.5973586651	-0.323891
H	 0.7942418935	 2.0551225332	 0.3220761036	 0.146284
H	-0.290776522	 1.9161736814	-1.0700143332	 0.108308
H	-0.9513564776	 1.9070289764	 0.5783243219	 0.131031
H	-1.597535578	-0.0774040532	-1.1195838166	 0.280293
H	 1.0579092516	-1.3967305935	-1.3132007155	 0.105282
H	 1.951545561	 0.1557733291	-1.1723440931	 0.099043
H	-0.0378528717	-1.4917410038	 1.5312494563	 0.091177
H	-0.124983064	 0.6351892838	 2.9602579899	 0.096401
H	 1.8259324959	 0.0695555207	 4.4934438497	 0.116112
H	 2.5679030593	-0.9169770928	 3.1356619346	 0.127773
H	 2.5359339871	 0.9243607138	 1.7894759361	 0.23407
