16
gdb 68101	3.2712	1.27142	1.07189	5.4192	76.34	-0.2619	-0.0122	0.2496	1132.1741	0.123858	-400.739673	-400.731481	-400.730537	-400.772381	30.473	
C	 0.0013643321	 1.4949537029	 0.0066177969	-0.512493
C	-0.0067774749	-0.0044295036	-0.0018002108	 0.163589
C	 0.5899221136	-0.9813328634	-1.0851835183	-0.293682
C	 0.0048339984	-1.9643495227	-0.0130168778	 0.073801
C	 0.610612722	-0.9934835111	 1.0587287473	-0.293682
C	 0.0312297746	-3.3957586272	-0.0213840972	 0.17009
N	 0.0361085627	-4.5524659719	-0.0279871381	-0.345419
C	-1.2000226106	-0.9699148734	 0.0042740345	 0.411371
O	-2.3860276715	-0.9766029257	 0.0155696198	-0.303298
H	 1.0234815036	 1.8859384868	-0.0005662823	 0.132741
H	-0.5202348044	 1.8896298646	-0.8707603495	 0.141542
H	-0.5039762073	 1.8796067601	 0.8978538123	 0.141548
H	 0.1305665664	-0.990926813	-2.0745159487	 0.131812
H	 1.6808558712	-0.9827224322	-1.1356637882	 0.125138
H	 1.7023175807	-0.9953142467	 1.0881174016	 0.125132
H	 0.1704408335	-1.0143455836	 2.0565724783	 0.131811
