21
gdb 108847	2.8924	1.13248	0.89024	3.168	86.95	-0.2339	-0.0382	0.1957	1389.6837	0.182035	-387.146622	-387.137075	-387.136131	-387.181591	35.112	
C	-0.1959364065	 1.5747046329	-0.0189937011	-0.378656
C	 0.0568627715	 0.057546597	 0.0469606283	-0.291612
C	 0.7723120178	-0.4611543053	-1.1633114046	 0.210064
C	 2.0279729436	-0.9156872176	-1.2808010466	-0.168315
C	 2.4110804558	-1.355829093	-2.6758456563	-0.024126
C	 2.9366888678	-2.7993092671	-2.716895854	-0.395539
C	 1.115305073	-1.1291519091	-3.4852088857	-0.3468
C	 0.1078025698	-0.5337954681	-2.4935843742	 0.333102
O	-1.0265098754	-0.1919923625	-2.7455224064	-0.337171
H	 0.7470957137	 2.1280188232	-0.0741353366	 0.111788
H	-0.7931392286	 1.8231674224	-0.8995124819	 0.146866
H	-0.7368793142	 1.9134154913	 0.869711261	 0.112776
H	 0.6274347515	-0.1901607626	 0.9487685183	 0.098031
H	-0.9102371306	-0.4539375044	 0.1239515533	 0.119999
H	 2.7371376778	-0.9848091574	-0.4597339484	 0.102402
H	 3.2107020014	-0.699594666	-3.0469347119	 0.089735
H	 2.1726238443	-3.5016806307	-2.3668040624	 0.121571
H	 3.2175962576	-3.082956878	-3.7359806624	 0.121149
H	 3.819426898	-2.9173052633	-2.0795741225	 0.116054
H	 1.242714175	-0.4507800708	-4.3337535835	 0.129337
H	 0.7098599466	-2.0633891809	-3.8879814726	 0.129344
