18
gdb 89860	2.87847	1.16467	0.97115	4.1707	76.94	-0.2893	-0.0038	0.2855	1252.7701	0.146444	-401.933798	-401.925135	-401.924191	-401.967637	32.226	
C	 0.6629092544	 1.3987750594	 0.0321920537	-0.39379
C	-0.0424581489	 0.0476620863	-0.002435349	 0.026275
C	 0.6003960416	-0.9948148632	-0.9782935807	-0.336723
C	 1.1817328156	-1.6961691678	 0.2459162218	 0.473912
C	 0.2992678647	-0.8946721654	 1.2008001547	-0.33657
O	 1.4593264991	-3.0785659003	 0.3470703084	-0.264337
C	 2.5633044412	-2.1722305872	 0.4681850308	-0.219782
C	 3.5221652746	-2.169919253	-0.6143797586	 0.311241
N	 4.2933451402	-2.1356506274	-1.4749475554	-0.330036
H	 1.7423255308	 1.2810794701	 0.1826137802	 0.118894
H	 0.5176112615	 1.9424138801	-0.9070603407	 0.123772
H	 0.2792887104	 2.0232891534	 0.8459242641	 0.119808
H	-1.1145850993	 0.1884308578	-0.1556761394	 0.082069
H	-0.1363230407	-1.62403448	-1.4845793693	 0.123737
H	 1.3121008212	-0.6167459785	-1.7165317185	 0.127899
H	 0.7827119896	-0.4389850046	 2.0688721123	 0.111217
H	-0.5556205934	-1.4862167872	 1.5397947594	 0.123605
H	 3.0006789073	-2.1040146224	 1.4625521962	 0.13881
