18
gdb 69084	2.56336	1.5781	1.20528	3.6224	76.65	-0.2503	0.0287	0.279	1068.8388	0.148167	-401.963835	-401.955591	-401.954647	-401.996365	31.603	
C	-0.0258246111	 1.5907996192	 0.0386508541	-0.463364
C	 0.1543365875	 0.101335568	-0.0005396443	 0.413881
C	-0.7144550563	-0.8382408751	 0.7849316262	-0.388829
C	 0.7793751919	-0.7376362213	 1.1207038222	 0.111017
C	 1.6976339157	-1.7321371203	 0.4167340359	-0.301415
C	 1.2273205727	-1.6468314102	-1.0519213861	-0.107935
O	 0.6634112681	-0.3480465916	-1.2254934126	-0.287117
C	 1.1861232505	-0.166081699	 2.3668743865	 0.210693
N	 1.5117342517	 0.3064819487	 3.3726403092	-0.356018
H	 0.9067667718	 2.0922444161	-0.2343431912	 0.137942
H	-0.8018877234	 1.8970061366	-0.6693998677	 0.135703
H	-0.3188967072	 1.9179275959	 1.0388457582	 0.139793
H	-1.3950042914	-0.3950405868	 1.5027548837	 0.139947
H	-1.0685765387	-1.7600022444	 0.3367861604	 0.128004
H	 2.734611106	-1.4015457717	 0.5234654302	 0.13187
H	 1.6214202389	-2.7484323162	 0.8121400517	 0.123282
H	 2.0405316198	-1.756243094	-1.7730824303	 0.124154
H	 0.4776592934	-2.4195546442	-1.2680330761	 0.108391
