16
gdb 19720	3.56372	2.51909	2.4668	1.7721	61.48	-0.253	0.0825	0.3355	673.9796	0.134042	-383.716848	-383.711488	-383.710544	-383.745957	22.962	
C	-0.0637840859	 1.4963616218	 0.1125076483	-0.300051
C	 1.2892371711	 0.8310365503	-0.0197733885	-0.058033
C	 0.02124529	-0.0009316062	 0.027199617	-0.043377
C	 0.0586923003	-0.6318283082	-1.3796621865	 0.171525
O	-0.2295718619	 0.350323973	-2.3807252573	-0.276267
C	 1.0059971875	 1.0785626918	-2.5319065832	-0.103939
C	 1.8516191462	 0.4623941053	-1.4087084081	 0.034237
O	 1.4347177775	-0.918756	-1.5609660303	-0.251502
H	-0.2911648392	 1.9211352041	 1.0856124891	 0.111278
H	-0.5003383438	 2.0324385029	-0.7206875351	 0.13493
H	 1.9789533673	 0.863406795	 0.8148912464	 0.093709
H	-0.2341671696	-0.6310391308	 0.8711393629	 0.091735
H	-0.5555659257	-1.5158804737	-1.5433454353	 0.093371
H	 1.4383911922	 0.8777335202	-3.518239764	 0.108794
H	 0.8282257719	 2.1521033406	-2.4200432291	 0.106404
H	 2.9309976422	 0.5443407939	-1.5186431765	 0.087186
