13
gdb 2630	15.48072	0.95573	0.91041	2.5637	57.4	-0.2616	-0.0322	0.2294	1165.3498	0.09754	-344.404557	-344.396448	-344.395504	-344.437946	26.44	
O	-0.173248389	 0.1768187874	 0.5840083012	-0.236067
C	 0.0706538364	 1.0691479919	-0.1827392514	 0.139845
C	 1.3488114018	 1.8896770342	-0.1334267201	-0.134793
O	 1.2973949641	 2.8369755106	-1.1702114006	-0.245089
C	 2.4480992481	 3.6622087278	-1.2173458203	-0.206097
C	 2.3297418587	 4.6169354967	-2.3100645184	 0.27865
C	 2.2579424812	 5.4149371827	-3.2039877355	-0.405274
H	-0.6218749749	 1.3720020333	-0.9979295124	 0.103583
H	 1.4277658641	 2.3640990787	 0.8597239764	 0.12471
H	 2.2114957254	 1.2090776389	-0.2344455368	 0.124714
H	 2.5721848019	 4.2003441761	-0.2623391023	 0.125107
H	 3.3540579684	 3.0477424723	-1.3540718829	 0.125108
H	 2.1885842838	 6.1185829994	-3.9965783169	 0.205603
