17
gdb 47705	2.40151	1.63598	1.15026	3.0331	68.51	-0.2552	-0.0365	0.2188	1064.7372	0.136228	-459.012881	-459.004804	-459.003859	-459.046045	29.964	
O	 0.0483128516	-0.0387461214	-0.507573957	-0.283075
C	-0.0068050873	 1.0983245624	-0.1105739335	 0.376331
C	-1.3519049568	 1.7783293758	 0.1638746722	-0.282695
C	-1.5401113321	 2.2771781586	 1.6191406634	-0.251017
C	-0.9036340762	 3.6546996252	 1.8642624918	-0.081009
O	 0.2976488484	 3.7760607895	 1.0866648597	-0.248592
C	 1.2071879949	 2.7716020129	 1.3198527714	 0.391311
O	 1.7569826681	 2.6039678211	 2.3698174138	-0.305123
C	 1.3055773478	 1.8920842917	 0.1000823467	-0.380503
H	-1.4653233218	 2.6214265363	-0.5290249053	 0.127894
H	-2.1111447428	 1.0331933864	-0.0821249153	 0.127987
H	-2.6093655508	 2.3353233817	 1.845508261	 0.118211
H	-1.121384901	 1.5416189576	 2.3152561798	 0.134463
H	-1.5472994967	 4.4597177459	 1.5018957929	 0.122949
H	-0.6940400103	 3.8191242475	 2.9262217673	 0.131528
H	 2.1323431955	 1.1865257931	 0.1686324884	 0.147928
H	 1.4304606197	 2.5306197358	-0.7829836073	 0.153415
