21
gdb 112339	2.18093	1.29033	0.85617	4.2091	87.19	-0.2294	-0.0361	0.1933	1388.9085	0.181848	-387.14648	-387.13696	-387.136016	-387.181216	35.176	
C	-1.5543371982	-0.3215965001	 0.1211802745	-0.383737
C	-0.0700510046	 0.0459859398	 0.0357917253	-0.189624
C	 0.7431257253	-0.4138188056	 1.2621347726	-0.074435
C	 0.8655659972	-1.9468352291	 1.4013515934	-0.353965
C	 2.3713266709	-2.2396008541	 1.4977928249	 0.388549
O	 2.8712726308	-3.3312227524	 1.6506822764	-0.339243
C	 3.0639935939	-0.9450319774	 1.370948348	-0.300696
C	 2.1898667038	 0.0659545377	 1.2438645882	 0.332004
C	 2.5286841367	 1.5169572187	 1.1220147027	-0.494133
H	-2.0225780361	 0.1360343019	 0.9998476144	 0.115884
H	-2.0958203541	 0.0259079482	-0.763842598	 0.116368
H	-1.7003144345	-1.4038954237	 0.1950300078	 0.124499
H	 0.3737214381	-0.3932475109	-0.8674288017	 0.102216
H	 0.0201026096	 1.1331632084	-0.0731341802	 0.097551
H	 0.2573465564	 0.0130789068	 2.1526179624	 0.083984
H	 0.3553676109	-2.350055493	 2.28036865	 0.128576
H	 0.4614264747	-2.4778553737	 0.5328344283	 0.128415
H	 4.1436044452	-0.8592827319	 1.3994915508	 0.105809
H	 3.6003056759	 1.6917541242	 1.241879464	 0.13408
H	 2.2266763663	 1.9140707649	 0.1456598734	 0.143045
H	 1.9928181018	 2.1069767414	 1.8759430429	 0.134853
