15
gdb 16087	4.42137	1.74499	1.4912	4.2746	70.69	-0.2532	-0.0035	0.2497	848.836	0.120789	-325.542333	-325.535824	-325.53488	-325.572817	25.457	
N	 0.0229357926	-1.1170477053	-0.081361115	-0.350392
C	 0.0206211208	 0.0392814583	-0.0288564321	 0.203329
C	 0.0029902547	 1.469967961	 0.0454114333	 0.187406
C	 0.3985905158	 2.260440547	-1.1901699126	-0.30739
C	 1.308050873	 2.2863833458	 0.0109705849	-0.107403
C	 1.0753636112	 3.4048463325	 0.9693374439	-0.070267
C	-0.1439480274	 3.3584274132	 1.5092205698	-0.080567
C	-0.9288659158	 2.1434222039	 1.065958517	-0.332908
H	 0.7108839116	 1.6775740835	-2.0492403619	 0.138213
H	-0.1742093865	 3.1537181693	-1.4158681939	 0.127115
H	 2.272169539	 1.7954277615	-0.0523641068	 0.116453
H	 1.8190440501	 4.170702781	 1.1539115501	 0.109102
H	-0.5608181764	 4.0967173233	 2.183895265	 0.107335
H	-1.8983255078	 2.4040253027	 0.6248834456	 0.126241
H	-1.1376620548	 1.4693156722	 1.9054887028	 0.133734
