22
gdb 88687	3.16825	0.94191	0.8648	1.7241	84.16	-0.2427	0.0726	0.3153	1478.5174	0.191871	-404.314317	-404.304123	-404.303179	-404.34993	37.613	
C	-0.0469474259	 1.5765090464	-0.1449609584	-0.422313
C	-0.0757757035	 0.0895076534	 0.0996992146	 0.073663
O	 1.1523233101	-0.6312121976	-0.0502658388	-0.270024
C	 0.5427950639	-0.5971707221	 1.2489079156	 0.074283
C	 1.3011715764	 0.0944274337	 2.3328873291	-0.099058
N	 0.7939271134	-0.1113342321	 3.7066245137	-0.377568
C	 2.1328443051	-0.6175266078	 3.3516728278	 0.329735
C	 2.2761340821	-2.1262527943	 3.3545267028	-0.43868
C	 3.3406760147	 0.1215912052	 3.8950553413	-0.455687
H	 0.8285999036	 2.048427756	 0.3052800277	 0.126757
H	-0.0199713251	 1.7792042313	-1.2207451445	 0.12929
H	-0.9483806153	 2.0474525078	 0.2619462303	 0.123883
H	-0.9311750161	-0.4178319306	-0.353082337	 0.086821
H	 0.0896598447	-1.5391962803	 1.5562289497	 0.092651
H	 1.6517610822	 1.0901644471	 2.071881027	 0.076927
H	 0.8639548343	 0.7532509034	 4.2378531011	 0.22637
H	 1.3511036728	-2.6198682647	 3.0534839712	 0.127832
H	 3.0767536859	-2.442825418	 2.6774301919	 0.122071
H	 2.5270709962	-2.4790929282	 4.361281225	 0.114842
H	 3.5202467703	-0.1475513706	 4.9427742589	 0.120319
H	 4.2445998572	-0.1311445217	 3.330152875	 0.127672
H	 3.2042663429	 1.2067910436	 3.841318526	 0.110213
