18
gdb 52973	4.62953	0.92092	0.85459	1.5028	87.48	-0.2115	0.0246	0.2361	1415.5239	0.146535	-364.699214	-364.69063	-364.689686	-364.733945	32.013	
C	-0.0677823024	 1.4308667861	 0.0524590001	-0.507811
C	-0.0098388419	-0.0214881269	-0.005615597	 0.240509
C	 0.0248819936	-1.2256778961	-0.0593616222	-0.100801
C	 0.1251263142	-2.6455352059	-0.1009021327	 0.097326
C	-0.4208453899	-3.484271014	-1.1999295352	-0.279704
N	-1.0734301993	-3.5776985049	 0.1133301109	-0.176251
C	-0.2057265247	-4.3672685823	 1.0766706978	 0.008843
C	 1.1157653288	-4.892087969	 0.586953911	-0.309482
C	 0.9679193579	-3.4362167162	 0.9338815055	-0.114257
H	 0.4593917879	 1.8137708106	 0.9332072054	 0.149643
H	 0.3885018897	 1.887637924	-0.8330468446	 0.148557
H	-1.1044178454	 1.7813253566	 0.1099662889	 0.153221
H	-1.0445392818	-2.9638037652	-1.9206458762	 0.130774
H	 0.1331558876	-4.3181048353	-1.6163888049	 0.118998
H	-0.7016201912	-4.7469784093	 1.9600278033	 0.105765
H	 1.6432875214	-5.4626749837	 1.3462238743	 0.119916
H	 1.3011301275	-5.2524573041	-0.4182636773	 0.116922
H	 1.5496920379	-2.9346195644	 1.694374133	 0.097833
