19
gdb 94911	2.11209	1.70163	1.36771	1.5839	80.55	-0.2256	0.0446	0.2702	1055.606	0.15917	-385.844713	-385.836292	-385.835347	-385.877408	32.783	
C	-0.1423760835	 1.5348904415	-0.0552001945	-0.410798
C	-0.0388959923	 0.0114193778	 0.0459038669	-0.010376
C	 0.6203578277	-0.6529873262	-1.1883810895	-0.105869
O	 1.3209830481	-1.8160644817	-0.7259832722	-0.25678
C	 1.5553489122	-1.6877756241	 0.6415256415	 0.09483
C	 2.324652394	-0.4696795428	 1.1588391638	-0.275847
C	 3.0980005271	 0.3914359624	 0.3160688522	 0.341495
C	 3.7965893563	 1.1039680528	-0.3577703116	-0.446473
C	 0.7877376992	-0.5372296846	 1.2026766943	-0.115909
H	 0.8483510153	 1.9884446988	-0.1417542887	 0.139796
H	-0.7315217146	 1.8292316944	-0.9306299938	 0.113388
H	-0.6336576563	 1.9535247534	 0.8287509269	 0.114311
H	-1.0475795059	-0.4031120902	 0.1711706394	 0.082098
H	-0.1071845038	-0.9796844861	-1.9373880331	 0.106158
H	 1.3256654579	 0.0370356439	-1.6636864864	 0.117205
H	 1.6914322421	-2.6457516921	 1.1303156548	 0.108299
H	 2.773214141	-0.6343739822	 2.1362103878	 0.115517
H	 4.4067717862	 1.7265760636	-0.9637173856	 0.194258
H	 0.3336095192	-0.5714708288	 2.1864444377	 0.094699
