20
gdb 57473	2.54363	1.39889	1.12097	1.7551	75.7	-0.267	0.0208	0.2878	1164.2443	0.169455	-440.292627	-440.283196	-440.282252	-440.326484	35.863	
C	 0.0207843208	 1.5720248713	-0.0047220008	-0.437051
C	 0.0287623007	 0.0390415674	 0.0643148007	 0.318343
C	 0.7604605335	-0.4545718556	 1.3137216554	-0.39844
O	-1.3061479132	-0.4611649128	 0.1758527265	-0.465159
C	 0.6827980688	-0.5399540149	-1.2066585926	-0.138551
C	 0.6329304304	-2.0663682067	-1.4384915084	-0.114158
O	-0.1084282946	-1.8555045487	-2.6861339296	-0.247284
C	-0.1619587275	-0.5019267191	-2.468473811	 0.412782
N	-0.7723106021	 0.4021868207	-3.0932994193	-0.552387
H	 1.0391829078	 1.974097153	-0.0055888378	 0.111692
H	-0.4758780993	 1.9129173359	-0.9182706676	 0.151415
H	-0.5096182956	 1.9748269494	 0.8628779829	 0.119666
H	 0.2890378694	-0.0387038071	 2.2082640888	 0.127404
H	 0.7161608882	-1.5451085601	 1.3867897944	 0.120755
H	 1.8103255763	-0.1474123604	 1.2984093138	 0.11275
H	-1.8259149748	-0.0521842069	-0.5270262733	 0.289149
H	 1.6777904057	-0.1123612268	-1.3570908389	 0.105158
H	 1.5795550146	-2.5758010656	-1.6277441237	 0.118472
H	 0.0184025233	-2.6197012539	-0.7261941967	 0.136137
H	-1.2839048923	 0.0222478208	-3.8919669628	 0.229308
