20
gdb 100544	3.66184	0.84586	0.7952	1.8926	76.86	-0.2542	-0.0254	0.2288	1504.1708	0.169573	-440.272642	-440.262509	-440.261564	-440.308558	35.809	
C	 0.0512058762	 1.5163141759	-0.1579783569	-0.401787
C	-0.0851036873	-0.0062801436	 0.059051389	-0.082891
C	-1.5500385211	-0.4405570951	 0.0885462724	-0.082688
O	-2.1632874072	 0.2084265749	 1.1936956761	-0.427129
C	 0.6791379193	-0.7512430616	-1.0219692743	 0.380807
O	 0.1264851093	-1.2619596254	-1.9785023864	-0.352828
C	 2.1680652508	-0.8281722043	-0.8797961476	-0.100767
C	 2.7740659276	-2.1873792655	-1.0740703658	-0.219622
N	 2.946842734	-1.1535589547	-2.0832050167	-0.304944
H	 1.0927790072	 1.8446227161	-0.1015234368	 0.121815
H	-0.3425410129	 1.8003067843	-1.1395075764	 0.128171
H	-0.5223116251	 2.0399582584	 0.6089279892	 0.147329
H	 0.3673871449	-0.252245097	 1.0293807385	 0.098291
H	-2.0294896264	-0.1704426584	-0.8622696735	 0.106025
H	-1.6092657622	-1.5348243585	 0.1831373575	 0.094082
H	-3.1031765205	 0.0079648695	 1.1748692366	 0.289883
H	 2.6386788579	-0.1396932173	-0.1848921598	 0.100549
H	 3.6643008702	-2.4465291183	-0.5082971852	 0.126686
H	 2.0867525033	-3.0039305628	-1.2770000394	 0.131254
H	 2.2672482222	-1.3176698068	-2.8278381406	 0.247764
