17
gdb 61006	3.86032	0.89534	0.81263	3.6417	71.22	-0.2423	-0.0529	0.1894	1381.9605	0.133309	-458.96243	-458.953342	-458.952398	-458.997121	32.495	
O	-0.3250848899	 1.3119546787	-0.0625557971	-0.423471
C	-0.0095081624	-0.0516337196	-0.1014369162	 0.013756
C	 0.9654330693	-0.3147395976	-1.2404631158	 0.145331
O	 1.3508125389	 0.5758920485	-1.9566476977	-0.254621
C	 0.5987945708	-0.5702865347	 1.2008070739	-0.037749
C	 1.3588258017	 0.3326321424	 2.1111807059	-0.297304
C	 0.0302223067	-0.2535120808	 2.5814850472	-0.120505
C	-1.1363860101	 0.6427513192	 2.7983190516	 0.14224
O	-1.9670384571	 0.4369976538	 3.6516507263	-0.27239
H	 0.1717485542	 1.7170500289	-0.792964359	 0.299922
H	-0.9140111874	-0.6474397752	-0.3241152597	 0.109141
H	 1.2997204409	-1.3627801707	-1.3761180591	 0.106247
H	 0.9519496101	-1.595310125	 1.1133462859	 0.102805
H	 2.2634186513	-0.0219462917	 2.590603178	 0.128118
H	 1.3482316548	 1.3875365369	 1.8597187972	 0.141467
H	 0.0717498859	-1.0656578689	 3.3002063834	 0.108853
H	-1.1908532275	 1.5252488058	 2.1327678851	 0.108161
