18
gdb 32074	2.75805	1.2754	0.88166	1.0971	82.34	-0.2438	-0.014	0.2298	1299.7297	0.148287	-402.011847	-402.002956	-402.002012	-402.046648	31.904	
C	-0.0125439954	 1.5396953944	 0.0462882242	-0.492212
C	-0.0109150056	 0.0331315029	 0.0141514358	 0.310293
C	 0.0052361769	-0.6616441414	-1.1979717297	-0.235526
C	 0.0274250105	-2.0525321613	-1.1891394098	 0.301477
C	 0.0438910964	-2.8612355575	-2.4652878639	-0.151027
O	 0.0454881512	-1.9974746848	-3.5872345768	-0.419034
N	 0.0325055462	-2.780000257	-0.064177228	-0.329385
C	 0.0144788274	-2.114285557	 1.0897404017	-0.004673
C	-0.0082268661	-0.7255055163	 1.1837431274	-0.19953
H	 0.9894054876	 1.9349600722	-0.1596504622	 0.140478
H	-0.6824729019	 1.9519673661	-0.7143330252	 0.134703
H	-0.3234589607	 1.9196888706	 1.0230148709	 0.125909
H	-0.0012194298	-0.136680749	-2.145241246	 0.112982
H	 0.9324014646	-3.5114874743	-2.4485128478	 0.110498
H	-0.8339385246	-3.5260946976	-2.4626513405	 0.110372
H	 0.049542753	-2.5386144252	-4.3809640491	 0.292585
H	 0.0156283744	-2.7215445719	 1.9926039706	 0.102363
H	-0.0253972842	-0.2459063229	 2.1571455684	 0.089727
