19
gdb 60812	2.73115	1.07448	0.93673	0.9851	73.47	-0.2422	0.0134	0.2555	1305.2126	0.157582	-456.405071	-456.39462	-456.393675	-456.441099	36.816	
C	 0.641350327	 1.8120854406	-0.2412870954	-0.390194
C	 0.2152324202	 0.3593725208	-0.008777296	-0.106737
N	 0.6193916746	-0.5495903913	-1.0771729187	-0.049276
C	 2.0297070489	-0.6598397687	-1.4324357617	-0.35707
C	-0.3139263066	-1.1641061578	-1.8693197451	 0.146611
O	-0.0733068554	-1.8760671294	-2.8198251372	-0.338026
C	 0.6591446995	-0.1205306326	 1.3957845547	 0.399403
N	 0.7921425269	-1.4669536702	 1.5320749297	-0.523347
O	 0.825841447	 0.6616619034	 2.3102875571	-0.360008
H	 1.7293768377	 1.9116598039	-0.2702714212	 0.130244
H	 0.22849502	 2.1808142497	-1.1840015176	 0.117641
H	 0.2797771895	 2.4282437404	 0.5822402635	 0.15323
H	-0.8822777687	 0.3245863717	 0.0164496946	 0.121519
H	 2.6306577499	-0.8770640659	-0.5445266832	 0.133781
H	 2.1245310524	-1.4726331944	-2.1523999881	 0.168477
H	 2.4013654892	 0.2626259996	-1.8912435077	 0.137814
H	-1.3454410711	-0.947767186	-1.5269205564	 0.078505
H	 0.648178863	-2.0954044322	 0.7616821497	 0.270688
H	 1.023552256	-1.8351997117	 2.439633049	 0.266748
