14
gdb 48464	1.88951	1.74808	1.2931	2.6041	66.24	-0.2599	-0.0684	0.1915	1019.3934	0.098032	-473.824757	-473.816262	-473.815318	-473.858437	29.589	
O	-0.9224925273	 0.8428472138	 0.4328044908	-0.240649
C	 0.1598217308	 0.6474090297	-0.0534971416	 0.105596
C	 1.2448916226	 1.7071997546	-0.101201314	-0.002864
N	 2.4858140278	 1.3407737836	-0.795608001	-0.361889
C	 2.4094372096	 2.4909420912	-1.7400235207	-0.270371
C	 1.011767064	 2.8106258523	-1.2124008604	 0.343883
O	 0.1114073928	 3.5282470475	-1.4926822596	-0.242933
C	 1.4273238877	 2.3534090319	 1.2649861128	 0.119776
O	 2.5168532934	 2.6027895995	 1.7114484727	-0.249008
H	 0.4616478343	-0.3103465289	-0.5256842656	 0.114503
H	 3.2791227342	 1.4137668782	-0.1633041593	 0.245239
H	 3.116875029	 3.307273925	-1.5463436725	 0.151192
H	 2.4590154141	 2.2182264042	-2.7993782005	 0.150615
H	 0.4838695167	 2.5615362076	 1.8016092791	 0.13691
