20
gdb 30238	4.4276	1.07943	0.91991	1.8221	89.37	-0.1912	0.0555	0.2468	1334.9637	0.171721	-366.026261	-366.017441	-366.016496	-366.060158	32.842	
C	-0.3940543325	 1.5198966672	-0.1244370924	-0.394806
C	-0.0403616646	 0.0466499891	 0.0494483371	-0.148836
C	 1.0359527376	-0.5479822412	-0.949423793	-0.188728
N	 1.879208068	-0.7836025409	 0.2302568089	 0.020526
C	 2.94418703	-1.3674732918	 0.8602818372	-0.25449
C	 2.7016581761	-1.2310013515	 2.2217064609	 0.302039
C	 3.6272802895	-1.6701899615	 3.3190207108	-0.491092
C	 1.4316117004	-0.5807126577	 2.4016547143	-0.461486
C	 0.967997882	-0.3280281713	 1.1310865811	 0.37102
H	 0.5087259285	 2.1370008362	-0.1725972975	 0.123146
H	-0.9726565575	 1.6807615543	-1.040695285	 0.113613
H	-0.9965058535	 1.8738487703	 0.7181002839	 0.125511
H	-0.952538694	-0.5597475688	 0.0690797206	 0.090454
H	 0.7330846072	-1.4616638479	-1.4701919589	 0.120919
H	 1.4589291705	 0.162788527	-1.6668173888	 0.116692
H	 3.7880744186	-1.7887062035	 0.3377991522	 0.11204
H	 4.0104096217	-0.8208295349	 3.8977950945	 0.120948
H	 3.1259990262	-2.3387227567	 4.0288981607	 0.119943
H	 4.4907054919	-2.2072198324	 2.9149256093	 0.114528
H	 0.9641931141	-0.350176484	 3.346777224	 0.088061
