17
gdb 35840	3.41965	1.262	0.96213	1.3751	84.23	-0.2249	-0.0345	0.1904	1197.4146	0.135594	-384.646152	-384.638086	-384.637142	-384.67883	31.138	
C	-0.1753395805	-1.1279805555	-0.3186943797	-0.404192
C	-0.0735835342	 0.0465817293	-0.0905952754	 0.301452
C	 0.0767105819	 1.478262461	 0.1653715918	-0.141834
O	-0.6284713716	 1.8031867268	 1.3736709764	-0.246407
C	-1.2217861752	 3.0793220397	 1.3708837411	-0.13268
C	-0.3129027303	 4.2500447841	 1.1305086416	-0.077842
C	 0.9980113516	 4.2669204264	 0.8413748435	-0.076971
C	 1.8905550446	 3.1443930472	 0.5722957637	-0.080685
C	 1.529227004	 1.8950740379	 0.2553441049	-0.072974
H	-0.2759280171	-2.1666726087	-0.5158222607	 0.197321
H	-0.3914353025	 2.030170466	-0.6675435361	 0.113781
H	-2.0663536583	 3.1288584992	 0.658094033	 0.102019
H	-1.666667982	 3.1796180669	 2.3702000201	 0.128189
H	-0.8165793042	 5.2082477322	 1.2522317814	 0.095039
H	 1.4697808352	 5.2452638208	 0.7784000967	 0.091656
H	 2.9528264827	 3.3745942417	 0.6027238966	 0.095636
H	 2.2780367958	 1.134200825	 0.0652340408	 0.108492
