17
gdb 126992	3.29327	1.06166	0.83988	3.5772	72.43	-0.2076	0.01	0.2176	1360.2726	0.135298	-455.126118	-455.117087	-455.116143	-455.160904	32.355	
C	-0.1865769626	 1.5319916182	-0.0619423019	-0.385578
C	-0.3032466541	 0.0889251962	 0.390774735	-0.059427
O	-1.1241053738	-0.6087300457	-0.5577903336	-0.293617
C	-1.3525729822	-1.9206341467	-0.2619732467	 0.105678
C	-2.5392704994	-2.4540719685	 0.1718086324	 0.397548
N	-3.731254632	-1.8670915572	 0.5221362665	-0.597704
O	-2.4305260771	-3.7793913236	 0.2890739779	-0.213721
N	-1.1160156527	-4.1732475414	-0.0731033531	-0.163976
C	-0.5117630409	-3.0551683225	-0.3939172957	-0.039907
H	 0.4399796353	 2.0965647118	 0.6346978372	 0.121767
H	 0.2625940731	 1.5878939957	-1.0574503092	 0.131728
H	-1.171978928	 2.0049525303	-0.1030989815	 0.124886
H	 0.6855875023	-0.3878814102	 0.441397187	 0.102808
H	-0.756326304	 0.0174570129	 1.3892537872	 0.104322
H	-3.8490594897	-0.9514539246	 0.1104523334	 0.267548
H	-4.5398398376	-2.4590108515	 0.3886698188	 0.267328
H	 0.5188792735	-3.0926577231	-0.7194272937	 0.130319
