21
gdb 82530	2.20697	1.61445	1.36585	1.8591	82.89	-0.2515	0.0835	0.335	1098.1355	0.181282	-387.048361	-387.039385	-387.038441	-387.081469	34.704	
C	 0.0268854551	 1.5768795448	 0.1188168838	-0.422319
C	 0.1155103586	 0.0636622027	 0.1110550616	-0.05452
C	 1.3468180596	-0.7435256696	-0.2057233738	-0.123198
C	 2.6135550025	-0.0716861952	 0.3444007098	-0.336745
C	 1.9668580473	-0.1340335426	 1.7395841686	 0.400386
C	 2.6239758262	-0.3297229346	 3.0309800492	-0.269239
O	 1.9870320459	 0.913721503	 2.7032227652	-0.281947
C	 0.7114904915	-0.7940618213	 1.2062159021	 0.259425
C	-0.0494892082	-1.8835575332	 1.9080853226	-0.508829
H	 0.8941194543	 2.0457885739	 0.5875192724	 0.140881
H	-0.0612714963	 1.9657356765	-0.9020338626	 0.111374
H	-0.8568200613	 1.9044740956	 0.6767645733	 0.118162
H	-0.7786076689	-0.4076505061	-0.2962256209	 0.081364
H	 1.3449502406	-1.5240174578	-0.9572165963	 0.084831
H	 3.504274309	-0.7009719439	 0.2697128373	 0.106794
H	 2.8516054183	 0.9252068138	-0.0380431967	 0.108548
H	 2.1346270802	-0.9096443703	 3.8130954396	 0.11263
H	 3.7117587015	-0.2981110165	 3.0932246803	 0.111047
H	-0.6069416145	-1.4886668983	 2.7661663007	 0.126983
H	-0.7753472766	-2.3510895628	 1.235000958	 0.118872
H	 0.6184688453	-2.6696095081	 2.2783778058	 0.115498
