22
gdb 118510	2.73433	0.97113	0.78327	2.1262	79.97	-0.2379	0.0843	0.3222	1533.0614	0.192545	-441.429312	-441.418709	-441.417764	-441.46579	36.979	
C	-0.0915042672	 1.4229628092	 0.0929570889	-0.231074
O	-0.0147927245	 0.021775038	-0.0267477245	-0.236663
C	-1.2748856705	-0.6070805799	 0.0712719916	-0.051823
C	-1.0940625539	-2.1233863988	-0.0144098984	 0.056518
O	-0.4743288415	-2.6398756599	 1.1513680426	-0.260456
C	 0.94184696	-2.6659684415	 1.135848288	-0.239409
C	-2.4430110453	-2.8111751503	-0.1661886311	 0.006502
C	-2.6083713109	-4.2368273816	 0.1936246493	-0.247558
N	-3.2155244716	-3.1820862865	 1.0293495477	-0.323675
H	 0.9230848942	 1.8167085695	-0.0036338266	 0.127847
H	-0.7210833257	 1.8640466506	-0.6959685667	 0.106274
H	-0.5017088312	 1.7275013848	 1.0683893822	 0.108749
H	-1.7661745958	-0.3554614987	 1.0250662453	 0.099991
H	-1.9361225738	-0.2671185526	-0.7443712328	 0.085054
H	-0.4738011597	-2.3414090907	-0.8988194487	 0.080862
H	 1.3652917415	-1.6584364615	 1.083402992	 0.133808
H	 1.2565045194	-3.1501766454	 2.0640019698	 0.121488
H	 1.3197782738	-3.2536211767	 0.285704519	 0.105098
H	-3.0498700655	-2.4079021665	-0.9747707593	 0.087858
H	-3.3145790492	-4.8546094067	-0.3537653068	 0.11168
H	-1.738983862	-4.7546993513	 0.5858829525	 0.117052
H	-2.6130158506	-3.0471254633	 1.8395075163	 0.241878
