15
gdb 20784	4.86672	1.89645	1.4718	3.8606	66.52	-0.2526	0.0211	0.2737	840.4113	0.121481	-358.835713	-358.829131	-358.828187	-358.866779	24.299	
C	-0.3402230346	 1.6341778144	-0.1968957335	-0.400393
C	 0.0526206886	 0.1855582242	 0.0132814849	 0.051685
C	 0.8068562228	-0.5694508267	-1.1698948231	-0.39241
C	 1.9514534827	-0.7008393951	-0.1767123292	 0.376611
N	 3.1239319923	-1.1419745264	 0.2425010734	-0.376415
C	 3.1018562065	-0.676183214	 1.5378644106	 0.023105
N	 2.0114503844	-0.0061538218	 1.9324572289	-0.294141
N	 1.3085719115	-0.040889535	 0.7774848957	 0.080039
H	 0.4912800329	 2.2085854801	-0.6154929742	 0.135048
H	-1.189034494	 1.6941790125	-0.885240204	 0.131964
H	-0.6367538554	 2.0954480302	 0.749481453	 0.145476
H	-0.7746171922	-0.3992968977	 0.4258958536	 0.116391
H	 0.3404493376	-1.5058991555	-1.4823210212	 0.140366
H	 1.0024004591	 0.0540922164	-2.0450686121	 0.137182
H	 3.9260784777	-0.8346190957	 2.2179198773	 0.12549
