19
gdb 91080	3.34885	1.46109	1.30296	1.3123	80.92	-0.2304	0.0023	0.2326	1047.8651	0.160464	-385.846406	-385.838945	-385.838001	-385.878089	30.05	
C	 0.0666680752	 1.5063939241	 0.1962186134	-0.406235
C	 0.0106531828	 0.0016331731	 0.0461661716	 0.100122
O	 1.0592054909	-0.5396161652	-0.8309183066	-0.331927
C	 1.2726063461	-1.6890209476	 0.0739176805	 0.110899
C	 2.6086139057	-2.0501140077	 0.6851814976	-0.078849
C	 3.5011494036	-0.9695697919	 1.2312533474	-0.278126
C	 2.5036512453	-1.6264310505	 2.1648634696	-0.068077
C	 1.238224391	-0.8264690615	 2.2810550615	-0.201304
C	 0.5664200936	-0.8958708944	 1.1309690587	 0.113882
H	 1.0412548814	 1.8219584712	 0.5772370882	 0.124992
H	-0.1057036222	 1.9904688427	-0.7700717998	 0.129271
H	-0.7106300279	 1.845506365	 0.8892991632	 0.120484
H	-0.9731938875	-0.3141723791	-0.3308630804	 0.078103
H	 0.7606497746	-2.5656722603	-0.3428433399	 0.074029
H	 3.0624970831	-2.9986550538	 0.4261617716	 0.085586
H	 4.5475226459	-1.2289209499	 1.3532021365	 0.113065
H	 3.3171158742	 0.0535872834	 0.922468401	 0.125041
H	 2.8712952424	-2.2585165017	 2.9658004427	 0.089423
H	 1.0609447818	-0.1354685059	 3.0976216029	 0.099619
