19
gdb 55294	2.70363	1.37152	1.01801	2.548	75.89	-0.2298	-0.0204	0.2094	1203.5344	0.156745	-423.006948	-422.997776	-422.996832	-423.04198	33.385	
C	 0.6378953556	 1.2488039711	 0.1875054197	-0.480003
C	-0.3812609644	 0.1505134377	-0.0571264266	 0.369296
O	-1.344497167	 0.0000690231	 0.6593307161	-0.294104
C	-0.1486261866	-0.7183229507	-1.2808262439	-0.25298
C	 1.2422960507	-1.3538117556	-1.5383670774	-0.096644
O	 0.6547930932	-2.6591020695	-1.6897086412	-0.302552
C	-0.6375376928	-2.1656138162	-1.3120890875	 0.462931
C	-1.5175821614	-2.9260687575	-0.3771120085	-0.334295
C	-1.8897981117	-2.7676059911	-1.847003236	-0.338195
H	 1.5930855294	 0.8105155098	 0.4989588637	 0.147886
H	 0.8320671701	 1.8135340916	-0.7310628227	 0.136402
H	 0.2790752148	 1.9174712238	 0.9706940723	 0.146713
H	-0.4940196995	-0.1417937483	-2.1482705201	 0.115515
H	 1.7689310011	-1.0298293307	-2.4420549943	 0.110433
H	 1.9328902345	-1.3162139709	-0.6856721371	 0.103199
H	-1.1539700127	-3.8983074922	-0.06174842	 0.120059
H	-2.0766854873	-2.3686751843	 0.362913905	 0.14613
H	-2.7129878581	-2.1084210725	-2.1039999574	 0.117363
H	-1.7785286879	-3.6335498776	-2.4908940339	 0.122846
