21
gdb 100926	1.92376	1.35549	0.85456	3.0749	76.5	-0.2343	-0.0166	0.2177	1384.572	0.178531	-461.352876	-461.341793	-461.340849	-461.389609	38.636	
C	 0.2707029295	 1.1227311285	-0.3381161293	-0.247833
O	 0.1425348727	-0.1734077256	 0.2213785917	-0.256944
C	-1.1635214592	-0.7341467795	 0.106959706	 0.067086
C	-1.2908868839	-1.1997621791	-1.345629743	 0.16969
O	-1.9311235141	-0.6226432544	-2.1852421728	-0.262
C	-1.273353443	-1.8597889575	 1.1431618172	-0.040868
C	-1.0743482719	-1.3220176079	 2.5656207704	-0.409181
C	-2.6124638947	-2.5957859	 1.0191124014	-0.078373
O	-2.8059499104	-3.2000108773	-0.2530004972	-0.405861
H	 1.3110437086	 1.4238427147	-0.1957265651	 0.129077
H	 0.0345317091	 1.1401290105	-1.4097787391	 0.130901
H	-0.3858691746	 1.8424738167	 0.1720736749	 0.11224
H	-1.9328130009	 0.0328048626	 0.2877785106	 0.079415
H	-0.626347669	-2.0560016453	-1.5983870377	 0.066078
H	-0.4673820458	-2.577763625	 0.927346608	 0.076624
H	-0.1344734195	-0.7726288489	 2.6372090322	 0.13999
H	-1.8882415958	-0.6427067939	 2.8454122841	 0.115763
H	-1.0558690338	-2.1386324475	 3.2941423411	 0.113499
H	-2.7010308793	-3.3357611215	 1.8280043913	 0.095464
H	-3.4415246819	-1.8885764637	 1.1379886281	 0.119435
H	-2.1920344118	-3.9375433759	-0.3299433927	 0.285798
