15
gdb 4661	6.93915	1.22233	1.04604	5.0659	72.32	-0.217	-0.0268	0.1902	1079.9824	0.119663	-362.723917	-362.716385	-362.71544	-362.755876	27.232	
C	-0.0295105201	 1.5055756399	 0.0483091075	-0.501564
C	 0.0001308057	 0.0161849614	-0.0446015371	 0.338782
C	-0.0361146258	-0.8307110524	-1.1231056728	-0.347961
C	 0.0203391685	-2.175628251	-0.6340999189	 0.192453
C	 0.0084313136	-3.4051658023	-1.4141420292	 0.070192
O	 0.0584274428	-4.5272891758	-0.9529947633	-0.293458
C	 0.0900530642	-2.0983431665	 0.747261502	-0.146273
N	 0.0770801382	-0.7819604555	 1.0856182239	-0.293742
H	 0.8713865508	 1.9083215139	 0.5276439431	 0.131453
H	-0.0911767597	 1.9370837347	-0.952914032	 0.143945
H	-0.8938902823	 1.8675096212	 0.6187778684	 0.131455
H	-0.0966811732	-0.5290902905	-2.1584204726	 0.104034
H	-0.0522562077	-3.2460024203	-2.5152591456	 0.056179
H	 0.1463032806	-2.8835730246	 1.4828754568	 0.149791
H	 0.1177021444	-0.4312867224	 2.0282721597	 0.264715
