16
gdb 17372	4.27108	1.74666	1.40288	3.5264	65.26	-0.2298	0.0525	0.2823	886.3552	0.13193	-379.918411	-379.911175	-379.910231	-379.949988	27.58	
N	-0.1315860847	 1.2557529385	-0.2516800808	-0.554425
C	-0.0532847621	-0.1167786882	-0.0538782851	 0.405864
O	 0.956285842	-0.7639226768	-0.2540878107	-0.388188
N	-1.2309144938	-0.6860943084	 0.3950161055	-0.111566
C	-2.6262110513	-0.2960626934	 0.0659500443	-0.198393
C	-2.9677335757	-1.7824543889	-0.0956855823	-0.084151
C	-2.0512361599	-2.4178314052	-1.1147718576	-0.277825
C	-1.5202377464	-2.1065600627	 0.2525203694	 0.011027
H	 0.7757774693	 1.6900316097	-0.3288252618	 0.259697
H	-0.792349221	 1.7727331749	 0.3087015944	 0.252131
H	-3.1308627815	 0.1856359455	 0.910637923	 0.111855
H	-2.7261135186	 0.3318435266	-0.8270301717	 0.119171
H	-3.873431844	-2.2519083453	 0.2607544245	 0.101592
H	-2.2435997801	-3.4688534308	-1.306185798	 0.119591
H	-1.6996768106	-1.855718922	-1.9756579758	 0.121913
H	-1.0940111516	-2.8357216235	 0.9286645828	 0.111707
