25
gdb 99265	4.23891	0.59769	0.54352	2.4374	90.41	-0.2403	-0.0053	0.235	2153.0923	0.225279	-389.532024	-389.520125	-389.519181	-389.571451	41.753	
C	 0.1499699672	 1.5593063066	 0.1688917248	-0.374608
C	-0.0547670276	 0.0769505208	-0.1330099858	-0.274977
C	-1.4922004952	-0.3946428327	 0.0584424574	 0.375904
O	-2.3918697855	 0.3805290707	 0.2923699962	-0.299377
C	-1.7247292889	-1.8981361549	-0.0572890641	-0.31411
C	-3.2017809587	-2.2922983016	-0.0965187884	-0.159478
C	-3.4681720818	-3.8044904772	 0.000072038	 0.035519
C	-4.9733791145	-4.0701770531	 0.139943527	-0.388603
C	-2.892978036	-4.5840078938	-1.1915670153	-0.38111
H	 1.1867868373	 1.8534925626	-0.0167751144	 0.108126
H	-0.504278811	 2.1752660261	-0.4525218074	 0.133956
H	-0.0902168399	 1.7830742214	 1.2118317149	 0.127419
H	 0.2257968442	-0.1543695426	-1.1707968599	 0.122011
H	 0.6008313137	-0.5536869674	 0.482592461	 0.11528
H	-1.1757147111	-2.2642591574	-0.9338044651	 0.114491
H	-1.2248751235	-2.3647446428	 0.8057986728	 0.119228
H	-3.71247517	-1.7782658614	 0.7243749221	 0.112459
H	-3.6559109697	-1.9003513573	-1.0163056882	 0.098109
H	-2.9762892299	-4.1730374027	 0.9129611026	 0.067266
H	-5.5158688536	-3.72006445	-0.7464926029	 0.112595
H	-5.1798315892	-5.1395906493	 0.2535134592	 0.107301
H	-5.3904342351	-3.5517886899	 1.0095461402	 0.111899
H	-3.3314031716	-4.2330264614	-2.1338879145	 0.111367
H	-1.8063958534	-4.4794923171	-1.2704521881	 0.108748
H	-3.1130416861	-5.6531234354	-1.1034048824	 0.110583
