17
gdb 30167	3.90676	1.36343	1.13528	2.3243	74.03	-0.191	0.0067	0.1977	1078.388	0.13907	-418.027521	-418.020251	-418.019307	-418.059403	28.171	
C	 0.1692659176	 1.4727172908	 0.0750242167	-0.39571
C	-0.0164487981	-0.0406418397	-0.0349807692	 0.046376
C	 0.7340992253	-0.6256126562	-1.3056661283	-0.372289
C	 1.9089292506	-1.2163407464	-0.617303113	 0.273021
C	 1.7690800121	-1.2613471824	 0.7186837416	 0.292741
N	 0.5470122749	-0.7512024995	 1.1700357201	-0.411648
N	 2.8349085435	-1.9125344689	 1.3014194974	-0.348434
C	 3.5611513161	-2.2362248976	 0.2689100347	 0.03848
O	 3.0654473971	-1.8683763671	-0.9455230863	-0.194864
H	 1.233579977	 1.7287411587	 0.1165029156	 0.129404
H	-0.2725159858	 1.9817734129	-0.7878606322	 0.12139
H	-0.3157366065	 1.8638735429	 0.9760380861	 0.118023
H	-1.0831792931	-0.2712579647	-0.1005169349	 0.089951
H	 0.11650919	-1.3730092673	-1.8202256264	 0.12047
H	 0.9568188957	 0.1674581298	-2.028710902	 0.114925
H	 0.6133746141	-0.1424301239	 1.9786692867	 0.232192
H	 4.5093761093	-2.7497615016	 0.2616782832	 0.145972
