18
gdb 102952	3.30067	0.69714	0.60033	2.1833	73.78	-0.2623	-0.0351	0.2272	1769.0484	0.145198	-439.104117	-439.093852	-439.092908	-439.140979	34.781	
O	 0.0521590155	 1.4598794283	-0.137813798	-0.413539
C	 0.021632119	 0.0539206051	-0.1573369203	-0.072041
C	-1.4091964779	-0.5170607328	 0.0112408302	-0.152618
C	-1.4314483836	-2.0568505885	-0.0825961513	-0.216693
C	-2.8463454783	-2.65485941	-0.0186737752	-0.289466
C	-2.8087099855	-4.167871146	-0.002770246	 0.160207
O	-3.3663557105	-4.8779991707	-0.7972299378	-0.230068
C	-1.9603805579	-0.0493783108	 1.2865495974	 0.266596
N	-2.3518152704	 0.3324383065	 2.305619748	-0.329586
H	-0.1716494309	 1.7570587968	 0.7516340385	 0.300477
H	 0.3966453518	-0.2514831369	-1.1388661411	 0.125533
H	 0.6784230626	-0.388121351	 0.6068436851	 0.108683
H	-2.0284691708	-0.0914989908	-0.7878805476	 0.140564
H	-0.954026377	-2.340111312	-1.0274194857	 0.126292
H	-0.8143740519	-2.4730628677	 0.7229495826	 0.124263
H	-3.3344916532	-2.325423764	 0.9095249943	 0.145931
H	-3.4598442421	-2.3295357838	-0.8637303767	 0.128289
H	-2.2012065587	-4.6004503417	 0.8270711134	 0.077174
