20
gdb 40591	4.82331	1.17638	1.12049	1.0766	83.47	-0.222	0.0944	0.3165	1153.6056	0.172385	-365.895082	-365.887873	-365.886929	-365.926844	29.247	
C	-0.0585519501	 1.2617817253	-0.3804116026	-0.220694
C	 1.3037592152	 0.969588124	 0.1442634198	-0.222933
N	 0.3017884767	-0.0850348892	 0.0499306103	-0.095716
C	-0.2271136283	-0.6197910542	 1.2875267426	 0.04796
C	-1.1287276098	 0.1793440694	 2.2727226621	-0.08561
C	-2.4258029044	-0.0507179271	 1.4097133068	-0.034534
C	-3.2091036526	-0.6140918368	 2.6104301852	-0.267273
C	-1.7767220956	-1.1493387274	 2.7971371369	-0.042942
C	-1.5741180938	-1.3620924366	 1.256891289	-0.057367
H	-0.7101883319	 1.8561055648	 0.2549504829	 0.114777
H	-0.2267639225	 1.3849769484	-1.4468998926	 0.113222
H	 2.1525687001	 0.8792787301	-0.5283162518	 0.113081
H	 1.5441686315	 1.3630874627	 1.1312166364	 0.106836
H	 0.5804799226	-1.1822597701	 1.7724105814	 0.070455
H	-0.9112188383	 1.0576971247	 2.8839561005	 0.066263
H	-2.7894107532	 0.5812296774	 0.5998384247	 0.073678
H	-3.5674898031	 0.108054319	 3.3515290231	 0.089636
H	-3.9856711567	-1.3536340308	 2.3889253124	 0.091647
H	-1.3686090375	-1.7836788548	 3.5857161264	 0.068906
H	-1.8546356884	-2.2486464189	 0.6863042964	 0.070609
