19
gdb 117415	3.64088	0.70307	0.65462	3.5283	80.38	-0.2437	0.0371	0.2808	1775.7344	0.157379	-419.211339	-419.200637	-419.199693	-419.249253	37.267	
C	-0.4329175773	 1.3979249449	 0.5027442152	-0.37182
C	-0.0631391651	 0.0157597409	-0.0349147353	-0.1359
N	-1.2199808998	-0.7074076963	-0.5396063891	-0.3651
C	-1.4834292249	-2.0022475388	-0.1623925677	 0.507528
O	-0.8532001284	-2.5966271332	 0.6962751058	-0.403558
N	-2.528623493	-2.5883971244	-0.8679718848	-0.368259
C	-3.0943356505	-3.8398257397	-0.3763861851	-0.288652
C	-4.3945342767	-3.6707575192	 0.271771686	 0.296165
C	-5.4753971489	-3.5128530863	 0.7732370986	-0.462684
H	 0.4591479894	 1.9146911918	 0.8705426975	 0.118955
H	-0.8815284303	 2.0249025899	-0.2763279405	 0.107947
H	-1.1498297818	 1.315161876	 1.3245963508	 0.12921
H	 0.6999051175	 0.109718432	-0.8204831028	 0.100562
H	 0.3592533259	-0.6102062907	 0.7532042708	 0.153853
H	-1.6587895034	-0.3551522144	-1.3752901583	 0.233451
H	-3.1863991707	-1.96736422	-1.3147105397	 0.236576
H	-3.1876954557	-4.556068325	-1.2022329565	 0.131567
H	-2.3620005956	-4.2431124549	 0.329418668	 0.179196
H	-6.4224923406	-3.3830625425	 1.2356200573	 0.200963
