16
gdb 67905	2.4853	1.97443	1.39553	3.9623	69.26	-0.2604	0.0204	0.2807	945.2908	0.123453	-437.831299	-437.823965	-437.823021	-437.862817	28.883	
C	-0.0968221223	 1.5086570676	-0.0045757535	-0.491965
C	 0.0279879891	 0.0162860461	 0.0860561216	 0.434358
O	-1.2511797008	-0.6933621954	 0.0702569763	-0.292168
C	-0.9068914581	-1.432265927	 1.1954581401	 0.453448
N	-1.5631942253	-2.2762810354	 1.8463442271	-0.554254
C	 0.4655189573	-0.8001347699	 1.3301454389	-0.288706
C	 1.575457597	-1.4512743558	 0.4550630629	 0.033288
O	 0.944835091	-2.101807369	-0.6445309903	-0.218633
C	 1.1503508002	-0.6957627	-0.7389425265	-0.057607
H	 0.886164277	 1.9806020268	 0.0941806132	 0.130485
H	-0.5154736096	 1.796151612	-0.9751253675	 0.140676
H	-0.7509434666	 1.8943530036	 0.7818606645	 0.139013
H	-2.4828971656	-2.4344010213	 1.4304261756	 0.229849
H	 0.7604864204	-0.3461694165	 2.2732839829	 0.109368
H	 2.5469045209	-1.8122046957	 0.7687701731	 0.121491
H	 1.6968673153	-0.3209309102	-1.5974888183	 0.111359
