16
gdb 76268	2.50309	1.59738	1.06244	4.0471	70.22	-0.236	-0.028	0.2079	1085.5622	0.125109	-475.060761	-475.052449	-475.051505	-475.093816	31.848	
N	 0.019117964	 1.3601714947	 0.1872365464	-0.574842
C	-0.0553887704	 0.0168674269	 0.0740697591	 0.394557
C	-1.1585241656	-0.7828340639	 0.0459069183	-0.333078
C	-0.7542824561	-2.1533532656	-0.1627477553	 0.353887
O	-1.3971899527	-3.1275808431	-0.5147421504	-0.384266
C	 0.7712037031	-2.2342677012	 0.0364426915	-0.000346
O	 1.3592330804	-3.038792964	-0.9637438724	-0.445515
C	 1.2476733764	-0.7662482626	-0.0557877368	 0.003096
O	 1.8658308863	-0.4759066209	-1.2916256472	-0.442756
H	 0.8743006979	 1.8069309331	-0.1050282534	 0.278608
H	-0.8168537936	 1.9131325679	 0.0829795692	 0.267444
H	-2.1893337375	-0.4527643733	 0.0485360883	 0.102487
H	 0.9826620465	-2.6443460853	 1.0338373316	 0.099426
H	 0.6364720719	-3.6029237144	-1.2831823061	 0.30069
H	 1.9328533998	-0.4983683724	 0.7611139797	 0.081999
H	 1.9189236196	-1.3309262461	-1.7491150023	 0.29861
