16
gdb 125715	2.99597	1.46788	0.99735	4.7099	77.44	-0.2479	-0.0853	0.1627	1153.082	0.122986	-434.056516	-434.048059	-434.047115	-434.090499	31.046	
C	-0.0373107122	 1.4640094737	-0.0403842629	-0.484134
C	-0.0104143394	-0.0361194827	 0.0171253481	 0.311855
N	-0.0356934083	-0.6512060348	-1.1130273732	-0.108741
O	-0.0116858486	-2.0320661306	-1.0852305027	-0.273637
C	 0.0383113358	-2.7559485002	 0.114448782	 0.444148
N	 0.0581807658	-4.0194904079	 0.0795386583	-0.50605
N	 0.0642979868	-2.0605928201	 1.3141229134	-0.299273
C	 0.0419503169	-0.7754946366	 1.2886508371	 0.272872
C	 0.0702975558	-0.0262170079	 2.5882723798	-0.488151
H	 0.8529334245	 1.8939395272	 0.4311366107	 0.143183
H	-0.0754338303	 1.787328755	-1.0815262965	 0.158508
H	-0.9100737688	 1.8644497756	 0.4865302397	 0.143184
H	 0.0331985086	-4.3465308133	-0.886759985	 0.232489
H	 0.1080896239	-0.7365530104	 3.4139419892	 0.162157
H	 0.941318184	 0.6370082341	 2.6390486406	 0.145798
H	-0.8174125145	 0.6076941891	 2.6943133614	 0.145791
