17
gdb 4168	2.45839	1.75493	1.11046	1.1961	68.04	-0.2452	0.0012	0.2465	1076.33	0.139996	-400.935988	-400.927248	-400.926304	-400.969775	31.207	
C	 0.0278190691	 1.5689600558	 0.1289158182	-0.378886
C	-0.0848798534	 0.0535493976	 0.2914345681	-0.248189
C	-1.4649902855	-0.5093628462	 0.0629406674	 0.317044
N	-2.4184484613	 0.304389484	-0.1904112885	-0.177536
O	-3.6436748033	-0.3569204353	-0.3903655594	-0.404744
C	-1.661824582	-1.9835307054	 0.1757702513	 0.01552
C	-0.9000014971	-2.9360513838	-0.6546708819	-0.176544
O	-0.5679141924	-2.7360879156	 0.713639008	-0.229972
H	 1.0574330456	 1.890007564	 0.3112240658	 0.106615
H	-0.259989344	 1.8825735848	-0.8779349854	 0.12547
H	-0.6268978468	 2.0909111517	 0.8311537265	 0.129017
H	 0.611613709	-0.4529777662	-0.390627344	 0.115225
H	 0.2407713818	-0.2540415663	 1.292892149	 0.131535
H	-4.2521970613	 0.3796343025	-0.5075650491	 0.307841
H	-2.6439365891	-2.2921657903	 0.5228737437	 0.122749
H	-1.3469025944	-3.8985641221	-0.8984485175	 0.1253
H	-0.1734955846	-2.561703119	-1.3742470021	 0.119555
