18
gdb 42827	2.54311	1.82109	1.6453	4.2488	74.65	-0.2293	-0.0028	0.2265	920.8771	0.15071	-401.935975	-401.92919	-401.928245	-401.966871	28.047	
O	 0.0410093825	 0.0240450966	 0.1202671405	-0.322521
C	 0.0001364558	 1.2089544976	-0.0210395881	 0.44686
C	-1.1182518091	 2.2654048979	 0.0454269345	-0.134742
C	-0.0418131694	 3.1501862127	 0.7625874797	-0.24845
C	 1.0544049967	 2.3371825734	-0.0056530702	-0.152666
C	 1.1634672733	 2.908833175	-1.4147420172	-0.029556
N	 0.71413232	 2.0224915826	-2.5025004608	-0.326976
C	-0.1301300357	 3.1658046744	-2.1067080927	-0.031415
C	-1.4169123292	 2.8309588057	-1.3619695847	-0.220266
H	-2.032550146	 2.0000600183	 0.5792181123	 0.083931
H	-0.0792323771	 4.2225432687	 0.5576179981	 0.101904
H	-0.0139294717	 2.974304125	 1.8395824152	 0.114923
H	 2.0195983136	 2.1365136099	 0.4614147347	 0.083107
H	 2.0000670571	 3.5773265406	-1.6020456853	 0.089093
H	 1.208466695	 2.2288369864	-3.3662289293	 0.232434
H	-0.1814641006	 4.0061082231	-2.7942639985	 0.088072
H	-2.0132337584	 2.1158539333	-1.9394479475	 0.121779
H	-2.0156519668	 3.7426277389	-1.2501252907	 0.10449
