21
gdb 106575	2.3589	1.58226	1.17698	1.5448	83.	-0.2192	0.0223	0.2415	1135.4665	0.182602	-387.051067	-387.042403	-387.041459	-387.084051	34.219	
C	-0.1817446449	 1.5480299572	-0.0315686371	-0.437136
C	 0.0137162799	 0.0364402102	 0.0140285296	 0.000777
C	 1.1872978042	-0.5976610794	-0.8314539382	-0.088273
C	 2.1349811757	-0.2071721995	 0.3527208633	-0.253881
C	 0.865994927	-0.5985278118	 1.1905401618	 0.328469
C	 0.6800326009	-0.2095625957	 2.6332931822	-0.216904
O	 1.6755482433	-0.87889366	 3.3988393375	-0.423452
C	 0.7546664834	-2.0831298072	 0.805058761	-0.113936
C	 0.9640010065	-2.0815970225	-0.5141616066	-0.101595
H	 0.7421194606	 2.1149361475	 0.1101605444	 0.118043
H	-0.6028701647	 1.8418333961	-0.9997489223	 0.116787
H	-0.8908494084	 1.870649543	 0.7394589442	 0.1148
H	-0.9503839671	-0.4594427264	-0.137260534	 0.063357
H	 1.3823696087	-0.3009326876	-1.86237816	 0.053906
H	 3.0266553324	-0.8187546662	 0.4982394007	 0.100941
H	 2.389345855	 0.8550636631	 0.398753977	 0.087935
H	 0.7638061204	 0.8833390022	 2.7424674873	 0.083765
H	-0.3334203594	-0.4941238993	 2.9641317306	 0.082953
H	 1.5618038271	-0.6310232384	 4.3210490349	 0.287212
H	 0.5567688304	-2.8963979704	 1.4884250355	 0.100869
H	 0.974632939	-2.900130075	-1.2200208915	 0.095363
