16
gdb 109101	3.18753	1.23975	0.9513	5.4996	73.67	-0.2385	-0.0917	0.1467	1214.9996	0.123956	-437.946079	-437.937372	-437.936428	-437.979978	31.237	
C	-0.18185646	 1.5576927464	 0.0005401582	-0.378151
C	 0.1131904105	 0.0488436071	 0.0612211803	-0.297381
C	 0.7849751852	-0.4677364067	-1.1738467945	 0.150924
C	 2.0283952066	-0.9808141989	-1.3104431478	-0.102783
N	 2.3398157806	-1.3677757533	-2.615990827	-0.351802
C	 1.2650704273	-1.1324093852	-3.4593179962	 0.356023
O	 1.1983284611	-1.3559803046	-4.6374977512	-0.315235
C	 0.1728241207	-0.5097539896	-2.5086847057	 0.220807
O	-0.9244436436	-0.1651098724	-2.8764553641	-0.301109
H	 0.7426486068	 2.1350976038	-0.0996977959	 0.113684
H	-0.8221953801	 1.7875533743	-0.8548094448	 0.148109
H	-0.6932871699	 1.8873405709	 0.9098406619	 0.114979
H	 0.7351518957	-0.1783665644	 0.9350192786	 0.099992
H	-0.8325075726	-0.4892407158	 0.2020670782	 0.12219
H	 2.7734260423	-1.1172074577	-0.5364639918	 0.146941
H	 3.2082671294	-1.7801899138	-2.9119516482	 0.272813
