21
gdb 104184	2.59452	1.21622	1.11963	1.6022	73.82	-0.2493	0.0679	0.3172	1205.4037	0.182241	-461.370336	-461.360852	-461.359908	-461.404713	36.454	
O	 0.0561502698	 1.1804827936	-0.2237103905	-0.441121
C	-0.0779693871	-0.2403388254	-0.1789736129	-0.145358
C	-1.5554870819	-0.5297637358	 0.0788891211	 0.447707
O	-1.9289209052	 0.084823495	 1.3099964112	-0.499386
C	-2.4541330786	-0.051692429	-1.1099390663	-0.241453
C	-3.3593318271	-1.2499091194	-1.4515047219	-0.247739
C	-2.4962336877	-2.4701810485	-1.0998483033	 0.125762
O	-1.4513382987	-2.6742190914	-2.0544514732	-0.441426
C	-1.8266986177	-2.0473602053	 0.2064683135	-0.273385
H	 0.9911899292	 1.4016449515	-0.2297210657	 0.292638
H	 0.2351232659	-0.7114317469	-1.1200155473	 0.108773
H	 0.5168392556	-0.6618468874	 0.6444191673	 0.090412
H	-1.5380337193	 0.967793493	 1.2857743038	 0.280528
H	-3.0202732009	 0.8350439479	-0.8189981735	 0.099067
H	-1.8346496192	 0.2186832241	-1.9683654406	 0.103061
H	-4.2541447501	-1.2545155453	-0.8180041864	 0.104609
H	-3.7004984708	-1.2598963284	-2.4929124643	 0.081614
H	-3.0879329696	-3.3893535297	-0.9855337978	 0.058741
H	-1.8584128534	-2.7841620228	-2.9197377957	 0.279997
H	-0.9246780548	-2.6332142389	 0.4031784757	 0.101715
H	-2.5141106386	-2.1917347209	 1.044496747	 0.115244
