18
gdb 11058	3.36589	2.35045	1.97472	2.209	66.46	-0.2429	0.0875	0.3304	775.3932	0.155726	-384.959049	-384.952385	-384.951441	-384.989418	26.966	
C	-0.0517278454	 1.4666802554	 0.0772231613	-0.465652
C	 0.0308062305	-0.0317779698	-0.0477639618	 0.502606
C	 0.7286996192	-0.7055950901	-1.2392125179	-0.276176
C	 0.4051770324	-2.0999708017	-0.6674681359	-0.097984
C	 1.0152016852	-1.9449919828	 0.7366079317	-0.071337
O	 0.7263439334	-0.5748882302	 1.0751593913	-0.297642
C	-1.1184361123	-1.9591159348	-0.50502694	-0.071335
O	-1.2837040143	-0.5881316641	-0.0947583694	-0.297644
H	 0.9513194569	 1.8966977159	 0.1182496896	 0.125667
H	-0.5923153723	 1.8859267691	-0.7740567382	 0.125745
H	-0.5839249502	 1.7285981682	 0.9948504981	 0.139114
H	 0.2443714354	-0.4921766969	-2.194294514	 0.105001
H	 1.7962094122	-0.4819073573	-1.2910789273	 0.104994
H	 0.7350788358	-2.976849739	-1.2244272883	 0.07709
H	 0.5582751766	-2.6135001896	 1.4760722453	 0.102192
H	 2.1013326236	-2.1050123774	 0.742967484	 0.096583
H	-1.6589326344	-2.130070027	-1.4452194705	 0.096589
H	-1.5289546224	-2.627232698	 0.261518002	 0.102188
