15
gdb 44398	3.73398	1.52133	1.51328	3.637	72.29	-0.2404	-0.0382	0.2022	906.1741	0.112272	-416.640013	-416.633301	-416.632356	-416.670861	27.599	
N	-0.0545617487	 1.257663334	-0.2742346831	-0.523099
C	 0.0382837441	 0.0394148662	-0.0097304309	 0.280148
N	 1.1988962183	-0.8542123479	 0.2979888615	-0.404037
C	 0.2056122417	-1.7479041761	 1.0354234792	 0.006524
C	-0.8132938307	-2.9679640332	 0.9225236409	-0.057446
O	-1.875958505	-1.9122468934	 1.0687491225	-0.355972
C	-0.8859851871	-1.1608657044	 0.2080791477	 0.304183
C	-0.9113099866	-2.0379752258	-1.0692584761	-0.145575
C	-0.8625251654	-3.2697492259	-0.5668878026	-0.059248
H	 0.8673983118	 1.6937426607	-0.3442121807	 0.237904
H	 1.6333800463	-1.2354074466	-0.5399013154	 0.245182
H	 0.2045729221	-1.4061273922	 2.0701438157	 0.123382
H	-0.8879933155	-3.7508660841	 1.6758033215	 0.09734
H	-0.980412765	-1.6687277419	-2.0816360751	 0.125447
H	-0.8720707704	-4.2409998093	-1.0382658352	 0.125268
