21
gdb 75248	3.76742	1.1041	1.01184	1.599	84.76	-0.2288	0.033	0.2618	1282.6277	0.182594	-387.096704	-387.088031	-387.087087	-387.130445	33.083	
C	 0.0546237237	 1.5100338769	 0.130932848	-0.495244
C	 0.0145186503	 0.0208793279	 0.0002503844	 0.338482
C	-0.1356997688	-0.6939793747	-1.1175291837	-0.166794
C	-0.1579973579	-2.1774850849	-0.8560215739	-0.314065
C	 0.323939816	-2.2948644215	 0.6071393962	 0.448737
C	-0.0819243837	-3.5345783165	 1.4376935379	-0.35307
C	 1.4233423591	-3.853341575	 1.4608243964	-0.067914
O	 1.7281463921	-2.689604765	 0.669953764	-0.317288
C	 0.1154445988	-0.8883884652	 1.2063393013	-0.359892
H	 0.997063183	 1.8422460672	 0.5848453775	 0.126613
H	-0.047966453	 2.0033130049	-0.8396291975	 0.121778
H	-0.7489326188	 1.8745091837	 0.7843350448	 0.121396
H	-0.2546472892	-0.270568769	-2.1094794379	 0.082299
H	-1.169966088	-2.592916059	-0.972512566	 0.099945
H	 0.5022941619	-2.7548464199	-1.5124894603	 0.113584
H	-0.5340694244	-3.3160481295	 2.407254222	 0.106081
H	-0.7053874224	-4.2576506338	 0.9078438396	 0.106974
H	 1.9022848435	-3.816593001	 2.447438727	 0.09852
H	 1.7244624385	-4.7816571368	 0.9596147472	 0.099405
H	 0.9469457046	-0.6367506188	 1.8747108505	 0.110968
H	-0.8042447656	-0.84417111	 1.8086953223	 0.099487
