13
gdb 128015	2.68785	1.61226	1.01563	0.9913	67.39	-0.278	-0.0759	0.2022	1080.4772	0.087509	-486.00801	-485.999777	-485.998832	-486.042192	28.299	
C	 0.0736710205	 1.455065785	 0.0870241603	-0.334886
N	 0.1626778598	 0.0053118337	 0.0901902216	-0.243638
C	 0.4739135717	-0.6181109694	-0.9532007534	 0.329406
O	 0.7822595611	 0.0273949792	-2.1446925858	-0.304152
N	 0.9290933021	-0.6541994291	-3.3928403468	 0.042305
N	 0.9523713684	-1.8869970388	-3.3957535981	-0.015845
N	 0.8379941631	-2.5993377031	-2.2491650899	-0.269639
C	 0.5607462142	-2.1113170955	-0.9750030058	 0.378263
O	 0.4142453007	-2.8489778182	-0.0377142725	-0.301576
H	 1.0457441284	 1.8749959518	 0.3735422529	 0.147739
H	-0.2037820668	 1.8770196633	-0.8846724531	 0.139134
H	-0.6511338152	 1.760192639	 0.8452306132	 0.140086
H	 0.873148492	-3.6013246178	-2.3786302327	 0.292803
