21
gdb 67727	2.92074	1.81404	1.30906	0.0441	86.92	-0.2155	0.0097	0.2252	1038.716	0.182418	-349.90879	-349.900821	-349.899877	-349.940385	33.217	
C	 0.0278674738	 1.5512559318	-0.0341698275	-0.513773
C	 0.0340431343	 0.0374361077	-0.0036173843	 0.333443
C	 0.4509036121	-0.7029520185	-1.2708568954	-0.169789
C	 0.3605433331	-1.9904335953	-0.9487743461	-0.169781
C	-0.1081274798	-1.9884228504	 0.5031868703	 0.333431
C	-0.3142916129	-3.3242903137	 1.1855215463	-0.513773
C	 0.641538282	-0.7837548288	 1.2065688519	-0.108459
C	-0.6224015878	-0.4847079345	 2.0472315183	-0.28068
C	-1.1504068952	-0.8027059586	 0.6281545812	-0.108407
H	 1.0265009216	 1.9379624474	-0.2672905363	 0.117904
H	-0.6549831542	 1.9202430728	-0.807942364	 0.117914
H	-0.2826306323	 1.9914741979	 0.9171338011	 0.117801
H	 0.7466784757	-0.2389095713	-2.2022467227	 0.096983
H	 0.5619322951	-2.8712088404	-1.5437390814	 0.096984
H	 0.6165095814	-3.9028241019	 1.1934312481	 0.117902
H	-0.6480905325	-3.22214556	 2.2215343838	 0.117801
H	-1.0651239489	-3.919314032	 0.6532069172	 0.117915
H	 1.6876622836	-0.7760908154	 1.5306436234	 0.058543
H	-0.871078325	-1.1920500271	 2.8408088192	 0.08975
H	-0.7496605734	 0.5378368403	 2.4079939052	 0.089756
H	-2.1885161006	-0.8170915302	 0.2794628518	 0.058533
