17
gdb 99805	1.9418	1.59464	1.13878	1.8645	70.85	-0.2452	-0.0383	0.2069	1133.4686	0.131929	-458.93867	-458.928727	-458.927783	-458.973397	36.298	
C	-0.0178346888	 1.4134249022	 0.4137263656	-0.484198
C	 0.0095007566	 0.0106912737	-0.1366263448	 0.379323
O	 0.9683184344	-0.4523048869	-0.7179775695	-0.328641
C	-1.3134410404	-0.8122150284	-0.0242516024	 0.038012
O	-2.2202801091	-0.1792562875	-0.9276508881	-0.455247
C	-1.0781062846	-2.2716207587	-0.4831467369	-0.117605
O	-0.7896765072	-2.2938469033	-1.8685016422	-0.432848
C	-1.8472619546	-0.7831278774	 1.3316430022	 0.31179
C	-2.2395335564	-0.8080177147	 2.4674309558	-0.428001
H	 0.8677170415	 1.9586920379	 0.0862743819	 0.140886
H	-0.9298746697	 1.9182731941	 0.0839052122	 0.166059
H	-0.0477882459	 1.376473761	 1.5074857035	 0.159163
H	-2.0373821297	-0.6105884805	-1.7788925612	 0.296191
H	-0.2823689386	-2.727939638	 0.1164247697	 0.117753
H	-2.0019282859	-2.8360392818	-0.3352105065	 0.128684
H	 0.0948890276	-1.908144613	-1.9478601402	 0.303093
H	-2.601187999	-0.8200846786	 3.4664342609	 0.205586
