23
gdb 90273	2.48256	1.41453	1.12524	0.256	93.7	-0.2107	0.0305	0.2412	1229.962	0.206518	-351.155691	-351.146729	-351.145785	-351.188955	35.141	
C	-0.0640697638	 1.5277522561	-0.1929645943	-0.392274
C	-0.0013932607	 0.0143350892	-0.0438403781	-0.000362
C	 1.2292979187	-0.645806296	-0.7881760403	-0.341932
C	 1.8929146674	-0.6827155004	 0.5695533261	 0.237616
C	 2.9735202654	-0.3093876038	 1.2525572266	 0.142936
C	 4.3814293898	-0.1380643936	 0.7790767162	-0.49456
C	 2.5408847084	 0.015161187	 2.687209518	-0.28538
C	 1.0052014298	 0.285418794	 2.5674357463	-0.246699
C	 0.6034467902	-0.5266687021	 1.3193093555	-0.039537
H	 0.9046704107	 1.988741868	 0.0293890109	 0.117393
H	-0.3359321825	 1.805814845	-1.2169349897	 0.1114
H	-0.8077376184	 1.967054524	 0.4808239272	 0.113869
H	-0.9672738108	-0.4294140482	-0.3033833247	 0.064226
H	 0.9769708842	-1.6337140357	-1.188346176	 0.103198
H	 1.7139738293	-0.0611840994	-1.5760500963	 0.100573
H	 4.7516846539	 0.8761618861	 0.9783297847	 0.118785
H	 5.0642381985	-0.8231792737	 1.2991619134	 0.124093
H	 4.4714143638	-0.3314244448	-0.2937313761	 0.120046
H	 2.7504183805	-0.8170020314	 3.375346866	 0.09846
H	 3.0837673617	 0.881403194	 3.0849841047	 0.094153
H	 0.454981124	 0.007566357	 3.4712208399	 0.088729
H	 0.839678289	 1.3553719771	 2.4015657728	 0.100217
H	 0.119911451	-1.4765630987	 1.5811225675	 0.065051
