13
gdb 127623	3.55692	1.70641	1.16167	2.9342	67.2	-0.2572	-0.0642	0.193	960.427	0.090747	-448.882507	-448.875484	-448.87454	-448.915589	25.154	
C	-0.0150583163	 1.4379949255	-0.0289462634	-0.33951
N	-0.0076057853	-0.0086965202	 0.0315982022	-0.087122
N	-0.0397653786	-0.7533566421	-1.0975503875	-0.23423
C	-0.0212758235	-2.047391545	-0.7516028967	-0.146984
C	 0.0257095703	-2.1389585079	 0.6517572706	 0.291698
C	 0.0331410668	-0.8382834367	 1.1038305948	 0.384391
N	 0.0779153737	-0.8408751204	 2.4639572155	-0.219259
N	 0.097773338	-2.0312698477	 2.8720938954	-0.021997
O	 0.0649485024	-2.9504823252	 1.705265796	-0.250696
H	 0.8959450495	 1.8475996526	 0.4168259405	 0.154729
H	-0.0645347407	 1.7140485046	-1.0813745712	 0.170806
H	-0.8841373519	 1.8407048951	 0.4989881414	 0.154946
H	-0.0423248943	-2.8100700226	-1.5122410674	 0.143226
