18
gdb 63594	4.50818	0.70088	0.66594	5.9729	94.9	-0.2604	-0.0364	0.2239	1693.6431	0.146171	-364.803752	-364.794237	-364.793292	-364.838292	34.801	
C	-0.0914651341	 1.5312862558	-0.0816748216	-0.45522
C	 0.001061417	 0.0200474449	-0.0298664727	 0.334513
C	-1.2373076867	-0.7081394206	-0.5154421662	-0.449676
C	 1.334130468	-0.6243338199	-0.2592150648	-0.315172
C	 0.7398792025	-0.6332958514	 1.1513390958	-0.268888
C	 1.3306419153	 0.1439325029	 2.1862643059	 0.102589
C	 1.8243335522	 0.7978884562	 3.0784197968	 0.057659
C	 2.3856216401	 1.5355968525	 4.0777673561	 0.196489
N	 2.8646936265	 2.16684324	 4.9286310908	-0.343866
H	 0.8133208309	 2.0091670326	 0.3014974956	 0.132214
H	-0.2402415426	 1.8647106456	-1.1145421543	 0.123437
H	-0.9378630356	 1.8931021719	 0.5121041688	 0.127936
H	-1.4418797544	-0.4580668899	-1.5626302635	 0.126259
H	-1.121494533	-1.794197975	-0.4486492428	 0.119217
H	-2.116715854	-0.4245906866	 0.0728838969	 0.128127
H	 1.3782109361	-1.5808088788	-0.7686831598	 0.125837
H	 2.1941190865	 0.0159579991	-0.4196082814	 0.132893
H	 0.3320727354	-1.5828931695	 1.4868144604	 0.125653
