21
gdb 89525	2.26076	1.80989	1.30737	0.9266	77.6	-0.2408	0.0848	0.3256	1076.2714	0.182658	-424.231505	-424.222897	-424.221953	-424.264234	33.511	
C	 0.2765490959	 1.5812839769	-0.0064066992	-0.414818
C	 0.1122484747	 0.0815559869	 0.0974631667	 0.125196
O	 0.9453648047	-0.6719140779	-0.8253519075	-0.359492
C	 1.3397512228	-1.6105054451	 0.2201796229	 0.416937
C	 0.7558762193	-2.9892748467	-0.0158899046	-0.467309
C	 2.8414882622	-1.5483551912	 0.4892992351	-0.274334
C	 2.9923464669	-0.2205877552	 1.2411170088	-0.092817
O	 1.7771436327	-0.0464854963	 1.9799993884	-0.26698
C	 0.7171687245	-0.6840001241	 1.2981344253	 0.014633
H	 1.2841112125	 1.8970293546	 0.2705642112	 0.130249
H	 0.0731530133	 1.9085048929	-1.0308246533	 0.125025
H	-0.4333287584	 2.0831848393	 0.6594874684	 0.119303
H	-0.943212331	-0.1925416226	-0.0523751968	 0.067335
H	 1.1743393155	-3.4278580486	-0.9276189182	 0.128244
H	 0.9795495789	-3.6586121965	 0.8212363125	 0.117438
H	-0.330035667	-2.9371409746	-0.1376097624	 0.121794
H	 3.139764861	-2.3918157418	 1.1206113037	 0.104044
H	 3.4199564635	-1.5806021045	-0.4373445501	 0.114455
H	 3.81690687	-0.210445756	 1.9587829837	 0.108942
H	 3.1364505652	 0.6069880981	 0.5344850434	 0.103615
H	 0.0216647627	-1.0874201675	 2.037426432	 0.078542
