14
gdb 42535	5.84229	1.06787	1.00904	2.8317	70.79	-0.2626	-0.0242	0.2383	1115.0566	0.101686	-399.501747	-399.494972	-399.494028	-399.533225	25.814	
O	-0.0859477782	-0.0963355009	 0.0035584708	-0.317012
C	-0.0522567669	 1.093765823	 0.009157474	 0.453834
C	-1.003743777	 2.2902335438	 0.0302628477	-0.212597
C	 0.0121125006	 3.0603584489	 0.957626255	-0.029745
C	 0.008498629	 4.298317717	 0.0247332012	-0.197258
C	 1.187975398	 5.1513746673	 0.0106236631	 0.27227
N	 2.1295296488	 5.8222359097	-0.0006921706	-0.32164
C	-0.0173598509	 3.0700438034	-0.9205288442	-0.029746
C	 0.9588868227	 2.239315498	-0.0007990687	-0.206956
H	-2.0883562843	 2.3723660003	 0.047707054	 0.106874
H	 0.0305266567	 3.0351477504	 2.0457399462	 0.11506
H	-0.8994947123	 4.9076728028	 0.0421240012	 0.12787
H	-0.0331015636	 3.0560567627	-2.0088866437	 0.115059
H	 2.0452898476	 2.2654776636	-0.017711516	 0.123989
