19
gdb 89551	5.71438	0.90145	0.8924	2.9822	79.08	-0.2241	0.0272	0.2513	1366.0677	0.158793	-419.181208	-419.172749	-419.171805	-419.214482	32.025	
C	 0.2464957702	 1.5370202708	 0.0774878663	-0.322762
N	 0.0170903242	 0.1113322509	 0.1066718109	-0.067256
C	-1.319631778	-0.3847859728	 0.4870650985	-0.226734
C	-0.6408797878	-1.5085296506	 1.2885300736	 0.420054
C	 0.6550494535	-0.6885301863	 1.1701052921	-0.226734
C	-1.183601148	-2.1577490423	 2.5688588843	-0.447434
C	-1.1039424134	-3.4395736578	 1.7685079555	 0.430731
N	-1.3660409892	-4.6442554372	 1.9905216404	-0.543671
O	-0.6162088866	-2.8176028431	 0.6350719985	-0.278365
H	 1.2997123738	 1.7392713249	-0.1431154064	 0.1256
H	-0.3546372594	 1.9937674793	-0.7155180187	 0.125599
H	-0.0066144844	 2.0388910503	 1.0321589282	 0.088566
H	-1.8785741933	 0.3009908614	 1.1465998877	 0.088418
H	-1.9606623918	-0.6909377053	-0.3459508508	 0.119904
H	 1.557047248	-1.232029267	 0.8708171575	 0.119904
H	 0.8593238284	-0.1201550375	 2.0936379665	 0.088418
H	-0.5251103918	-2.1169617051	 3.438820472	 0.138557
H	-2.1924424837	-1.8604936364	 2.8620917073	 0.138557
H	-1.1717398908	-5.2229191064	 1.1714568066	 0.228648
