17
gdb 86648	2.90405	1.335	1.04747	6.1342	71.81	-0.2516	-0.0096	0.242	1155.5805	0.13632	-455.189295	-455.180805	-455.179861	-455.222977	30.724	
C	 0.5792623582	 1.410738973	-0.1094766241	-0.399403
C	-0.0880688226	 0.0483686396	 0.0240615935	 0.100842
C	 0.2410907077	-0.9304847687	-1.1155186373	-0.208416
N	 1.3585355721	-1.6733176319	-0.5426705266	-0.136154
C	 2.2556413404	-2.3859293249	-1.322582745	 0.158792
O	 3.189692205	-3.0335127074	-0.9367379691	-0.266797
C	 1.3484834431	-1.5617168242	 0.8600512433	 0.474564
N	 2.0662146585	-2.2114793292	 1.6628302443	-0.541169
O	 0.4020171636	-0.6324994245	 1.1973820846	-0.259555
H	 1.6547525946	 1.302554456	-0.2820535076	 0.137368
H	 0.1460664987	 1.9658820407	-0.9477180864	 0.12456
H	 0.4330857951	 1.9929718558	 0.8036507029	 0.140527
H	-1.1670851968	 0.1604330752	 0.1541172802	 0.105443
H	-0.6056113139	-1.5916663711	-1.335887025	 0.128814
H	 0.5334297462	-0.4177371477	-2.0350957838	 0.132042
H	 1.9967879473	-2.2698404033	-2.3953085826	 0.07752
H	 1.8728011426	-1.9104281276	 2.6169178487	 0.231023
