15
gdb 112143	2.935	1.28874	1.01417	5.1346	62.67	-0.2568	-0.0841	0.1727	1155.3924	0.111252	-494.944182	-494.935831	-494.934887	-494.978174	29.444	
C	-0.2264667529	 1.2853893056	-0.0753418334	-0.251846
O	-0.0837066549	-0.1304234437	-0.1333147334	-0.225189
C	 0.7551626965	-0.5790762158	-1.133753707	 0.188799
C	 0.8537051623	-2.1027066817	-1.0381526722	-0.367378
C	-0.1484533666	-2.5815670538	-2.0686606943	 0.28183
O	-0.617709997	-3.6713492263	-2.2234696734	-0.262656
C	-0.4644256358	-1.3577698924	-2.9623155262	 0.347279
O	-1.1242647791	-1.3263037498	-3.9545785699	-0.304265
O	 0.1899272447	-0.2870141754	-2.4439665385	-0.228544
H	 0.7505794535	 1.7719687189	 0.0520639429	 0.118442
H	-0.7057450285	 1.6740133862	-0.9794994683	 0.144815
H	-0.8515530137	 1.4995155771	 0.7925161342	 0.142432
H	 1.7168796589	-0.052080124	-1.1219748749	 0.095714
H	 1.8512312892	-2.4524043918	-1.3246639393	 0.155208
H	 0.6292964235	-2.4639878631	-0.0346855265	 0.165359
