20
gdb 111885	2.6673	1.29337	1.19532	1.7975	74.33	-0.221	0.0583	0.2792	1145.3007	0.172735	-440.23977	-440.231369	-440.230425	-440.272919	32.077	
O	 0.2020372901	 0.858670075	-1.3184339979	-0.416512
C	 0.0387549755	 0.2125249945	-0.060522739	-0.110438
C	-1.3198042863	-0.4599300902	 0.0210884126	-0.036052
C	-1.5258854537	-1.9179432289	-0.2176788875	-0.049739
C	-0.3817482646	-2.8981088787	-0.4365622078	-0.119519
O	 0.6176825921	-2.8298741094	 0.5653332296	-0.233513
C	 0.039389706	-2.9287465197	 1.8574045901	-0.082714
C	-0.7795304778	-1.6811774938	 2.182182187	-0.159519
N	-1.742838468	-1.3404039165	 1.1189638672	-0.125323
H	 0.2116410666	 0.1756832771	-1.9964808896	 0.281815
H	 0.8507473999	-0.494097818	 0.1408160603	 0.117579
H	 0.0983580509	 1.0144157298	 0.6849632705	 0.112291
H	-2.1137524236	 0.2131881571	-0.3031253561	 0.094291
H	-2.4465368426	-2.228524753	-0.7123163859	 0.090962
H	-0.7995111059	-3.9184418172	-0.4699218328	 0.100963
H	 0.1228069275	-2.7197362328	-1.3928090414	 0.107924
H	-0.5963724589	-3.8276911823	 1.912520657	 0.095588
H	 0.8628469256	-3.0502549354	 2.566671099	 0.112894
H	-1.3456661365	-1.8522669582	 3.105999896	 0.106558
H	-0.1065199864	-0.8384347895	 2.3749668087	 0.112466
