19
gdb 40781	3.45774	1.35168	1.19606	2.1235	74.62	-0.2526	0.0905	0.3431	1093.5574	0.160197	-422.991732	-422.984067	-422.983123	-423.024205	29.783	
C	-0.3299742853	 1.3306940428	-0.1997139744	-0.250886
C	 1.1036711041	 1.0399961176	 0.1705876659	-0.274561
C	 0.1177715787	-0.0899781014	 0.0146570269	-0.00421
C	-0.3559039144	-0.8784702834	 1.2159027356	 0.078343
O	-0.3359298316	-0.0517667361	 2.3825348685	-0.270945
C	-1.3615771829	-0.4452943769	 3.286217705	-0.107904
C	-2.4083133793	-1.1322339642	 2.4368459866	 0.022284
O	-2.769805938	-0.3687876759	 1.281181041	-0.244413
C	-1.7842410708	-1.3975377195	 1.1410090492	 0.014845
H	-0.9644018452	 1.762432211	 0.5634887245	 0.131079
H	-0.5519162861	 1.6478714199	-1.2125132222	 0.103999
H	 1.8705168544	 1.1532629799	-0.5877860388	 0.104179
H	 1.4153603142	 1.2894706067	 1.1774877508	 0.127434
H	 0.2280090617	-0.7100845711	-0.8712619139	 0.08005
H	 0.3047153407	-1.7527680436	 1.3619800431	 0.069498
H	-0.9847604774	-1.1493022822	 4.0462086869	 0.096315
H	-1.7258936354	 0.4542486528	 3.7930196325	 0.120109
H	-3.186260167	-1.7468176347	 2.8810462838	 0.103267
H	-2.0430304005	-2.2356046316	 0.4996293489	 0.101516
