18
gdb 112419	2.05212	1.55584	0.99645	5.3436	68.02	-0.2574	0.048	0.3054	1194.1959	0.148302	-476.273759	-476.264948	-476.264004	-476.307422	32.522	
C	-0.3098221495	 1.5422408319	-0.1370759421	-0.413811
C	 0.078753085	 0.0785880971	-0.0364049111	 0.115507
O	 1.1031222101	-0.2180007561	-1.0047320463	-0.253607
C	 1.9401752049	-1.1831600285	-0.5086530988	 0.462458
O	 2.8352975108	-1.6714955903	-1.1386140549	-0.390006
N	 1.548248077	-1.4663059135	 0.7860717895	-0.355869
C	 0.6755344037	-0.4241261704	 1.300078065	-0.007341
C	 1.4528957431	 0.605694494	 2.1220150906	-0.094234
O	 2.053831617	-0.1206413824	 3.1846513271	-0.42561
H	 0.5413613646	 2.2006342762	 0.0542235081	 0.132553
H	-0.6817656901	 1.7551376914	-1.1423515484	 0.140794
H	-1.1056059737	 1.7755479018	 0.5771837939	 0.125193
H	-0.7892558754	-0.5485896322	-0.2780100102	 0.100634
H	 2.2399820092	-1.8697642503	 1.3995065432	 0.26551
H	-0.1066356419	-0.8500709777	 1.9371531156	 0.099585
H	 2.2109404793	 1.0928503662	 1.4907707326	 0.10614
H	 0.770673477	 1.381620413	 2.5003781608	 0.095712
H	 2.657682129	 0.4622479199	 3.6534945256	 0.296392
