19
gdb 84454	2.79962	1.57569	1.25192	2.3066	76.42	-0.2465	0.0028	0.2492	1058.9206	0.159435	-423.018109	-423.009924	-423.008979	-423.050466	32.081	
C	 0.1355113118	 1.5972893887	-0.0007767662	-0.39057
C	 0.0285119	 0.0659050572	-0.0169861043	-0.062787
C	 0.7240738496	-0.5883040297	-1.1982643661	-0.054814
C	 1.5578362423	-1.5698532129	-0.8533123771	-0.193334
C	 1.5926090964	-1.7930223185	 0.6359260949	 0.32404
O	 1.3930068232	-3.1222952191	 1.0443831372	-0.475277
C	 2.7344281756	-1.0952079264	 1.3947087348	-0.103343
O	 1.9052815152	 0.0602670989	 1.6405380864	-0.293778
C	 0.713079569	-0.6211033237	 1.1794113307	 0.04983
H	 1.1797992507	 1.906101157	 0.0766921388	 0.138528
H	-0.2921021785	 2.0234394211	-0.9139395046	 0.107972
H	-0.4065196811	 2.0174732799	 0.8521044559	 0.117884
H	-1.0391700492	-0.2001736891	-0.0309680192	 0.077245
H	 0.5482813084	-0.2559166327	-2.2171399149	 0.099304
H	 2.1602820895	-2.1637376523	-1.5330441871	 0.099328
H	 0.7188628384	-3.5110311329	 0.4765264139	 0.278168
H	 2.9974800666	-1.6191160211	 2.3226217154	 0.106052
H	 3.641938284	-0.8450722074	 0.834771885	 0.103267
H	 0.0412425483	-0.8560908271	 2.0123437064	 0.072285
