16
gdb 28240	4.78055	1.25218	1.00886	4.2016	72.53	-0.1689	0.0424	0.2113	1131.9127	0.12758	-434.090245	-434.082465	-434.08152	-434.12264	28.969	
N	 0.0195916007	 1.3554797125	 0.0768719898	-0.598461
C	-0.0128828605	-0.0383468546	 0.0745404221	 0.368872
N	-1.0982182185	-0.7772431211	 0.2637882923	-0.407433
C	-0.6053820305	-2.0449545658	 0.2199989021	 0.38857
C	 0.7239244805	-2.1155754725	-0.0155854278	 0.166607
C	 1.2168897294	-3.5131996126	 0.1407186829	-0.367666
C	-0.1907373154	-4.2217838133	 0.1654716972	-0.081226
O	-1.2228274974	-3.235669916	 0.4465498147	-0.282845
N	 1.1279219404	-0.7814859822	-0.0746377419	-0.408937
H	 0.4321954234	 1.7523263305	-0.7600582978	 0.247039
H	-0.923556478	 1.7082731332	 0.1852312093	 0.262931
H	 1.8240994912	-3.9101523	-0.6809844515	 0.108355
H	 1.7794303464	-3.6812072267	 1.0711544548	 0.109452
H	-0.4046349223	-4.656604021	-0.8171725163	 0.115053
H	-0.2642143768	-5.002435108	 0.9247788745	 0.118567
H	 2.0547465074	-0.4142646324	-0.2012387043	 0.261123
