17
gdb 101078	2.35436	1.32348	0.94616	4.2519	68.98	-0.2698	0.0191	0.2889	1220.3623	0.135437	-455.117611	-455.108379	-455.107434	-455.151752	33.661	
O	-0.1134167299	 1.3662664872	-0.3493854935	-0.431952
C	 0.0459010164	-0.0386457805	-0.1780426568	-0.11601
C	-1.3526168593	-0.5662343805	 0.1555540232	 0.041181
O	-2.2729036788	-0.1223479027	-0.8211300462	-0.447713
C	-1.397112306	-2.0952526193	 0.1724567893	 0.148444
C	-2.6839604112	-2.7926231904	-0.1210918428	-0.265451
N	-1.5921559476	-2.8181928121	-1.1001762452	-0.33661
C	-0.4650713788	-2.7031743389	 1.0987035492	 0.272021
N	 0.2749246083	-3.1520796247	 1.8653192008	-0.344554
H	 0.690148422	 1.7270507959	-0.733965692	 0.302306
H	 0.4065707332	-0.5143424675	-1.1014128017	 0.108081
H	 0.7461125708	-0.2732102922	 0.6336559424	 0.128627
H	-1.6368672166	-0.1924291144	 1.151631621	 0.101067
H	-1.9919754464	 0.7752485114	-1.0463034586	 0.303016
H	-2.8903389966	-3.7414676737	 0.3632788202	 0.139685
H	-3.5403031352	-2.1560337272	-0.316672197	 0.14747
H	-1.7842992443	-2.1058122203	-1.8043100024	 0.250393
