20
gdb 60286	3.90291	0.92935	0.84694	2.566	78.73	-0.247	0.022	0.269	1440.9286	0.169889	-440.280278	-440.270703	-440.269759	-440.31505	34.876	
C	 0.0060453334	 1.463165698	 0.0906365597	-0.389126
C	-0.0886343283	-0.0644030194	 0.0857630746	 0.151028
O	 0.5283738525	-0.6225073402	 1.239682691	-0.43826
C	-1.5476939148	-0.528277603	-0.0641807442	-0.209409
N	-1.6540794916	-1.981939368	-0.1195438702	-0.316649
C	-1.7520551681	-2.6054824937	 0.9570273701	 0.477952
C	-1.8540886874	-4.0580534544	 1.3671921905	-0.374803
C	-1.9180943192	-3.4835247883	 2.7971301763	-0.079103
O	-1.8174567489	-2.125522536	 2.2672687113	-0.278982
H	 1.0470637371	 1.7701899898	 0.2197294097	 0.123223
H	-0.3687342555	 1.8898147686	-0.846109619	 0.109534
H	-0.5775062489	 1.886717693	 0.9163683417	 0.108154
H	 0.4850669288	-0.4597492222	-0.7618554794	 0.090645
H	-0.1212861118	-0.6394126304	 1.9520886968	 0.283477
H	-2.1377693143	-0.1044111259	 0.7636530984	 0.098859
H	-1.9511991311	-0.1197026253	-0.9964383335	 0.1052
H	-2.74954253	-4.5725808197	 1.0150604778	 0.139884
H	-0.972904219	-4.6573687599	 1.1333163577	 0.145347
H	-2.8586397497	-3.622832865	 3.3351455577	 0.124859
H	-1.0705697432	-3.7106070281	 3.4476595032	 0.12817
