17
gdb 37253	3.57404	1.51332	1.36393	1.8681	70.7	-0.2484	0.063	0.3114	965.4948	0.135671	-421.734302	-421.727392	-421.726448	-421.765586	27.933	
C	-0.0276265238	 1.5187833797	-0.0066248757	-0.255986
O	 1.1609683827	 0.7121666273	 0.0301938264	-0.28646
C	-0.0979201691	 0.0611992522	 0.0052555317	 0.487742
C	-0.5469558084	-0.9130018109	 1.1091927318	-0.337127
C	-0.9967881761	-1.9131982983	 0.0009524896	-0.062736
C	-2.4297528542	-1.7455575753	-0.5672549489	 0.017074
O	-2.7666083253	-0.3546655407	-0.5232906854	-0.237553
C	-1.9593616936	-0.8205125729	-1.613525279	 0.017546
C	-0.4966932044	-0.921705814	-1.1082277306	-0.186551
H	-0.2425972571	 2.0752599353	 0.9046238864	 0.115618
H	-0.1936311191	 2.0648356268	-0.9345207266	 0.112411
H	 0.2992865058	-1.2798128471	 1.6957621605	 0.116215
H	-1.3299790889	-0.5504070746	 1.7776379942	 0.116843
H	-0.6288984288	-2.937082425	 0.0436208752	 0.082309
H	-3.254532356	-2.4492826321	-0.5504935367	 0.105259
H	-2.3257371428	-0.6187324593	-2.6137534073	 0.107463
H	 0.2616447992	-1.2029724512	-1.8378923155	 0.087933
