15
gdb 10058	2.6922	1.53618	1.0264	2.6712	62.61	-0.274	-0.0513	0.2227	1085.221	0.115851	-399.806634	-399.797664	-399.796719	-399.841345	29.816	
C	 0.1687961348	 0.9943917869	 0.8331053627	-0.252981
O	-0.4833610985	 0.0830602397	-0.0400602452	-0.253797
C	 0.2901788683	-0.405746436	-1.1019051522	 0.014276
C	 1.1574644504	-1.6364382493	-0.7521941206	-0.343506
C	 2.3786729494	-1.3118275483	-0.0244239903	 0.255905
N	 3.3468086241	-1.0410047193	 0.5462224962	-0.310203
C	-0.6961631319	-0.7636790163	-2.2177378181	 0.152887
O	-0.4951351865	-1.6027691494	-3.0539154828	-0.238282
H	 0.9633117693	 0.5135981439	 1.4144453018	 0.146577
H	 0.6009293364	 1.8368816383	 0.2744357813	 0.118287
H	-0.5959211793	 1.372896308	 1.5143327174	 0.138317
H	 0.9413507383	 0.3883727827	-1.5101298977	 0.116632
H	 0.5533440506	-2.3321586013	-0.1605944951	 0.165196
H	 1.4130892597	-2.1414183031	-1.689835344	 0.179543
H	-1.6232385053	-0.1546805465	-2.1838244834	 0.111148
