15
gdb 46099	4.81305	0.88395	0.8067	2.9222	72.81	-0.2546	-0.0442	0.2105	1352.0901	0.113575	-416.870466	-416.862243	-416.861299	-416.904313	29.321	
O	-0.2004405049	-0.0756655966	 0.2960391075	-0.37987
C	-0.0482862351	 1.1143462587	 0.1306800276	 0.442722
N	-1.0319146255	 2.0410645182	-0.1509049045	-0.34641
C	-0.5207623474	 3.3744856725	-0.3536788162	-0.248395
C	 0.9582422006	 3.1909852147	-0.0944009244	 0.334396
C	 1.9262261751	 4.3436929515	-0.1218190732	-0.441421
C	 1.8302362783	 5.1366747895	-1.3509797367	 0.267377
N	 1.7320136105	 5.7570471859	-2.3204447627	-0.30285
C	 1.2171421727	 1.9109357496	 0.1785660802	-0.335318
H	-1.9790092453	 1.7623482393	-0.3426359622	 0.259699
H	-0.7003583409	 3.7494190502	-1.3713980571	 0.150211
H	-0.9616094857	 4.103956344	 0.3421966129	 0.12965
H	 1.7389143122	 5.017321084	 0.725727073	 0.170988
H	 2.951843363	 3.9779900388	-0.0125864161	 0.171155
H	 2.1728899824	 1.4577163197	 0.4016535219	 0.128065
