16
gdb 24232	3.96664	1.5918	1.23772	3.4643	74.35	-0.2052	0.0316	0.2367	972.3022	0.129243	-396.937138	-396.930828	-396.929884	-396.967661	25.869	
C	-0.0674029912	 1.5401214269	-0.0065311469	-0.361931
C	 1.4402566223	 1.8829478953	-0.0328351963	-0.019322
N	 2.1910661055	 1.4381869519	 1.1572781001	-0.32914
C	 2.264892864	 0.6326653841	-0.0970130386	-0.207917
C	 1.2703301872	-0.4666236864	-0.0995752662	 0.334892
C	 0.0055494587	 0.0426806243	-0.0276667773	 0.292105
N	-0.820631444	-1.0466022759	 0.0736394108	-0.372428
C	-0.0019347559	-2.1536662574	 0.0283551864	-0.015708
N	 1.2729107377	-1.8366696895	-0.068979466	-0.351189
H	-0.544000219	 1.9448988925	 0.8937399974	 0.124009
H	-0.5839561338	 1.9658926367	-0.8765660244	 0.108131
H	 1.7516470894	 2.7930182077	-0.5342555902	 0.088177
H	 3.0335185231	 2.0063468634	 1.2355158399	 0.226571
H	 3.2026215054	 0.5799216728	-0.638346885	 0.094148
H	-1.8246525004	-1.0571603226	 0.1367458217	 0.264227
H	-0.4036337591	-3.1555750339	 0.0602288747	 0.125376
