17
gdb 98550	3.57068	1.20778	0.99892	1.0993	70.75	-0.2434	0.0005	0.2439	1202.3783	0.134699	-458.946061	-458.937471	-458.936527	-458.98001	30.792	
C	-0.1823513943	 1.2936938149	 0.542266318	-0.240524
O	-0.3170007189	-0.1331555958	 0.5842554546	-0.224605
C	-1.1483874594	-0.6512192817	-0.3314935861	 0.3569
O	-1.7648161611	-0.005100526	-1.1463462004	-0.39015
C	-1.2357129393	-2.1254178206	-0.2280765562	 0.346772
C	-1.6133428955	-3.0048262376	-1.388669001	-0.319139
C	-2.4811776477	-3.0053176694	-0.1622790785	-0.159282
C	-1.7467082512	-3.691385621	 0.9854217973	-0.095362
O	-0.5634341565	-2.86772997	 0.7850679067	-0.314686
H	 0.5308834173	 1.5452653055	 1.3267621355	 0.136779
H	 0.188895616	 1.6171802586	-0.4333481623	 0.14251
H	-1.1448152999	 1.7767118738	 0.7290261055	 0.140769
H	-2.0259917504	-2.4747005677	-2.239206899	 0.146926
H	-0.9690456938	-3.850506983	-1.6118866836	 0.122561
H	-3.5182367354	-2.7005966632	-0.1706269672	 0.120662
H	-2.1857979925	-3.494373288	 1.969019835	 0.11794
H	-1.5296933476	-4.7601839089	 0.8785404015	 0.111927
