23
gdb 39234	2.75768	1.51647	1.1334	0.2185	88.3	-0.2544	0.0825	0.3369	1160.927	0.20965	-351.142847	-351.135117	-351.134173	-351.174597	32.573	
C	-0.0428680376	 1.4693007943	-0.2175282366	-0.330773
C	 1.3090335961	 0.8640121506	 0.0795650636	 0.028238
C	 1.9735027679	 0.9926280808	 1.4375473522	-0.23557
C	 2.7704838518	-0.2705680838	 1.8076211532	-0.212536
C	 1.9852586136	-1.5631955621	 2.0286285725	 0.015148
C	 0.9889286476	-1.7687418574	 3.1442743801	-0.302809
C	 0.5207113758	-1.8075376347	 1.7073295762	-0.00265
C	-0.4153096904	-0.7225320611	 1.1806019523	-0.260945
C	 0.1000234413	-0.0274910672	-0.0657047777	 0.020495
H	-0.5434766917	 2.0103751392	 0.5804774528	 0.104715
H	-0.2197228723	 1.8796154797	-1.2059671903	 0.105525
H	 2.0124588473	 0.8488049002	-0.749997323	 0.074919
H	 2.6572690517	 1.8507041226	 1.434212785	 0.091276
H	 1.2290618023	 1.2141786926	 2.2100108611	 0.092543
H	 3.4902684257	-0.4531846065	 0.9984020617	 0.093346
H	 3.3760406256	-0.0692992522	 2.701641048	 0.091091
H	 2.6070527028	-2.4375146791	 1.8486876297	 0.077821
H	 1.0344770359	-2.6842615429	 3.7249679884	 0.103586
H	 0.6925352844	-0.8975368989	 3.7225442948	 0.104101
H	 0.316433765	-2.7959729403	 1.3031138731	 0.078012
H	-1.3999761095	-1.16476092	 0.9855207341	 0.094167
H	-0.5863773536	 0.0251015382	 1.9618183874	 0.095912
H	 0.0416713503	-0.6158157919	-0.9777630085	 0.074387
