14
gdb 132048	2.35702	1.83722	1.0391	5.1949	68.86	-0.2343	-0.0543	0.18	1060.8257	0.099839	-481.848809	-481.841045	-481.840101	-481.881397	28.462	
C	-0.0312611616	 1.5420119172	 0.0228984577	-0.497826
C	-0.0061751322	 0.0404906292	 0.0005898308	 0.162889
C	-0.1078189842	-0.6674172073	-1.150585247	 0.03386
F	-0.2361450021	-0.0630899671	-2.3307764258	-0.057397
C	-0.0884715488	-2.121425386	-1.2212303551	 0.364033
O	-0.1743030066	-2.7975540771	-2.2076577771	-0.335327
O	 0.0463891148	-2.7482058027	 0.0205739428	-0.220803
C	 0.1481198664	-2.054444218	 1.1700338415	 0.085909
C	 0.1287126643	-0.7113640313	 1.2198297164	-0.245691
H	 0.8915015428	 1.9334804045	 0.4652132177	 0.146001
H	-0.1389594141	 1.9525969686	-0.980851535	 0.153032
H	-0.861888685	 1.9015625927	 0.6402797601	 0.145988
H	 0.2452340166	-2.7087873807	 2.0271718893	 0.146677
H	 0.2142032099	-0.2040088121	 2.1720111436	 0.118655
