16
gdb 16284	3.21098	1.83482	1.44736	4.6341	69.81	-0.2603	-0.0026	0.2577	903.1561	0.131194	-342.755173	-342.747792	-342.746848	-342.786668	27.725	
C	-0.0411628878	 1.6250651158	-0.0185248551	-0.418357
C	 0.0549588904	 0.107793499	 0.0428275216	-0.048261
C	 1.0928810771	-0.6598040396	-0.8234795263	-0.179308
N	 1.6584674509	-1.3950409631	 0.3677903387	-0.147607
C	 2.2090030585	-0.3575912956	 1.2423893411	-0.269441
C	 0.7363840663	-0.5494966818	 1.255452092	 0.189424
C	 0.0366828996	-1.0760136629	 2.3883501178	 0.211599
N	-0.558901297	-1.4652422309	 3.3010092413	-0.33778
H	 0.9335820936	 2.1030199571	 0.12043672	 0.119683
H	-0.4324007041	 1.9443690633	-0.9901268267	 0.127245
H	-0.7166899757	 2.0052650059	 0.754649567	 0.13566
H	-0.9353793737	-0.3334468088	-0.0932831747	 0.106917
H	 0.6544406508	-1.3670316682	-1.5281551063	 0.126042
H	 1.8419177819	-0.0508849584	-1.3404426293	 0.113045
H	 2.7609769318	-0.7577909646	 2.086490015	 0.146976
H	 2.6252650575	 0.5474430127	 0.805571124	 0.124162
