19
gdb 79040	3.56913	1.65232	1.39406	1.3117	78.79	-0.2282	0.0859	0.3141	979.706	0.160481	-385.793159	-385.786307	-385.785363	-385.823999	28.655	
C	-0.1936493418	 1.6158394793	-0.0563396168	-0.41936
C	-0.0315462543	 0.1076510025	 0.0301430604	-0.085738
C	 1.1833099204	-0.5959122266	-0.707126247	-0.123787
C	 2.1945494174	-0.1970630508	 0.4098142973	-0.086494
C	 2.5626158859	-1.6117936244	 0.9169842775	-0.154262
C	 2.2475925567	-1.5304962472	 2.4444396697	-0.106495
O	 1.0126355999	-0.7412611402	 2.495802778	-0.350071
C	 0.8513235806	-0.524964345	 1.1238577593	 0.460436
C	 1.1641581925	-1.7933379938	 0.2827812196	-0.077313
H	 0.7585501201	 2.1346577017	 0.091568864	 0.117784
H	-0.586933987	 1.9063116739	-1.0364644447	 0.116701
H	-0.8946844069	 1.979708819	 0.7020780528	 0.124923
H	-0.9893453055	-0.4049474106	-0.121483703	 0.073793
H	 1.3608236495	-0.6274690142	-1.7802309861	 0.07857
H	 2.7557119347	 0.7312945654	 0.5083176967	 0.074366
H	 3.4575059132	-2.1664937204	 0.6294961959	 0.067784
H	 2.0602237217	-2.5107107653	 2.896402552	 0.10883
H	 3.0245193873	-1.0110539824	 3.0161890167	 0.108477
H	 0.5286334055	-2.6781589408	 0.2394330677	 0.071857
