19
gdb 95698	2.80448	1.33357	1.06939	5.2226	71.55	-0.2697	0.0291	0.2987	1174.6528	0.160145	-460.205766	-460.197194	-460.19625	-460.239552	31.728	
C	-0.225121024	 1.4578455447	 0.2924188921	-0.41749
C	 0.013725689	-0.0400563696	 0.0670655039	-0.002499
C	 0.3192695246	-0.3491165923	-1.4092606215	-0.212527
C	 0.8649836981	-1.76499043	-1.6014962761	-0.082923
O	 0.1498330595	-2.7182767879	-0.7986897371	-0.239517
C	 0.4679458886	-2.8421776623	 0.5086131627	 0.445959
O	 0.0268333295	-3.7316064402	 1.1709693614	-0.349923
O	 1.3807711116	-1.9511719246	 0.9815505819	-0.265866
C	 1.1195235724	-0.5313786504	 1.0013386071	-0.069809
H	 0.6792930737	 2.0393573443	 0.079613318	 0.120821
H	-1.0178563077	 1.8250836965	-0.366081325	 0.126146
H	-0.5243709532	 1.6650236698	 1.3245098447	 0.124372
H	-0.9075757088	-0.570755999	 0.3393849386	 0.110803
H	-0.5944809946	-0.2117902444	-1.9971168207	 0.114707
H	 1.0584953846	 0.3617492172	-1.8001919328	 0.104764
H	 0.7329856321	-2.108588319	-2.6295715315	 0.124018
H	 1.9284684316	-1.8155833815	-1.3535989364	 0.127962
H	 2.0740689097	-0.0522277812	 0.7549463333	 0.116653
H	 0.8696366031	-0.2718925499	 2.0366732372	 0.124351
