15
gdb 21653	6.69838	1.21713	1.06317	2.3059	64.31	-0.2008	0.0234	0.2242	1065.0681	0.121111	-395.994208	-395.986485	-395.98554	-396.026388	28.481	
N	-0.4238229313	 1.3327550319	 0.4002868215	-0.588499
C	 0.0081397546	 0.0303406322	 0.1463011719	 0.379995
N	-0.6784648081	-0.767754547	-0.6671563982	-0.307229
N	-0.0224310299	-1.953896474	-0.594252596	-0.240256
C	 1.0655156851	-1.9159368246	 0.2086398415	 0.356598
C	 1.9095834489	-3.1348353546	 0.4213383625	-0.175527
O	 1.995776591	-3.9397112713	-0.7496840791	-0.414619
C	 1.1239519314	-0.6332750814	 0.7184049969	-0.400005
H	 0.3336491553	 1.9989880384	 0.4674388038	 0.243324
H	-1.1016214832	 1.6366590784	-0.2873339326	 0.248713
H	-0.3228292378	-2.7317316092	-1.1556756614	 0.272357
H	 2.899255434	-2.8355805072	 0.7940128223	 0.10979
H	 1.4654758946	-3.7884589937	 1.1812713922	 0.133401
H	 2.4221150727	-3.4112146441	-1.433266748	 0.287497
H	 1.8493123729	-0.2388065936	 1.4119218328	 0.09446
