16
gdb 65962	2.3495	1.50067	1.36548	2.2062	69.52	-0.2509	0.0001	0.2511	1027.6223	0.122354	-437.850536	-437.84198	-437.841035	-437.883927	31.664	
O	-0.1103935263	 1.3578420533	-0.2844441304	-0.450235
C	 0.0019144488	-0.02174064	-0.0419979526	 0.100849
C	 0.0710472418	-0.482125703	 1.4470651514	-0.113779
O	-1.1902089946	-1.1681343151	 1.3348268161	-0.301202
C	-1.3587135817	-0.7253675703	-0.0094743435	 0.442139
C	-2.6449849228	-0.2088278193	-0.554436463	-0.325143
C	-2.0563705633	-1.5212448401	-1.0550074454	-0.341201
C	 1.0037103159	-0.6346062115	-0.9224006228	 0.235841
N	 1.8089859597	-1.0911179646	-1.6147431233	-0.336167
H	 0.7731450048	 1.7384089859	-0.3505474186	 0.299287
H	 0.8884816564	-1.1584050553	 1.7132871401	 0.126869
H	 0.0271241269	 0.3680751452	 2.136361081	 0.120551
H	-3.5045707897	-0.2630783526	 0.1046694235	 0.132563
H	-2.6080418933	 0.6625087355	-1.1984263774	 0.138387
H	-1.6235084863	-1.5579138322	-2.0494629936	 0.136178
H	-2.5279130464	-2.441155496	-0.7270004517	 0.135063
