14
gdb 3678	3.76852	3.27179	1.7753	1.7753	59.4	-0.1975	0.0387	0.2361	688.8492	0.115504	-320.783029	-320.776103	-320.775159	-320.813624	25.333	
C	-0.0540986236	 1.5551320172	-0.0015826451	-0.520283
C	-0.0146152087	 0.0598307287	-0.0143787766	 0.173095
C	-0.0083992575	-0.7999925693	-1.0933048967	-0.110361
N	 0.011624274	-2.0594405968	-0.6004417366	-0.196148
N	 0.0290851875	-2.094075021	 0.7554968696	-0.306996
C	 0.0062247104	-0.8130233576	 1.1086930135	 0.290932
N	-0.0653749905	-0.4334080216	 2.4522258208	-0.588127
H	 0.8693313296	 1.9931101221	 0.400489602	 0.118064
H	-0.1873595376	 1.9572305124	-1.0098336422	 0.122377
H	-0.8788617684	 1.9278736567	 0.6172232018	 0.133621
H	-0.0232701257	-0.6031880966	-2.1545130955	 0.124078
H	 0.0117103999	-2.9254903324	-1.1081986712	 0.269393
H	 0.1350174882	-1.2154093288	 3.0635040798	 0.247888
H	 0.5409320224	 0.3454169271	 2.6761642965	 0.242467
