16
gdb 85487	2.51476	1.44107	1.08641	3.319	70.4	-0.2651	-0.0036	0.2615	1111.2939	0.125763	-434.089075	-434.080832	-434.079888	-434.122184	30.648	
N	-0.004318717	 1.4027486959	 0.2059856983	-0.515055
C	-0.0650048145	-0.0069685817	-0.0919839267	 0.001017
C	-1.4902189937	-0.5555582893	-0.2312396432	-0.303484
C	-1.3143515932	-1.8083599127	-1.0512100777	 0.42042
N	-2.1085140212	-2.7788621091	-1.1327158681	-0.527262
O	-0.0994402823	-1.752461633	-1.7188564458	-0.231143
C	 0.5657714678	-0.5223858534	-1.4374283305	-0.079157
C	 0.3642840672	 0.4445117252	-2.5295356608	 0.280222
N	 0.1922535351	 1.2370855446	-3.3528727665	-0.314548
H	 0.9503782955	 1.71166033	 0.3556677087	 0.239516
H	-0.3876892454	 1.9568875399	-0.5548658689	 0.248435
H	 0.4528092132	-0.5473458416	 0.7075172895	 0.113737
H	-1.9804852177	-0.763419604	 0.7187173607	 0.153313
H	-2.1153620866	 0.1575147525	-0.7830575549	 0.145993
H	-1.7504817321	-3.4934840484	-1.7688094571	 0.231322
H	 1.635853655	-0.728660505	-1.3459710569	 0.136673
