22
gdb 14998	4.09026	1.28738	1.05365	1.3563	78.24	-0.2431	0.0877	0.3309	1185.0079	0.202202	-350.224505	-350.216242	-350.215298	-350.257062	31.861	
C	 0.096970853	 1.5699252009	 0.0406377781	-0.391026
C	 0.0074061242	 0.0405290426	 0.0087699176	-0.181426
C	-1.4231914502	-0.5191241644	-0.0205742481	 0.047179
C	-2.1995872764	-0.1431326602	-1.294953075	-0.201524
C	-3.575467864	-0.8148009152	-1.3138879453	-0.078178
O	-3.4835394472	-2.222834092	-1.1875983012	-0.241524
C	-2.8554950454	-2.6047409693	 0.0238971063	-0.081019
C	-1.4333694945	-2.0503181646	 0.1285343865	-0.207976
H	 1.1379532708	 1.8990539411	 0.1172635494	 0.112408
H	-0.3231695706	 2.0241823333	-0.8620948815	 0.1188
H	-0.4443561833	 1.979852674	 0.9010016291	 0.112547
H	 0.5573306452	-0.3420161338	-0.8621369875	 0.093336
H	 0.520085285	-0.3657188387	 0.8906904271	 0.090151
H	-1.968703209	-0.0969679728	 0.8389177007	 0.063327
H	-2.328573225	 0.9419106576	-1.375248527	 0.092804
H	-1.6325086143	-0.4700425811	-2.1768415005	 0.098442
H	-4.1999465528	-0.4041818825	-0.4999485463	 0.080055
H	-4.0943940551	-0.6266213052	-2.258642412	 0.102804
H	-3.4550263425	-2.2570565819	 0.8844951869	 0.079691
H	-2.8569464315	-3.6988633984	 0.0371527946	 0.102833
H	-0.8194904786	-2.4989759946	-0.6636832751	 0.099284
H	-0.9917850077	-2.3476760746	 1.0877567432	 0.089011
