19
gdb 71019	3.98797	1.64848	1.37549	0.3013	84.04	-0.2135	0.0067	0.2202	974.4734	0.160029	-348.653147	-348.646284	-348.64534	-348.683754	29.347	
C	-0.043933731	 1.5000327586	-0.0558136454	-0.51387
C	 0.0528797786	-0.0012936238	-0.0389012415	 0.291974
C	 0.6974518148	-0.9307633971	-1.1354368938	-0.39599
C	 0.1929021976	-1.9032356501	-0.0503443784	 0.310031
C	-0.0437062033	-3.2645498495	 0.5791666385	-0.252148
C	-0.6688840635	-2.9293048062	 1.7187442945	-0.08708
C	-0.7768437714	-1.3836792148	 1.7166923755	-0.147184
C	 0.5820538098	-0.9225017062	 1.1066553824	-0.06657
C	-1.0836219049	-1.03985572	 0.2270122565	-0.06659
H	 0.9484452015	 1.9631837837	-0.0984249473	 0.117118
H	-0.6118337759	 1.8532587963	-0.9240637804	 0.117117
H	-0.5468111591	 1.8682554457	 0.8454933784	 0.117851
H	 0.1929506535	-0.9632443634	-2.1071435838	 0.09371
H	 1.7818394653	-0.8513372506	-1.2680485605	 0.093714
H	 0.2235703927	-4.2411793117	 0.2032129245	 0.106644
H	-1.0341968553	-3.5842391172	 2.4981460121	 0.100013
H	-1.259673265	-0.8973321338	 2.5660933952	 0.053853
H	 1.5643637013	-0.8863904347	 1.586286716	 0.063703
H	-2.0301155657	-1.1396439652	-0.3119433825	 0.063704
