23
gdb 121256	3.91115	0.8969	0.80884	1.3829	86.01	-0.2469	0.0887	0.3356	1533.9925	0.206681	-388.294412	-388.28533	-388.284386	-388.328637	34.657	
C	-0.0985912754	 1.5520050553	 0.0131773426	-0.382046
C	-0.0303433298	 0.0239076066	-0.0413713678	-0.162454
C	 0.749335251	-0.4964464448	-1.2542156705	-0.182777
C	 0.8198728586	-2.0176573085	-1.3233411442	 0.118257
O	-0.509476597	-2.5379580103	-1.4402941863	-0.270464
C	-0.4380889638	-3.8382294898	-2.0154764906	-0.09173
C	 0.7563348196	-3.8033547036	-2.9534277518	-0.05638
C	 0.8552285083	-2.5864646122	-3.8367494881	-0.288827
C	 1.569999022	-2.6125730042	-2.5080894916	-0.061851
H	 0.9029154146	 1.994789383	 0.0636882763	 0.109284
H	-0.5925866049	 1.9581280888	-0.8767118339	 0.113103
H	-0.6581618442	 1.8956375926	 0.8889265217	 0.109856
H	 0.4365981331	-0.356121536	 0.8773579161	 0.088677
H	-1.0415573015	-0.3957770219	-0.0664074476	 0.116915
H	 0.2945648446	-0.1228258717	-2.1798546631	 0.097298
H	 1.7767563364	-0.1087888054	-1.2291207192	 0.088762
H	 1.2848398141	-2.3976499137	-0.3949463842	 0.059197
H	-0.2883298	-4.609041175	-1.2413371689	 0.088715
H	-1.3977333553	-4.0282953351	-2.5084006704	 0.105151
H	 1.2171483905	-4.7366383174	-3.2545176704	 0.086577
H	 1.4652237229	-2.6657153618	-4.7295208892	 0.108659
H	-0.0229456208	-1.9572455196	-3.9412020043	 0.121108
H	 2.6529113769	-2.6375352555	-2.4768515247	 0.084972
