17
gdb 10908	3.33399	1.98025	1.45246	3.4597	69.76	-0.2304	0.0164	0.2468	906.1174	0.141456	-363.861611	-363.853504	-363.85256	-363.893882	29.505	
C	-0.129293652	 1.3520547013	-0.2671694386	-0.345676
N	-0.0476092664	 0.0129277222	 0.2777436862	-0.092642
C	-1.0496092299	-1.0521890519	 0.1908052661	-0.050498
C	-0.8965841803	-1.8227758961	-1.0889239492	-0.333868
C	 0.0582522494	-2.083526666	 0.0818805579	 0.166049
C	 0.2583861062	-3.4146630163	 0.7418409635	-0.496147
C	 1.0127480948	-0.8857697324	 0.1177985724	 0.364092
O	 2.1971506291	-0.7096839433	 0.0218342177	-0.363253
H	 0.8861851589	 1.7526639086	-0.3176559308	 0.156709
H	-0.5642600347	 1.3644526506	-1.2765368531	 0.118015
H	-0.7291124607	 2.0011698736	 0.3784098967	 0.127922
H	-1.9196824584	-1.0598338511	 0.8348494405	 0.112012
H	-1.6131192466	-2.6204426537	-1.2695715992	 0.120444
H	-0.5508260728	-1.3186011181	-1.9870653364	 0.124228
H	-0.6557539767	-4.0156752632	 0.7074077678	 0.120442
H	 1.048906704	-3.9806785612	 0.2379984174	 0.139729
H	 0.5495831161	-3.2982752328	 1.7907093212	 0.132444
