19
gdb 8556	2.83157	2.63003	1.66956	1.9698	75.09	-0.215	0.0789	0.2939	847.4804	0.165721	-327.859178	-327.851687	-327.850743	-327.890297	29.543	
C	-0.0394096346	 1.4837344446	 0.0405939796	-0.510177
C	 0.0607684902	-0.0111369302	-0.0265952755	 0.277076
C	 0.0246321719	-0.896275908	-1.2636886486	-0.220823
N	-0.2827828292	-2.0886179874	-0.3821810498	-0.168516
C	 1.0148645532	-2.2172006483	 0.3877629842	-0.220823
C	 0.7208737309	-0.8911328715	 1.0736040636	 0.277021
C	 1.3340194835	-0.3469271358	 2.3294159559	-0.510167
C	-0.7269179321	-1.0735155034	 0.6963359934	-0.124538
H	 0.8747514015	 1.961985788	-0.3309392432	 0.121267
H	-0.8744173174	 1.8462406374	-0.5699053257	 0.121769
H	-0.2038884961	 1.8385952597	 1.0627086255	 0.120712
H	-0.8394941542	-0.6814296932	-1.9004269194	 0.101226
H	 0.9201920188	-1.0077824021	-1.8878106217	 0.090076
H	 0.94647053	-3.0638063267	 1.0783443658	 0.101247
H	 1.9091330229	-2.3272612977	-0.2384459185	 0.090047
H	 2.3715764387	-0.0332680551	 2.1634382211	 0.121266
H	 0.7858350512	 0.5196961957	 2.7117103489	 0.120708
H	 1.3398757214	-1.1053877473	 3.1206532057	 0.121756
H	-1.6613659307	-1.0936159288	 1.2409169688	 0.090873
