19
gdb 115756	3.52898	0.93269	0.78438	2.907	78.58	-0.2455	0.0539	0.2994	1467.8966	0.156476	-422.956769	-422.946965	-422.946021	-422.992535	34.579	
C	-0.0400288248	 1.4191307583	-0.2780660747	-0.239975
O	-0.1335924191	 0.1922645484	 0.4143081708	-0.235242
C	-1.322284441	-0.5027398388	 0.1594176815	 0.054519
C	-1.3959715068	-1.3380052835	-1.1407264043	-0.098317
O	-1.5079897129	-2.563069109	-0.3885970883	-0.283639
C	-1.3974086957	-1.8715901215	 0.874705052	 0.100874
C	-0.1650703826	-2.2887126874	 1.6829283718	-0.358166
C	-0.269415846	-3.6545494977	 2.1792215882	 0.290848
C	-0.3758712098	-4.7786928846	 2.5902197595	-0.430594
H	 0.9029787876	 1.8851797605	 0.0155640617	 0.134587
H	-0.0400277761	 1.2774524862	-1.3689378806	 0.112792
H	-0.8703064488	 2.0930479142	-0.0164839571	 0.110453
H	-2.1927801064	 0.1463205751	 0.3295592248	 0.076985
H	-2.2681991766	-1.169120682	-1.7831778718	 0.102546
H	-0.4815644041	-1.3031625223	-1.746769542	 0.105216
H	-2.3014332619	-2.0180723999	 1.4780302369	 0.088681
H	 0.7265816277	-2.1718928007	 1.0591722618	 0.140528
H	-0.0507232343	-1.5895335383	 2.5208940978	 0.135667
H	-0.4597991784	-5.774364077	 2.9485819621	 0.192236
