21
gdb 95811	2.24943	1.51859	1.0657	3.1904	73.64	-0.2532	0.0604	0.3136	1176.9152	0.183691	-461.380931	-461.371953	-461.371008	-461.413899	35.591	
O	-0.1869900206	 1.4258737761	 0.0881065483	-0.457738
C	 0.0044931802	 0.0102791697	 0.0315226204	 0.101369
C	 0.7839436845	-0.52184783	 1.2362030581	-0.221276
C	 0.8170275699	-2.057589255	 1.2340121703	-0.223774
C	-0.6062717867	-2.6324487749	 1.2171550783	-0.204292
C	-1.4070659233	-2.1130280078	 0.0146114279	 0.129266
O	-2.7376684328	-2.5997448476	 0.0094092332	-0.448789
C	-1.4082702806	-0.5801826804	-0.0377848251	 0.10293
O	-2.1851413646	-0.1364936405	 1.0703809748	-0.461692
H	 0.6435869984	 1.8340530864	 0.3514133682	 0.286315
H	 0.5360774825	-0.259911325	-0.8957190073	 0.069378
H	 1.8024120756	-0.1122814809	 1.2265850847	 0.081727
H	 0.2938496511	-0.1623034235	 2.1480051004	 0.109372
H	 1.3706477963	-2.4120746818	 0.3532350661	 0.095898
H	 1.3653875161	-2.42162674	 2.1087941737	 0.099893
H	-0.5899660928	-3.7260484586	 1.1840960444	 0.098184
H	-1.1322888684	-2.3425919847	 2.1341770706	 0.105036
H	-0.9463822045	-2.4843760181	-0.9101715545	 0.079569
H	-3.2186945786	-2.0580744212	 0.647665841	 0.290313
H	-1.8816908273	-0.2556942067	-0.9766288212	 0.074045
H	-2.0516515044	 0.8178719445	 1.1217180776	 0.294265
