20
gdb 16342	2.92787	1.88138	1.43518	0.8976	74.95	-0.2412	0.0841	0.3253	970.9918	0.176127	-348.967196	-348.958731	-348.957787	-348.999883	31.878	
C	 0.0522318146	 1.3217245947	 0.3265035992	-0.256104
O	-0.020437715	 0.0213192074	-0.2324619804	-0.281883
C	-1.2655729449	-0.565143664	-0.1320364466	 0.442264
C	-1.7656541535	-1.1408367681	 1.1667899514	-0.343089
C	-1.5596413001	-2.0493801055	-0.0267126292	-0.13517
C	-2.7402885753	-1.8982388081	-0.9933314392	-0.247263
C	-2.3982870148	-0.3735065726	-1.1600560696	-0.035407
C	-3.4886752758	 0.6630920774	-0.9169594886	-0.415667
H	 1.0921135605	 1.6467513672	 0.2443535741	 0.124975
H	-0.5843448628	 2.0368720627	-0.2130584172	 0.111238
H	-0.2436809619	 1.3210301977	 1.3848558861	 0.109722
H	-0.9975702754	-1.2210194762	 1.9295867131	 0.113508
H	-2.7647831205	-0.9438232128	 1.549478724	 0.101217
H	-0.8652067545	-2.8793569236	 0.0067363058	 0.092709
H	-2.6320939207	-2.4620647838	-1.922183927	 0.10315
H	-3.7240342979	-2.1161918054	-0.56282337	 0.092605
H	-1.9443322338	-0.2148294885	-2.1436371957	 0.07996
H	-3.9328522317	 0.554856387	 0.0781700063	 0.114509
H	-3.0976693153	 1.6832107992	-0.9983812574	 0.114292
H	-4.2957928513	 0.5603590153	-1.6510399292	 0.114437
