12
gdb 21343	6.29057	1.35313	1.20312	2.9891	60.2	-0.2777	-0.0238	0.2539	930.5029	0.085655	-373.70206	-373.695456	-373.694512	-373.734047	22.872	
N	-0.2573184695	-0.9011109269	-0.8528352318	-0.286691
C	-0.0932124607	 0.0932194862	-0.2898441327	 0.271253
C	 0.0914160623	 1.3715531968	 0.4032397883	-0.274561
N	 1.3850160874	 1.9697011529	 0.1356809255	 0.063778
C	 1.9836634831	 2.2677674199	-1.0441488313	-0.09052
C	 3.1649332723	 2.8597391158	-0.6735975793	-0.055304
N	 3.2284057603	 2.8968161042	 0.687746017	-0.179675
N	 2.1548595293	 2.3588536338	 1.1795240363	-0.132621
H	-0.7166190323	 2.0528857769	 0.1139326378	 0.18133
H	 0.0394226231	 1.2252751494	 1.485287151	 0.199975
H	 1.5414439147	 2.0305636493	-1.9970261505	 0.165085
H	 3.95822698	 3.2498964516	-1.2897468604	 0.137949
