18
gdb 8902	3.67697	1.16366	1.06154	2.2396	69.66	-0.256	0.0459	0.3019	1162.9916	0.150937	-384.897766	-384.888216	-384.887271	-384.932007	34.753	
C	-0.1317000113	 1.6237057848	 0.0379094885	-0.418435
C	-0.0214139313	 0.0844815524	-0.0256924287	-0.180531
C	-1.3509234887	-0.5226593824	 0.0028966582	 0.32877
C	-2.4484657443	-1.011729581	 0.0239043269	-0.456189
C	 0.7900531109	-0.4324674233	-1.2437039933	 0.09914
O	 0.2929719335	 0.048149102	-2.491357537	-0.438759
C	 2.2930514796	-0.1449697038	-1.1551896129	-0.07746
O	 2.9573546897	-0.6565944861	-2.2898330111	-0.424885
H	 0.8534332586	 2.0976906802	 0.064113041	 0.12375
H	-0.6915106763	 2.0121381635	-0.8188279823	 0.127382
H	-0.6758534979	 1.9223847243	 0.93664223	 0.139009
H	 0.5233099493	-0.2517057061	 0.8680808703	 0.112166
H	-3.4145687843	-1.4519998759	 0.041589805	 0.196716
H	 0.6630264983	-1.5179533917	-1.3020032931	 0.111857
H	 0.3130129892	 1.0119540986	-2.4704689244	 0.286025
H	 2.4657144184	 0.9408974726	-1.0494704603	 0.076839
H	 2.7224814132	-0.6318162842	-0.2722360822	 0.108581
H	 2.3729150336	-0.4666356337	-3.0356913042	 0.286024
