19
gdb 58735	3.10546	1.31868	1.19861	2.3789	74.13	-0.2282	0.0647	0.2928	1111.8594	0.158605	-422.952923	-422.944646	-422.943702	-422.985943	31.999	
C	 0.1818375059	 1.2643322218	 1.0055564577	-0.40415
C	-0.1483815469	 0.3460972739	-0.1730029317	-0.05522
O	 0.8753500898	-0.6228717375	-0.3887485975	-0.421327
C	-1.4731470837	-0.3441156362	-0.0167258712	 0.336835
C	-1.903087094	-1.6056031532	 0.7442728933	-0.18365
C	-3.0624670942	-0.8695499922	 1.4145007991	-0.230944
C	-2.9822938027	 0.0910823972	 0.2004718743	-0.003464
O	-3.4024090491	-0.7334827856	-0.9211368844	-0.294652
C	-2.1622893625	-1.4252106617	-0.7672465244	 0.0313
H	 1.1608519923	 1.7278139756	 0.8573204342	 0.125922
H	-0.5666549215	 2.0564464633	 1.1106638762	 0.120024
H	 0.2037188661	 0.6961009771	 1.943305658	 0.109956
H	-0.1605391974	 0.940933723	-1.0951131769	 0.099473
H	 0.9716968491	-1.1220704784	 0.4305787434	 0.279423
H	-1.2861033418	-2.4070380404	 1.1318566495	 0.085709
H	-4.0156940767	-1.3883945485	 1.5557832418	 0.102255
H	-2.7476027501	-0.3808501902	 2.3401454504	 0.101956
H	-3.4143204572	 1.0899547549	 0.1944262199	 0.086471
H	-1.8266574351	-2.1012709527	-1.5418319618	 0.114083
