21
gdb 99975	2.70655	1.10299	0.96133	0.3784	80.04	-0.2636	0.0305	0.294	1310.8929	0.178001	-424.185144	-424.173931	-424.172987	-424.22064	41.357	
C	-0.0719968881	 1.5835552297	 0.1081484868	-0.431997
C	-0.0173805473	 0.0481919645	 0.057357356	 0.243279
C	 0.7247784006	-0.5044989948	 1.2855798047	-0.423937
C	-1.4460897751	-0.5239873126	 0.019596275	-0.100172
O	-2.129460189	-0.1193128945	 1.1989882595	-0.430288
C	 0.6965643051	-0.4375134598	-1.2421363883	-0.066974
O	 0.0017716214	-0.0483909212	-2.428143982	-0.430922
C	 2.100959926	-0.0227370081	-1.3055025019	 0.294488
C	 3.2394593171	 0.3547397395	-1.3925397702	-0.440763
H	 0.9340396707	 2.0117654015	 0.1434933071	 0.11868
H	-0.5904378567	 1.9908443211	-0.7670539045	 0.100301
H	-0.6219457988	 1.9076464813	 0.9937717302	 0.136399
H	 0.1662781572	-0.2685045174	 2.1938222865	 0.135702
H	 0.8256799628	-1.5948278966	 1.2280682766	 0.105121
H	 1.7275092422	-0.0773143432	 1.3672097863	 0.1217
H	-1.9568022627	-0.1636138254	-0.8821131592	 0.103153
H	-1.3933367983	-1.6240745547	-0.0430572721	 0.077765
H	-3.0470063739	-0.3939528665	 1.1208410739	 0.28813
H	 0.6590590492	-1.5350024144	-1.2473621795	 0.11245
H	 0.2559253729	 0.8584784614	-2.6286724727	 0.288431
H	 4.2506421947	 0.6713015202	-1.4682708222	 0.199452
