19
gdb 110620	3.02853	1.34684	1.18448	2.2632	74.99	-0.2385	0.0787	0.3172	1125.6954	0.157524	-422.958526	-422.949906	-422.948962	-422.991808	32.468	
C	-0.3866034769	 1.0770289271	 0.124984383	-0.237586
O	 0.5309676399	 0.0318172555	-0.1305235181	-0.237685
C	 0.942471481	-0.6223693019	 1.0269318952	 0.116272
C	 0.131108144	-1.7023102918	 1.706184252	-0.155602
C	-0.5885564379	-2.5468990155	 0.6827535153	-0.046619
O	-0.0207957319	-3.8698691331	 0.6633838827	-0.296907
C	 0.6591132409	-2.8256719598	-0.054236026	 0.433418
C	 0.9321620051	-3.0083214019	-1.5112850375	-0.501856
C	 1.4646320197	-2.0141694698	 0.9488157673	-0.207309
H	 0.0501385551	 1.8474977347	 0.7784232544	 0.108035
H	-0.6360320973	 1.529146174	-0.8373453201	 0.129773
H	-1.3054243491	 0.7025521132	 0.5984623532	 0.111688
H	 1.4734884624	 0.0283502787	 1.7276227663	 0.090098
H	-0.0347294357	-1.718158021	 2.7770324783	 0.097315
H	-1.5994818919	-2.4455938102	 0.3066231354	 0.100951
H	 0.0830277223	-3.4934471468	-1.9994370581	 0.129807
H	 1.1095007624	-2.0364102785	-1.9798832794	 0.142971
H	 1.8175859621	-3.6343148158	-1.6693448093	 0.124809
H	 2.416652506	-2.306348407	 1.3760822352	 0.098427
