19
gdb 46665	2.73497	1.75176	1.31123	2.8906	79.93	-0.2283	-0.0172	0.2111	1008.8325	0.161663	-385.848262	-385.841273	-385.840329	-385.879699	28.753	
O	 0.0198132989	 0.0225216402	 0.2350322108	-0.312815
C	 0.0122507824	 1.2152654147	 0.0786037511	 0.271842
C	-1.2667430497	 2.1069942086	 0.0043546347	-0.306097
C	-0.8298886988	 3.5920087656	-0.2114398823	-0.303149
C	 0.5815291155	 3.4346145457	-0.8057401057	 0.021761
C	 1.9885523359	 3.8577761631	-0.2530106215	-0.088582
C	 1.6357795992	 3.1228548831	 1.0644694006	-0.25232
C	 1.1475227729	 2.1845527311	-0.1043777066	 0.237407
C	 2.5155889093	 2.4726712154	-0.7873837504	-0.306807
H	-1.8490457393	 1.7378031998	-0.8481802848	 0.1363
H	-1.8868727409	 1.9473206034	 0.8910318105	 0.12985
H	-1.5087854999	 4.1180861925	-0.8868331429	 0.103078
H	-0.8404053535	 4.1394011133	 0.7336342433	 0.11286
H	 0.5449872312	 3.3546148711	-1.898269459	 0.070483
H	 2.4924962874	 4.8205462811	-0.3571624943	 0.075931
H	 2.470528198	 2.7332159767	 1.651637014	 0.102493
H	 0.8811932305	 3.5700205864	 1.7108560154	 0.102601
H	 2.5473878194	 2.3437285959	-1.8721169133	 0.101674
H	 3.4111079414	 2.0762719722	-0.3043334795	 0.103491
