20
gdb 38398	3.97637	1.26907	1.25406	1.6883	82.03	-0.2276	0.0798	0.3075	1091.2581	0.172587	-365.930793	-365.923532	-365.922588	-365.962311	29.934	
C	 0.0320633558	 1.4601137889	 0.1509022346	-0.284747
C	 1.3421112859	 0.7586237877	-0.0609731506	-0.037563
C	 1.7984406886	 0.1023892913	 1.2470279854	-0.322733
C	 0.466330747	-0.7165040299	 1.2825410601	 0.37219
C	 0.4590888153	-2.2670669887	 1.3154955454	-0.2511
N	-0.5689872496	-2.307596265	 2.4156242347	-0.127463
C	 0.0598457438	-1.6212356935	 3.556696668	-0.242877
C	-0.489112233	-0.7877256473	 2.4684137778	-0.101959
C	 0.0348490077	-0.0362139797	-0.0182234327	-0.11879
H	-0.2028620704	 1.9079655998	 1.11465412	 0.105703
H	-0.3455200551	 2.0183009154	-0.6998624768	 0.111949
H	 1.9763709558	 0.9746916348	-0.911613673	 0.08614
H	 2.6656119858	-0.5519638408	 1.1239534479	 0.102675
H	 1.9850665853	 0.7784762226	 2.0889813479	 0.094208
H	 0.0555188153	-2.7209926831	 0.4068929686	 0.111768
H	 1.4007620382	-2.7640238499	 1.5772396288	 0.097489
H	-0.5199580976	-1.7010216617	 4.4713594093	 0.119323
H	 1.1372853659	-1.7002981584	 3.6941254896	 0.108301
H	-1.3781894324	-0.176169041	 2.5926803761	 0.091937
H	-0.5059516522	-0.5224690015	-0.822500181	 0.085549
