14
gdb 131576	7.25452	0.66152	0.60854	1.4503	76.87	-0.2346	-0.012	0.2226	1721.3442	0.102079	-432.847688	-432.839299	-432.838355	-432.883034	28.666	
O	-0.0293960409	 1.4428940746	 0.0110192714	-0.406157
C	-0.0356585809	 0.0221598181	 0.0022732023	-0.231168
C	-1.4091652659	-0.4627947179	 0.0125053116	 0.313434
C	-2.5320998665	-0.8968912523	 0.0206457991	-0.053097
C	-3.8489541897	-1.4230640791	 0.0301801664	 0.156807
N	-4.9315381781	-0.645472824	 0.0399287324	-0.264904
N	-5.9289748762	-1.5545651639	 0.046348666	-0.176976
C	-5.4299022978	-2.8079801331	 0.0404027456	-0.011925
N	-4.1154593653	-2.7709851363	 0.0301192124	-0.297762
H	 0.8908772265	 1.7252238659	 0.0034289982	 0.291908
H	 0.4742943291	-0.3773157057	-0.8900119687	 0.122722
H	 0.4913308095	-0.3883017079	 0.8795433495	 0.122741
H	-6.8865214171	-1.2430075556	 0.0544285137	 0.286634
H	-6.0485255567	-3.6928153129	 0.04384225	 0.147743
