18
gdb 32746	2.79262	1.29093	0.97685	1.9689	74.78	-0.19	0.035	0.225	1227.2554	0.149102	-435.296625	-435.28771	-435.286766	-435.330825	33.067	
C	 1.0645557751	 1.0325185521	 0.449814742	-0.371648
C	-0.0100290127	 0.0758635358	-0.0745935282	-0.152954
N	-0.5524760989	-0.8692862864	 0.9178425121	-0.406309
C	 0.2859053067	-1.9129065391	 1.3321781387	 0.191001
C	 1.2898356366	-2.0607315007	 2.2622816057	 0.299189
O	 1.7758384898	-1.0927478673	 3.0789048739	-0.447997
N	 1.7658376981	-3.3366469228	 2.3026648754	-0.339846
C	 1.0668247344	-3.9942786978	 1.3935025312	 0.004431
N	 0.1640098812	-3.1912265051	 0.7871391526	-0.262165
H	 1.9147270656	 0.4836430208	 0.8628614118	 0.141991
H	 1.4266830898	 1.6845328943	-0.3528002614	 0.107383
H	 0.6630347885	 1.6709393276	 1.2447893957	 0.110846
H	-0.8554587223	 0.6473786304	-0.476743059	 0.097332
H	 0.3879733458	-0.5201162945	-0.9032162443	 0.104638
H	-0.9300050366	-0.3683971208	 1.7142237834	 0.231876
H	 2.4527699874	-1.5167258856	 3.6200724878	 0.298675
H	 1.1881730756	-5.0366858911	 1.142072728	 0.129204
H	-0.516772184	-3.4437821198	 0.0902640645	 0.264353
