16
gdb 68695	2.01736	1.81546	1.14408	2.7307	78.56	-0.2463	-0.027	0.2193	1087.7146	0.122086	-400.696872	-400.688317	-400.687373	-400.729923	32.261	
C	 0.0019124282	 1.5256224624	 0.0536973801	-0.476209
C	-0.0563542301	 0.0302464895	 0.0558153309	 0.256163
C	-1.3126401238	-0.8455950172	-0.0959270025	-0.424103
C	-0.6933409265	-1.7835937714	 0.9770838495	 0.358125
O	-1.1232334695	-2.7021102788	 1.6081107822	-0.290276
C	 0.5704747175	-0.9422314161	 1.0806995429	 0.004526
N	 1.1135024165	-0.7405042465	-0.2888539193	-0.372217
C	 1.3934485762	-0.7340847959	 2.2196770392	 0.238672
C	 2.0524071415	-0.5658298622	 3.2113870792	-0.409752
H	 0.9856308261	 1.8649072321	 0.3860626899	 0.149159
H	-0.1710675995	 1.9146076542	-0.9560252633	 0.133119
H	-0.761902074	 1.9464671479	 0.7143994423	 0.130702
H	-2.2364452283	-0.4046977481	 0.2920424996	 0.139587
H	-1.5007599979	-1.2463345994	-1.096812329	 0.123877
H	 0.9142457756	-1.5329755859	-0.8980200756	 0.24222
H	 2.6413087078	-0.4207641048	 4.0831415339	 0.196408
