25
gdb 100969	2.31717	1.03987	0.96971	1.2589	89.05	-0.2482	0.0744	0.3226	1457.8653	0.226145	-389.488589	-389.477355	-389.476411	-389.524441	42.075	
C	-2.5538426686	 0.5668983317	-2.8351148129	-0.394034
C	-1.8991124157	-0.6560294849	-2.1848511918	-0.18624
C	-0.3766923102	-0.7701001109	-2.4141838979	-0.011077
C	 0.4093013153	 0.3543666909	-1.7222031297	-0.400723
C	 0.1279119996	-2.133900693	-1.9535234397	 0.415086
O	-0.0098929338	-2.3570131268	-0.5664830402	-0.480215
C	-0.0153132142	-3.3491074685	-2.8417065322	-0.366959
C	 1.3589845863	-2.7833870671	-2.5218545022	-0.037471
C	 2.2298824228	-2.1734003828	-3.5976313522	-0.417916
H	-2.1723019764	 1.5050473461	-2.4212196269	 0.120934
H	-2.3728449174	 0.5826898944	-3.9159048878	 0.113159
H	-3.6375206209	 0.5581127387	-2.6809862233	 0.11129
H	-2.0995749113	-0.6390822415	-1.1048191489	 0.089484
H	-2.377039836	-1.5635343384	-2.5763552211	 0.093383
H	-0.2061890211	-0.7025134212	-3.4964603764	 0.065459
H	 1.4757152778	 0.2866428353	-1.9568331863	 0.115037
H	 0.062515128	 1.3435503372	-2.0335646495	 0.106651
H	 0.3034968356	 0.2758544446	-0.6361516482	 0.126183
H	-0.9443523977	-2.5050628953	-0.3852073007	 0.280508
H	-0.3022720256	-4.2849075197	-2.3743716634	 0.106441
H	-0.3983551896	-3.2058004837	-3.8481590163	 0.102936
H	 1.9050984765	-3.3509045241	-1.7732602056	 0.094584
H	 1.6448141212	-1.6164661533	-4.3353852966	 0.116108
H	 2.9728992711	-1.4882405611	-3.174844757	 0.120503
H	 2.7729340245	-2.9561843165	-4.138893333	 0.116888
