22
gdb 56248	5.25315	0.59095	0.55624	2.4698	84.77	-0.2621	0.0371	0.2992	2039.3262	0.193049	-404.348539	-404.338294	-404.33735	-404.385138	36.642	
C	-0.1932322243	 1.4067014514	-0.0336359839	-0.440737
C	 0.072123192	-0.0680379946	 0.0774563281	 0.408719
N	 1.2365424959	-0.5252073105	 0.2893652404	-0.521544
O	-1.0901620883	-0.7602315744	-0.0820588061	-0.241243
C	-1.0445795212	-2.1830608866	-0.0114182971	-0.078179
C	-2.4597792631	-2.7071418943	-0.2246792078	-0.232583
C	-2.521013318	-4.2185639816	-0.1827667225	 0.028479
C	-2.6313524442	-4.9435857557	 1.1376595092	-0.256238
C	-3.8025270683	-4.9191812265	 0.1870144961	-0.275914
H	 0.7384099748	 1.9563626927	 0.0916235538	 0.14589
H	-0.6328060482	 1.6391226097	-1.0086047297	 0.136659
H	-0.9135610864	 1.7197323584	 0.7286253277	 0.136517
H	 1.2575194748	-1.5427191165	 0.3398322759	 0.214536
H	-0.3655769955	-2.5727262472	-0.7832464881	 0.107235
H	-0.6577008987	-2.4994977017	 0.9668001342	 0.112718
H	-3.111814989	-2.2847178041	 0.5490550871	 0.106234
H	-2.8315053342	-2.3343749731	-1.186763071	 0.11128
H	-1.9182799579	-4.7129201633	-0.9413195433	 0.084264
H	-2.0898613562	-5.8740239587	 1.2669598804	 0.113724
H	-2.7018508316	-4.3436216684	 2.0395037023	 0.112508
H	-4.6563217725	-4.30386421	 0.4513861405	 0.113596
H	-4.0604371999	-5.8323813951	-0.3374833362	 0.114078
