14
gdb 93622	2.66704	1.39941	1.11256	3.696	62.03	-0.2829	-0.068	0.2148	1068.9531	0.100015	-473.833936	-473.825771	-473.824827	-473.867326	29.174	
O	 0.1689207715	 1.3900966624	 0.2624796212	-0.427773
C	-0.0610419037	 0.0407476991	-0.0092719961	 0.044276
C	-1.4947854876	-0.3035389346	-0.4233692848	-0.131627
O	-1.3554797793	-1.561473382	-1.1076912689	-0.243178
C	-0.1962594421	-1.5085364742	-1.9153520448	-0.143282
C	-0.4931789454	-1.1197335727	-3.3040874897	 0.299795
N	-0.7389928766	-0.803388273	-4.387495623	-0.308854
C	 0.7115544463	-0.4515282567	-1.231208714	 0.344486
O	 1.7686422547	-0.0325241962	-1.6061372545	-0.29292
H	 1.0485124356	 1.6039028651	-0.0795253516	 0.30272
H	 0.2231052704	-0.6084681644	 0.8384893115	 0.115046
H	-2.179360232	-0.4682085048	 0.4081086151	 0.140385
H	-1.8973713741	 0.4763100874	-1.0835938233	 0.134555
H	 0.2866286724	-2.4920627255	-1.9158645172	 0.16637
