17
gdb 114721	2.60822	1.54572	1.2189	2.5438	68.73	-0.2306	-0.042	0.1886	1061.3175	0.13505	-458.949625	-458.94134	-458.940395	-458.983	30.209	
C	-0.5451813977	 0.9268885953	 0.0983140721	-0.243542
O	 0.0485629834	-0.349968069	-0.0594943172	-0.241487
C	 0.8909979053	-0.4592729903	-1.1888324676	 0.017287
C	 1.6981355643	-1.7708993591	-1.1080833574	-0.279849
C	 1.0146459922	-2.7270330738	-2.0725194408	 0.042336
O	-0.3796411875	-2.8515564959	-1.8269475119	-0.233271
C	 0.0401255159	-2.0109780291	-2.9191911884	-0.076408
C	 0.0623554523	-0.5650419403	-2.501456543	 0.404433
O	-0.4389417038	 0.3591780923	-3.0903298059	-0.321502
H	 0.2211530314	 1.7126417905	 0.1859978215	 0.105625
H	-1.2081787957	 1.1829145447	-0.7364263168	 0.135464
H	-1.1255695783	 0.8878335769	 1.0227491262	 0.129358
H	 1.542363183	 0.424338135	-1.2633215018	 0.087371
H	 2.7364757846	-1.6097897227	-1.4151404269	 0.113533
H	 1.6965585981	-2.1553947286	-0.0851859381	 0.136404
H	 1.5155286918	-3.6252070713	-2.4246222934	 0.108314
H	-0.2685059394	-2.3086439347	-3.9162616505	 0.115934
