23
gdb 102541	1.76082	1.44515	1.02252	2.1057	81.23	-0.2582	0.0709	0.3291	1303.5415	0.204208	-425.398779	-425.388233	-425.387289	-425.434087	39.565	
C	 0.1099541769	 1.2096202031	 0.9465276947	-0.464897
C	 0.0491545957	 0.0005452469	 0.0253302329	 0.377059
C	 0.9350746326	 0.03998117	-1.1949861565	-0.293963
C	 1.3178122912	-0.840372766	-0.0314520878	-0.339279
C	-1.3521957765	-0.6376411017	-0.0712607817	-0.093738
C	-2.2026862609	-0.0250681076	-1.1888883032	-0.081469
O	-2.3163541414	 1.3751553581	-0.9790115916	-0.416475
C	-1.3439513435	-2.1674913591	-0.2055455883	-0.078466
O	-0.9303847328	-2.8234685564	 0.9797384889	-0.429184
H	 1.1132799667	 1.6483328619	 0.9566242452	 0.101749
H	-0.6000613589	 1.9725348279	 0.6201843816	 0.144854
H	-0.1407430583	 0.9285482181	 1.976580866	 0.10866
H	 0.598426208	-0.4604876483	-2.0974336208	 0.106934
H	 1.5110955658	 0.9401799711	-1.3815294941	 0.110934
H	 2.1454564221	-0.5318499626	 0.599110513	 0.109607
H	 1.2674710952	-1.9124790015	-0.1907372016	 0.115105
H	-1.8700980813	-0.4273812158	 0.8736572497	 0.089661
H	-1.7439370586	-0.2388926311	-2.1672407254	 0.085251
H	-3.1963520236	-0.5009873063	-1.1822039658	 0.086027
H	-2.7914505613	 1.7536532698	-1.7241478813	 0.287536
H	-2.3610353221	-2.5248236116	-0.399197734	 0.10321
H	-0.7319195009	-2.4757157876	-1.0702618648	 0.082925
H	-0.1020059041	-2.4189104713	 1.2566381849	 0.287957
