16
gdb 42363	4.90397	0.8174	0.76931	5.1975	69.83	-0.2672	-0.0469	0.2204	1439.6456	0.122967	-437.883659	-437.87472	-437.873775	-437.919425	30.297	
O	 0.0803538901	-0.1349625618	 0.46943903	-0.263108
C	-0.0074601968	 1.0389383975	 0.2212265266	 0.374917
C	 1.2297396534	 1.909688472	-0.0761447778	-0.464627
C	 2.4701796006	 1.1544419418	-0.1903863604	 0.288706
N	 3.4629196369	 0.5738177876	-0.2888997553	-0.289663
C	-1.3243350741	 1.7812033559	 0.1440503409	-0.156009
C	-1.9816916643	 1.7977240273	-1.2724288539	-0.072991
O	-3.1250095445	 1.0791027841	-0.7961667402	-0.260521
C	-2.5861953712	 0.9928581996	 0.5416006916	-0.088223
H	 1.0573433235	 2.483313751	-0.9953902225	 0.174843
H	 1.323298939	 2.6531210389	 0.7262162734	 0.179454
H	-1.2309964865	 2.7757397976	 0.5865771527	 0.100101
H	-2.2386458043	 2.7939637226	-1.6515629059	 0.113791
H	-1.4365700969	 1.2457182971	-2.0492805303	 0.116884
H	-2.3857945752	-0.040088111	 0.8413276357	 0.137059
H	-3.2345071896	 1.4814268498	 1.2768376754	 0.109388
