22
gdb 116784	2.91336	0.82292	0.73569	2.9674	86.	-0.2413	0.0267	0.268	1655.2246	0.192237	-404.32639	-404.315767	-404.314823	-404.363317	37.291	
C	-0.9710629888	 1.0971043758	-0.5084498479	-0.249935
O	-0.8621889822	 0.0486795482	 0.4435755416	-0.196476
C	-1.3151024907	-1.157236972	 0.0312529372	 0.139063
N	-1.2510056316	-2.1475907152	 0.8016924965	-0.237896
C	-1.7357740277	-3.4487916101	 0.3656204087	-0.151863
C	-2.226114127	-3.6025317259	-1.0624270643	-0.018411
C	-3.1980778306	-4.7063812163	-1.4077823097	-0.32303
C	-3.6393406424	-3.2667186138	-1.5008348031	 0.022583
C	-4.6858528867	-2.7093043472	-0.5596563242	-0.403711
H	-0.5796260464	 1.9937561339	-0.0260988542	 0.144009
H	-0.3794548286	 0.8893348799	-1.4090597508	 0.123243
H	-2.0145318342	 1.27459656	-0.7982239457	 0.123081
H	-1.7208858333	-1.1588457408	-0.98851603	 0.07808
H	-0.9196039812	-4.1648020296	 0.5346930987	 0.112028
H	-2.5239257385	-3.7525451129	 1.0662443281	 0.106925
H	-1.4566998469	-3.4143748297	-1.8084757476	 0.082269
H	-3.0435636639	-5.2738450793	-2.3189561435	 0.108664
H	-3.5928953045	-5.2941782289	-0.5835728767	 0.109899
H	-3.7137957575	-2.8735308638	-2.512424209	 0.078494
H	-4.6055951584	-3.1390514566	 0.442674617	 0.122107
H	-4.5999072867	-1.6215708212	-0.4596542022	 0.113763
H	-5.6934326023	-2.9304986748	-0.9288776589	 0.117116
