17
gdb 33967	2.33093	1.74153	1.20799	2.0179	80.32	-0.2351	0.0329	0.268	1055.3741	0.13438	-384.603539	-384.595536	-384.594592	-384.635875	31.405	
C	-0.0216719123	-1.2058535746	-0.0177915716	-0.421367
C	-0.0027610753	-0.0027230367	 0.0085189683	 0.196753
C	-0.0010025306	 1.4170925871	 0.0484844226	 0.120045
C	 0.2964795534	 2.295867905	-1.1563630667	-0.322334
C	 1.1706939435	 2.4360935544	 0.0470344767	-0.112463
C	 0.46853703	 3.2808586753	 1.1213902902	-0.324008
C	-0.702644266	 2.2814210591	 1.0933169818	 0.387727
C	-2.1299304968	 2.4211030265	 1.3833792475	-0.272816
O	-1.2312119842	 1.7401192615	 2.2798545435	-0.2664
H	-0.0327338888	-2.2672859168	-0.031346296	 0.186477
H	 0.7244063571	 1.7651984028	-1.9997258946	 0.132631
H	-0.4024931946	 3.0847568567	-1.4251946027	 0.113867
H	 2.228230477	 2.2086231455	 0.0215042776	 0.109603
H	 0.9673080574	 3.2406615853	 2.0924344767	 0.128455
H	 0.2595779732	 4.3233567141	 0.8614590681	 0.10523
H	-2.521725906	 3.3679716997	 1.7523585354	 0.116283
H	-2.849083467	 1.780421005	 0.8753541633	 0.122315
