15
gdb 125693	3.07371	1.40195	1.0176	2.9693	69.38	-0.2388	-0.0124	0.2264	1109.9885	0.114466	-450.161739	-450.153578	-450.152634	-450.19503	29.134	
C	-0.9180648404	 0.9991703549	 0.5669350037	-0.505856
C	-0.2309240167	-0.2767830743	 0.2135205101	 0.270176
N	-0.1748400071	-0.7168741933	-1.0475170063	-0.246676
N	 0.5414854704	-1.8279507122	-0.9742783121	-0.0801
N	 0.9644323898	-2.180916239	 0.2318141438	-0.282016
C	 0.4820811246	-1.2095784518	 1.0064328521	 0.316045
N	 0.7847007695	-1.2240235562	 2.3729408388	-0.39383
C	-0.0505317592	-0.8614814035	 3.3960683317	 0.139443
O	-1.1574740549	-0.3901426006	 3.2767109849	-0.300146
H	-0.2157750349	 1.7114322119	 1.0142128223	 0.128782
H	-1.3357058466	 1.447506461	-0.3365349928	 0.134856
H	-1.7074439431	 0.8277071693	 1.3006347846	 0.172102
H	 0.7561159298	-2.3769769705	-1.7899431734	 0.294744
H	 1.6141964585	-1.7437368965	 2.6208809834	 0.265685
H	 0.4286851106	-1.0445286692	 4.3769919191	 0.086789
