20
gdb 79013	3.69687	1.72128	1.55689	1.6177	80.58	-0.2312	0.0981	0.3293	935.7776	0.174893	-365.992752	-365.986235	-365.98529	-366.023214	27.985	
C	-0.1260001785	 1.5962991454	 0.0574081327	-0.428118
C	 0.0406521612	 0.0874024501	-0.0182031245	 0.044744
C	 0.8577085851	-0.5923720699	-1.1677579	-0.085745
C	 2.2473008581	 0.026995856	-0.9885248067	-0.044868
C	 3.1653048031	-0.9494437123	-0.3403339316	-0.038355
C	 2.5020909472	-2.3098996539	-0.322172666	-0.261776
C	 1.0764977823	-1.8031961824	-0.1900160734	-0.04087
C	 1.0935141392	-0.6477070563	 0.8546811518	-0.018446
N	 2.3947533981	 0.0149620849	 0.4982306651	-0.131471
H	 0.8383753535	 2.1087369284	 0.023790901	 0.135303
H	-0.7421873847	 1.9640023331	-0.7708751282	 0.109456
H	-0.6233084733	 1.8840091221	 0.9902760646	 0.113782
H	-0.9299975931	-0.4107915956	 0.0851006485	 0.068495
H	 0.4676081419	-0.7098737608	-2.1787574814	 0.060577
H	 2.5800049087	 0.9068660866	-1.5267690897	 0.088162
H	 4.2422974375	-0.8228214541	-0.3380360842	 0.088029
H	 2.6803321045	-2.8717175604	-1.2454484911	 0.10331
H	 2.8153093486	-2.9250099222	 0.5286960344	 0.103674
H	 0.2605211125	-2.5191258501	-0.1219269145	 0.070745
H	 0.9801751183	-0.7992495085	 1.9281747631	 0.063373
