19
gdb 57712	3.18397	0.87674	0.8628	2.7402	76.37	-0.2513	-0.0353	0.216	1414.9752	0.156137	-419.215953	-419.205613	-419.204669	-419.251799	36.875	
C	 0.3136925028	 1.5285350469	 0.2689515205	-0.406367
C	-0.1129176997	 0.0655365991	-0.0042421745	 0.095328
C	 0.2573822472	-0.8358648938	 1.1902605129	-0.407671
N	-1.5425292973	-0.0846196483	-0.341671368	-0.312296
C	-2.5149498756	 0.211466059	 0.7014477713	-0.265179
C	-2.8705803858	-1.0210981814	 1.5263049767	 0.174838
O	-3.1916353428	-0.9870554984	 2.6844904489	-0.238222
C	 0.6301297578	-0.4096803675	-1.1921384924	 0.277844
N	 1.2207457474	-0.754475189	-2.1231949458	-0.334259
H	 1.3891258221	 1.5928742831	 0.455529108	 0.139982
H	 0.0772718953	 2.1658644527	-0.5876625663	 0.129409
H	-0.2066772707	 1.9155054601	 1.1492423792	 0.130557
H	-0.2359499287	-0.4859573559	 2.1009084524	 0.14253
H	-0.0402145882	-1.8690914725	 0.999005831	 0.145198
H	 1.3358973545	-0.808949599	 1.3604063037	 0.140641
H	-1.7421625878	 0.4467901835	-1.1795843708	 0.237492
H	-2.2521935552	 1.0276562359	 1.3890988455	 0.120572
H	-3.4484894673	 0.5099800217	 0.2057116208	 0.13877
H	-2.826289618	-1.9693410862	 0.944959107	 0.090835
