14
gdb 2596	3.00066	2.85206	1.72898	1.6569	59.82	-0.2538	0.033	0.2868	737.6976	0.112226	-324.503356	-324.495969	-324.495025	-324.534751	26.955	
O	 0.1154799558	 1.3468761178	 0.3302408771	-0.413807
C	-0.0088534723	 0.0366838096	-0.1840988289	-0.126846
C	-1.4186925685	-0.5191267979	-0.0318360785	 0.078967
C	-1.5823800217	-1.975255608	 0.2603597374	-0.265415
N	-1.8611460007	-0.9847117149	 1.3022717918	-0.325297
C	-2.4054119256	 0.1991838402	-0.803150384	 0.317248
C	-3.1678836592	 0.8435849547	-1.4741112116	-0.450806
H	-0.5322566958	 1.8967088695	-0.1265254924	 0.291618
H	 0.2868845717	-0.0139377861	-1.2433876451	 0.101477
H	 0.6884715746	-0.5852608807	 0.3883340187	 0.101949
H	-2.45432744	-2.4980513944	-0.1197704627	 0.131353
H	-0.6771428844	-2.5753332714	 0.320237694	 0.117406
H	-1.0785966552	-0.9101473792	 1.9491798433	 0.241173
H	-3.8669184188	 1.3909247408	-2.057171079	 0.200981
