10
gdb 128870	10.27879	0.68839	0.64518	5.362	76.84	-0.291	-0.0884	0.2027	1537.8268	0.056318	-426.611455	-426.604531	-426.603587	-426.643745	23.817	
N	 0.0764232389	-3.6926585714	-0.0188878044	-0.32065
C	 0.0472668018	-2.5313886852	-0.0119631095	 0.183339
C	 0.0104332949	-1.1678895327	-0.0038361232	 0.273111
C	-0.0313946982	 0.0393120424	 0.0033906923	 0.033895
C	-0.0515289151	 1.4492337224	 0.0114780254	 0.167979
N	-1.171557868	 2.1782407243	 0.0301972544	-0.227873
N	-0.6701398539	 3.3972525802	 0.0303906416	-0.102198
N	 0.658288546	 3.4619071072	 0.0133868012	-0.083146
N	 1.0728848599	 2.2291411967	 0.0011364869	-0.238942
H	-1.2500143163	 4.2248858761	 0.0425661154	 0.314484
