21
gdb 107267	2.88636	1.55781	1.29108	1.8457	80.7	-0.2448	0.0837	0.3285	1076.8503	0.184084	-387.052597	-387.044897	-387.043953	-387.084651	31.485	
C	-0.4407234976	 1.4293172819	 0.0238716617	-0.384998
C	 0.2780160962	 0.0743519305	 0.0391402838	-0.288783
C	 0.8046656446	-0.3701961417	-1.2990458664	 0.440057
O	 1.847308682	-1.3702539451	-1.2663848032	-0.306356
C	 2.1172030537	-0.1061559836	-1.8961304065	-0.026553
C	 1.7692593174	-0.0327294501	-3.400810307	-0.074509
C	 0.7929100334	-1.2300334799	-3.5725140579	-0.216291
C	-0.0767329205	-0.4110884276	-2.5793338044	-0.109794
C	 0.4797293352	 0.8567772397	-3.3230035655	-0.222502
H	 0.2354701189	 2.2370923462	-0.2736835134	 0.119458
H	-1.2876022261	 1.4298568069	-0.669449286	 0.122761
H	-0.8280164369	 1.6674239523	 1.018886501	 0.116744
H	 1.118285082	 0.0981084978	 0.7410682248	 0.109667
H	-0.4106763771	-0.6960669652	 0.4118496223	 0.105927
H	 2.9046960181	 0.494091764	-1.4509641674	 0.093376
H	 2.5770123731	 0.1689351769	-4.1039237759	 0.062913
H	 0.3536761238	-1.2489024198	-4.5715706491	 0.091965
H	 1.1302151854	-2.2190246067	-3.2698714746	 0.117685
H	-1.1447258447	-0.5918199699	-2.4545486494	 0.059312
H	 0.5410766446	 1.7957323533	-2.7656964782	 0.093905
H	 0.0120299542	 1.0257090899	-4.2967113287	 0.096016
