13
gdb 20457	6.33663	1.42105	1.26417	4.2751	59.73	-0.2735	-0.042	0.2314	913.9467	0.097057	-394.709161	-394.702827	-394.701883	-394.74035	22.915	
C	 0.9930837121	 1.1023874811	 0.0769843366	-0.230835
N	 0.3633798147	 0.12801534	-0.8165243755	-0.310172
C	-0.3806322105	 0.5931201517	 0.3666032204	-0.134965
C	-0.6232499964	-0.4246676078	 1.4048041237	 0.384485
N	-1.5282407518	-0.2819916468	 2.3372544894	-0.17056
O	-1.4547443622	-1.4114573952	 3.1055135178	-0.147788
N	-0.4965387539	-2.2673067747	 2.6415088244	-0.061327
C	 0.0220914634	-1.6812955144	 1.6002151347	-0.111623
H	 1.8360758091	 0.7240679054	 0.6479048524	 0.132109
H	 1.0837603009	 2.1376107067	-0.2405363307	 0.129272
H	 0.0086125265	 0.5791544446	-1.6547916918	 0.246545
H	-1.1985640306	 1.2946525454	 0.2327407237	 0.113589
H	 0.8023903887	-2.1431489259	 1.0173599848	 0.161269
