21
gdb 90102	4.24891	1.1767	1.1327	0.5339	86.75	-0.2129	0.0624	0.2752	1195.0015	0.181785	-383.094069	-383.085825	-383.084881	-383.126213	33.174	
C	-0.4680126668	 1.6066904284	 0.2672425943	-0.319619
N	-0.3917597713	 0.1627429065	 0.195618946	-0.109813
C	-1.4813320504	-0.6389588544	 0.8815761432	-0.276442
C	-0.3596714647	-1.6707594864	 1.1524493152	 0.242424
C	 0.3527396251	-2.3466622184	-0.0644837973	-0.26222
C	 1.4400851964	-1.8304906443	 0.8809812462	-0.069955
C	 0.6088198014	-0.5127290846	 1.0707772786	 0.04507
N	 0.6169506616	-2.3168820416	 2.1364741436	-0.173237
C	 0.5466458028	-3.7519965482	 2.4009344474	-0.33259
H	 0.4223954058	 2.041769879	-0.1980878078	 0.124644
H	-1.3441019539	 1.9598730294	-0.2868656462	 0.120035
H	-0.5393817387	 1.9914023036	 1.3018592057	 0.092838
H	-1.8528622575	-0.1486146056	 1.793439137	 0.104015
H	-2.3155440503	-0.9287771028	 0.2348120327	 0.108442
H	 0.2497530023	-3.4262590098	-0.1652440114	 0.094204
H	 0.2491049357	-1.8400680512	-1.0233110287	 0.116848
H	 2.5216953054	-2.0010921049	 0.8647007343	 0.073563
H	 0.8008315315	 0.0141953491	 2.0117697283	 0.077296
H	 1.4946444494	-4.0639369918	 2.8517932422	 0.120985
H	-0.2416005051	-3.9220877158	 3.1414899402	 0.124021
H	 0.3475479712	-4.4058678958	 1.5390932364	 0.09949
