16
gdb 31451	5.62199	0.85121	0.78095	4.7298	79.62	-0.243	-0.0275	0.2155	1439.1015	0.125022	-400.805354	-400.797029	-400.796084	-400.838982	30.069	
C	 0.1485519362	 1.5533356561	-0.1323039029	-0.375794
C	-0.064327314	 0.0452933173	 0.0864541608	-0.294845
C	 0.5658939237	-0.4669019814	 1.3345798585	 0.400093
C	 0.0806896816	-1.0183868753	 2.4760827817	-0.408836
C	 1.2212293722	-1.2944728867	 3.3135015472	 0.15946
C	 2.3143453493	-0.8834147158	 2.6044872124	-0.101531
O	 1.9340318563	-0.3833982752	 1.4129556234	-0.172619
C	 1.225431497	-1.8727517464	 4.6065265686	 0.200812
N	 1.2165093753	-2.346113822	 5.6633347777	-0.339622
H	 1.2141672523	 1.791956923	-0.1847992515	 0.13514
H	-0.3192286178	 1.8735003561	-1.0675083413	 0.121539
H	-0.2883010696	 2.1328999603	 0.6862067635	 0.127575
H	-1.1332632017	-0.1834454126	 0.1362720787	 0.123398
H	 0.3359117346	-0.5076622008	-0.7728298401	 0.126211
H	-0.9520557745	-1.2150951135	 2.7134685591	 0.134936
H	 3.370042879	-0.888616373	 2.817674734	 0.164082
