20
gdb 59752	2.38339	1.52927	1.0744	4.0592	75.33	-0.2274	0.0062	0.2336	1174.1388	0.171392	-440.31087	-440.301827	-440.300883	-440.345249	33.221	
C	 0.9820251246	-0.5598608881	-0.8812435431	-0.319843
N	-0.069577471	-0.1504384423	 0.0446058444	-0.086183
C	 0.0634988241	 1.2812504533	 0.3212078724	-0.323552
C	-1.4028768144	-0.5226661566	-0.4472449898	-0.09263
C	-1.6293093937	-2.0421127129	-0.4410699413	-0.261074
C	-2.081921652	-2.2929069219	 1.0001642264	-0.067692
O	-2.8169141301	-1.1121318442	 1.3659059037	-0.216759
C	-2.4823542867	-0.071932832	 0.5632471373	 0.441525
O	-2.9898057479	 1.0073703185	 0.669952648	-0.345552
H	 1.9537471088	-0.28900638	-0.4587203772	 0.125119
H	 0.9812273968	-1.6405364822	-1.0365384135	 0.117647
H	 0.8931193609	-0.0714311897	-1.8702957428	 0.097163
H	-0.0588095722	 1.9022581322	-0.5851060473	 0.098109
H	-0.6742454887	 1.6095015531	 1.0521185343	 0.150733
H	 1.061910027	 1.4669825479	 0.7273936903	 0.115398
H	-1.626180925	-0.060880124	-1.4241210382	 0.080845
H	-2.4366774014	-2.2908880275	-1.1369996495	 0.119638
H	-0.7555739342	-2.6332144715	-0.7128419648	 0.115909
H	-2.7502981037	-3.1485281323	 1.113730337	 0.123289
H	-1.2323230209	-2.4025700896	 1.6814210838	 0.127911
