18
gdb 41425	3.35859	1.87557	1.52692	1.8723	73.51	-0.2399	0.0659	0.3058	894.088	0.150657	-401.876776	-401.870466	-401.869522	-401.907119	26.547	
C	 0.0488529929	 1.4818761475	-0.0574338863	-0.185721
O	 1.4952469175	 1.3886621943	 0.0126829289	-0.303476
C	 1.4352477296	-0.0124738645	 0.3915304891	 0.079961
C	 1.7095671984	-1.0179325767	-0.7120262672	-0.076705
C	 0.3326277739	-0.8169839751	-1.2631179795	-0.091094
N	 0.6862299756	-2.0984592149	-0.6934034982	-0.111412
C	-0.1066968005	-2.3051347341	 0.5562342897	-0.154566
C	-0.9299876681	-1.0023768472	 0.8083131535	-0.32695
C	-0.0768312256	-0.0375851591	 0.013993189	 0.262579
H	-0.3561083756	 2.0135748601	 0.8146776781	 0.101406
H	-0.2947918463	 1.9757063494	-0.9732440259	 0.106491
H	 1.8289503199	-0.1682981918	 1.4015316059	 0.073391
H	 2.6435045137	-1.2325755025	-1.2197256099	 0.097959
H	-0.0396354502	-0.7138369708	-2.2758803741	 0.092591
H	-0.7491256361	-3.1756072164	 0.4002563594	 0.112717
H	 0.5633182719	-2.5323158149	 1.3905857357	 0.112851
H	-1.9498718698	-1.0876570207	 0.4163859756	 0.104087
H	-0.9917909412	-0.7489799727	 1.8710035459	 0.105893
