19
gdb 105890	2.15512	1.48419	1.30109	1.3351	71.12	-0.227	0.0639	0.2909	1109.9576	0.156829	-460.09834	-460.089069	-460.088124	-460.132184	34.419	
C	-0.3209455448	 1.3361489514	-0.0509217062	-0.256226
O	 0.2553541085	 0.0450143911	 0.1036825875	-0.275801
C	 0.7182041385	-0.5013406529	-1.0683237398	 0.277832
C	-0.1919781536	-1.0741606558	-2.1489842562	 0.042891
O	-0.1163849815	-0.7948954304	-3.5124871384	-0.432209
C	 0.7972125724	-1.9662076578	-1.4707034948	-0.065135
O	 2.0742895113	-1.7730806993	-2.0997213025	-0.32518
C	 2.166545988	-0.4074789862	-1.5627688004	 0.085051
C	 2.6125517934	 0.6316475127	-2.5710481571	-0.429674
H	 0.4205922537	 2.0749613268	-0.3834425885	 0.11546
H	-1.1479162552	 1.3203956783	-0.7725595021	 0.121976
H	-0.7004685511	 1.6309313995	 0.9295852946	 0.131174
H	-1.2162006472	-1.1872329791	-1.801326346	 0.115031
H	 0.7032547691	-1.2083152867	-3.8168489025	 0.295279
H	 0.6157869317	-2.9023352872	-0.9555891369	 0.114735
H	 2.8456651119	-0.4316338524	-0.7006209048	 0.094977
H	 1.8968053261	 0.7301608998	-3.3888471676	 0.138444
H	 2.7111519398	 1.604438127	-2.0770397556	 0.123135
H	 3.5935018491	 0.366476491	-2.9793108126	 0.12824
