13
gdb 7879	4.0542	1.85851	1.27495	1.5197	67.38	-0.2237	-0.0554	0.1683	876.6872	0.09753	-394.846577	-394.839518	-394.838574	-394.87759	26.793	
N	 0.0451920742	 1.3406116453	-0.101614561	-0.596446
C	-0.0866170084	-0.0054801385	-0.0442932637	 0.283563
C	-1.1385113575	-0.8548776226	-0.0224449848	-0.297384
C	-0.6333300028	-2.2285835805	-0.0124843892	 0.408995
N	-1.3395309298	-3.2884082282	 0.0120863517	-0.538186
N	 0.7783088869	-2.1269508955	-0.0343979927	-0.412063
C	 1.1871964794	-0.8138540543	-0.0337123635	 0.398926
O	 2.3164121038	-0.3755470624	-0.0149042033	-0.376753
H	 0.9750761523	 1.6962025825	 0.0637993694	 0.274601
H	-0.7279548114	 1.9406591901	 0.1278156045	 0.266804
H	-2.1943061281	-0.6331972367	-0.0179126497	 0.114111
H	-0.7583862397	-4.128192798	 0.0110202082	 0.21188
H	 1.415371371	-2.9053051015	 0.0028831442	 0.261952
