18
gdb 37672	3.05295	2.36813	2.04715	1.7437	75.36	-0.2124	0.0811	0.2936	777.7564	0.152762	-364.770127	-364.764832	-364.763887	-364.799346	24.36	
C	-0.0365361879	 1.4561879583	 0.0561806163	-0.161921
C	 1.4249267083	 1.888657813	 0.0161407706	-0.056184
C	 2.1957766717	 1.5719544719	 1.2980919839	-0.083195
C	 2.0736115499	 0.072118745	 1.5346507555	-0.059522
C	 3.1119204884	 0.6099969894	 0.5774309533	-0.085128
C	 2.2236852288	 0.7260251076	-0.7028415541	-0.084141
C	 1.2205354814	-0.4374954448	-0.6785980014	-0.057943
C	 1.0086930671	-0.6983589726	 0.7742633656	-0.049181
N	-0.0348247222	-0.0135032799	-0.0224275542	-0.127276
H	-0.5479917491	 1.7863166713	 0.9674826453	 0.102748
H	-0.60314993	 1.827562312	-0.8054833377	 0.100174
H	 1.614956988	 2.8867657725	-0.3807480142	 0.071563
H	 2.4095916151	 2.261016776	 2.107096056	 0.081388
H	 2.383887844	-0.2920187123	 2.5063628976	 0.083828
H	 4.1817101653	 0.4643571627	 0.6519831955	 0.086079
H	 2.6932955029	 0.9450030479	-1.6592449381	 0.067489
H	 1.1596597194	-1.1783961425	-1.4690867697	 0.084674
H	 0.6993448189	-1.6627158957	 1.1656256699	 0.086547
