19
gdb 100589	3.3331	0.85091	0.73844	4.6379	75.08	-0.2431	-0.0335	0.2096	1559.4152	0.157951	-456.390981	-456.380564	-456.37962	-456.427349	36.119	
C	 0.0536870435	 1.520578133	 0.1540563622	-0.383573
C	-0.0131139242	 0.0023494884	-0.0176721683	-0.154141
C	-1.4634979671	-0.5287825301	-0.093783593	-0.108593
N	-2.13567011	 0.0079398349	-1.2693279021	-0.49592
C	-1.4336838984	-2.0714008099	-0.0980589772	 0.407074
O	-1.529732095	-2.7181231998	-1.1099593335	-0.311514
N	-1.2574659819	-2.6393310426	 1.1730821531	-0.343795
C	-1.1241437978	-3.986617078	 1.5061354537	 0.165428
O	-1.1324890809	-4.9146510997	 0.7480278262	-0.248689
H	 1.0904260982	 1.8696004596	 0.1378658581	 0.114003
H	-0.4963955878	 2.0172668656	-0.647860687	 0.146071
H	-0.388114952	 1.8302314856	 1.1081993397	 0.106609
H	 0.5012253532	-0.2980350444	-0.9391959514	 0.116504
H	 0.5161901866	-0.4960438009	 0.8039569804	 0.090885
H	-2.0052434383	-0.1850133372	 0.7984791257	 0.080699
H	-1.8278214677	-0.5359932227	-2.0739269052	 0.243235
H	-3.1343028057	-0.1672020309	-1.2010757163	 0.232603
H	-1.2157048861	-1.9965691942	 1.9511285457	 0.257205
H	-1.0051731087	-4.0948344767	 2.604256739	 0.085906
