19
gdb 71052	2.45545	2.16687	1.33099	2.7311	81.1	-0.2312	-0.0367	0.1945	989.612	0.158658	-381.981855	-381.973733	-381.972788	-382.014021	31.867	
C	-0.2315791075	 1.5202577837	-0.0051891542	-0.472107
C	 0.047633362	 0.0374819831	-0.0043102237	 0.2219
C	-0.322949878	-0.7805273718	-1.3128380029	-0.297763
C	-0.3556215941	-1.8635182977	-0.2691238902	 0.147162
N	 0.648743922	-2.6389834111	-0.1393459975	-0.20173
C	 1.3408797921	-2.114090213	 1.056761661	-0.225419
C	 0.7023420928	-0.7166229547	 1.2048129328	 0.246436
C	 1.0421465565	 0.0490349209	 2.4607504603	-0.485276
N	-0.706208939	-0.9366784316	 0.8522005588	-0.195602
H	 0.4856110997	 2.036233514	-0.6529767187	 0.128589
H	-1.2374703725	 1.7134763156	-0.3932610572	 0.130482
H	-0.1644408031	 1.962723382	 0.9895778432	 0.130196
H	-1.2754200089	-0.3858622682	-1.6788390703	 0.122143
H	 0.3959461391	-0.9275290529	-2.1177200563	 0.128378
H	 1.1799812171	-2.6873496948	 1.9829393462	 0.112759
H	 2.4161832584	-2.1146902831	 0.8480094761	 0.117677
H	 2.0623965417	 0.4441195284	 2.4077874357	 0.126778
H	 0.3602109325	 0.878864559	 2.6488604007	 0.134425
H	 0.9880645492	-0.6233049579	 3.3238291363	 0.130973
