21
gdb 56284	6.71029	0.48214	0.45609	2.3872	86.21	-0.245	-0.0108	0.2342	2341.5797	0.178264	-387.088141	-387.076942	-387.075998	-387.12676	38.614	
C	-0.0613831722	 1.5447224557	 0.0110441766	-0.472808
C	 0.091904011	 0.0332217239	 0.0014352871	 0.377388
O	 1.1787291714	-0.4979543559	-0.0117975676	-0.289113
C	-1.2009408984	-0.774886894	 0.0093894822	-0.3103
C	-0.985040062	-2.2875584477	-0.0008372114	-0.169408
C	-2.2985087474	-3.0734189307	 0.0074025857	-0.183718
C	-2.0695591598	-4.5986464224	-0.0029538288	-0.356673
C	-3.3107436466	-5.3631039524	 0.0050737548	 0.292838
C	-4.3492313518	-5.9687201053	 0.0116361937	-0.437296
H	 0.9213677327	 2.0174739122	 0.0045470703	 0.142906
H	-0.6356587389	 1.8762565046	-0.8614386712	 0.137516
H	-0.6195220513	 1.8667824442	 0.8974310659	 0.137499
H	-1.7869259	-0.4666463886	 0.8875367165	 0.119164
H	-1.803493672	-0.4572487245	-0.8540767073	 0.119163
H	-0.3898277697	-2.5576326189	-0.8808761636	 0.111997
H	-0.3732270511	-2.5670570941	 0.8647586782	 0.111997
H	-2.8916287619	-2.8105799016	 0.8917618645	 0.107138
H	-2.9082920332	-2.8011566294	-0.8626561194	 0.107136
H	-1.4776065496	-4.8721148113	-0.8865159747	 0.131085
H	-1.4606813797	-4.8814500404	 0.8660329724	 0.131076
H	-5.2583230895	-6.5167114232	 0.0171703563	 0.192413
