17
gdb 47044	2.81174	1.62179	1.3553	5.1015	67.32	-0.2569	0.013	0.2699	979.6409	0.137892	-458.986697	-458.979491	-458.978547	-459.018607	27.676	
O	-0.063937027	-0.0712460006	 0.0128699876	-0.318942
C	-0.0206655722	 1.1098254388	 0.2061500944	 0.425994
C	-1.1954552778	 2.058151505	 0.0205312806	-0.373909
C	-1.2758021902	 3.0931578833	 1.1344870394	 0.123735
O	-1.4071851749	 2.4853167363	 2.4371419837	-0.285727
C	-0.1819700147	 3.092170904	 2.9046859123	-0.08326
C	 0.0909807522	 3.7087113086	 1.5160979708	-0.088263
C	 1.2320777012	 3.1073083385	 0.7148619355	-0.103439
O	 1.1436498284	 1.6772371876	 0.6315327213	-0.224914
H	-1.0873772538	 2.5753580056	-0.9427513439	 0.12933
H	-2.1024329828	 1.4528487047	-0.0300779753	 0.148107
H	-2.0853173619	 3.8082776486	 0.9442099191	 0.084411
H	-0.3654523807	 3.8164366346	 3.7069113356	 0.106921
H	 0.5398787281	 2.3426148677	 3.2473055041	 0.122593
H	 0.1489971417	 4.7985925864	 1.4878994078	 0.090549
H	 1.254178177	 3.5332027543	-0.2975697369	 0.116048
H	 2.2014074074	 3.3047073767	 1.1802613138	 0.130768
