20
gdb 105001	1.88743	1.67984	1.03608	3.3006	78.89	-0.2536	0.0292	0.2828	1207.6678	0.171354	-399.3109	-399.301159	-399.300215	-399.345569	36.094	
C	-0.2522911366	 0.607597023	 0.8364338716	-0.392853
C	 0.4343149965	-0.6310125206	 0.2393342915	-0.288679
C	 0.6308614977	-0.6217830092	-1.2752595087	 0.333361
C	 0.1300662271	-1.7803326892	-2.0623528703	-0.277472
N	-0.5360801071	-0.4656882391	-2.1535607332	-0.351332
C	 1.892822681	 0.0863278145	-1.8028542188	-0.171858
N	 1.9580833116	 0.010599795	-3.2603342748	-0.512429
C	 1.9907218474	 1.4855889559	-1.3214289974	 0.27446
N	 2.1109575905	 2.5926035664	-1.0078893506	-0.341114
H	 0.331428237	 1.5174920037	 0.6905259194	 0.161967
H	-1.2396456512	 0.7694410281	 0.3904805131	 0.112761
H	-0.3989908916	 0.4674230551	 1.9116239024	 0.11705
H	 1.4108453507	-0.7763980122	 0.7189807862	 0.109094
H	-0.158169527	-1.5166016754	 0.4967907489	 0.103109
H	 0.6437561811	-2.0857393242	-2.9663861166	 0.1422
H	-0.365173609	-2.5750039494	-1.5109056198	 0.111915
H	-1.3928174966	-0.4513572684	-1.6068465233	 0.236186
H	 2.7595631218	-0.4465681938	-1.3899143986	 0.130986
H	 1.1012158647	 0.4087672602	-3.6373055207	 0.258526
H	 2.7386860221	 0.5578675398	-3.6067905803	 0.244122
