15
gdb 16739	5.78537	1.44127	1.26651	2.7743	70.59	-0.2378	-0.0549	0.1829	934.1898	0.120066	-362.656943	-362.650321	-362.649377	-362.687829	25.03	
O	-0.0856100426	-0.0309491351	 0.0962390502	-0.281888
C	-0.0200134825	 1.1800202073	 0.041745656	 0.067209
C	 1.2258009053	 1.9296991057	-0.0106127534	 0.213382
C	 1.3293058302	 3.2720084885	-0.0122128045	-0.120296
N	 2.6521526422	 3.7693542936	-0.0792004484	-0.106425
C	 3.4149416456	 3.4679084397	 1.1668770812	-0.236409
C	 3.5029181392	 2.5442445182	 0.0104361603	-0.01564
C	 2.6086991999	 1.3067112269	-0.0497127401	-0.342712
H	-0.9402656138	 1.8060901238	 0.0330481803	 0.065526
H	 0.5162624151	 3.9885310908	 0.0272771551	 0.126305
H	 4.2303892769	 4.1543242864	 1.371255575	 0.131342
H	 2.8340670387	 3.1609843139	 2.032295318	 0.12856
H	 4.4011243508	 2.5703794563	-0.5974032737	 0.107717
H	 2.7695657331	 0.6019249685	 0.772632629	 0.133573
H	 2.7702954019	 0.7469555356	-0.9775756749	 0.129755
