16
gdb 21187	3.31296	1.8237	1.19634	4.0076	67.51	-0.2069	0.0056	0.2126	987.2506	0.130684	-379.91177	-379.903814	-379.90287	-379.944147	28.779	
C	-0.0359532501	 1.4250675005	 0.0006877888	-0.330131
N	-0.1552668408	-0.0214950634	 0.0678746183	-0.389069
C	 0.5895104459	-0.6737317315	 1.0455571126	 0.109125
C	 1.262591013	-0.1787020235	 2.1214930441	-0.007309
O	 1.7818746528	-1.1946411973	 2.84926132	-0.17763
N	 1.4630039574	-2.393073798	 2.2388424831	-0.197928
C	 0.7544937938	-2.0919162993	 1.1767586915	 0.326871
C	 0.2226829963	-3.1555175474	 0.2736279138	-0.509291
H	 1.0021015201	 1.7753955246	-0.1210691159	 0.113518
H	-0.6325649166	 1.7985590452	-0.8344107527	 0.12788
H	-0.4340853223	 1.8664162672	 0.9210543493	 0.136295
H	-0.0828184642	-0.4654252017	-0.8372153191	 0.237594
H	 1.444545002	 0.8140316161	 2.4977423811	 0.137236
H	-0.8662829203	-3.0805194548	 0.1812078923	 0.140561
H	 0.6438874917	-3.0711506686	-0.7355503016	 0.12797
H	 0.4761629114	-4.1412774982	 0.6676047044	 0.154308
