19
gdb 84825	3.04944	1.05293	0.86011	2.4936	77.21	-0.2484	-0.0193	0.2291	1338.3789	0.158523	-423.042609	-423.033594	-423.032649	-423.077544	32.827	
O	 0.0612861962	 1.4609351703	 0.602936732	-0.422836
C	-0.0350191312	 0.1451713358	 0.0570811849	 0.073028
C	 0.9201192013	-0.8094619473	 0.7317753313	-0.110989
C	 0.2835763759	-1.6862400552	 1.5087864334	-0.061338
C	-1.2161635801	-1.5401262431	 1.440345951	-0.272761
C	-1.4211069831	-0.5487227522	 0.2632574656	-0.039251
C	-2.585301304	 0.4374183457	 0.443871895	-0.277219
C	-3.9111146233	-0.2849948599	 0.4389398033	 0.159784
O	-4.6681252412	-0.3532125161	 1.3733874562	-0.244627
H	 0.1421799879	 1.3716594863	 1.5592795983	 0.277991
H	 0.169292164	 0.2864385373	-1.0093048335	 0.088561
H	 1.9950137406	-0.7059838661	 0.635993575	 0.101892
H	 0.765733076	-2.4265934907	 2.1385798818	 0.102867
H	-1.7223097853	-2.4965144103	 1.2667523728	 0.115835
H	-1.6230318882	-1.1551239963	 2.38578006	 0.119983
H	-1.6043325419	-1.1431433659	-0.6407758284	 0.084915
H	-2.4895580705	 0.9991431513	 1.376045598	 0.114137
H	-2.5795029846	 1.1543922545	-0.3878699369	 0.121885
H	-4.1507544588	-0.7926364179	-0.5265800898	 0.068142
