18
gdb 51352	5.89529	0.93323	0.89613	3.7828	79.03	-0.2458	0.0315	0.2773	1308.9561	0.148872	-401.89537	-401.887843	-401.886899	-401.92841	28.832	
O	-0.195878348	-0.0635199776	 0.3899373364	-0.323454
C	-0.1133027854	 1.1157202861	 0.1201062293	 0.152641
N	 1.0386365784	 1.7850828661	-0.1605521265	-0.305429
C	 2.3419857296	 1.1657538856	-0.174455739	 0.055957
C	 3.3060532761	 1.4872672606	-1.3359656212	-0.070873
C	 3.7325081874	 2.868266364	-0.7126389386	-0.058007
C	 5.2318475578	 2.5296462186	-0.8113273927	-0.266499
C	 4.557674093	 1.1950785965	-0.4376341208	-0.036736
C	 3.5194441327	 1.8952694855	 0.5061563661	-0.070953
H	-0.9949884388	 1.7865924238	 0.0740335132	 0.06998
H	 0.969390957	 2.7689472264	-0.369717794	 0.245611
H	 2.2041416109	 0.1128224076	 0.0746764776	 0.116321
H	 3.206717428	 1.2606695095	-2.3986426868	 0.076304
H	 3.2431559682	 3.8317177581	-0.8693533855	 0.066848
H	 5.6864489213	 2.5914745595	-1.8050782792	 0.096503
H	 5.8886931559	 2.9781336726	-0.0593701816	 0.096498
H	 5.0036698938	 0.2138196893	-0.2719555912	 0.078989
H	 3.6652960423	 2.1374545476	 1.5599946947	 0.076297
