20
gdb 36305	3.15444	1.18219	1.10184	1.6224	83.86	-0.2231	0.049	0.2721	1200.008	0.17155	-365.954602	-365.946055	-365.94511	-365.988343	32.739	
C	-0.9943906244	 1.3257924551	 2.5841994308	-0.455725
C	-0.6020322952	 1.356269248	 1.4489958441	 0.332254
C	-0.1397288939	 1.408416999	 0.0641006885	-0.314275
N	 1.1853912415	 2.0190647068	-0.0270938182	-0.091142
C	 1.6445985427	 2.7469641665	-1.2047868701	-0.029345
C	 0.6524520093	 3.2765699648	-2.2326671373	-0.231456
C	-0.3413485115	 4.1913471712	-1.4647427025	-0.223627
C	 0.2727005047	 4.4429775267	-0.0601215346	-0.232086
C	 1.4177345362	 3.4513150143	 0.0989077576	-0.018804
H	-1.3372949422	 1.2902051864	 3.5883975078	 0.196645
H	-0.0484302614	 0.3858869796	-0.324565522	 0.135515
H	-0.9159229804	 1.8959348047	-0.5443240558	 0.117081
H	 2.6327359562	 2.4595580305	-1.5570809797	 0.086789
H	 1.2134066614	 3.8458038202	-2.9819985533	 0.10485
H	 0.1396624649	 2.4743868814	-2.7759698952	 0.103152
H	-0.5060464045	 5.1308595476	-1.9994228546	 0.101265
H	-1.3233455502	 3.7177848502	-1.3801368456	 0.111586
H	 0.6836113508	 5.4557879175	 0.0143288504	 0.102572
H	-0.46972282	 4.3459433886	 0.7388535676	 0.117111
H	 2.2284956859	 3.7177018306	 0.7726793119	 0.08764
