21
gdb 103416	2.40837	1.39004	1.23043	2.7421	77.66	-0.2489	0.0683	0.3172	1144.8077	0.180372	-424.185268	-424.175692	-424.174748	-424.219083	36.286	
C	-0.1211385555	 1.5531548886	-0.0855940656	-0.416597
C	 0.0065786765	 0.0429723274	 0.0516254869	-0.044886
C	 1.000665952	-0.6676600059	-0.877937636	 0.017535
O	 2.3166153747	-0.2008542581	-0.5415694938	-0.255988
C	 1.7420617803	-1.2433900023	 0.2519408784	-0.02437
C	 0.8017765092	-0.5865701108	 1.2856431797	 0.286612
C	 1.4623954882	 0.3684512226	 2.2734704825	-0.457248
C	-0.0466439088	-1.6363092387	 1.9928456091	-0.135217
O	-1.1303384817	-0.9747604951	 2.6312593266	-0.423091
H	 0.8615756386	 2.0297443834	-0.1230611421	 0.130459
H	-0.6563601288	 1.8112418501	-1.0063695292	 0.109585
H	-0.6810048108	 1.9770276286	 0.7536603402	 0.123263
H	-0.9815340109	-0.4234677837	-0.0044021879	 0.080357
H	 0.8578389661	-1.0358951218	-1.8880698065	 0.096743
H	 2.3056102431	-2.1673047666	 0.3365618583	 0.094303
H	 2.1158958663	 1.0729274586	 1.7553885047	 0.129884
H	 0.7099025971	 0.9277308322	 2.8355594375	 0.130916
H	 2.0710288722	-0.1888958793	 2.9956332351	 0.103673
H	-0.4102496067	-2.3753004013	 1.2595265175	 0.081263
H	 0.5737168782	-2.1786828919	 2.7257085149	 0.083978
H	-1.6608038392	-1.634319506	 3.08732454	 0.288826
