19
gdb 30421	3.17604	1.16617	0.86709	3.6539	83.46	-0.1777	0.0403	0.218	1363.6919	0.157449	-419.245326	-419.23516	-419.234216	-419.28079	35.578	
C	-0.0365120992	 1.4073124857	-0.0589580654	-0.316181
N	-0.064570891	-0.0448526417	-0.0575133817	-0.388249
C	 0.498509821	-0.6470831885	-1.0146307051	 0.499392
N	 0.5846008319	-2.0117808231	-1.2011989562	-0.423092
C	 1.3605300505	-2.2916655111	-2.3339654846	 0.215478
C	 1.653055208	-3.6873417155	-2.7573149223	-0.502852
C	 1.6867931143	-1.1065359405	-2.8731381049	 0.247757
C	 2.4398487324	-0.6916416136	-4.0796879132	-0.492566
O	 1.1557053863	-0.0806056719	-2.0897500972	-0.257742
H	 0.9571330947	 1.8202504482	-0.2846914059	 0.107586
H	-0.7358595941	 1.8313123339	-0.7944275284	 0.109393
H	-0.339426903	 1.7698842647	 0.9273967592	 0.111541
H	 0.3250571199	-2.6598811411	-0.4794115466	 0.264797
H	 2.2060196354	-4.2351664947	-1.9841609503	 0.134722
H	 0.7308032745	-4.2461188423	-2.9573198288	 0.138815
H	 2.2560593333	-3.6954540437	-3.6671969363	 0.140242
H	 1.8093754036	-0.1131190894	-4.7655549029	 0.139809
H	 3.2972897352	-0.0608134053	-3.8167324635	 0.139666
H	 2.8128664765	-1.5666848204	-4.6166796361	 0.131487
