20
gdb 120076	5.89247	0.85466	0.85129	1.2413	80.79	-0.2305	0.0805	0.311	1441.7881	0.17079	-403.03045	-403.022187	-403.021243	-403.064076	30.954	
C	-0.3873479114	 1.4165572429	-0.5517643674	-0.222974
O	-0.3016223258	 0.0156070226	-0.6484141544	-0.235673
C	 0.9793989313	-0.4815638519	-0.320828937	-0.088236
C	 0.9267057018	-1.9909816902	-0.426663412	 0.034178
C	 1.0548782325	-2.7044967541	-1.7697798577	-0.068912
C	 2.6017214428	-2.4996160018	-1.7376599365	-0.008225
C	 2.917880616	-3.9855369993	-1.9226206034	-0.258163
C	 1.6816771552	-3.9216669638	-1.0243585699	 0.002556
N	 2.2591040556	-2.7141859293	-0.2305176727	-0.186492
H	-0.170630517	 1.7699595451	 0.4689674584	 0.104436
H	 0.3103184338	 1.9185292955	-1.2413480818	 0.102472
H	-1.408980835	 1.7017927238	-0.814812399	 0.126338
H	 1.7414978083	-0.0574989142	-0.9957628472	 0.083082
H	 1.2617148184	-0.1948159966	 0.7068770253	 0.094581
H	 0.149601903	-2.3761965202	 0.2447557725	 0.075982
H	 0.3912786153	-2.7141139099	-2.6402998357	 0.069046
H	 3.1751584431	-1.6300107091	-2.0603284878	 0.084122
H	 2.7806855023	-4.3996587009	-2.9245709099	 0.099896
H	 3.8380167173	-4.3450005772	-1.4544777059	 0.109032
H	 1.1524465226	-4.7161745214	-0.4947780879	 0.082954
