14
gdb 124018	3.79688	1.6772	1.17182	11.9847	73.28	-0.1987	-0.0569	0.1418	953.3072	0.105848	-429.023818	-429.017352	-429.016408	-429.05482	24.926	
C	-0.0093387866	 1.4949631814	 0.1978179853	-0.291196
N	 1.3281345732	 1.9753179	-0.260419089	-0.284846
C	 2.3417990531	 1.2334908482	-0.7071719063	 0.127605
N	 2.2656060188	-0.0733275894	-0.7962975051	-0.333863
H	 3.0455253159	-0.6171845172	-1.13758777	 0.296568
C	 1.0795530752	-0.7008987577	-0.4082716057	 0.281008
C	-0.0054909594	 0.0090544599	 0.0624068731	 0.259893
N	-0.959888265	-0.8842017698	 0.3395705022	-0.310307
N	-0.4458195748	-2.1004224699	 0.0372655454	-0.157593
N	 0.802890201	-2.0103656305	-0.4226755112	-0.315137
H	-0.1589474808	 1.8336129806	 1.232187865	 0.140617
H	-0.7776991627	 1.9823624726	-0.4178463547	 0.140626
H	 1.4898818849	 2.9697028781	-0.2315406377	 0.278342
H	 3.2532295472	 1.7361315439	-1.0035596113	 0.168282
