21
gdb 118893	3.10464	0.99479	0.90342	1.9747	78.34	-0.2458	0.0673	0.313	1374.7913	0.181136	-424.184716	-424.175228	-424.174284	-424.219093	35.973	
O	-0.0862151504	 1.49701296	-0.0410103579	-0.417475
C	 0.021947045	 0.0843056814	 0.0421596235	-0.090664
C	-1.3769219392	-0.4990099497	-0.1246077068	-0.218366
C	-1.4360800603	-2.0205741041	 0.0063740771	 0.393901
O	-0.6863174823	-2.6572738881	-1.0240013926	-0.489572
C	-1.152830316	-2.6763266047	 1.4123930685	-0.299386
C	-2.517698419	-3.3720962735	 1.3376420709	-0.03777
C	-3.607212211	-2.3446297916	 1.2389590561	-0.293469
C	-2.8178739928	-2.6859490176	 0.0060032754	-0.066422
H	 0.7953467736	 1.8723744891	 0.0411850738	 0.284826
H	 0.6887277843	-0.3021286662	-0.746597995	 0.076405
H	 0.4459370644	-0.2244595764	 1.0124692485	 0.087166
H	-2.0256910837	-0.0344546996	 0.6251345938	 0.10456
H	-1.7633969922	-0.2144081966	-1.1097491459	 0.11039
H	 0.2464295181	-2.4653705643	-0.8824263331	 0.274615
H	-0.3082895573	-3.3655365568	 1.3451941558	 0.100056
H	-1.0058931404	-2.0036006648	 2.2648971318	 0.087639
H	-2.7169112861	-4.3942097652	 1.634295866	 0.084429
H	-4.6204365921	-2.7338349341	 1.2482410594	 0.112997
H	-3.5047646755	-1.3788789269	 1.7287569419	 0.106131
H	-3.2751199072	-3.0858449904	-0.8906576713	 0.090009
