19
gdb 98206	2.1067	0.9749	0.72744	3.2481	80.92	-0.2468	-0.0276	0.2193	1616.6808	0.155029	-423.023177	-423.012059	-423.011114	-423.062259	37.498	
C	 0.1176269556	 1.5270214602	 0.0639242741	-0.378415
C	 0.155760747	 0.0046677351	-0.0515498339	-0.28563
C	 0.7182079795	-0.4905093054	-1.3635060811	 0.365966
O	 1.0309174488	 0.2384764162	-2.2777216305	-0.318329
C	 0.8907227813	-2.0208348552	-1.5588664794	-0.11885
O	 1.2427128409	-2.2877487034	-2.8907123422	-0.415439
C	 1.8778914824	-2.5236285879	-0.5952755643	 0.110877
C	 2.7009185993	-2.9308722663	 0.184177878	 0.013477
C	 3.6976908824	-3.439809339	 1.1145915664	-0.498339
H	 1.1237407008	 1.9491046639	-0.0025878536	 0.133847
H	-0.4748464222	 1.9663959952	-0.7422817434	 0.135248
H	-0.3195641136	 1.8275021167	 1.0197768936	 0.115564
H	 0.7404309792	-0.4523209522	 0.7554262908	 0.144281
H	-0.8511725281	-0.4260640938	 0.0475681404	 0.130534
H	-0.0838267905	-2.4891545644	-1.344170852	 0.112528
H	 1.4588668564	-1.4176315474	-3.2668520877	 0.293806
H	 4.3873663886	-4.1251717543	 0.6101047686	 0.157804
H	 4.2931356863	-2.6286426331	 1.5475027332	 0.150219
H	 3.2291274759	-3.9880016148	 1.939125623	 0.150852
