17
gdb 87332	1.88087	1.45854	0.95924	3.8517	77.03	-0.2587	-0.0011	0.2576	1256.9342	0.132123	-421.798785	-421.789205	-421.788261	-421.833505	34.369	
C	-0.0185518173	 1.5087226044	 0.0830241916	-0.407855
C	 0.088933157	 0.0012635271	 0.045189109	-0.054493
C	 1.4259510276	-0.6866816946	-0.047065053	-0.342458
C	 0.618911504	-0.7688108626	 1.2393662043	 0.19235
O	 1.0465352726	 0.0470374027	 2.3232124726	-0.221841
C	 2.1134871567	-0.3986433902	 3.0309136203	 0.159815
O	 2.5524966205	 0.2061047277	 3.9603266799	-0.266903
C	 0.0002418784	-2.004777865	 1.6298900094	 0.321644
C	-0.5121541117	-3.0412229004	 1.9603510611	-0.457958
H	 0.8030736401	 1.9540332858	 0.6473490785	 0.13919
H	 0.0031769494	 1.9124648646	-0.9343898177	 0.124031
H	-0.9558199871	 1.8228278185	 0.5524615046	 0.132549
H	-0.7289551857	-0.5039935993	-0.4592897936	 0.111594
H	 1.5260653495	-1.5892257839	-0.6380508083	 0.134203
H	 2.3105990084	-0.0593360359	-0.0061938934	 0.132691
H	 2.5111343838	-1.3565631103	 2.651824685	 0.097076
H	-0.9691795162	-3.9535039686	 2.2557586495	 0.206365
