17
gdb 87612	2.77171	1.47965	1.10777	3.4526	75.91	-0.2397	-0.0357	0.204	1117.6262	0.134712	-421.840319	-421.832115	-421.83117	-421.873205	30.855	
C	-0.0760758102	 1.5236891863	-0.1346697556	-0.424314
C	-0.0176536042	 0.0316113869	 0.0586094252	 0.011797
O	 1.2415332188	-0.6097149732	-0.1149739729	-0.290164
C	 0.66599211	-0.6166751883	 1.2023919146	 0.293388
C	 1.3512658332	 0.0298156625	 2.3445586979	-0.158835
C	 1.2668529087	-0.7221453753	 3.4469602157	-0.092541
C	 0.513270801	-2.0096470616	 3.2261524681	-0.388274
C	 0.1647601328	-1.9551777323	 1.732448649	 0.336802
O	-0.4015468423	-2.7959156641	 1.0862779966	-0.305218
H	 0.7846333954	 2.0209264847	 0.3180272923	 0.127886
H	-0.0843505576	 1.7628695725	-1.2031638008	 0.136996
H	-0.9918860688	 1.9303503429	 0.3067772381	 0.128631
H	-0.8487537445	-0.5374178188	-0.3626770878	 0.110968
H	 1.8556995193	 0.9842180672	 2.2679632785	 0.114211
H	 1.6875291064	-0.4549474744	 4.4092775212	 0.111035
H	 1.0983711393	-2.9081750576	 3.4573433167	 0.144677
H	-0.4078580873	-2.0824517873	 3.8183584133	 0.142955
