20
gdb 114470	3.29488	1.36213	1.21971	1.2681	78.4	-0.215	0.0639	0.2788	1107.9123	0.171671	-403.056974	-403.049078	-403.048134	-403.089386	30.983	
C	-0.1453627235	 1.4498056116	 0.1419117464	-0.239314
O	 0.2806499187	 0.1326631663	-0.1342208976	-0.234136
C	 0.7769857058	-0.5342796497	 0.9939038202	 0.114864
C	-0.2382243573	-1.1667345938	 2.0043243262	-0.227884
N	 0.3788819094	-2.5219035674	 1.8021280978	-0.127592
C	-0.2505558811	-3.414065412	 0.7989666118	-0.0131
C	-0.8260985018	-2.7302811986	-0.4104392901	-0.295958
C	 0.6655953945	-2.9002970352	-0.3172439616	-0.06872
C	 1.2893390052	-1.9770458561	 0.7351608419	-0.024447
H	 0.6756703128	 2.0616335145	 0.5470405947	 0.107471
H	-0.4821838952	 1.8866275449	-0.8010389561	 0.129502
H	-0.9783141436	 1.4726797515	 0.8604258561	 0.109829
H	 1.530413796	 0.0901154861	 1.4978617684	 0.069916
H	-0.1413736069	-0.8292887404	 3.0401019972	 0.102024
H	-1.2864239831	-1.0891552976	 1.6994782575	 0.108118
H	-0.5265206162	-4.4250719179	 1.0783344448	 0.090678
H	-1.3028698917	-3.415017578	-1.1058879544	 0.109956
H	-1.2764474517	-1.7463051169	-0.3774211367	 0.124773
H	 1.2337301063	-3.4537872188	-1.053809563	 0.089001
H	 2.3595597934	-2.1405125027	 0.8906103264	 0.075021
