20
gdb 72543	2.60706	1.67812	1.67285	1.9589	73.16	-0.2206	0.0653	0.2859	961.3202	0.173762	-440.286452	-440.278714	-440.27777	-440.318463	30.901	
C	-0.0092839727	 1.529543084	 0.022017516	-0.460826
C	 0.0059333194	 0.0076608767	-0.0034185599	 0.181239
C	 0.6788809968	-0.5453084892	-1.2750053153	-0.072809
O	 0.704533399	-1.976548869	-1.219774122	-0.269681
C	-0.013693663	-2.4540845005	-0.1001673811	 0.194427
C	 0.6736152839	-1.9937033043	 1.1886761729	-0.195984
N	 0.6952159655	-0.5126179158	 1.1929142797	-0.318727
O	-1.3499927296	-2.0034649336	-0.1220460254	-0.271001
C	-1.4127447765	-0.5796948533	 0.0374513506	-0.060968
H	 1.0116093151	 1.9279318983	 0.0210554132	 0.114815
H	-0.5274868508	 1.9357640466	-0.852180904	 0.120382
H	-0.5081982695	 1.8891243194	 0.9261665335	 0.131858
H	 0.1400352609	-0.2317532194	-2.181094312	 0.09699
H	 1.7114719193	-0.1764320833	-1.3505746984	 0.088787
H	-0.0481127409	-3.5408666719	-0.1939146361	 0.088615
H	 0.116560057	-2.3762381463	 2.0535991591	 0.107469
H	 1.6851793677	-2.4106410605	 1.2274937085	 0.105045
H	 1.6536329958	-0.1801371229	 1.191357377	 0.215292
H	-1.8898909865	-0.3347790109	 0.9952125034	 0.104002
H	-2.0231016911	-0.1725909544	-0.7776462396	 0.101077
