18
gdb 14405	3.24476	2.56828	2.04426	1.2665	70.51	-0.2495	0.0796	0.3291	747.4603	0.156366	-347.771502	-347.765318	-347.764374	-347.801216	26.404	
O	-0.0268862602	 1.4143144745	-0.0622034001	-0.487968
C	 0.0161108474	 0.0253143028	-0.0829157452	 0.433255
C	 0.4335263263	-0.8188742225	-1.2959969897	-0.303498
C	-0.3305817493	-1.9354031547	-0.5292516494	-0.048057
C	 0.5974320741	-2.1625701678	 0.6861609359	-0.203336
C	 0.3893066389	-0.7517314413	 1.2693424687	-0.107795
C	-1.1279353428	-0.7693974827	 1.6008491566	-0.242624
C	-1.28586567	-0.8116231786	 0.0740467446	-0.059246
H	 0.8593024907	 1.7438355314	 0.1225709043	 0.279101
H	-0.0992187765	-0.4793519408	-2.1889925788	 0.099917
H	 1.4919697074	-0.9827729634	-1.5271550096	 0.080786
H	-0.7319944667	-2.8025624678	-1.0497610902	 0.064617
H	 0.2630362001	-2.9495887503	 1.3690137391	 0.091582
H	 1.6267396796	-2.3794093032	 0.3851065288	 0.088904
H	 1.1274889268	-0.3558028552	 1.9682951156	 0.053136
H	-1.5066437868	-1.5925269918	 2.2149808764	 0.084503
H	-1.4786704715	 0.186807571	 1.9960140054	 0.10751
H	-2.2035292576	-0.5820900097	-0.4655802724	 0.069213
