25
gdb 114357	3.08902	0.98293	0.95146	0.1472	92.6	-0.2565	0.0806	0.3371	1451.3879	0.229245	-352.340272	-352.330689	-352.329745	-352.374778	37.136	
C	-0.2287540495	 1.5121639683	 0.0389185794	-0.37651
C	-0.0197189025	-0.0039354896	-0.049026713	-0.199149
C	 0.7481577635	-0.5638969337	 1.1424572768	 0.063772
C	 0.0831888427	-0.5800957707	 2.5557606787	-0.265038
C	 0.6528020033	-2.0105913739	 2.8061663318	-0.030435
C	-0.3247147796	-3.2012408891	 2.628790444	 0.053948
C	-1.7041994344	-3.1878447557	 3.2706597446	-0.411457
C	-0.1914001166	-3.0466046088	 1.0816323722	-0.264313
C	 1.0208233248	-2.0836106568	 1.2814622466	-0.049114
H	 0.7295998029	 2.0427304514	 0.0710576049	 0.111695
H	-0.7897389192	 1.8894578607	-0.8218279201	 0.109125
H	-0.7852745277	 1.7832760216	 0.9427860469	 0.117403
H	-0.9964737373	-0.4975799495	-0.1283607261	 0.092258
H	 0.5207318061	-0.2475039015	-0.9738152485	 0.091075
H	 1.7112381049	-0.0416859312	 1.2134113571	 0.064311
H	 0.4210886489	 0.1913709212	 3.2513441819	 0.096285
H	-1.0102584539	-0.5407731544	 2.5215132761	 0.093342
H	 1.3965826202	-2.0792059352	 3.6023748998	 0.054251
H	 0.200453311	-4.1133940363	 2.9367507323	 0.068255
H	-2.2787609033	-2.3002843366	 2.9849033319	 0.112781
H	-2.2855685033	-4.0648651906	 2.9639641606	 0.112043
H	-1.6357168409	-3.2020138628	 4.364503216	 0.111316
H	 0.020505253	-3.9662789886	 0.5310691345	 0.095387
H	-1.059914259	-2.5726636837	 0.6143266433	 0.094553
H	 1.9775547059	-2.4622263446	 0.9165803783	 0.054217
