16
gdb 65758	2.64847	1.246	1.10788	2.8614	66.96	-0.2679	-0.0152	0.2527	1150.0752	0.122687	-475.03841	-475.029593	-475.028649	-475.072397	31.206	
C	-0.0401700538	 1.6564714136	-0.0193129515	-0.447358
C	-0.0516239031	 0.136033705	-0.021533472	 0.18533
C	 0.7602546859	-0.573219931	-1.1221661979	-0.117823
O	 1.6993200894	-1.084495934	-0.1168458844	-0.236139
C	 0.9859101571	-0.5420006843	 0.9125970775	 0.429
O	 1.1860788588	-0.6310934515	 2.0815048977	-0.324948
O	-1.3681530296	-0.3882892516	 0.0553048627	-0.233934
C	-1.9929017256	-0.3372498327	 1.2638849759	 0.101902
N	-3.2167466577	-0.6282917822	 1.325748957	-0.433072
H	 0.974599922	 2.0402201252	-0.1581505138	 0.138335
H	-0.6765408696	 2.029868921	-0.8267497906	 0.146979
H	-0.4218354497	 2.0408331123	 0.9306423243	 0.144406
H	 0.2297563627	-1.3894359182	-1.6125807571	 0.149332
H	 1.2742096518	 0.0659144685	-1.8412448748	 0.131926
H	-1.3314737279	-0.0654160287	 2.0924557186	 0.129991
H	-3.5358314707	-0.5789279915	 2.2914047285	 0.236075
