16
gdb 131835	3.10796	1.27358	0.94458	3.4527	67.15	-0.2289	0.0012	0.2302	1185.5179	0.126287	-471.241231	-471.233109	-471.232164	-471.274738	29.697	
O	-0.1919081344	 1.5561218709	 0.3296615331	-0.42287
C	-0.0116030096	 0.1814352917	 0.0723778522	-0.051496
C	-1.3346772335	-0.5751586097	-0.0722952479	-0.177319
N	-2.0311881452	-0.2288818329	-1.2975806197	-0.072324
N	-2.2798961294	 1.0861477874	-1.6363827295	-0.254965
C	-2.8963717185	 1.0244116969	-2.7750715601	 0.070096
N	-3.0654319359	-0.2659873264	-3.1915598462	-0.368248
C	-2.5016095072	-1.1264559136	-2.2368169903	 0.481597
O	-2.4454446256	-2.3371408694	-2.2455267874	-0.428607
H	-0.7884299778	 1.8925874419	-0.353349061	 0.295711
H	 0.6012280906	 0.0048705496	-0.827011	 0.091464
H	 0.532503666	-0.2322037206	 0.9283913748	 0.112868
H	-1.1708535746	-1.6548888127	-0.1246689785	 0.148431
H	-1.9733728427	-0.3555290162	 0.7912685409	 0.127995
H	-3.2365721956	 1.8862255954	-3.326859793	 0.16311
H	-3.5134699666	-0.5923651524	-4.0299602775	 0.284558
