16
gdb 39798	3.53341	1.45278	1.18611	2.7771	69.6	-0.2509	0.0538	0.3047	1028.5069	0.123495	-437.734716	-437.727564	-437.726619	-437.766168	28.356	
C	-0.0322467466	 1.5269857811	-0.0065735933	-0.337611
N	 1.2648840335	 0.7839796397	 0.0504147131	-0.392328
C	 0.0150843759	 0.0661476077	 0.0054063363	 0.461029
C	-0.5486353842	-1.032046215	 0.9242498908	-0.187801
O	-1.7331339401	-1.07488515	 0.0233626746	-0.300065
C	-0.5823967569	-1.0159213649	-0.9126275943	-0.217917
C	 0.1193424405	-2.0550859603	-0.0136296455	 0.591624
C	 1.3223088725	-2.8706920074	-0.0383553153	-0.299275
O	-0.0161880719	-3.4368390434	-0.0228639217	-0.281326
H	-0.2731187735	 2.0805944133	 0.8960222779	 0.131792
H	-0.3041879959	 2.0255623889	-0.9331884188	 0.122863
H	 1.7185902172	 0.7916441871	-0.8602764945	 0.236273
H	-0.7173938875	-1.0485101392	 1.9988905651	 0.112264
H	-0.7880775178	-1.015282936	-1.9823499514	 0.107118
H	 1.8697262292	-3.013789141	-0.9682040123	 0.123197
H	 1.8975079657	-3.0226249405	 0.8726624394	 0.130164
