19
gdb 86006	2.00064	1.60183	1.37346	1.8534	71.72	-0.2504	-0.0465	0.2038	1083.8699	0.156131	-460.1605	-460.150898	-460.149954	-460.194784	35.263	
C	-0.4454996838	 1.3371415476	-0.184505739	-0.406007
C	-0.0350284595	-0.1109663102	-0.0147794186	 0.100457
O	 1.1552801196	-0.4718947881	-0.7869943604	-0.343555
C	 1.9569115973	-0.6371683414	 0.4169548369	 0.272828
C	 2.7288633037	-1.9426584567	 0.4381829681	-0.468183
C	 2.8982276681	 0.5591124152	 0.4134466841	 0.14843
O	 2.9038275211	 1.4665143801	 1.2139688722	-0.278775
C	 0.688303208	-0.5044168167	 1.3080097551	 0.031842
O	 0.6782241823	 0.349611668	 2.4074206761	-0.434965
H	 0.3536488253	 2.0233336868	 0.1068606667	 0.125787
H	-0.7078980517	 1.5344942653	-1.2281269587	 0.125865
H	-1.3193398615	 1.5494918756	 0.4394122433	 0.130676
H	-0.8588359622	-0.7787302419	-0.2915146391	 0.083939
H	 3.4793476608	-1.9700654209	-0.3591493641	 0.130482
H	 3.2384718763	-2.071060232	 1.3992815022	 0.137889
H	 2.041434777	-2.7796908387	 0.2890248456	 0.136169
H	 3.5805361786	 0.5698235376	-0.4642625002	 0.109363
H	 0.3565167989	-1.4876922746	 1.6561130022	 0.094015
H	 1.3420117917	 1.0381583552	 2.2515493876	 0.303744
