19
gdb 97151	2.63861	1.52863	1.09656	3.1204	79.2	-0.2353	0.0254	0.2607	1153.8791	0.159545	-419.201212	-419.192392	-419.191448	-419.234766	32.613	
C	 0.0966449119	 1.4049177929	 0.0791618045	-0.329046
N	 0.1757161967	-0.0471367425	 0.0602289205	-0.344218
C	 0.4998699356	-0.6325878787	-1.0065620156	 0.463328
O	 0.8148902525	-0.0156753114	-2.1909827709	-0.26524
C	 0.8583028959	-0.9608577087	-3.274919757	-0.087051
C	 0.8123877281	-2.3289983271	-2.6304428241	-0.116349
N	 1.9231306917	-2.5064609068	-1.6790265934	-0.362858
C	 0.5690910071	-2.1161963889	-1.18188775	 0.19893
C	-0.2118702178	-3.007117339	-0.2594429879	-0.486657
H	 1.0204343885	 1.8200471117	 0.5011507302	 0.127366
H	-0.0526656951	 1.8519131482	-0.9108693373	 0.120296
H	-0.7223953814	 1.7077911047	 0.7389472037	 0.117699
H	-0.0059251415	-0.7945663229	-3.9293589504	 0.111155
H	 1.7798060367	-0.7846910433	-3.8372382657	 0.125822
H	 0.4071807485	-3.1757684121	-3.1730915275	 0.101326
H	 2.0424285451	-3.5014582314	-1.494213545	 0.231918
H	 0.1361298232	-2.8794562868	 0.7693799508	 0.150434
H	-1.2757283163	-2.7539181719	-0.2786961089	 0.135454
H	-0.1000401194	-4.0584214659	-0.543755666	 0.107693
