19
gdb 121703	2.79849	0.95338	0.87916	4.0775	74.38	-0.2493	-0.0233	0.2261	1408.6964	0.158671	-456.368511	-456.358697	-456.357753	-456.404235	34.514	
C	-1.518940299	 0.492008455	 0.9532007644	-0.396829
C	-0.3177954245	-0.1440350299	 0.2590185795	-0.055189
O	-0.5126082109	-1.4989516545	-0.1442358297	-0.254966
C	-1.381770363	-1.6824298127	-1.2479656628	-0.150089
C	-2.82050758	-1.9787275562	-0.8435536461	 0.338066
N	-3.7825717238	-1.6339259462	-1.5928748502	-0.504079
N	-2.8843183938	-2.690011155	 0.3690523448	-0.321047
C	-4.0106042684	-3.1767797724	 0.979159473	 0.163115
O	-5.1389127043	-3.0956940647	 0.5470297146	-0.299386
H	-1.2631236509	 1.5092449684	 1.2674635678	 0.122862
H	-2.385063108	 0.5549930149	 0.2883568831	 0.146317
H	-1.8057395963	-0.0761724026	 1.8431961947	 0.118548
H	-0.0271916492	 0.4538557546	-0.6175418958	 0.104191
H	 0.5410807556	-0.1743482054	 0.9366962138	 0.113704
H	-1.3873208682	-0.822990555	-1.926437749	 0.132108
H	-0.998708629	-2.5489191874	-1.8019196218	 0.132751
H	-4.6717160794	-1.9611595134	-1.2126830316	 0.251923
H	-2.0000366666	-2.77435957	 0.8536350101	 0.264512
H	-3.7704863904	-3.6718793974	 1.9397676814	 0.093489
