18
gdb 107550	2.35872	1.39316	1.06907	2.271	72.26	-0.2414	-0.032	0.2093	1160.6801	0.146265	-439.035064	-439.026069	-439.025125	-439.069693	32.252	
O	 0.374909902	 1.205321479	 0.5294485072	-0.404638
C	 0.0939129362	-0.1011374323	 0.0430184777	-0.192629
C	-1.379860835	-0.3897930742	-0.0173186995	 0.308095
C	-2.1670431516	-0.9261822175	 1.1132824199	-0.283882
N	-1.9388170115	-1.7990467165	-0.0552184	-0.166774
C	-2.9335074834	-1.3449779279	-1.0960367731	-0.180651
C	-2.3301338083	 0.0750598226	-1.1498070239	-0.169704
C	-3.1848533165	 1.2639946231	-0.8060784875	 0.150222
O	-4.3586395279	 1.2131181086	-0.5367273805	-0.245383
H	 0.1665449101	 1.8370143796	-0.1656634864	 0.284727
H	 0.5522661201	-0.2685825042	-0.9437963065	 0.094448
H	 0.5624076262	-0.8005725847	 0.7423965223	 0.127557
H	-1.6130859187	-1.2394279822	 1.9925425623	 0.128538
H	-3.1718274011	-0.559811483	 1.3096500929	 0.135132
H	-2.8027185354	-1.9173560765	-2.0151078148	 0.117581
H	-3.974829129	-1.4014909797	-0.7698533656	 0.132212
H	-1.7758979542	 0.279820444	-2.0725504436	 0.095089
H	-2.6328084121	 2.2332353717	-0.7741410608	 0.070059
