18
gdb 36743	4.18086	0.79961	0.77324	4.0075	73.18	-0.2583	0.0072	0.2655	1489.5727	0.147648	-439.082794	-439.073929	-439.072985	-439.118263	30.958	
N	 0.6888017312	-1.1188645603	-0.2312734295	-0.290948
C	 0.4830694215	 0.0169680762	-0.2249043542	 0.266432
C	 0.182673609	 1.4520873861	-0.2258876183	-0.195496
O	 1.351274361	 2.1643107519	 0.0924857081	-0.255195
C	 1.1540377339	 3.5757982558	 0.1988770722	 0.098522
C	 2.4244412974	 4.1598072462	 0.8216596225	-0.243455
C	 3.2975972149	 4.3773986057	-0.4157324569	-0.069419
O	 2.3943673726	 4.8339423139	-1.418592656	-0.256049
C	 1.109446365	 4.2710273861	-1.1820143581	-0.078548
H	-0.2169676831	 1.7197177468	-1.2167105639	 0.142076
H	-0.6173551622	 1.6433891496	 0.5084788022	 0.140477
H	 0.2507066799	 3.7714271373	 0.7923158375	 0.075958
H	 2.1953678073	 5.1175161841	 1.2984162726	 0.113664
H	 2.8533376549	 3.4831208253	 1.5622991502	 0.12304
H	 4.068681229	 5.1412035934	-0.2863809706	 0.112264
H	 3.77991755	 3.4369749127	-0.7203082631	 0.108468
H	 0.8577804575	 3.5478476282	-1.9704393602	 0.101535
H	 0.3651459603	 5.0763088409	-1.2088002845	 0.106676
