20
gdb 109231	3.32671	1.06501	0.8716	2.2764	81.96	-0.2105	0.0234	0.234	1369.5277	0.170626	-403.12749	-403.118485	-403.117541	-403.161248	33.731	
C	-0.0561905358	 1.4713549144	-0.0250373555	-0.414575
C	-0.0136522294	-0.0329459245	-0.1311075754	 0.031169
C	 0.7548868849	-0.7456702519	-1.1965759766	-0.167423
N	 1.2679583074	-0.6661166474	 0.1947281599	-0.121976
C	 1.1641109324	-2.0357847193	 0.7520012645	-0.208404
C	 0.5586063368	-2.8873824276	-0.3406877698	-0.192246
C	 0.3596397027	-2.1646486698	-1.4444072458	 0.337346
C	-0.1860340521	-2.6173645463	-2.7579022403	-0.188683
O	-0.4420992817	-4.0086599124	-2.7147787288	-0.412922
H	 0.8761067391	 1.908883408	-0.3920452942	 0.125354
H	-0.8881898129	 1.8822798356	-0.6073894306	 0.111917
H	-0.1850642021	 1.7834239596	 1.0173140341	 0.120153
H	-0.9126399175	-0.5522983402	 0.2039914366	 0.081046
H	 1.2857540506	-0.1817720391	-1.9620609013	 0.082853
H	 2.166476689	-2.3847313857	 1.036451135	 0.110325
H	 0.5637266039	-2.0245488634	 1.6716332916	 0.108577
H	 0.3144752051	-3.9354742897	-0.2283362796	 0.111475
H	-1.1029822324	-2.0456246348	-2.9876210622	 0.098935
H	 0.5377500734	-2.3643274598	-3.5536395067	 0.096822
H	-0.7980610013	-4.2736980956	-3.5674198748	 0.290256
