15
gdb 71927	2.72915	1.99875	1.40849	2.2607	64.63	-0.2414	-0.0349	0.2065	893.0824	0.112549	-457.719275	-457.712372	-457.711428	-457.750423	27.35	
O	 0.3956940751	 1.3653053938	-0.1405458631	-0.466589
C	 0.1331782227	 0.0185467161	-0.1032847299	 0.301451
C	 0.4116603098	-0.785700853	-1.3899940872	-0.294095
C	-0.740218777	-1.75011862	-1.0469552425	 0.108119
O	-0.3524007391	-2.6953266628	-0.0173245676	-0.298535
C	-0.6637833243	-1.7548696952	 1.0255264857	-0.016591
C	-1.3023152326	-0.7600874367	 0.0071810015	-0.188501
C	 0.4424632255	-0.6986456241	 1.2107119287	 0.330879
O	 0.9975385911	-0.2521538979	 2.1797299014	-0.324291
H	 0.6409534827	 1.6351779949	 0.756276265	 0.298717
H	 0.1412924616	-0.1589195351	-2.2466418172	 0.124832
H	 1.4079756444	-1.208328805	-1.539646469	 0.120613
H	-1.2976952817	-2.2300045582	-1.8516195728	 0.094689
H	-1.1232487071	-2.2035764591	 1.9065329206	 0.105312
H	-2.2793134012	-0.2942585078	 0.0748815964	 0.103991
