15
gdb 32550	2.78474	1.53041	0.99476	4.4271	72.42	-0.2137	-0.0395	0.1743	1125.4096	0.113702	-453.987763	-453.979729	-453.978784	-454.020759	29.118	
C	 0.0720107513	 1.4159189817	-0.0613048167	-0.328273
N	-0.0665115898	-0.0078877512	 0.1080000223	-0.352761
C	-1.2612533289	-0.6519911226	 0.0551148363	 0.157638
C	-2.4880754057	-0.0771069596	 0.0253767905	-0.065982
O	-3.6264776273	-0.84540201	 0.0122452372	-0.161217
C	-3.478351513	-2.1719693868	 0.016505243	 0.126899
N	-2.3827258352	-2.8339221346	 0.0190483493	-0.319632
C	-1.1746908114	-2.1338783022	 0.0230183463	 0.370724
O	-0.0913411559	-2.688301494	-0.0056644917	-0.367553
H	 1.1291664893	 1.6825736785	-0.0171106606	 0.139652
H	-0.3354386562	 1.7673954705	-1.0220713999	 0.123024
H	-0.4451722035	 1.9586847672	 0.7411268174	 0.131127
H	 0.7198849838	-0.6246586771	-0.0367566142	 0.264361
H	-2.7146457686	 0.9781408718	 0.020178176	 0.133283
H	-4.4443176892	-2.6686477217	 0.0151532049	 0.148709
