23
gdb 119399	3.90356	0.92617	0.88685	1.7962	85.26	-0.234	0.0792	0.3132	1447.6296	0.20682	-388.277766	-388.268986	-388.268042	-388.311572	34.265	
C	-0.0318981864	 1.5947704067	 0.0638225789	-0.37901
C	 0.0002981519	 0.0640646139	 0.0747129233	-0.169964
C	-1.3934903178	-0.5593705604	-0.094028228	-0.309715
C	-1.420578523	-2.0715749567	-0.0253548598	 0.310195
C	-1.023883137	-2.8973594231	 1.2503122201	-0.267516
C	-1.7911245796	-3.9972812379	 0.4807111563	 0.103736
C	-2.7579233295	-2.8904909675	 0.0038751093	-0.282367
O	-0.965915924	-4.2354112656	-0.6716534629	-0.281178
C	-0.6621768958	-2.8868586459	-1.0905026812	-0.107061
H	 0.9703036085	 2.0166333373	 0.1875870092	 0.111908
H	-0.4397970785	 1.9758828973	-0.8790750962	 0.114382
H	-0.6593627757	 1.9823975483	 0.8742452054	 0.114045
H	 0.6642298096	-0.2912930175	-0.7229317344	 0.100309
H	 0.4410956505	-0.2865146172	 1.0166224654	 0.101453
H	-2.0595456629	-0.1581310128	 0.681808012	 0.093154
H	-1.8213940833	-0.2364640858	-1.0541938695	 0.094358
H	 0.0356175383	-3.0764384558	 1.4502188184	 0.096712
H	-1.5391097304	-2.5511852587	 2.1487941897	 0.096117
H	-2.103745945	-4.9471968587	 0.910962152	 0.076682
H	-3.4427245925	-2.5405613437	 0.7791186595	 0.096039
H	-3.2856681491	-3.059481682	-0.9386400423	 0.095754
H	-1.0337360358	-2.7119418877	-2.1083259762	 0.094572
H	 0.4223076176	-2.7279927563	-1.0768255589	 0.097396
