15
gdb 21138	3.5265	1.96232	1.28107	1.0141	65.95	-0.2083	-0.0131	0.1952	922.2714	0.118629	-392.127687	-392.119274	-392.11833	-392.161142	28.199	
C	-0.1001875918	 1.4118885558	 0.0142089308	-0.332753
N	-0.0907953364	-0.0398509244	 0.0087901064	-0.370719
C	 0.4899076912	-0.5999493636	-0.9752669472	 0.543943
N	 1.149777146	-0.1302148772	-2.1015659217	-0.329079
N	 1.6136395137	-1.1526339226	-2.883120995	-0.084331
N	 1.2886582958	-2.2411511477	-2.3221124469	-0.104978
N	 0.6140746769	-1.9658695669	-1.1765717705	-0.079782
C	 0.1074615039	-2.9984715443	-0.3064716262	-0.324962
H	 0.9133812133	 1.8467560981	 0.0402324917	 0.100686
H	-0.6183705191	 1.8402412287	-0.8604969065	 0.100674
H	-0.6252850929	 1.766590107	 0.9045867565	 0.127968
H	 1.3088418837	 0.8212739052	-2.3788121345	 0.287338
H	 0.370228928	-3.9611747321	-0.7444224451	 0.157868
H	 0.5504125342	-2.9041561181	 0.6891175825	 0.154087
H	-0.9786843767	-2.9123088779	-0.2106325743	 0.154041
