15
gdb 1255	8.68692	1.1934	1.06309	2.0056	64.97	-0.247	-0.0115	0.2355	1089.4461	0.123635	-341.878745	-341.870435	-341.869491	-341.912175	27.814	
C	 0.1206044508	 1.7312147398	 0.6083084588	-0.310874
N	-0.01252372	 0.3601917029	 1.0571044903	-0.236078
C	 0.1512644266	-0.5526034827	 0.1964449652	 0.115466
N	 0.0387196383	-1.8892765656	 0.5527644609	-0.333998
C	 0.2038926941	-2.9408037938	-0.333065171	 0.41177
C	 0.0309800301	-4.3108350361	 0.2967112635	-0.499461
O	 0.4633990242	-2.7660851986	-1.5047203405	-0.341619
H	 0.9092606595	 2.2306932158	 1.1830650946	 0.127841
H	 0.3560050817	 1.828742018	-0.4630777342	 0.103804
H	-0.8095711399	 2.2753576026	 0.8094996406	 0.127844
H	 0.3853106587	-0.4130309237	-0.8628113076	 0.131977
H	-0.1770919278	-2.0708743991	 1.5222981982	 0.258309
H	-0.9703564654	-4.4172952771	 0.7272221237	 0.144298
H	 0.1776459558	-5.070007807	-0.4703308975	 0.1564
H	 0.7569543932	-4.4627562355	 1.102461425	 0.144321
