21
gdb 52157	3.91251	0.75908	0.72536	2.9806	83.6	-0.2444	-0.0183	0.2261	1617.1161	0.182107	-387.069011	-387.059975	-387.05903	-387.104278	33.202	
O	-0.2492944548	 0.0088410672	-0.4122457598	-0.238508
C	 0.0287951147	 1.1274797168	-0.0641234296	 0.158395
C	 1.348749038	 1.8163985158	-0.3153409982	-0.263709
C	 1.1668115906	 3.129359191	-1.1035357581	-0.237912
C	 2.4674262461	 3.8955748337	-1.2438373992	 0.013486
C	 3.5465268288	 3.6085793306	-2.2556197745	-0.062113
C	 2.9623043368	 3.2157145416	-3.6201559415	-0.230854
C	 2.1754647549	 4.5658438536	-3.6578434732	-0.228274
C	 2.7679778174	 4.9344702314	-2.2907177447	-0.087503
H	-0.7152886733	 1.7555697573	 0.482897691	 0.066887
H	 1.7947055253	 2.0468855434	 0.6635227239	 0.113997
H	 2.015790973	 1.1256709505	-0.8384479765	 0.12515
H	 0.7417253423	 2.8983637433	-2.0851323868	 0.115774
H	 0.4289158887	 3.762293915	-0.5921500052	 0.101734
H	 2.8934035432	 4.1698193712	-0.2787896472	 0.082296
H	 4.571148294	 3.4311779163	-1.9499546227	 0.082283
H	 3.7232891835	 3.1655271426	-4.4015212786	 0.105603
H	 2.3766544796	 2.2912260032	-3.6558637236	 0.099464
H	 2.5318194207	 5.2212748712	-4.4552668721	 0.104845
H	 1.0838828516	 4.5127155005	-3.7234136892	 0.09659
H	 3.103742369	 5.9267009738	-2.011769724	 0.08237
