18
gdb 87417	4.01657	1.35723	1.22972	2.6241	75.25	-0.2416	0.0842	0.3259	1059.8551	0.147812	-401.859376	-401.852017	-401.851073	-401.891009	29.268	
C	 0.0837147709	 1.4768315571	-0.145409216	-0.415065
C	 0.0149076817	-0.0098702492	 0.0881325699	-0.065682
O	 1.2671212269	-0.7343780265	 0.0287901306	-0.311148
C	 0.5788094156	-0.6691759232	 1.2625745852	 0.533375
C	 1.0674255163	-0.084243009	 2.5629068806	-0.174016
C	 0.1014849368	-0.931488118	 3.3160802991	-0.04262
C	 0.0604476455	-1.8773152735	 2.0519018071	-0.217367
C	 1.3751533558	-2.4532003454	 2.6048611745	-0.149395
N	 1.5529511478	-1.2110029407	 3.4405935306	-0.151796
H	 0.9197562517	 1.9219617053	 0.3994142735	 0.128553
H	 0.2179699601	 1.6898479455	-1.2109322591	 0.132118
H	-0.8445579749	 1.9595501954	 0.1790554719	 0.123736
H	-0.8010253213	-0.5216303742	-0.4264158673	 0.091994
H	 1.4492507315	 0.9019309462	 2.7876564646	 0.104822
H	-0.5713646281	-0.7170527521	 4.1345368888	 0.104483
H	-0.7609470383	-2.4871638603	 1.68227096	 0.080836
H	 1.2358234093	-3.29834422	 3.2825333514	 0.109724
H	 2.1803506827	-2.6606073575	 1.8921415346	 0.117448
