21
gdb 95845	2.27458	1.41389	1.115	1.2324	83.9	-0.2516	0.0405	0.2921	1209.9414	0.182513	-387.074985	-387.066005	-387.065061	-387.108252	35.062	
C	 0.0177623561	 1.5455965457	 0.0536676007	-0.400448
C	 0.0246826531	 0.0294472469	-0.0672671991	 0.144929
C	 0.7727775906	-0.4787177174	-1.3046286118	-0.190389
C	 0.8674115196	-2.0109961317	-1.2939085746	-0.220713
C	 1.4599050501	-2.4915929026	 0.0358017516	-0.20742
C	 0.6857258135	-1.8857854107	 1.2243056119	-0.053471
O	 0.6369915241	-0.4663807295	 1.1291974885	-0.265009
C	-0.65357878	-2.4792927545	 1.3689361977	 0.351163
C	-1.7432268712	-2.9730930341	 1.4909641458	-0.498923
H	 1.0411389411	 1.9297416946	 0.1114267579	 0.120235
H	-0.4742798716	 1.9966167124	-0.8134883107	 0.111937
H	-0.5152716409	 1.8540843294	 0.9568521422	 0.123773
H	-1.0134615359	-0.3379511582	-0.1071302692	 0.076024
H	 0.2635837481	-0.1271021736	-2.2092576904	 0.092329
H	 1.7805465916	-0.0423888148	-1.3077882773	 0.095762
H	-0.1334993107	-2.4418718827	-1.4212236067	 0.10966
H	 1.4756446318	-2.3674639844	-2.1316823799	 0.094992
H	 1.4503166777	-3.5835741554	 0.1083930904	 0.105162
H	 2.501286596	-2.1598320519	 0.1217781463	 0.101699
H	 1.2406541057	-2.0781587503	 2.1497312083	 0.109926
H	-2.7054946487	-3.4067591272	 1.6097033286	 0.198782
