14
gdb 15849	2.66576	2.15869	1.34217	4.2611	63.34	-0.2862	-0.0023	0.2838	893.1858	0.107047	-378.735739	-378.728212	-378.727268	-378.767856	26.982	
C	-0.3002010502	 1.4964174668	-0.0216166357	-0.408671
C	 0.0994982091	 0.0414876651	-0.0108992597	 0.131838
O	 1.330726964	-0.20608129	-0.7738618616	-0.256767
C	 1.9969916614	-0.6853713977	 0.3265217389	 0.448016
N	 3.1634310857	-1.1005269872	 0.4862362985	-0.525159
C	 0.7936604744	-0.5464464046	 1.2605467632	-0.318366
C	 0.9392360443	 0.3154642036	 2.4189261274	 0.304255
N	 1.033340055	 1.01592322	 3.3329906596	-0.321845
H	 0.4989824088	 2.1296767793	 0.3718376496	 0.151256
H	-0.5273119358	 1.8101666001	-1.044204882	 0.140923
H	-1.1935813805	 1.6458417446	 0.5924639107	 0.14246
H	-0.695282761	-0.604921115	-0.3920760438	 0.112381
H	 3.7049965599	-1.0627084726	-0.3784186828	 0.240834
H	 0.3948706648	-1.5164712323	 1.5672648778	 0.158845
