18
gdb 42911	2.76605	1.5032	1.20848	3.7513	75.21	-0.2354	-0.0199	0.2154	1066.0552	0.148698	-401.905145	-401.897345	-401.896401	-401.937787	29.849	
O	 0.5735709809	 0.2863326526	-0.6280339405	-0.333887
C	 0.2579067718	 1.3804603416	-0.2447648497	 0.404933
C	-1.0430369651	 2.0546874715	 0.0549445272	-0.169775
C	-0.9415770242	 2.7661067649	 1.4044769606	-0.282877
C	-0.2720178515	 3.3913096363	 0.2370521816	-0.067886
C	 1.0718221698	 2.6923790286	-0.0638227779	-0.154314
C	 2.2290898893	 2.7320173324	 0.9045925204	-0.000343
C	 2.4068417499	 1.7038842415	 1.964602937	-0.246262
N	 3.2837092699	 1.7118072904	 0.7823404566	-0.326491
H	-2.0040725695	 1.8476001577	-0.3982035483	 0.114904
H	-1.8766419392	 3.2162949103	 1.7216465307	 0.13009
H	-0.3612479701	 2.3321386332	 2.2110615494	 0.133339
H	-0.5652739839	 4.3519689827	-0.1647006653	 0.107675
H	 1.4264054553	 2.9811573565	-1.0629944734	 0.112466
H	 2.618326385	 3.7307926523	 1.0991848041	 0.093051
H	 2.8920460378	 1.9695334521	 2.8997039473	 0.116946
H	 1.6690608798	 0.9103337173	 2.0473784776	 0.1204
H	 2.9689294939	 0.9881724182	 0.1369250125	 0.248031
