15
gdb 66617	3.01715	2.00298	1.91829	2.1488	61.21	-0.2549	0.0625	0.3174	787.4214	0.114669	-457.717695	-457.71191	-457.710966	-457.747517	24.873	
O	-0.0890846767	 1.3232700019	 0.0784186488	-0.47765
C	-0.0035447591	-0.0511353559	 0.0095142623	 0.419425
C	-0.3088111831	-0.8752427763	-1.2276894002	-0.192612
C	-1.2412998968	-0.9067572583	-0.0231646508	-0.150492
C	-0.587935769	-2.1956545824	 0.5032603251	 0.029495
O	 0.2625456301	-1.801077401	 1.5722473975	-0.229425
C	 1.0552961965	-0.9005066352	 0.8098031292	 0.034925
O	 1.6347569045	-1.7387186329	-0.1838310399	-0.236038
C	 0.4039496595	-2.1558110584	-0.7672753299	 0.027026
H	 0.6097021459	 1.7001407482	-0.4677736185	 0.292284
H	-0.4465478119	-0.4747986761	-2.2235835662	 0.096912
H	-2.2476304656	-0.5328588532	 0.1085648129	 0.104561
H	-1.1658152065	-3.0827541984	 0.7444704561	 0.092467
H	 1.8015435559	-0.3922383715	 1.4138264697	 0.097132
H	 0.5315532061	-3.0168533206	-1.4166735862	 0.091991
