17
gdb 27170	3.12591	1.30647	0.99474	1.7999	77.19	-0.1905	0.0107	0.2012	1186.2574	0.137646	-418.025234	-418.017056	-418.016112	-418.058733	30.398	
N	 0.114384483	 1.4266533338	-0.3553992301	-0.601881
C	-0.0014246634	 0.0593830457	-0.0909385279	 0.144214
C	-1.1150612856	-0.7040373625	 0.1002323485	 0.317688
O	-0.6777760346	-2.0050649429	 0.2744684981	-0.192651
C	 0.6612660932	-1.9368711096	 0.1593793505	 0.061099
N	 1.1269704999	-0.7493878076	-0.0544254072	-0.299944
C	-2.5521807903	-0.4290775863	 0.1478418277	-0.1164
C	-3.5704880339	-1.4808113631	-0.2420251416	-0.264132
C	-3.4537538441	-1.0574848658	 1.1964486426	-0.266446
H	 1.0796147747	 1.7190960683	-0.2715527245	 0.252536
H	-0.4707858163	 2.0023319459	 0.2359075203	 0.24633
H	 1.2090799049	-2.8607261036	 0.2567042358	 0.145059
H	-2.7868614843	 0.5912051113	-0.1382829031	 0.092917
H	-4.4355633166	-1.1589745574	-0.8108452089	 0.115695
H	-3.1886966888	-2.4583926191	-0.5122188905	 0.128123
H	-2.9920952809	-1.7515869493	 1.8896064799	 0.123673
H	-4.238769247	-0.4439247378	 1.6246481804	 0.11412
