17
gdb 85655	2.03117	1.69439	1.1908	4.1259	72.53	-0.2319	-0.0483	0.1836	1082.0806	0.136053	-418.027889	-418.019342	-418.018398	-418.061625	31.12	
C	 0.9737288885	 1.1920236122	-0.3085340303	-0.346588
N	 0.0730624125	 0.0810178548	 0.00770547	-0.063696
C	 0.0111116653	-0.9527062853	-1.0315175244	-0.199627
C	 1.1292377073	-1.9922784408	-0.7184723625	-0.266532
C	 2.3875331193	-1.7275024396	-1.398875671	 0.287728
N	 3.3827206988	-1.4977682104	-1.9419955143	-0.326358
C	 1.283792964	-1.8362508398	 0.8351681343	 0.391773
O	 1.9144802102	-2.5553349035	 1.5518697624	-0.27615
C	 0.4288023008	-0.6223536505	 1.2338894655	-0.288509
H	 2.0325787697	 0.9065664536	-0.4217808551	 0.12849
H	 0.6475117538	 1.662277177	-1.2400762258	 0.132319
H	 0.9051752503	 1.9415601522	 0.4849343049	 0.130791
H	-0.9560762117	-1.4658864523	-0.9736464764	 0.121074
H	 0.1034673751	-0.5125530625	-2.0245991227	 0.135781
H	 0.8281343892	-3.0226584503	-0.929964521	 0.152905
H	 0.9587604032	 0.0122216915	 1.9471750505	 0.146924
H	-0.4676557162	-1.0100725463	 1.7410495757	 0.139674
