20
gdb 82249	2.46513	1.89705	1.40279	2.4688	76.53	-0.2366	0.0651	0.3017	988.7506	0.174352	-403.117874	-403.110515	-403.109571	-403.149576	30.276	
O	 0.0739854501	 1.4292132065	 0.1435722677	-0.437726
C	 0.0456353101	 0.0230835867	-0.0111040962	 0.125511
C	 0.7755810429	-0.6997018203	 1.1179367394	-0.076715
N	 0.0917645994	-0.4389944343	 2.4051009921	-0.352238
C	-0.0990197439	-1.738162987	 1.7128563729	-0.050754
C	-1.4014730403	-1.8342545423	 0.9359602689	-0.020604
C	-2.683130013	-1.2716655343	 1.6178009181	-0.219934
C	-2.5207096019	 0.0493672493	 0.8123512676	-0.217426
C	-1.3821723849	-0.6045611999	-0.0268853439	-0.042226
H	-0.1366531716	 1.5911815973	 1.0718268399	 0.289086
H	 0.54906841	-0.1775337422	-0.9629570866	 0.080188
H	 1.8582108733	-0.7757001757	 1.1039341548	 0.087327
H	 0.7481784782	-0.5597377445	 3.1715976792	 0.234153
H	 0.3170151706	-2.6235981991	 2.1840721798	 0.08362
H	-1.4936782571	-2.824191899	 0.4810375056	 0.06323
H	-3.582538487	-1.831728291	 1.3505043347	 0.09392
H	-2.6371821866	-1.1793621939	 2.7047606891	 0.101054
H	-3.3936539404	 0.3675665565	 0.23793598	 0.092931
H	-2.1887650528	 0.8894716531	 1.4230893946	 0.099259
H	-1.696295545	-0.8237152658	-1.0491398776	 0.067344
