19
gdb 12011	3.16176	2.00783	1.73936	0.2408	70.25	-0.2345	0.0772	0.3117	857.6669	0.166418	-365.055121	-365.047452	-365.046508	-365.086387	30.63	
C	-0.0223520307	 1.524596894	 0.0094999333	-0.450621
C	 0.0352408217	-0.0007144314	-0.0086974949	 0.41154
O	-1.282008298	-0.5639277095	 0.0522473823	-0.483903
C	 0.8264544539	-0.5771514982	-1.214620259	-0.258674
C	 1.3563221645	-1.9530414893	-0.748818241	-0.211313
C	 1.5370394032	-1.7769358695	 0.7477454956	-0.024799
N	 2.2180070875	-0.5069008327	 1.0999877306	-0.353783
C	 0.7468961466	-0.6075900818	 1.1923922807	-0.048099
H	 0.9840207815	 1.9424412026	 0.1009167689	 0.133993
H	-0.4684717217	 1.9133836324	-0.9143162015	 0.101064
H	-0.6281919739	 1.8726836486	 0.8517668627	 0.115431
H	-1.790207629	-0.1935181686	-0.6769666197	 0.274132
H	 0.1877894184	-0.645898533	-2.1004656714	 0.080901
H	 1.6616902419	 0.0844695538	-1.4543443145	 0.115217
H	 0.6126612816	-2.7376312109	-0.9248911575	 0.106132
H	 2.2791956171	-2.240276023	-1.2621254715	 0.097534
H	 1.6843971848	-2.6408156325	 1.3877520645	 0.081672
H	 2.6106866195	-0.5893252546	 2.034233706	 0.230019
H	 0.2569821611	-0.5601739662	 2.1593252264	 0.083556
