19
gdb 80929	2.84765	1.42783	1.25434	3.08	76.28	-0.2403	0.081	0.3213	1096.9019	0.156687	-422.936939	-422.928312	-422.927368	-422.969646	33.251	
C	-0.0664009473	 1.5827663986	 0.0049608071	-0.436547
C	-0.0384178011	 0.0659033704	-0.011623106	-0.005141
C	 1.2210785069	-0.6468819592	-0.5842102909	-0.091092
O	 1.9880584221	-0.2000075791	 0.6035555115	-0.34793
C	 0.6837742543	-0.6794632256	 1.1616332276	 0.268977
C	 0.4755122211	-0.6175173429	 2.6394935879	-0.52451
C	 0.8208049904	-1.8879565115	 0.2172299773	 0.536936
C	 0.1618120966	-3.1661599441	-0.003956744	-0.310744
O	 1.5443165412	-3.0587192087	 0.4272078275	-0.285595
H	 0.906371378	 1.9794497007	 0.3015172102	 0.140036
H	-0.3184764464	 1.9769826112	-0.985103146	 0.116301
H	-0.8237197157	 1.9504622947	 0.705819802	 0.115247
H	-0.9971848555	-0.3711800328	-0.3131791757	 0.069814
H	 1.6989002675	-0.5539276826	-1.5585323601	 0.098821
H	 0.5546720443	 0.4125535851	 2.9993534283	 0.13771
H	-0.5177242484	-0.9985234894	 2.8980682839	 0.126966
H	 1.2259736699	-1.2263104456	 3.1520320337	 0.147589
H	-0.5217886951	-3.5687446407	 0.7418307684	 0.120566
H	 0.0244253772	-3.5458205884	-1.0150386227	 0.122599
