21
gdb 61657	3.90423	0.78827	0.75018	4.3651	84.5	-0.2298	0.0397	0.2695	1585.934	0.182717	-383.264794	-383.255214	-383.254269	-383.299963	34.629	
C	-0.0284695	 1.6190104023	 0.0850259576	-0.384347
C	-0.0817754037	 0.081055407	 0.0378063444	-0.149733
C	 0.6981089451	-0.5707512359	 1.2058725546	-0.148956
N	 2.1066825698	-0.2639289059	 1.1188489435	-0.065626
C	 2.9512592078	-1.0156581509	 0.1627183861	-0.165351
C	 4.0880216537	-1.0061165924	 1.2123109636	-0.22838
C	 2.9837299195	-0.6620263202	 2.2405651633	-0.162452
C	-1.4658000995	-0.4006285362	 0.0326372519	 0.266608
N	-2.5580083412	-0.7789961793	 0.0446237922	-0.324817
H	 1.0156133309	 1.9328296422	 0.1349563948	 0.141098
H	-0.4986322925	 2.0575035369	-0.7982791243	 0.130778
H	-0.54802561	 1.9943066853	 0.9714952601	 0.132246
H	 0.3760497147	-0.2601285002	-0.9002158545	 0.12849
H	 0.3138929751	-0.174578534	 2.1532329289	 0.117921
H	 0.5058123328	-1.6601912749	 1.2067560008	 0.094058
H	 2.573137875	-2.0334451144	-0.0316419261	 0.089742
H	 3.1283995217	-0.5167861006	-0.7955864744	 0.104718
H	 4.6356065743	-1.9364797396	 1.3612005503	 0.110295
H	 4.7932758447	-0.1873005957	 1.0614476746	 0.117097
H	 3.1792964628	 0.127941967	 2.9728833592	 0.106216
H	 2.6228570388	-1.5574304402	 2.7720695636	 0.090396
