15
gdb 130340	3.72688	1.32682	1.04451	3.4985	67.68	-0.2203	0.0121	0.2323	1094.1642	0.115371	-450.118636	-450.110876	-450.109932	-450.151385	28.449	
N	-0.070649365	 1.5670101014	-0.0768351305	-0.497191
C	 0.0448923739	 0.132132466	-0.0413241428	-0.118755
C	-1.3168983106	-0.6660171896	 0.1445953788	-0.176634
N	-0.9355608834	-1.4533906689	-1.0459702008	-0.126739
C	 0.1726728027	-0.7096881554	-1.3218946479	 0.372527
N	 0.6904783569	-0.9150864766	-2.488101997	-0.333497
N	-0.1668192767	-1.9015749596	-2.9826057823	-0.318244
C	-1.2638977332	-2.2189624115	-2.1748774306	 0.440659
O	-2.1905509213	-2.9610313818	-2.4003763109	-0.415477
H	 0.8454558136	 1.9990018698	-0.1352343973	 0.247646
H	-0.5930814535	 1.8692919063	-0.8938162537	 0.240558
H	 0.7820840455	-0.1448184603	 0.7162190923	 0.123144
H	-1.4236048149	-1.2546239476	 1.057069291	 0.141047
H	-2.1993137171	-0.040892331	-0.0108642266	 0.141813
H	-0.0602943668	-2.2152770913	-3.9318297817	 0.279143
