20
gdb 52417	5.584	0.54181	0.53079	2.9024	77.56	-0.2409	-0.0309	0.21	2070.6874	0.168171	-440.239921	-440.229947	-440.229003	-440.276871	34.387	
O	 0.0652278654	 0.6981582028	 1.1143009122	-0.227599
C	 0.3979614261	 1.1518465477	 0.0520561734	 0.130493
C	 1.8110504909	 1.6262258433	-0.2725661649	-0.154934
O	 1.8617054088	 2.4222972332	-1.4283554358	-0.240096
C	 1.4272383045	 3.7558649501	-1.2169723247	-0.066292
C	 1.514758164	 4.4903999856	-2.5485060072	-0.157408
N	 1.0677535817	 5.866055419	-2.3848750024	-0.067597
C	 2.1001102271	 6.8500073616	-2.0650205536	-0.220866
C	 1.4839688967	 6.805124484	-3.4191274944	-0.217957
H	-0.304113306	 1.2324781734	-0.8105349498	 0.088298
H	 2.2388910408	 2.1252953813	 0.6100944465	 0.120202
H	 2.4162942115	 0.7317629134	-0.4714207339	 0.13932
H	 0.3926927244	 3.7890154376	-0.8430449517	 0.108233
H	 2.0635069471	 4.2480504802	-0.4635289763	 0.097057
H	 2.5475552811	 4.4154584254	-2.9323576519	 0.091283
H	 0.8604967972	 3.993715931	-3.273493179	 0.114653
H	 1.817059115	 7.619682482	-1.3531303086	 0.11998
H	 3.1277752898	 6.5000672003	-1.9764825547	 0.111228
H	 2.1016811298	 6.4272450353	-4.2324355966	 0.111984
H	 0.742017424	 7.5412596327	-3.7146038466	 0.120016
