18
gdb 9542	3.36985	1.58913	1.39569	3.3277	63.68	-0.2488	0.0588	0.3076	955.2006	0.151929	-422.051701	-422.042859	-422.041915	-422.085057	32.271	
C	-0.2866102489	 1.6288490082	 0.2100376831	-0.427532
C	-0.0853517455	 0.1272722046	 0.1371474452	 0.376371
C	-1.3636628312	-0.6280411306	-0.2359101797	-0.090623
O	-1.7374570202	-0.3398758666	-1.5672147163	-0.421874
O	 0.935226765	-0.228507251	-0.8544866779	-0.336857
C	 1.7611557514	-0.860587342	 0.145225604	-0.099808
C	 0.751476189	-0.5286151146	 1.2662185777	-0.001137
O	 1.1670991102	 0.3885870641	 2.2489225464	-0.423652
H	 0.6646846458	 2.1414233264	 0.3592048986	 0.127305
H	-0.7460429965	 1.9734081059	-0.7199552719	 0.131926
H	-0.9488681089	 1.8844449768	 1.0428483464	 0.121134
H	-1.2026399473	-1.7095654885	-0.0931066051	 0.076131
H	-2.1948095129	-0.3245513402	 0.4103743246	 0.108251
H	-0.9410350235	-0.4908505392	-2.0932450316	 0.29226
H	 1.9267294544	-1.9241714079	-0.0655740877	 0.099678
H	 2.7260795307	-0.3526830238	 0.2619900497	 0.10517
H	 0.2697789751	-1.4057086339	 1.7178549235	 0.072923
H	 1.6592100636	-0.0887475677	 2.9237647009	 0.290334
