17
gdb 2295	8.03973	1.32649	1.23613	2.2394	61.2	-0.2459	0.072	0.318	991.4927	0.147341	-346.822424	-346.81463	-346.813686	-346.855315	26.717	
C	 0.0010016561	 1.4820332432	 0.0580679082	-0.385096
C	-0.1374866002	-0.0162408814	-0.1484739843	-0.04283
O	 0.8953773959	-0.4471945026	-1.0192300668	-0.247952
C	 0.8947648367	-1.8249398602	-1.2533938263	 0.097453
C	-0.0785658008	-2.3873547828	-2.3214641918	-0.094385
O	 1.0229349953	-2.9261976804	-3.0811875945	-0.273049
C	 1.9910299181	-2.2792328485	-2.2285297638	-0.099519
H	 0.9749016031	 1.7198249313	 0.4950337544	 0.128614
H	-0.084605107	 2.010123083	-0.895710563	 0.129322
H	-0.7812817304	 1.8479202695	 0.7296222904	 0.116584
H	-0.0639043398	-0.5512550498	 0.8131983654	 0.089415
H	-1.124357376	-0.256432888	-0.5765726983	 0.091769
H	 0.8719902309	-2.3833082888	-0.3065035949	 0.073579
H	-0.7815284134	-3.1679375929	-2.0088107208	 0.100772
H	-0.6169967165	-1.6014561855	-2.868453611	 0.100895
H	 2.4872809029	-1.4340351165	-2.721957026	 0.110378
H	 2.742879355	-2.9801680997	-1.8499821071	 0.10405
