18
gdb 82582	2.35555	2.21924	1.79554	3.5671	74.2	-0.2337	-0.0172	0.2165	871.1879	0.149216	-401.885063	-401.878169	-401.877225	-401.915943	28.232	
C	-0.4852348977	 1.496214698	 0.2279612068	-0.415277
C	-0.0251103449	 0.0620483935	 0.0216776473	-0.005228
C	 0.559697146	-0.4370846452	-1.3855985679	-0.090996
C	 1.2525176472	 0.6199905465	-2.2978107577	-0.176864
N	 2.2578823704	 1.2683274573	-1.3908392412	-0.255003
C	 2.4316913666	 0.3873828445	-0.5003549867	 0.319689
O	 2.38963154	 0.5257984704	 0.8756771503	-0.274457
C	 1.2623375489	-0.4567829914	 0.7843118001	 0.059035
C	 1.7517998106	-0.9688845461	-0.5735585154	-0.135481
H	 0.3183879296	 2.2031747921	 0.007918964	 0.159067
H	-1.3386081548	 1.7268608808	-0.4190336852	 0.115028
H	-0.8027815447	 1.6524174591	 1.2646946844	 0.118037
H	-0.8288723946	-0.6323410261	 0.2896464915	 0.088222
H	-0.0922981419	-1.1347470052	-1.9144699893	 0.070352
H	 1.6981853445	 0.1569484555	-3.1894904147	 0.107863
H	 0.572769601	 1.4065159735	-2.6387318488	 0.121229
H	 1.1677706963	-1.0021925287	 1.7214491948	 0.098141
H	 2.3259047975	-1.8759021184	-0.7487594223	 0.096644
