19
gdb 30666	3.77224	1.04967	0.87244	0.9048	78.86	-0.2127	0.0226	0.2353	1352.8631	0.15836	-423.045264	-423.036104	-423.035159	-423.080096	33.043	
C	 0.2443146342	 1.5910487894	-0.7501054855	-0.233222
O	-0.23596744	 0.2668587318	-0.7395729918	-0.241921
C	 0.7657897754	-0.7242297299	-0.8940678078	 0.017664
C	 1.5456935306	-0.9787644328	 0.4041108517	-0.401295
C	 0.0557908774	-1.9541731145	-1.3713353684	 0.35746
C	-1.2392524514	-2.216459746	-1.6873626585	-0.261037
C	-1.2828095704	-3.5936581094	-2.0888978422	-0.176274
C	-0.0122731935	-4.0574065938	-1.9868909532	-0.024609
O	 0.8191934579	-3.069865739	-1.5485884563	-0.191493
H	 0.8953012262	 1.8124006799	 0.1077786433	 0.109025
H	 0.8017758699	 1.8134634897	-1.6733992839	 0.106794
H	-0.628409456	 2.2465849851	-0.6994488371	 0.129338
H	 1.4807754531	-0.401977372	-1.6727735906	 0.079077
H	 2.2512235237	-1.8012137491	 0.2612720551	 0.133621
H	 2.1114071471	-0.0925414119	 0.7050388558	 0.113328
H	 0.8525001626	-1.2458979564	 1.2065756632	 0.128789
H	-2.0530556073	-1.5127763415	-1.6380468569	 0.116988
H	-2.1465562284	-4.1549675291	-2.4093436899	 0.108604
H	 0.4545738291	-5.0100157005	-2.1742857168	 0.129164
