18
gdb 93389	2.66112	1.64254	1.23502	1.9701	72.98	-0.2588	0.0118	0.2706	1033.3213	0.149596	-439.081937	-439.074175	-439.073231	-439.114528	30.482	
O	 0.088394709	 1.4768113024	 0.088741753	-0.432541
C	 0.0053894147	 0.0646874674	-0.0230988283	 0.102258
C	 0.7813461858	-0.6001894411	 1.1047450679	-0.122604
O	 0.1291645508	-0.3367750451	 2.3614239066	-0.272087
C	-1.1180978665	-0.9055570532	 2.5237787055	 0.368622
N	-1.5254668778	-1.2894134486	 3.6576490671	-0.514262
C	-1.9711188311	-0.9955213611	 1.3094042365	-0.079519
C	-2.5081796761	 0.2778781856	 0.6797049375	-0.277827
C	-1.4298176905	-0.4883587508	-0.0174169867	-0.070368
H	 0.0030960239	 1.6951232914	 1.0244162402	 0.289126
H	 0.4754396381	-0.1834512276	-0.9798866281	 0.094679
H	 0.8668892594	-1.6822624986	 0.9455440591	 0.113046
H	 1.7814030545	-0.171304182	 1.2013884243	 0.124857
H	-0.7911806217	-1.152360359	 4.3556238619	 0.220429
H	-2.6375988056	-1.8487427356	 1.3162698181	 0.115945
H	-3.5147499939	 0.2391397988	 0.2804990743	 0.124552
H	-2.2426283407	 1.2281667973	 1.1275769271	 0.120633
H	-1.7124632322	-1.0513672502	-0.9002617958	 0.09506
