19
gdb 86996	6.32696	0.63199	0.61135	2.794	77.62	-0.2402	0.0336	0.2738	1769.4147	0.158928	-419.189672	-419.180378	-419.179434	-419.224783	33.398	
O	 0.0577048185	 1.5014405075	 0.0149420705	-0.4335
C	 0.0854082493	 0.0966592703	-0.0142905541	 0.146559
C	 0.2349625039	-0.5948843231	 1.3668086249	-0.209082
N	-1.2358091625	-0.7599028368	 1.396839296	-0.091207
C	-1.7794482178	-1.9535654646	 2.0013604413	-0.144794
C	-3.3192325423	-1.8926524652	 2.015616492	-0.341564
C	-3.9153226211	-3.0754294795	 2.629498188	 0.258586
N	-4.3679607824	-4.0184489897	 3.1204317787	-0.303288
C	-1.3031108316	-0.5942506189	-0.0746537381	-0.212637
H	-0.566817668	 1.7674551647	 0.6997462006	 0.288579
H	 0.8053503868	-0.1811978261	-0.7840446379	 0.099406
H	 0.7803591824	-1.5498327985	 1.2981639113	 0.093731
H	 0.6549015967	 0.0045483267	 2.1815800005	 0.108713
H	-1.4569570794	-2.8752872385	 1.4809212855	 0.099257
H	-1.4133237925	-2.0207238842	 3.0314592	 0.127095
H	-3.6425272279	-0.9984318932	 2.5583699889	 0.159587
H	-3.700670244	-1.8008390403	 0.9921061669	 0.155361
H	-2.1369880554	 0.0104114207	-0.4465773476	 0.107052
H	-1.2725973529	-1.5508989314	-0.6223290373	 0.092146
