14
gdb 3334	4.41232	3.45219	2.33774	2.1283	57.21	-0.2332	0.0193	0.2525	587.3824	0.116209	-324.571081	-324.565527	-324.564583	-324.600322	21.259	
C	-0.0774465532	 1.4451561575	 0.2148228653	-0.295906
C	 1.2933783198	 0.8623283708	 0.00422647	-0.059887
C	 2.2214779541	 0.6205599664	 1.171149047	-0.092891
O	 1.5748142511	 0.0061322357	 2.300513611	-0.231856
C	 0.5623346093	-0.860818465	 2.0457294048	 0.11825
N	-0.1535237139	-0.9634208496	 1.0078270589	-0.255976
C	 0.0851941203	-0.0390491633	-0.0602008224	 0.021112
H	-0.3726394863	 1.7245367449	 1.2208101654	 0.129266
H	-0.4938020718	 2.0677101717	-0.5694261832	 0.11776
H	 1.8069431736	 1.100616876	-0.9227730791	 0.094067
H	 3.0425515372	-0.0363216807	 0.8543701301	 0.115466
H	 2.6579442952	 1.5466848551	 1.5579323437	 0.120015
H	 0.3912025062	-1.5011376925	 2.9085404323	 0.124217
H	-0.2489024016	-0.4052356071	-1.0245016838	 0.096362
