23
gdb 99873	1.96005	1.41128	1.04091	3.0959	86.14	-0.244	0.038	0.2819	1303.5704	0.203914	-384.484556	-384.47344	-384.472496	-384.520019	41.009	
C	-0.0578512431	 1.4656275614	 0.1370646274	-0.338973
N	-0.020134151	 0.0183922296	-0.0705578196	-0.286843
C	 0.6690874193	-0.4680631696	-1.2733389111	 0.104018
C	-0.0128899874	 0.0922939689	-2.5361394285	-0.414618
C	 2.0882503847	-0.0113230199	-1.2622932433	 0.270423
N	 3.1772992735	 0.3728554142	-1.1901769234	-0.364163
C	 0.6585667291	-2.0337436004	-1.2249447079	 0.016351
C	-0.7685560815	-2.599023499	-1.2426344026	-0.406806
C	 1.5224331245	-2.6843285718	-2.3131870757	-0.420105
H	 0.9270950536	 1.9547680237	 0.0749750622	 0.125554
H	-0.7231385365	 1.9373499973	-0.5911960605	 0.129953
H	-0.4738004962	 1.6574330865	 1.1295248744	 0.126212
H	 0.4062108325	-0.4206359128	 0.7392630254	 0.22648
H	 0.1208174105	 1.1732414455	-2.610068473	 0.135568
H	 0.4129007368	-0.3533034324	-3.4372253953	 0.134374
H	-1.0822792346	-0.1244545315	-2.4973416642	 0.135244
H	 1.1096722046	-2.2911688332	-0.2557948114	 0.081708
H	-0.7450077271	-3.6681752993	-1.0103096068	 0.114327
H	-1.4036130637	-2.096219653	-0.511064914	 0.13296
H	-1.2290270129	-2.4916984155	-2.2303101494	 0.116843
H	 2.5486624975	-2.3078116875	-2.3034380904	 0.143165
H	 1.5600529396	-3.766371066	-2.1548856664	 0.118875
H	 1.106222148	-2.5186651753	-3.3124208458	 0.119453
