19
gdb 105645	2.07543	1.37762	1.20906	3.236	76.21	-0.2476	0.0193	0.2669	1174.5549	0.158101	-419.187277	-419.177584	-419.176639	-419.221958	34.757	
C	 0.1409642765	 1.5183143241	 0.1483567945	-0.342927
N	 0.1290589285	 0.0598476735	 0.0316336626	-0.324617
C	 0.7307058694	-0.4638106309	-1.1789977677	 0.079098
C	 2.2944359284	-0.4398581086	-1.276281001	-0.115864
O	 2.3644880321	-1.8281122579	-0.9115446451	-0.286895
C	 0.9530699987	-2.0175649312	-1.1560680506	 0.110877
C	 0.2631773948	-2.8803028487	-0.1249840191	-0.409403
C	 0.0224821321	 0.0405789384	-2.3566114983	 0.28307
N	-0.510574919	 0.424481524	-3.307419861	-0.344246
H	 1.1426150666	 1.9724769105	 0.0699026313	 0.10636
H	-0.4889391751	 1.9524600265	-0.6331274684	 0.15593
H	-0.2846180184	 1.7941734858	 1.116206149	 0.130832
H	 0.6060553241	-0.350924945	 0.8266937629	 0.233344
H	 2.686331006	-0.2516568014	-2.2834418049	 0.117232
H	 2.8012412347	 0.2081489894	-0.5531963362	 0.114035
H	 0.7939189272	-2.4345844546	-2.1599981813	 0.095102
H	 0.3970819936	-2.5029373047	 0.8912841571	 0.119777
H	-0.8079708991	-2.9405124946	-0.3373981364	 0.140536
H	 0.6820388286	-3.8903606544	-0.1677121473	 0.137759
