16
gdb 14681	4.07137	0.95737	0.84	3.275	69.26	-0.2623	-0.0011	0.2612	1357.9693	0.12874	-379.919557	-379.910609	-379.909664	-379.954452	30.367	
C	 0.7796513529	 1.3188709208	-0.4667551461	-0.40061
C	-0.0769275483	 0.0520850494	-0.3881561446	-0.114368
N	 0.5266612564	-1.2231268746	-0.7398087482	-0.213433
C	 1.7214911378	-1.2956493622	-1.1010068484	 0.130028
O	 2.2478566976	-2.5213907268	-1.4085232924	-0.194098
C	 3.5962833996	-2.5219085411	-1.8312215321	-0.212895
C	 3.7703618139	-2.0030720299	-3.1989290707	 0.258217
N	 3.9084637422	-1.5850867873	-4.2667238895	-0.288548
H	 1.6412310737	 1.2727655742	 0.2082430927	 0.118587
H	 1.1484740383	 1.5006805133	-1.4818156012	 0.127719
H	 0.1778632057	 2.1842067495	-0.1740602695	 0.121524
H	-0.4747921251	-0.0587775766	 0.6288759642	 0.119568
H	-0.9597702646	 0.167610754	-1.0299277094	 0.122785
H	 2.436403438	-0.4707361954	-1.2034908437	 0.093837
H	 4.2373168758	-1.9442004269	-1.1517511487	 0.155805
H	 3.9264360362	-3.5630686303	-1.7996245825	 0.175882
