15
gdb 47268	2.31589	1.81664	1.0496	4.5622	68.46	-0.248	-0.11	0.1381	1069.9351	0.113959	-453.978751	-453.970907	-453.969963	-454.011834	28.93	
N	-0.0965114231	 1.2360266688	-0.435772367	-0.503139
C	-0.0467631586	 0.0221757823	-0.0463784924	 0.25997
N	-1.1851991606	-0.738469482	 0.1050723041	-0.324036
C	-1.2328275766	-1.9213507501	 0.9492523819	-0.190253
C	-0.0823803072	-2.8692848892	 0.5892310978	-0.310901
C	 1.2555712421	-2.1684292484	 0.7041459154	 0.310633
O	 2.2588712655	-2.6751331368	 1.1312817367	-0.260159
C	 1.2784552189	-0.6857219547	 0.2273591155	 0.251059
O	 2.3246742716	-0.1083624225	 0.0838065079	-0.267216
H	 0.8587834403	 1.5830466657	-0.5394366133	 0.241584
H	-2.0361839288	-0.2001899529	 0.0172204642	 0.255467
H	-1.1878248799	-1.6729712539	 2.02153722	 0.120978
H	-2.1888076463	-2.4218793563	 0.7764327858	 0.130243
H	-0.0731509251	-3.7635569735	 1.216295599	 0.138846
H	-0.2027481622	-3.1828861764	-0.4568584956	 0.146924
