18
gdb 124834	4.33822	0.97659	0.84774	5.0689	74.2	-0.2489	0.0086	0.2575	1357.9889	0.14812	-435.266198	-435.257436	-435.256492	-435.300447	31.802	
C	-0.1354240128	 1.492725227	-0.1075863523	-0.399874
C	 0.1632803846	-0.0056369931	-0.1418521843	 0.110674
O	 1.297072074	-0.2931588503	-0.9571872785	-0.430647
C	 0.5001301278	-0.5360840898	 1.2521958292	-0.141891
N	 0.584112535	-1.9838821696	 1.3074648887	 0.067785
C	 1.4819771773	-2.8222526764	 0.7368050716	-0.093705
C	 1.0610216845	-4.0735078053	 1.1171641298	-0.071322
N	-0.0540117652	-3.9446341645	 1.887928057	-0.193849
N	-0.342927364	-2.6806282534	 2.0034780087	-0.153349
H	 0.7193951675	 2.0465262322	 0.2931864825	 0.129872
H	-0.3352927789	 1.8643846417	-1.1178789454	 0.115259
H	-1.0153274065	 1.7073783468	 0.5071627134	 0.126933
H	-0.7186717128	-0.5520157998	-0.5086737579	 0.09314
H	 1.0666644189	-0.111090751	-1.8733152337	 0.28972
H	 1.4525961164	-0.1033005858	 1.5763062805	 0.131682
H	-0.2768735097	-0.2551675666	 1.9647292104	 0.143946
H	 2.287653161	-2.4592992777	 0.1239781632	 0.154666
H	 1.485038553	-5.0378344244	 0.8887133272	 0.120961
