15
gdb 29938	2.5034	1.72015	1.02619	5.7802	72.49	-0.2253	-0.0523	0.173	1087.7411	0.113946	-454.005675	-453.997801	-453.996857	-454.038188	28.585	
C	-0.0527577849	 1.4614005403	-0.0026644848	-0.349368
N	-0.0134379805	 0.0133750431	 0.0024959737	-0.083489
C	-0.0355024674	-0.8029239842	-1.0716321585	 0.01698
N	 0.0127886756	-2.0951358705	-0.7705402652	-0.326013
C	 0.0696415105	-2.1183011752	 0.5786915129	 0.365018
O	 0.1297982341	-3.238866166	 1.2801286232	-0.393344
C	 0.0563725267	-0.8237241312	 1.1194104526	 0.050696
C	 0.1060006835	-0.5245875028	 2.5066244862	 0.06931
O	 0.1661253997	-1.4209021644	 3.3537485721	-0.353836
H	 0.8480027565	 1.8773205341	 0.4590476511	 0.153833
H	-0.1087306324	 1.807657889	-1.0361094833	 0.152411
H	-0.9296474073	 1.82904683	 0.5389769451	 0.153851
H	-0.0883221891	-0.4086033379	-2.0768149071	 0.1447
H	 0.1611190021	-2.9537785332	 2.2208358693	 0.318162
H	 0.0896717729	 0.5379963289	 2.8190677328	 0.08109
