19
gdb 98452	3.01935	1.22544	1.03513	1.9619	72.28	-0.254	0.0061	0.2601	1223.9871	0.157587	-460.18399	-460.174421	-460.173477	-460.218999	34.549	
C	-0.0863304585	 1.359821499	-0.2072365021	-0.243989
O	 0.0419767431	-0.0634398337	-0.0824375802	-0.259362
C	 0.592440744	-0.6972752948	-1.1431702441	 0.406326
O	 0.956827051	-0.1258598181	-2.1393211371	-0.364201
C	 0.626057949	-2.203766955	-0.9271942531	 0.288037
O	 0.5558627539	-2.5637416531	 0.4264387951	-0.480425
C	-0.3793429074	-2.9073265278	-1.912993224	-0.269405
C	 0.8076754255	-3.1989216767	-2.8674213823	-0.209408
C	 1.7842679123	-2.8848476673	-1.7034051823	-0.249382
H	 0.8954786899	 1.8204269609	-0.3387029142	 0.14754
H	-0.7125792263	 1.6122770654	-1.0660976133	 0.145745
H	-0.5485248201	 1.6997795902	 0.719267971	 0.136964
H	 0.0618243925	-1.87775406	 0.8895101073	 0.287259
H	-0.75757198	-3.807885548	-1.4234132084	 0.11377
H	-1.2186361496	-2.3214453042	-2.2952536338	 0.100851
H	 0.8568231135	-4.1992873677	-3.3009638322	 0.098617
H	 0.8810244504	-2.4574048759	-3.6640791951	 0.124835
H	 2.6573282112	-2.2688485096	-1.9231009656	 0.111805
H	 2.0903540157	-3.7799952335	-1.1574049356	 0.114421
