23
gdb 93785	2.26389	1.33542	1.02446	2.9221	85.58	-0.2304	-0.0079	0.2226	1294.7776	0.206386	-388.342251	-388.332832	-388.331888	-388.376239	36.194	
C	-0.1042475065	 1.5798238839	 0.0338937218	-0.402882
C	-0.0155599365	 0.0520352275	-0.0184247975	 0.032989
C	 0.6602355387	-0.4471689744	-1.3042522366	-0.18942
C	 0.7224845065	-1.9799701895	-1.3543055039	-0.236162
C	 1.4372404834	-2.6004476633	-0.1328056742	-0.057225
C	 2.9681497889	-2.4199475642	-0.1840369302	-0.407979
C	 0.8822244955	-2.0219009108	 1.1704271455	 0.374532
O	 0.5942317953	-2.727401812	 2.1103666082	-0.319019
C	 0.7217671479	-0.5075675861	 1.2175169978	-0.295474
H	 0.8951304271	 2.0306820926	 0.0149908241	 0.112964
H	-0.6635611894	 1.9725837711	-0.8217401878	 0.113038
H	-0.6044218816	 1.9188949307	 0.9469369011	 0.116019
H	-1.0394799319	-0.3500538575	-0.0027917951	 0.080422
H	 0.1144071034	-0.0735612466	-2.1784208999	 0.095263
H	 1.6704981546	-0.0206260396	-1.3703274663	 0.095223
H	-0.3019791868	-2.3716768803	-1.3987485977	 0.102366
H	 1.2203562203	-2.3130466718	-2.2725928784	 0.095531
H	 1.2281236096	-3.6740470636	-0.09515733	 0.089799
H	 3.2631215528	-1.3666674238	-0.2101212552	 0.120159
H	 3.4426741574	-2.8804421309	 0.6875348417	 0.131875
H	 3.3712806835	-2.8992898491	-1.082027719	 0.120699
H	 1.7256044381	-0.059282101	 1.2587159284	 0.113002
H	 0.2110173898	-0.2489824712	 2.1489493231	 0.114278
