16
gdb 128821	3.30817	1.08415	0.86489	0.9326	68.2	-0.2367	-0.0025	0.2342	1313.6481	0.124813	-471.191478	-471.182715	-471.181771	-471.226125	30.693	
C	-0.0553842716	 1.4120128448	-0.0362669785	-0.219816
O	-0.0619035722	 0.0043625671	-0.0286271294	-0.234725
C	 0.7376545938	-0.5436157545	-1.061413556	-0.180515
C	 0.6257820611	-2.027962886	-1.0323168493	 0.243939
N	 1.6014767514	-2.8230505244	-0.5844696329	-0.257634
N	 1.1068493187	-4.0393138934	-0.7121694941	-0.089488
N	-0.131214115	-4.1311187989	-1.2130536352	-0.304182
C	-0.4474022159	-2.8593155167	-1.4194800926	 0.316961
O	-1.6222827916	-2.46160068	-1.9352140597	-0.419416
H	 0.9571159531	 1.8186071415	 0.1177775673	 0.10356
H	-0.4465506198	 1.8187775591	-0.9827681722	 0.103693
H	-0.6973800654	 1.7443963905	 0.7828151001	 0.128424
H	 0.4016775213	-0.159035556	-2.0388694693	 0.099084
H	 1.7935125003	-0.2599427982	-0.9349270774	 0.107094
H	 1.6325012975	-4.8579004305	-0.4563527555	 0.293627
H	-2.1497319257	-3.2508443142	-2.1096750354	 0.309394
