20
gdb 90738	2.62507	1.52054	1.211	3.9757	78.99	-0.2356	0.0218	0.2574	1105.7688	0.173235	-403.18088	-403.172823	-403.171879	-403.213758	31.113	
C	-0.7552095725	 1.2857335863	-0.2198702184	-0.406649
C	-0.1298799453	-0.0912191948	-0.0457209211	-0.008076
C	 1.0882618804	-0.3966584374	-0.9775712217	-0.199077
N	 1.9635353469	-0.4520808127	 0.2113474063	-0.076855
C	 0.8494443158	-0.3116907485	 1.1663894204	 0.020817
C	 1.2850957069	 0.8011461259	 2.1476028749	-0.255513
C	 2.8167421604	 0.8570176076	 1.9426803972	-0.321306
C	 2.9976748193	 0.4226988689	 0.4758047458	 0.360776
O	 3.8350177799	 0.7969180564	-0.3129990562	-0.363107
H	 0.0003840416	 2.0783349482	-0.2349099528	 0.126593
H	-1.2998991427	 1.3374200274	-1.1684293493	 0.1232
H	-1.4637409839	 1.5099917794	 0.5846290019	 0.120755
H	-0.9068408439	-0.8587271427	-0.0900801891	 0.079314
H	 1.0348921622	-1.3476500976	-1.5148675387	 0.114317
H	 1.3781302546	 0.3941009941	-1.6766498286	 0.126764
H	 0.6399209017	-1.2470607475	 1.6984613278	 0.080049
H	 0.8365756809	 1.7606265302	 1.8740500941	 0.113526
H	 0.9951267509	 0.5864382115	 3.1783247964	 0.107076
H	 3.2584165015	 1.8425078032	 2.0943164854	 0.129481
H	 3.3375201154	 0.151404082	 2.5998824356	 0.127915
