17
gdb 22433	4.66686	1.13541	1.07619	2.032	78.89	-0.2185	-0.0128	0.2057	1134.9257	0.135807	-417.801008	-417.793664	-417.79272	-417.83272	29.457	
O	-0.0967905295	 1.4089620582	 0.2016026896	-0.384289
N	 0.0825904145	 0.0179488843	 0.1690513492	-0.240964
C	-1.0128252373	-0.5842634716	-0.0191883569	 0.363071
C	-2.5014072074	-0.1666844608	-0.2613311082	-0.418228
C	-2.6222490821	-1.6200953172	-0.8106133391	 0.230617
C	-3.0128929681	-3.1375175995	-0.8404915718	-0.251056
N	-1.4939351242	-3.1685281925	-1.2087682454	-0.174996
C	-1.8353530261	-1.9663549571	-2.0962789036	-0.184088
C	-1.3902320914	-2.0730346902	-0.0632252526	-0.050836
H	 0.8017507068	 1.7272756833	 0.3432524658	 0.311033
H	-3.0180217638	 0.0118358896	 0.6870138336	 0.131961
H	-2.6860639712	 0.6696447224	-0.9392606403	 0.131266
H	-3.2458541672	-3.6169547677	 0.1129960414	 0.112599
H	-3.6412137689	-3.5135660471	-1.6525593316	 0.110564
H	-2.4096244485	-2.2309466763	-2.9879710261	 0.098557
H	-0.9651266325	-1.3562078188	-2.3507839561	 0.119246
H	-1.4750723431	-2.5246868492	 0.9284928622	 0.095542
