18
gdb 102034	2.13184	1.32133	0.87598	4.2846	70.76	-0.2656	-0.043	0.2225	1319.6094	0.145682	-476.273876	-476.264091	-476.263147	-476.308962	34.564	
C	-0.1013391116	 1.5242620024	-0.0734032499	-0.380085
C	 0.0407199228	 0.0029637051	-0.0583059875	-0.168836
N	 0.7661857815	-0.5187094537	-1.2328243858	-0.131532
C	 2.1194777273	-0.8059826249	-1.1048043969	 0.164148
O	 2.8501147524	-1.2097076835	-1.9745665965	-0.296535
C	 0.0331448312	-0.6718546601	-2.4173693905	 0.399961
O	-1.1483483829	-0.3798292978	-2.4365398289	-0.368672
C	 0.6990110213	-1.2055273303	-3.6793439417	-0.132659
O	-0.240635131	-1.2838010964	-4.7120411493	-0.427779
H	 0.8774268667	 2.014063334	-0.0813630449	 0.123377
H	-0.6630713178	 1.8471534645	-0.9523392661	 0.153022
H	-0.6406517885	 1.855446067	 0.8190429675	 0.128361
H	 0.5852019426	-0.3273133693	 0.830380376	 0.119524
H	-0.9416949771	-0.4706956104	-0.0467895605	 0.148521
H	 2.4670759964	-0.6181816006	-0.0723896107	 0.102692
H	 1.5397723525	-0.5496965152	-3.94300034	 0.13605
H	 1.1467558218	-2.1848909175	-3.4637031324	 0.135277
H	-1.0738044478	-0.9636050035	-4.3341922318	 0.295165
