18
gdb 11118	6.74298	0.98337	0.92341	1.7306	74.89	-0.2531	0.0499	0.303	1247.9253	0.152536	-347.753545	-347.744924	-347.74398	-347.786827	31.78	
O	 0.415229725	 1.0779881225	-0.7176481273	-0.421072
C	 0.1520158829	-0.2480751433	-0.2850923849	-0.082271
C	-1.2350198316	-0.2712881322	 0.3343899517	 0.016691
C	-2.3867953698	-0.0816427701	-0.6908457317	-0.228037
C	-2.6195270619	-1.6297381036	-0.685154158	-0.146788
C	-1.7610872939	-1.7049910231	 0.6223073352	-0.253716
C	-3.9785522673	-2.1270284564	-0.6491606436	 0.299026
C	-5.1130836369	-2.5244938252	-0.5988221962	-0.450153
H	 1.2806219083	 1.0941356669	-1.1364252457	 0.287165
H	 0.200629777	-0.957441976	-1.1288538039	 0.082308
H	 0.89141885	-0.5817973644	 0.4615771256	 0.085664
H	-1.2487892612	 0.4183942015	 1.1819585504	 0.079152
H	-3.2407867115	 0.4483547671	-0.2649093403	 0.11115
H	-2.124128774	 0.3759440538	-1.6464265235	 0.113481
H	-2.0815069553	-2.0970036069	-1.5163696616	 0.10055
H	-1.0245177934	-2.5116732065	 0.6758883474	 0.100608
H	-2.3930524	-1.7464432013	 1.5113072442	 0.114766
H	-6.1132184264	-2.8784167728	-0.5609066677	 0.191474
