17
gdb 20931	7.29825	1.08978	0.96107	3.6891	71.49	-0.197	0.0413	0.2383	1200.1967	0.144335	-360.058646	-360.050699	-360.049755	-360.091409	28.924	
C	 0.0324703631	 1.5555035024	-0.0021417366	-0.401834
C	-0.0280553509	 0.0329860355	-0.0532191067	-0.108572
N	 0.7576759757	-0.4753355983	-1.1735399227	-0.40786
C	 0.8080988443	-1.8525893747	-1.3436449363	 0.454864
C	 0.3739945087	-2.9055652106	-0.5550453569	-0.299329
C	 0.7865312104	-4.0617375626	-1.2576132933	-0.00417
N	 1.4172674033	-3.7767974552	-2.3869397133	-0.235587
N	 1.4205986441	-2.4160095097	-2.4185417785	-0.283519
H	 1.0665376787	 1.9012578838	 0.0835621353	 0.132097
H	-0.4021634416	 2.0000027662	-0.9052027027	 0.116022
H	-0.5329558541	 1.931872959	 0.8546038702	 0.125748
H	 0.3958844587	-0.3888000134	 0.8649960968	 0.122754
H	-1.0767181605	-0.3040567974	-0.1017691265	 0.09974
H	 0.5615053888	 0.023355118	-2.0329862417	 0.229946
H	-0.1683442166	-2.8465007492	 0.3731001328	 0.094117
H	 0.6352666392	-5.0949371215	-0.9788663456	 0.103351
H	 1.9061380386	-1.9446570124	-3.1619795543	 0.262231
