15
gdb 2033	7.37418	1.69002	1.60135	0.6604	57.07	-0.2567	0.0696	0.3262	782.2759	0.124334	-345.615042	-345.608376	-345.607431	-345.645545	25.253	
O	 0.6124026453	 0.838729001	-0.6634973894	-0.431514
C	-0.0359888073	-0.1745015473	 0.0569327182	 0.172425
C	 0.0967602149	-0.2211994669	 1.610881288	-0.358901
C	-1.3826500312	-0.6076704009	 1.6507113856	 0.466199
C	-2.0250310292	-1.715147	 2.3584260649	-0.264213
O	-2.2637718362	-0.347101442	 2.7252793829	-0.269169
C	-1.5884583851	-0.1394176432	 0.2091908164	-0.358893
H	 0.346717057	 1.6877312556	-0.294185863	 0.278287
H	 0.2939438448	-1.1135765498	-0.3945294245	 0.099263
H	 0.8318071642	-0.8979904926	 2.05165501	 0.110364
H	 0.2470727429	 0.7845011377	 2.0208105283	 0.106897
H	-2.8719623895	-2.2305026073	 1.9064738761	 0.115997
H	-1.4578883254	-2.2991259114	 3.0826240252	 0.115996
H	-1.9604835075	 0.8916304654	 0.1846462982	 0.106901
H	-2.1927088177	-0.7512238285	-0.4640075269	 0.110362
