16
gdb 7864	4.41301	1.19195	1.01647	3.9613	62.98	-0.2271	0.0616	0.2886	1132.3124	0.130401	-417.072993	-417.064532	-417.063588	-417.106567	31.075	
N	-0.1064051105	 1.3175027476	-0.1639047971	-0.568879
C	 0.0255032082	-0.048901304	 0.0693114441	 0.452841
O	 1.0983245303	-0.576373593	 0.298696171	-0.393349
N	-1.1622736924	-0.738820385	-0.0138570557	-0.353923
C	-1.162111736	-2.1686211482	-0.0083063856	 0.06322
C	-2.1054723348	-2.917719585	 0.9136424021	-0.341279
C	-2.3728498552	-2.8483984395	-0.5735822191	 0.057375
O	-3.3658060577	-1.9799177024	-1.0494623873	-0.42746
H	 0.7112224418	 1.8316035283	 0.1275527945	 0.25844
H	-0.9766482456	 1.7512283213	 0.1069065242	 0.245229
H	-1.9464825757	-0.3144943594	-0.4872616517	 0.251625
H	-0.1809513568	-2.5871151994	-0.1945001952	 0.132217
H	-1.7829126115	-3.8598480088	 1.3434567686	 0.118907
H	-2.7403732742	-2.3086340031	 1.5485941655	 0.11388
H	-2.2315486724	-3.746563143	-1.1726868059	 0.096654
H	-4.2224022474	-2.3117066166	-0.7624930025	 0.2945
