18
gdb 16982	3.80163	2.25881	2.16008	1.4941	72.18	-0.2214	0.0828	0.3041	745.6092	0.156129	-347.713955	-347.708032	-347.707087	-347.743439	25.587	
C	-0.0463857527	 1.6028458631	-0.219064845	-0.275982
C	 1.5053693007	 1.4781836161	 0.1274654174	-0.309021
C	 1.0981421932	 0.2001329109	 0.8968423703	 0.415072
C	 1.0912417202	-1.336658698	 1.1169082227	-0.32814
C	-0.4895341304	-1.0312265802	 1.1029690929	-0.118032
C	-0.5951752671	-0.1794511742	 2.3582590164	-0.077031
O	 0.5430253763	 0.6771185746	 2.1591600443	-0.31062
C	-0.1114181417	 0.0478985029	 0.0108486192	 0.007791
H	-0.5717823213	 2.2007199282	 0.5235805962	 0.126284
H	-0.3031663662	 1.9476875579	-1.2226188456	 0.096146
H	 2.0936574396	 1.266028042	-0.768071712	 0.106866
H	 1.9730972239	 2.2790757068	 0.7034342313	 0.110749
H	 1.4087102587	-1.9125897477	 0.2472835913	 0.106586
H	 1.5160470291	-1.7423922873	 2.0392899408	 0.100581
H	-1.2292006242	-1.8163501567	 0.9435733692	 0.073026
H	-1.5165012405	 0.4139743152	 2.4103611686	 0.097037
H	-0.4887735398	-0.7519293712	 3.2879774211	 0.097284
H	 0.1469172422	-0.4593498125	-0.920862849	 0.081406
