19
gdb 39558	3.9305	1.50258	1.25877	0.2581	85.38	-0.2123	0.0102	0.2225	1025.1854	0.162172	-348.766175	-348.75945	-348.758506	-348.796821	28.559	
C	-0.0478875559	 1.5254015116	 0.0541450493	-0.37145
C	 1.4167369393	 1.9115718954	 0.0490468418	-0.079089
C	 2.21415148	 0.850859406	-0.1090391683	-0.084955
C	 1.4403767014	-0.4201797455	-0.1764571561	-0.121257
C	 0.6758087512	-0.789602172	 1.0985003659	-0.121257
C	 0.0077436443	-2.1207829327	 1.077049234	-0.084955
C	-0.9560530926	-2.1794887674	 0.1531325493	-0.079089
C	-1.1343895436	-0.8585874481	-0.5663771527	-0.37145
C	-0.0117475533	 0.0037736303	-0.0041783955	 0.357828
H	-0.5748278826	 1.8976037637	 0.9425424833	 0.1079
H	-0.576582785	 1.9489366283	-0.8131880933	 0.104338
H	 1.7496628399	 2.9362041304	 0.1696119915	 0.091603
H	 3.2970119019	 0.8810375138	-0.1554784594	 0.09189
H	 1.742417613	-1.2258164593	-0.838467463	 0.082107
H	 0.9984913135	-0.3393934068	 2.0321624549	 0.082107
H	 0.3071205786	-2.9373581977	 1.7245307172	 0.09189
H	-1.5502139264	-3.0554968207	-0.0810247849	 0.091603
H	-1.0733427659	-0.9657283665	-1.6573606725	 0.1079
H	-2.1218648479	-0.4195270228	-0.3583252016	 0.104338
