23
gdb 96569	2.00698	1.62747	1.23326	1.059	87.24	-0.2353	0.021	0.2563	1171.4095	0.207585	-388.284627	-388.275695	-388.274751	-388.317676	35.186	
C	 0.007457054	 1.577168607	-0.1211105111	-0.402764
C	-0.0317525816	 0.0393905221	-0.017906983	-0.050746
C	 0.2549192009	-0.678100247	-1.3780167486	-0.077862
O	 1.5727995324	-1.1193213145	-1.6033651786	-0.2346
C	 2.5790992513	-0.1482836454	-1.8364813607	-0.066656
C	 3.6107027907	-0.1092898697	-0.7063983136	-0.181967
C	 3.1082771019	 0.4571804157	 0.63816941	-0.259989
C	 2.0915200139	-0.3996644207	 1.3614672248	-0.037941
C	 0.7915873461	-0.5576547816	 1.1045436907	-0.048964
H	 0.9722022423	 1.9684620653	-0.4477003766	 0.12162
H	-0.741414261	 1.9201802306	-0.8436097693	 0.108965
H	-0.2240506732	 2.0341084026	 0.8457122011	 0.117396
H	-1.0795565421	-0.2051411425	 0.1988576107	 0.07668
H	-0.3429241858	-1.594260196	-1.4211138623	 0.104968
H	-0.0851263244	-0.0246771555	-2.1986075263	 0.083476
H	 3.0914987655	-0.4281476149	-2.7677098377	 0.096627
H	 2.1403035824	 0.8456002697	-2.0000324042	 0.090418
H	 3.9915053791	-1.1269141994	-0.5603435038	 0.107694
H	 4.4577843491	 0.4997214222	-1.0497343602	 0.08803
H	 3.97694404	 0.5830441289	 1.2938699027	 0.09668
H	 2.7179583018	 1.4665187651	 0.4713628711	 0.106937
H	 2.4935949738	-0.970292478	 2.1971095294	 0.081727
H	 0.2492820229	-1.2495269639	 1.7461636851	 0.08027
