19
gdb 89747	2.46655	1.56452	1.14324	1.7268	75.76	-0.2515	0.0537	0.3053	1124.0161	0.157587	-422.974261	-422.965713	-422.964768	-423.007384	32.541	
C	-0.7128198899	 1.221216265	-0.0406830109	-0.415586
C	 0.145136574	-0.0345279933	-0.0307828863	-0.07224
C	 1.5259365571	-0.0070751946	-0.7751968455	-0.365691
C	 2.1506077478	-0.7002467462	 0.442141213	 0.389796
C	 3.0200407312	-1.8730453927	 0.5298765539	-0.264431
O	 3.4775789156	-0.5627808708	 0.9068907102	-0.278131
C	 0.9114829554	-0.4063547796	 1.2533324126	 0.376719
C	 0.8435538165	 0.1614438174	 2.6004445425	-0.264533
O	 0.435224871	-1.1905387975	 2.3271557656	-0.282054
H	-0.1377925194	 2.0945263943	 0.2854392045	 0.117334
H	-1.0955928454	 1.4278913033	-1.0455854628	 0.120599
H	-1.5750320694	 1.1154476791	 0.6265372702	 0.124807
H	-0.4410714183	-0.8999478706	-0.3579873945	 0.091238
H	 1.5847851233	-0.5296080772	-1.7316040945	 0.11188
H	 1.9076612091	 1.0109372304	-0.8970606758	 0.117626
H	 2.8864735509	-2.5726202549	 1.352871972	 0.129185
H	 3.4701144891	-2.2802003709	-0.3744491241	 0.116996
H	 1.7608551101	 0.2623747762	 3.1773489426	 0.128899
H	 0.0379907713	 0.8450748826	 2.8630406373	 0.117586
