18
gdb 58010	3.88814	0.73165	0.66348	2.5352	70.98	-0.2603	-0.0411	0.2192	1658.9672	0.144432	-476.261177	-476.250856	-476.249912	-476.298309	35.527	
C	-0.0669859156	 1.5531604417	-0.1963712933	-0.391632
C	-0.0064826781	 0.0585363724	 0.1545967038	 0.043039
O	 0.4631977448	-0.123198047	 1.4627711384	-0.43418
C	-1.3886663771	-0.6027152321	 0.0357661314	 0.396105
O	-1.963770787	-1.0073433872	 1.0349335571	-0.387618
N	-1.9146426613	-0.6995096439	-1.2151069811	-0.326259
C	-3.2030548795	-1.3083538084	-1.4743144779	-0.248946
C	-4.2500729278	-0.2920077862	-1.9112229436	 0.153008
O	-5.1271222359	-0.5285398777	-2.6971508566	-0.22479
H	 0.9178454048	 1.9971747425	-0.032390107	 0.139401
H	-0.3517348045	 1.7214115227	-1.2404281919	 0.100927
H	-0.7863085621	 2.0641201652	 0.4503709868	 0.132409
H	 0.6744652888	-0.4463473836	-0.5500760636	 0.086958
H	-0.2841841534	-0.5128673595	 1.9466837609	 0.294687
H	-1.3622286095	-0.3835559708	-1.9960904512	 0.260176
H	-3.1381205749	-2.1032322983	-2.2234365579	 0.139052
H	-3.5347111779	-1.7494021992	-0.5264168757	 0.179419
H	-4.1378392539	 0.7055423195	-1.4280507884	 0.088244
