18
gdb 75014	3.34809	1.4426	1.25034	0.4649	71.73	-0.252	0.0238	0.2758	1056.0509	0.149954	-439.130113	-439.122558	-439.121614	-439.162371	28.794	
C	 0.0098005602	 1.4411746877	-0.138607824	-0.47557
C	-0.0625610752	-0.0465159881	-0.1022082099	 0.397255
N	-1.101637787	-0.7482769241	 0.116810852	-0.312146
C	-0.6821311017	-2.1523422007	 0.0541079791	-0.060948
C	-1.3147979814	-2.9147754741	-1.1249860344	-0.223966
C	-0.3084044148	-2.6635246231	-2.2513476355	-0.096818
O	 0.9707424124	-2.6510298097	-1.5997020397	-0.246127
C	 0.8272169685	-2.101603931	-0.3295641666	 0.193308
O	 1.122736077	-0.6862772305	-0.317820101	-0.263822
H	 0.7221163778	 1.8020286285	 0.6099543535	 0.146874
H	 0.3685161499	 1.7788604351	-1.1159732749	 0.147014
H	-0.9752881805	 1.8627346999	 0.0581586936	 0.151045
H	-0.875838456	-2.6394229933	 1.0130159009	 0.089764
H	-1.3705060412	-3.9839060218	-0.8995338781	 0.108845
H	-2.317679107	-2.5474139274	-1.3473799533	 0.122523
H	-0.2792784292	-3.4499348989	-3.0083497102	 0.115341
H	-0.4924073339	-1.7029600447	-2.7510213797	 0.109431
H	 1.548125252	-2.5813205038	 0.3337548383	 0.097998
