20
gdb 58060	1.97204	1.4191	1.07389	3.0976	79.44	-0.2463	0.0205	0.2668	1230.1797	0.17081	-399.290374	-399.2806	-399.279656	-399.325269	35.29	
C	 0.1756288372	 1.2622660551	-0.0606380973	-0.337744
N	-0.1421715033	-0.1639094396	 0.0387408174	-0.070635
C	 0.566162057	-0.7763505185	 1.1600633988	-0.33487
C	-1.57136694	-0.4754742559	 0.0253889869	-0.146542
C	-2.3972615669	 0.4945600322	 0.782552907	 0.270713
N	-3.0141969518	 1.2711094828	 1.3764612817	-0.326952
C	-2.1442457637	-0.689184032	-1.3809816586	 0.014614
C	-1.5227937176	-0.1567384729	-2.6156497642	-0.235662
N	-1.436371529	-1.5944564346	-2.2892794633	-0.326214
H	 1.2347282349	 1.373853448	-0.3110329999	 0.125319
H	-0.4161306014	 1.7304827762	-0.848367812	 0.136435
H	-0.020844725	 1.8065885694	 0.8769304908	 0.125773
H	 0.2674797597	-0.3629707372	 2.1387524508	 0.118317
H	 0.3935787724	-1.8562349164	 1.1703009353	 0.127818
H	 1.6399257658	-0.6070270566	 1.0373058589	 0.129977
H	-1.6931919607	-1.4364877382	 0.5419605519	 0.135901
H	-3.2228931074	-0.8299118459	-1.3689261444	 0.111655
H	-2.1556951537	 0.0870909254	-3.4638710172	 0.125543
H	-0.6142591297	 0.4286068713	-2.5384465401	 0.124594
H	-0.5076616668	-1.7559499124	-1.8986320424	 0.231959
