14
gdb 127456	3.7968	1.15464	0.89037	5.2505	68.	-0.2527	-0.0529	0.1999	1216.4197	0.101297	-470.043734	-470.035443	-470.034499	-470.077608	28.693	
C	-0.0023776911	 1.4141765607	-0.102854764	-0.33301
N	 0.019568936	-0.0308872925	-0.0040987411	-0.01669
N	 0.0263943855	-0.8257188108	-1.1012907521	-0.286286
C	 0.0470952962	-2.0462657919	-0.5780373123	 0.242375
C	 0.0605387181	-3.2181929492	-1.4711250249	 0.100769
O	 0.0794123756	-4.3657893683	-1.1011933454	-0.25686
N	 0.0540759954	-2.0899081453	 0.7907533878	-0.394978
C	 0.0364098871	-0.8170508635	 1.0994386295	 0.46134
O	 0.0339172574	-0.2751938996	 2.3194448583	-0.421552
H	 0.8802801245	 1.7653690304	-0.6424883309	 0.159923
H	-0.9006649289	 1.7390460109	-0.6331150575	 0.159902
H	-0.003162089	 1.8262000569	 0.906318556	 0.166305
H	 0.0513704794	-2.9352995959	-2.5445007679	 0.090944
H	 0.0475277538	-1.0056918119	 2.9516776242	 0.327816
