25
gdb 114388	3.70428	0.90831	0.87641	0.1456	93.8	-0.2453	0.0916	0.3369	1523.493	0.228117	-352.341218	-352.331219	-352.330275	-352.375473	38.832	
C	-0.014303978	 1.5396655827	-0.1109020527	-0.384277
C	-0.0266780341	 0.0189190377	 0.0688624355	-0.19372
C	-1.4323703303	-0.578792554	 0.0687254049	 0.023354
C	-2.1257418097	-0.6130996241	-1.3366029236	-0.268647
C	-2.1355443023	-2.1453875138	-1.2867751078	-0.087425
C	-1.4604755742	-2.1157815362	 0.0942732989	-0.098201
C	-2.8474567554	-2.6899845834	-0.0711519078	 0.330015
C	-4.0900176131	-2.0506536802	 0.521165667	-0.462699
C	-2.8845455293	-4.2103504903	-0.0204148183	-0.451978
H	 1.0073693212	 1.9320728927	-0.1122899429	 0.110456
H	-0.4837133195	 1.8342599456	-1.0558083159	 0.11721
H	-0.561371271	 2.0372407831	 0.6977360171	 0.113163
H	 0.5660585953	-0.4555578913	-0.7250338832	 0.093089
H	 0.4686508218	-0.2418306672	 1.013930728	 0.091225
H	-2.0209580053	-0.0982385151	 0.8606400043	 0.05972
H	-3.0958776543	-0.1154312933	-1.4371854559	 0.090869
H	-1.4633675541	-0.2285963139	-2.1171712688	 0.098219
H	-1.9187361078	-2.788635615	-2.1330173629	 0.073677
H	-0.6444312291	-2.7290134177	 0.464660692	 0.070605
H	-4.0750323764	-0.9601123509	 0.4734832178	 0.117902
H	-4.9872240101	-2.3908815782	-0.0095462946	 0.110387
H	-4.205288029	-2.3334179894	 1.5743130678	 0.111009
H	-2.9693770813	-4.5676258331	 1.0125084666	 0.112149
H	-3.7439909147	-4.60131036	-0.5775768903	 0.112214
H	-1.9788901395	-4.6483843447	-0.4521026453	 0.111685
