18
gdb 14443	4.0382	2.02315	1.73537	1.2243	70.16	-0.2421	0.0828	0.3249	811.3083	0.155949	-347.785157	-347.778579	-347.777635	-347.815352	27.208	
O	-0.0833317838	 1.3871828043	-0.0354439669	-0.467986
C	 0.0398699465	 0.0078275311	-0.0345883774	 0.399531
C	 0.8632500621	-0.7962433603	-1.0385951804	-0.306122
C	-0.1463673845	-1.9776409694	-0.8257977897	-0.031232
C	 0.3613991445	-2.959830135	 0.2397352914	-0.200197
C	 0.54246433	-2.074618316	 1.5051455047	-0.236434
C	-0.2856783042	-0.8264129636	 1.1986190914	-0.105416
C	-1.0876854271	-0.9937932807	-0.0748254467	-0.136736
H	 0.6232007432	 1.7543793887	 0.5071296643	 0.281686
H	 0.7717635347	-0.3648780511	-2.0388252153	 0.104909
H	 1.9217754603	-0.9876581526	-0.8226619001	 0.080081
H	-0.5186597309	-2.4440562706	-1.7376860124	 0.067502
H	-0.3906104217	-3.735800677	 0.4220466853	 0.095833
H	 1.2862515473	-3.462201848	-0.0618340255	 0.09318
H	 0.1792240319	-2.5771948477	 2.4068558525	 0.09714
H	 1.5965556228	-1.8325917827	 1.6817823125	 0.095023
H	-0.737404759	-0.2575565461	 2.0043699114	 0.081472
H	-2.1562215623	-0.8624282431	-0.1771396292	 0.087766
