20
gdb 33077	4.44792	0.79851	0.71169	0.9357	82.8	-0.2269	0.0134	0.2403	1653.4782	0.170613	-403.204605	-403.195105	-403.194161	-403.239853	33.917	
C	-0.0213844481	 1.5807936986	 0.0521763064	-0.381645
C	 0.1127629299	 0.0576986363	-0.0005819832	-0.154004
C	 0.7381400204	-0.5293749455	 1.2777285616	-0.306033
C	 0.8156198623	-2.020926926	 1.2578762073	 0.253865
C	 1.8945649708	-2.8384420364	 1.2569462329	-0.135628
O	 1.4552932199	-4.1367044809	 1.2206574442	-0.173832
C	 0.1016598813	-4.0366921913	 1.1998466132	 0.382817
C	-0.6831289304	-5.298075299	 1.1603032144	-0.488629
N	-0.3324204407	-2.8164495894	 1.2200343689	-0.343394
H	 0.9544146323	 2.0635806178	 0.179290705	 0.11081
H	-0.4681003762	 1.9722086698	-0.8670467596	 0.111998
H	-0.6551612936	 1.8937444678	 0.8895585028	 0.115084
H	-0.8699354827	-0.4028215018	-0.1496981898	 0.119895
H	 0.7244387989	-0.2347997173	-0.8630522789	 0.094696
H	 1.743282575	-0.1164923928	 1.4247031883	 0.097734
H	 0.1392168406	-0.2144625236	 2.1424132392	 0.112637
H	 2.9606062552	-2.691635955	 1.2813093031	 0.138271
H	-0.4693258977	-5.9232350819	 2.0334536525	 0.144874
H	-1.7453668343	-5.0534959267	 1.1486162277	 0.155713
H	-0.4412739129	-5.8853102926	 0.2683289141	 0.144768
