16
gdb 125597	3.03874	1.44723	0.99236	4.836	75.49	-0.2475	-0.0738	0.1737	1150.4675	0.12476	-434.116745	-434.10853	-434.107586	-434.149597	30.435	
C	-0.0356654874	 1.5380085163	-0.0305933694	-0.486085
C	-0.0099512904	 0.0366825662	-0.0117433357	 0.290835
N	-0.0340168515	-0.5814077363	-1.1592917276	-0.20782
N	-0.0105379124	-1.9114418756	-1.1186204422	-0.264249
C	 0.0372480726	-2.7281387023	 0.0218612459	 0.448205
O	 0.0542026434	-3.9324677902	-0.0886702323	-0.37268
N	 0.0619958903	-2.0347503306	 1.2306590995	-0.360082
C	 0.0398945734	-0.7346229786	 1.2191703828	 0.285667
C	 0.0676883126	-0.0215727189	 2.5427167964	-0.483881
H	 0.8530883875	 1.9620678422	 0.4501672388	 0.137937
H	-0.0724623339	 1.8861889827	-1.0639492868	 0.149381
H	-0.9077547384	 1.9325542575	 0.5029220727	 0.137936
H	-0.0295919595	-2.3783573914	-2.0155598462	 0.280779
H	 0.1044958312	-0.7538878766	 3.3488250926	 0.158179
H	 0.9386144794	 0.6401911051	 2.6114986463	 0.14293
H	-0.8196181468	 0.6101240605	 2.6645356652	 0.142948
