16
gdb 17121	5.64996	1.22771	1.16525	3.6025	65.04	-0.2428	-0.0173	0.2255	1028.0601	0.129444	-383.722958	-383.715588	-383.714644	-383.755161	27.221	
O	 0.1636263054	 0.1107199325	-0.233681317	-0.288899
C	 0.0796486388	 1.2776450751	 0.0138578549	 0.401029
C	-1.0896108768	 2.2728517143	 0.0676344163	-0.355303
C	-0.1528279697	 3.2271878268	 0.8834723246	-0.029865
C	 1.0728867733	 2.3319632903	 0.5214272338	-0.363078
C	-0.1226999719	 4.667755751	 0.4455283858	 0.072062
C	 1.1082853346	 5.4643184479	 0.3946062579	-0.181634
O	 0.51831491	 4.9471836604	-0.8026122432	-0.231422
H	-1.3173650917	 2.6685874647	-0.9283622881	 0.144518
H	-2.013048689	 1.9199966418	 0.532149372	 0.128465
H	-0.3854839935	 3.1806332366	 1.9516192602	 0.090162
H	 1.7601681624	 2.0256750066	 1.312753498	 0.125543
H	 1.6393217388	 2.7563745489	-0.3151239241	 0.150816
H	-1.0627703368	 5.2057542557	 0.5831782968	 0.097682
H	 1.0601060746	 6.546055597	 0.5078116827	 0.121443
H	 2.0550396116	 5.0080488508	 0.6798573994	 0.118481
