22
gdb 97974	7.0693	0.46504	0.46146	1.0734	93.64	-0.2336	0.0614	0.295	2461.4527	0.192808	-367.16023	-367.149649	-367.148705	-367.198371	37.083	
C	-0.0275360228	 1.4628761495	 0.4683267703	-0.362483
C	-0.0373598408	 0.1396536019	-0.3189317371	-0.312659
C	-1.3609371084	-0.4711858666	-0.3953052797	 0.103335
C	-2.4670005163	-0.9459381712	-0.4501333693	 0.022263
C	-3.7915146778	-1.553775339	-0.499987726	-0.350487
C	-3.8485347781	-2.9108738634	 0.2227427253	-0.130561
N	-5.200312744	-3.4520057439	 0.1673336222	-0.056651
C	-5.509758432	-4.2999395834	-0.9810168054	-0.221803
C	-5.3267856362	-4.8894705238	 0.3736450255	-0.223525
H	 0.9826312934	 1.8824010182	 0.4998865568	 0.111711
H	-0.6913275097	 2.1962549609	 0.0024323747	 0.12722
H	-0.3683271517	 1.3057446302	 1.4953154084	 0.126604
H	 0.3437403486	 0.3156292014	-1.3333340912	 0.125566
H	 0.6639883812	-0.5658724519	 0.1453584056	 0.125293
H	-4.53668768	-0.8888498648	-0.046862078	 0.135946
H	-4.1024022158	-1.6932763742	-1.5437205233	 0.12492
H	-3.1023873108	-3.5940280524	-0.2205827501	 0.087896
H	-3.576614171	-2.7735644321	 1.2748500631	 0.112963
H	-6.5029172706	-4.1825047431	-1.4046251943	 0.117326
H	-4.7205700247	-4.4804767336	-1.7100108104	 0.109864
H	-4.4161060851	-5.4616804278	 0.545330719	 0.110001
H	-6.1836438474	-5.2103274908	 0.9591416941	 0.117261
