18
gdb 81558	3.27136	1.1412	1.07341	3.5399	72.84	-0.2321	-0.0036	0.2285	1189.3386	0.146331	-439.023062	-439.014405	-439.01346	-439.057078	32.17	
C	 0.3663164142	 0.9461360993	-0.7530235062	-0.485431
C	 0.0077039404	 0.0394979814	 0.4044922914	 0.373319
O	 0.6723210312	-0.0236640745	 1.4136875744	-0.312061
C	-1.2669052648	-0.7843654622	 0.2944031597	-0.069596
C	-1.7822007791	-1.3025877496	-1.0791233849	-0.08
N	-0.5452523186	-2.1855058984	-1.1133065216	-0.330945
C	-1.104301842	-2.3274286527	 0.2921417747	-0.076332
C	-2.5359908351	-2.4275990382	-0.3309305254	 0.120719
O	-3.6786387619	-2.052568982	 0.3862545288	-0.428253
H	 1.2308424587	 1.5589197713	-0.4941104788	 0.134613
H	 0.5930337205	 0.3274151378	-1.6274831315	 0.158644
H	-0.4820043981	 1.5876805244	-1.0188873784	 0.128831
H	-2.0360280922	-0.4049656426	 0.9697423369	 0.116006
H	-2.1092937568	-0.731717256	-1.9489766461	 0.087409
H	-0.7425385985	-3.0358407447	-1.6535568637	 0.20837
H	-0.6198443163	-2.9478584357	 1.0461347243	 0.094471
H	-2.6970112212	-3.336199386	-0.9301860855	 0.068868
H	-3.9399029204	-2.7845136215	 0.9543692218	 0.291367
