17
gdb 97017	2.91478	1.28587	0.89839	7.3503	80.24	-0.2044	-0.0018	0.2026	1254.2222	0.138292	-418.061686	-418.053447	-418.052503	-418.094402	31.373	
C	 0.3208439516	 1.4582869656	 0.3289048026	-0.324834
N	 0.3088424105	 0.0118433918	 0.1807253508	-0.377939
H	-0.3537577368	-0.444196269	 0.7935450221	 0.236508
C	 0.3497969884	-0.5432263108	-1.0911819424	 0.476429
C	 0.5031221874	 0.1365987935	-2.2624521527	-0.367424
H	 0.5355615152	 1.2172860482	-2.2697209555	 0.098585
C	 0.6048589575	-0.5415332253	-3.5507612061	 0.39008
O	 0.7436784386	 0.0535365465	-4.6165037796	-0.411645
C	 0.5057695064	-2.0066839653	-3.4654966357	-0.246781
C	 0.3503060364	-2.6282413989	-2.280690607	 0.022132
N	 0.2579946689	-1.9198735993	-1.1039318869	-0.395754
H	 1.2520404504	 1.8612666201	-0.0783436975	 0.152336
H	-0.5190054909	 1.9561991136	-0.1766195679	 0.130026
H	 0.2838316723	 1.6981826248	 1.3935529249	 0.129077
H	 0.5604774151	-2.576381506	-4.3844762599	 0.107254
H	 0.2809621236	-3.704189957	-2.171065656	 0.126678
H	 0.3251935253	-2.4109387325	-0.2276989132	 0.255272
