20
gdb 56587	3.17762	1.0347	0.85938	4.848	80.16	-0.2506	0.0281	0.2787	1366.4248	0.170786	-399.299669	-399.28995	-399.289006	-399.334382	35.889	
C	-0.0585425372	 1.5754086796	 0.2765328137	-0.434807
C	 0.0292114189	 0.0535338989	 0.1183988792	 0.054887
C	-1.3847880012	-0.6096153962	 0.0484507518	-0.112604
N	-1.3770683342	-2.0686156346	-0.0644591047	-0.512553
C	-2.2015924652	-0.2153078333	 1.2036371609	 0.289164
N	-2.8143723103	 0.1009114719	 2.130822448	-0.329646
N	 0.7565479415	-0.4615641098	-1.0500262232	-0.085542
C	 1.0157509123	 0.3738995915	-2.2197835984	-0.227614
C	 2.12158251	-0.0351415304	-1.3089213209	-0.229534
H	 0.9288535172	 2.0446689176	 0.2321773967	 0.122442
H	-0.6871794831	 2.0271198764	-0.4978207177	 0.127095
H	-0.4973625562	 1.8245567807	 1.2455366786	 0.153384
H	 0.5376217498	-0.3670934362	 0.9954623421	 0.093376
H	-1.8783444302	-0.2093825998	-0.8487435171	 0.129925
H	-0.6599237921	-2.2937459369	-0.7514090156	 0.244331
H	-1.0682750565	-2.472948684	 0.8161152726	 0.233884
H	 0.8814496117	-0.1158272154	-3.1799738845	 0.123338
H	 0.723210333	 1.4199205403	-2.1999575371	 0.120498
H	 2.55376409	 0.7404804372	-0.6794597001	 0.117183
H	 2.8139635517	-0.8232449676	-1.5924656243	 0.122795
