18
gdb 99386	4.32256	0.675	0.62859	3.3	70.22	-0.2546	0.0135	0.2681	1764.5362	0.145714	-476.281802	-476.271381	-476.270437	-476.319627	34.435	
C	 0.0921751178	 1.2275634351	 0.3368201014	-0.240598
O	-0.1939453237	-0.1742349214	 0.4287096897	-0.232947
C	-1.3337263775	-0.5710174782	-0.1683714297	 0.457523
O	-2.0818900441	 0.1774424178	-0.7484613382	-0.360689
C	-1.5324159648	-2.063310586	-0.0203710407	-0.326844
C	-2.8965797823	-2.5080442935	-0.5596402418	-0.15972
N	-3.0725932835	-3.9530284259	-0.5095117657	-0.271216
C	-3.305420879	-4.6118802358	 0.6537847926	 0.14996
O	-3.3634755073	-4.0824631058	 1.7448719647	-0.325039
H	 1.0341153424	 1.3728944363	 0.865540067	 0.134585
H	 0.1878013052	 1.5348041145	-0.7077506974	 0.139313
H	-0.7031061809	 1.8143676759	 0.8031499958	 0.14287
H	-0.7176850222	-2.5735006025	-0.5481393974	 0.127709
H	-1.4388189218	-2.338888848	 1.0336531132	 0.165124
H	-3.6878370942	-2.0382195211	 0.0305490389	 0.147358
H	-3.0210884314	-2.1792747294	-1.5928732254	 0.125388
H	-3.0335093992	-4.484449203	-1.363519774	 0.251152
H	-3.4410545833	-5.700961749	 0.4985386769	 0.076072
