19
gdb 43191	2.54275	1.68458	1.22577	2.9611	80.54	-0.2326	-0.0172	0.2154	1067.0643	0.159796	-385.872659	-385.864752	-385.863808	-385.905333	30.613	
O	-0.0558204408	 0.1574348033	-0.75597982	-0.32724
C	-0.0953974035	 1.2716334542	-0.3098910641	 0.352033
C	-1.2225889844	 2.2194858808	 0.1237038724	-0.155219
C	-1.5417456449	 2.1260482413	 1.6520488815	-0.229215
C	-0.5053852623	 3.2504084802	 1.9489265734	-0.222047
C	-0.119708777	 3.3080158458	 0.4467163786	-0.149336
C	 0.9549266903	 2.3005917128	 0.0124942373	 0.25144
C	 2.3401584569	 2.0348748795	 0.5538840077	-0.313225
C	 2.1820347934	 2.5361940737	-0.8459299715	-0.31737
H	-2.0587335757	 2.3580678972	-0.5618169966	 0.089156
H	-2.5710039545	 2.4036923574	 1.8869386772	 0.1129
H	-1.3429716242	 1.151334042	 2.1039807798	 0.114987
H	-0.9720668916	 4.1711320323	 2.306982247	 0.10318
H	 0.3089462374	 2.9918867262	 2.6311240976	 0.101165
H	-0.0938982033	 4.2827003006	-0.0408382259	 0.073737
H	 2.7127455032	 2.7215303371	 1.307223879	 0.122184
H	 2.6148230112	 0.9957074562	 0.7020360801	 0.13367
H	 2.3381243814	 1.841502046	-1.6645797963	 0.136539
H	 2.4420861686	 3.5676844734	-1.0586478271	 0.122662
