20
gdb 119440	4.74577	0.81457	0.76831	4.3065	80.22	-0.2448	-0.0074	0.2373	1540.4267	0.169893	-403.141388	-403.132271	-403.131327	-403.175895	33.768	
C	-0.0642805461	 1.6321561659	-0.0678321581	-0.382308
C	-0.011221745	 0.1051018902	-0.1575185021	-0.165517
C	-1.3657743852	-0.553954419	 0.1487338506	-0.292213
C	-1.3113997678	-2.052101001	 0.0737697501	 0.347051
C	-1.5986481786	-2.8354675283	-1.1348177624	-0.283678
N	-2.598561954	-2.9006264524	-0.0161609085	-0.215531
C	-2.0051273325	-3.7968968826	 0.9618384709	 0.409914
O	-2.4766052896	-4.7647522882	 1.4694069459	-0.294653
C	-0.7243813292	-2.967547845	 1.1553258887	-0.436761
H	 0.9110786961	 2.0768364953	-0.2867571421	 0.116295
H	-0.7873289545	 2.0453698596	-0.779556006	 0.118623
H	-0.3633890182	 1.9594743989	 0.9339318894	 0.118561
H	 0.3177993084	-0.1974057418	-1.1595680286	 0.101376
H	 0.7447635007	-0.2784698194	 0.5398128262	 0.102522
H	-1.7024240507	-0.2541573785	 1.1499115328	 0.105713
H	-2.1242243823	-0.1912519088	-0.5553701126	 0.112626
H	-1.9999597794	-2.3193428305	-2.0012553456	 0.136526
H	-1.0269564209	-3.730694211	-1.3688543183	 0.129581
H	 0.2319417251	-3.456586691	 0.9534231958	 0.1313
H	-0.6947232964	-2.5169450724	 2.1514085937	 0.140573
