18
gdb 88490	2.52823	1.29695	1.13647	2.5045	78.61	-0.2493	0.0242	0.2736	1171.8426	0.145459	-401.861507	-401.852432	-401.851488	-401.895415	34.032	
C	 0.8525512903	 1.2614744352	-0.7355048018	-0.411688
C	 0.1810833297	 0.0537374953	-0.1284670487	 0.017204
N	 1.0312886547	-1.1017568755	 0.2178281891	-0.341148
C	 0.3354097544	-0.3861437592	 1.288081553	-0.146829
C	 1.1828066157	 0.3083707062	 2.3284571905	 0.241974
C	 2.4704475947	-0.2926003828	 2.7453237376	-0.211862
O	 2.4381230939	 0.8540846325	 1.9028379829	-0.25748
C	 0.4354637531	 1.1160072287	 3.2656373446	 0.281691
C	-0.2218411154	 1.7721275471	 4.028602879	-0.420088
H	 1.8422248444	 1.4106241236	-0.3054165334	 0.160668
H	 0.9556501596	 1.1291974253	-1.8180275074	 0.114146
H	 0.252259192	 2.1612717766	-0.5628671084	 0.117084
H	-0.7910609092	-0.1824444388	-0.5620274504	 0.083766
H	 0.5627377905	-1.9795489164	 0.0133173415	 0.232193
H	-0.5363331842	-0.8584206687	 1.7393210293	 0.089511
H	 2.8371866738	-0.1215468515	 3.7553092971	 0.120453
H	 2.7802055458	-1.2130290768	 2.2552238263	 0.131642
H	-0.7895683038	 2.3600763892	 4.7068899093	 0.198763
