19
gdb 112784	2.04848	1.44791	0.92085	5.3159	78.17	-0.2357	0.0163	0.252	1301.0543	0.157684	-419.177194	-419.167559	-419.166615	-419.212028	33.999	
C	-0.0296458	 1.377257807	-0.2131113009	-0.240376
O	-0.100653503	 0.0754295853	 0.3304456279	-0.230985
C	-1.34813163	-0.5262555967	 0.1759172769	 0.125246
C	-1.6045424307	-1.2227760552	-1.1910864383	-0.209585
N	-1.1851873057	-2.5021357288	-0.5904209148	-0.055272
C	-1.8747541898	-3.7221371332	-0.9446406043	-0.333955
C	-1.3538803802	-1.9657969165	 0.7700750544	-0.16927
C	-0.318269556	-2.3304164479	 1.735807904	 0.322167
N	 0.4759647443	-2.6405097943	 2.5151531262	-0.330313
H	 0.9740836512	 1.7534208693	-0.0069072324	 0.14192
H	-0.1937902701	 1.3803505527	-1.3004334359	 0.111851
H	-0.7680722641	 2.0476951205	 0.2527136317	 0.110786
H	-2.1525564017	 0.1277875466	 0.5362760292	 0.080876
H	-2.668100893	-1.1933934503	-1.4780655518	 0.090709
H	-0.9913579635	-0.895682898	-2.036682824	 0.117836
H	-1.6942602956	-3.949971171	-1.9996805705	 0.131447
H	-1.4826476333	-4.5530097551	-0.3499069575	 0.139691
H	-2.9685609716	-3.6660189453	-0.7856883028	 0.094092
H	-2.3378113273	-2.1944404892	 1.2137500129	 0.103133
