20
gdb 120426	3.83442	0.83837	0.73128	4.387	82.78	-0.2408	-0.0257	0.2151	1583.5919	0.171482	-403.206121	-403.196975	-403.196031	-403.240666	33.764	
C	 0.017659972	 1.6235823862	-0.044704613	-0.382234
C	 0.0068224171	 0.0945461692	 0.0324127587	-0.174696
C	-1.4081157852	-0.4926378588	-0.0148163614	-0.166238
C	-1.4414674113	-2.031450301	 0.0241266473	-0.032879
N	-0.9524910625	-2.5988365476	 1.265880219	-0.327866
C	-1.8517275583	-3.4526532727	 1.8757953023	 0.397966
O	-1.6590661044	-4.1040317086	 2.8802710023	-0.385368
C	-3.0775729719	-3.3819814756	 1.0225718896	-0.19867
C	-2.8424444693	-2.5954005475	-0.0274970598	-0.073642
H	 1.0383265742	 2.0160122126	-0.0065001265	 0.116597
H	-0.4411317035	 1.9769753337	-0.9747181428	 0.116365
H	-0.5406459181	 2.065015963	 0.7879235457	 0.12047
H	 0.5997291319	-0.3201594649	-0.7940079226	 0.096446
H	 0.5021878238	-0.2233298067	 0.9586167568	 0.099406
H	-2.0015087142	-0.1110735373	 0.8247205521	 0.109118
H	-1.9077657639	-0.1636427931	-0.9357863773	 0.09683
H	-0.8597835077	-2.4111450133	-0.8328679682	 0.09586
H	 0.0107771232	-2.5741741055	 1.5539789537	 0.2524
H	-3.9802198026	-3.921776753	 1.2706039131	 0.123094
H	-3.5261184992	-2.3402612992	-0.8275458692	 0.11704
