18
gdb 81467	2.32924	2.03553	1.73221	3.0323	69.3	-0.2411	0.0569	0.298	888.5854	0.151379	-439.04583	-439.039312	-439.038367	-439.076359	27.691	
O	 0.2468902127	 1.4145889716	-0.2635984926	-0.435887
C	 0.0449363204	 0.0646516933	-0.0367886359	 0.121769
C	 0.1994636021	-0.6053720786	 1.3597955176	 0.033778
C	-0.3845465592	 0.2361419866	 2.5060624419	-0.238253
C	-1.8264504785	 0.6294196445	 2.1986364401	-0.015827
N	-2.0439425115	 1.6286715775	 1.1317821032	-0.362526
C	-2.3622518579	 0.2001739689	 0.8805684861	-0.033171
C	-1.364445031	-0.599662552	 0.050752303	 0.01436
O	-0.7794130722	-1.5982772522	 0.9371941837	-0.295825
H	-0.4843976383	 1.8754493323	 0.1925198758	 0.301073
H	 0.6463544136	-0.4970439377	-0.7564884497	 0.098932
H	 1.1568092958	-1.0596204363	 1.6286719333	 0.075225
H	-0.3727390916	-0.3642033839	 3.4215461088	 0.111821
H	 0.2383413416	 1.1209456307	 2.6820972944	 0.117814
H	-2.5087495934	 0.671358564	 3.0421503472	 0.096567
H	-2.8913447524	 2.1621326903	 1.2997027913	 0.240486
H	-3.4097763955	-0.0731775497	 0.7972654015	 0.09579
H	-1.8051203547	-1.0461960093	-0.8435131898	 0.073873
