19
gdb 119201	1.86131	1.30481	0.89107	3.8044	77.74	-0.233	0.025	0.258	1365.6866	0.157962	-419.191041	-419.18123	-419.180286	-419.22606	35.767	
C	 0.1060355876	 1.564043561	 0.1260864193	-0.394035
C	 0.3461789289	 0.0678712491	-0.0434334998	-0.117255
N	 0.3805203013	-0.5962583242	 1.2607107242	-0.356495
C	 0.6139675924	-2.0081371116	 1.2257648027	 0.131267
C	 1.9889129982	-2.5855931163	 0.8278907308	-0.339063
C	 1.5833159873	-2.5877024601	 2.2605871242	 0.059612
O	 2.2439989843	-1.6888961985	 3.0950230797	-0.413212
C	-0.5438148351	-2.8083084967	 0.8993978658	 0.280133
N	-1.4569250535	-3.4675904881	 0.6337090363	-0.350812
H	 0.9185817605	 2.032664487	 0.693725162	 0.113492
H	 0.0546988676	 2.0585672832	-0.8480269307	 0.120875
H	-0.829851464	 1.7472832299	 0.6611638582	 0.132246
H	-0.4711520114	-0.3776113004	-0.6226368034	 0.123468
H	 1.2704342561	-0.1024476628	-0.6235651509	 0.08326
H	 1.07555431	-0.1723180566	 1.8675438068	 0.225807
H	 2.0354746271	-3.5306538628	 0.2997978866	 0.140021
H	 2.7258130506	-1.8466778396	 0.5332765819	 0.137419
H	 1.3063055329	-3.5359757435	 2.715234963	 0.121132
H	 1.7125292692	-1.570961969	 3.8908831833	 0.302139
