20
gdb 113711	2.57993	0.98066	0.79945	2.048	81.12	-0.2511	0.0504	0.3015	1477.539	0.169149	-403.083432	-403.073284	-403.07234	-403.119331	37.035	
C	 0.3309133165	 1.3368201121	 0.1625194313	-0.397176
C	-0.2179525255	-0.0949664233	-0.0042118491	-0.161507
C	-1.6801873232	-0.112758471	-0.0253348581	 0.332678
C	-2.881862154	-0.1148726069	-0.0617327214	-0.475729
C	 0.3444316002	-0.7309179658	-1.2715151222	-0.012312
N	 1.7114596627	-1.2657123916	-1.187552405	-0.359506
C	 0.5837985142	-2.1836339594	-1.4683246005	-0.03519
C	 0.3646980699	-3.2566256078	-0.4268377649	-0.06907
O	 1.4191323978	-4.2044473344	-0.4536391615	-0.42169
H	 1.4235595786	 1.3080504293	 0.1939776286	 0.128895
H	 0.0192917648	 1.9711967099	-0.6730611201	 0.122109
H	-0.0377833811	 1.7891161759	 1.0863942377	 0.126274
H	 0.1288552918	-0.6851013407	 0.8511979907	 0.112419
H	-3.9434361057	-0.124925496	-0.0827311426	 0.19639
H	 0.0826629217	-0.1754072708	-2.1718666999	 0.091853
H	 2.2315486869	-1.0612866224	-2.0357953049	 0.23527
H	 0.4969140326	-2.5461595617	-2.4914261059	 0.091519
H	 0.2581871179	-2.8112348077	 0.5717875063	 0.091749
H	-0.555630132	-3.8086925879	-0.6428018165	 0.114566
H	 2.2308002158	-3.6982991198	-0.3292050621	 0.288457
