22
gdb 118191	4.19786	0.6494	0.58734	3.7025	79.85	-0.2347	0.0367	0.2714	1921.2373	0.192614	-441.531616	-441.520722	-441.519778	-441.56857	39.305	
C	-0.3137150434	 1.4095962845	 0.1489246814	-0.38242
C	-0.3609732841	-0.0902616949	-0.1527607789	-0.168235
C	 0.7862923288	-0.5533554021	-1.0571909502	-0.17888
C	 0.7354131911	-2.0444258449	-1.4046479449	 0.084324
O	-0.5095391347	-2.3829077985	-2.0411206533	-0.424392
C	 1.9405546228	-2.4821498052	-2.252550095	-0.305401
C	 2.129738801	-3.9919260684	-2.4489002734	 0.36675
N	 0.9861855676	-4.6927781796	-2.6819972664	-0.512875
O	 3.2338466472	-4.5026841359	-2.4285823981	-0.36443
H	 0.619649918	 1.6862268632	 0.6518836135	 0.115624
H	-0.3795691178	 2.0021591301	-0.7706498988	 0.112701
H	-1.1423704381	 1.7104547364	 0.7971685685	 0.115369
H	-0.3254528178	-0.6566350052	 0.7870891366	 0.098559
H	-1.3149068613	-0.3489109996	-0.6248048165	 0.106479
H	 0.7824873097	 0.0282826754	-1.9924853739	 0.085195
H	 1.7492211287	-0.3405262677	-0.5757342816	 0.105508
H	 0.7199203255	-2.6264994619	-0.4750443431	 0.103044
H	-0.5816312093	-1.845535527	-2.8393305943	 0.283025
H	 1.867602498	-2.0124764257	-3.2442207091	 0.110396
H	 2.8683091565	-2.1213781619	-1.8024870745	 0.130336
H	 0.0874049791	-4.2432832982	-2.5832890476	 0.266212
H	 1.0566645523	-5.6940815331	-2.7591763804	 0.253111
