17
gdb 41729	3.45068	1.76474	1.75497	2.3504	65.43	-0.2386	0.0901	0.3287	847.1951	0.140017	-458.963245	-458.957344	-458.9564	-458.993271	24.931	
C	-0.0145837605	 1.5842835993	-0.006457787	-0.076989
O	 1.3832257892	 1.9368028958	-0.0031406643	-0.285222
C	 2.1040521886	 0.7258858887	-0.1540548919	 0.080496
C	 2.0270992531	-0.199184833	 1.0838751985	 0.179675
O	 2.4964987338	-1.4368128014	 0.6139886279	-0.254321
C	 1.8285347531	-1.6172154255	-0.6563862511	-0.102918
C	 1.2014753734	-0.2496484887	-0.943809591	-0.113959
C	 0.0363685913	 0.060156452	 0.0276730467	 0.054324
O	 0.616173241	-0.2769480201	 1.3118291179	-0.286913
H	-0.4992683882	 1.9870189768	 0.8874766769	 0.117603
H	-0.5035729637	 1.9882186625	-0.9038714392	 0.095052
H	 3.1091519847	 0.9302196827	-0.5184697414	 0.095816
H	 2.5425803971	 0.0659060163	 2.0047921588	 0.097977
H	 2.5706034702	-1.9035433052	-1.4089052287	 0.111631
H	 1.084893756	-2.4191493725	-0.5745015703	 0.111258
H	 1.0162784205	-0.0152307756	-1.9911613563	 0.08858
H	-0.9067396097	-0.4702999621	-0.1045282555	 0.08791
