19
gdb 98547	3.3691	1.15172	1.01477	2.4452	77.13	-0.2388	0.0246	0.2634	1248.61	0.159907	-419.195617	-419.186658	-419.185713	-419.229899	32.585	
C	 0.1670146694	 1.3577202051	 0.2129515024	-0.333871
N	 0.2505334517	-0.073649277	 0.0120691554	-0.320524
C	 0.506384341	-0.6285240873	-1.2038490371	 0.293259
O	 0.6718154998	-0.0043752126	-2.2391189142	-0.388544
C	 0.5581637286	-2.1253320868	-1.1772726024	 0.262385
C	-0.5815232716	-2.9700660068	-0.7476288948	-0.256622
N	 0.6043436927	-2.926069485	 0.1205352215	-0.185088
C	 1.6248401659	-3.8220388246	-0.5414528335	-0.155066
C	 1.6377460711	-2.9732584516	-1.8422620655	-0.308702
H	 1.0110372935	 1.7342455487	 0.8029414623	 0.125348
H	 0.1903494929	 1.8277414603	-0.7714283058	 0.167632
H	-0.7633743131	 1.6316749883	 0.7219347688	 0.12413
H	 0.2894753874	-0.6977059794	 0.8052204652	 0.260293
H	-1.4441552236	-2.4692610951	-0.3200283355	 0.127554
H	-0.8053340097	-3.8840546648	-1.2953681346	 0.117904
H	 2.5614183099	-3.7916323382	 0.0173811	 0.118269
H	 1.2907350391	-4.8610381363	-0.6245533767	 0.110134
H	 1.3613605801	-3.4622183968	-2.7793421028	 0.112687
H	 2.571243675	-2.4294893799	-1.9908456825	 0.12882
