19
gdb 40434	4.08543	1.20488	1.0696	2.3381	74.98	-0.2524	0.0839	0.3363	1165.8232	0.159988	-422.99589	-422.98806	-422.987116	-423.02846	30.248	
C	-0.3515950924	 1.1961799886	-0.3105953395	-0.269722
C	 1.0331025072	 1.2361786028	 0.2814433196	-0.263487
C	 0.3285755075	-0.0878635094	 0.0843753428	-0.117948
C	-0.1410009746	-0.8515704319	 1.2752575438	 0.394644
C	 0.7411096793	-1.907131535	 1.9216084158	-0.136881
O	-0.1004715204	-2.6519149562	 2.7933134076	-0.257785
C	-1.4553678227	-2.5341843639	 2.3714429908	-0.100821
C	-1.5217128862	-1.2541679712	 1.572935582	-0.052197
O	-0.9177635313	-0.1449291663	 2.2553299859	-0.289929
H	-1.1651860277	 1.5324316532	 0.3211439025	 0.130675
H	-0.4714669697	 1.4033636779	-1.367826143	 0.110665
H	 1.8715004461	 1.4701344202	-0.3646812922	 0.113122
H	 1.1260175686	 1.6023884602	 1.297753878	 0.127926
H	 0.7003586579	-0.7178117964	-0.7190516039	 0.088675
H	 1.1816090935	-2.5452350265	 1.1374988748	 0.090445
H	 1.5532430235	-1.4817328524	 2.5201508121	 0.11841
H	-1.7620342015	-3.3802905438	 1.7340490452	 0.093597
H	-2.0844008639	-2.5273889847	 3.2677803895	 0.119268
H	-2.365929333	-1.0256323953	 0.9287466783	 0.101344
