22
gdb 6933	4.52426	0.9257	0.87169	1.2629	79.37	-0.2452	0.0792	0.3244	1433.7648	0.197945	-350.200837	-350.190946	-350.190002	-350.235455	36.534	
C	 0.0316049361	 1.5299300695	-0.1525193328	-0.382672
C	 0.1698620218	 0.0079695724	-0.0653934657	-0.151288
C	 0.5025178885	-0.4862643556	 1.3493993547	-0.204744
C	 0.6395460844	-1.9922856192	 1.4245828374	-0.018335
C	 1.9532521771	-2.6902948538	 1.1027753617	-0.352156
C	 1.3861165432	-2.7190494807	 2.5047828871	 0.383245
C	 2.0848076388	-2.0048791065	 3.6398930229	-0.447394
O	 0.7455320232	-3.9091571415	 2.903115023	-0.467169
H	 0.9619208783	 2.0300646105	 0.1397257817	 0.111561
H	-0.2129654245	 1.8518955891	-1.1696367975	 0.110585
H	-0.7602559044	 1.8948866431	 0.5113170673	 0.113229
H	-0.7618141773	-0.4656008202	-0.4016639712	 0.095116
H	 0.949814978	-0.3347735475	-0.7570503531	 0.098457
H	 1.429950783	-0.0055310477	 1.6854934955	 0.089127
H	-0.2819881279	-0.1510478919	 2.0422183807	 0.096252
H	-0.2423249966	-2.5364846555	 1.0947731446	 0.09253
H	 1.9147462756	-3.6093999496	 0.5286067134	 0.107623
H	 2.8241536997	-2.0688262698	 0.9141758422	 0.102254
H	 2.553120779	-1.0734411459	 3.3126778108	 0.117987
H	 1.3770694453	-1.7748977425	 4.4429955688	 0.124751
H	 2.8758861073	-2.6386683366	 4.0603842215	 0.10466
H	 1.4301130513	-4.5352253403	 3.1653858171	 0.27638
