19
gdb 109559	2.59632	1.27656	0.99634	2.0417	71.37	-0.2561	-0.0359	0.2202	1220.6722	0.157512	-460.16117	-460.151472	-460.150527	-460.195749	35.234	
C	-0.1947366406	 1.4837232084	-0.2020455444	-0.39535
C	-0.0565824384	-0.0281791779	-0.065290039	-0.100999
C	 1.1667090698	-0.6110454372	-0.8933650454	 0.069287
O	 1.6963887523	 0.072231188	-1.9859550683	-0.427491
C	 1.9193079642	-0.5640841647	 0.4290104574	 0.328242
O	 3.0540872532	-0.2442352108	 0.6859075482	-0.340103
C	 0.6352474092	-0.5454858569	 1.253413045	-0.117162
C	 0.714918186	 0.2711402152	 2.5436890266	-0.090209
O	 1.6959088466	-0.2697808214	 3.4083619995	-0.42177
H	 0.7442427889	 2.0045961857	 0.0141702354	 0.119594
H	-0.4778565563	 1.7413304846	-1.226111692	 0.135081
H	-0.9582430188	 1.8761115713	 0.4759249672	 0.123193
H	-1.0028294535	-0.5234801589	-0.2898529482	 0.086782
H	 0.9400753771	-1.6449694766	-1.1824869089	 0.114071
H	 2.4711737397	 0.5575555418	-1.676738267	 0.299076
H	 0.3098299811	-1.5648813524	 1.4848641762	 0.112758
H	 0.9234463205	 1.325264007	 2.3106505479	 0.094696
H	-0.2367464513	 0.2376618687	 3.083770869	 0.113327
H	 2.5368284504	-0.2128141237	 2.9364526909	 0.296977
