15
gdb 26824	3.41475	1.1552	0.86887	5.2346	78.21	-0.216	-0.0679	0.148	1266.4521	0.11198	-453.991691	-453.983015	-453.982071	-454.02533	30.672	
C	 0.1793219086	 1.4695367119	-0.0219136022	-0.505468
C	-0.0383533217	 0.0031733339	-0.0008868047	 0.280924
C	-1.1485487883	-0.8042073161	 0.102488455	 0.193246
N	-2.4807198886	-0.449818218	 0.2748073477	-0.601812
N	-0.7611796719	-2.1185529935	 0.0840513285	-0.318308
C	 0.5392827731	-2.0828586808	-0.0311750166	 0.278244
O	 1.0423229231	-0.8238245765	-0.0964134016	-0.192136
C	 1.5126045899	-3.1745837305	-0.1041466739	 0.079944
O	 1.2321885654	-4.348375136	-0.0575520532	-0.254809
H	 0.9639658157	 1.762321743	 0.6838175689	 0.152028
H	 0.475255295	 1.8337360362	-1.0135193738	 0.145229
H	-0.7412448551	 1.9827207962	 0.2679640538	 0.141272
H	-2.7804078591	 0.3405426375	-0.278575113	 0.251366
H	-3.0926389674	-1.2426407911	 0.1343270331	 0.262756
H	 2.5563487015	-2.8107599861	-0.2099627479	 0.087524
