13
gdb 4721	6.4987	1.34599	1.1228	5.4786	69.64	-0.2427	-0.0383	0.2044	995.4189	0.097292	-357.703933	-357.696843	-357.695898	-357.735467	25.388	
C	 0.0159366383	 1.50544947	 0.0263817432	-0.493357
C	 0.0099349111	 0.0123130886	-0.0214877335	 0.274808
C	-0.139660131	-0.811000179	-1.1183670001	-0.161099
N	-0.0740370828	-2.0918904193	-0.6414365698	-0.282415
C	 0.1107329532	-2.0028632053	 0.7116914868	 0.246831
N	 0.1647154625	-0.7449556134	 1.1099124205	-0.328368
C	 0.2226520075	-3.157216652	 1.5288152337	 0.23802
N	 0.3090176771	-4.1246401082	 2.1591688612	-0.335694
H	 0.9604690769	 1.8788720368	 0.4345349609	 0.144427
H	-0.1198151302	 1.9312526955	-0.9710136367	 0.122751
H	-0.7856056672	 1.8782712458	 0.6719182452	 0.144417
H	-0.2825410648	-0.6003415652	-2.1654083751	 0.144559
H	-0.1470426706	-2.9422243142	-1.1760433362	 0.285119
