21
gdb 70313	3.01654	1.49798	1.25428	0.9695	81.59	-0.2212	0.0768	0.298	1088.1868	0.1849	-383.226462	-383.218487	-383.217543	-383.258392	32.319	
C	 0.3640541461	 1.4137539962	-0.2743019558	-0.442016
C	-0.0931015294	 0.0131485974	 0.0761455785	 0.311346
C	-1.5936859531	-0.2028243093	-0.0685321014	-0.310635
C	-2.2055417124	-1.3718887269	 0.6946354992	-0.004469
C	-1.8061266187	-2.7953449038	 0.4922365288	-0.267865
N	-1.4740195321	-2.0987843765	 1.7321135692	-0.089275
C	-0.0864666671	-1.7381471841	 2.0287655698	-0.194278
C	 0.6390977161	-0.7778221173	 1.1008025688	-0.045134
N	 0.8559648135	-1.041579844	-0.3358014465	-0.378388
H	 1.452921514	 1.4827735634	-0.2161463983	 0.127553
H	 0.06490124	 1.6756452621	-1.2962323935	 0.115727
H	-0.0725990678	 2.1550179446	 0.404445961	 0.112041
H	-2.0857291809	 0.7106056844	 0.2880144307	 0.110062
H	-1.8532211256	-0.278272979	-1.1338597334	 0.111001
H	-3.2482782042	-1.1969275775	 0.9570085545	 0.09207
H	-2.5448638276	-3.5881098143	 0.5939247772	 0.114098
H	-1.0238243082	-3.0281098222	-0.2255478707	 0.106442
H	-0.0897354902	-1.274516978	 3.0244093249	 0.112862
H	 0.4869378574	-2.6686634217	 2.127819161	 0.112563
H	 1.5046004203	-0.3163780743	 1.57633261	 0.084444
H	 0.37267524	-1.8821497093	-0.6329947742	 0.221852
