15
gdb 129953	3.13023	1.27429	0.98921	3.4514	72.59	-0.216	-0.0051	0.2109	1155.043	0.112307	-416.761239	-416.752937	-416.751992	-416.794322	31.033	
N	 0.2520182412	 1.3303772964	-0.3653370166	-0.615993
C	 0.070140284	-0.0357613918	-0.1358034892	 0.06251
C	-1.0581042398	-0.7657465215	 0.08113047	 0.003702
O	-0.7382261406	-2.0528050717	 0.3501204597	-0.171043
N	 0.6324101158	-2.1938855248	 0.3012837823	-0.205275
C	 1.1110543526	-1.0047630058	 0.0237088621	 0.369725
C	 2.5972776447	-0.7879666144	-0.0699013438	-0.453392
C	 3.0002635955	-0.1290225718	-1.3116776436	 0.293879
C	 3.3091482298	 0.4330741703	-2.3286495385	-0.453662
H	 1.0102454387	 1.5107856852	-1.0136531183	 0.257018
H	-0.5879077926	 1.7974798403	-0.6799856707	 0.247098
H	-2.1096627461	-0.5280804858	 0.0846538711	 0.138424
H	 2.9307303831	-0.179285072	 0.7815637938	 0.15592
H	 3.0919900217	-1.760222493	 0.0236091671	 0.165512
H	 3.6053977318	 0.9058501405	-3.2325177154	 0.205575
