21
gdb 88756	3.75775	1.05785	0.92353	2.7491	82.87	-0.2261	0.0752	0.3013	1331.7594	0.183631	-383.193525	-383.184962	-383.184018	-383.227256	32.93	
C	-0.0725285005	 1.5579863011	-0.2387351467	-0.394922
C	-0.0088056217	 0.0591431407	-0.0566729784	 0.001201
N	 1.3140595089	-0.5756642385	-0.1406232535	-0.336397
C	 0.5730424866	-0.6321150489	 1.1332028081	-0.031259
C	 1.1783715349	 0.0915244494	 2.301884163	 0.066371
C	 0.2961046417	 0.4765597921	 3.5262475033	-0.286412
C	 1.2826227295	-0.3259983377	 4.3699713025	-0.006254
C	 1.3653883516	-1.7171896775	 3.8944670818	-0.242019
N	 2.1463425952	-0.6920541284	 3.173158325	-0.144555
H	 0.7917891032	 2.0523708555	 0.209013979	 0.130109
H	-0.0812639957	 1.8096201541	-1.3047513515	 0.120558
H	-0.9831191821	 1.9693923711	 0.2104550121	 0.114929
H	-0.8368197277	-0.4732983834	-0.5251721754	 0.079165
H	 1.2645594243	-1.467372379	-0.6248863613	 0.23037
H	 0.1002542494	-1.5814540663	 1.3813041575	 0.076062
H	 1.7350270945	 0.9529618416	 1.9311506676	 0.09372
H	 0.2972041502	 1.5491732805	 3.7271593725	 0.11062
H	-0.7390807027	 0.1198632745	 3.5378129789	 0.098822
H	 1.7238435626	 0.0000693674	 5.3061837719	 0.092581
H	 2.0021007652	-2.4056871304	 4.4414845651	 0.120432
H	 0.5008563627	-2.1847561478	 3.4286094086	 0.106879
