19
gdb 115988	2.21611	1.50767	0.93464	2.0311	87.	-0.2327	-0.0247	0.208	1246.432	0.159001	-385.874184	-385.86522	-385.864276	-385.907904	34.011	
O	 0.1381548531	 1.4237172254	-0.2034805546	-0.426659
C	 0.0397627693	 0.0197929329	-0.0802217807	-0.072701
C	-1.4056476046	-0.4886862155	 0.0311756235	-0.122002
C	-1.5118562281	-2.0307707536	-0.0754194166	-0.234281
C	-2.6428753205	-2.451938823	 0.8939994546	-0.255644
C	-2.7414923088	-1.2791131566	 1.8314495383	-0.180193
C	-2.0799926213	-0.2048090063	 1.3737486585	 0.1998
C	-2.019672808	 1.0624202425	 2.0067751826	 0.204396
C	-1.9372818945	 2.1508496963	 2.5222058881	-0.417649
H	-0.2427882839	 1.8131097616	 0.5925850685	 0.28558
H	 0.4937430758	-0.3967063941	-0.9868200308	 0.105227
H	 0.6219048484	-0.3582802128	 0.7772527194	 0.083056
H	-1.9779073507	 0.0054897974	-0.7659728259	 0.092841
H	-1.6823227858	-2.3648191132	-1.1015049734	 0.104931
H	-0.5661503904	-2.475113763	 0.257291868	 0.106845
H	-3.5976965689	-2.6016077602	 0.3692777712	 0.115838
H	-2.4308917889	-3.3937164583	 1.4124520305	 0.110397
H	-3.3160785536	-1.2973666323	 2.7503936416	 0.10184
H	-1.8906067586	 3.1031578527	 2.9901637274	 0.198379
