17
gdb 34199	4.01925	1.3973	1.23825	1.1504	78.31	-0.2456	0.0351	0.2807	1016.8254	0.136203	-384.60693	-384.599843	-384.598899	-384.638135	29.029	
C	 0.066454501	-1.2119520752	 0.1118630486	-0.365795
C	 0.0245296201	-0.0103400458	 0.0547267904	 0.111488
C	-0.0271928862	 1.4236857153	-0.0154464451	 0.183458
C	-1.118930939	 2.1762269474	 0.8147784576	-0.284034
C	-1.2676438461	 3.2047261144	-0.3266320114	 0.099073
O	-0.1890856061	 4.1666283421	-0.3286365049	-0.304494
C	 0.6841387632	 3.2414114902	-1.0142064777	 0.099079
C	 1.317919741	 2.2220483054	-0.0436611232	-0.284012
C	-0.4917219624	 2.2653997143	-1.2891585599	-0.138783
H	 0.104865031	-2.2716753635	 0.1640492069	 0.183485
H	-2.0171133005	 1.5579803639	 0.9010761462	 0.11386
H	-0.8343524128	 2.5569285541	 1.798780209	 0.109641
H	-2.2365666298	 3.6726014732	-0.5071157367	 0.083718
H	 1.309847656	 3.7392608555	-1.756450854	 0.083714
H	 1.7001422641	 2.6045982781	 0.9059393787	 0.109645
H	 2.0920271189	 1.6352265755	-0.5464555064	 0.113846
H	-0.8196591823	 1.8600382551	-2.241680618	 0.086111
