22
gdb 36886	3.77775	0.98032	0.93888	1.0022	86.13	-0.2276	0.0817	0.3093	1366.9299	0.19554	-367.14344	-367.135051	-367.134107	-367.177065	32.67	
C	 0.4432463503	 1.4931254151	 0.9303740698	-0.183921
C	 0.2669330108	 0.0190461044	 0.6354915074	 0.014146
C	-0.7303884303	-0.8925606975	 1.29458096	-0.085054
C	-2.0862473822	-0.2066365792	 1.5192086715	-0.227401
C	-2.1757057125	 0.0856885904	-0.0132269361	-0.230241
C	-0.8161853408	-0.5975082855	-0.2124880661	-0.06047
N	 1.3197869611	 2.1105317109	-0.0648169528	-0.060987
C	 0.6728193745	 2.6615066418	-1.2501606928	-0.217122
C	 1.2255890949	 3.5590264945	-0.1982528391	-0.22148
H	-0.529583422	 2.0097250936	 0.9922347201	 0.079588
H	 0.9266584108	 1.6124981214	 1.9085425132	 0.101934
H	 1.2258124356	-0.4711859312	 0.4790437197	 0.093333
H	-0.4125080893	-1.8020015397	 1.7915850983	 0.080569
H	-2.8589643897	-0.9061915137	 1.845333971	 0.101638
H	-2.096242103	 0.6526175267	 2.1974273677	 0.094971
H	-2.9906129544	-0.4682283658	-0.4844335731	 0.102954
H	-2.2553653853	 1.1334341818	-0.3223297084	 0.09246
H	-0.5707224644	-1.2463313954	-1.0452262277	 0.080655
H	 1.1998224073	 2.5179825323	-2.1892360856	 0.113664
H	-0.4112966752	 2.5910190683	-1.3220707726	 0.111652
H	 0.5086087221	 4.0849523258	 0.4312321756	 0.105149
H	 2.1640753719	 4.0841080811	-0.3529320201	 0.113963
