17
gdb 79947	3.65489	1.23046	1.1494	2.2759	78.58	-0.244	-0.0073	0.2366	1118.4584	0.135873	-380.813725	-380.80566	-380.804715	-380.846225	30.891	
C	-0.0885259623	 1.5485815433	 0.0544102206	-0.425834
C	 0.0032385928	 0.0475291781	-0.0773665143	-0.00103
C	 0.7106444289	-0.655644369	-1.1753223092	-0.065158
C	 1.7584608449	 0.1063176349	-2.0103169841	-0.196026
N	 2.8008193685	 0.5159430051	-1.0265339065	-0.19862
C	 2.4355161474	 0.0564943323	 0.1026969731	 0.036318
N	 1.2569230919	-0.7315131231	 0.2060807258	-0.142542
C	 2.320358361	-0.7170482493	-3.0765674517	 0.339647
C	 2.7587729943	-1.4112303364	-3.953179935	-0.427074
H	 0.8005611989	 2.0636567574	-0.3145756347	 0.146416
H	-0.953065115	 1.9089233168	-0.5134758855	 0.131337
H	-0.2379321928	 1.834179045	 1.1006185459	 0.130343
H	-0.8604685977	-0.4750805272	 0.3285328764	 0.105519
H	 0.3075687703	-1.5758092145	-1.5838378251	 0.114765
H	 1.3468348604	 1.0213061749	-2.4571215713	 0.12113
H	 3.0114976278	 0.2214575969	 1.0090012777	 0.130937
H	 3.1576128707	-2.017051485	-4.7289484421	 0.199873
