16
gdb 38663	3.10576	1.91841	1.54704	2.7235	66.49	-0.2436	0.023	0.2666	867.8309	0.127554	-437.890212	-437.883926	-437.882982	-437.920933	25.133	
C	 0.0603918886	 1.5487764194	 0.2208940028	-0.257107
C	 1.4555163926	 1.9942151834	-0.1656396089	 0.04586
O	 2.4873793218	 1.3356911796	 0.5753544385	-0.243269
C	 2.216812023	 0.8779097033	-0.7515152517	 0.015956
C	 1.3537429433	-0.3683653744	-0.7551427567	 0.050197
O	 1.9403029101	-1.4218731181	 0.0445273317	-0.225042
C	 1.1813856361	-1.4778171823	 1.1674970498	 0.127384
N	 0.1399064398	-0.7648063776	 1.2720144908	-0.268478
C	 0.049466964	 0.0091376722	 0.0235131552	-0.017396
H	-0.1829833618	 1.8088088861	 1.254029093	 0.13577
H	-0.6754528524	 2.0329686329	-0.4303008128	 0.104793
H	 1.6580426177	 3.0305569117	-0.4255122376	 0.099895
H	 3.0217004881	 1.0056249158	-1.4706490607	 0.102285
H	 1.1978306739	-0.7588138081	-1.7634177793	 0.092871
H	 1.5447039601	-2.1753902906	 1.9136810493	 0.142276
H	-0.8591138849	-0.2957164732	-0.5040146535	 0.094006
