16
gdb 28798	3.15794	1.65853	1.10756	2.1498	71.32	-0.1638	0.0672	0.231	1035.5022	0.126357	-437.905465	-437.897878	-437.896934	-437.937533	28.742	
O	 0.2454709888	 1.3367738288	 0.2462148599	-0.442608
C	 0.1332395509	-0.0020091638	 0.0286495654	 0.319837
C	 0.0207316148	-0.7843340927	-1.0919752028	-0.287597
C	-0.0483821131	-2.1688511427	-0.6644902715	-0.330954
C	 0.0317411136	-2.1301395068	 0.6929945439	 0.412927
O	-0.0714035844	-2.9902563133	 1.7462727308	-0.28087
C	 0.2838785647	-2.2310535497	 2.9170268001	-0.100499
C	 0.0345556918	-0.7408606396	 2.5601213242	-0.200082
N	 0.1687553737	-0.8311543542	 1.1231905807	-0.084745
H	 0.2351058512	 1.7789234555	-0.6078860168	 0.305395
H	 0.0244491482	-0.4324102894	-2.1124692694	 0.085003
H	-0.1447465377	-3.0383781711	-1.2922452361	 0.099245
H	-0.3236090499	-2.5848980227	 3.7513416993	 0.126193
H	 1.3445810572	-2.3964743433	 3.1432290709	 0.119548
H	-0.9667110933	-0.4009179127	 2.8535882501	 0.125556
H	 0.7768632035	-0.0791623922	 3.0124849912	 0.133649
