23
gdb 95165	2.41724	1.51643	1.1046	1.2002	85.86	-0.234	0.0817	0.3157	1216.5836	0.205967	-388.300194	-388.291169	-388.290225	-388.333289	35.887	
C	-0.0410955815	 1.4860110272	 0.1153487677	-0.401876
C	 0.0109344994	-0.0287028493	-0.0167723916	 0.146731
C	 0.6418973884	-0.5046810867	-1.3273405817	-0.206819
C	 0.5900495687	-2.0373925776	-1.414014471	-0.241734
C	 0.9425025875	-2.7040193515	-0.0948792796	-0.068805
C	 2.2438304141	-2.4341781279	 0.637134349	-0.33491
C	 0.9413981539	-1.8989296137	 1.1826198573	 0.41932
C	 0.3484402154	-2.4503337602	 2.4565357504	-0.445504
O	 0.7765695277	-0.5027037237	 1.0908620405	-0.311856
H	 0.9652874547	 1.9099849842	 0.0407002661	 0.120667
H	-0.6616394788	 1.9201501383	-0.6743663923	 0.110359
H	-0.4591111543	 1.7701810621	 1.0847904812	 0.121312
H	-1.0140411362	-0.435089708	 0.0479006222	 0.059331
H	 0.1176223027	-0.064230614	-2.1825936113	 0.092965
H	 1.6758863134	-0.139731758	-1.3606087867	 0.101249
H	-0.4328725214	-2.3335608464	-1.6810631693	 0.097899
H	 1.237888777	-2.4039871107	-2.2193387771	 0.097883
H	 0.5686096866	-3.7202284295	 0.0013728172	 0.081478
H	 2.7285881081	-3.2640871276	 1.1408289421	 0.103139
H	 2.9222719486	-1.6965191117	 0.222583249	 0.111758
H	 0.5460535236	-3.5224068306	 2.550542445	 0.109434
H	 0.7794780406	-1.9438424634	 3.3265146246	 0.123438
H	-0.7363486881	-2.2980186015	 2.4813395983	 0.114544
