16
gdb 28682	3.62628	1.03143	0.83995	2.1762	76.36	-0.2276	0.0125	0.24	1331.8735	0.125506	-396.993936	-396.985351	-396.984406	-397.028404	30.366	
C	 0.2119930466	 1.4141643546	 0.1550920592	-0.499838
C	 0.0037160152	-0.0523009421	-0.0197276082	 0.345881
N	-0.4736777504	-0.6442676824	-1.093782022	-0.290392
C	-0.472564188	-1.9909156113	-0.8138159104	-0.179017
C	 0.004577888	-2.2228392425	 0.4474725785	 0.312027
C	 0.1607318476	-3.4837498546	 1.2435479804	-0.458353
C	 1.4212275002	-3.5309748181	 1.991436566	 0.255985
N	 2.4036817435	-3.5218425343	 2.5996100752	-0.306808
N	 0.2997344474	-0.9706997957	 0.9508183307	-0.336958
H	 1.2630194146	 1.6563882584	 0.3496427522	 0.1372
H	-0.0942834377	 1.9191341074	-0.7615631341	 0.161196
H	-0.3796306358	 1.8145450346	 0.9862669078	 0.134592
H	-0.8177343897	-2.7186896784	-1.5332913888	 0.110544
H	-0.6575099189	-3.6151140155	 1.9656762951	 0.166225
H	 0.1150010882	-4.3420427188	 0.5659349308	 0.174853
H	 0.7348044491	-0.7838112812	 1.8403428876	 0.272863
