16
gdb 126088	3.157	1.60363	1.13224	3.514	70.68	-0.2435	-0.0083	0.2353	1038.0432	0.126603	-434.053671	-434.046281	-434.045337	-434.085849	27.614	
C	 0.1055248762	 1.5623250316	-0.0840273854	-0.385556
C	-0.0438470644	 0.0562347984	 0.09041533	 0.028256
O	 0.5207668538	-0.6278843389	-1.0651929592	-0.29756
C	 1.476449684	-1.6411774224	-0.7198702082	-0.175442
C	 1.5845705688	-1.4968251524	 0.7593752082	 0.297915
C	 0.7271761757	-0.5461217241	 1.2232265154	 0.265685
N	 0.8391673617	-0.4419763424	 2.5700249118	-0.292377
N	 1.7420244984	-1.2972415843	 2.9676239218	-0.119596
N	 2.2060085949	-1.9519635585	 1.8620527967	-0.32765
H	 1.1617189053	 1.8388631583	-0.1434982374	 0.120917
H	-0.3964224664	 1.8883241248	-0.9988814219	 0.126101
H	-0.3447416991	 2.0819323394	 0.767440755	 0.132439
H	-1.1114913312	-0.2016045726	 0.1442271453	 0.099686
H	 1.1069862269	-2.6299419354	-1.0302297605	 0.121079
H	 2.4172013877	-1.4522768209	-1.2548149383	 0.124003
H	 2.9159498077	-2.6564594706	 1.9801983967	 0.282099
