14
gdb 66085	2.38341	1.35486	1.1248	3.5728	63.16	-0.2657	-0.058	0.2077	1094.0457	0.097823	-473.801354	-473.792461	-473.791517	-473.835972	30.564	
O	-0.1033772201	 1.3893383283	-0.3101144437	-0.443272
C	-0.0096891612	 0.0141540244	-0.0434754365	 0.190456
C	 0.2826374508	-0.3817041242	 1.4348305122	-0.109539
O	-1.0616797711	-0.8591602217	 1.61678501	-0.276571
C	-1.4191059981	-0.5962713451	 0.2525626029	-0.002576
C	-2.5738131374	 0.3921932253	 0.1262424629	 0.151146
O	-3.2529684241	 0.4798832515	-0.8589691159	-0.225195
C	 0.7950476353	-0.6804671412	-1.0506399934	 0.237985
N	 1.4625464542	-1.2058114834	-1.8343602951	-0.319694
H	 0.7713747076	 1.7379102239	-0.5173242334	 0.306042
H	 1.0277953212	-1.1709632909	 1.5767834795	 0.131509
H	 0.511697638	 0.483067988	 2.066693435	 0.126664
H	-1.6474920563	-1.5045614488	-0.3142044214	 0.130733
H	-2.7328622688	 1.0091061937	 1.0356176768	 0.102313
