23
gdb 85418	2.20261	1.41403	1.15254	2.9496	84.62	-0.2333	-0.0119	0.2214	1217.3878	0.204498	-388.338789	-388.32919	-388.328246	-388.372619	37.739	
C	 0.5022421374	 1.5422947363	-0.3109152199	-0.415859
C	-0.034065334	 0.1623006937	 0.0956049375	-0.003692
C	 0.1834445807	-0.8641790246	-1.0354966849	-0.338759
C	 1.5000178776	-1.5754170656	-0.7030509076	 0.406061
O	 2.0925046831	-2.3327640643	-1.4275299053	-0.316039
C	 1.9279188253	-1.1556134487	 0.7043166393	-0.349692
C	 0.6893177264	-0.4827614893	 1.3351189799	 0.283034
C	 1.0639970151	 0.5241482503	 2.4283685576	-0.442066
C	-0.2279969526	-1.5601122602	 1.9476817915	-0.426089
H	 1.5729139948	 1.5151274222	-0.5454438736	 0.116638
H	-0.0160643412	 1.8957187299	-1.2082195544	 0.116698
H	 0.3510834085	 2.2887718186	 0.4730696454	 0.119384
H	-1.1006611189	 0.2698756938	 0.3224481899	 0.069075
H	-0.6056022145	-1.6244484057	-1.0661824099	 0.13034
H	 0.2288126374	-0.4248352339	-2.0360236704	 0.123344
H	 2.3186536356	-2.0078255625	 1.2671342455	 0.12111
H	 2.7559789183	-0.4423507238	 0.595564466	 0.123525
H	 1.7661302019	 1.2803768409	 2.0667231908	 0.114546
H	 0.1772960359	 1.0421426115	 2.8118790124	 0.111333
H	 1.536316183	 0.0130037448	 3.2743268513	 0.112824
H	 0.2748144204	-2.0740592731	 2.7739264812	 0.11483
H	-1.1460436054	-1.1109758829	 2.3417054387	 0.1137
H	-0.5180832748	-2.3220850174	 1.2171661389	 0.115756
