17
gdb 2307	6.76382	1.38899	1.26142	0.8682	70.14	-0.2552	0.0586	0.3138	972.4627	0.146815	-272.539058	-272.531105	-272.530161	-272.571238	29.187	
C	 0.0950492732	 1.5693424051	-0.1984326521	-0.404189
C	 0.0445929452	 0.0678848062	-0.0105045517	-0.008214
C	 1.3051177245	-0.7657780451	-0.0234935975	-0.282491
C	 0.5086543127	-0.6282774235	 1.2499170006	 0.017059
C	 1.0696531422	 0.1329649914	 2.4446549431	-0.377361
C	 1.9087057273	-0.703805088	 3.2982307589	 0.30903
C	 2.5894974849	-1.4091389134	 3.9937721933	-0.449936
H	 1.001991511	 2.0079692471	 0.2276616936	 0.115509
H	 0.0847562103	 1.823597678	-1.2639819909	 0.118253
H	-0.7650946073	 2.0634907144	 0.267678709	 0.116711
H	-0.8208682951	-0.3948962395	-0.4787678488	 0.084158
H	 1.3085556499	-1.718581866	-0.5411717078	 0.110484
H	 2.2501347232	-0.2324425666	-0.0751157473	 0.110271
H	-0.0694616041	-1.5001617593	 1.5424424599	 0.092126
H	 1.6538839845	 0.9954031508	 2.103900732	 0.126849
H	 0.2454277694	 0.5448932248	 3.0428073646	 0.12913
H	 3.1960372582	-2.0248614765	 4.6101375512	 0.192612
