16
gdb 129820	5.69445	0.93748	0.8498	3.8703	72.84	-0.2109	0.0217	0.2326	1324.0587	0.126033	-434.055552	-434.04736	-434.046416	-434.089099	30.082	
N	 0.1409878209	 1.3680139368	 0.2508470182	-0.607211
C	-0.0312892798	-0.0046114958	 0.0623343263	 0.405133
C	-1.1423718919	-0.8238150078	 0.1218017585	-0.393088
C	-0.6672044089	-2.1040592034	-0.2574278987	 0.38337
N	 0.6321895057	-2.0872490218	-0.5367500197	-0.304196
N	 0.9974123374	-0.7977090288	-0.3321283135	-0.24264
C	-1.4538448016	-3.3557996436	-0.3254669255	-0.039635
C	-0.8551679011	-4.6369923705	-0.7175031134	-0.169014
O	-1.1669975637	-4.3783958345	 0.6493444031	-0.233774
H	 0.9184358481	 1.5967958746	 0.8594442838	 0.252126
H	-0.6980178078	 1.8036093831	 0.6094776155	 0.258039
H	-2.140285697	-0.5471904497	 0.4217298938	 0.096788
H	 1.9376232185	-0.5136269417	-0.5491969721	 0.269449
H	-2.5208247842	-3.2110810639	-0.4933688337	 0.086851
H	-1.4731793081	-5.3879565111	-1.2091776403	 0.104632
H	 0.2052362835	-4.661395902	-0.9571323723	 0.13317
