20
gdb 22206	2.03017	1.02506	0.80393	0.9344	90.94	-0.225	-0.0192	0.2058	1543.9695	0.167118	-403.095682	-403.084381	-403.083437	-403.134309	39.068	
C	-2.7389117304	-3.3959138487	 2.8182100583	-0.505916
C	-1.7497436094	-3.0956848091	 1.795338666	 0.150457
C	-0.9448008807	-2.8285018696	 0.9367914258	 0.021809
C	 0.0529380684	-2.5657046584	-0.0499035749	 0.187045
N	-0.2360481903	-1.6426070605	-0.901703052	-0.197933
O	 0.7822031273	-1.4376105422	-1.8372964624	-0.390349
C	 1.3380754303	-3.3801635372	-0.0089771778	-0.080395
C	 2.0892679565	-3.1382167412	 1.3112477725	-0.39303
C	 1.0374892216	-4.874011386	-0.218737781	-0.392982
H	-2.3864304114	-4.1822603029	 3.4942422826	 0.151308
H	-2.9625428839	-2.5104725665	 3.4237396972	 0.15495
H	-3.6791888943	-3.7370920791	 2.3707771349	 0.154885
H	 0.4111764767	-0.7348866936	-2.381281068	 0.309336
H	 1.9616819489	-3.0313036007	-0.8334643682	 0.114234
H	 2.3408262703	-2.0808765107	 1.4371377072	 0.121575
H	 1.4845486373	-3.4470028803	 2.1696467874	 0.12436
H	 3.0205398411	-3.7135751971	 1.326054069	 0.112339
H	 0.5428943571	-5.0486398964	-1.1789301328	 0.12161
H	 1.9675668734	-5.4513290464	-0.2051392005	 0.112343
H	 0.3864056215	-5.2585673333	 0.572528267	 0.124354
