17
gdb 47007	2.66336	1.84476	1.45569	4.1297	66.73	-0.2483	0.0072	0.2555	933.125	0.13902	-459.008265	-459.001291	-459.000347	-459.039879	27.111	
O	-0.0368517587	 0.0626259356	-0.4301001161	-0.328074
C	-0.0295448407	 1.1809463749	 0.0032736395	 0.42376
O	-1.1875794145	 1.7610165898	 0.4083378751	-0.240522
C	-1.1905595683	 3.058755404	 1.0390230087	-0.0703
C	 0.0954593819	 3.8315628097	 0.7807025302	 0.065374
C	 0.341024701	 4.154422451	-0.7162698125	-0.243568
C	 1.2426578381	 2.9828151041	-1.1857065513	-0.229673
C	 1.2211895903	 2.0584786914	 0.0521857118	-0.064917
O	 1.1683404913	 2.9611330399	 1.1528408886	-0.252917
H	-2.0688844209	 3.5866795837	 0.6545428837	 0.120162
H	-1.3177482336	 2.8994305612	 2.1152201784	 0.126054
H	 0.1298959108	 4.7113123578	 1.4279357677	 0.094923
H	-0.5962415118	 4.2083626938	-1.2753921745	 0.11757
H	 0.8468644764	 5.1154277815	-0.8244778505	 0.117724
H	 0.8798139453	 2.4861520901	-2.0876605011	 0.130742
H	 2.2661271634	 3.3172193993	-1.3677934925	 0.118364
H	 2.0939799199	 1.4152796221	 0.1572474148	 0.115299
