18
gdb 93569	3.64049	1.02933	0.8477	2.1713	76.74	-0.2418	-0.033	0.2088	1354.5406	0.146937	-439.128286	-439.119019	-439.118075	-439.162977	33.413	
C	 0.1533250756	 1.5488643933	-0.0840378688	-0.389347
C	-0.0317996356	 0.0387218326	 0.0684722847	 0.098154
O	 0.5122236747	-0.6382101338	-1.07498415	-0.282687
C	 1.4186195076	-1.6546930845	-0.6702070966	-0.18651
C	 1.5214003148	-1.5217506017	 0.8316581556	 0.203113
C	 0.6856225738	-0.5677785484	 1.2376292239	-0.185651
C	 2.3793901461	-2.3227129402	 1.7461927938	 0.316718
N	 3.1908703323	-3.2380302927	 1.127194927	-0.540928
O	 2.3491662303	-2.1962459398	 2.9569594154	-0.361613
H	 1.2163137764	 1.8045508922	-0.1129490437	 0.122135
H	-0.3131848837	 1.8880234493	-1.0128790066	 0.1299
H	-0.3144054285	 2.0795126009	 0.7515182837	 0.11769
H	-1.1125724969	-0.1778692588	 0.1274961509	 0.090215
H	 1.0407483316	-2.6459789455	-0.9708990339	 0.110054
H	 2.3839624192	-1.5064099342	-1.1819273158	 0.10091
H	 0.5367613357	-0.2708465317	 2.2674302238	 0.134206
H	 3.3550872234	-3.2218110289	 0.1354143903	 0.261106
H	 3.8561195331	-3.724388678	 1.7066993562	 0.262536
