22
gdb 76693	3.02877	0.77063	0.72288	4.3349	87.16	-0.2746	0.0368	0.3114	1662.6785	0.193214	-367.225509	-367.215084	-367.21414	-367.261637	37.45	
C	-0.2736195204	 1.0218426141	-1.6868368641	-0.411747
C	-0.0205848897	-0.1965159124	-0.8224263916	-0.018129
C	 1.3685156287	-0.6302433564	-0.3989598813	-0.045717
C	 2.6267118303	 0.1149631105	-0.7954810511	-0.406797
C	 0.390663852	-0.1139083375	 0.6386684132	-0.032603
C	 0.5865745287	 1.1966276984	 1.3718203702	-0.209254
C	-0.7484090599	 1.7241046909	 1.9450706777	-0.334721
C	-0.5876997425	 2.9695353069	 2.6919305455	 0.25441
N	-0.4388901914	 3.954913019	 3.2772684404	-0.306611
H	 0.3829585705	 1.8615583934	-1.4472579971	 0.11927
H	-0.1196374913	 0.7834267038	-2.7450557255	 0.122734
H	-1.3065264011	 1.3721372817	-1.5795352264	 0.117154
H	-0.6989364655	-1.0154708927	-1.0500130852	 0.083555
H	 1.5160294239	-1.7073819133	-0.3714867541	 0.084719
H	 2.4863735481	 1.196897254	-0.8474700825	 0.117553
H	 3.4345255278	-0.0757053084	-0.0803519662	 0.120822
H	 2.9751615498	-0.2148423701	-1.7803349959	 0.120105
H	-0.0416865385	-0.8821156164	 1.2777199448	 0.080678
H	 1.2950055781	 1.0613034273	 2.1972962682	 0.12078
H	 1.0157975701	 1.9645500835	 0.7240818694	 0.118395
H	-1.4661228817	 1.8914361023	 1.1345057824	 0.155558
H	-1.1954338561	 0.9754230413	 2.6095444492	 0.149846
