23
gdb 63662	4.21909	0.66905	0.63389	0.8949	93.3	-0.2518	0.0592	0.311	1850.6198	0.202799	-351.121245	-351.110495	-351.10955	-351.157307	39.939	
C	-0.0112421719	 1.528574538	-0.1859342511	-0.453588
C	-0.014001115	 0.0210846163	-0.0094283832	 0.322201
C	-1.2175853449	-0.6583577798	-0.637988793	-0.446672
C	 1.3062579006	-0.7168361593	-0.0535499684	-0.327999
C	 0.5438262637	-0.6085291725	 1.2515587792	-0.017311
C	 1.0932831177	 0.1770286156	 2.4231211291	-0.216129
C	 2.0782465358	-0.6644564835	 3.2661164047	-0.347332
C	 2.6213070273	 0.0657090624	 4.4046530929	 0.2921
C	 3.0534871725	 0.6937861359	 5.3342749175	-0.438075
H	 0.8859925076	 1.9971875722	 0.2253811091	 0.115756
H	-0.0559934651	 1.7870352367	-1.2504946444	 0.113863
H	-0.8810610155	 1.9874114288	 0.2994356171	 0.113993
H	-1.263103536	-0.4602219076	-1.7156591052	 0.112741
H	-1.1832877419	-1.7436988121	-0.5003958178	 0.110462
H	-2.1530536275	-0.2950891647	-0.1955353929	 0.113233
H	 1.352713246	-1.6775628319	-0.5563381053	 0.104774
H	 2.2100506695	-0.122373787	-0.1536525027	 0.104722
H	 0.0290362308	-1.5186400402	 1.5564839531	 0.07534
H	 1.6122257658	 1.077823054	 2.0823386899	 0.108385
H	 0.276751956	 0.5169594779	 3.0715370777	 0.108767
H	 1.5710968098	-1.5712015423	 3.6215209026	 0.126831
H	 2.8978445904	-1.0097147245	 2.6231933578	 0.132737
H	 3.4418828642	 1.2371676574	 6.1594055234	 0.1912
