18
gdb 39994	3.40585	1.53303	1.29093	1.662	75.28	-0.2423	0.0205	0.2628	1009.7172	0.149771	-401.93725	-401.930142	-401.929198	-401.969015	28.252	
C	-0.3828155377	 1.3252913375	 0.0184367103	-0.310742
C	 1.0804198404	 0.9770833158	-0.0890227596	-0.334313
C	 0.052319368	-0.1109453241	 0.0315616649	 0.3574
C	-0.1148368696	-1.1411679113	 1.1665415106	-0.320206
C	-0.5863137907	-2.1798728492	 0.107490048	-0.006861
N	-2.042621549	-2.3735712771	 0.057365758	-0.26648
C	-2.4547593285	-1.67848752	-0.9204200616	 0.117311
O	-1.5800294299	-0.9653227648	-1.6771751694	-0.225196
C	-0.2983547014	-1.1517372131	-1.0323060113	-0.011311
H	-0.7418640685	 1.7493232436	 0.9506546553	 0.116515
H	-0.8965884494	 1.6841861385	-0.8667835342	 0.125483
H	 1.5715228629	 1.1096456174	-1.0481093842	 0.115387
H	 1.7177612116	 1.1654464899	 0.7692097668	 0.115178
H	 0.8205379649	-1.4144544757	 1.6639422519	 0.10386
H	-0.8682394691	-0.9084532727	 1.923028569	 0.112665
H	-0.0708473417	-3.1424360136	 0.1089105169	 0.08451
H	-3.4877417476	-1.5984395586	-1.2411675913	 0.139838
H	 0.4426008554	-1.3563449425	-1.8066524402	 0.086963
