18
gdb 66335	2.47816	1.35558	1.275	3.5458	77.68	-0.2674	-0.0104	0.257	1101.689	0.148363	-401.976472	-401.968035	-401.967091	-402.009336	32.351	
O	-0.0858197439	 1.4145795612	 0.0185915481	-0.455648
C	 0.0141679715	-0.0066788137	 0.007844924	 0.216239
C	-1.4286058388	-0.5398735773	 0.0568379282	-0.228558
C	-1.4868707278	-2.0291049025	-0.29032966	-0.229839
C	-0.9562149727	-2.2853663913	-1.7079856272	-0.249335
C	 0.2895793432	-1.4935517939	-1.9985487107	-0.044525
C	 0.735343966	-0.4994445641	-1.2339226361	-0.099069
C	 0.7688768883	-0.4460385751	 1.2103514745	 0.242559
N	 1.3786326214	-0.7719486093	 2.1372809731	-0.343663
H	 0.8041990833	 1.7852162121	 0.0356393461	 0.289733
H	-1.8546337511	-0.3374239634	 1.042633143	 0.121985
H	-1.9918053386	 0.0513538867	-0.6734209728	 0.119731
H	-0.8859269067	-2.5929440894	 0.4332870725	 0.125209
H	-2.5144732878	-2.3927194349	-0.1967976238	 0.106014
H	-0.7551057663	-3.3532407752	-1.8555243655	 0.115062
H	-1.7215288734	-2.026593836	-2.4549482408	 0.118169
H	 0.8450961027	-1.7585109912	-2.8952400525	 0.101724
H	 1.6555063605	 0.0258730774	-1.4784528101	 0.094212
