23
gdb 58768	2.93852	1.27588	1.22233	1.4863	84.39	-0.2398	0.0808	0.3206	1191.0234	0.206404	-388.286768	-388.277901	-388.276957	-388.320004	35.137	
C	 0.0280527822	 1.4610739016	-0.2562411604	-0.400258
C	-0.0059776806	-0.0394152212	 0.0708924724	-0.080004
C	 0.7431949895	-0.3583648177	 1.3727441665	-0.400621
C	-1.4238785111	-0.5701502839	 0.1094032754	 0.459396
C	-1.7672205431	-2.0833282164	 0.0552731584	-0.283318
C	-3.0114888357	-1.4695931903	-0.6145949198	 0.074148
C	-3.7256587696	-0.7352129732	 0.5379311685	-0.217053
C	-2.4660042365	-0.0205268511	 1.1217463186	-0.264477
O	-2.1569500896	-0.4195525871	-1.1604856054	-0.34365
H	 1.0582713583	 1.7948384353	-0.4159747733	 0.108014
H	-0.5472072802	 1.6745085391	-1.1609149745	 0.13643
H	-0.3891472497	 2.0587569228	 0.5614608132	 0.112364
H	 0.4938817103	-0.570711596	-0.7497800349	 0.078524
H	 0.3030767501	 0.1700126639	 2.2254785502	 0.117896
H	 0.7266300399	-1.4302582841	 1.5958696715	 0.115449
H	 1.7901646032	-0.0487494033	 1.2974559693	 0.114349
H	-1.1344724463	-2.6137852989	-0.6579511566	 0.104107
H	-1.8819366421	-2.6438387618	 0.9872063866	 0.089081
H	-3.6092524718	-1.9901268986	-1.3628164452	 0.074323
H	-4.471794734	-0.0327253108	 0.160923719	 0.105685
H	-4.2106227873	-1.4154026055	 1.243684553	 0.095371
H	-2.2470643341	-0.3049100171	 2.1541772418	 0.097867
H	-2.5414902717	 1.0669772943	 1.0693788457	 0.106377
