20
gdb 99996	2.12813	1.37568	1.04569	4.0383	75.36	-0.2682	0.0146	0.2828	1235.3386	0.166916	-440.286013	-440.27506	-440.274116	-440.321933	39.125	
C	 0.1452901834	 1.3407087246	-0.0281341773	-0.246792
O	-0.0640633699	-0.0554320749	 0.0089368891	-0.27663
C	-1.408237106	-0.5294599221	 0.0066310566	 0.341047
C	-2.1462860004	-0.1589528309	 1.2990111129	-0.436034
C	-2.1885411511	-0.0765903106	-1.2342360292	-0.454522
C	-1.1912289639	-2.0743440049	-0.0100899668	-0.026944
O	-2.3942938033	-2.8138762843	 0.0678257332	-0.416911
C	-0.3944294472	-2.487761903	-1.1811825901	 0.270603
N	 0.1656649257	-2.8474387161	-2.1256862393	-0.333007
H	 1.2267886722	 1.487470098	 0.0165065821	 0.137556
H	-0.2279339485	 1.7967264961	-0.9543601424	 0.114646
H	-0.3115013933	 1.8562030522	 0.8274251331	 0.110492
H	-2.4023036734	 0.9036365215	 1.3200231636	 0.118004
H	-3.0713934493	-0.7338419559	 1.379926438	 0.139203
H	-1.5203054791	-0.3818256269	 2.1683027767	 0.124318
H	-1.6369581812	-0.3085089873	-2.149605218	 0.147324
H	-3.1626715158	-0.5744215675	-1.2706885011	 0.11699
H	-2.3841848791	 0.9981450194	-1.208478831	 0.126937
H	-0.6190666623	-2.32325952	 0.8893294409	 0.14334
H	-2.7998656477	-2.8346931073	-0.8057804508	 0.300379
