19
gdb 61282	4.38153	0.70419	0.67809	6.7695	76.53	-0.2591	0.0168	0.2759	1653.3799	0.157598	-419.26854	-419.257978	-419.257034	-419.305439	36.726	
C	 0.1465999524	 1.6272547871	-0.0545583401	-0.409268
C	 0.0033975027	 0.1023674	 0.0003260493	 0.046568
C	 0.6126242777	-0.575503838	-1.2501147952	-0.35837
C	-0.0180120153	-0.1511502702	-2.4986004918	 0.266449
N	-0.5243220027	 0.1899341546	-3.4798901326	-0.311994
C	 0.6482281975	-0.4877480736	 1.2620403131	-0.33274
C	-0.1224978332	-0.1238486449	 2.5340155104	 0.413067
N	 0.6098112969	-0.1831645762	 3.6827135826	-0.52237
O	-1.3014630734	 0.1727459934	 2.527022045	-0.355525
H	 1.2026518329	 1.9247875863	-0.0615258138	 0.106824
H	-0.3222632146	 2.0330065313	-0.9552181314	 0.143356
H	-0.3359910305	 2.084214584	 0.8122317431	 0.143441
H	-1.0624819712	-0.1423588495	 0.0401551953	 0.124694
H	 1.6857830065	-0.3549085632	-1.3165067505	 0.144975
H	 0.5192583926	-1.6652725259	-1.1749845959	 0.146629
H	 0.6605552046	-1.5848875447	 1.2032212545	 0.126052
H	 1.6955822325	-0.1702287049	 1.3478297822	 0.104407
H	 1.5769472887	-0.4541164753	 3.6949258156	 0.259499
H	 0.139111136	-0.0212790802	 4.5579809702	 0.264307
