16
gdb 130118	5.81712	0.94827	0.86247	1.9046	73.34	-0.2023	0.017	0.2193	1306.5729	0.126448	-434.061237	-434.053296	-434.052352	-434.093971	29.824	
N	-0.1456358276	 1.4045933735	-0.0017158453	-0.590615
C	 0.055544146	 0.0245267295	 0.0238836872	 0.385991
N	-0.9565900829	-0.8067891883	 0.2575409933	-0.306021
N	-0.3731816333	-2.0310071137	 0.3129572368	-0.262317
C	 0.9582253026	-1.9946086276	 0.0788718844	 0.419527
C	 1.2877731688	-0.66626256	-0.1086588741	-0.416051
C	 1.7673540397	-3.2273440503	 0.0926877582	-0.044748
C	 1.7814567842	-4.1393176911	 1.2529671745	-0.172613
O	 1.0205960447	-4.4518268716	 0.0846707069	-0.241321
H	 0.3969368869	 1.8742582312	-0.713906647	 0.24437
H	-1.1273624675	 1.6317783099	-0.0977800676	 0.249699
H	-0.9382434961	-2.8609806239	 0.3709008243	 0.276698
H	 2.2677896798	-0.2528588528	-0.2841232807	 0.096696
H	 2.6414787609	-3.221822061	-0.5568510243	 0.111235
H	 2.6489276553	-4.7739786862	 1.427518604	 0.124247
H	 1.1994021185	-3.8776852476	 2.1344628294	 0.125223
