15
gdb 32055	3.56793	1.15806	0.8832	3.8584	72.51	-0.2342	-0.0576	0.1766	1232.0299	0.112962	-457.819382	-457.811537	-457.810592	-457.852126	29.093	
O	 0.5730523588	 0.6039356862	-0.8288878497	-0.398314
C	-0.1134746733	 0.2662514099	 0.3548972734	-0.151322
C	-1.465672983	-0.3530330364	 0.1036713415	 0.347831
C	-1.9397441834	-0.7535487932	-1.0974640398	-0.252906
C	-3.2475030759	-1.3245758146	-1.1442642548	-0.041081
C	-3.9868373765	-1.4615974751	-0.0155954184	-0.263284
C	-3.4803494646	-1.0390033179	 1.2723097672	 0.421391
O	-4.0180235011	-1.1025119484	 2.3431567512	-0.340274
O	-2.1797334359	-0.4758147944	 1.2350823911	-0.259507
H	 0.1203421679	 1.3515728171	-1.2331359906	 0.292597
H	 0.5163521751	-0.4573140454	 0.8863737085	 0.1489
H	-0.2434830364	 1.1229972065	 1.0329036033	 0.126426
H	-1.3193246192	-0.6509694461	-1.9757758189	 0.121937
H	-3.6492773649	-1.6524943024	-2.098304118	 0.121023
H	-4.9813931376	-1.8882878057	-0.0133747059	 0.126583
