13
gdb 130647	5.0933	1.38277	1.09506	0.957	64.71	-0.2454	-0.034	0.2114	998.5667	0.092115	-452.789981	-452.783676	-452.782732	-452.820952	23.96	
O	-0.0221269323	 0.0566843409	 0.0038803197	-0.286235
C	-0.0559581687	 1.2417639815	 0.0107661225	 0.401292
C	-1.2840284109	 2.1768881817	 0.0331355559	-0.314318
N	-0.6308760199	 3.4542658305	 0.0306251882	 0.008194
N	-1.0448233904	 4.7416339186	 0.0438719958	-0.292884
C	 0.1032962449	 5.419048335	 0.0316900303	 0.025684
C	 1.2603897543	 4.589284002	 0.0108142632	-0.396947
C	 0.7093466205	 3.3345590303	 0.0113069556	 0.490967
O	 1.0986819497	 2.0248213499	-0.0013033621	-0.23885
H	-1.9067027956	 2.0009003504	-0.8495251353	 0.175207
H	-1.8814389953	 1.9915249522	 0.9312071761	 0.175213
H	 0.0773107369	 6.4988301824	 0.0381800208	 0.124523
H	 2.2975447269	 4.8733600747	-0.0020553308	 0.128154
