17
gdb 1186	4.31227	1.81143	1.78469	2.7111	60.58	-0.2517	-0.0256	0.2262	811.414	0.144209	-346.857623	-346.848665	-346.847721	-346.892209	30.81	
C	 0.0198339754	 1.4242907719	 0.1582752887	-0.246756
O	 0.0085398028	 0.0231286457	-0.0030816213	-0.281983
C	 0.5791895327	-0.5045474142	-1.1979726292	 0.278857
C	-0.1754682701	-0.0616845361	-2.4628280037	-0.426186
C	 2.085345062	-0.2153647888	-1.3146746032	-0.426081
C	 0.3909205919	-2.0182013808	-1.0291731851	 0.144295
O	 0.7454534233	-2.8316570427	-1.8407237999	-0.263018
H	 1.0374586927	 1.8374632285	 0.1783137358	 0.110587
H	-0.5517553712	 1.9425251003	-0.6236428219	 0.11063
H	-0.4531903833	 1.6272157312	 1.1223234721	 0.131891
H	 0.0213814694	 0.9878245776	-2.6985227257	 0.117691
H	 0.1522813466	-0.671919055	-3.3079814549	 0.1429
H	-1.2535666239	-0.1950204343	-2.3331565289	 0.125796
H	 2.5964391448	-0.4574150941	-0.3781565839	 0.125796
H	 2.5081201071	-0.8313073097	-2.1121534296	 0.142846
H	 2.272947305	 0.8349711473	-1.5542072325	 0.117738
H	-0.1089837051	-2.2983629971	-0.0769915366	 0.094996
