18
gdb 80179	2.34521	1.67585	1.42713	3.2887	71.07	-0.2416	0.0132	0.2548	1000.7685	0.149074	-439.11243	-439.104281	-439.103337	-439.144945	31.512	
C	-0.0531039716	 1.5750519994	-0.0964271391	-0.420828
C	 0.0467570751	 0.0707949559	 0.0291314049	-0.023817
C	 1.3223848284	-0.7205129785	-0.1741939729	-0.047667
N	 2.5746704812	-0.0153024921	-0.0731969946	-0.297035
C	 2.7519250846	 0.584205213	 1.141271432	 0.35426
O	 3.5560595954	 1.4448549888	 1.4355159917	-0.392562
C	 1.6739882664	 0.0448584988	 2.1043219717	 0.028318
O	 1.1427341536	 1.1102337321	 2.8607734182	-0.434918
C	 0.6822005046	-0.6578072316	 1.2006732026	-0.087315
H	 0.8521274639	 2.0882161288	 0.2306910247	 0.139073
H	-0.2486762235	 1.8597239862	-1.1361619774	 0.112283
H	-0.874277614	 1.9523623895	 0.5195607263	 0.135202
H	-0.8310197448	-0.4536144685	-0.3428619749	 0.093694
H	 1.3361652973	-1.6277893733	-0.7669418103	 0.104165
H	 3.0457028848	 0.3637559791	-0.8818881653	 0.254892
H	 2.1468769927	-0.7011160864	 2.7650941058	 0.092209
H	 1.8823189191	 1.7216011467	 2.9938711979	 0.292387
H	 0.1669259769	-1.5246541579	 1.5946194886	 0.09766
