19
gdb 57129	3.43827	0.74069	0.63058	1.2608	98.65	-0.2387	-0.0082	0.2305	1762.6898	0.156955	-348.692445	-348.682611	-348.681667	-348.72762	36.262	
C	 0.0097153848	 1.4013888319	-0.0796088184	-0.387307
C	 0.0061562012	-0.1346214507	 0.0743890835	-0.237221
C	 0.7412913464	-0.5436711099	 1.2691325444	 0.478231
C	 1.344422715	-0.8757255462	 2.2652061501	-0.312304
C	 2.0216935004	-1.2462541675	 3.3858697523	 0.298277
C	 2.6241154497	-1.5760648486	 4.3794037492	-0.567193
C	-1.4143964	-0.6931021618	 0.0861794283	 0.052687
C	-2.1242174346	-0.9534269309	-1.2179190039	-0.27868
C	-1.682382265	-2.1073076956	-0.3495821687	-0.26617
H	 1.030575526	 1.7896567415	-0.1205535938	 0.126409
H	-0.5122011835	 1.683746395	-0.9983993457	 0.120823
H	-0.499357633	 1.8731245626	 0.7659931808	 0.127846
H	 0.5223534661	-0.563730356	-0.7973216994	 0.105522
H	 3.1531108006	-1.8639460192	 5.2534070279	 0.18803
H	-2.021224805	-0.3154115746	 0.9045099064	 0.092492
H	-3.1827794764	-0.728053661	-1.2831193562	 0.114311
H	-1.5764373369	-0.7746392548	-2.1379209225	 0.111596
H	-0.8384915002	-2.7006431268	-0.6861358706	 0.116732
H	-2.4381176155	-2.6750006274	 0.1811563865	 0.115919
