14
gdb 20854	6.87664	1.27847	1.09256	5.667	59.31	-0.2547	0.0016	0.2563	1036.055	0.107499	-415.892853	-415.885456	-415.884512	-415.925136	26.369	
C	-0.0621120508	 1.5418975144	 0.1090907586	-0.373293
C	 0.0156063745	 0.0189640981	-0.0237008712	-0.308676
C	 0.7211540651	-0.4354366614	-1.2595481661	 0.434748
N	 1.2266764744	 0.3532032159	-2.1496567216	-0.175404
O	 1.7906990828	-0.4984651549	-3.1357522649	-0.233333
C	 1.5997399126	-1.8110207509	-2.7954487609	 0.509682
O	 1.9619048525	-2.7612033915	-3.4269444031	-0.391256
N	 0.912634453	-1.7530511791	-1.5903070729	-0.425205
H	 0.9362574387	 1.9841558479	 0.136877958	 0.145699
H	-0.5955088962	 1.9821295605	-0.736361856	 0.145728
H	-0.5871873406	 1.808524205	 1.0294912288	 0.120311
H	 0.5299146196	-0.4160145455	 0.8435195553	 0.132893
H	-0.9918260082	-0.4179310699	-0.0245717675	 0.132948
H	 0.6228825625	-2.5680722486	-1.0783554166	 0.285158
