18
gdb 44571	2.91511	1.61806	1.44218	2.3681	74.46	-0.2317	-0.0268	0.2049	965.3943	0.14954	-401.933877	-401.926871	-401.925927	-401.965305	28.301	
O	-0.0081010037	-0.0156325772	-0.5009208552	-0.302588
C	-0.0550562917	 1.13657331	-0.1811923335	 0.387845
C	-1.1952820903	 2.1042858627	 0.1945873465	-0.355476
C	-0.1026819139	 3.0806231797	 0.7362969927	-0.050281
C	 0.2275899536	 3.0092680948	 2.2207252986	-0.025314
C	 0.3779952286	 1.6769299801	 2.8669278164	-0.267473
N	 1.5697275259	 2.423378643	 2.4543467953	-0.092305
C	 2.1113852162	 1.9916388256	 1.1504133255	-0.190561
C	 1.0201925685	 2.2121599158	 0.0815121906	-0.141238
H	-1.6987894531	 2.4779241941	-0.7037170015	 0.13102
H	-1.9525852428	 1.7365928377	 0.890335308	 0.131449
H	-0.1920011585	 4.1141999694	 0.4016593301	 0.079933
H	-0.0267919358	 3.8669005353	 2.8365899218	 0.094296
H	 0.247187797	 1.580913116	 3.9413715343	 0.120188
H	 0.1071801087	 0.7815674807	 2.3114631382	 0.131251
H	 2.9851121539	 2.6124810709	 0.9303354978	 0.114798
H	 2.4440763998	 0.9499104189	 1.1990616919	 0.127459
H	 1.4240585276	 2.5910011823	-0.8617211475	 0.106998
