21
gdb 72265	2.73699	1.88071	1.66133	0.2104	80.97	-0.1898	0.0844	0.2742	945.9685	0.185696	-383.207956	-383.200808	-383.199864	-383.238828	30.46	
C	 0.0706302693	 1.5470894309	 0.0198206173	-0.485564
C	-0.0423940354	 0.0470640552	-0.0700284574	 0.352565
C	 0.3266390774	-0.7350154558	-1.3248162378	-0.234195
N	-0.5988179665	-1.8387722128	-0.8893632264	-0.126798
C	 0.2064406859	-2.7595061567	-0.0652632557	-0.181075
C	 1.0622496084	-1.9360960516	 0.9468138611	-0.182953
N	 0.3851973711	-0.6597317033	 1.2403750389	-0.157136
C	-1.0630048404	-0.9930581089	 1.4894301312	-0.199183
C	-1.3293940838	-0.8253212211	 0.004164045	-0.035118
H	 1.1241021533	 1.8450052804	 0.0669396817	 0.123595
H	-0.3832611327	 2.0275085873	-0.8536577752	 0.112669
H	-0.4181315304	 1.9316591726	 0.9200121384	 0.12289
H	-0.0603807981	-0.2470402096	-2.2269064498	 0.101285
H	 1.365098876	-1.0321445076	-1.5053984254	 0.099122
H	-0.4660737547	-3.4552101012	 0.4449421081	 0.106249
H	 0.8368255613	-3.3590843549	-0.7309643421	 0.102453
H	 1.2045256801	-2.4782527457	 1.8882873505	 0.102088
H	 2.0596874774	-1.7212225275	 0.5520193948	 0.105406
H	-1.2452750545	-1.9563044201	 1.9754256681	 0.101212
H	-1.5432128313	-0.20666398	 2.0814749414	 0.105195
H	-2.3126686425	-0.5617053795	-0.3943628466	 0.067293
