18
gdb 65529	3.26504	1.3636	1.17805	2.9403	71.13	-0.2354	0.0541	0.2895	1081.2378	0.146947	-439.001254	-438.993177	-438.992233	-439.03383	31.217	
O	-0.2598376885	 1.4663981813	-0.1373710572	-0.47153
C	-0.0253988618	 0.0736275387	-0.0089015112	 0.339281
C	 0.2606906703	-0.5113663453	 1.406850229	-0.239481
N	-0.9861013555	-1.3538134057	 1.3711086523	-0.122944
C	-2.1010570918	-0.4009469829	 1.239755111	-0.247909
C	-1.3228865103	-0.7241795154	 0.0283978743	-0.05205
C	 0.9366143644	-0.3555094046	-1.099226225	 0.011817
C	 2.3946284913	-0.3513151175	-0.9082448059	-0.197086
O	 1.6553737688	-1.5736504572	-0.9450089879	-0.218434
H	 0.5943365563	 1.9138017977	-0.1450931272	 0.278229
H	 1.1372376881	-1.1591886485	 1.4433180548	 0.127864
H	 0.283217079	 0.2180805734	 2.2224198659	 0.100338
H	-3.0733016019	-0.8730964902	 1.3411949508	 0.122458
H	-2.0172212349	 0.5873654451	 1.6839564831	 0.125435
H	-1.7189728341	-1.3073464936	-0.7967542594	 0.097609
H	 0.5551166586	-0.1780573752	-2.1065517038	 0.104428
H	 3.0503999051	-0.1750963915	-1.7589609484	 0.125084
H	 2.8136984167	-0.0935671486	 0.0640635446	 0.116889
