23
gdb 92647	2.89129	1.34776	1.08876	1.3688	85.2	-0.2401	0.0801	0.3203	1213.3311	0.208619	-388.291478	-388.283227	-388.282283	-388.323944	33.252	
C	-0.2375344387	 1.5799793079	-0.0704442035	-0.419133
C	 0.0271474201	 0.0831972901	 0.002568113	 0.04588
C	 0.9909217304	-0.5907076429	-1.0133272232	-0.256454
C	 1.3767472164	-1.5988213274	 0.1010848803	 0.01834
C	 2.8049593015	-2.1046365867	 0.2477828484	-0.112163
O	 3.708981763	-1.0928391317	 0.6604821685	-0.241568
C	 3.3025490086	-0.5023310398	 1.884112133	-0.077186
C	 2.0277393683	 0.3192610261	 1.6877418187	-0.210398
C	 0.8769800237	-0.5546223123	 1.1536663796	-0.039537
H	 0.6877553994	 2.1640549528	-0.0746599332	 0.115855
H	-0.7815973359	 1.8269838187	-0.9890599326	 0.113529
H	-0.8459182708	 1.9221804172	 0.7746422088	 0.111516
H	-0.9324233068	-0.4470595577	-0.0294007206	 0.070175
H	 0.5674371105	-0.9869985963	-1.9400627867	 0.088914
H	 1.833477172	 0.062341028	-1.2633631893	 0.106834
H	 0.6970222726	-2.457537741	 0.0730361506	 0.067657
H	 2.828317021	-2.9344034726	 0.9767018788	 0.080097
H	 3.1878708621	-2.4883418322	-0.7043636269	 0.102929
H	 3.1534498081	-1.2832424544	 2.650704948	 0.079489
H	 4.1319721722	 0.1326165835	 2.2100707923	 0.101985
H	 1.7396474734	 0.8066615214	 2.6260235335	 0.091843
H	 2.2715222474	 1.1179171906	 0.9800593354	 0.104798
H	 0.3073130114	-0.9682155414	 1.9916554571	 0.0566
