14
gdb 5502	3.25258	1.88603	1.2027	3.2172	65.62	-0.2404	-0.0494	0.191	938.7477	0.10715	-382.584483	-382.577209	-382.576265	-382.616209	26.01	
C	-0.0274857667	 1.5074793626	 0.0386957552	-0.506943
C	-0.0098090132	 0.0099577111	 0.0283313119	 0.139568
C	-0.0281217033	-0.8022552192	-1.0577084316	-0.088957
O	-0.0027183424	-2.1214263937	-0.6876092639	-0.137235
C	 0.032529456	-2.1523844342	 0.6538825856	-0.052544
C	 0.0305552205	-0.8835618893	 1.167896976	 0.064327
C	 0.0633842163	-0.5471845828	 2.5907551878	 0.065497
O	 0.0968932821	-1.360024623	 3.4894739717	-0.275155
H	 0.8630745546	 1.9182359414	 0.5267632635	 0.139006
H	-0.0605758149	 1.9026533078	-0.9799432009	 0.131554
H	-0.8990966848	 1.897101353	 0.5758064094	 0.138983
H	-0.0578839015	-0.6179106189	-2.1188790502	 0.145362
H	 0.0562674642	-3.1235002886	 1.1197208146	 0.170441
H	 0.0555332029	 0.5429479139	 2.8115474209	 0.066097
