23
gdb 110008	2.02692	1.50046	0.96632	1.3748	87.85	-0.2213	0.0358	0.2571	1311.1675	0.205412	-388.308467	-388.298521	-388.297577	-388.342919	37.643	
C	-0.9018925994	 1.0525154486	-0.0170637028	-0.415684
C	 0.1433045396	-0.0635710505	-0.0164390125	 0.021381
C	 1.2925780154	 0.12865224	-1.039089235	-0.261207
C	 2.4158551299	-0.664190738	-0.4217261022	-0.171063
C	 2.1942825139	-0.9620190926	 0.8614689068	 0.33833
C	 3.0926447674	-1.7425992246	 1.769763514	-0.491834
C	 0.8702456492	-0.3677867852	 1.3319236165	-0.099389
C	 1.0714790285	 0.8643252013	 2.2243382815	-0.084165
O	 1.6882257793	 0.4447162302	 3.4369449103	-0.419461
H	-0.4602594775	 2.030188101	 0.2042166952	 0.114322
H	-1.376653377	 1.1273972255	-1.0014040495	 0.111069
H	-1.6945122718	 0.867287734	 0.7160732031	 0.112565
H	-0.3638692541	-0.9961232228	-0.2928987559	 0.078928
H	 1.0130333722	-0.2204749092	-2.0404041747	 0.095555
H	 1.5617452683	 1.1905075277	-1.1516514663	 0.094452
H	 3.3106267314	-0.9430049222	-0.9695718675	 0.078395
H	 3.9947096205	-2.0755893143	 1.2479541684	 0.108611
H	 3.378953277	-1.1462458877	 2.6407260812	 0.14324
H	 2.577941466	-2.6303363134	 2.1604103793	 0.117205
H	 0.2972159901	-1.0881200329	 1.9307726024	 0.071389
H	 1.693238701	 1.6085242847	 1.7017687891	 0.087102
H	 0.0975796342	 1.3312577456	 2.4337555587	 0.084946
H	 1.8217624158	 1.2208065246	 3.98861746	 0.285316
