23
gdb 59658	2.30635	1.28305	1.0304	2.2816	81.91	-0.242	0.0639	0.3059	1303.3847	0.202857	-425.418162	-425.407602	-425.406657	-425.453213	39.483	
C	 0.9467729711	 1.4395831941	 0.2933586456	-0.391459
C	 0.3070478914	 0.0539009649	 0.1254290826	-0.007049
C	-1.2263062463	 0.1387318515	 0.1235969448	-0.39493
C	 0.8004722608	-0.596137227	-1.1584743917	 0.150648
O	 2.2450488242	-0.6710095619	-1.2591216025	-0.304786
C	 2.1680742281	-1.9703121761	-1.876721921	-0.11766
C	 0.688714238	-2.1211663701	-1.432215953	 0.312709
C	 0.5117209491	-3.0268198625	-0.2207023196	-0.459774
O	-0.264838488	-2.3946198929	-2.4364391723	-0.474981
H	 2.0370375001	 1.3677493804	 0.2889314273	 0.135366
H	 0.6486874408	 2.108809816	-0.5224084023	 0.111243
H	 0.6321783651	 1.9004863566	 1.2353371754	 0.105711
H	 0.6270695775	-0.5692494208	 0.9699779212	 0.069731
H	-1.5777538489	 0.7958045584	-0.6801906256	 0.118615
H	-1.6929408599	-0.8397024092	-0.0266928976	 0.120216
H	-1.5925645429	 0.5468324865	 1.0708720284	 0.112099
H	 0.3892586287	-0.054890196	-2.0261521824	 0.073116
H	 2.2705390469	-1.9184260638	-2.9690402594	 0.096169
H	 2.9063902975	-2.6673468524	-1.4636450317	 0.094175
H	 1.2448182615	-2.7959313582	 0.5567211535	 0.136605
H	-0.4916973294	-2.9331582737	 0.2038523436	 0.128998
H	 0.6637614399	-4.0741498153	-0.5123755889	 0.107451
H	-0.3713253152	-3.3491284584	-2.5063862042	 0.277789
