13
gdb 129650	3.38186	1.31114	0.95014	5.6815	68.57	-0.2334	-0.0476	0.1858	1127.6886	0.090306	-448.924581	-448.916399	-448.915454	-448.957304	29.761	
N	 0.0544753141	 1.3809685792	 0.1138539758	-0.595528
C	-0.0267656641	 0.0230364023	 0.0413265726	 0.493883
C	-1.1163406325	-0.813026255	 0.0125131328	-0.093689
N	-2.4641209395	-0.3895992687	-0.0321284361	-0.623759
C	-0.5063194349	-2.1019580394	 0.0118662832	 0.270967
N	 0.8132232323	-2.0565186782	 0.0278633797	-0.226475
O	 1.1079935106	-0.6844645532	 0.0597502352	-0.206381
C	-1.1900375348	-3.3511836181	-0.0218317801	 0.248138
N	-1.809138049	-4.3276065443	-0.0504939924	-0.329547
H	 0.8937075002	 1.7957276677	-0.2637467587	 0.27404
H	-0.8025831696	 1.8439778898	-0.1558585318	 0.277194
H	-2.9412627783	-0.5274892366	 0.8537519418	 0.255253
H	-2.9941450144	-0.8857688155	-0.7408859121	 0.255904
