18
gdb 44936	2.5498	1.82515	1.5348	1.9346	75.27	-0.2193	-0.0173	0.202	940.1334	0.151162	-401.976938	-401.970068	-401.969124	-402.008078	28.236	
O	-0.0303647428	 0.0151338618	 0.1372303086	-0.320053
C	-0.0485333081	 1.2146743633	 0.054053765	 0.418537
C	-1.2912069603	 2.1196652766	-0.0355121702	-0.332198
C	-0.6534275948	 3.5197392009	 0.1535917588	-0.071471
N	 0.6579680078	 3.4220689056	-0.5365052966	-0.294261
C	 1.1809946663	 2.153560012	 0.0007680493	-0.135335
C	 1.7014107302	 2.4235644582	 1.4271461195	-0.237828
C	 0.7062944483	 3.2530389318	 2.2013140065	-0.058134
C	-0.3800127268	 3.7646131572	 1.6242655104	-0.034301
H	-1.7447831157	 2.0171239562	-1.0300125939	 0.118748
H	-2.0375580484	 1.8286268651	 0.7070001144	 0.130126
H	-1.2476357526	 4.3271838978	-0.2783094312	 0.078688
H	 0.4914930556	 3.3142842167	-1.5346844524	 0.218126
H	 1.9663756152	 1.7291679715	-0.6277658642	 0.091964
H	 1.890565255	 1.4715255548	 1.9379097713	 0.124019
H	 2.6648598112	 2.9462868197	 1.3675642897	 0.118773
H	 0.9089369258	 3.4233216096	 3.2553360217	 0.092575
H	-1.1099092859	 4.3333413911	 2.1918640733	 0.092025
