19
gdb 89130	2.21602	1.62797	1.15732	1.9845	82.02	-0.2487	0.0374	0.2861	1125.2186	0.157823	-385.833077	-385.824214	-385.823269	-385.865965	34.761	
C	 0.01730251	 1.5360507054	 0.0469390216	-0.497875
C	-0.0248115585	 0.0353332939	 0.0567285327	 0.333201
C	-1.3020136718	-0.81210108	-0.0391898968	-0.349126
C	-0.6972099944	-1.7916743474	 1.0315549804	 0.145809
O	-0.6471814695	-3.1699392251	 0.7908140204	-0.437354
C	 0.5951188499	-0.9646873568	 1.0354940684	-0.157873
C	 1.1654419178	-0.8100477074	-0.3667660695	-0.266717
C	 1.1111089335	-1.829788279	-1.3794683946	 0.311194
C	 1.0628966155	-2.6760254006	-2.2360900252	-0.445655
H	 1.0125537639	 1.9107493643	 0.3074468164	 0.120144
H	-0.2397476629	 1.9327468618	-0.9422169482	 0.128097
H	-0.697024924	 1.9523490764	 0.7662701585	 0.122147
H	-2.1960661656	-0.2950936607	 0.3174166845	 0.102376
H	-1.5089994031	-1.249456883	-1.0197937053	 0.10824
H	-1.2211086211	-1.6742774413	 1.9838498915	 0.093738
H	-0.1641429028	-3.3054665141	-0.0339898863	 0.286832
H	 1.2342027507	-0.7873253364	 1.8938984405	 0.087371
H	 2.0968763083	-0.248064337	-0.3683497004	 0.11397
H	 1.0308105842	-3.4147851831	-2.9985416488	 0.201482
