17
gdb 69528	2.43446	1.66233	1.31015	2.1229	67.79	-0.2207	0.0544	0.2751	1020.6479	0.132435	-458.873481	-458.864731	-458.863787	-458.906172	33.807	
C	-0.0364967117	 1.5210906627	 0.0626977604	-0.506859
C	 0.1234853762	 0.0386436919	 0.0178962654	 0.360058
O	-0.8012771676	-0.8083783008	 0.7267523499	-0.281503
C	 0.6121482377	-0.9569820638	 0.9685616459	-0.150633
C	 1.2575555583	-1.8019000403	-0.1850164626	 0.307747
O	 2.4555706709	-2.4742550506	-0.0772861639	-0.445655
C	 0.2265413989	-2.2052746749	-1.2057799649	-0.38449
C	 0.7388509438	-0.7796909276	-1.1858482349	 0.209969
O	 1.412817521	-0.1688845585	-2.2248168728	-0.451075
H	 0.8658468527	 2.0100985314	-0.3163668404	 0.136512
H	-0.8785428469	 1.8428380472	-0.5608468587	 0.128662
H	-0.2224172058	 1.8555555793	 1.0866031768	 0.134585
H	 0.965686652	-0.8742899452	 1.9911892965	 0.104227
H	 3.1662276679	-1.826865183	-0.0063983476	 0.293209
H	 0.6707701355	-2.7897171225	-2.0067893108	 0.119225
H	-0.7901231177	-2.457829214	-0.9309510564	 0.133558
H	 0.8186871749	-0.1028710213	-2.9808350017	 0.292463
