20
gdb 30911	1.90847	1.76711	0.99177	1.5457	83.59	-0.1763	0.0483	0.2245	1233.9863	0.170271	-403.18473	-403.174769	-403.173824	-403.219902	35.94	
C	 0.1110961381	 1.6238231041	 0.1492199679	-0.368473
C	 0.0084013791	 0.0952477709	-0.0197539322	-0.301342
C	 0.6652351441	-0.4378114402	-1.2519796445	 0.199785
C	 0.1092380393	-0.7238218904	-2.4821477643	 0.245629
O	-1.2226788202	-0.5493137983	-2.753620486	-0.455678
C	 1.1299888372	-1.1886851902	-3.3514745688	-0.310639
C	 2.2978123031	-1.1728528534	-2.6197594878	-0.09318
N	 2.0219664669	-0.7151822868	-1.3604382669	-0.038187
C	 2.9875003757	-0.6182598473	-0.2887748244	-0.341481
H	 1.1532686557	 1.9527748111	 0.2191842883	 0.10999
H	-0.3394323607	 2.1341665715	-0.7069051823	 0.129017
H	-0.4058812263	 1.9534224197	 1.0568887911	 0.106553
H	 0.4124880738	-0.3970935068	 0.8747129698	 0.093896
H	-1.0491690039	-0.18450135	-0.0683807892	 0.123233
H	-1.4061334841	-0.924234965	-3.6192036915	 0.293118
H	 1.0246809354	-1.4891179509	-4.3833333593	 0.085477
H	 3.3026217693	-1.452871701	-2.893863594	 0.111294
H	 3.0381957482	 0.3984626394	 0.1144520736	 0.137904
H	 2.7483252106	-1.303121078	 0.5329572647	 0.136081
H	 3.9722641787	-0.8820657884	-0.6788087743	 0.137002
