20
gdb 70411	2.28133	1.50443	1.38268	3.4658	78.87	-0.2369	-0.0296	0.2073	1083.8965	0.168851	-403.117829	-403.108604	-403.10766	-403.151527	34.677	
C	 0.0646878198	 1.5268921241	 0.1226779562	-0.504264
C	-0.0205250302	 0.031507567	 0.0010988958	 0.309214
C	-0.9097240819	-0.8008234822	 0.8394830489	-0.293587
N	 0.5476928403	-0.9114941319	 1.0472752987	-0.157075
C	 1.0331085538	-1.8000534222	-0.0665281844	-0.214383
C	 0.5598671247	-0.8162774732	-1.1666602748	 0.143509
C	-0.4056714867	-1.2837802734	-2.2588237784	-0.476782
C	 1.7185711418	-0.0880049692	-1.8297638966	 0.119912
O	 2.8869001236	-0.2678941435	-1.6047470427	-0.246025
H	 1.0748657461	 1.8932248092	-0.0886483675	 0.136209
H	-0.628903884	 2.0201771444	-0.5684684623	 0.12258
H	-0.194745301	 1.836066284	 1.1390317134	 0.135021
H	-1.4203707898	-0.3016227963	 1.6580857139	 0.12081
H	-1.4495682831	-1.6503280726	 0.4270476706	 0.109121
H	 2.118923807	-1.8929994969	-0.0342359276	 0.13869
H	 0.5696432154	-2.7919706499	-0.0698939915	 0.099176
H	-1.3051573358	-1.7309667611	-1.829717385	 0.127296
H	-0.7186797397	-0.4478306254	-2.8952531394	 0.122834
H	 0.0668405171	-2.0340473632	-2.9025549112	 0.130311
H	 1.3965955524	 0.6656013821	-2.5863741162	 0.077432
