17
gdb 87287	2.77834	1.31364	1.0164	4.1314	69.48	-0.2598	-0.0457	0.2141	1182.8285	0.132519	-458.921974	-458.912935	-458.911991	-458.956176	32.198	
C	 0.3092413791	 1.2027197807	-0.3947796018	-0.438299
C	 0.3190296911	-0.1889481154	 0.1761290128	 0.03849
O	 1.5753943501	-0.7559849694	 0.5206714265	-0.263733
C	 0.6611209692	-0.5306287709	 1.5907017191	 0.26145
C	 1.0267939451	 0.5621544068	 2.5611675192	 0.105761
O	 1.8080090735	 1.4497319667	 2.3374816036	-0.247522
C	 0.0416554743	-1.7465292066	 2.2190270103	-0.03641
C	 0.3541213836	-3.0976281908	 1.7441652549	-0.164737
O	 0.9270537536	-2.5959816631	 2.9539078001	-0.232082
H	 0.991519113	 1.8543658478	 0.1512556693	 0.168754
H	 0.6217518131	 1.1662708615	-1.4435476681	 0.135911
H	-0.7026870891	 1.6197921347	-0.3618283422	 0.124426
H	-0.3598432592	-0.897830695	-0.3044490167	 0.096816
H	 0.4929839499	 0.4909307591	 3.5344671588	 0.089731
H	-0.916711426	-1.5698782382	 2.7111594293	 0.104351
H	-0.381480033	-3.8906126238	 1.8689243198	 0.118164
H	 1.0496510516	-3.2106159741	 0.916657415	 0.138929
