17
gdb 27738	2.31567	1.43994	0.89774	1.6874	81.84	-0.2322	-0.0469	0.1853	1269.8168	0.135793	-418.087356	-418.078263	-418.077319	-418.121984	31.875	
C	 0.051827655	 1.457901181	 0.0396480641	-0.499248
C	 0.0337188636	-0.0316713471	-0.0216974756	 0.349538
N	 0.0524036249	-0.751993652	-1.1376246123	-0.348697
C	 0.0246642653	-2.0624489351	-0.7487061513	 0.21724
C	 0.0351477013	-3.1689383931	-1.750984531	-0.495676
C	-0.0117465042	-2.1427193337	 0.6370641893	 0.150287
N	-0.0048104092	-0.8268557474	 1.0704250846	-0.329548
C	-0.0505897898	-3.2264885633	 1.5864469077	 0.061319
O	-0.0792298562	-3.0604619069	 2.7942306982	-0.322305
H	 0.9232040667	 1.8269229038	 0.5916764456	 0.142098
H	 0.089994055	 1.8509658003	-0.9764584992	 0.162411
H	-0.8435100909	 1.8506808707	 0.5340441713	 0.142363
H	 0.9325412835	-3.1118390323	-2.3758102298	 0.144679
H	 0.0094110227	-4.1510820646	-1.273676281	 0.12642
H	-0.8273286351	-3.0877775774	-2.4207580871	 0.144678
H	-0.0264843731	-0.5687256625	 2.0447247765	 0.278566
H	-0.0529844794	-4.2429346704	 1.1429103601	 0.075876
