14
gdb 1413	5.12611	1.62042	1.38625	3.32	61.02	-0.2533	0.0207	0.274	866.1768	0.111518	-324.569051	-324.561042	-324.560098	-324.60211	27.757	
C	-0.1568740997	 1.6754311143	 0.0450960707	-0.383866
C	-0.0165226897	 0.1416976051	 0.0473484417	-0.112066
N	 0.7444057241	-0.3343659292	 1.2048949805	-0.277284
C	 2.0834637787	-0.5550433861	 1.1447549521	 0.160697
O	 2.7751791372	-0.3549620522	 0.1681268089	-0.325934
C	-1.3176921858	-0.5238770887	 0.0014255835	 0.299049
C	-2.4000695089	-1.045540906	-0.0110269363	-0.445758
H	 0.8371442997	 2.1289852052	 0.0424228563	 0.141037
H	-0.6997993042	 2.004515924	-0.8449305986	 0.131641
H	-0.7037759104	 2.0151210256	 0.9290212759	 0.121561
H	 0.5763343459	-0.1496293663	-0.8268511823	 0.150009
H	 0.2436925502	-0.5487640306	 2.052574751	 0.254977
H	 2.4819822951	-0.9428240279	 2.1027055013	 0.082122
H	-3.3512096023	-1.5172108973	-0.0424174548	 0.203815
