21
gdb 96391	2.00441	1.63816	1.17082	1.478	83.8	-0.2445	0.0527	0.2972	1163.6646	0.182878	-387.070593	-387.061686	-387.060741	-387.103707	34.778	
C	-0.0558479872	 1.5628682137	-0.0351741841	-0.412759
C	 0.0471373694	 0.0375837708	-0.014023568	 0.024903
C	 0.68060048	-0.5333399356	-1.2911675157	-0.204144
C	 0.7703425909	-2.0587660045	-1.2141520093	-0.078438
O	 1.4780669116	-2.4906264226	-0.0624135752	-0.23679
C	 0.8806281744	-2.046681294	 1.1345371021	-0.085532
C	 0.8189253465	-0.5028783886	 1.224119019	-0.187877
C	 2.1564484122	 0.0712412624	 1.3535728863	 0.368859
C	 3.2588722175	 0.5377411588	 1.4684180677	-0.499683
H	 0.9359733841	 2.0207085547	-0.0965113673	 0.132349
H	-0.6411613589	 1.899074858	-0.8974188373	 0.109678
H	-0.5433429366	 1.9411096059	 0.8700874871	 0.10986
H	-0.9688182781	-0.3758541132	 0.0689825093	 0.070293
H	 0.0917571416	-0.2439810531	-2.1697552877	 0.091754
H	 1.6871605671	-0.1178462373	-1.4178026015	 0.11717
H	-0.2457192087	-2.4924963259	-1.2127739458	 0.081319
H	 1.3094042484	-2.4706775512	-2.0719646752	 0.107353
H	-0.1479491188	-2.4388437773	 1.2228221639	 0.082502
H	 1.4787155431	-2.4572416146	 1.9517771708	 0.115464
H	 0.2462712595	-0.247541273	 2.1267687147	 0.09813
H	 4.2337789217	 0.9452064567	 1.5731981263	 0.195588
