23
gdb 64409	2.34755	1.58755	1.26669	1.3759	84.63	-0.2371	0.08	0.3171	1132.3835	0.206507	-388.287817	-388.279066	-388.278121	-388.320426	35.539	
C	 0.0307232308	 1.5410311872	-0.028950725	-0.413863
C	-0.0121540112	 0.0039954555	-0.0133348976	 0.258781
C	-1.4832437344	-0.451491586	 0.0843881679	-0.421172
C	 0.61850934	-0.5550239649	-1.3132916527	-0.234737
C	 1.0007725716	-2.0266652951	-1.1774917519	-0.079985
O	 2.0160096578	-2.2015383919	-0.1987908805	-0.258727
C	 1.6881224092	-1.70997547	 1.0700700658	 0.089832
C	 2.2226733634	-0.3502487102	 1.4365915503	-0.333944
C	 0.7380246128	-0.544428692	 1.2050505032	-0.040835
H	 1.0605893592	 1.9078189723	-0.0768196343	 0.112186
H	-0.5102211122	 1.9385760393	-0.8956354245	 0.10617
H	-0.4309958037	 1.9575745872	 0.8731698294	 0.107821
H	-2.0622415391	-0.0860591648	-0.7706238445	 0.108515
H	-1.5732460258	-1.5419627525	 0.1105831312	 0.115053
H	-1.9512100623	-0.0611532371	 0.9944698513	 0.111068
H	-0.080684112	-0.4221267978	-2.1475780405	 0.091834
H	 1.525967625	 0.0066419801	-1.5658915723	 0.098747
H	 0.1197439378	-2.6417837007	-0.9358559438	 0.088325
H	 1.4250928383	-2.4082148704	-2.1108110049	 0.104695
H	 1.6692924218	-2.490754755	 1.8278596233	 0.086784
H	 2.5657281861	-0.165171721	 2.4488225819	 0.107091
H	 2.8034563992	 0.1431015445	 0.6645194144	 0.116548
H	 0.1385807077	-0.5460226666	 2.1121831537	 0.079813
