15
gdb 30901	2.46378	1.34118	0.91657	2.8759	66.23	-0.197	0.0228	0.2198	1218.3078	0.112964	-491.112643	-491.103956	-491.103012	-491.146115	31.904	
N	 0.0660620691	 1.2442594024	 0.0155035096	-0.586639
C	-0.0413628845	-0.1178503672	-0.0189274088	 0.466549
N	-1.1388214348	-0.823577953	-0.000348912	-0.421641
C	-0.6713153471	-2.1237056995	 0.0253932997	 0.254125
O	-1.5249516968	-3.1647555778	 0.0500316828	-0.431464
C	 0.6852448606	-2.167640838	 0.0191689519	 0.174266
C	 1.7057659037	-3.2345956982	 0.0117518053	-0.18479
O	 2.3953520965	-3.3906555501	-1.2306423609	-0.415276
O	 1.0958177788	-0.8206070948	-0.0122393691	-0.212049
H	 0.9211305252	 1.6184092706	-0.3671964615	 0.27018
H	-0.7694213037	 1.7288381588	-0.2738871786	 0.273139
H	-2.4137008471	-2.7908964547	 0.0804688951	 0.305732
H	 2.4934922117	-3.0282377151	 0.7444172789	 0.119981
H	 1.2061454864	-4.1659983126	 0.3162379363	 0.111963
H	 1.722960152	-3.5011236506	-1.9114445388	 0.275925
