14
gdb 131363	3.55639	1.61127	1.10962	3.4701	69.37	-0.1936	0.0337	0.2273	998.1335	0.104529	-432.891054	-432.884092	-432.883148	-432.922042	27.564	
O	 0.0867355021	 1.3512201106	 0.0127728143	-0.426237
C	 0.0689984629	 0.0039981604	 0.0564739122	 0.280531
N	 0.0837897268	-0.7209219855	-1.0453762837	-0.346533
N	 0.1368772631	-2.0504471975	-0.6263464431	-0.376372
C	 0.0305005099	-2.0821721968	 0.7311578797	 0.443602
C	 0.0379673574	-0.7892179855	 1.2370133188	 0.192957
C	 0.031339857	-0.9043916207	 2.6657229404	-0.352936
C	 0.017588391	-2.2450604195	 2.9461966762	-0.057275
N	 0.0301906705	-2.9819104974	 1.7536301766	-0.412796
H	 0.1095154661	 1.5990913396	-0.9206856754	 0.30041
H	-0.2136803	-2.7333392831	-1.2766940172	 0.261906
H	 0.0355293581	-0.1106251285	 3.3952829324	 0.107248
H	-0.0045480829	-2.7617294497	 3.8922940939	 0.122125
H	-0.008439732	-3.9828533863	 1.6889379149	 0.263371
