20
gdb 96112	2.24243	1.75411	1.23012	2.5871	74.09	-0.2417	0.0651	0.3069	1078.3051	0.172417	-440.265001	-440.256618	-440.255673	-440.297533	33.053	
C	 0.0218720995	 1.5292713495	-0.0177119611	-0.484047
C	 0.064398518	 0.0191006304	-0.0259995413	 0.303484
N	-0.8583320357	-0.7395083922	 0.8479254547	-0.383283
C	 0.595002166	-0.7370892299	 1.1383693368	-0.103684
C	 1.3428836864	-2.0450490559	 0.9260152742	-0.081138
O	 1.6824018252	-2.2821015133	-0.4288795666	-0.24574
C	 0.5742676222	-2.1094550379	-1.2926355286	-0.122632
C	 0.1765235648	-0.628533108	-1.4000327499	 0.072703
O	-1.037282815	-0.4845950669	-2.1226696369	-0.438185
H	 0.9577880098	 1.9491330317	-0.4021067468	 0.128489
H	-0.7914955017	 1.8880206169	-0.6565511373	 0.13802
H	-0.1300255321	 1.9182081709	 0.9947199024	 0.107863
H	-1.3383599659	-0.1050140166	 1.4818197686	 0.228524
H	 0.9165130554	-0.1516846914	 1.9975336034	 0.088625
H	 2.2915058323	-2.0228007485	 1.4708277476	 0.108459
H	 0.7374885156	-2.8768714608	 1.3208338091	 0.098559
H	 0.8705724124	-2.4865325749	-2.2744600498	 0.112154
H	-0.2929671388	-2.6919727852	-0.9434231229	 0.09486
H	 0.937851489	-0.0980673301	-1.9824551386	 0.089917
H	-1.7262680373	-0.8400555977	-1.5459812071	 0.287053
