17
gdb 77714	2.40301	1.97091	1.62544	2.4129	71.82	-0.2212	-0.0049	0.2163	904.5914	0.136558	-421.761337	-421.754111	-421.753167	-421.792484	29.167	
O	 0.1326619583	 1.3113620532	-0.0216402284	-0.425697
C	-0.0098511482	-0.0656838988	 0.0356866309	 0.051775
C	-0.5464105415	-0.7342671488	 1.2603625516	 0.313624
C	-1.2492385388	 0.0323956725	 2.3647396637	-0.358633
C	-2.48721798	 0.5587780271	 1.6386515356	-0.073015
C	-2.58137956	 0.1274728668	 0.36782445	-0.192879
C	-1.4065116229	-0.7018056108	-0.0056492504	 0.048867
C	-1.2633094547	-2.2276765404	 0.0468819018	-0.136889
O	-0.3922431814	-2.1597788203	 1.2192412388	-0.318546
H	-0.7320596758	 1.7088951771	 0.1442094954	 0.287828
H	 0.7852157259	-0.5725001512	-0.5054375678	 0.115719
H	-1.5154291729	-0.6289804633	 3.1972270762	 0.132763
H	-0.638612063	 0.8444162764	 2.7778074688	 0.126234
H	-3.19498035	 1.2293970553	 2.1181319875	 0.103415
H	-3.3980312971	 0.3740116951	-0.3029865172	 0.104045
H	-2.1975972605	-2.7507720324	 0.2802972108	 0.112424
H	-0.7646891673	-2.7184452176	-0.7971664372	 0.108964
