19
gdb 52715	3.97839	0.65989	0.60387	3.2727	81.63	-0.2506	0.0356	0.2861	1867.8177	0.156145	-422.9733	-422.962753	-422.961809	-423.011449	36.069	
C	-0.0066188184	 1.4603923813	 0.0246712776	-0.500202
C	 0.0351172251	 0.0057411832	-0.0117269524	 0.104876
C	 0.0807244901	-1.1981496948	-0.0223598589	 0.021539
C	 0.0926398469	-2.6603621754	-0.0816448382	-0.054298
O	-1.1833523749	-3.2164113134	 0.2441138133	-0.424218
C	 0.5839058303	-3.1652947771	-1.4559674731	-0.227358
C	 0.6926949034	-4.669224963	-1.4873994085	 0.093485
C	 1.7238704069	-5.357086642	-2.2719373257	-0.184025
O	 1.8528586837	-5.2262990236	-0.8556775396	-0.239942
H	 1.0045980476	 1.8817874851	 0.0272508971	 0.153508
H	-0.5328432525	 1.8684059877	-0.845220859	 0.148424
H	-0.5179145229	 1.8209524205	 0.9238484754	 0.152926
H	 0.7730098902	-3.0541890945	 0.6830316042	 0.131574
H	-1.8473817338	-2.6939810505	-0.2190464275	 0.282046
H	-0.1174821978	-2.8232330075	-2.2279623416	 0.098551
H	 1.5603009801	-2.7210920299	-1.6755499215	 0.113245
H	-0.2290195403	-5.2043393158	-1.2629022067	 0.106047
H	 1.5463571379	-6.3684107941	-2.6355335058	 0.113702
H	 2.4285509286	-4.7711764861	-2.8616717691	 0.110117
