17
gdb 12391	2.93566	2.26273	1.3638	2.6348	66.27	-0.2541	0.0171	0.2712	903.0668	0.14317	-401.009214	-401.001667	-401.000723	-401.041229	28.172	
C	 0.0929521977	 1.5563360337	-0.0901436772	-0.393693
C	 0.111688188	 0.040754676	 0.0167141893	 0.040756
O	 0.7019581938	-0.4739641116	-1.1725703201	-0.253698
C	 0.8226893806	-1.8792458146	-1.1216719995	-0.09414
C	 1.7895554391	-2.2496163855	-0.0158217071	-0.076871
O	 1.3763801448	-1.7007392152	 1.2434944234	-0.257542
C	 0.8142472351	-0.4572100375	 1.2787093063	 0.377856
N	 0.7709279185	 0.2150712885	 2.3491386682	-0.506203
H	 1.1125492463	 1.9407496117	-0.1746635312	 0.127596
H	-0.4696259499	 1.8518235777	-0.9793196377	 0.11815
H	-0.3666882572	 1.9874589007	 0.7990377377	 0.149058
H	-0.9253734116	-0.3373156394	 0.0822642013	 0.09525
H	-0.1589231983	-2.3514439224	-0.9499120215	 0.098862
H	 1.2042073703	-2.2124487015	-2.091408528	 0.117435
H	 1.8489333562	-3.3317495123	 0.1309887979	 0.11827
H	 2.790410647	-1.8686369589	-0.255737841	 0.118571
H	 1.2370899993	-0.2952723693	 3.1026208391	 0.220341
