17
gdb 62858	2.93213	1.59934	1.39692	3.9822	67.58	-0.2636	0.0037	0.2673	973.0186	0.136173	-458.980805	-458.973242	-458.972298	-459.012433	30.273	
C	-0.1462206828	 1.5674288751	 0.011764207	-0.454149
C	-0.0042946649	 0.0548816724	-0.0043197062	 0.448488
O	-1.2865498954	-0.4529289703	-0.2287786256	-0.484111
C	 1.1569876965	-0.5777853098	-0.8329513622	 0.023625
C	 2.1280078585	-0.2210496603	 0.3060801429	-0.260587
C	 0.8749642728	-0.5782503716	 1.1760629148	-0.252642
C	 0.745456952	-2.0370610611	 0.7865901382	 0.436087
O	 0.5258857501	-3.0358240387	 1.3977413557	-0.339141
O	 0.9209410733	-2.0029312072	-0.5930227919	-0.27108
H	 0.7755679448	 2.0904197547	 0.2666611257	 0.122526
H	-0.4874887963	 1.9126405213	-0.9685937776	 0.134571
H	-0.911811987	 1.8391710796	 0.7437457699	 0.142875
H	-1.2086623783	-1.3762300841	-0.5004683853	 0.300516
H	 1.3325460467	-0.414161123	-1.8944914368	 0.098902
H	 3.0015724811	-0.8668044796	 0.4061505403	 0.129161
H	 2.4180005227	 0.8264451725	 0.3506465262	 0.123759
H	 0.759626936	-0.3329361398	 2.2280181549	 0.101198
