13
gdb 132303	2.04112	1.82476	0.96398	8.0522	64.99	-0.2302	-0.0295	0.2007	1092.5047	0.09046	-494.111311	-494.103923	-494.102979	-494.143181	28.213	
N	 0.0186011208	 1.384642354	 0.1490859964	-0.578761
C	-0.0499098628	 0.0234838376	 0.0487980319	 0.503254
C	-1.2268128753	-0.6945863729	 0.0278671231	-0.399103
C	-1.0729441621	-2.0921095677	-0.017947107	 0.367988
F	-2.2018551925	-2.7918738323	-0.0392000381	-0.065384
N	 0.0238484215	-2.7773395784	-0.0481570105	-0.394671
C	 1.21613387	-2.0971883212	-0.0277148102	 0.446976
O	 2.321839766	-2.5868164252	-0.0427409924	-0.383092
N	 1.1148175066	-0.6681810382	 0.0158518813	-0.413493
H	 0.8512702288	 1.8453546045	-0.1833933936	 0.268034
H	-0.833931824	 1.8910616719	-0.0290144006	 0.276002
H	-2.1979351257	-0.2242014564	 0.0433345149	 0.110864
H	 2.0061344588	-0.1955232757	 0.0680606048	 0.261385
