21
gdb 93005	2.68374	1.51549	1.10632	1.6892	83.71	-0.2356	0.0066	0.2422	1175.419	0.182465	-387.101501	-387.092809	-387.091865	-387.13427	34.19	
C	 0.1610080211	 1.5719175576	 0.0369312735	-0.400078
C	 0.0234964405	 0.0439413218	 0.0114956636	-0.016996
C	 0.5810232788	-0.5467313568	-1.3028543664	-0.269285
C	 0.7503314365	-2.0418060697	-1.2616083474	-0.098215
C	 1.0313114128	-2.6928486809	-0.1326934357	-0.080419
C	 1.1701453377	-1.9776708802	 1.1667729555	 0.372138
C	 1.24262193	-2.8259943989	 2.4128605765	-0.482715
O	 2.081668123	-0.8409285464	 1.1591239866	-0.303481
C	 0.6766729824	-0.5905515001	 1.223181414	-0.00635
H	 1.2170054807	 1.8620716308	 0.0263945384	 0.129136
H	-0.3237251817	 2.0259914615	-0.8334580861	 0.112196
H	-0.2963235258	 1.9987007319	 0.9356835332	 0.111369
H	-1.0446043048	-0.2123501347	 0.0752047389	 0.078012
H	-0.0698663939	-0.2578758893	-2.1354529321	 0.099641
H	 1.5574280668	-0.0859062627	-1.5060412691	 0.126856
H	 0.6726776104	-2.5865748113	-2.1986979896	 0.0929
H	 1.1697391742	-3.7703834094	-0.126518086	 0.083283
H	 2.1039185989	-3.5018974975	 2.3689474313	 0.126508
H	 1.3458529489	-2.1991550003	 3.3016466595	 0.126684
H	 0.3409829635	-3.4393890873	 2.5180729093	 0.122075
H	 0.33249402	-0.209852248	 2.1882445222	 0.076742
