17
gdb 74407	2.58742	1.51531	1.27927	2.3599	74.88	-0.2302	0.0022	0.2324	1055.624	0.134287	-421.818586	-421.81008	-421.809136	-421.851665	31.959	
C	 0.0429960589	 1.4448910217	 0.0782269815	-0.514632
C	-0.0878522367	-0.0389344691	 0.033283328	 0.343589
C	-0.1471135491	-0.8889226255	-1.0112716963	-0.286603
C	-0.0811754254	-2.278413911	-0.382744825	 0.278357
O	-0.1627400635	-3.42820226	-1.1452421515	-0.476728
C	-1.0087823553	-2.0981893541	 0.8475305674	-0.248431
C	-0.0115899671	-0.9635211464	 1.244366182	-0.25047
C	 1.0873051192	-1.9407989077	 0.6516967703	 0.357182
O	 2.2007327838	-2.2778895243	 0.8831534097	-0.309103
H	 0.9878244394	 1.7432791091	 0.5500950261	 0.138135
H	 0.0169549819	 1.8746129224	-0.9270464123	 0.129695
H	-0.7605744771	 1.9023536695	 0.6679987143	 0.131825
H	-0.1053105519	-0.6773450866	-2.0716674665	 0.103315
H	 0.5770666731	-3.4427065924	-1.7619634493	 0.292418
H	-2.0271703188	-1.7738533346	 0.6212390039	 0.109098
H	-0.9911499991	-2.9553374275	 1.5277478806	 0.115368
H	 0.0397523577	-0.5429341032	 2.2450797472	 0.086985
