11
gdb 2567	4.74103	2.26325	1.72133	2.8639	52.68	-0.294	-0.0677	0.2263	685.5414	0.078181	-339.424322	-339.417869	-339.416924	-339.454749	22.397	
O	-0.1710844207	 0.325152367	 0.7290373218	-0.257501
C	 0.1168976515	 1.0783068085	-0.1665526423	 0.10505
C	 1.3420095186	 1.9507915136	-0.0990478733	 0.074499
C	 1.5250696998	 2.6972698961	 1.2073033789	-0.236801
N	 2.3709833898	 1.5694761294	 0.8892805934	-0.313603
C	 1.788406525	 2.5287790545	-1.3424958312	 0.247369
N	 2.0926800343	 2.9895263427	-2.357804855	-0.316608
H	-0.4929458525	 1.1750852725	-1.0845190456	 0.121991
H	 2.0030612135	 3.6708007177	 1.1664434362	 0.158666
H	 0.726920647	 2.5769576941	 1.9344759328	 0.152522
H	 2.0143690936	 0.7348212239	 1.3592061042	 0.264415
