23
gdb 40689	3.14428	0.94701	0.79416	0.0497	91.3	-0.2363	0.0816	0.3179	1532.5805	0.206101	-351.11217	-351.10301	-351.102066	-351.147044	35.255	
C	-0.4836580133	 1.3833212557	-0.3291074875	-0.277496
C	 0.9437470561	 1.5254323108	 0.1401450997	-0.266884
C	 0.3074224788	 0.1588041923	 0.0641834401	 0.032007
C	-0.037775711	-0.5845189048	 1.3160580964	-0.013272
C	-0.652469978	-1.9651063097	 1.2615661017	-0.326273
C	 0.7498377952	-1.7868685675	 1.7987834848	-0.013276
C	 1.9351751034	-2.3260801062	 1.0618232667	 0.032005
C	 3.3288601988	-2.1153633733	 1.6018159836	-0.26688
C	 2.7100340174	-3.4916733844	 1.628317167	-0.277501
H	-1.272503879	 1.7096006359	 0.3410924023	 0.108865
H	-0.7015679851	 1.5443014766	-1.3792819533	 0.107522
H	 1.7048774205	 1.7845152039	-0.5876525641	 0.107978
H	 1.1129028567	 1.9473082836	 1.1256190257	 0.108639
H	 0.635214071	-0.4662356158	-0.7613128034	 0.076557
H	-0.4118660887	 0.0636976953	 2.1061434709	 0.073119
H	-1.4544725084	-2.2148955609	 1.9479450467	 0.105296
H	-0.7516971993	-2.423493201	 0.2817405562	 0.106912
H	 0.8503242757	-1.8631198785	 2.8797326892	 0.073119
H	 1.8440976161	-2.3120063972	-0.020338397	 0.076559
H	 4.1333296381	-1.922582034	 0.9005335475	 0.107978
H	 3.4283506565	-1.5869515556	 2.5444899018	 0.10864
H	 2.3941324029	-3.887085996	 2.5883999236	 0.108866
H	 3.0897098655	-4.2429876391	 0.9444759813	 0.107523
