10
gdb 21786	5.92324	1.68105	1.30943	3.7217	55.15	-0.2715	-0.1265	0.145	819.9828	0.060138	-409.607381	-409.601117	-409.600173	-409.638386	21.19	
O	-0.062125283	-0.0060818307	-0.0022452466	-0.205629
C	 0.0005602328	 1.1907820971	 0.0070715236	 0.124755
C	 1.2972798836	 1.9693154383	-0.0001264033	 0.303119
N	 1.1847433964	 3.2949364025	 0.0119636236	-0.24282
C	 2.3603644145	 3.9145192712	 0.0053964749	 0.116953
N	 3.5509379658	 3.3095724191	-0.0120113799	-0.152261
N	 3.5756581299	 1.9840729882	-0.0226745014	-0.038588
N	 2.4534601519	 1.2918518382	-0.0168852617	-0.183912
H	-0.8868368147	 1.8549357275	 0.022451801	 0.115917
H	 2.3708092529	 5.0009432386	 0.0128073598	 0.162467
