16
gdb 40113	3.22415	1.56091	1.19657	2.7439	68.6	-0.2532	0.0091	0.2622	1005.9561	0.125356	-437.829969	-437.823015	-437.82207	-437.861397	27.177	
C	 0.0321622664	 1.5719096716	 0.1343747472	-0.243846
O	 1.2239728289	 0.772364521	 0.1113772744	-0.274357
C	-0.0204039346	 0.1109255321	 0.0184015713	 0.399291
C	-0.4815018361	-0.830321808	 1.1771155506	-0.238981
N	-1.6930406236	-1.5285076052	 0.6595646595	-0.30764
C	-1.549513835	-1.436931461	-0.5911351006	 0.433134
O	-2.3919833869	-1.4575368605	-1.667092866	-0.268537
C	-1.5192907755	-0.4352030798	-2.3024023031	-0.123491
C	-0.4275551409	-0.6832936218	-1.2187478246	-0.258329
H	-0.1964229649	 2.0437887556	 1.0886608981	 0.12471
H	-0.12592221	 2.194977971	-0.7447853416	 0.118741
H	 0.319773972	-1.5345273899	 1.4365452078	 0.122097
H	-0.7410389414	-0.2752535847	 2.0824527355	 0.122811
H	-1.2644974245	-0.7234699353	-3.3226052135	 0.135345
H	-2.0157327725	 0.5373348348	-2.271390245	 0.133713
H	 0.3998636086	-1.2884565599	-1.5976602701	 0.125339
