13
gdb 28146	5.3915	1.29669	1.04529	2.4694	66.71	-0.1837	0.0111	0.1948	1032.6152	0.091588	-452.776371	-452.769428	-452.768484	-452.807564	26.475	
O	 0.0772798291	 1.3062569681	 0.2069931377	-0.428732
C	 0.0675310398	-0.0309975393	-0.0029467565	 0.418112
C	 0.0858006868	-0.7830300908	-1.1681125928	-0.497089
C	 0.0601781067	-2.119974204	-0.6882879616	 0.337129
C	 0.0288083877	-2.1341533758	 0.6786429563	 0.303403
N	 0.0331593661	-0.8278475186	 1.1204254752	-0.437381
N	 0.0034901543	-3.4130514473	 1.1702042727	-0.35389
C	 0.0203349008	-4.1245825139	 0.0790633581	 0.02647
O	 0.0552938994	-3.4195778931	-1.1022432689	-0.209402
H	 0.1039589633	 1.7509296842	-0.645728319	 0.312089
H	 0.1129077809	-0.4024248709	-2.175496358	 0.108457
H	 0.015250482	-0.4825307607	 2.0639508888	 0.276258
H	 0.0104820531	-5.197944948	-0.0116609021	 0.144575
