19
gdb 97333	6.38442	0.65215	0.62276	1.9914	86.54	-0.2454	-0.0128	0.2327	1833.7906	0.15892	-419.236774	-419.227263	-419.226319	-419.271854	33.991	
C	 0.06486951	 1.7788096179	-0.7905510888	-0.310943
N	-0.1162079294	 0.3774239745	-1.1098814275	-0.239514
C	 0.1167196314	-0.4630855476	-0.1930137958	 0.117438
N	-0.0350511558	-1.8225957305	-0.4260036738	-0.366892
C	 0.2018010609	-2.7966678791	 0.5269786145	 0.457268
O	 0.565853697	-2.5252131435	 1.6566971636	-0.379065
C	-0.0245583577	-4.193453413	 0.0573396824	-0.142045
C	 0.8758041006	-5.2674301189	 0.6447387272	-0.246888
C	-0.5473831591	-5.1845209076	 1.0836072102	-0.24687
H	 0.3941807448	 1.9614346726	 0.2443236773	 0.103582
H	 0.8031407181	 2.2182203613	-1.4715527747	 0.127637
H	-0.8757756428	 2.3173994143	-0.9548178164	 0.127634
H	 0.4439051263	-0.2398321017	 0.8262524914	 0.131643
H	-0.3359227305	-2.0815213781	-1.3540381445	 0.258747
H	-0.3488562049	-4.3207813953	-0.9700261646	 0.084428
H	 1.1777975717	-6.0729734401	-0.0143220095	 0.118954
H	 1.6317977249	-4.9166778848	 1.3371589879	 0.142977
H	-0.7420674477	-4.7786798994	 2.0691886612	 0.14297
H	-1.2505349078	-5.9314491212	 0.7341048698	 0.118939
