21
gdb 114625	3.25353	1.03098	0.8984	1.9856	78.36	-0.2558	0.0815	0.3373	1382.1809	0.181425	-424.191826	-424.182468	-424.181524	-424.226053	35.114	
C	 0.075734985	 1.5253160993	-0.1900182846	-0.382304
C	-0.0372935026	 0.0462785621	 0.1926964434	-0.192789
C	-1.4537757164	-0.5009981415	 0.0532634753	-0.060044
C	-2.0664517853	-0.675784743	-1.3911205079	-0.264842
C	-2.2392765866	-2.1673598056	-1.0870215158	-0.040922
O	-0.9238526989	-2.6845395519	-0.7922531094	-0.303136
C	-1.6596015235	-2.0172512979	 0.2554988217	 0.382992
C	-1.8587066897	-2.8180891314	 1.5095251062	-0.183683
O	-2.1341483464	-4.1702267537	 1.2135583941	-0.416658
H	 1.104647979	 1.8829782994	-0.0859153819	 0.114879
H	-0.230101288	 1.6929988909	-1.2283934821	 0.118686
H	-0.5602732202	 2.15088738	 0.4464290157	 0.112305
H	 0.6308733697	-0.5569212721	-0.4317920978	 0.113238
H	 0.2992947861	-0.0882275073	 1.229287434	 0.094551
H	-2.148583359	 0.0633370158	 0.6861471453	 0.075126
H	-3.0106888399	-0.1426630372	-1.5216732761	 0.10835
H	-1.4028000813	-0.4555144711	-2.2313821607	 0.111008
H	-2.9672495072	-2.8745805917	-1.4661162099	 0.111075
H	-0.9667524668	-2.7150428727	 2.1520481076	 0.095282
H	-2.7107382483	-2.4220906892	 2.0740608953	 0.11464
H	-1.5248890596	-4.4072895613	 0.5019492176	 0.292247
