20
gdb 71943	2.74036	1.91975	1.44471	1.2864	77.19	-0.2139	0.0713	0.2852	969.5323	0.17294	-403.108798	-403.101432	-403.100488	-403.140292	29.887	
C	 0.0049011277	 1.5644191712	-0.0367118693	-0.495183
C	 0.0259597885	 0.0471256726	 0.0460735942	 0.308983
C	 0.3217379577	-0.7176361942	-1.2827996293	-0.224327
N	-0.9983537519	-1.4374182058	-1.2496749765	-0.14225
C	-0.9056284028	-2.7329982883	-0.4978909331	-0.192264
C	-0.9879245145	-2.0087810946	 0.8688595902	 0.095343
O	 0.2838928825	-1.831414466	 1.4854684038	-0.27859
C	 0.7634313904	-0.5059925247	 1.2668758074	-0.125639
C	-1.3119847312	-0.7316319526	 0.0605572718	-0.069413
H	 1.0183299925	 1.9654399564	-0.1561614818	 0.120586
H	-0.5869155596	 1.9050876502	-0.8918268724	 0.126138
H	-0.4232047815	 2.0077516168	 0.8691697314	 0.118755
H	 0.3877667168	-0.0640734382	-2.1583172572	 0.103567
H	 1.1959843575	-1.3779796419	-1.2713918788	 0.102776
H	-1.7852832799	-3.3478102286	-0.7132950612	 0.10532
H	 0.0017469072	-3.3184001101	-0.6734140958	 0.107582
H	-1.7057916539	-2.3857344854	 1.6035810083	 0.076856
H	 1.8490365228	-0.5559226	 1.1228110818	 0.105653
H	 0.5655156025	 0.1221060064	 2.1503932963	 0.088417
H	-2.269813481	-0.2208881632	 0.17381858	 0.067689
