17
gdb 35757	3.17055	1.50553	1.3538	1.4898	73.03	-0.2406	0.0364	0.277	993.3437	0.136508	-421.762741	-421.755335	-421.754391	-421.794536	29.281	
C	-0.0288391816	-1.2393813846	-0.2317115739	-0.452426
C	-0.0041771455	-0.0478450545	-0.0802571465	 0.347529
C	 0.0099257292	 1.4074504807	 0.0821968955	-0.079445
O	-0.6280663633	 1.8254627163	 1.2961323811	-0.274417
C	 0.2433041431	 1.9311544735	 2.4241481989	-0.079258
C	 1.6146311696	 2.424996828	 1.9815460119	 0.074637
C	 1.4819824234	 3.3392975524	 0.7444687659	-0.255932
C	 1.4425238393	 1.9708024236	 0.0347828125	 0.066609
O	 2.1823967877	 1.3798575395	 1.1344458664	-0.291933
H	-0.0468731459	-2.2935793981	-0.3591951266	 0.198657
H	-0.5847624705	 1.865557263	-0.7189997207	 0.114244
H	-0.2422696968	 2.6330858106	 3.11064147	 0.109871
H	 0.3587134175	 0.9604851979	 2.926384409	 0.114456
H	 2.2696271275	 2.6991591919	 2.8121963469	 0.084037
H	 0.6128898718	 3.9939527729	 0.6692255726	 0.116212
H	 2.4055614752	 3.8779964761	 0.532238161	 0.114365
H	 1.9220678594	 1.8205128508	-0.9348540138	 0.092793
