17
gdb 69009	2.95756	1.32475	1.20329	0.5896	69.29	-0.2278	0.0541	0.2818	1087.9771	0.134534	-458.883149	-458.875055	-458.874111	-458.916093	30.736	
O	-0.1063935136	 1.421040676	 0.0254973107	-0.443779
C	-0.0682734916	 0.0466863367	 0.0258721157	 0.266686
C	-0.2159361601	-0.7240329598	-1.2556271829	-0.381379
C	-1.1383864738	-1.0330923616	-0.0988365331	 0.393582
O	-0.4602284212	-1.8764466721	 0.8406761357	-0.320616
C	 0.5349929708	-0.8486310191	 1.1034511204	-0.147212
C	-2.6133089765	-1.0300403652	-0.1147496294	-0.064886
C	-3.3835305029	-2.0608345373	 0.5960982972	-0.172448
O	-3.2671636013	-0.7422103466	 1.1305716377	-0.242426
H	-0.5577795314	 1.7143137282	 0.825960004	 0.296265
H	-0.6648235821	-0.1360059833	-2.0507478397	 0.127954
H	 0.5189478491	-1.4604680068	-1.5706586377	 0.11728
H	 1.5591441083	-1.211205323	 0.9614890741	 0.11142
H	 0.41528938	-0.4476502342	 2.117735453	 0.108587
H	-3.0621356543	-0.5438151544	-0.9801598437	 0.101702
H	-4.3720839804	-2.3374486627	 0.2318692001	 0.114432
H	-2.842839429	-2.8300951849	 1.1422673577	 0.134839
