14
gdb 16299	3.4139	1.81615	1.46776	3.5115	63.2	-0.2683	-0.0083	0.26	856.7626	0.107637	-378.680276	-378.673185	-378.672241	-378.711564	26.406	
O	 0.0919082238	 1.4680202693	 0.2051178007	-0.415153
C	-0.0038854359	 0.0790453933	 0.0526151732	 0.030343
C	 0.1895189328	-0.712727325	 1.3626318521	-0.176791
N	-1.1507790102	-1.3948744551	 1.2368934102	-0.148529
C	-2.1409933648	-0.3165315336	 1.2570435407	-0.270674
C	-1.4134403429	-0.5478157443	-0.0159688508	 0.180955
C	-2.0261479923	-1.0543684315	-1.2038207325	 0.191053
N	-2.4938375149	-1.4222318473	-2.1966218216	-0.334872
H	-0.0102328941	 1.886143157	-0.6568288099	 0.295484
H	 0.6305623702	-0.2931912922	-0.7594091686	 0.101887
H	 0.9936777796	-1.4477169059	 1.3255193326	 0.129417
H	 0.2836750631	-0.0988036987	 2.2622451846	 0.128395
H	-3.1635188428	-0.6751833816	 1.3064214248	 0.148133
H	-1.9326234715	 0.5978208054	 1.8076689244	 0.140352
