14
gdb 42562	3.42611	1.64012	1.36284	5.1955	65.13	-0.2553	-0.0053	0.25	916.4674	0.100736	-436.609186	-436.602651	-436.601707	-436.640154	25.706	
O	-0.1297256517	 0.1229625194	 0.260101923	-0.304179
C	-0.1473649042	 1.3038296546	 0.1517986631	 0.460851
C	-1.1764544286	 2.3839921149	-0.1716085123	-0.350071
C	 0.0861431735	 3.111974517	-0.788586801	-0.033966
C	 0.4418448619	 3.5488908992	 0.5719993199	-0.175702
N	 0.9878859799	 2.236042225	 0.0535085746	-0.201339
C	-0.9829485583	 3.3248010247	 1.0318582417	 0.529312
C	-1.9140334778	 4.2716880402	 1.6320944323	-0.287113
O	-1.4455715687	 3.1003936081	 2.3357885216	-0.269834
H	-2.1480210079	 2.1762218291	-0.6090544119	 0.111843
H	 0.3434282707	 3.4325256301	-1.7857202716	 0.136001
H	 1.1772528824	 4.2644064973	 0.9146842417	 0.125637
H	-1.5498331505	 5.2215165148	 2.0209072748	 0.129138
H	-2.9648814408	 4.2541519855	 1.3487548943	 0.129421
