16
gdb 27275	3.25297	1.52714	1.06348	1.142	71.94	-0.1801	0.0301	0.2101	1075.9048	0.12661	-437.897576	-437.890111	-437.889166	-437.929391	28.815	
O	 0.0955193952	 1.3062890212	 0.3036622254	-0.423495
C	-0.023581862	-0.0275020891	 0.1329384099	 0.228477
C	-1.0796616179	-0.8441254934	-0.0929688874	 0.140601
N	-2.4491985665	-0.8074491984	-0.4033671732	-0.425955
C	-2.9557074936	-2.1704525492	-0.0941032512	-0.165949
C	-1.736531684	-3.1186948942	-0.3103231587	-0.350776
C	-0.5909985508	-2.1853952568	-0.0371867519	 0.249807
C	 0.7376343934	-2.1092768697	 0.2077243443	-0.186018
O	 1.1052679155	-0.7933722288	 0.3325068964	-0.185204
H	 0.6989768903	 1.6638591115	-0.3594808145	 0.304455
H	-2.9736875672	-0.069459289	 0.0479158492	 0.236366
H	-3.2910188673	-2.2449828752	 0.9512532975	 0.100097
H	-3.8015250536	-2.4193935611	-0.7407257483	 0.107616
H	-1.7849779797	-3.9923911035	 0.3443444337	 0.116187
H	-1.711832974	-3.4827465604	-1.3446514982	 0.121834
H	 1.5332171222	-2.8257128439	 0.324045637	 0.131958
