20
gdb 63227	2.28917	1.53566	1.15518	4.1238	81.5	-0.2348	0.0074	0.2421	1145.5319	0.170318	-403.192455	-403.183362	-403.182418	-403.226023	34.339	
C	-0.0604630092	 1.5712597226	-0.0004008674	-0.404254
C	-0.0457509148	 0.0298078477	-0.0045310951	 0.208067
C	-1.4849680334	-0.5221452151	-0.0219180024	-0.404434
C	 0.7617950283	-0.5080678872	-1.168075714	-0.080944
C	 1.8093005962	-1.2247258116	-0.777025086	-0.10692
C	 1.8983059591	-1.2999878948	 0.7196072636	-0.208654
N	 0.7353899394	-0.5128104493	 1.1345810262	-0.069581
C	 0.4515025667	-0.3384379972	 2.4459466303	 0.138236
O	 1.1105070377	-0.7991591142	 3.3591244591	-0.349724
H	 0.9580876439	 1.9661788142	 0.0317190495	 0.126713
H	-0.5500462465	 1.948980524	-0.9039721514	 0.118036
H	-0.610899229	 1.9583018573	 0.8627601085	 0.121623
H	-2.0064402924	-0.1940573486	-0.9270287204	 0.118093
H	-1.4788443971	-1.6148822248	-0.0034348249	 0.126757
H	-2.0562459044	-0.1628801776	 0.8396834347	 0.121649
H	 0.4696411837	-0.2990823201	-2.1902073599	 0.103546
H	 2.5301554757	-1.7086773701	-1.4237204795	 0.111725
H	 1.8395059157	-2.326298152	 1.1066031848	 0.130709
H	 2.827971082	-0.873674338	 1.12033524	 0.130593
H	-0.4548982116	 0.2755710747	 2.6127032142	 0.068765
