15
gdb 3144	4.03508	2.74489	1.9193	2.8435	62.57	-0.2365	-0.0174	0.2191	693.9339	0.12479	-308.517192	-308.510593	-308.509649	-308.547837	24.532	
O	 0.0671932997	 0.0980654981	-0.4287179654	-0.313442
C	 0.0107099233	 1.2526089807	-0.1081032698	 0.347752
C	-1.11544915	 2.1866456056	 0.3850830271	-0.340234
C	-0.0609477713	 3.3407145022	 0.4650864736	-0.329426
C	 1.0194370264	 2.3624164691	-0.0300799867	 0.248931
C	 2.4597915888	 2.1958340731	 0.4038969993	-0.307011
C	 2.1537928558	 2.5733469926	-1.0095978828	-0.307011
H	-1.9208158152	 2.3279575909	-0.3408725931	 0.131631
H	-1.5577065001	 1.8798683626	 1.3368663088	 0.131627
H	-0.2609913751	 4.1778475459	-0.2074212007	 0.110184
H	 0.1027043993	 3.729059495	 1.4727977832	 0.110185
H	 2.862658687	 2.9546864227	 1.0665256625	 0.122583
H	 2.7900872912	 1.1826725587	 0.6077112601	 0.135822
H	 2.2727127033	 1.8209660849	-1.7821989561	 0.135823
H	 2.3447942969	 3.5935803779	-1.3256328501	 0.122585
