18
gdb 17763	5.31373	1.24256	1.19995	0.7147	77.85	-0.2574	0.0585	0.316	1059.5011	0.154311	-310.580761	-310.573481	-310.572537	-310.612576	28.577	
C	 0.0413625146	-1.1953370163	 0.0146804141	-0.459919
C	-0.0147608311	-0.0006705778	 0.1364519576	 0.312204
C	-0.0465166754	 1.4516136233	 0.2780331796	-0.410939
C	 1.342002649	 2.0770762483	 0.0959740039	 0.074101
C	 2.0028290081	 2.2214979668	-1.3119842538	-0.037699
C	 1.0348158825	 3.4066662501	-1.6034224313	-0.224868
C	 1.5204594975	 3.6119412213	-0.1370706363	-0.065595
C	 2.9483558414	 3.2709306566	-0.6562662677	-0.219075
H	 0.0783545203	-2.2509477937	-0.0909243566	 0.193605
H	-0.7719357317	 1.8668501394	-0.4290842689	 0.12963
H	-0.4196191396	 1.7094075389	 1.2784624904	 0.129065
H	 2.0173859126	 1.6629051224	 0.8525311763	 0.072855
H	 2.2827063241	 1.4134944472	-1.9884564043	 0.076016
H	 1.3848700422	 4.1435125838	-2.3313348856	 0.091084
H	-0.0193323431	 3.1793704999	-1.7692754331	 0.091996
H	 1.2431709055	 4.4175620875	 0.5451131101	 0.067834
H	 3.6643642387	 2.8972448778	 0.0809150028	 0.089983
H	 3.4059943243	 4.0000851745	-1.3295620072	 0.089719
