19
gdb 119804	5.33988	0.78021	0.73238	2.9941	77.32	-0.2373	0.0036	0.2409	1538.1143	0.159043	-423.008317	-422.99965	-422.998706	-423.042442	32.163	
O	-0.1895902271	 1.4765415488	-0.0794319539	-0.416987
C	-0.0118692392	 0.0714960323	-0.1545974278	-0.067636
C	-1.3537128518	-0.5766045638	 0.196521432	-0.290088
C	-1.3276239488	-2.0739437111	 0.147712737	 0.311909
C	-1.5776526593	-2.9117543225	 1.1627534197	-0.208554
C	-1.5793918896	-4.3278816298	 0.6979255275	 0.013001
O	-2.5968412708	-4.5987595586	-0.2991617332	-0.259672
C	-1.2736410976	-4.2981811872	-0.7424038793	 0.0398
C	-1.0576634662	-2.8440510234	-1.1420506222	-0.337489
H	 0.6492780047	 1.8984646885	-0.2863303273	 0.286912
H	 0.3038342546	-0.2358982686	-1.1640972669	 0.08783
H	 0.7590951126	-0.2767642934	 0.5509059096	 0.090876
H	-1.6506420227	-0.2369278735	 1.1939191807	 0.113492
H	-2.1026526081	-0.1884915852	-0.5071273199	 0.117657
H	-1.8055998802	-2.6133241546	 2.179133164	 0.096592
H	-1.3481886406	-5.1619530438	 1.3532157467	 0.09467
H	-0.7607909781	-5.1010406601	-1.2653545342	 0.093575
H	-1.734850121	-2.537287715	-1.9488016022	 0.124672
H	-0.0351359808	-2.686644209	-1.5089055302	 0.10944
