23
gdb 104162	2.31136	1.29464	1.096	2.6885	81.5	-0.2431	0.0764	0.3195	1268.4523	0.205187	-425.44887	-425.439111	-425.438167	-425.483345	37.487	
C	 0.295088578	 1.49246074	 0.3678055464	-0.402906
C	 0.1144554027	 0.018814608	 0.0436600356	 0.159044
C	 0.9525470969	-0.5167026641	-1.1218303332	-0.230928
C	 1.0551738202	-2.0108486886	-0.7847445614	-0.290989
C	 1.0786244035	-2.0329990293	 0.7584025067	 0.379631
C	 0.2484011921	-3.1573734623	 1.3738693634	-0.431646
C	 2.5183004481	-2.0437675465	 1.3054132	-0.077486
O	 2.5498303263	-1.7148667382	 2.6774170096	-0.426206
O	 0.5149411287	-0.7634274923	 1.1739314825	-0.334178
H	 1.3486566668	 1.7159938401	 0.5643357574	 0.117955
H	-0.0429849022	 2.1123855659	-0.4687520153	 0.115666
H	-0.2858767827	 1.7673876959	 1.2527215937	 0.125559
H	-0.9522777064	-0.1766798965	-0.1588336634	 0.067048
H	 0.493383001	-0.3239263287	-2.0948313172	 0.101722
H	 1.9410504884	-0.0436271755	-1.1168377302	 0.10424
H	 0.1774438538	-2.5495259518	-1.1565983535	 0.102074
H	 1.9405019382	-2.4894524876	-1.2134492172	 0.105472
H	 0.5992278316	-4.1332378232	 1.0207173427	 0.110421
H	 0.3354828467	-3.134636805	 2.462756574	 0.133977
H	-0.805040927	-3.0488600441	 1.100263021	 0.110791
H	 2.9552921381	-3.0432112504	 1.2006333687	 0.101015
H	 3.1330530176	-1.3457023543	 0.7128423548	 0.073062
H	 1.9931193795	-0.9288946815	 2.756764315	 0.28666
