15
gdb 34509	4.33629	1.34168	1.18426	5.7211	77.18	-0.2346	-0.0463	0.1883	1013.3312	0.115411	-379.632318	-379.625837	-379.624892	-379.663212	26.1	
N	 0.1068151861	-1.1459532741	 0.0528985792	-0.348468
C	 0.0221027664	 0.0099631864	 0.0215949292	 0.191145
C	-0.0367587079	 1.4205954397	-0.0526717185	 0.248012
C	-1.1224504685	 2.2074341132	 0.0749506486	-0.153671
C	-0.7149047204	 3.6275479302	 0.0151961764	-0.090592
C	 0.5280384502	 4.0608468359	 0.8583595242	-0.02008
N	 1.2396395053	 2.8799678026	 1.3659675198	-0.318725
C	 1.1890282061	 2.3240729739	-0.0621029591	-0.170139
C	 0.67230485	 3.7038522815	-0.5862501683	-0.110815
H	-2.1333570547	 1.8662360748	 0.2560684237	 0.130045
H	-1.4311131382	 4.4141349902	-0.1862937509	 0.102694
H	 0.5245012388	 5.0057059463	 1.3879194659	 0.11051
H	 2.2019626612	 3.1655233599	 1.5371842626	 0.229482
H	 2.1213110157	 1.897095747	-0.423187366	 0.096278
H	 0.9441014001	 4.2528618125	-1.479654607	 0.104323
