17
gdb 82908	3.19585	1.92041	1.64365	1.8027	65.38	-0.2329	0.0756	0.3084	850.6174	0.139814	-458.944978	-458.939106	-458.938162	-458.974912	25.749	
O	 0.1319446319	 1.3877087949	-0.1000718392	-0.452234
C	 0.0227906215	-0.0041751616	-0.0322347279	 0.201537
C	 0.3356777054	-0.5895445955	 1.3665399451	-0.018549
O	-0.6148472981	 0.2024340119	 2.1159406401	-0.291405
C	-1.8014213267	-0.4138829088	 1.5564123486	 0.03433
C	-1.6216611528	-1.8189122354	 2.1512741921	-0.199896
C	-0.3587258319	-2.0263628675	 1.2962896099	 0.046062
O	-0.97744191	-2.0212992274	-0.0063533477	-0.264092
C	-1.3896596094	-0.6461754014	 0.0197944105	-0.024139
H	-0.1633852531	 1.7122541343	 0.761995914	 0.286853
H	 0.5884240957	-0.4354330398	-0.8580612283	 0.098769
H	 1.33518452	-0.4986333183	 1.7851333315	 0.089901
H	-2.6875920162	 0.1757038325	 1.7773323656	 0.091449
H	-1.4792694038	-1.7589683325	 3.2307595289	 0.110925
H	-2.3779367469	-2.5588704471	 1.8877357984	 0.112617
H	 0.26305716	-2.9078548878	 1.4324623533	 0.089642
H	-2.1150558557	-0.4237111605	-0.758718075	 0.088231
