20
gdb 80490	2.07844	1.44879	1.22069	4.4532	84.9	-0.2633	0.0195	0.2828	1167.3425	0.171028	-366.010061	-366.001015	-366.000071	-366.04344	34.289	
C	 0.1115058971	 1.6168636779	-0.3739036218	-0.424975
C	 0.2484197419	 0.1167906867	-0.2167428879	-0.049397
C	 1.4925038784	-0.6859862299	-0.4258196163	-0.118131
C	 2.7398529099	 0.0153216278	 0.1273457401	-0.26726
C	 2.124157141	-0.0187920269	 1.5669529286	-0.025764
C	 2.0632870029	 1.2265480466	 2.4423017566	-0.422796
C	 0.8280130284	-0.6268814867	 0.979712046	 0.168805
C	 0.0667901284	-1.6319184908	 1.6473616054	 0.194246
N	-0.5415399254	-2.4433838578	 2.2076262718	-0.356347
H	 1.0346274017	 2.1559742435	-0.1571574047	 0.127596
H	-0.169503414	 1.8515743408	-1.4063082936	 0.125177
H	-0.6716028746	 2.0106586593	 0.2816649625	 0.13146
H	-0.6268054555	-0.4175493984	-0.5819284998	 0.111691
H	 1.5112949328	-1.5420831621	-1.0889884455	 0.110613
H	 3.6466951477	-0.585306939	 0.0440785401	 0.115123
H	 2.9447304009	 1.0052079378	-0.2906657343	 0.107475
H	 2.6260946735	-0.8131188731	 2.1270798425	 0.098749
H	 1.5871349843	 2.0726309302	 1.942225417	 0.121618
H	 1.5009641689	 1.0217015441	 3.3595129198	 0.131571
H	 3.0730568115	 1.53467497	 2.7346688235	 0.120544
