17
gdb 44148	4.56143	1.02161	0.93223	3.4983	74.78	-0.2336	0.0111	0.2446	1249.4044	0.136577	-417.955129	-417.947492	-417.946548	-417.987605	29.392	
O	-0.3295507718	 0.2227339254	 0.7349843007	-0.342676
C	 0.0160806604	 1.2933213601	 0.3235241234	 0.416182
N	-0.5868635967	 2.183885166	-0.5948884533	-0.343583
C	 0.440924499	 3.2029962888	-0.3801789834	-0.030786
C	 0.5392332925	 3.5862180633	 1.0602353689	 0.017443
C	 1.1698548352	 2.2504703957	 0.5561445953	-0.273832
N	 1.3297371581	 4.7097878376	 1.4498612285	-0.089907
C	 2.2787386843	 4.5592014954	 2.5504641888	-0.21505
C	 2.7574130943	 4.7795814654	 1.1574454512	-0.231254
H	-1.5825740581	 2.3791878747	-0.5956273542	 0.242763
H	 0.8439064152	 3.7809920737	-1.2014958349	 0.118963
H	-0.3601060011	 3.5055852566	 1.6669598939	 0.112045
H	 2.2206722844	 2.017016738	 0.6394790756	 0.119401
H	 2.2908707473	 5.369500285	 3.2730731749	 0.125776
H	 2.4141647399	 3.5635551274	 2.9672837403	 0.124794
H	 3.2403518581	 3.9459379399	 0.6550569814	 0.123818
H	 3.111831169	 5.758263517	 0.8474838429	 0.125904
