18
gdb 87944	3.4471	1.13319	1.05024	4.2283	73.91	-0.2516	0.0327	0.2844	1192.2342	0.148182	-439.085452	-439.077228	-439.076284	-439.11842	31.526	
O	-0.1897918997	 1.3269850077	-0.4036219614	-0.416404
C	-0.0907756968	-0.0464199932	-0.1766264569	 0.062797
C	-0.3244196284	-0.5862501653	 1.2161343507	-0.399736
C	-1.3667700265	-0.7736193261	 0.1433027942	 0.29914
C	-2.6883954888	-0.0242761171	 0.1607935179	-0.149433
O	-3.4523627712	-0.5866419226	-0.9209066267	-0.238599
C	-2.9319507347	-1.7854077439	-1.3203737179	 0.42098
N	-3.4105803269	-2.5066398452	-2.2386944525	-0.543211
C	-1.7036722626	-2.1094358954	-0.4926980237	-0.395856
H	 0.5743484166	 1.7557052084	-0.0046070353	 0.293314
H	 0.6284338471	-0.5673536748	-0.8095048959	 0.09449
H	 0.2418884186	-1.4503415649	 1.5488461586	 0.118903
H	-0.5356192154	 0.1464767308	 1.9896610244	 0.117845
H	-3.2387412991	-0.1802349843	 1.0976255802	 0.107213
H	-2.5705736185	 1.0457779308	-0.0169466295	 0.140349
H	-4.2482301724	-2.073434332	-2.6316150497	 0.22052
H	-0.9125937948	-2.5304508668	-1.1153325165	 0.136625
H	-1.9664559667	-2.8614282761	 0.2617298	 0.131063
