14
gdb 16922	3.89639	2.27415	2.08438	4.2681	60.36	-0.2489	-0.0246	0.2242	697.2327	0.110118	-382.573991	-382.568506	-382.567562	-382.603408	22.418	
O	-0.0141545577	 0.0126220585	-0.0080897602	-0.35009
C	 0.0158085939	 1.2073748446	-0.0022526191	 0.456528
O	-1.1000530526	 1.9962429289	 0.0090257732	-0.246366
C	-0.6153883191	 3.3882320924	 0.0441880973	 0.062555
C	 0.6047287283	 3.2904095111	-0.8857479952	-0.231509
C	 1.2230248186	 2.17058505	-0.002450034	-0.203617
C	 1.1634511989	 2.8459663121	 1.3702565789	-0.081429
C	 0.0584067335	 3.5950565234	 1.3973746065	-0.077007
H	-1.4486730803	 4.02978723	-0.2301018781	 0.095334
H	 0.33968159	 2.9703577068	-1.8973310938	 0.120697
H	 1.2128856655	 4.1953406072	-0.9107869172	 0.118035
H	 2.156350496	 1.6993303514	-0.2971593202	 0.097327
H	 1.86429876	 2.6515970718	 2.1704506808	 0.122543
H	-0.353990225	 4.1609804618	 2.220668281	 0.116998
