18
gdb 78474	3.43706	1.51859	1.48777	2.5032	70.5	-0.2328	0.0777	0.3104	967.941	0.149603	-439.039112	-439.032322	-439.031377	-439.069978	27.957	
C	-0.05018078	 1.4834871986	 0.0348607159	-0.321797
N	 0.040079498	 0.0282116367	-0.0198868964	-0.085688
C	 0.6688213693	-0.5175736857	-1.2311245945	-0.042622
C	 1.3969048418	-0.516160119	 0.0662061304	-0.033302
C	 1.4771343504	-2.0347383228	 0.3755948867	 0.143284
O	 0.2152817017	-2.528532199	 0.7824991575	-0.257449
C	-0.5577913594	-2.5766538544	-0.4339988927	-0.083543
C	 0.4494853427	-2.0268920336	-1.4634374326	-0.003026
O	 1.6736470585	-2.5848547793	-0.9208974562	-0.256275
H	 0.7981638586	 2.000248807	-0.4445897398	 0.100501
H	-0.9717656622	 1.8033221244	-0.4607612992	 0.127428
H	-0.0967566965	 1.7970094362	 1.0819481003	 0.131607
H	 0.9228567664	 0.144769068	-2.0525656541	 0.091922
H	 2.2330255659	 0.1432901822	 0.2783037583	 0.090527
H	 2.2547277174	-2.3598174526	 1.0651763427	 0.091677
H	-0.8249678901	-3.6155245534	-0.6547697144	 0.10057
H	-1.4509481108	-1.9586393377	-0.3300141258	 0.118887
H	 0.3166088183	-2.3442869456	-2.4954978661	 0.087299
