20
gdb 39379	2.38938	1.69393	1.10001	2.2028	80.68	-0.2268	0.038	0.2648	1123.8262	0.173619	-403.132466	-403.124618	-403.123674	-403.164747	30.994	
C	-0.0331410449	 1.5661446184	 0.2399007212	-0.328322
C	 1.2971422657	 0.8724175665	 0.0968942966	 0.02312
C	 2.1882781354	 0.6588528606	 1.2986467293	-0.253665
C	 3.0807967471	-0.5890608228	 1.1979257166	-0.133993
N	 2.5765356717	-1.9306930736	 1.0567462443	-0.263377
C	 1.4804078749	-2.5227879894	 0.9135975822	 0.138073
O	 0.1543659961	-2.199749972	 0.8569270414	-0.230863
C	-0.3694449763	-0.8859051358	 1.0539770303	-0.08926
C	 0.0187979512	 0.0807278521	-0.0305449086	-0.01765
H	-0.3256743918	 1.8924537184	 1.2337719467	 0.111177
H	-0.375760067	 2.2168545599	-0.556616315	 0.115294
H	 1.8345554442	 1.0494389362	-0.831514895	 0.08562
H	 2.8609043155	 1.5197502714	 1.4106476893	 0.098125
H	 1.5963006233	 0.6278627285	 2.2195810978	 0.097207
H	 3.764395556	-0.4438393525	 0.3480291889	 0.114606
H	 3.7363480074	-0.6034743522	 2.0792183114	 0.112497
H	 1.506368413	-3.6092807741	 0.7935750139	 0.109394
H	-1.4530382406	-1.037846035	 1.0618053669	 0.115854
H	-0.0841904912	-0.5145951207	 2.044329083	 0.103758
H	-0.2654401096	-0.245253344	-1.0268693309	 0.092406
