18
gdb 58023	1.84123	1.63039	0.90686	7.4899	73.15	-0.2549	0.0172	0.2721	1258.1938	0.147335	-435.311049	-435.301214	-435.30027	-435.346248	35.849	
C	 0.0784174141	 1.4291855154	 0.0361438501	-0.403975
C	-0.1412291495	-0.0645188056	 0.3012512533	 0.015612
N	-0.0299486785	-0.4150246852	 1.730650776	-0.51668
C	-1.5277073874	-0.5733818319	-0.216274673	-0.282112
C	-1.8636344814	 0.0060060434	-1.5174854436	 0.320852
N	-2.1084276445	 0.5204688818	-2.5218362067	-0.332308
C	-1.6549689308	-2.1253792397	-0.3077831499	 0.40675
N	-1.3025645448	-2.7710564212	 0.830366362	-0.52683
O	-2.0761893079	-2.6671548783	-1.3072363785	-0.342608
H	 1.048011451	 1.7368637798	 0.4407666136	 0.112907
H	 0.0611645831	 1.6620233919	-1.0305858138	 0.160637
H	-0.698356219	 2.0298478817	 0.5246342278	 0.120066
H	 0.6328038186	-0.635872473	-0.2238064404	 0.115622
H	 0.9299927147	-0.2875050159	 2.0369086236	 0.243807
H	-0.5913874138	 0.2301468261	 2.28278587	 0.236951
H	-2.2880452418	-0.2284639119	 0.4992688941	 0.140808
H	-0.7994139123	-2.2591706821	 1.5493312863	 0.271682
H	-1.2958101596	-3.7780877154	 0.8016868992	 0.258821
