17
gdb 50356	4.08885	1.11521	1.01368	3.175	76.28	-0.2348	-0.0377	0.1971	1186.8002	0.135262	-421.80162	-421.793786	-421.792842	-421.834924	29.15	
O	-0.8777264601	 0.9585902671	 0.1156651234	-0.244406
C	 0.2818877834	 0.7056432683	-0.0735470329	 0.135419
C	 1.4111905034	 1.7178166141	 0.1072360555	 0.00649
O	 2.6711644394	 1.0323298255	 0.0253745745	-0.291531
C	 3.5094366434	 1.7639842036	-0.8512009848	 0.091334
C	 3.9082921519	 1.298685122	-2.3019835741	-0.254505
C	 3.433502133	 2.7122436269	-2.8209790511	-0.311849
C	 2.6424817082	 2.7675733261	-1.5312678856	 0.23322
C	 1.4081941642	 2.7225932556	-1.0461427843	-0.256928
H	 0.6379847795	-0.2898159547	-0.4212529244	 0.091793
H	 1.2918345581	 2.1814420035	 1.0991593173	 0.113653
H	 4.3844044518	 2.1475850332	-0.3096545377	 0.086882
H	 4.9532085659	 1.0299103302	-2.4707196596	 0.108871
H	 3.2468572549	 0.5041298196	-2.6516652229	 0.120687
H	 4.2647564784	 3.4220080838	-2.8612996164	 0.122543
H	 2.8739192442	 2.7601862513	-3.7558856202	 0.123611
H	 0.4908085004	 3.143875764	-1.4341938968	 0.124714
