19
gdb 107391	3.27668	1.23953	1.01706	1.4592	76.57	-0.2166	0.0543	0.2709	1220.8363	0.159972	-419.221866	-419.213322	-419.212377	-419.254853	33.183	
C	-0.2422802923	 1.5097329585	-0.056254054	-0.370217
C	 0.1015738063	 0.0199966199	 0.053984023	-0.264773
C	 0.7962121222	-0.5047514335	-1.1787153262	 0.349877
C	 0.017110477	-0.9385475755	-2.4124612719	-0.358771
C	 0.8333742692	-1.9461578085	-1.6474332622	-0.000244
O	 2.1590045806	-2.1672004433	-2.1103040374	-0.248998
C	 2.7800580452	-0.9583958717	-1.9672839773	 0.447587
N	 4.0498286095	-0.9187116864	-2.4769134381	-0.580587
N	 2.1271475316	 0.0076310599	-1.4412231289	-0.389108
H	 0.6628027512	 2.0968480271	-0.2332719467	 0.13836
H	-0.9290709623	 1.6939279952	-0.8891196181	 0.112716
H	-0.716722086	 1.8733588115	 0.8603994074	 0.103774
H	 0.7524393815	-0.1463247983	 0.9211426099	 0.099353
H	-0.8105116507	-0.564699964	 0.2256702578	 0.088625
H	-1.0595519934	-1.0324886071	-2.3104402568	 0.113218
H	 0.3649504441	-0.6179635837	-3.3890072803	 0.121167
H	 0.4089428839	-2.8150121449	-1.1607195323	 0.107419
H	 4.543652446	-1.7985091182	-2.4586479402	 0.262424
H	 4.5881491564	-0.128950337	-2.1550484379	 0.268177
