21
gdb 108983	3.63341	1.13925	1.01284	1.487	84.08	-0.2194	0.0282	0.2476	1249.6338	0.184463	-387.083631	-387.075437	-387.074493	-387.116463	32.359	
O	 0.0504825839	 1.423420547	-0.0306474504	-0.415652
C	-0.001049777	 0.0086693493	-0.0117100547	-0.15834
C	-1.4243505188	-0.4639364189	 0.0223712096	 0.280917
C	-2.4855595399	 0.3452881851	 0.0309911007	-0.147
C	-3.8657251483	-0.2750851154	 0.0661966957	-0.052237
C	-3.8726817616	-1.397047343	 1.150713901	-0.213886
C	-3.1625362364	-2.2785815476	 0.0815096485	-0.014905
C	-3.9133805967	-1.4276548333	-0.9846811575	-0.21389
C	-1.6564737013	-1.9636279228	 0.0483262399	-0.298654
H	 0.9740284708	 1.6876056305	-0.0535909869	 0.288325
H	 0.5003979302	-0.4204991345	-0.8986452877	 0.088668
H	 0.5353054527	-0.3982325383	 0.8652300864	 0.088621
H	-2.3672334196	 1.4221734588	 0.0133819983	 0.101476
H	-4.6660289089	 0.4663540427	 0.0708230031	 0.054373
H	-3.3499606627	-1.1946039054	 2.089209392	 0.089446
H	-4.8829471189	-1.7612047481	 1.3581043898	 0.09042
H	-3.3403714837	-3.3567624558	 0.1003527416	 0.055299
H	-4.930612999	-1.7970607042	-1.1429114529	 0.090422
H	-3.4269171663	-1.2524678938	-1.9478329802	 0.089425
H	-1.1920896997	-2.4349148387	-0.8308956949	 0.098573
H	-1.1587474087	-2.4096338838	 0.9224742988	 0.098597
