13
gdb 2854	6.32084	1.46294	1.2973	1.2588	51.79	-0.2671	-0.0473	0.2198	875.7086	0.099656	-381.563295	-381.556022	-381.555077	-381.595276	24.878	
O	-0.1018586001	 1.3865379428	-0.6458832816	-0.410737
C	 0.1171891116	 0.060213132	-0.2027521706	-0.090468
C	-1.1621804397	-0.5444505662	 0.3248791838	 0.043299
O	-2.0803696362	-1.0510457174	-0.640398794	-0.247274
C	-1.5057806314	-1.9878166482	 0.2774157191	-0.049154
C	-0.5826735789	-3.0079707881	-0.3097741342	 0.136793
O	-0.3170804353	-4.0449932999	 0.2412722662	-0.239536
H	-0.7343315756	 1.3480115029	-1.371968293	 0.295668
H	 0.5416093375	-0.5695038634	-0.9964541219	 0.099406
H	 0.8526888463	 0.1240530551	 0.6061823456	 0.127521
H	-1.6335519958	 0.0372254134	 1.1189905809	 0.117287
H	-2.1749234651	-2.3773193133	 1.04355871	 0.122764
H	-0.1724585772	-2.7403380998	-1.3069696404	 0.094431
