21
gdb 61241	3.43876	0.84089	0.76503	1.8837	85.18	-0.2505	0.0513	0.3018	1562.2425	0.1794	-387.042313	-387.031789	-387.030845	-387.078203	38.538	
C	 0.015512822	 1.5453407547	-0.2431327519	-0.399916
C	 0.038103505	 0.0472564485	-0.027464105	-0.011104
C	 1.3207747594	-0.7435051114	-0.1086306421	-0.303624
C	 0.6106981755	-0.5868488785	 1.2185205703	-0.013133
C	 1.2130904404	 0.236676495	 2.3375467761	 0.115419
O	 0.223949966	 0.9338868071	 3.0829890752	-0.426415
C	 2.0920032598	-0.6526114517	 3.2506529152	-0.384591
C	 2.7731129102	 0.0859922523	 4.3047391985	 0.309467
C	 3.3460964065	 0.7023424714	 5.1625406228	-0.436744
H	 0.9486431266	 2.0196974439	 0.0732289815	 0.117983
H	-0.1253110981	 1.7784628139	-1.3040821418	 0.112231
H	-0.7970184098	 2.0136981943	 0.3208899063	 0.128465
H	-0.839941264	-0.4602758408	-0.4197208957	 0.083119
H	 1.3192111639	-1.7147663805	-0.5910793276	 0.11015
H	 2.2410981118	-0.1830489167	-0.2476017344	 0.11161
H	 0.0837357664	-1.4709510416	 1.5775696913	 0.071615
H	 1.8491947191	 1.0244027983	 1.922562846	 0.097201
H	-0.4019180883	 0.2857909957	 3.424988169	 0.276009
H	 1.4572677172	-1.4341306451	 3.6931091149	 0.115615
H	 2.8262292402	-1.1765383819	 2.6259117867	 0.134735
H	 3.8452637203	 1.2473304731	 5.9245756847	 0.191907
