19
gdb 111219	3.0854	1.02125	0.88972	3.5364	72.75	-0.2344	0.0645	0.2989	1360.7102	0.157202	-460.057903	-460.048733	-460.047789	-460.092742	33.119	
C	-0.2856052652	 1.2122906067	 0.151463309	-0.242807
O	-0.6203900511	-0.0706052639	-0.3326393878	-0.241684
C	 0.2421715716	-0.5285482074	-1.3169512292	 0.172854
C	 1.5610435892	-1.2654956632	-0.9097363162	-0.010842
O	 0.726461045	-2.354663372	-0.3515478277	-0.308371
C	 0.1129543335	-2.0283890215	-1.658761117	-0.038302
C	 1.5442955231	-2.0233069494	-2.2665737872	 0.049529
C	 1.9152774032	-1.3960941057	-3.5970791403	-0.140793
O	 3.3315215988	-1.2675413809	-3.6052173428	-0.41628
H	 0.6915467489	 1.2181335457	 0.6559098343	 0.111765
H	-0.2621219871	 1.9593833162	-0.6577196518	 0.103228
H	-1.0558348861	 1.4958575747	 0.8718490728	 0.132249
H	 0.3108694269	 0.1845700786	-2.1493489836	 0.062008
H	 2.4126040452	-0.927626482	-0.3203136549	 0.098205
H	-0.7716509521	-2.5925433882	-1.9558268186	 0.095325
H	 2.014721173	-3.0023847038	-2.1588051951	 0.100709
H	 1.5688651338	-2.0585357566	-4.406828494	 0.09248
H	 1.4307288989	-0.4216659363	-3.7491025479	 0.091307
H	 3.5993453405	-0.9426835707	-4.4699252721	 0.28942
