16
gdb 105165	2.74089	1.1399	0.97506	3.6047	71.58	-0.2773	-0.0566	0.2207	1215.4589	0.122972	-437.891871	-437.882949	-437.882005	-437.925828	32.025	
O	 0.1110388088	 1.352682062	-0.3203489356	-0.419358
C	 0.0692927828	 0.0248460572	 0.1527004539	-0.151444
C	-1.3448930728	-0.5380301678	 0.1121287226	 0.198462
C	-1.8985320179	-1.1204272558	-1.1706668236	-0.309808
C	-1.590794818	-2.0505998817	-0.0285096005	-0.232035
C	-0.4663270824	-2.9422984852	-0.0929296821	 0.303091
N	 0.4353950066	-3.6649933131	-0.1415878758	-0.328164
C	-2.3292204681	 0.1711134777	 0.9734841482	 0.12639
O	-2.0789494493	 1.1835861328	 1.5827815812	-0.269233
H	-0.373448012	 1.8822016697	 0.3250903927	 0.300093
H	 0.7260060681	-0.5685296305	-0.4895014945	 0.129169
H	 0.4528879214	-0.0554469927	 1.1799894357	 0.114362
H	-2.9450091626	-0.9627300157	-1.4076803442	 0.14191
H	-1.2289500609	-1.119625224	-2.0223403159	 0.163606
H	-2.4367131592	-2.4527067565	 0.5215116359	 0.144243
H	-3.3437511446	-0.2869839065	 1.015028032	 0.088714
