18
gdb 113771	3.95879	0.79513	0.71918	1.3053	69.97	-0.2562	-0.0387	0.2175	1539.2379	0.145449	-476.186297	-476.176534	-476.17559	-476.222103	34.374	
O	-0.2597511278	 1.4468445037	-0.7111801629	-0.424961
C	 0.0022769069	 0.2051155214	-0.0730603256	-0.0847
C	-1.3221084975	-0.489121305	 0.1055722921	 0.007175
N	-1.7652272695	-1.4160967156	-0.9474780365	-0.341196
C	-1.4797041486	-1.9367036829	 0.398124071	-0.0674
C	-0.3094049058	-2.9052779914	 0.5112850724	 0.053639
O	 0.1656756443	-2.9689928167	 1.8274593396	-0.43722
C	-0.7435176646	-4.2793123238	 0.0367522456	 0.129044
O	-0.6515192736	-5.2514689222	 0.7481656265	-0.263663
H	 0.5760636879	 1.910124212	-0.8182189988	 0.288874
H	 0.673087123	-0.4210299507	-0.6771448206	 0.09468
H	 0.4679819776	 0.3503813031	 0.9146045184	 0.101706
H	-2.0776081326	 0.1610964186	 0.5435937957	 0.099595
H	-2.7655229569	-1.3391501922	-1.1056893698	 0.239343
H	-2.3163478086	-2.2068764556	 1.040986235	 0.095839
H	 0.4794254336	-2.5761434767	-0.1852602886	 0.098412
H	 0.1176159244	-3.9066698489	 2.0750681413	 0.295052
H	-1.1509321823	-4.3339277069	-0.9908450346	 0.115781
