12
gdb 6255	3.99771	1.40794	1.04123	2.1899	53.73	-0.2733	-0.1022	0.1711	1016.0387	0.08327	-451.876831	-451.869017	-451.868073	-451.909586	27.006	
N	 0.4221864022	 0.4308912929	-0.672901726	-0.552422
C	 0.1584285426	-0.1075894941	 0.537026901	 0.478461
O	 0.5967867652	 0.2599066752	 1.6033442975	-0.378648
N	-0.7360725692	-1.2189166275	 0.4968350691	-0.379641
C	-1.3412586961	-1.8014657026	-0.5694698982	 0.335173
O	-1.2417911455	-1.4827349424	-1.7433054299	-0.361582
C	-2.2341678668	-2.9849518809	-0.1761645023	 0.11538
O	-2.3758427471	-3.35201096	 0.9594560004	-0.233769
H	 1.0515020386	 1.2136420509	-0.7016417622	 0.272656
H	 0.0071906572	 0.0437795442	-1.5092801929	 0.289652
H	-0.9368329044	-1.6218993462	 1.4043365587	 0.284926
H	-2.7269732468	-3.4564062195	-1.0476566651	 0.129813
