15
gdb 34501	4.54574	1.0773	0.94137	5.1033	75.86	-0.2546	-0.0566	0.198	1208.2404	0.113311	-416.813814	-416.806173	-416.805229	-416.846468	28.218	
N	 0.0115393098	-1.1003088705	-0.027336123	-0.314448
C	-0.0342643625	 0.0536124328	 0.0030064129	 0.277223
C	-0.0850862245	 1.486085465	 0.0419234103	 0.308594
N	-1.1356869246	 2.1763051862	-0.1505301014	-0.320874
C	-0.7201745089	 3.5522058694	-0.017600945	 0.31489
C	-1.3778385553	 4.5924685824	-0.8867622627	-0.310479
C	-1.6812781375	 4.5415150296	 0.5887739303	-0.310462
C	 0.7842978644	 3.5239825654	 0.2908054859	-0.177537
O	 1.0930661493	 2.1069889168	 0.3056955812	-0.258853
H	-0.7507191324	 5.396217532	-1.2593270401	 0.122828
H	-2.1375224075	 4.2443738393	-1.5764819477	 0.140338
H	-2.6465031571	 4.1589159852	 0.8985485258	 0.140337
H	-1.2627582742	 5.3102249545	 1.2306635639	 0.122828
H	 1.4021875796	 3.9978228859	-0.477885754	 0.132805
H	 1.0427699815	 3.9378785259	 1.2701270137	 0.13281
