18
gdb 73972	2.79496	1.68745	1.22443	2.2241	79.76	-0.2209	0.0024	0.2233	1045.7111	0.148184	-401.869869	-401.862213	-401.861268	-401.902015	29.614	
C	-0.1314812889	 1.4347322826	-0.0226505776	-0.493258
C	-0.0642557528	-0.0510271558	 0.0834269233	 0.1823
C	-0.9998639477	-0.9598524828	 0.3393587113	 0.105284
C	-2.3981056812	-1.4034067248	-0.030992986	-0.164174
N	-2.2574835018	-1.6941094402	-1.4932339858	-0.318528
C	-1.8408833322	-2.7168763574	-0.510395074	-0.112408
C	-0.4668422034	-2.3411754698	 0.1215564449	 0.120899
O	 0.7756291765	-2.1948640121	-0.5308311457	-0.279046
C	 1.1990648685	-0.8432417784	-0.2728934495	-0.146279
H	 0.5384789422	 1.9207680266	 0.698406677	 0.129803
H	 0.1839893968	 1.7694243698	-1.018877084	 0.13443
H	-1.1442868044	 1.8023984818	 0.1591731588	 0.129587
H	-3.3594455239	-1.1776243525	 0.4098133872	 0.103046
H	-3.1788671186	-1.9846324159	-1.8269052415	 0.22874
H	-2.3001563479	-3.6978458366	-0.5021340131	 0.092274
H	-0.3651695707	-2.9387336872	 1.0432954103	 0.075418
H	 1.6660284201	-0.4430000986	-1.1826461628	 0.114148
H	 1.9611099093	-0.829163559	 0.5246220472	 0.097763
