19
gdb 40730	3.93823	1.20668	1.15171	0.9129	74.64	-0.2445	0.0906	0.3351	1140.8516	0.159824	-422.98744	-422.979735	-422.978791	-423.020078	30.107	
C	-0.3664214945	 1.3439401052	-0.2073360649	-0.254146
C	 1.0681874151	 1.0034927486	 0.1113696705	-0.267342
C	 0.0378952623	-0.0905845724	-0.0043391151	-0.026584
C	-0.3935019447	-0.8468266179	 1.2194470469	 0.208882
O	-0.4367354624	-0.0043409796	 2.366544036	-0.273644
C	-1.4260010518	-0.5477970957	 3.2094478335	 0.061122
C	-2.8531425584	-0.159521818	 2.8923311782	-0.326574
C	-2.2599167544	-1.4420857253	 2.3514021677	 0.059674
O	-1.7156314696	-1.3597286117	 1.0564836337	-0.273786
H	-0.9481082334	 1.8118775127	 0.5772497758	 0.124446
H	-0.6153928848	 1.6613720476	-1.2134320684	 0.109305
H	 1.8120706902	 1.0866034801	-0.6730131955	 0.109632
H	 1.4245747822	 1.2453528964	 1.1056699298	 0.129362
H	 0.0851973588	-0.7247142172	-0.8839598962	 0.095822
H	 0.2906729519	-1.6907940809	 1.4212281357	 0.068462
H	-1.097976695	-0.7786624042	 4.2168247047	 0.105668
H	-3.5831459872	-0.2389530268	 3.6919568381	 0.114496
H	-3.0062252816	 0.6489233664	 2.1872742201	 0.131226
H	-2.6260602927	-2.4198858872	 2.6450205693	 0.103979
