20
gdb 98603	3.99459	1.03317	0.95441	1.5757	79.83	-0.2399	-0.0201	0.2198	1321.3198	0.170506	-403.084	-403.07522	-403.074276	-403.118688	32.333	
C	 1.6377727322	 1.8556475448	-0.732394096	-0.380715
C	 1.845051435	 0.3654466743	-0.9880178422	-0.280064
C	 0.5548309693	-0.3983844126	-1.2298916649	 0.333345
O	-0.5389546509	 0.120034536	-1.1849586274	-0.306825
C	 0.7196656557	-1.882429697	-1.5163966947	-0.022092
C	-0.3298328061	-2.6829813695	-2.3134746305	-0.070103
C	 0.1973145704	-1.9050074987	-3.5397652058	-0.175128
N	 1.5092790283	-2.2566789009	-2.8008246758	-0.164622
C	 0.8494665163	-3.6366430021	-2.6093937204	-0.169393
H	 1.1437357222	 2.332613946	-1.5829699191	 0.129462
H	 1.0034034873	 2.0181236521	 0.142749318	 0.13022
H	 2.5955654425	 2.3556670687	-0.5646292944	 0.111228
H	 2.4953734187	 0.1814185713	-1.8539511281	 0.145325
H	 2.3642293173	-0.1158567384	-0.1467537621	 0.120825
H	 1.1494683721	-2.3730340052	-0.6331045899	 0.08856
H	-1.3605120429	-2.9192177848	-2.0363301886	 0.079587
H	 0.1219608761	-2.3834756724	-4.5195509834	 0.102353
H	-0.0101525268	-0.8363236698	-3.6056271672	 0.121199
H	 1.2754578916	-4.2128001379	-1.7831392635	 0.101921
H	 0.8138084616	-4.224411864	-3.5303071541	 0.104917
