13
gdb 128732	2.40573	1.56821	0.9551	3.5187	69.58	-0.2637	-0.0583	0.2054	1144.2116	0.087695	-452.659232	-452.651243	-452.650299	-452.692147	28.56	
C	-0.0068506197	 1.4012012966	-0.0052009573	-0.25389
O	 0.0048172238	-0.0336279315	-0.0043912949	-0.256581
C	 0.5982284741	-0.6039710735	-1.0416883974	 0.306629
N	 1.1600036228	 0.0193780179	-2.0408076967	-0.184474
O	 1.6338740109	-0.9853748447	-2.8610108416	-0.163552
N	 1.3611825347	-2.2181068112	-2.3623348353	-0.158622
C	 0.7191229362	-2.0242817688	-1.2339337747	 0.146299
C	 0.2530094025	-3.0601765497	-0.3973976582	 0.308633
C	-0.1570162755	-3.9181070392	 0.3378616176	-0.404183
H	 1.0151143884	 1.791175756	-0.005761362	 0.15118
H	-0.5350246513	 1.7780748025	-0.8858185725	 0.151187
H	-0.5270054762	 1.6919373891	 0.9066901979	 0.146394
H	-0.5164851307	-4.6815305335	 0.983262235	 0.21098
