15
gdb 31213	2.11852	1.5896	0.94997	4.6553	74.55	-0.2445	-0.0273	0.2172	1180.7194	0.11427	-416.84441	-416.836184	-416.83524	-416.878023	29.511	
N	 0.3556602329	 1.5259330768	-0.1814215873	-0.504865
C	-0.029695647	 0.1310040724	 0.0705248905	-0.287412
C	 0.6860345489	-0.4068305984	 1.2604908627	 0.324792
C	 0.2675020899	-0.8883712648	 2.4741029746	 0.069995
C	 1.4544851491	-1.2686138656	 3.1986522142	-0.287464
C	 2.4898630976	-0.9875237343	 2.3756058878	-0.005717
O	 2.0361096041	-0.4691785355	 1.1963177982	-0.179561
C	-1.0764116273	-0.9874089249	 2.9096834275	 0.198555
N	-2.1756053859	-1.0737410646	 3.2646746285	-0.349887
H	 1.3363427198	 1.5620013227	-0.4435894926	 0.23752
H	-0.1668663235	 1.8776061329	-0.9780171753	 0.236055
H	-1.1013533425	 0.0960523132	 0.287861513	 0.146277
H	 0.1492387031	-0.5477375267	-0.7820652241	 0.110553
H	 1.499035648	-1.6870815486	 4.1906010576	 0.139739
H	 3.5585402428	-1.0874150347	 2.4620469146	 0.15142
