18
gdb 49228	4.03057	1.03362	0.88877	5.4205	85.15	-0.2019	-0.0276	0.1743	1304.1982	0.148025	-401.960133	-401.951935	-401.950991	-401.993224	31.287	
O	-0.1166835748	-0.0279754826	-0.142494597	-0.314123
C	-0.0229438676	 1.1871669243	-0.1127032289	 0.058526
C	 1.2118906534	 1.9146418279	-0.0031764273	 0.163604
C	 1.3357931448	 3.2648091301	 0.0325890181	-0.073532
N	 2.6263664722	 3.6779582123	 0.2060717905	-0.339592
C	 3.5159685117	 2.527321633	 0.0682274793	 0.384183
C	 4.7146051488	 2.6162853521	-0.838182992	-0.316645
C	 4.8884086593	 2.5647837495	 0.668346864	-0.313569
C	 2.5921016946	 1.2974023414	 0.1233820132	-0.39982
H	-0.9307840236	 1.8320726482	-0.1798019878	 0.042709
H	 0.5411837955	 3.9990897242	-0.0256384491	 0.133276
H	 2.9234637727	 4.5839230416	-0.1229775588	 0.248094
H	 4.9736451755	 1.7395630319	-1.4230466577	 0.126157
H	 4.915416863	 3.559682016	-1.3376225564	 0.109345
H	 5.1994265323	 3.4739700261	 1.1725653792	 0.115065
H	 5.2703063991	 1.6530315348	 1.1159845649	 0.125761
H	 2.6995578942	 0.7578777403	 1.0725412658	 0.123926
H	 2.803734069	 0.5783155789	-0.6741878099	 0.126635
