16
gdb 52360	6.61671	0.48878	0.47371	5.0294	79.09	-0.266	-0.0614	0.2046	2175.5936	0.12207	-437.887697	-437.877551	-437.876607	-437.925761	32.933	
O	 0.5476650228	 1.0038963026	-1.5281874932	-0.319007
C	 0.2495948051	 1.5693657022	-0.4969602197	 0.147958
N	 1.0725632202	 1.6813332833	 0.5797179658	-0.267939
C	 2.4082095807	 1.1119298729	 0.5827255274	-0.157985
C	 3.4026863123	 1.9411984922	-0.2655910379	-0.352502
C	 4.7460636682	 1.3896379551	-0.239417494	 0.072075
C	 5.858102044	 0.918792018	-0.1982974198	 0.056818
C	 7.1708413763	 0.3290210791	-0.1548170456	 0.018655
O	 8.2054946614	 0.9468572041	-0.2619667796	-0.22823
H	-0.733318482	 2.0505222191	-0.3268028878	 0.084297
H	 0.7537794377	 2.2010208901	 1.3809935853	 0.255336
H	 2.7551132802	 1.0488054572	 1.6165440771	 0.124248
H	 2.3586202746	 0.0984333164	 0.1762809127	 0.1517
H	 3.0335884225	 1.9570864768	-1.2975670295	 0.178201
H	 3.416069399	 2.9798198898	 0.0866429181	 0.137761
H	 7.1679132569	-0.7707984788	-0.0104293392	 0.098615
