18
gdb 13667	5.49803	0.88928	0.82493	1.7989	74.63	-0.2597	0.0561	0.3159	1393.302	0.151094	-347.756394	-347.747291	-347.746346	-347.790884	32.464	
C	 0.1138116014	 1.4891015989	-0.2849787931	-0.419834
C	-0.0055080306	 0.028000924	 0.064891849	 0.076544
O	 1.2058430069	-0.728364443	 0.1811321667	-0.265398
C	 0.3889260725	-0.5743607422	 1.3505943056	 0.056679
C	 0.9917847049	 0.1715273504	 2.5154152877	-0.22007
C	 2.1239685722	-0.6488484968	 3.173917162	-0.341706
C	 2.7167081714	 0.0259288103	 4.3210381868	 0.290654
C	 3.1861735291	 0.6063155479	 5.2632341918	-0.43869
H	 0.9045801112	 1.9830431089	 0.2822956589	 0.130993
H	 0.3434679291	 1.6005821545	-1.3498010944	 0.131618
H	-0.8327756372	 2.0054308395	-0.0916455723	 0.123281
H	-0.7872664918	-0.4977877181	-0.4886322994	 0.087315
H	-0.1279437865	-1.4952001968	 1.6355043737	 0.086293
H	 1.3933895862	 1.1358765871	 2.1963995779	 0.116931
H	 0.2101508566	 0.3741432778	 3.2568892381	 0.113345
H	 1.7350370467	-1.6276016856	 3.4843515663	 0.128553
H	 2.893398295	-0.8504718798	 2.4191688443	 0.150021
H	 3.6116805032	 1.106925373	 6.0971226105	 0.193471
