21
gdb 105917	3.15391	1.55687	1.34634	0.1897	84.92	-0.2323	0.0894	0.3217	1053.0816	0.183859	-349.888586	-349.881074	-349.88013	-349.92051	30.815	
C	-0.2458466599	 1.4796728667	-0.0509747094	-0.374495
C	 0.168272606	 0.0019964324	-0.0159824174	-0.318687
C	 0.8368342434	-0.4597753345	-1.2783510433	 0.399176
C	 0.0851258175	-0.8610696951	-2.5542349826	-0.115472
C	 0.978578271	-1.857968986	-1.8428274267	-0.184801
C	 2.1414492203	-1.3060472392	-2.7180941281	-0.047311
C	 1.1359888557	-0.5033369807	-3.6316766187	-0.054203
C	 1.7990229162	 0.826947468	-3.1976026155	-0.249708
C	 2.1641592104	 0.0467154423	-1.910137579	-0.114223
H	 0.6211455551	 2.1282545467	-0.2156120178	 0.119264
H	-0.9597676963	 1.6696970683	-0.8590436867	 0.116557
H	-0.7124948389	 1.7816195628	 0.8918342863	 0.108952
H	 0.8390911874	-0.1665470223	 0.8375108966	 0.09601
H	-0.7144603563	-0.6247685566	 0.1676070336	 0.095857
H	-0.9955254437	-0.8414343646	-2.6200599401	 0.077943
H	 0.7608979246	-2.8258999161	-1.4098940698	 0.080309
H	 3.0239323913	-1.8302403351	-3.0763358126	 0.064477
H	 0.9290247771	-0.7515398487	-4.6722847989	 0.060573
H	 2.6871933257	 1.0485250756	-3.7991002111	 0.092691
H	 1.1750274555	 1.7225215627	-3.1129458582	 0.089942
H	 2.9753014281	 0.3441378835	-1.2449543005	 0.057149
