10
gdb 129158	2.12624	1.80261	1.28119	1.7154	66.42	-0.3091	-0.1437	0.1654	946.0573	0.044521	-500.734208	-500.727484	-500.72654	-500.765324	25.306	
N	-0.2341925311	 1.5006582982	 0.1089423891	-0.433093
C	-0.0394583541	 0.2059604388	 0.0267117281	 0.314478
N	 1.3149926836	-0.4616547539	-0.0225043122	-0.14646
N	 1.5357624298	-1.4855574959	-0.8214810601	 0.08658
O	 0.5839529137	-2.010640982	-1.8321935302	-0.245777
N	-0.861039532	-1.6429407736	-2.1988901782	 0.08212
N	-1.7224162417	-1.157750513	-1.3507795206	-0.098124
C	-1.2452843293	-0.788146292	 0.098055599	 0.416064
O	-1.8184359452	-1.2267947533	 1.1069764491	-0.244524
H	 0.7433172862	 1.9547776368	 0.057135216	 0.268736
