15
gdb 110164	2.68525	1.20204	0.90774	4.0343	67.16	-0.2596	-0.0203	0.2393	1245.9751	0.112187	-453.955621	-453.946977	-453.946033	-453.989643	30.135	
C	 0.0222861777	 1.3797061823	 0.2468913437	-0.331741
N	-0.1342792983	 0.0268330891	-0.2983996859	-0.300757
C	-1.4464415051	-0.5267244588	-0.0593604685	-0.190982
C	-1.5821388775	-2.0485072925	-0.3360385763	-0.030196
O	-1.8845830526	-2.2910191122	 1.0735830775	-0.236799
C	-1.7008585454	-0.9625405558	 1.3943232915	 0.494486
O	-1.73513094	-0.4666796165	 2.4696486071	-0.304206
C	-2.6570611577	-2.479390346	-1.2198855311	 0.287899
N	-3.4934178903	-2.8021028997	-1.9482264088	-0.30395
H	 1.029924573	 1.7357243442	 0.0203719606	 0.132656
H	-0.7052136917	 2.1049907691	-0.1534510046	 0.109189
H	-0.0952870965	 1.3462465769	 1.3323608507	 0.164531
H	 0.0372684964	 0.0448497489	-1.29928708	 0.235217
H	-2.2926698762	 0.0568289426	-0.4591046956	 0.120005
H	-0.6356436459	-2.5211379915	-0.6074452004	 0.15465
