17
gdb 23245	2.77437	1.34841	1.12097	1.3037	72.72	-0.2379	-0.007	0.2309	1120.8945	0.134439	-455.036241	-455.027554	-455.02661	-455.069379	32.732	
C	-0.1774192169	 1.4957117921	 0.0207083913	-0.318951
N	 0.1020660133	 0.06658362	-0.0887758069	-0.081636
C	 0.719997379	-0.5426540583	-1.2321930782	-0.060627
C	 1.4225895609	-0.5003011373	 0.126726566	-0.154112
C	 2.491580064	 0.3299067252	-0.5061370118	 0.385437
N	 3.6715665244	 0.5928652004	-0.1260021005	-0.260121
O	 4.3732002378	 1.2485530513	-1.1748818114	-0.408095
C	 1.8030098764	 0.3559866193	-1.8771340078	 0.028799
O	 2.5417683665	-0.3387648578	-2.8529138874	-0.439916
H	 0.6412886967	 2.1572581797	-0.2893485065	 0.12075
H	-1.0602902416	 1.7241424907	-0.5834606252	 0.130311
H	-0.413742939	 1.7166505326	 1.065434881	 0.131959
H	 0.2501192069	-1.38440677	-1.7276264933	 0.116439
H	 1.5599690849	-1.2605310988	 0.8863317771	 0.111461
H	 5.2546365709	 1.3484147935	-0.799834184	 0.311564
H	 1.4549833708	 1.3295633321	-2.2455538336	 0.086393
H	 3.4187725749	 0.0652837053	-2.8664922788	 0.300346
