21
gdb 7555	3.30716	1.26172	1.05841	1.4322	76.39	-0.239	0.0804	0.3194	1221.9153	0.186737	-366.23279	-366.223017	-366.222073	-366.267275	35.019	
C	 0.0452935858	 1.3737755045	 0.2172036402	-0.221978
O	 0.0177087845	-0.0315321702	 0.2248389591	-0.235619
C	-1.2448546141	-0.5573643973	-0.1331865763	-0.097297
C	-1.1707464257	-2.0682565418	-0.0896455627	 0.30116
C	-0.0118822821	-2.6568477163	-0.8711597401	-0.462684
N	-1.5214087949	-2.6684094281	 1.213240843	-0.364823
C	-2.4098119745	-2.8864418446	 0.0569252987	-0.038974
C	-3.8214938263	-2.3525088736	 0.1457654139	-0.402651
H	 1.0550261612	 1.6841483013	 0.4974383769	 0.125253
H	-0.1885056832	 1.7835223951	-0.7791356213	 0.099818
H	-0.6701294455	 1.8016786111	 0.9375755427	 0.104736
H	-2.0172852491	-0.1943706227	 0.5585223604	 0.09266
H	-1.5180775591	-0.2236382963	-1.1508930245	 0.078171
H	 0.9405541828	-2.3048026362	-0.46637619	 0.140737
H	-0.0301369136	-3.7507886396	-0.8312932324	 0.104363
H	-0.0543201042	-2.3577662928	-1.9248085685	 0.116819
H	-0.9481122966	-3.4901412277	 1.3881227783	 0.223835
H	-2.3493091378	-3.8639532044	-0.4231401165	 0.075101
H	-3.8627317983	-1.406705574	 0.6893632457	 0.127536
H	-4.2474879693	-2.2011610125	-0.8523409918	 0.114113
H	-4.46154005	-3.0654294137	 0.6770426851	 0.119723
