15
gdb 52389	6.73606	0.54479	0.51894	1.2219	64.81	-0.2653	-0.1093	0.156	1951.5078	0.108144	-494.92633	-494.916541	-494.915597	-494.963768	31.506	
O	 0.2384498515	 0.0040910167	-0.221004868	-0.266288
C	 0.2168729549	 1.1950662831	-0.2737695019	 0.169424
O	 0.9188514891	 1.9742337299	 0.5747891251	-0.179133
C	 0.83408012	 3.3929873865	 0.4213480298	-0.084942
C	 2.2234627084	 3.9537326489	 0.1488744287	-0.332021
C	 2.2219764879	 5.462998455	 0.0336910802	 0.300705
O	 1.2302319939	 6.142144887	 0.1209740552	-0.264613
C	 3.6041339151	 6.1197495325	-0.2138058343	 0.092823
O	 3.7356643326	 7.3044953093	-0.3332008135	-0.194652
H	-0.3690219737	 1.7827996029	-1.0078357137	 0.082935
H	 0.1453615854	 3.6559294064	-0.389576313	 0.13226
H	 0.4273115972	 3.8077263834	 1.3471034443	 0.146251
H	 2.9204670359	 3.6544220746	 0.9437538781	 0.154809
H	 2.6422020434	 3.5284638264	-0.7745508641	 0.146429
H	 4.4638138185	 5.4150036176	-0.2732532229	 0.096015
