19
gdb 56669	2.48511	1.28246	1.11627	0.8999	76.57	-0.2541	0.0472	0.3013	1184.9698	0.1561	-422.966367	-422.956641	-422.955697	-423.000767	36.031	
C	 0.026643298	 1.5091543492	-0.093589254	-0.403941
C	-0.0432540539	-0.0236283314	 0.0527661869	-0.18627
C	 0.697542015	-0.4814268268	 1.2283019876	 0.344102
C	 1.3163096779	-0.8546183359	 2.1887741502	-0.473405
C	-1.497743922	-0.5307661933	 0.0876739349	 0.347073
O	-2.151179599	 0.1249387662	 1.1402081836	-0.471924
C	-2.1845574898	-0.5525485232	-1.305534055	-0.136936
O	-2.0014373918	-1.9769826962	-1.4038853081	-0.27199
C	-1.6248292683	-2.0719576613	-0.0145720018	-0.134807
H	 1.0664731674	 1.8369237265	-0.1618427397	 0.125018
H	-0.496161054	 1.832569673	-0.9990670225	 0.113384
H	-0.4385936085	 1.9924366725	 0.7667922416	 0.14856
H	 0.4158401369	-0.4821443379	-0.8335489264	 0.116764
H	 1.860796387	-1.1821466401	 3.039491778	 0.195254
H	-3.0528031662	-0.2077248964	 1.1982366086	 0.283423
H	-3.2472975243	-0.269935024	-1.2611198235	 0.088055
H	-1.7051093641	-0.0125009332	-2.1297301927	 0.108271
H	-0.7191935418	-2.6673150055	 0.1379830623	 0.120597
H	-2.4354678185	-2.4790109922	 0.6085028999	 0.088772
