11
gdb 957	6.19703	2.7938	1.92566	1.3708	53.65	-0.2607	-0.0323	0.2284	601.9424	0.082009	-339.501781	-339.49673	-339.495786	-339.530512	19.055	
O	 0.1053328239	 1.3328604072	 0.1004474732	-0.405226
C	 0.0710128784	-0.0064192689	 0.0630913061	 0.448379
N	 0.092007637	-0.5947641489	-1.1294613779	-0.342551
C	 0.0565556394	-1.9301057823	-1.1265435787	 0.079124
N	 0.0028680332	-2.7312138444	-0.0677107043	-0.262438
C	-0.0170411604	-2.1068971128	 1.1206990223	 0.0312
C	 0.0152045133	-0.7315842211	 1.2568188368	-0.2171
H	 0.1414406236	 1.6295942798	-0.8207612468	 0.304123
H	 0.0737859725	-2.4093277708	-2.1026803343	 0.122933
H	-0.0609173651	-2.7455941201	 1.999650449	 0.121866
H	-0.0010909158	-0.2341988978	 2.2176405645	 0.11969
