20
gdb 118561	1.81277	1.25527	0.99105	4.4571	74.39	-0.2464	0.0349	0.2813	1337.0003	0.169306	-477.395942	-477.385602	-477.384658	-477.432028	36.066	
C	-0.8118965257	 0.8652838217	-0.0867712404	-0.237048
O	-0.3067429494	-0.455631436	-0.0974408366	-0.245194
C	 0.6286904911	-0.690702534	-1.1377592045	-0.08637
C	 1.0045755427	-2.1727768432	-1.1846776197	 0.066901
C	 1.5771197491	-2.7139049227	 0.1359605403	-0.086743
O	 0.7396620635	-2.5963540885	 1.2696834782	-0.413351
O	-0.0371997542	-2.9539726782	-1.7735846895	-0.217128
C	-1.1495475741	-3.2680992532	-1.0610659669	 0.099317
N	-2.1362010452	-3.7589477656	-1.6791937273	-0.440388
H	-0.0103299704	 1.6017900007	 0.0711200165	 0.115167
H	-1.3229020886	 1.099337879	-1.0309853645	 0.125314
H	-1.5278305832	 0.9331435466	 0.7346498239	 0.139242
H	 0.1966544321	-0.4027916345	-2.1069976952	 0.118491
H	 1.5380831806	-0.088246648	-0.9765732677	 0.098661
H	 1.817211363	-2.2517264167	-1.9172468225	 0.106515
H	 1.794284294	-3.7795407945	 0.0094693541	 0.124991
H	 2.540597544	-2.2004385285	 0.2974453497	 0.092471
H	 0.3705917102	-1.7023919921	 1.2507734443	 0.292356
H	-1.0591769088	-3.0915971231	 0.0111465951	 0.123183
H	-2.8740969707	-3.9785941791	-1.0123164873	 0.223613
