18
gdb 76284	2.42445	1.62655	1.038	1.1852	75.39	-0.2404	0.007	0.2473	1144.9182	0.148561	-435.339135	-435.330069	-435.329124	-435.37309	32.933	
C	-0.0109386985	 1.6296203621	 0.0564855167	-0.393838
C	 0.0682391639	 0.1038016318	-0.0153193222	-0.056351
N	 0.8627145143	-0.4063754688	-1.1257401062	-0.10972
C	 0.4992958192	-0.2539020389	-2.5141130684	-0.346742
C	 1.8412456065	-1.2762845422	-0.7195570029	 0.470196
O	 2.6180313546	-1.9053554722	-1.4013288496	-0.414195
N	 1.7753458839	-1.3013246644	 0.6834894725	-0.418671
C	 0.7745312225	-0.501311495	 1.1992075541	 0.404169
N	 0.4351935944	-0.251696392	 2.3964440591	-0.543803
H	 0.9916154392	 2.0670232412	 0.0648192599	 0.125771
H	-0.5636740378	 2.0356717987	-0.7954469813	 0.119377
H	-0.5240149334	 1.9145245146	 0.9774740313	 0.154063
H	-0.952384592	-0.3057815839	-0.0612820927	 0.111588
H	 0.532192164	 0.7961254091	-2.8240788207	 0.129941
H	 1.2189403031	-0.8210623626	-3.1065860312	 0.168584
H	-0.5096326989	-0.6419449844	-2.7088172855	 0.122172
H	 2.4352884504	-1.8374900837	 1.2220214676	 0.264984
H	 1.0218065244	-0.7441309694	 3.0713024494	 0.212477
