20
gdb 12819	3.35355	1.93067	1.50805	1.7216	74.09	-0.2539	0.0857	0.3396	925.9891	0.1786	-349.019716	-349.012162	-349.011218	-349.051059	29.967	
C	 0.0473427555	 1.5362549796	-0.0484405386	-0.465419
C	-0.0302972712	 0.0312657337	 0.0668264509	 0.402247
C	-1.2628421206	-0.6209582596	-0.5369406873	-0.257467
C	-1.2897264487	-2.1407092306	-0.3313495929	-0.204887
C	-1.0996919935	-2.4874252948	 1.1497003209	-0.194457
C	 0.2698832441	-2.025848827	 1.6778771845	-0.223631
C	 0.7012225113	-0.6721027355	 1.1401218781	-0.000149
O	 1.200452592	-0.6575765811	-0.20836988	-0.295114
H	 0.9803613403	 1.9094784982	 0.3814612425	 0.124813
H	 0.0095329161	 1.8434474233	-1.0996901503	 0.122571
H	-0.7920097395	 2.0131553156	 0.4693020012	 0.117182
H	-2.1518777448	-0.1670922943	-0.077664527	 0.096281
H	-1.3058728988	-0.3739768933	-1.6054385366	 0.098968
H	-2.240278819	-2.5425531632	-0.6976424659	 0.089857
H	-0.4926800093	-2.5998270886	-0.9261435449	 0.113162
H	-1.8952104934	-1.9997571033	 1.7293000058	 0.092689
H	-1.2140253865	-3.5642580494	 1.313083208	 0.093627
H	 0.2570827524	-1.9890018202	 2.7730475465	 0.095839
H	 1.0460294811	-2.7503592296	 1.4012429895	 0.114179
H	 1.2990952824	-0.0645798201	 1.8218971856	 0.07971
