14
gdb 5193	6.05089	1.13834	1.05528	2.4894	63.96	-0.2296	-0.0233	0.2063	1071.6651	0.106934	-382.573508	-382.566287	-382.565343	-382.606586	25.328	
O	-0.0875357847	-0.1163931655	-0.0213349083	-0.233222
C	 0.0098187988	 1.0800124371	-0.0866925477	 0.167525
C	 1.3320827297	 1.8351089323	-0.1458638282	-0.396439
C	 1.325464992	 2.8899137131	-1.2131454278	 0.213659
C	 1.8465519904	 2.7894911872	-2.4673356462	-0.0854
O	 1.6275658273	 3.9271260714	-3.175894933	-0.136006
C	 0.9452746837	 4.7735891709	-2.3623138905	 0.010975
C	 0.7297932398	 4.1986360757	-1.1518892924	-0.281553
H	-0.89112521	 1.7347899078	-0.1108520381	 0.080283
H	 1.4817637728	 2.3002374469	 0.8389228671	 0.131803
H	 2.1322034946	 1.1051224936	-0.2918878894	 0.130822
H	 2.387397387	 2.0110943084	-2.9803054184	 0.143391
H	 0.697266948	 5.7325586089	-2.7860415396	 0.140925
H	 0.2220342206	 4.6440612423	-0.3100556274	 0.113238
