15
gdb 5395	5.22569	1.60365	1.2379	2.4235	72.88	-0.212	-0.0327	0.1793	945.5625	0.121441	-358.892629	-358.885473	-358.884529	-358.924301	26.017	
C	 0.0010833589	 1.4448732161	-0.0914172491	-0.32506
N	-0.0428539624	 0.0123801381	 0.088397663	-0.346782
C	 0.6142957873	-0.6592841492	 1.0787376054	 0.397122
N	 0.621026415	-1.9982784654	 0.9882401452	-0.326278
C	 1.2378600821	-2.6589503529	 1.9658085694	-0.01243
C	 1.8542781863	-2.0165885255	 3.0335469628	-0.041385
N	 1.858956529	-0.68165145	 3.1242153573	-0.225048
C	 1.2494127555	-0.0060358808	 2.1605615133	-0.085436
H	 1.0234998812	 1.8261805692	-0.2276827385	 0.127988
H	-0.5803506339	 1.7048218279	-0.9777294139	 0.13444
H	-0.4443596136	 1.9684946768	 0.7630710359	 0.137294
H	-0.3363729787	-0.5679304834	-0.6805409872	 0.249495
H	 1.2418133647	-3.7441907311	 1.8913652092	 0.108508
H	 2.3521449812	-2.5744471171	 3.8203155474	 0.105241
H	 1.2570177475	 1.0771534373	 2.2358267397	 0.102331
