20
gdb 86660	2.88938	1.23796	0.96106	3.4273	85.36	-0.2069	0.0021	0.209	1277.1581	0.170871	-403.198244	-403.188979	-403.188035	-403.232589	34.108	
C	 0.078094131	 1.5535224558	-0.0228891799	-0.388991
C	-0.0327820536	 0.0193439079	-0.0078244357	-0.038344
C	 0.7258677184	-0.6655309854	-1.1768840254	-0.200167
N	 1.9225309828	-1.2557951648	-0.5479271061	-0.111148
C	 2.9806087491	-1.7174925154	-1.2720919653	 0.139055
O	 3.9891929185	-2.2338783394	-0.8352593967	-0.33906
C	 1.7527119056	-1.2653782058	 0.8605494193	 0.36819
C	 2.7273420637	-1.9512709122	 1.760821355	-0.469556
C	 0.641137964	-0.6003931652	 1.1956930465	-0.2233
H	 1.1273909098	 1.8666228817	-0.018221418	 0.123296
H	-0.4041389511	 1.9761798798	-0.9112647703	 0.112733
H	-0.4034663422	 1.986810189	 0.8594865969	 0.118419
H	-1.0947540921	-0.2476036087	-0.0565412536	 0.084701
H	 0.1179366086	-1.4570933713	-1.6298929524	 0.118976
H	 1.0121111659	 0.0378584635	-1.9637830078	 0.11931
H	 2.8135194166	-1.5607174627	-2.3569823952	 0.071914
H	 3.7281065346	-1.5238174276	 1.6648563092	 0.154579
H	 2.3902697815	-1.855756593	 2.7958863164	 0.116289
H	 2.8232856477	-3.0114537148	 1.5106940034	 0.146292
H	 0.3003530811	-0.4587600213	 2.2122266395	 0.096813
