19
gdb 62727	2.41844	1.68726	1.33937	2.297	76.27	-0.2147	0.0176	0.2322	1031.4465	0.157961	-423.018977	-423.010372	-423.009428	-423.051239	34.465	
C	-0.1437130404	 1.5291865005	-0.039353094	-0.45802
C	 0.0576436782	 0.0382040771	 0.0651214605	 0.306616
O	-1.0836981791	-0.7097901319	-0.3061846771	-0.477617
C	 1.3878383661	-0.6801842994	-0.2370868523	-0.248877
C	 2.6502372477	 0.0948282526	-0.1075214485	-0.077321
C	 2.8431453871	 0.5302476334	 1.1423867155	-0.083208
C	 1.738550163	 0.0900103076	 2.0760081854	-0.337761
C	 0.7752856835	-0.6784464866	 1.1757968346	 0.406478
O	 0.1739796656	-1.7759486168	 1.7736011995	-0.481455
H	 0.761271589	 2.0759027581	 0.2311820229	 0.132407
H	-0.4070088809	 1.807034535	-1.067529508	 0.105739
H	-0.9604126809	 1.8503366196	 0.6151053678	 0.125386
H	-1.1393970714	-0.728278122	-1.2676275795	 0.288272
H	 1.3241151936	-1.5497068324	-0.8845542349	 0.083125
H	 3.3163491321	 0.2815582274	-0.9429155954	 0.093297
H	 3.6770533687	 1.1380095859	 1.4738636341	 0.095033
H	 2.105051714	-0.5749076063	 2.8686927807	 0.12461
H	 1.2513562228	 0.9347158044	 2.5791726328	 0.112041
H	-0.6183162785	-1.9630100062	 1.2514086158	 0.291254
