19
gdb 47504	2.74019	1.43409	1.08706	4.5755	75.91	-0.2277	-0.0136	0.2141	1137.3435	0.161248	-419.195978	-419.188003	-419.187059	-419.228648	31.107	
O	 0.0076629575	-0.0736616812	-0.048978753	-0.300122
C	-0.0098723396	 1.124965876	 0.0870135073	 0.409636
C	-1.3211737908	 1.9067085302	 0.1873710972	-0.256698
N	-1.2354427707	 2.9601469178	 1.1989900324	-0.299145
C	-0.1430848583	 3.8956059177	 0.9374623331	-0.255117
C	 1.1694656865	 3.1458988087	 1.0493109546	 0.361852
C	 2.3858042543	 3.8660440227	 1.4941980919	-0.301543
N	 1.7304310696	 2.8872808986	 2.3821185077	-0.332599
C	 1.2572330039	 1.9742293178	 0.0834749885	-0.367208
H	-1.5269791452	 2.2990665411	-0.8313603606	 0.094855
H	-2.1175364287	 1.2037658722	 0.4403214873	 0.128288
H	-2.1186360256	 3.4552595634	 1.2493656668	 0.226182
H	-0.2084731649	 4.366489038	-0.0641613376	 0.082147
H	-0.182568537	 4.7006474509	 1.6791593684	 0.095435
H	 3.3633727453	 3.5659679527	 1.1256899112	 0.118532
H	 2.2973501146	 4.9260602594	 1.7220580604	 0.109193
H	 1.1792393846	 3.3603156883	 3.0942428625	 0.231673
H	 2.1149800106	 1.3361721627	 0.3022125545	 0.134424
H	 1.3706201141	 2.3595430428	-0.9415158826	 0.120214
