16
gdb 36205	3.51111	1.19862	1.05822	4.1799	68.45	-0.2641	0.0144	0.2784	1130.1982	0.124063	-437.849615	-437.841713	-437.840769	-437.882828	28.809	
N	 0.0494552288	-1.1876271267	-0.0028757133	-0.29904
C	-0.0073880056	-0.0339196241	-0.0099657643	 0.267993
C	-0.0617052513	 1.4284246247	 0.0016431193	-0.432401
C	 1.3223613164	 2.0487472933	-0.0776990593	 0.402997
C	 2.3341537569	 1.8673709475	 1.0708620305	-0.122011
O	 2.6588084446	 3.2832780487	 1.0439073472	-0.287729
C	 1.7036228616	 3.5448873321	 0.0066642318	-0.00513
C	 2.2660669934	 3.3419697354	-1.408664288	-0.100656
O	 1.9267950993	 1.9272310302	-1.3754205513	-0.323195
H	-0.6659978116	 1.7710701023	-0.8444426954	 0.163028
H	-0.5600544884	 1.7532363533	 0.9219410738	 0.161029
H	 1.9055467576	 1.5775143525	 2.0380903633	 0.112364
H	 3.1877017489	 1.2273381761	 0.8295532542	 0.130275
H	 1.0526846047	 4.3947269867	 0.2204098505	 0.095595
H	 1.7223676816	 3.8574691368	-2.2094758281	 0.112069
H	 3.341634053	 3.5169299312	-1.5062472108	 0.124811
