17
gdb 2699	14.94312	0.85616	0.82644	1.4662	67.59	-0.2551	0.0568	0.3119	1353.7607	0.145784	-309.675176	-309.666397	-309.665453	-309.708791	29.958	
C	-0.0245457889	 1.3934149985	 0.0250756058	-0.229037
O	-0.000920708	-0.0129438125	 0.0095420548	-0.230813
C	 0.6448569666	-0.5403574081	-1.1263473849	-0.050366
C	 0.6114178416	-2.0601439907	-1.0378767044	-0.189279
C	 1.299452472	-2.7236417304	-2.2462763678	-0.355559
C	 1.2789204634	-4.1797877752	-2.1816648146	 0.291877
C	 1.2503969551	-5.3790511534	-2.1082699172	-0.433048
H	 0.9912398017	 1.820526652	 0.0307061193	 0.10278
H	-0.5620720589	 1.8041089776	-0.8447945083	 0.102778
H	-0.5416601542	 1.7024062266	 0.9367357039	 0.127742
H	 0.1433695626	-0.1969750319	-2.0492669808	 0.083116
H	 1.6883026381	-0.1802716303	-1.1786797775	 0.083116
H	 1.102704612	-2.3769947032	-0.1125676516	 0.121014
H	-0.4292306716	-2.3935201385	-0.9757040888	 0.121015
H	 0.8123090441	-2.3951414476	-3.1742762776	 0.130476
H	 2.3400229846	-2.3785656499	-2.3135216924	 0.130466
H	 1.2300322499	-6.438926583	-2.0531246778	 0.193724
