14
gdb 57238	2.99881	0.79503	0.73065	2.1112	74.08	-0.2868	-0.0853	0.2015	1534.1381	0.096918	-436.66039	-436.650464	-436.64952	-436.696554	33.445	
C	 0.117173288	 1.504184093	 0.0836464883	-0.391532
C	-0.0041321659	-0.0289430724	 0.0037275985	 0.007563
O	 0.6481580517	-0.5393008515	 1.1532040645	-0.406823
C	-1.4412353761	-0.4186345258	 0.0168348784	 0.27708
N	-2.5531615417	-0.7295835471	 0.0511396167	-0.325309
C	 0.5977963851	-0.5363357526	-1.239271334	 0.17857
C	 1.1256945233	-0.9712092917	-2.2334528349	-0.030967
C	 1.7295057208	-1.4803153275	-3.4447146269	 0.028213
O	 2.7013025664	-2.1968080419	-3.4628194512	-0.215929
H	 1.175477034	 1.7701364586	 0.0638283466	 0.153057
H	-0.3975066548	 1.9758556455	-0.7546854536	 0.149888
H	-0.3245919962	 1.8417265911	 1.0231223951	 0.156558
H	 0.6717683105	-1.5021758499	 1.0947917479	 0.304308
H	 1.2210791749	-1.1569566278	-4.3741722252	 0.115322
