21
gdb 74269	2.57599	1.41926	1.19483	1.759	84.28	-0.234	0.0104	0.2444	1172.9689	0.180983	-387.093479	-387.084342	-387.083398	-387.126591	35.483	
C	-0.060256772	 1.5271485237	 0.0888148135	-0.500463
C	-0.0245353876	 0.0342798316	 0.0060009663	 0.307978
C	 0.0467297444	-0.7364735407	-1.0849756664	-0.211437
C	 0.0469464614	-2.2308405473	-0.7886993504	 0.223294
C	-1.2451974727	-2.8933201082	-1.2993274227	-0.425154
C	 1.2866476182	-2.9315593913	-1.3715113238	-0.421962
C	 0.0583680113	-2.2344624907	 0.7473204234	 0.017176
O	 1.2002589798	-1.6233169069	 1.3474306478	-0.26713
C	-0.0173005163	-0.8457103953	 1.2206313501	-0.072016
H	 0.8082611451	 1.9148254596	 0.635695798	 0.135152
H	-0.069344062	 1.9831627254	-0.9047154706	 0.124934
H	-0.9504784224	 1.8746548684	 0.6283931464	 0.125516
H	 0.1307199573	-0.3638900884	-2.1020767313	 0.088756
H	-1.319199616	-2.8128440677	-2.3887681151	 0.115569
H	-1.2659207695	-3.9585919156	-1.0403482244	 0.111714
H	-2.1311288491	-2.4177839571	-0.8668822395	 0.11654
H	 2.1976420019	-2.5104555875	-0.9402427929	 0.135931
H	 1.2657628474	-4.005721285	-1.1569736357	 0.110316
H	 1.3278843775	-2.8102745853	-2.4592814858	 0.108676
H	-0.3597937327	-3.0796106256	 1.290739854	 0.08585
H	-0.4642548139	-0.540798856	 2.1631738991	 0.09076
