17
gdb 60709	3.63538	0.62842	0.58272	2.2806	84.	-0.2478	-0.0297	0.2181	1884.5833	0.131479	-384.635211	-384.62468	-384.623736	-384.67388	35.817	
C	-0.246129968	 1.0984476909	 1.2218511693	-0.397341
C	-0.1355546216	 0.3581544085	-0.1330446127	-0.214759
C	 1.1345920953	-0.4987817976	-0.1218339375	 0.171916
O	 2.1343653917	-0.2316229037	-0.7306566476	-0.241411
C	-1.2935253233	-0.4927543845	-0.3860740437	 0.077147
C	-2.2234339392	-1.2324210188	-0.5778501147	 0.06756
C	-3.3655509821	-2.1151433311	-0.825046169	-0.491669
C	-4.1030229913	-2.4740139555	 0.3879072164	 0.315518
C	-4.7149224525	-2.7755003272	 1.3756093995	-0.441213
H	 0.6155780296	 1.7564371734	 1.3637000679	 0.133585
H	-1.1585315736	 1.6985209637	 1.2465372788	 0.139915
H	-0.2871163189	 0.3859550221	 2.050959516	 0.134852
H	-0.0138160526	 1.0909121087	-0.9384017815	 0.124763
H	 1.0619280024	-1.3986964095	 0.5291408751	 0.088795
H	-4.0500345593	-1.6341541821	-1.5374243762	 0.164884
H	-3.0189921383	-3.0310841019	-1.3233493465	 0.164805
H	-5.2544428581	-3.0403863654	 2.2509869365	 0.202652
