19
gdb 15385	3.68622	1.13407	0.93666	0.8513	79.03	-0.2283	0.0349	0.2632	1279.7511	0.163602	-327.864689	-327.855665	-327.85472	-327.898565	32.974	
C	 0.1955803252	 1.5158186002	 0.1059061358	-0.381444
C	 0.0031675473	 0.0019069301	 0.2249954808	-0.166873
C	-1.3649161522	-0.4548351541	-0.2815703295	-0.11985
N	-1.4797427715	-1.9095443925	-0.1896197633	-0.085038
C	-2.0161189675	-2.4546788281	 1.0440366005	-0.243886
C	-2.8260186555	-2.5105033752	-0.2187989342	-0.178903
C	-4.0143039946	-1.7120839605	-0.3518314336	 0.344735
C	-5.0173807042	-1.0655122905	-0.5053023204	-0.474744
H	 1.179669568	 1.8195502418	 0.4750318257	 0.114387
H	 0.1150219014	 1.8460670951	-0.9357246789	 0.116234
H	-0.5591049565	 2.0608590745	 0.683800256	 0.114988
H	 0.7806130208	-0.526486985	-0.3382081419	 0.108146
H	 0.1178280965	-0.3059260001	 1.2722150668	 0.09676
H	-2.16452284	 0.0626721643	 0.2735388092	 0.094311
H	-1.483910187	-0.1803421723	-1.3366177053	 0.105952
H	-1.5452103607	-3.3591712227	 1.4198037372	 0.120285
H	-2.3602448058	-1.7585618549	 1.8075906462	 0.118773
H	-2.8591746105	-3.4529530553	-0.7611199551	 0.116855
H	-5.9037826129	-0.4943164648	-0.6299929261	 0.199313
