15
gdb 52003	6.93038	0.62211	0.58963	5.3869	67.17	-0.2611	-0.0391	0.222	1758.1772	0.110156	-491.138041	-491.12833	-491.127386	-491.174761	32.077	
O	-0.4936628036	 0.3497031425	 0.3812855169	-0.228635
C	 0.0479821992	 1.3863591324	 0.1063855824	 0.15604
C	 1.4199288185	 1.4847178296	-0.5433999393	-0.243625
N	 1.511332471	 2.6094046922	-1.4515116823	-0.389052
C	 2.4690972528	 3.5867213989	-1.2569754438	 0.536434
O	 3.2111643634	 3.6190928593	-0.3072213748	-0.344249
N	 2.4499437649	 4.554811963	-2.2817698299	-0.397498
C	 3.3561283853	 5.5949288605	-2.4658684187	 0.168976
O	 4.3476225117	 5.8075964145	-1.8280070867	-0.248935
H	-0.4192043875	 2.3757137867	 0.3164826336	 0.08509
H	 2.1609331952	 1.6656414311	 0.2455658895	 0.184898
H	 1.6609323222	 0.5319975971	-1.0263916887	 0.135577
H	 1.0916010102	 2.5075623279	-2.361573008	 0.248361
H	 1.6747136508	 4.5404724573	-2.9279459195	 0.250955
H	 3.0329060758	 6.2213245369	-3.3227886107	 0.085665
