15
gdb 5709	4.89387	1.9936	1.44217	2.7315	67.42	-0.1991	0.0411	0.2401	822.2255	0.122197	-362.684717	-362.678336	-362.677391	-362.715354	24.257	
C	-0.0616635396	 1.4949954724	 0.1010136901	-0.174456
O	 1.244494994	 1.9288566707	-0.2994489611	-0.281699
C	 2.1193004146	 0.8216307474	-0.6131754246	-0.181111
C	 1.2794409417	-0.3938511267	-0.3862194262	 0.258098
C	 0.0417578313	 0.0101436605	 0.0197400746	 0.251907
N	-0.7376524341	-1.0899483159	 0.2315564082	-0.367636
C	 0.0180715819	-2.214252018	-0.0448488021	-0.071648
C	 1.280724295	-1.8144528589	-0.4327087875	-0.329568
H	-0.2779484084	 1.8720974065	 1.1131967497	 0.10385
H	-0.8144878454	 1.9272953962	-0.5771216554	 0.103845
H	 2.4674559302	 0.932232345	-1.6504259006	 0.105486
H	 3.003469376	 0.8772011694	 0.0383512024	 0.105488
H	-1.695562136	-1.0996431847	 0.5349800551	 0.262043
H	-0.4074600849	-3.1998342947	 0.0582208832	 0.118714
H	 2.0881780537	-2.4745982092	-0.7104015657	 0.096686
