23
gdb 75347	3.10431	1.25337	0.982	0.2873	91.71	-0.2242	0.0296	0.2538	1293.6435	0.207887	-351.162849	-351.154298	-351.153354	-351.195543	34.507	
C	 0.3258613522	 1.5718215278	 0.0245460526	-0.459258
C	-0.0016124003	 0.0977599975	-0.0298740484	 0.321528
C	 0.0112479861	-0.5460424137	-1.2037130432	-0.146422
C	-0.2972142613	-2.0029918963	-1.4919293619	-0.289321
C	-1.5714065205	-2.5155763226	-0.8364870972	 0.016334
C	-1.589072936	-3.834002339	-0.098215638	-0.328608
C	-1.6505934677	-2.5331002065	 0.6667963123	 0.023602
C	-0.467974503	-2.0089089119	 1.4530291114	-0.242608
C	-0.3217719037	-0.4839772563	 1.3354954597	-0.26699
H	 1.2009303098	 1.7613651449	 0.6602509395	 0.116906
H	 0.5308770358	 1.9818040063	-0.9676209657	 0.116056
H	-0.5020066407	 2.1449687876	 0.4632733571	 0.117266
H	 0.2874224744	 0.0434568469	-2.076636087	 0.0703
H	-0.3737133543	-2.1379168591	-2.5767483662	 0.096127
H	 0.5507754119	-2.6316119607	-1.1900822714	 0.106371
H	-2.4826261483	-2.2415603734	-1.3608690966	 0.078421
H	-2.4814708346	-4.4485548617	-0.1480458994	 0.105968
H	-0.6633692377	-4.4009353061	-0.0591188698	 0.105153
H	-2.6164731487	-2.2768308018	 1.0963792335	 0.074953
H	-0.5764893995	-2.2735774977	 2.5122595698	 0.090639
H	 0.4563809958	-2.4915312098	 1.1176807674	 0.097793
H	 0.4593323743	-0.1458361011	 2.0323259192	 0.094789
H	-1.2438228139	-0.0058451033	 1.7035919322	 0.101
