19
gdb 84726	2.47241	1.68934	1.17209	0.9481	83.24	-0.2102	-0.0244	0.1859	1080.2462	0.160943	-385.881165	-385.873258	-385.872314	-385.913537	31.563	
O	-0.096694801	 1.4022421904	-0.0172460943	-0.43549
C	 0.013392283	-0.0198221113	 0.0804862342	 0.053456
C	 0.7440025848	-0.415997695	 1.3405931639	-0.133251
C	 0.9356473903	-1.6614335179	 1.7955846026	-0.075537
C	 0.409025977	-2.895572785	 1.2250449017	-0.112795
C	-0.7003314734	-3.0429537833	 0.4793517263	-0.059934
C	-1.7067720295	-2.0306718822	 0.0904844298	-0.07699
C	-2.2472852231	-1.0059979317	 1.0876288229	-0.290811
C	-1.4069702719	-0.550540831	-0.0615065873	-0.010268
H	 0.7908561208	 1.7587955085	-0.122734084	 0.281857
H	 0.580987594	-0.4038242856	-0.7863942312	 0.081266
H	 1.1760272286	 0.4189314525	 1.8871391836	 0.088772
H	 1.5632673215	-1.7842305666	 2.6762736858	 0.089064
H	 0.9688696399	-3.7965311978	 1.465433366	 0.086221
H	-0.9322735479	-4.0502688533	 0.1409175467	 0.090224
H	-2.4420551093	-2.4114774909	-0.6111014934	 0.085038
H	-3.3106345546	-0.7953901219	 1.0691075298	 0.112939
H	-1.8021387694	-1.0118551986	 2.0749277597	 0.130478
H	-1.9292500398	-0.0520757394	-0.8738924628	 0.095762
