19
gdb 83634	2.24245	1.66398	1.39553	0.7557	70.1	-0.247	0.0521	0.2992	1027.7593	0.157463	-460.11964	-460.110656	-460.109712	-460.153205	34.175	
C	 0.1879259415	 1.5419900267	 0.1291020667	-0.462351
C	 0.0512898476	 0.0345924693	 0.0122153115	 0.325939
O	-1.2914324942	-0.3718675588	-0.2058666827	-0.474401
C	 1.045777528	-0.7156901304	-0.9643631744	 0.050452
O	 1.9888414785	 0.0197265489	-1.7008504497	-0.423978
C	 1.5269238585	-1.6262229503	 0.2095335249	-0.113934
C	 2.6642039184	-1.0449592066	 1.0543987807	-0.099829
O	 1.7452514484	-0.2305584661	 1.8230719917	-0.291119
C	 0.6018597381	-0.8295991	 1.1749556663	 0.088869
H	 1.1805971064	 1.8242693268	 0.489499534	 0.123923
H	 0.0200738094	 2.0216451453	-0.8418422935	 0.115375
H	-0.5475983978	 1.9257394171	 0.8420461015	 0.12977
H	-1.5850529702	 0.009127877	-1.041247152	 0.279229
H	 0.471621979	-1.2897412779	-1.6961231839	 0.093991
H	 2.4524953367	 0.6160754659	-1.1038910508	 0.288908
H	 1.4986112639	-2.7028817228	 0.0543737451	 0.082384
H	 3.1715777225	-1.7788367064	 1.6922593141	 0.109209
H	 3.4276730432	-0.4499759037	 0.5356203403	 0.093953
H	-0.1263118977	-1.249269284	 1.8720471401	 0.083611
