27
gdb 100105	2.38382	1.00748	0.86407	1.2717	92.74	-0.2463	0.075	0.3213	1564.9077	0.248291	-390.697458	-390.685357	-390.684413	-390.734732	44.755	
C	-0.0419068809	 1.5383830776	 0.3694592175	-0.244066
O	-0.0127111203	 0.1322424395	 0.2835027518	-0.267493
C	 0.7188452129	-0.5927497725	 1.2865828733	 0.35043
C	 2.1903755355	-0.1477881141	 1.3379954091	-0.426688
C	 0.0609827881	-0.4015561315	 2.6657765718	-0.416979
C	 0.5849257659	-2.0803718284	 0.8894839897	-0.184039
C	 1.2914636963	-2.5861060447	-0.3858394123	 0.025063
C	 1.3272521503	-4.1228698693	-0.3725218426	-0.38531
C	 0.6441899314	-2.0843962364	-1.6849271298	-0.37371
H	 0.9556083977	 1.9918561067	 0.2851830882	 0.1043
H	-0.6467439213	 1.8854174924	-0.4727388292	 0.125302
H	-0.5083861937	 1.9000449985	 1.2965175076	 0.104519
H	 2.2967282973	 0.8445093715	 1.7858075076	 0.110795
H	 2.7746335379	-0.8445832121	 1.9468803608	 0.115206
H	 2.6286673398	-0.1180687809	 0.3371210577	 0.125811
H	-0.9914098974	-0.698792286	 2.6300627635	 0.118432
H	 0.5665265782	-1.012983325	 3.4193200937	 0.113559
H	 0.1142107903	 0.6376947575	 3.0023707752	 0.11032
H	 0.958795923	-2.6654020257	 1.7392404324	 0.083987
H	-0.4875524725	-2.3015081413	 0.8110272473	 0.094742
H	 2.3328069742	-2.2382820259	-0.3664386931	 0.06799
H	 0.3121192289	-4.538028053	-0.3582983796	 0.110122
H	 1.8300827028	-4.5124917731	-1.2639235405	 0.106341
H	 1.8550971694	-4.5074759708	 0.506959942	 0.103682
H	 0.6379391772	-0.995740753	-1.7378464511	 0.127072
H	 1.1759598356	-2.4797915865	-2.5576490565	 0.095611
H	-0.3972703868	-2.4223905236	-1.7501087547	 0.105003
