18
gdb 41049	3.24038	2.08057	1.88152	2.035	77.47	-0.2155	0.0616	0.2771	823.2084	0.150091	-364.679686	-364.673657	-364.672713	-364.709558	26.385	
C	 0.0017833214	 1.5379500418	 0.1919442725	-0.312511
C	 1.5252148393	 1.6067048681	-0.1837454374	-0.337087
C	 1.4507734003	 0.1558278348	-0.716559162	 0.23135
C	 0.8658332087	-0.4247414027	-2.0212740699	-0.115608
C	-0.3672065302	-0.783419676	-1.2632566395	-0.109984
N	 0.7952894845	-1.7511148334	-1.3460680395	-0.145015
C	 1.6427827531	-1.2801753918	-0.1515612489	-0.049585
C	 0.6519485946	-1.000706481	 0.9918951836	-0.295278
C	 0.0411010756	 0.0050856134	-0.0270070021	 0.229904
H	-0.2737447772	 1.8796286221	 1.1925282892	 0.106495
H	-0.6382683028	 2.0479585875	-0.5324990645	 0.112853
H	 1.8199804286	 2.3661649749	-0.9117612634	 0.110746
H	 2.1811084055	 1.7032362324	 0.6858033096	 0.114965
H	 1.0785514695	-0.3138191854	-3.078969322	 0.090867
H	-1.3298016851	-1.1560603378	-1.5979149566	 0.087656
H	 2.5642663658	-1.8570357189	-0.0536866549	 0.07079
H	 0.034646151	-1.8245228737	 1.3604115277	 0.105196
H	 1.1335696676	-0.4924471243	 1.8326732384	 0.104246
