18
gdb 118614	1.99308	1.20247	0.89398	2.5829	76.73	-0.2568	0.0126	0.2694	1360.3778	0.143923	-439.022976	-439.012511	-439.011567	-439.059895	35.592	
C	 0.3975763284	 0.647514893	 0.5301387076	-0.238184
O	-0.255734832	 0.269524185	-0.6718140903	-0.227247
C	 0.493051686	-0.534010431	-1.5375779507	-0.089232
C	 0.5332802227	-2.0312031489	-1.1726918589	-0.089774
O	 1.4105491454	-2.1756210061	-0.0415722933	-0.190095
C	 1.7743373595	-3.4359140274	 0.2868488464	 0.134783
N	 2.5324627969	-3.6257383857	 1.2759151449	-0.439251
C	-0.7932139334	-2.5845550839	-0.9081860758	 0.360686
C	-1.877419446	-3.0578708415	-0.700641797	-0.467928
H	 0.5488644555	-0.2006230933	 1.2051273966	 0.139655
H	 1.3754834934	 1.1064660098	 0.3221819866	 0.106913
H	-0.2462016157	 1.3876084804	 1.0112476679	 0.124711
H	 0.0218208354	-0.453558384	-2.5230044346	 0.119095
H	 1.5356749506	-0.1886560306	-1.6168597084	 0.104562
H	 0.9796294029	-2.5559811607	-2.0316580388	 0.111762
H	 1.3532973916	-4.2018654056	-0.3765391869	 0.098781
H	 2.7221196509	-4.6200991616	 1.3829394126	 0.231821
H	-2.8403229221	-3.4651374579	-0.511998658	 0.208942
