18
gdb 41002	3.22393	1.92497	1.4702	1.5578	75.73	-0.2373	0.0674	0.3048	906.6919	0.15008	-401.827069	-401.820795	-401.819851	-401.857378	26.654	
C	-0.1431646614	 1.5407328122	 0.0753208193	-0.237115
C	 1.3644115615	 1.2386097555	 0.0101330686	-0.043319
N	 1.1844300995	 0.1564185991	 1.0488554566	-0.134017
C	 2.2982150078	-0.7997537391	 0.7274687242	-0.232207
C	 2.1258899496	-0.9693812126	-0.7922306656	 0.104639
O	 2.9353855843	-0.4306997225	-1.8966209933	-0.308374
C	 1.7267339511	 0.1694580469	-2.459277285	-0.227544
C	 1.1180409399	 0.1067342815	-1.0445930854	 0.326143
C	-0.0022215993	 0.01088599	 0.0210555349	-0.151405
H	-0.5011400162	 1.9623541693	 1.0154001009	 0.109095
H	-0.5951300694	 2.0140479102	-0.7976938422	 0.099175
H	 2.2099570237	 1.9283629938	 0.0573699781	 0.085258
H	 3.2417177401	-0.3332531801	 1.0247561876	 0.123432
H	 2.1785963108	-1.7375689646	 1.2753279015	 0.107692
H	 1.8122757081	-1.9870928332	-1.0622438505	 0.074151
H	 1.914821046	 1.1562090364	-2.8914157217	 0.114104
H	 1.2675558772	-0.492123095	-3.2047185254	 0.105066
H	-0.7613992134	-0.7630111077	 0.1448616475	 0.085227
