21
gdb 115753	3.36044	0.92214	0.77729	1.7083	85.34	-0.2483	0.0592	0.3075	1509.9926	0.180494	-387.03692	-387.02699	-387.026046	-387.072292	36.255	
C	 0.2559123149	 1.5275937912	-0.068138324	-0.237683
O	-0.3309194485	 0.338975693	-0.5484784948	-0.239523
C	 0.5819475278	-0.5222746376	-1.1742158181	 0.144682
C	 1.5824541632	-1.3368956297	-0.305633576	-0.258831
C	 1.2467909827	-2.5768830912	-1.182383279	-0.228076
C	-0.0317328856	-1.8495981202	-1.692042037	-0.044199
C	-1.3221988545	-2.2571633599	-0.9583237726	-0.358631
C	-1.763857215	-3.5964652586	-1.3291586907	 0.294269
C	-2.1049909729	-4.7035793296	-1.6512759849	-0.44127
H	 1.0188220854	 1.3298848676	 0.699425518	 0.109788
H	 0.7269346917	 2.1028950978	-0.880811469	 0.104756
H	-0.5411874344	 2.1291121649	 0.3751892112	 0.127783
H	 1.1096468752	 0.0085547555	-1.982860086	 0.065321
H	 2.6215635732	-1.0023043722	-0.2718583393	 0.096029
H	 1.21169927	-1.4431185078	 0.7178245888	 0.10919
H	 1.9785801519	-2.7340560484	-1.9783245267	 0.103643
H	 1.0878454751	-3.5264737944	-0.6673856608	 0.11267
H	-0.2097119095	-1.8940493952	-2.7692172899	 0.079452
H	-1.1703456696	-2.2067712673	 0.126478031	 0.129999
H	-2.1080751003	-1.5268251402	-1.1810278679	 0.140276
H	-2.4208593507	-5.6785594277	-1.9278689822	 0.190355
