14
gdb 20583	3.53723	1.90149	1.24632	2.6783	72.72	-0.2213	0.004	0.2253	919.1388	0.107715	-341.586003	-341.578414	-341.57747	-341.618252	27.546	
C	-0.002338689	 1.5080398567	 0.0966292336	-0.518899
C	 0.0162093009	 0.0225808421	-0.0277810191	 0.261837
C	-0.0003325314	-0.7973976693	-1.1540911817	 0.026459
C	 0.0321766687	-2.1204694511	-0.6319206149	-0.109766
N	 0.065784609	-2.1306149678	 0.6905101963	-0.216048
N	 0.0552793986	-0.8214186416	 1.0298627395	-0.243142
C	-0.0404673641	-0.3855499437	-2.5039392602	 0.239562
C	-0.0746947566	-0.0356896764	-3.6566012928	-0.458289
H	 0.8898261711	 1.8843628444	 0.6098976254	 0.139966
H	-0.0330616407	 1.9534907381	-0.89952651	 0.159431
H	-0.8790499568	 1.8586860741	 0.6529197567	 0.140001
H	 0.0316849367	-3.0469226391	-1.1860743133	 0.119666
H	 0.0762878012	-0.5744893308	 2.0053438733	 0.273887
H	-0.1047908376	 0.2672628643	-4.6734719929	 0.185334
