25
gdb 104864	2.1202	1.34176	1.06174	0.1144	93.72	-0.234	0.0274	0.2614	1325.5488	0.229278	-352.378426	-352.368469	-352.367525	-352.412966	38.401	
C	 0.4068624329	-0.952948856	 1.0907585069	-0.395826
C	-0.0930340702	-0.2172449451	-0.1583743334	-0.219411
C	 0.7944987527	-0.3586103935	-1.4170705	 0.291669
C	 2.2342863199	 0.1772147011	-1.1827902727	-0.204387
C	 2.3495222655	 1.6623978046	-0.8227756525	-0.398434
C	 0.8576013455	-1.8333589727	-1.9305802377	-0.254902
C	 0.7459860322	-1.7670324075	-3.4752094676	-0.263299
C	 0.1372736736	-0.4054294433	-3.7074040923	-0.082256
C	 0.1571508662	 0.3432567949	-2.6074095555	-0.095122
H	 0.554669776	-2.0205546367	 0.8968500161	 0.116632
H	 1.3569957695	-0.5477089585	 1.4526227177	 0.117832
H	-0.31807243	-0.8636942023	 1.9060014295	 0.110429
H	-1.0944837526	-0.5846856227	-0.4152589579	 0.092304
H	-0.218910457	 0.8468496613	 0.0773910254	 0.091388
H	 2.7090052151	-0.4215483105	-0.3958448623	 0.092755
H	 2.8138310576	-0.0109657464	-2.0950538914	 0.093278
H	 3.4001414798	 1.950472043	-0.7154771379	 0.110858
H	 1.912506939	 2.3012580909	-1.596962277	 0.116357
H	 1.8504324098	 1.8962733884	 0.1230472591	 0.116629
H	 1.7606365351	-2.3518445209	-1.5960528103	 0.090778
H	 0.0020763616	-2.3904812323	-1.5340067962	 0.095222
H	 1.7259609874	-1.8460866778	-3.9666921782	 0.103942
H	 0.1376377371	-2.5820513874	-3.8839064828	 0.099857
H	-0.2378513808	-0.0869388271	-4.6744395158	 0.087883
H	-0.2116469956	 1.3617982266	-2.5419205532	 0.085825
