20
gdb 23033	3.5021	1.00726	0.85168	0.4855	83.24	-0.2349	0.0179	0.2528	1383.3351	0.17021	-403.125842	-403.116516	-403.115571	-403.160769	34.412	
C	 0.017694581	 1.4787802584	-0.0087060228	-0.468977
C	 0.0046943839	-0.0261067866	 0.0777985909	 0.349279
N	-0.041384602	-0.664211923	 1.1841253531	-0.17319
O	-0.0584598618	 0.2090993098	 2.2872870913	-0.403647
C	 0.0505195229	-0.8228707977	-1.2009041163	-0.063062
C	 1.3640965565	-0.6064966303	-2.0233898959	-0.26325
C	 1.5412135451	-1.9333662978	-2.7220755998	-0.063556
C	 0.7527549237	-2.8769612002	-2.2114633254	-0.065332
C	-0.0936327878	-2.3609943338	-1.0736239431	-0.269146
H	 0.9515584921	 1.87971621	 0.4001741798	 0.1451
H	-0.0859440466	 1.8194405511	-1.040696368	 0.11691
H	-0.7911117122	 1.8999071573	 0.5953510242	 0.147309
H	-0.1195976739	-0.4046697087	 3.0264698449	 0.30388
H	-0.7721124799	-0.4604100423	-1.8328759995	 0.086891
H	 1.2895638244	 0.2407009353	-2.7141563914	 0.10202
H	 2.2189772438	-0.39700923	-1.3644721964	 0.110223
H	 2.2665399496	-2.0793692694	-3.5150249593	 0.089649
H	 0.734486233	-3.9145616661	-2.5267768287	 0.089899
H	 0.2823416519	-2.7138361062	-0.1063606503	 0.127727
H	-1.1406380037	-2.6779632698	-1.1305960972	 0.101273
