19
gdb 87088	3.93211	0.68857	0.65756	4.6397	92.52	-0.2553	-0.0524	0.2029	1757.9588	0.156189	-385.866511	-385.85622	-385.855276	-385.90261	36.034	
C	-0.0580422159	 1.50659108	-0.1011930318	-0.416453
C	 0.0642613778	 0.0026489465	-0.0047070048	-0.013459
C	 1.37120327	-0.7043404676	-0.1795765554	-0.311833
C	 0.7178283664	-0.6886736107	 1.2061459432	 0.118883
C	 1.3617127514	 0.1219871644	 2.3232989956	-0.460596
C	 0.0954329496	-1.905095791	 1.6314109242	 0.074436
C	-0.4267770358	-2.9238916578	 2.027461849	 0.024887
C	-1.0549151833	-4.1430623657	 2.4470751759	 0.011104
O	-1.1355473718	-4.5235839718	 3.5948159518	-0.239697
H	 0.8454866732	 2.0189973615	 0.2379017921	 0.12213
H	-0.2279651864	 1.8006374539	-1.1426650129	 0.12823
H	-0.9005973631	 1.8784985507	 0.4910284308	 0.128976
H	-0.8004923161	-0.5332600508	-0.3844996319	 0.103868
H	 1.3980685548	-1.6437834209	-0.7184544678	 0.127808
H	 2.2668164733	-0.0988917927	-0.2784070706	 0.120954
H	 1.8586806334	 1.0132662711	 1.9346890101	 0.119332
H	 0.6159198384	 0.4381994268	 3.0588428843	 0.13457
H	 2.1118241905	-0.480475649	 2.8438422808	 0.13655
H	-1.4801327263	-4.7398442669	 1.6130746774	 0.090312
