19
gdb 90910	3.41173	1.52308	1.42334	1.2013	80.66	-0.2154	0.0107	0.2261	984.0353	0.160117	-385.774032	-385.766906	-385.765962	-385.804971	30.348	
O	 0.2104213177	 1.3538526013	-0.2091744032	-0.433843
C	 0.102395932	-0.0325242929	 0.0200000582	 0.017
C	 0.19535346	-0.4399555028	 1.5685449022	-0.332935
C	-1.3452210084	-0.1701723004	 1.6073430538	 0.042378
C	-2.7650374775	-0.8736141907	 1.5833333104	-0.136317
C	-2.9151249265	-0.0995815659	 0.1739143728	-0.305581
C	-1.3791702098	-0.4949231542	 0.1229351907	 0.25989
C	-1.5147219296	-2.0315653484	 0.1304027188	-0.1303
C	-2.419609594	-2.2730659038	 1.0796425375	-0.076884
H	 1.1213503659	 1.6128166811	-0.0371679863	 0.285484
H	 0.7461923169	-0.6017187445	-0.6673412576	 0.06144
H	 0.4783968425	-1.4883687179	 1.6795519546	 0.114551
H	 0.8295936138	 0.1898609276	 2.1993847705	 0.087994
H	-1.4832341644	 0.9028262395	 1.7622187496	 0.090122
H	-3.5071622215	-0.7587044096	 2.3749596352	 0.06176
H	-3.5904968158	-0.5537287991	-0.5561974419	 0.095395
H	-3.1000380183	 0.9729999011	 0.2760600272	 0.108864
H	-0.9925876895	-2.7084984606	-0.5325414701	 0.09139
H	-2.8543234934	-3.2039703797	 1.4146122677	 0.099591
