16
gdb 6599	5.49273	1.33977	1.30551	3.4648	66.87	-0.2512	-0.0279	0.2233	951.3944	0.129772	-383.699312	-383.691976	-383.691032	-383.730977	27.855	
O	-0.0644699196	 1.3285166452	 0.0063024437	-0.462755
C	 0.0201995607	-0.0462989411	 0.0017620865	 0.39873
C	 0.6610692167	-0.9825900424	 1.0772117928	-0.330974
C	 0.0069882248	-1.9089189721	-0.0034054506	 0.254533
C	-1.2248286876	-0.9643402379	 0.0078577708	-0.290838
C	 0.6458061796	-0.9763468292	-1.0879634566	-0.330811
C	 0.0266435987	-3.3936643865	-0.0083744059	 0.036812
O	-0.9562052471	-4.0923561809	-0.0068425374	-0.247961
H	 0.8267586201	 1.6947325997	 0.0014676533	 0.284748
H	 1.7529541821	-0.9978048435	 1.137381375	 0.094076
H	 0.1931960156	-0.9942801001	 2.0643013828	 0.108986
H	-1.8286616898	-0.9660664069	 0.9173475321	 0.106349
H	-1.8413689268	-0.9609169856	-0.8930486292	 0.106413
H	 0.1640304077	-0.9825360375	-2.0683841673	 0.109048
H	 1.7367346945	-0.9912924239	-1.1635868103	 0.094095
H	 1.0493427505	-3.8379289275	-0.0140540498	 0.06955
