20
gdb 74711	2.94682	1.57274	1.24199	2.039	80.76	-0.232	0.0335	0.2654	1077.6414	0.172487	-403.154022	-403.145829	-403.144884	-403.188172	31.257	
C	-0.0637268654	 1.4971806531	 0.1673681995	-0.431298
C	-0.0939871757	 0.0190508087	-0.1241140767	 0.386312
N	-1.0759159436	-0.6877640967	 0.250046963	-0.30151
C	-1.1864981549	-2.1066049231	 0.0136253867	 0.025347
C	 0.084659667	-2.9142219293	 0.4165449282	-0.235932
C	 0.5607107624	-2.7720540965	-1.0523616638	-0.028893
C	-0.9135229344	-2.5231065252	-1.4636857645	-0.235926
C	 1.4694826918	-1.5814691615	-1.2871619593	-0.069684
O	 1.0527563564	-0.2981245509	-0.7987463236	-0.279464
H	 0.8186005028	 1.7485052128	 0.7646311066	 0.13164
H	 0.0068286464	 2.0667512777	-0.764831394	 0.131636
H	-0.9666473498	 1.7807051183	 0.7056002558	 0.13982
H	-2.1303498612	-2.4495865891	 0.4433548468	 0.070687
H	 0.7078939886	-2.4859595138	 1.2060813924	 0.10165
H	-0.1546556094	-3.9511675584	 0.6680236641	 0.09871
H	 1.0572295176	-3.6410541021	-1.4967190509	 0.072599
H	-1.4253830273	-3.453254799	-1.7255861822	 0.098709
H	-1.116636099	-1.7710390678	-2.2307173522	 0.101645
H	 2.4474775478	-1.7705163469	-0.8263572093	 0.111979
H	 1.6304848499	-1.4503283103	-2.3648609766	 0.111974
