17
gdb 55671	2.28465	1.15623	0.92585	1.6445	72.49	-0.2493	-0.0386	0.2106	1290.5086	0.133947	-455.188954	-455.179312	-455.178368	-455.224692	33.379	
C	 1.0349151665	-0.0983413606	 0.2000560919	-0.484416
C	-0.4138466338	 0.1155426411	 0.5748260034	 0.373388
O	-0.8849699959	 1.2034308269	 0.8038889045	-0.284092
C	-1.3142135884	-1.1240037952	 0.7243607033	-0.285635
N	-0.9990516449	-2.2626340682	-0.13259162	-0.065687
C	-0.1991512427	-3.3022663432	 0.3378992149	 0.08984
N	 0.3303858334	-3.2524003759	 1.4921427545	-0.467753
C	-1.5494431515	-2.3487759732	-1.4040937701	 0.160034
O	-1.3508866011	-3.2463445009	-2.1858430198	-0.307085
H	 1.5622311827	 0.8552471545	 0.2311901349	 0.144685
H	 1.4932930298	-0.8182226986	 0.8859692231	 0.165877
H	 1.111882672	-0.5269363033	-0.8053386171	 0.144589
H	-1.2215807138	-1.4654818974	 1.760220256	 0.177629
H	-2.3451533816	-0.8054068938	 0.5563193114	 0.143643
H	-0.1136046892	-4.1049926189	-0.3952415959	 0.151514
H	 0.8616137408	-4.1013537678	 1.6746151527	 0.239598
H	-2.2035527522	-1.4848858953	-1.6223625976	 0.103874
