18
gdb 107513	2.06804	1.59391	1.09396	4.5516	75.75	-0.2576	-0.0016	0.256	1155.9249	0.146657	-401.918673	-401.909948	-401.909004	-401.952494	32.127	
C	 0.0624060565	 1.536276675	 0.223596573	-0.37622
C	 0.0151693695	 0.0405830699	-0.1212332576	-0.304036
C	-1.37128916	-0.5332087593	-0.0525017566	 0.279183
C	-2.058690773	-1.0178596415	 1.2122382024	-0.352086
C	-1.9227876279	-1.9387099084	 0.0429928329	 0.040612
O	-2.9649443713	-1.6890325846	-0.9145395237	-0.288174
C	-2.4509117692	-0.3532683293	-1.1348852921	-0.062763
C	-3.4560635651	 0.696875655	-0.9498017418	 0.291113
N	-4.2302937263	 1.5409904999	-0.7961115968	-0.326987
H	 1.085093127	 1.9188188958	 0.159422648	 0.11874
H	-0.557836874	 2.1230310636	-0.4618429901	 0.130268
H	-0.3063913948	 1.7163181474	 1.2379997914	 0.128449
H	 0.4283986461	-0.1222402049	-1.1253553679	 0.105145
H	 0.6601479573	-0.5178312939	 0.5678277952	 0.108064
H	-1.3739686982	-1.2039759246	 2.0344423272	 0.123599
H	-3.0414716354	-0.6557786472	 1.5005519917	 0.139182
H	-1.4589778979	-2.9174843725	 0.0339531008	 0.117836
H	-2.023317543	-0.2734727604	-2.1416823761	 0.128077
