19
gdb 127011	3.18958	1.06215	0.80888	2.9535	79.24	-0.2041	0.033	0.2371	1427.0405	0.159152	-419.227857	-419.218356	-419.217412	-419.262843	33.915	
C	-0.0176508301	 1.5493406899	-0.061049192	-0.391682
C	-0.0120772028	 0.0324423354	-0.0149176564	-0.047289
O	 0.6585837994	-0.4453523357	-1.1727683678	-0.27052
C	 0.7519543613	-1.7929038083	-1.2853562273	 0.222374
C	 0.2999390847	-2.8017508322	-0.4567838307	-0.162514
N	 0.6744743575	-3.9602702292	-1.0700710136	-0.197935
N	 1.3309771799	-3.7635861087	-2.2250908156	-0.279718
C	 1.3882945883	-2.4413879386	-2.374730358	 0.249881
C	 2.0482016579	-1.8047537185	-3.5534927851	-0.493508
H	 1.0045926496	 1.9371716913	-0.0778320717	 0.131608
H	-0.5353341654	 1.9048389849	-0.9562028141	 0.131609
H	-0.5279871411	 1.951893949	 0.8188225054	 0.1182
H	 0.5035158838	-0.3328624174	 0.8864411156	 0.09895
H	-1.0382928259	-0.3652418487	 0.0067637499	 0.098943
H	-0.2347890861	-2.7935086774	 0.47755462	 0.127502
H	 0.5159699562	-4.8998149615	-0.7523892722	 0.270922
H	 1.3445316191	-1.1833890032	-4.1184014084	 0.128635
H	 2.8733161381	-1.1527851629	-3.2460630131	 0.128624
H	 2.4426379856	-2.5766351184	-4.217575865	 0.13592
