16
gdb 34013	3.10686	1.42033	1.19039	3.6354	75.29	-0.2582	-0.0164	0.2417	1047.9304	0.125468	-400.745921	-400.738425	-400.73748	-400.777901	28.788	
N	 0.0021136475	-1.1272781231	-0.1056831261	-0.344787
C	-0.0116033358	 0.0287633813	-0.0540036195	 0.232579
C	-0.0341140725	 1.4671495361	 0.0063027444	 0.100913
C	 0.4954759819	 2.2166075193	-1.2269913185	-0.327262
C	 1.3051807025	 2.1947335801	 0.0300971605	 0.071078
O	 1.3770027227	 3.3783064066	 0.7563452757	-0.256727
C	 0.6480471507	 3.397339652	 1.9811981743	-0.132077
C	-0.7761979751	 2.9363548259	 1.811428007	-0.071128
C	-1.10192995	 2.0597157253	 0.8656770476	-0.147552
H	 0.8200753071	 1.6184025683	-2.0703325845	 0.140231
H	-0.0055574109	 3.1476118729	-1.4632053358	 0.140828
H	 2.2069757942	 1.5870559653	 0.063297039	 0.118665
H	 1.1585786425	 2.7900189597	 2.7469352992	 0.118387
H	 0.6816069419	 4.4371187802	 2.318485575	 0.128554
H	-1.5258946716	 3.3523860355	 2.4770744059	 0.111896
H	-2.1221905052	 1.7257259844	 0.7094025058	 0.116403
