17
gdb 75402	2.62789	1.61429	1.08412	0.8772	77.14	-0.2499	-0.0434	0.2065	1101.0397	0.137787	-418.054988	-418.046874	-418.045929	-418.087716	30.391	
C	 0.0057343249	 1.5271873255	-0.1247198872	-0.465773
C	-0.0123994907	 0.0271460932	 0.0121942447	 0.212286
C	-1.1462345026	-0.6862560121	 0.0094938577	-0.155748
C	-1.2346806387	-2.1885930696	 0.069199109	-0.228734
N	-0.6350544373	-2.770304381	 1.2743130502	-0.21427
C	 0.6078261298	-2.6023714073	 1.4393520022	 0.083896
N	 1.4969112309	-1.8473327592	 0.6682852067	-0.343182
C	 1.3416219613	-0.5861446185	 0.0795495485	 0.338291
O	 2.3361493002	 0.0001191505	-0.3056760606	-0.352829
H	 0.5661412249	 1.8211539272	-1.0167638742	 0.151117
H	-1.0094924815	 1.9246499129	-0.1910697563	 0.116718
H	 0.5122885276	 1.9960094039	 0.7258393343	 0.135483
H	-2.0875158181	-0.1448359386	-0.0557912014	 0.104162
H	-2.2822274577	-2.4955597609	 0.0391588016	 0.11562
H	-0.7450636215	-2.6232858469	-0.8169141704	 0.122564
H	 1.1006188423	-3.1133382891	 2.2679481994	 0.124646
H	 2.4802366064	-2.0501196	 0.8007364459	 0.255754
