20
gdb 107231	2.84153	1.48936	1.14909	2.6055	78.16	-0.2215	0.0662	0.2877	1119.2714	0.170631	-403.060279	-403.051808	-403.050864	-403.092935	33.546	
C	-0.1037698683	 1.5274940722	 0.0536071605	-0.501225
C	-0.0411048904	 0.028437787	-0.031178793	 0.27439
C	-0.7556094964	-0.8855258994	 0.9327044586	-0.357422
C	 0.7357914235	-0.990690078	 0.7732617567	-0.042125
N	 1.2589419314	-1.7049415997	-0.457727578	-0.199185
C	 0.1366390342	-2.1934488476	-1.2979016003	-0.287027
C	 0.4438468619	-0.7485230746	-1.2920456267	 0.220723
C	 1.1520394395	-0.0868959409	-2.4566056984	-0.144088
O	 2.1019213243	-0.9639688559	-3.0251196332	-0.416817
H	 0.8053844872	 2.0032610929	-0.3276552817	 0.126654
H	-0.9524575489	 1.9247024231	-0.5166294117	 0.123719
H	-0.2301125336	 1.8450636931	 1.0933201531	 0.121698
H	-1.0393173338	-0.388357253	 1.8565409406	 0.116051
H	-1.4596744361	-1.6535991634	 0.6349473194	 0.114175
H	 1.4288741887	-0.8729713766	 1.5973157166	 0.102827
H	 0.5029768565	-2.7494300851	-2.1547878671	 0.134412
H	-0.7542914958	-2.6077519292	-0.8439103879	 0.120032
H	 0.4410222399	 0.1778207042	-3.2482965932	 0.111256
H	 1.6268074833	 0.8472544044	-2.1165304716	 0.087554
H	 2.564433993	-1.3606179934	-2.271980053	 0.294396
