14
gdb 45776	3.43976	1.13939	0.89058	5.6928	67.15	-0.2678	-0.0396	0.2283	1207.0302	0.102368	-432.926993	-432.91919	-432.918246	-432.960188	27.861	
O	 0.0475677073	-0.0060585992	 0.0947187691	-0.355551
C	-0.0106715859	 1.1956405125	 0.0357603967	 0.423544
N	-1.1513519889	 1.9842774546	-0.0584190112	-0.340366
C	-0.7763500037	 3.3242416968	-0.0154379058	 0.072194
N	 0.4772262581	 3.5532885603	 0.0578974424	-0.230551
C	 1.1251373778	 2.2381140425	 0.0592710337	-0.123133
C	 2.0501821499	 2.0169711174	 1.2697873501	-0.341348
C	 3.2534145689	 2.8424792499	 1.2240606104	 0.27598
N	 4.2145461142	 3.4818145734	 1.185481299	-0.300979
H	-2.0910326822	 1.6209874531	-0.0704055532	 0.27755
H	-1.5382637645	 4.0961274567	-0.0436301328	 0.153072
H	 1.7137860632	 2.1287224775	-0.8597046289	 0.152122
H	 1.5050497815	 2.2317303068	 2.1948374813	 0.160213
H	 2.3344039543	 0.9593317577	 1.2940063992	 0.177252
