15
gdb 32147	2.88558	1.43248	0.96308	3.0266	72.82	-0.2264	-0.0347	0.1917	1153.491	0.114019	-454.002529	-453.994857	-453.993913	-454.034865	28.55	
C	-0.0466397216	 1.4219795268	 0.0411783409	-0.234373
O	-0.049312824	-0.0040872968	-0.0100299238	-0.257823
C	-1.2400613777	-0.6214166445	 0.0098988585	 0.414798
C	-1.2531824725	-2.0246450534	-0.0402489232	-0.101632
N	-2.4000521213	-2.6911706243	-0.0236820919	-0.218863
C	-3.5342171545	-1.9933900721	 0.04161497	-0.095773
C	-3.500876902	-0.5989487166	 0.0906837137	 0.398699
O	-4.6529999105	 0.0947709123	 0.1564667399	-0.411625
N	-2.3604607679	 0.0886638419	 0.0751271955	-0.439073
H	 1.0039943484	 1.712523238	 0.0143500128	 0.135892
H	-0.5788508164	 1.8477810171	-0.814542986	 0.134532
H	-0.5158516837	 1.7839093746	 0.9607778363	 0.13453
H	-0.3239753635	-2.581398617	-0.0932326091	 0.119971
H	-4.4765739301	-2.5292443755	 0.0556627675	 0.1212
H	-4.4119380627	 1.0308123394	 0.1816813791	 0.299539
