17
gdb 87108	2.76284	1.21157	0.97361	2.5432	71.24	-0.2478	-0.0913	0.1565	1214.7487	0.132113	-458.962548	-458.952825	-458.951881	-458.997915	34.355	
C	-0.0336931241	 1.4912222123	-0.1711079182	-0.462146
C	 0.0496235675	-0.0218882186	-0.1213265207	 0.160904
C	 1.4427815951	-0.6668325758	-0.0042498592	-0.346419
C	 0.5485757145	-0.6806699418	 1.1804599327	 0.109506
O	 0.7761559429	 0.1660873591	 2.2598395025	-0.418557
C	-0.9310391273	-0.8786655093	-0.8377352257	 0.236691
O	-0.8729365077	-2.0957663572	-0.8352512564	-0.312549
C	-2.1032996626	-0.2925348264	-1.6439008304	 0.091882
O	-2.2948404734	 0.867198459	-1.8923166024	-0.229929
H	 0.712281977	 1.9148399715	 0.5036232797	 0.120514
H	 0.145347723	 1.8686393029	-1.1806439369	 0.127433
H	-1.0139520112	 1.8526713711	 0.1457589826	 0.135505
H	 1.5937733175	-1.5971437879	-0.5395700151	 0.140484
H	 2.2727787108	 0.0319198567	-0.004686877	 0.122668
H	 0.0601735178	-1.6233306483	 1.4213776432	 0.117265
H	 1.6496233268	-0.026976225	 2.6153549474	 0.296234
H	-2.7608001667	-1.1109718823	-2.0079782062	 0.110514
