19
gdb 38301	2.74549	1.99642	1.75566	0.3656	72.84	-0.2334	0.076	0.3094	877.6423	0.163072	-422.994792	-422.988521	-422.987577	-423.024963	27.235	
C	 0.0740658097	 1.692709169	-0.0399798007	-0.243325
C	 1.5412004686	 1.2067415189	-0.1486312392	 0.095436
C	 2.3236367024	 1.0870281456	 1.1701672127	-0.233113
C	 1.6109610644	 0.2852794916	 2.2724646286	 0.095436
C	 1.0770194418	-1.1135123372	 1.8740408092	-0.243323
C	-0.200589071	-0.3148068723	 1.5411347412	 0.071303
O	 0.2388754508	 0.7417532667	 2.440959704	-0.289924
C	-0.2128928001	 0.1802992338	 0.0663829604	 0.071303
O	 1.0590886863	-0.0955620087	-0.5856116257	-0.289923
H	-0.2102618747	 2.3316909378	 0.7918286911	 0.1232
H	-0.2724220698	 2.0988812628	-0.9917225941	 0.10188
H	 2.1636030077	 1.6786782272	-0.915665609	 0.076849
H	 3.2934826579	 0.6149468534	 0.9659514081	 0.106674
H	 2.53342449	 2.0972290936	 1.5451999244	 0.106675
H	 2.1709572022	 0.3527071587	 3.2107122725	 0.076849
H	 1.5689904092	-1.6577652162	 1.0722930974	 0.123201
H	 0.9369251886	-1.7416573485	 2.7553190089	 0.101879
H	-1.1742999634	-0.7094118173	 1.8450674186	 0.074461
H	-1.0449638706	-0.2488422687	-0.4990337185	 0.074461
