19
gdb 39724	3.23476	1.66328	1.62341	1.4293	77.39	-0.2281	0.0954	0.3235	931.0707	0.162212	-385.870585	-385.864067	-385.863123	-385.901139	27.987	
C	 0.0024154071	 1.5135435099	 0.0070019234	-0.340438
C	 1.3086009932	 0.7415310965	 0.0014757524	-0.346983
C	 0.0001822232	 0.0143654419	 0.0191207923	 0.46076
C	-0.4868019202	-0.8658645823	 1.1422147894	-0.215367
C	-1.7783559579	-1.5258624446	 0.6388929818	-0.124058
C	-2.0181352071	-0.9969102203	-0.7719356499	-0.226575
C	-0.5183618391	-0.855475686	-1.1266102204	-0.04878
O	 0.010075849	-2.1544733209	-0.7982923486	-0.2603
C	-0.4575258623	-2.252393897	 0.5354162595	 0.094691
H	-0.2811427351	 2.0368237014	 0.9142408235	 0.112425
H	-0.2895851204	 2.0241026759	-0.9060213297	 0.109681
H	 1.8908836322	 0.7303452184	-0.9142207895	 0.113999
H	 1.9070869464	 0.7442764754	 0.9067410838	 0.11229
H	-0.2889079144	-0.667995721	 2.1869828882	 0.086468
H	-2.5711076048	-1.8405327031	 1.3035703379	 0.087694
H	-2.528458781	-1.7183925053	-1.4159801821	 0.102156
H	-2.543352327	-0.0388445276	-0.7989229119	 0.103878
H	-0.245046474	-0.5855745756	-2.1446265805	 0.077092
H	-0.1888275879	-3.1663080957	 1.0451184806	 0.101366
