13
gdb 27972	3.06452	1.38983	0.95618	3.3178	69.27	-0.2614	-0.0825	0.1789	1119.161	0.090853	-452.81797	-452.810902	-452.809957	-452.849905	25.995	
O	 0.5911281408	 1.2104515229	-0.0175021236	-0.403283
C	 0.2574426945	-0.0841196823	 0.0208377561	 0.439235
N	 0.2068033958	-0.750631658	-1.1235700696	-0.35335
C	-0.1308784249	-2.0418146162	-1.0401300317	 0.239946
C	-0.2017898246	-2.8409393878	-2.3136047681	 0.120884
O	 0.0249716392	-2.398553232	-3.4082078077	-0.238795
N	-0.4199648904	-2.723763006	 0.0662433284	-0.286529
C	-0.3612798481	-2.0251081626	 1.2108532107	 0.014282
C	-0.0247697328	-0.6861977436	 1.2558218234	-0.204221
H	 0.7437204053	 1.4284834965	-0.9493724347	 0.311124
H	-0.4894912694	-3.8962991416	-2.1320544462	 0.100064
H	-0.5947481945	-2.5686356996	 2.122711127	 0.129918
H	 0.022447059	-0.1229867497	 2.1784645558	 0.130726
