17
gdb 110194	2.63238	1.0953	0.81612	1.6534	71.39	-0.2645	-0.0425	0.2221	1345.1553	0.133575	-458.972526	-458.963476	-458.962531	-459.007219	32.205	
O	 0.0775605605	 1.4455811673	 0.2723844085	-0.416917
C	 0.1526351874	 0.0720954435	-0.0432380269	-0.084619
C	-1.2457349109	-0.5474310792	-0.0535865676	-0.14037
C	-1.4454077049	-2.107775396	-0.0836244518	-0.111927
C	-2.4740001855	-1.9869359522	 1.0950880897	-0.365884
C	-1.9537804412	-0.5626074881	 1.3030561531	 0.40228
O	-1.9236330289	 0.1964089119	 2.2321165586	-0.30856
C	-1.9865598575	-2.6656785582	-1.370678032	 0.16287
O	-1.4740992048	-3.5387818911	-2.0192669149	-0.244153
H	-0.3540544418	 1.513583846	 1.1342059177	 0.299516
H	 0.620196663	-0.0070112868	-1.029869163	 0.123278
H	 0.7892217385	-0.4788187831	 0.6679614976	 0.094967
H	-1.8693734834	-0.0494277946	-0.8072745486	 0.118353
H	-0.5400336598	-2.6468677693	 0.2015509975	 0.109017
H	-3.5102101216	-1.9811241708	 0.7349083717	 0.141809
H	-2.3929834604	-2.6858760891	 1.9295977533	 0.147081
H	-2.9407672487	-2.1846511804	-1.6987208628	 0.07326
