19
gdb 2293	7.4704	1.21054	1.13131	1.9721	67.37	-0.2413	0.0788	0.3201	1088.9062	0.17152	-310.902795	-310.89474	-310.893796	-310.935993	28.185	
C	-0.0776032067	 1.574014877	-0.0285681201	-0.379968
C	-0.0525915252	 0.0436647152	-0.0595148806	-0.16476
C	 0.8156995137	-0.5223185788	-1.1897491026	-0.190131
C	 0.8294723192	-2.0447833321	-1.2373196913	-0.018946
C	-0.4372518278	-2.7628008314	-1.7619954825	-0.074205
O	 0.3011077156	-3.3926239432	-2.8279000991	-0.272233
C	 1.5169779242	-2.7175677331	-2.4475554623	-0.090849
H	 0.9294080892	 1.983635945	 0.1084973536	 0.114666
H	-0.4744121627	 1.9822735289	-0.964684201	 0.115618
H	-0.7027099513	 1.9471213666	 0.788566279	 0.112919
H	 0.3143671347	-0.3380771277	 0.9024538266	 0.095905
H	-1.0776326474	-0.336264942	-0.1642618382	 0.099396
H	 0.4596559624	-0.1350897562	-2.1549517295	 0.096613
H	 1.845410414	-0.1554300252	-1.0759395653	 0.094895
H	 1.1735075898	-2.4475627607	-0.2797586446	 0.076104
H	-0.8980352553	-3.4989083665	-1.0920292818	 0.098946
H	-1.221933489	-2.0950226882	-2.1454783043	 0.093681
H	 1.8622214769	-2.0229578697	-3.2261789515	 0.09439
H	 2.3251634157	-3.4238294379	-2.2207640645	 0.097958
