14
gdb 461	5.80128	3.66753	2.83902	1.4817	53.91	-0.2461	0.0209	0.267	510.4532	0.120948	-270.441325	-270.435739	-270.434794	-270.470141	21.267	
O	 0.0991440424	 1.4100069777	-0.0356347992	-0.435447
C	 0.0273629725	-0.0094663463	 0.0045626173	 0.136437
C	 0.614341629	-0.5690825555	 1.3269034492	-0.27067
C	-0.6124624229	-0.7489798829	 2.1916473655	-0.068364
C	-1.7333535288	-0.7127600171	 1.4690943287	-0.068367
C	-1.4433888919	-0.502590936	 0.0004406788	-0.27067
H	-0.3840748583	 1.7407998264	 0.7305479491	 0.278758
H	 0.5833230113	-0.3432588388	-0.8746261599	 0.08342
H	 1.1250280501	-1.5294352869	 1.1685290391	 0.106877
H	 1.3589561019	 0.1218516679	 1.7366504227	 0.108382
H	-0.5609207403	-0.9184414632	 3.2614717131	 0.092193
H	-2.7359704537	-0.8481584763	 1.8593822627	 0.092193
H	-2.0914498431	 0.2333444672	-0.4875648093	 0.108382
H	-1.5533871583	-1.4428881863	-0.5580412077	 0.106877
