19
gdb 121196	2.18102	1.36935	0.96293	4.0595	75.61	-0.245	0.0226	0.2675	1255.2949	0.159321	-419.178732	-419.169316	-419.168371	-419.21388	33.182	
C	-0.201403284	 0.7830025012	 1.2624404173	-0.239693
O	 0.0194300577	 0.1529504698	 0.0172773783	-0.232172
C	 1.1408320471	-0.7019265765	-0.022369129	-0.09549
C	 0.8831918067	-2.0842345674	 0.5743299773	 0.020975
N	 1.9238448036	-3.0797357487	 0.2414672835	-0.307502
C	 1.841675369	-3.6917471814	 1.5820921766	-0.168779
C	 1.1278788697	-2.4044005741	 2.0964798996	-0.194794
C	 1.9951635608	-1.4764933895	 2.8019370699	 0.298684
N	 2.6783842076	-0.7331459502	 3.3661026836	-0.336865
H	 0.6972108178	 1.3055203008	 1.619155568	 0.12721
H	-1.0025731906	 1.5109670975	 1.1125048884	 0.127734
H	-0.5189370643	 0.0767700725	 2.0443905556	 0.101557
H	 1.3758316056	-0.8508484672	-1.0829262805	 0.109944
H	 2.0205492923	-0.2397086162	 0.4493697459	 0.118124
H	-0.1403599194	-2.3891014098	 0.3093202635	 0.082815
H	 1.7141328971	-3.6915073726	-0.539471917	 0.226069
H	 1.1763571979	-4.5623242234	 1.6568605035	 0.104591
H	 2.8066976073	-3.9362166785	 2.0337700616	 0.129316
H	 0.2246510779	-2.5695503863	 2.685490124	 0.128277
