19
gdb 33772	3.56661	1.38131	1.18395	0.9422	86.66	-0.2343	0.0121	0.2463	1087.7226	0.160508	-348.720354	-348.712793	-348.711849	-348.751859	31.41	
C	-0.0286121326	-1.2139443536	-0.0296737195	-0.353493
C	-0.0243677812	-0.0111318854	-0.008449325	 0.079767
C	-0.0110331551	 1.4346639744	 0.0262185092	 0.171144
C	-0.2240653554	 2.1722394693	 1.3981531914	-0.244774
C	 0.6801600193	 3.2968077575	 0.8194221974	-0.04453
C	 1.3654426452	 2.1918976944	-0.0330850664	-0.244774
C	-0.1425887858	 4.2340775648	-0.0814346891	-0.25524
C	-0.9905233707	 3.4231413515	-1.0342744281	-0.080641
C	-0.9363477026	 2.093048205	-0.9923763608	-0.086568
H	-0.0304383156	-2.2754729874	-0.0462600454	 0.179312
H	-1.2542143206	 2.4125727643	 1.6703048762	 0.100455
H	 0.2679306521	 1.6366728245	 2.2130392437	 0.106205
H	 1.3034944154	 3.8567250207	 1.5193767798	 0.064691
H	 2.1317455283	 1.6597240097	 0.5348075557	 0.106205
H	 1.7403547265	 2.4496080199	-1.0260905607	 0.100455
H	-0.7791559325	 4.8888546411	 0.5304199336	 0.106787
H	 0.5233839971	 4.9049634448	-0.6424243916	 0.106787
H	-1.6317794243	 3.9440261365	-1.7392886273	 0.089641
H	-1.5195522176	 1.4569223079	-1.6488102831	 0.098571
