25
gdb 91347	1.8286	1.5564	1.45032	0.1691	92.08	-0.2531	0.0743	0.3274	1186.6567	0.228667	-352.3406	-352.330883	-352.329939	-352.374551	38.199	
C	 0.029046723	 1.5595644721	-0.1473798498	-0.424485
C	 0.0229223717	 0.0408771167	-0.0118274178	 0.011949
C	 0.7889030437	-0.8539307026	-1.0283171555	-0.263109
C	 1.1990457065	-1.8114990784	 0.1282612835	-0.048768
C	 2.6491018662	-1.6344866123	 0.6227978118	-0.248288
C	 2.1883698541	-0.4789394729	 1.5686237605	-0.014899
C	 2.8641991418	 0.8765518849	 1.3888307643	-0.41346
C	 0.6827291329	-0.7428505694	 1.1672757624	 0.331656
C	-0.2217199003	-1.0780115956	 2.3385365009	-0.490796
H	 1.031697769	 1.9680255086	-0.2876887338	 0.115324
H	-0.5718488713	 1.8639036711	-1.0123187108	 0.10926
H	-0.4068073047	 2.0397940388	 0.7364143361	 0.110806
H	-1.0263579412	-0.2826011873	-0.0148809752	 0.067556
H	 0.1820097268	-1.2882826822	-1.826884197	 0.093232
H	 1.6488070242	-0.3582122991	-1.4920283522	 0.090701
H	 0.7883218725	-2.8220629219	 0.0825853003	 0.054798
H	 3.04619586	-2.5004091903	 1.1597357259	 0.09279
H	 3.3739532295	-1.3533911007	-0.1489463161	 0.08859
H	 2.311416453	-0.7719838469	 2.616893563	 0.067737
H	 2.916894044	 1.1784765581	 0.3389726504	 0.117169
H	 2.3507508524	 1.6689970821	 1.94364853	 0.112751
H	 3.8947306332	 0.8282387261	 1.7599590019	 0.109428
H	-0.4230521904	-0.1883450228	 2.9498469448	 0.112099
H	-1.1873408084	-1.4715026484	 2.0008627411	 0.108254
H	 0.2318584117	-1.8285977277	 2.9962471312	 0.109705
