20
gdb 114227	4.65878	0.90789	0.83048	2.2477	82.21	-0.2238	0.0214	0.2452	1412.6851	0.17177	-403.125661	-403.116969	-403.116024	-403.159351	33.169	
O	 0.0398739358	 1.407546672	 0.1043489223	-0.422906
C	 0.0373990393	-0.0095135791	 0.0176794049	-0.084867
C	-1.4165702154	-0.4759404579	 0.0220199639	-0.025917
C	-1.5647625368	-2.0142832802	-0.122500967	-0.351095
C	-2.6822312978	-2.40238496	 0.8545631468	 0.33447
C	-3.8248011745	-3.2747153435	 0.4598151412	-0.289399
N	-2.8054605677	-3.7635023065	 1.4058805484	-0.364237
C	-2.8282674868	-1.2336377733	 1.7637653863	-0.125807
C	-2.1481527941	-0.1797585544	 1.3152889023	-0.079585
H	 0.9514892603	 1.7058799382	 0.1693278201	 0.287731
H	 0.5332314111	-0.3538063351	-0.9049613779	 0.083812
H	 0.5675072387	-0.4648489696	 0.8699022874	 0.086688
H	-1.9154782102	 0.0421058755	-0.809241474	 0.09027
H	-1.765243456	-2.3285862529	-1.1501384433	 0.102353
H	-0.6315947243	-2.5004533118	 0.1932790533	 0.102044
H	-4.8102809373	-3.1174611519	 0.891060354	 0.115421
H	-3.8337152171	-3.6674419327	-0.5544257844	 0.107484
H	-2.1594577748	-4.3856057723	 0.9243403012	 0.226292
H	-3.4428412058	-1.2765333104	 2.6552864598	 0.099992
H	-2.1106262567	 0.8001221259	 1.7749138846	 0.107257
