13
gdb 129038	2.71069	1.75539	1.10435	3.0364	73.58	-0.2617	-0.1002	0.1616	1003.1617	0.090587	-448.89086	-448.883636	-448.882692	-448.923316	26.439	
N	-0.0454746233	 1.2799917092	-0.4880645041	-0.435848
C	 0.0046136828	 0.0603530465	-0.1132435134	 0.173159
C	 1.2106368913	-0.6628114504	 0.2700020095	-0.142769
C	 1.4479475541	-1.9879580968	 0.2247278264	 0.028142
N	 0.6813394704	-3.0493715006	-0.2494612514	-0.173946
N	-0.5680122696	-3.0801303483	-0.3281628263	-0.064283
N	-1.3738517793	-2.0408154781	 0.0745795561	-0.279138
C	-1.3332109626	-0.6276556765	 0.0386984177	 0.412753
O	-2.3723484986	-0.0314892325	 0.1436797706	-0.29452
H	 0.8967823245	 1.6781795892	-0.5332872486	 0.232948
H	 2.0375184326	-0.0328795586	 0.5903160103	 0.124699
H	 2.4378098078	-2.3357912422	 0.5056990452	 0.137414
H	-2.33869354	-2.3518685109	 0.0537236481	 0.281389
