20
gdb 78959	2.45077	2.06464	1.52299	2.0109	80.26	-0.2245	0.0791	0.3036	963.0247	0.171737	-365.937822	-365.930282	-365.929337	-365.96926	30.767	
C	-0.063615015	 1.6280341961	-0.0024282699	-0.423071
C	 0.0217167886	 0.1104549317	 0.0057111395	-0.024432
C	 1.0703266782	-0.6276694249	-0.8695556676	-0.09482
C	 2.4623180064	-0.2495305547	-0.320899995	-0.042205
C	 2.2003584009	-0.2504926775	 1.1440392749	-0.097316
N	 2.6644165044	-1.511559196	 0.4701140584	-0.185085
C	 1.1734983671	-1.7575452062	 0.2024888256	-0.038514
C	 0.7017425265	-0.638574143	 1.1943260124	 0.318516
C	 0.0340133189	-0.8682244877	 2.5250781729	-0.518401
H	 0.9211712396	 2.0760507893	 0.1683724936	 0.118824
H	-0.4388541697	 2.0006713984	-0.9618832346	 0.115673
H	-0.7385262288	 1.9934613062	 0.7794910394	 0.115352
H	-0.965668252	-0.3383471316	-0.1681325955	 0.068036
H	 0.9454662694	-0.7939791028	-1.9377344322	 0.06903
H	 3.2875905385	 0.2573870692	-0.8058366792	 0.092627
H	 2.8049934528	 0.2541468967	 1.8887398637	 0.087989
H	 0.7789234657	-2.769162015	 0.1289217363	 0.075136
H	 0.6295259963	-1.5365798928	 3.1566351595	 0.127493
H	-0.0950881372	 0.0743420236	 3.0707375877	 0.118965
H	-0.9570477307	-1.317465779	 2.3994520299	 0.116204
