19
gdb 67657	2.97709	1.86627	1.63844	1.7897	77.32	-0.2316	0.0778	0.3094	916.2517	0.161541	-385.853935	-385.847245	-385.846301	-385.884564	28.268	
C	-0.0184257621	 1.5068658371	-0.0040311562	-0.51541
C	 0.0019360491	 0.0061080134	 0.0196570258	 0.339377
C	-0.1506922639	-0.838588728	-1.2386260227	-0.114813
C	 0.7085493287	-2.0860677493	-1.4030908481	-0.231199
C	 0.8623088955	-2.5613140622	 0.0390872177	 0.08066
O	 1.7798893131	-1.6570435549	 0.7229354476	-0.312535
C	 0.6507787056	-0.8627837133	 1.1302901708	 0.05022
C	-0.3703585463	-1.9689116055	 0.8226188419	-0.100939
C	-1.1394988212	-1.0151998052	-0.1184911784	-0.147804
H	 0.977855441	 1.9128126545	-0.217038818	 0.126245
H	-0.7001134283	 1.882297027	-0.7748340138	 0.11745
H	-0.3465267484	 1.9189738554	 0.9573716672	 0.116444
H	-0.4659404098	-0.2863483465	-2.1185818368	 0.081216
H	 0.1860111885	-2.8279095208	-2.020207979	 0.093435
H	 1.6910176495	-1.8949526052	-1.8445118799	 0.110715
H	 1.1513824193	-3.6057576976	 0.1732992817	 0.073697
H	 0.7796811239	-0.379778227	 2.1020617924	 0.072428
H	-0.8661570084	-2.5620913349	 1.5859942649	 0.075802
H	-2.2096489257	-0.8683210269	-0.1855687874	 0.085011
