15
gdb 128386	2.74039	1.55284	0.99735	2.9232	75.92	-0.2272	-0.0683	0.1589	1125.1385	0.112587	-450.060752	-450.05241	-450.051466	-450.094477	29.848	
C	 0.0670187746	 1.4045942443	 0.0624475829	-0.317527
N	 0.1098374539	-0.0370528872	-0.0429410061	-0.334619
C	 0.6240046516	-0.6880975796	-1.1020836532	 0.453282
N	 1.1191885159	-0.0126147321	-2.1030997561	-0.222941
O	 1.641698204	-0.740138323	-3.1794884733	-0.215476
N	 1.6567310244	-2.0903409205	-3.2289680217	-0.052021
C	 1.1654555102	-2.754154941	-2.2361921322	-0.009527
C	 0.5897201313	-2.1582073292	-1.0534822123	 0.188265
N	 0.0821419262	-2.7379396827	-0.0269091599	-0.545347
H	 1.0742948659	 1.8343956702	 0.021627322	 0.145247
H	-0.5144857809	 1.8442761881	-0.7558405436	 0.145145
H	-0.396322851	 1.6734017375	 1.0127659843	 0.131229
H	-0.2515810872	-0.6363389915	 0.6831140489	 0.274434
H	 1.209431563	-3.8351829069	-2.3409025802	 0.134125
H	 0.1190622581	-3.7550935764	-0.1170978294	 0.225734
