18
gdb 47411	2.7494	1.53329	1.17845	4.6607	71.6	-0.246	0.0214	0.2675	1068.0643	0.149844	-439.108265	-439.100335	-439.099391	-439.141235	29.545	
O	-0.0950973499	-0.0064342943	 0.155460317	-0.387334
C	-0.0583755534	 1.205522626	 0.1405754196	 0.364806
N	-1.130523764	 2.0525390765	 0.1937831914	-0.319596
C	-0.8047153991	 3.4606271746	 0.0432956693	-0.173518
C	 0.7050930723	 3.484414228	 0.3760135111	-0.306804
C	 1.1959863499	 2.0747469776	 0.0325007615	 0.171988
C	 2.4708092487	 1.5243627728	 0.7016568278	-0.120989
O	 3.1782105079	 1.4678195736	-0.5531155768	-0.271668
C	 2.0035260654	 1.8607613845	-1.2801076848	-0.109378
H	-2.0682411663	 1.6881714997	 0.1340595922	 0.253866
H	-0.9996081823	 3.8147627352	-0.9788371434	 0.111448
H	-1.3904544578	 4.0818821721	 0.7275979799	 0.118564
H	 1.2365328667	 4.2734454495	-0.1607106577	 0.115753
H	 0.837746429	 3.6642884851	 1.4483771525	 0.117976
H	 2.9570629064	 2.1957068618	 1.4203781486	 0.096315
H	 2.339115768	 0.5298084621	 1.1433723598	 0.124395
H	 1.6270746337	 1.0528073879	-1.9191166349	 0.117004
H	 2.1687776749	 2.7625108673	-1.8839227629	 0.097172
