14
gdb 24410	3.85227	1.66316	1.17013	5.4471	69.29	-0.2034	-0.0071	0.1963	957.608	0.105086	-432.906612	-432.900044	-432.8991	-432.938226	24.698	
C	-0.015602722	 1.5095435884	 0.1298291585	-0.177763
O	 1.2494745085	 2.0273955725	-0.3417886582	-0.240005
C	 2.2455302971	 1.2069406188	-0.7724445267	 0.12192
N	 2.2738118071	-0.0618192686	-0.8445090059	-0.338007
C	 1.0971890395	-0.6728938252	-0.4116867895	 0.282964
C	 0.0139176778	 0.0248452825	 0.04718181	 0.229016
N	-0.9247284264	-0.9228005635	 0.3704323417	-0.350111
C	-0.3561338902	-2.1408106309	 0.0887908	-0.002775
N	 0.8626487146	-2.0247338014	-0.3843463015	-0.309694
H	-0.1556160919	 1.8860687675	 1.1541229061	 0.123847
H	-0.8013461954	 1.9648165841	-0.4913802765	 0.12384
H	 3.0949617907	 1.8115998078	-1.0769957132	 0.133934
H	-1.8482636811	-0.7682422396	 0.7405644171	 0.267934
H	-0.8873372684	-3.0659772423	 0.253108228	 0.134898
