20
gdb 107969	2.69985	1.39282	1.34348	1.4429	79.37	-0.24	0.0743	0.3142	1098.7666	0.170202	-403.06197	-403.053424	-403.052479	-403.094899	33.283	
C	-0.0561989774	 1.53319094	-0.010797537	-0.381552
C	 0.0075002442	 0.0013864942	-0.0452772328	-0.320953
C	 0.6378367061	-0.5305586912	-1.3017363072	 0.351534
C	 0.2525368951	-0.2865348613	-2.7724577982	-0.316454
C	 1.5608069081	-1.0754616987	-2.8214195937	-0.071199
N	 2.1495792924	-0.2862127273	-1.6331284693	-0.183504
C	 2.5252081597	-1.5880249375	-0.9315708327	-0.257324
C	 1.1941701501	-1.9573600647	-1.580314158	 0.302699
O	 0.42930937	-3.108985435	-1.5046211664	-0.471943
H	 0.944588387	 1.9628848671	-0.1106569774	 0.136669
H	-0.6702143809	 1.9226804401	-0.8291412347	 0.118014
H	-0.4905702134	 1.8848421186	 0.9295906045	 0.110905
H	 0.5681406218	-0.3687608343	 0.8221417067	 0.103134
H	-1.0006559459	-0.4240875578	 0.0383717089	 0.111514
H	-0.6438681182	-0.7972003598	-3.1309712752	 0.105852
H	 0.3008739726	 0.7479408919	-3.122174363	 0.10502
H	 2.1977998048	-1.3349126729	-3.6691204537	 0.076355
H	 3.4399972574	-2.0413584993	-1.3286711338	 0.094123
H	 2.5764968818	-1.5077049032	 0.1583301397	 0.103847
H	 0.9349694449	-3.842493569	-1.8721465165	 0.283263
