10
gdb 148	14.7497	3.94953	3.42803	3.2517	40.77	-0.2555	-0.0013	0.2542	383.6013	0.079595	-247.192524	-247.187626	-247.186682	-247.22031	16.197	
O	 0.1187092073	 0.0583466843	-0.2399097795	-0.281297
C	 0.092307929	 1.2269551757	 0.0555876736	 0.140761
N	 1.1703379325	 1.9456088998	 0.5475196916	-0.050011
C	 2.5138543811	 1.8187559902	 0.0370699209	-0.209996
C	 1.7533640679	 3.1079184567	-0.0976265635	-0.226877
H	-0.8274406609	 1.8426206433	 0.0276183046	 0.085561
H	 3.2999957883	 1.7363704256	 0.781619353	 0.133359
H	 2.6468802841	 1.2064193009	-0.8505264931	 0.142285
H	 1.3892000629	 3.375258836	-1.0867839591	 0.133787
H	 1.9860141977	 3.9475352875	 0.5511815315	 0.132429
