21
gdb 95686	2.52598	1.37866	1.0698	2.9425	78.05	-0.2656	-0.003	0.2627	1210.0346	0.183358	-424.27022	-424.261353	-424.260409	-424.30391	33.744	
C	 0.666774568	 1.5948830219	 0.0463012246	-0.408753
C	 0.0212662617	 0.2036754979	-0.000210737	 0.036035
C	 0.4260605812	-0.5619998128	-1.2830361601	-0.204756
C	-0.3586050156	-1.8673721892	-1.5584156233	-0.207543
C	 0.1695505575	-3.1241758562	-0.8221721426	-0.301014
C	 0.7275801875	-2.7443752328	 0.5285779223	 0.403794
O	 1.8022595732	-3.0523405199	 0.9612097187	-0.311702
O	-0.1330906036	-1.910059028	 1.2026167737	-0.251294
C	 0.3472570071	-0.5589391251	 1.2905482904	-0.099779
H	 1.7605634054	 1.5227843437	 0.0427511857	 0.121171
H	 0.3698860541	 2.1951950864	-0.8190902532	 0.117915
H	 0.3732522798	 2.1428782394	 0.9480682568	 0.116198
H	-1.0699543481	 0.3289894129	-0.0331329527	 0.080331
H	 0.2638665266	 0.1172102701	-2.1279743825	 0.097917
H	 1.5066399045	-0.7655934209	-1.2699133067	 0.106645
H	-1.409060223	-1.7056116227	-1.2965009746	 0.110509
H	-0.3364126557	-2.0774964015	-2.6327697102	 0.102897
H	-0.6421613173	-3.8485666164	-0.6898623411	 0.130826
H	 0.9669790481	-3.6207579859	-1.3801816444	 0.126518
H	 1.4259519276	-0.5711177972	 1.4901556718	 0.119836
H	-0.1543943089	-0.1062464937	 2.1496295644	 0.114249
