18
gdb 15120	6.94163	0.8039	0.77889	4.5321	73.21	-0.2431	0.0247	0.2677	1449.8915	0.154261	-343.96806	-343.959452	-343.958508	-344.002317	30.516	
N	-0.0469939845	-0.9793759766	-0.2638083495	-0.299331
C	 0.240841482	 0.0895810962	 0.0654922184	 0.262117
C	 0.6381502201	 1.4371684863	 0.486636086	-0.270533
N	 0.6694908327	 2.3486588345	-0.6507459393	-0.282468
C	 0.9826157686	 3.7353121576	-0.2968722518	-0.18159
C	 2.3804123031	 3.998481669	 0.2343069211	 0.020326
C	 3.5348901507	 4.1219062199	-0.7315377398	-0.261441
C	 3.0286676148	 5.3392815518	 0.0005455364	-0.269585
H	-0.1050159024	 1.8041168257	 1.2060358041	 0.154784
H	 1.5887050685	 1.3429723187	 1.0403388285	 0.133581
H	 1.3380827205	 2.0101182669	-1.3358923596	 0.230662
H	 0.8246546187	 4.340863282	-1.1975581249	 0.106797
H	 0.2330904387	 4.0662595495	 0.4340703485	 0.109834
H	 2.608696808	 3.5300075852	 1.1881868013	 0.085241
H	 4.4966642272	 3.7101960966	-0.4470716825	 0.116832
H	 3.3191652752	 4.0475256022	-1.7933108739	 0.112366
H	 2.4724077264	 6.0766836003	-0.569387514	 0.115443
H	 3.6415896717	 5.7607896543	 0.7891517608	 0.116965
