17
gdb 106858	2.16073	1.62037	1.12047	3.6598	75.46	-0.2237	0.0056	0.2293	1114.5958	0.135809	-417.9549	-417.946341	-417.945397	-417.988462	31.529	
C	-0.6684205369	 0.6642069761	 0.1492354845	-0.268667
O	 0.7102156014	 0.5058197931	-0.149256439	-0.265039
C	 1.0371402976	-0.3333592297	-1.1746683459	 0.361607
C	 0.1664715856	-0.8180372287	-2.2899213055	-0.372627
C	 0.8859716928	-1.863123538	-1.4475817904	 0.153171
N	 2.2837448443	-1.9420161233	-1.9354410243	-0.360646
C	 2.5098737051	-0.5100592108	-1.5232561623	-0.230939
C	 0.2328536564	-2.914083922	-0.7539507617	 0.181924
N	-0.2870156364	-3.7646159968	-0.1619121866	-0.361136
H	-1.2147227902	 1.1132906341	-0.6894770043	 0.125457
H	-1.1347084817	-0.2930976045	 0.4153038472	 0.138704
H	-0.7179173081	 1.3343652682	 1.008623174	 0.142979
H	-0.9010540401	-0.7655240939	-2.1064708977	 0.139524
H	 0.4633458433	-0.7136894279	-3.331533952	 0.131305
H	 2.8272220399	-2.5629813925	-1.3430097517	 0.238154
H	 2.9093744972	 0.1233521011	-2.3209502956	 0.118214
H	 3.1315819299	-0.4169361545	-0.6289786586	 0.128015
