19
gdb 122855	3.26121	0.89584	0.74457	3.8318	70.04	-0.2439	-0.0007	0.2432	1534.3288	0.156875	-497.313422	-497.303146	-497.302201	-497.350125	35.159	
C	-0.6449788405	 1.1677023297	-0.4543075318	-0.242091
O	-0.3539315216	-0.2088455572	-0.1618030134	-0.224973
C	-1.4115777447	-0.9799857733	 0.123462694	 0.419899
O	-2.5517160005	-0.5852400578	 0.1401806629	-0.343809
C	-0.9594270887	-2.4052813544	 0.4406281254	-0.202427
O	-2.0284468132	-3.2485942351	 0.7321879754	-0.234357
C	-2.6849320336	-3.8528793179	-0.3857427398	-0.093777
C	-4.1869127047	-3.7875767104	-0.153131276	-0.038737
O	-4.7053336339	-2.4887397806	-0.2989307603	-0.433964
H	 0.3169014519	 1.6343615769	-0.6641504367	 0.139959
H	-1.3065002202	 1.2422109545	-1.3204511265	 0.148865
H	-1.1262946734	 1.6468437669	 0.4014698566	 0.147685
H	-0.3316909388	-2.7656593292	-0.3873191446	 0.126032
H	-0.3153269485	-2.3553761462	 1.3266777823	 0.145135
H	-2.4399463312	-3.3230588188	-1.3155903073	 0.100792
H	-2.3482920551	-4.895954496	-0.4776414781	 0.096693
H	-4.6887647017	-4.4256746846	-0.8910115464	 0.096635
H	-4.3960011582	-4.2102719498	 0.8442757359	 0.089899
H	-4.0925176732	-1.8721477668	 0.1295845484	 0.302543
