21
gdb 40160	3.56251	1.22509	1.0983	1.3753	83.37	-0.2113	0.0835	0.2948	1201.9101	0.182599	-387.07021	-387.061945	-387.061001	-387.104557	33.019	
C	-0.1978851914	 1.4099516092	-0.1128496737	-0.325812
C	 1.2224417289	 0.8716968205	 0.0026871586	-0.338188
C	 0.0611909755	-0.0620350024	 0.0681842533	 0.46473
C	-0.3723210415	-0.835064827	 1.2995801157	-0.30079
C	-1.5105644232	-1.6950199294	 0.7229500958	-0.304224
C	-0.999630931	-1.9703584387	-0.6818749765	 0.46329
C	-0.6096962278	-3.3382258904	-1.1683799878	-0.325756
C	-1.8030169362	-2.6066146622	-1.7686779663	-0.335389
O	-0.1490386178	-0.8980343198	-1.0547650314	-0.337701
H	-0.6060165647	 1.9783111634	 0.7169137993	 0.106475
H	-0.5243343691	 1.7317332592	-1.0953074205	 0.118965
H	 1.8188476309	 0.8479687499	-0.9025268775	 0.12254
H	 1.7830098675	 1.0693183896	 0.9107349638	 0.110871
H	 0.4445706059	-1.4726667885	 1.6569644354	 0.108346
H	-0.6851204686	-0.1863537069	 2.1205563223	 0.102535
H	-1.7004943283	-2.609058999	 1.2897144976	 0.103277
H	-2.4409933228	-1.1168745536	 0.6853049266	 0.108761
H	 0.2857974052	-3.4032448599	-1.7761688188	 0.119609
H	-0.794249791	-4.1958269466	-0.5291758092	 0.106938
H	-2.8025297958	-2.9615466649	-1.5380366352	 0.109897
H	-1.6843367745	-2.2004439724	-2.7669969012	 0.121626
