18
gdb 86129	2.38547	1.52784	0.9899	4.4923	73.24	-0.2317	-0.0913	0.1404	1197.6147	0.146032	-439.115524	-439.106365	-439.105421	-439.149568	33.408	
C	-0.1651810887	 1.652895297	 0.1163543546	-0.39579
C	 0.1135870292	 0.1590215026	 0.0053901017	-0.076501
N	 1.135464436	-0.1729636148	-0.9974859619	-0.336586
C	 1.6830056114	-1.508149648	-0.7187618063	-0.076502
C	 3.0416865197	-1.7536576438	-1.3632848842	-0.395789
C	 1.7153809114	-1.5297483273	 0.8044636189	 0.329468
O	 2.3706508001	-2.2338548504	 1.5220225157	-0.283812
C	 0.6990944124	-0.450113405	 1.2734115104	 0.329465
O	 0.4385801749	-0.181321232	 2.4135493166	-0.283807
H	 0.768484901	 2.2001648327	 0.2695637281	 0.133598
H	-0.6418843484	 2.0309842824	-0.7929704185	 0.115688
H	-0.8295563256	 1.8437488773	 0.963229748	 0.140008
H	-0.8429752442	-0.3772722868	-0.1665433748	 0.091566
H	 0.7832675927	-0.0934763774	-1.9437885791	 0.228134
H	 0.9891661713	-2.3235080727	-1.0119381342	 0.091567
H	 3.7347596022	-0.9508177251	-1.0990730509	 0.133598
H	 3.4518179806	-2.7041998779	-1.0121706778	 0.140008
H	 2.9569014239	-1.7918768608	-2.4534313862	 0.115689
