21
gdb 78098	2.62734	1.14832	0.93903	3.247	84.46	-0.2435	-0.0183	0.2252	1332.5823	0.18087	-387.079776	-387.070349	-387.069405	-387.114045	35.195	
C	-0.0250235034	 1.5699616488	 0.0515700789	-0.421423
C	 0.0713488756	 0.0594060751	 0.1015475394	-0.056489
C	 1.2928735434	-0.7573573877	-0.2458862148	-0.132215
C	 2.5836397	-0.068367482	 0.23549216	-0.078077
C	 1.9931209498	-0.0767171381	 1.6929777514	-0.32356
C	 0.7179614854	-0.7642339199	 1.1840944447	 0.347869
C	-0.0024257966	-1.8438518813	 1.9407259973	-0.499001
C	 3.7938095177	-0.9539424519	 0.123701601	 0.159049
O	 4.8404814189	-0.6401011671	-0.3824448291	-0.260719
H	 0.8768294603	 2.0626982646	 0.422836437	 0.122847
H	-0.1876830898	 1.914009153	-0.9756175096	 0.121893
H	-0.8662115905	 1.9246511953	 0.6571978932	 0.118056
H	-0.8292750214	-0.429849667	-0.2682106164	 0.085778
H	 1.2604070149	-1.5317514527	-1.0050053952	 0.088383
H	 2.8184428878	 0.9041594523	-0.2040575987	 0.087228
H	 2.5719189899	-0.7247341566	 2.3585212904	 0.108314
H	 1.8850408014	 0.8990643459	 2.1752820669	 0.105857
H	-0.5378462039	-1.432946108	 2.8056541354	 0.12212
H	-0.7399610793	-2.3474179179	 1.3072733002	 0.120004
H	 0.6928455614	-2.6044142219	 2.3149196085	 0.116661
H	 3.6515961084	-1.9705729728	 0.5644209296	 0.067425
