21
gdb 41155	2.78239	1.83026	1.39494	1.9342	80.9	-0.2386	0.0795	0.318	995.3633	0.186418	-387.065227	-387.058375	-387.057431	-387.095969	29.548	
C	 0.0277635754	 1.5374717456	-0.1409658796	-0.154536
O	 1.469725285	 1.5365533592	 0.0774034813	-0.352763
C	 1.3643446839	 0.2670560612	 0.7314838109	 0.486146
C	 2.2412730677	-0.989916699	 0.6772097428	-0.305561
C	 1.4242491662	-1.3823748531	 1.9648762573	-0.014596
C	 1.3545595865	 0.1404811332	 2.2711861407	-0.297173
C	 0.0015743963	-1.9156387696	 1.6416987084	-0.202436
C	-0.9091101316	-0.8106599197	 1.0235351485	-0.259414
C	-0.0126534087	 0.0147649139	 0.1080750517	-0.032692
H	-0.4882619945	 2.1412832633	 0.6181226597	 0.097568
H	-0.2340128619	 1.9021178926	-1.1384619839	 0.105835
H	 2.1646820759	-1.6211247048	-0.2130228703	 0.08898
H	 3.2917925059	-0.8165111566	 0.9278659009	 0.101209
H	 1.938170088	-2.0245962786	 2.6812632549	 0.069512
H	 2.2916687013	 0.5095069221	 2.6958928575	 0.100182
H	 0.5131021307	 0.5360439004	 2.8444200738	 0.091187
H	 0.0811954489	-2.7642716447	 0.9510726647	 0.099831
H	-0.4616069802	-2.3029464702	 2.5558860289	 0.098369
H	-1.7592512258	-1.2571747426	 0.4991277248	 0.093951
H	-1.3272500145	-0.1865113857	 1.819893906	 0.104083
H	 0.1259588055	-0.4979139169	-0.850212799	 0.082319
