19
gdb 96430	2.83792	1.33613	1.06711	1.8357	71.2	-0.2581	-0.0343	0.2238	1153.3605	0.158823	-460.172259	-460.163607	-460.162663	-460.205767	31.97	
C	-0.2553211435	 1.4477097159	-0.070836861	-0.405234
C	 0.057345286	-0.0402854505	 0.1325651183	-0.002704
C	 0.7120054812	-0.6583351294	-1.1137041163	-0.104245
O	 2.0241186167	-0.1356817564	-1.3059265113	-0.233726
C	 2.8338497085	-0.3803729123	-0.1930386894	 0.019759
O	 2.333301502	 0.207976455	 0.9856859873	-0.25851
C	 1.0406111509	-0.2913455875	 1.2943644923	 0.01969
C	 0.6291495884	 0.3110109388	 2.6269876113	 0.134811
O	-0.4976302189	 0.2937077484	 3.0480624226	-0.249664
H	 0.6593797028	 2.0129419819	-0.2645776627	 0.137403
H	-0.9233403236	 1.581605514	-0.9273349615	 0.11327
H	-0.7499439365	 1.8702289813	 0.8070239287	 0.133448
H	-0.8677103349	-0.5835263111	 0.355372096	 0.094778
H	 0.760905752	-1.7558672116	-1.0144880301	 0.089995
H	 0.1507778249	-0.4210799984	-2.0211759767	 0.115247
H	 2.9421525164	-1.4715156991	-0.0355593151	 0.078954
H	 3.8059258996	 0.0750749416	-0.3894833182	 0.123898
H	 1.1037721532	-1.3848628591	 1.4651976372	 0.094068
H	 1.4756971747	 0.7534208282	 3.1964712488	 0.098761
