15
gdb 4028	2.35024	2.04033	1.13753	6.1903	67.55	-0.1725	-0.0351	0.1374	992.4534	0.117945	-433.071644	-433.062903	-433.061959	-433.104759	31.735	
N	-0.325081338	 1.2024903412	-0.4703584674	-0.554929
C	-0.1782116562	-0.0798917631	-0.0826624711	 0.382151
N	 1.081832356	-0.5903081068	-0.0065264041	-0.538402
H	 1.0697893726	-1.5875310603	 0.1833987507	 0.272552
H	 1.7553748359	-0.2774831494	-0.6896012225	 0.251915
C	-1.2939319423	-0.8520243557	 0.2723244648	 0.197226
C	-2.6614497625	-0.2549058232	 0.4320233033	-0.211881
O	-3.0603539499	 0.5749373772	-0.6827569185	-0.424438
N	-1.0214733191	-2.1790526854	 0.4561122484	-0.099222
O	-1.9556921994	-2.9229272598	 0.7971276456	-0.364743
H	 0.4672510668	 1.8032147874	-0.6126095949	 0.260891
H	-1.2627657018	 1.5180359003	-0.6857699716	 0.285442
H	-3.3613071683	-1.0814393594	 0.5914640142	 0.138741
H	-2.7188209589	 0.4149974563	 1.2971097566	 0.117754
H	-3.1173585949	 0.0004220608	-1.4544267136	 0.286945
