18
gdb 23067	4.44399	1.11709	1.04255	1.7605	80.7	-0.2227	0.0301	0.2528	1191.8004	0.147082	-401.858068	-401.85002	-401.849076	-401.890319	31.664	
C	-0.003438321	 1.4400941747	 0.0354403888	-0.504619
C	-0.0254818562	-0.0581197104	-0.0280076406	 0.331209
C	-1.2423512775	-0.9623810581	-0.2638130481	-0.27795
C	-0.3368806427	-2.1403044583	 0.2062065012	-0.17054
C	 0.5996201546	-1.0581645039	 0.8984535749	-0.121076
C	 1.2165127675	-0.8620106328	-0.4948960996	-0.208314
C	 0.7226178599	-2.2026265118	-0.8846347711	 0.496158
N	 1.1884465893	-3.0664537182	-1.6846319018	-0.314847
O	 0.4454104035	-4.2726750141	-1.6078526305	-0.405274
H	 0.9741619698	 1.8103433029	 0.3617117404	 0.12241
H	-0.2169776481	 1.88154561	-0.9444904538	 0.127008
H	-0.753640674	 1.8122874268	 0.742107632	 0.122208
H	-2.0330184852	-0.7467479537	 0.4615109386	 0.100155
H	-1.666520385	-1.0290744943	-1.2718379402	 0.101813
H	-0.7414840471	-3.04331159	 0.6511465124	 0.097657
H	 1.0674826276	-0.9995355537	 1.8701505727	 0.102776
H	 2.1435157107	-0.3717352095	-0.7572543553	 0.098714
H	 0.913335594	-4.8293118356	-2.2384657897	 0.302511
