18
gdb 110807	2.39377	1.38125	1.05747	4.2332	75.92	-0.2608	-0.003	0.2578	1188.8789	0.147212	-401.913839	-401.905276	-401.904332	-401.947505	31.601	
C	-0.0970435391	 1.5602074601	-0.1931745032	-0.381671
C	 0.0054889565	 0.0813454188	 0.1993518036	-0.215314
C	-1.3425835376	-0.6083088588	 0.1466645117	-0.014492
C	-1.9058964538	-1.2833463656	-1.0606386296	 0.079181
O	-0.8756000408	-1.9452724201	-1.8193884536	-0.285118
C	-0.6552375488	-2.8704591764	-0.7286146685	-0.015931
C	 0.7506343485	-3.0339346843	-0.3430534498	 0.286646
N	 1.848741065	-3.2027770473	-0.0250978788	-0.323479
C	-1.6157051591	-2.1038638956	 0.1830817387	-0.189068
H	 0.8821769804	 2.0451541664	-0.1454047884	 0.120072
H	-0.477000079	 1.6709270705	-1.2140285007	 0.122638
H	-0.7724711647	 2.1057303034	 0.4754055135	 0.112189
H	 0.7057801115	-0.4238962917	-0.4703179837	 0.130889
H	 0.4187645431	-0.0098437463	 1.2105965347	 0.108714
H	-2.1254768252	-0.0902402439	 0.7016683574	 0.098025
H	-2.8229511901	-1.043368026	-1.5847912738	 0.115333
H	-1.0541515707	-3.856571121	-0.9956478824	 0.136164
H	-2.2766728059	-2.575184832	 0.8967900827	 0.115222
