18
gdb 37230	4.0739	1.36132	1.20405	2.4041	74.7	-0.2252	0.0531	0.2783	1048.5321	0.148205	-401.823798	-401.816652	-401.815708	-401.855335	28.635	
C	 0.012127548	 1.4855492946	 0.0020064	-0.304848
C	 1.3625646683	 0.8206530651	-0.0149978285	-0.070945
C	 0.1087484293	-0.0138457263	 0.0823483281	-0.003173
N	 0.4146240124	-0.7878585035	-1.1869371141	-0.199846
C	 1.6448826832	 0.0932672794	-1.3406008065	-0.126379
C	 0.5656862598	 0.1027195062	-2.3421961256	 0.29292
C	 0.6572091137	-0.5148048318	-3.7361182756	-0.145043
O	-0.1998771673	 0.5164263721	-4.2738495671	-0.283577
C	-0.3614017219	 1.1385815663	-2.9861751486	-0.163565
H	-0.2329236178	 1.9356122947	 0.9601136652	 0.119602
H	-0.39231345	 2.0312735638	-0.8393899984	 0.125287
H	 2.1275997056	 1.0061773572	 0.7262666959	 0.100238
H	-0.2994302967	-0.5853365482	 0.9054842308	 0.108059
H	 2.6119731496	-0.3539478475	-1.5548969096	 0.100094
H	 1.6495482135	-0.5098672442	-4.2040188186	 0.105511
H	 0.2144513701	-1.5144721774	-3.8152658626	 0.117605
H	-1.4021423689	 1.1079114147	-2.6394488151	 0.115965
H	-0.0046260407	 2.1763658947	-2.9858794797	 0.112096
