22
gdb 114626	3.33632	1.00154	0.89545	2.5909	81.66	-0.2362	0.072	0.3081	1405.5657	0.194398	-404.304694	-404.295356	-404.294412	-404.338884	35.413	
C	 0.2234705814	 1.6450586005	 0.0573708489	-0.380736
C	-0.0788729426	 0.142649522	 0.0364418111	-0.20206
C	 0.5578994433	-0.5694301122	-1.153720627	-0.052406
C	 2.0986307753	-0.7721537332	-1.2228349076	-0.178669
N	 1.9598384831	-2.253651269	-1.4704179313	-0.18656
C	 1.2808575668	-2.7891613601	-0.2704531376	-0.276739
C	 0.4548587592	-2.0951328133	-1.2773420056	 0.280366
C	-0.4625226308	-2.8456377544	-2.214559891	-0.155882
O	 0.1054400131	-4.0834676241	-2.5911306154	-0.417328
H	 1.3015080215	 1.83329071	 0.1108090598	 0.11904
H	-0.152895454	 2.1370289425	-0.8463524402	 0.116185
H	-0.2410219033	 2.1317865989	 0.9201023039	 0.11575
H	 0.2685751538	-0.3134587877	 0.9713266944	 0.096575
H	-1.1652907785	-0.0131873672	 0.006484247	 0.09975
H	 0.2055909963	-0.1032440057	-2.0811629646	 0.076877
H	 2.5845833703	-0.2885309742	-2.0719566655	 0.111857
H	 2.6628765944	-0.5413165531	-0.3117777447	 0.102488
H	 1.232214877	-3.8727003004	-0.268068785	 0.13275
H	 1.4912633245	-2.3334779233	 0.6942617301	 0.109513
H	-1.424335234	-3.0652929205	-1.7354420242	 0.110904
H	-0.6710729507	-2.2130713369	-3.0946400407	 0.083761
H	 1.0305066138	-3.8902639286	-2.8009998249	 0.294562
