18
gdb 47606	2.32621	1.90164	1.14733	5.3834	71.85	-0.2321	0.0171	0.2492	1054.2762	0.150633	-439.104019	-439.09643	-439.095485	-439.136583	28.937	
O	 0.0071921834	-0.0496059468	 0.161157782	-0.371084
C	-0.0288269813	 1.1608703217	 0.0624700328	 0.379502
N	-1.1970545132	 1.8658142128	-0.0133556397	-0.312465
C	-1.325691265	 3.3178093276	-0.0578772267	-0.160045
C	-0.2026176186	 3.963942153	 0.7561121464	-0.222119
C	 1.15575286	 3.5294735403	 0.2050010398	-0.070489
C	 2.2663970374	 3.2743758647	 1.2443259451	-0.088364
O	 2.0898588848	 1.843863954	 1.1431799622	-0.280503
C	 1.2436030308	 2.0009255296	-0.0175448342	 0.036302
H	-2.0309657035	 1.2967334002	-0.0112740426	 0.249098
H	-1.3047083813	 3.6876985534	-1.0943997493	 0.110186
H	-2.3025476105	 3.5869345055	 0.3551484772	 0.117101
H	-0.3037711611	 5.053772242	 0.7405880846	 0.106178
H	-0.303652518	 3.637281569	 1.7976406186	 0.119166
H	 1.441176101	 4.1358588422	-0.6577326771	 0.080355
H	 3.2708108291	 3.5823909288	 0.925196406	 0.101531
H	 2.0839416593	 3.6402776939	 2.2615116572	 0.106564
H	 1.7739101066	 1.706538868	-0.9340904822	 0.099086
