21
gdb 13809	3.68509	1.13068	0.99949	2.1737	75.01	-0.2466	0.0723	0.3189	1259.1067	0.188005	-366.23928	-366.229763	-366.228819	-366.273878	34.722	
C	 0.6918904265	 0.9862423232	-0.0233876361	-0.391451
C	 0.0658422469	-0.1094464043	 0.8512455918	 0.032846
C	-0.1673912041	 0.377287946	 2.2880610991	-0.390639
C	-1.2328447046	-0.5873297301	 0.2287387009	-0.002431
N	-1.1466496704	-1.525936951	-0.9031572	-0.359529
C	-1.8054400496	-1.9564708747	 0.3502379913	-0.046055
C	-1.1368779941	-3.1269834828	 1.0346767256	-0.065473
O	-1.2581638961	-4.3025927195	 0.250677567	-0.423576
H	 1.6526110622	 1.3158019946	 0.3851333266	 0.110389
H	 0.8596079991	 0.6202620382	-1.0405729936	 0.125093
H	 0.0377073069	 1.864894253	-0.08174499	 0.107022
H	 0.7623008506	-0.9547486338	 0.8735555438	 0.081268
H	-0.5804515451	-0.4160167281	 2.9193636063	 0.115642
H	 0.7681457197	 0.7186681769	 2.7424	 0.114079
H	-0.8703107265	 1.2188879153	 2.3088597607	 0.111627
H	-1.9760254191	 0.2077156342	 0.1382021005	 0.07688
H	-1.8390741309	-1.3016614787	-1.611736608	 0.232418
H	-2.8919631389	-2.0281702302	 0.3263458997	 0.087099
H	-0.0827152306	-2.8996090342	 1.2447094726	 0.090465
H	-1.6281066849	-3.3395861228	 1.9902238893	 0.105983
H	-0.902917667	-4.071520761	-0.6162456374	 0.288342
