21
gdb 79564	2.26025	1.70916	1.27454	1.3168	82.63	-0.1969	0.0768	0.2737	1100.1975	0.180931	-387.018587	-387.009474	-387.008529	-387.051556	35.904	
C	 0.0148546139	 1.5611901951	 0.0824042437	-0.491527
C	-0.0041982761	 0.0589224272	 0.0354324179	 0.299908
C	-0.9362938851	-0.7634939981	 0.890738873	-0.357957
C	 0.5588489965	-0.938189562	 1.0298999367	-0.109071
C	 1.232542536	-1.7413897236	-0.1065893231	-0.177939
C	 0.3471952887	-2.1895994113	-1.2377078748	 0.032405
O	-0.9360514909	-2.7543960225	-1.1681504188	-0.419182
C	 0.6657454426	-0.7319530031	-1.1455081167	 0.246324
C	 1.3726561918	-0.0040137522	-2.2576113031	-0.490516
H	 1.0062138377	 1.9728861656	-0.1368117537	 0.114026
H	-0.6908324517	 1.9970567099	-0.6359634141	 0.118617
H	-0.2737961434	 1.9123821684	 1.0784512039	 0.115681
H	-1.3756378048	-0.1898605642	 1.7038209978	 0.097354
H	-1.5720827029	-1.5319992884	 0.4789582647	 0.134683
H	 1.0773995006	-0.7292023164	 1.9576199607	 0.082565
H	 2.2498483186	-2.1077559407	-0.0195981246	 0.079683
H	 0.9514560046	-2.6489689015	-2.026179434	 0.083676
H	-0.8506084506	-3.6125263423	-0.7378303828	 0.284066
H	 0.6586149642	 0.5070934667	-2.9154032224	 0.123006
H	 2.0680357484	 0.7513704431	-1.8762276707	 0.118772
H	 1.9489711418	-0.7010385093	-2.8739533495	 0.115425
