19
gdb 13429	3.76741	1.29953	1.14413	1.4723	77.44	-0.2171	0.0535	0.2707	1114.1976	0.162806	-327.858995	-327.84959	-327.848646	-327.893215	33.951	
C	 0.0208250197	 1.5710123725	 0.6960667312	-0.415034
C	 0.0674108236	 0.1013500983	 0.3312082371	-0.013135
C	 0.2371757522	-0.4045543726	-1.0682083971	-0.000662
C	 0.3746853941	 0.5289456784	-2.268341775	-0.386287
C	 1.1103401625	-0.0868935781	-3.3696003824	 0.30741
C	 1.7128600917	-0.6124535458	-4.2669645714	-0.445274
N	 1.2888029203	-0.6011677591	-0.073901577	-0.094522
C	 2.5596988542	 0.0992682964	-0.1776633965	-0.31762
H	 0.5854851862	 2.213079798	 0.0179272293	 0.119137
H	-1.0170839974	 1.9210299831	 0.6952459512	 0.124152
H	 0.4177932648	 1.7267748314	 1.7052694161	 0.125077
H	-0.5552384985	-0.5053098675	 0.9900935506	 0.087686
H	-0.2694749914	-1.3311830504	-1.3374665316	 0.095317
H	-0.6335004036	 0.7967451103	-2.6119399725	 0.134762
H	 0.8577142355	 1.4709535565	-1.9938368216	 0.129299
H	 2.2468921621	-1.0703553728	-5.0621214473	 0.195902
H	 2.5090485181	 1.1476257573	-0.5053836932	 0.096348
H	 3.0479456231	 0.081684954	 0.802083211	 0.121801
H	 3.1976678729	-0.4397101999	-0.884240631	 0.135643
