20
gdb 78101	2.79172	1.2589	1.045	4.2737	81.81	-0.2298	0.0275	0.2573	1225.9432	0.17001	-403.144214	-403.135013	-403.134068	-403.178158	34.079	
C	 0.2917769884	 1.5935418082	 0.0141766559	-0.435645
C	 0.2001081925	 0.0856011418	 0.0832300663	-0.061134
C	 1.3516176885	-0.8604926103	-0.1673569552	-0.097437
N	 2.589274019	-0.3430398616	 0.3973522105	-0.030815
C	 2.0439135516	-0.2602610706	 1.7608465989	-0.240739
C	 0.6983132062	-0.7889006487	 1.2171718154	 0.286959
C	-0.1519525692	-1.7908059091	 1.9417227477	-0.496249
C	 3.5861935076	 0.3888819636	-0.1594901817	 0.132846
O	 4.3876680459	 1.0523222729	 0.4658780206	-0.334489
H	 1.2572885714	 1.9666501328	 0.3645571861	 0.143637
H	 0.1588613416	 1.9414292316	-1.0157683952	 0.122904
H	-0.4874578431	 2.0599453395	 0.6263365487	 0.122456
H	-0.7257316076	-0.316684268	-0.3273218908	 0.091295
H	 1.3581278849	-1.6534848767	-0.9066505242	 0.106598
H	 2.5352061239	-0.9612373805	 2.4433869592	 0.121654
H	 2.0663425595	 0.7430252119	 2.1970670005	 0.126135
H	-0.6735987283	-1.3283953397	 2.7883359834	 0.127316
H	-0.9138140727	-2.2146270625	 1.2799647713	 0.123251
H	 0.450262987	-2.6177043753	 2.3344851106	 0.123981
H	 3.6088302831	 0.2772566806	-1.2636927478	 0.067473
