17
gdb 51777	2.59922	1.09375	0.82181	4.5886	69.9	-0.2463	-0.0427	0.2036	1348.9611	0.132818	-458.950671	-458.941316	-458.940372	-458.987226	31.274	
O	-0.1225426405	-0.0023993613	-0.2327688666	-0.239911
C	 0.0407152976	 1.1884056987	-0.1522618723	 0.152956
C	 1.3972890639	 1.8659167667	-0.1366135328	-0.287255
C	 1.5062350783	 2.8744264726	-1.2780585955	 0.118313
O	 0.5274670377	 3.9382070726	-1.1610182793	-0.285919
C	 1.5258751368	 4.9665718392	-1.2713251309	-0.085239
C	 2.6604519423	 3.91233661	-1.324596536	-0.174605
C	 3.6929888363	 3.9936011086	-0.2287937868	 0.141524
O	 4.048082597	 3.0852205119	 0.4764899254	-0.233806
H	-0.8224474989	 1.8851087354	-0.0825518866	 0.096455
H	 1.5099247608	 2.3886160191	 0.8198683979	 0.126508
H	 2.1805619843	 1.10874151	-0.2122506833	 0.136221
H	 1.3864721321	 2.3536402276	-2.2375028624	 0.095912
H	 1.4022790851	 5.5708819896	-2.1772436915	 0.115612
H	 1.5327290625	 5.6317369639	-0.3980719266	 0.113144
H	 3.2095420563	 3.9172445569	-2.272996569	 0.121277
H	 4.1412760885	 5.0099884185	-0.1231407638	 0.088813
