16
gdb 98125	3.67304	0.92297	0.75449	5.6119	70.69	-0.2564	-0.0627	0.1937	1450.0864	0.123954	-471.249464	-471.239999	-471.239055	-471.28456	32.595	
C	-0.5601827449	 1.2472696652	-0.6733958379	-0.314571
N	-0.2736525222	-0.1674397381	-0.8875944912	-0.341296
C	 1.0468586521	-0.5807559188	-0.8087300338	 0.266185
N	 2.0081705182	 0.2411215589	-0.66861103	-0.494949
C	 1.297229907	-2.0797809992	-0.9824167035	 0.366118
O	 2.3104543867	-2.5972617548	-0.5909509792	-0.303202
N	 0.2734824364	-2.7436303871	-1.6667752406	-0.368307
C	 0.1868714203	-4.1068635606	-1.9565197681	 0.167363
O	 0.9234727994	-4.9645746219	-1.5609890432	-0.243238
H	-0.2331382808	 1.5941131945	 0.3142950615	 0.139241
H	-0.0273802087	 1.8361730088	-1.4220262748	 0.158467
H	-1.6345702333	 1.4086391711	-0.7836467608	 0.1218
H	-0.928186793	-0.7935738927	-0.438192995	 0.24645
H	 2.8888931704	-0.2755279549	-0.6917071423	 0.244051
H	-0.4238348903	-2.1452837491	-2.0893620493	 0.263303
H	-0.6875474471	-4.3012570013	-2.6100499718	 0.092586
