17
gdb 37612	3.11754	2.57809	2.33285	0.4472	72.43	-0.1989	0.0624	0.2613	719.1234	0.140953	-380.781242	-380.776324	-380.77538	-380.810166	22.549	
C	-0.0240353573	 1.5688455462	-0.0316974752	-0.236465
C	 1.4878953815	 1.7326322576	-0.005314579	-0.00197
C	 2.0467915261	 0.7240432131	-1.0273315046	-0.030479
C	 2.8548395923	 0.0664021827	 0.1127888141	-0.010064
C	 1.8446631655	-1.0856109672	 0.1354174416	-0.010065
C	 1.0053613237	-0.3008441085	 1.1674163194	-0.030481
C	 0.0115108612	 0.0501177843	 0.0434844768	-0.00197
N	 1.0346632072	-0.4274163311	-0.9857237743	-0.174306
N	 2.0161421949	 0.8517952592	 1.1257153144	-0.174305
H	-0.5220506143	 2.0236657906	 0.8305152723	 0.113885
H	-0.4742774197	 1.9443002014	-0.9561471188	 0.113885
H	 1.9018367615	 2.7414920513	 0.0176278712	 0.07669
H	 2.3922331816	 0.9999504898	-2.0254793276	 0.070618
H	 3.9367862184	 0.0310981428	 0.2383635039	 0.073859
H	 2.0288077979	-2.1588818279	 0.0929419634	 0.073859
H	 0.7032327297	-0.6146706257	 2.1684084463	 0.070618
H	-0.9308386406	-0.4960775586	-0.0141390538	 0.076691
