14
gdb 80113	2.89255	1.54454	1.29067	3.1588	67.27	-0.2506	-0.0234	0.2272	972.981	0.102426	-432.856712	-432.849218	-432.848274	-432.888655	28.03	
N	 0.0664369437	 1.4340964867	-0.1062362415	-0.518602
C	-0.0118384864	 0.0160484017	-0.048236351	-0.066679
C	-0.3318504479	-0.716229887	 1.2326118802	-0.092849
N	-1.005148734	 0.0285171848	 2.2622748489	-0.24707
C	-2.12187058	 0.3903477221	 1.7714677171	 0.084027
O	-2.4507302497	-0.0121246804	 0.5163355301	-0.230164
C	-1.3353962333	-0.7611127728	 0.0549170144	 0.246326
C	-1.6557455718	-1.8765219961	-0.7745133028	 0.232144
N	-1.8667375553	-2.7829284537	-1.4624237807	-0.33745
H	-0.4988040631	 1.8264612367	-0.8498993353	 0.249
H	-0.2012939664	 1.8639870863	 0.7712679843	 0.251634
H	 0.7094301453	-0.5127915333	-0.6673075266	 0.13183
H	 0.2735101817	-1.5574991462	 1.5456382832	 0.134787
H	-2.8723128928	 0.9980020312	 2.2614059297	 0.163066
