20
gdb 86796	4.78138	0.82339	0.7486	4.246	85.64	-0.2524	0.0103	0.2627	1531.4582	0.171553	-366.049739	-366.040758	-366.039813	-366.084073	33.384	
C	 0.0073135929	 1.6251778415	 0.0051742543	-0.397647
C	 0.0330317186	 0.0929257786	 0.0295581559	-0.013826
C	 0.7829091581	-0.5457444555	-1.1701862591	-0.250395
C	 1.4863750025	-1.8095662821	-0.612470709	-0.028645
C	 2.8638755235	-2.0601850128	-1.2690197002	-0.352601
C	 3.5196189804	-3.2658453873	-0.7665771405	 0.263485
N	 4.0194425434	-4.2226400825	-0.3534503613	-0.313098
C	 1.5420966121	-1.5281684991	 0.8735588917	-0.084548
C	 0.7589211792	-0.5076558344	 1.2146313834	-0.068528
H	 1.0240408552	 2.0333433447	 0.0137861552	 0.116232
H	-0.4983026568	 1.9960605455	-0.8925616074	 0.115951
H	-0.5228818252	 2.0264004236	 0.8752157975	 0.116147
H	-1.0098888818	-0.2597541493	 0.0412663345	 0.084263
H	 0.1271162123	-0.7653703338	-2.0169703301	 0.102865
H	 1.5441928621	 0.1609141719	-1.5250602955	 0.09911
H	 0.8739675042	-2.7041188032	-0.7945771072	 0.100014
H	 2.7504704004	-2.1546411169	-2.355219983	 0.150039
H	 3.5226321718	-1.20263289	-1.088776383	 0.149729
H	 2.1264139988	-2.1371126418	 1.5546622004	 0.115282
H	 0.6067015983	-0.1475756069	 2.2270339433	 0.096172
