17
gdb 133802	3.0464	0.89833	0.81121	3.0217	58.34	-0.2525	0.074	0.3264	1413.5329	0.131159	-586.636047	-586.626209	-586.625264	-586.671597	34.321	
C	-0.054166027	 1.379865959	 0.0536993829	-0.232295
O	-0.0247457455	-0.0282042273	-0.0007129087	-0.241038
C	 0.7112791385	-0.5240731659	-1.0961107838	-0.078107
C	 0.6000097594	-2.0555883932	-1.0415753524	-0.134982
N	-0.7652746727	-2.5665707557	-1.0568958033	-0.518524
C	 1.3745233587	-2.6911964711	-2.1901839046	 0.295358
F	 2.633220849	-2.2207358442	-2.244949836	-0.084418
F	 1.4438796305	-4.0171707291	-2.0808515528	-0.061341
F	 0.7928688907	-2.4102966003	-3.3740484342	-0.093622
H	 0.9563459195	 1.8038687815	 0.1565958031	 0.11128
H	-0.5183723109	 1.8116037034	-0.8464951791	 0.10917
H	-0.6464462198	 1.6598554492	 0.927873329	 0.131906
H	 0.2966339726	-0.1520899034	-2.0482777458	 0.093465
H	 1.7629736708	-0.2051347068	-1.0402373253	 0.10388
H	 1.0816703544	-2.3977951079	-0.1184440886	 0.119582
H	-1.2784543437	-2.0964002684	-0.3174456348	 0.247458
H	-1.2128440244	-2.3007556796	-1.9307732955	 0.232229
