17
gdb 70071	2.77952	1.62611	1.19248	4.8417	75.39	-0.256	-0.0456	0.2104	1048.6185	0.13618	-421.864177	-421.856475	-421.855531	-421.896198	30.115	
C	-0.0217611439	 1.4142547035	-0.1361154073	-0.444346
C	-0.0891542569	-0.0702940669	 0.1112545514	 0.417202
C	-0.7864849052	-0.6193957506	 1.3131796841	-0.334047
C	 0.7411046601	-0.7217858681	 1.1995645387	-0.154968
C	 1.3331940672	-2.02395897	 0.862909863	-0.047837
C	 1.0487514379	-2.6388256835	-0.2904627917	-0.218877
C	 0.2179084463	-2.0203797641	-1.338747256	 0.402023
O	-0.0448140363	-2.5535136154	-2.38571073	-0.337126
O	-0.2299790202	-0.7460446995	-1.1235033168	-0.280227
H	 0.8454611308	 1.662651493	-0.7549958761	 0.134461
H	-0.922468104	 1.7515055492	-0.6578329111	 0.140005
H	 0.0556889438	 1.9587088137	 0.808710058	 0.119356
H	-1.1901878497	 0.0829142924	 2.0340344535	 0.125317
H	-1.3403775869	-1.5449914013	 1.2038779582	 0.134299
H	 1.3228641302	-0.0753846102	 1.848577253	 0.10336
H	 2.0112044685	-2.4810671505	 1.5789139719	 0.117266
H	 1.4509715086	-3.6093423417	-0.5524311628	 0.12414
