17
gdb 3359	4.82683	2.73634	2.05068	1.8008	62.84	-0.2418	0.0799	0.3217	675.8271	0.151257	-309.714008	-309.708041	-309.707097	-309.74393	23.111	
C	-0.0490249893	 1.4427744005	-0.3519123529	-0.085056
O	 1.1612066951	 1.7193312644	 0.3840528193	-0.295179
C	 1.3776699743	 0.3067651771	 0.638400786	 0.144865
C	 1.3857821385	-0.0824220705	 2.1271360057	-0.230333
C	 0.1610907151	-1.0092567078	 2.2867412666	-0.195246
C	-0.8680460137	-0.4622442478	 1.2757052709	-0.226741
C	-0.0185027002	-0.0419073815	 0.05963361	-0.053417
H	-0.8988843544	 2.0369742458	 0.0070695731	 0.097497
H	 0.0831680185	 1.6229659651	-1.4270480952	 0.094554
H	 2.2522437961	-0.05670833	 0.0861120708	 0.069016
H	 2.3187404866	-0.5580677581	 2.4414674745	 0.095094
H	 1.2626893644	 0.8330968421	 2.7145785302	 0.114971
H	 0.4356671912	-2.0359734367	 2.0146012263	 0.098902
H	-0.2213665726	-1.0415547352	 3.310993106	 0.098469
H	-1.6432303338	-1.1910618834	 1.0238471769	 0.097084
H	-1.3740591046	 0.4126302882	 1.7012258208	 0.102951
H	-0.055770121	-0.7671399224	-0.754870729	 0.07257
