19
gdb 7372	3.70167	1.19222	0.95762	3.4957	68.91	-0.2381	0.0361	0.2742	1240.2973	0.163243	-402.236691	-402.226778	-402.225834	-402.272217	34.7	
C	 0.443206627	 1.0033517086	 0.6672908299	-0.388417
C	-0.1206278614	-0.2264983924	-0.0240065249	-0.039628
O	 0.8261494212	-0.6773310433	-0.9781343575	-0.271249
C	 0.4886268983	-1.8880086579	-1.6416240814	 0.044198
C	-0.5384239956	-1.694247286	-2.7586539121	-0.399685
C	 1.769970623	-2.5307959507	-2.2039841677	 0.371648
N	 2.9219317087	-1.9316968319	-1.8174514769	-0.514661
O	 1.7127662747	-3.5154357477	-2.9170364972	-0.377799
H	 1.3802733679	 0.7639773632	 1.1786456728	 0.123186
H	 0.6404914418	 1.7959814819	-0.0600619513	 0.129244
H	-0.267571304	 1.3821397165	 1.4075929785	 0.120489
H	-0.3224027291	-1.025892133	 0.7076333033	 0.092573
H	-1.0755398032	 0.0162461319	-0.5129057565	 0.098424
H	 0.0934281822	-2.6087710138	-0.9068023591	 0.096175
H	-0.1976370504	-0.9192381688	-3.4518518278	 0.124097
H	-0.6464823215	-2.6322137509	-3.3060808958	 0.151578
H	-1.5132074194	-1.401896876	-2.3595342317	 0.111649
H	 2.882562761	-1.0855447962	-1.2759278	 0.269411
H	 3.7945401691	-2.2816845638	-2.1747967745	 0.258767
