19
gdb 111170	4.05607	1.02914	0.95029	1.7188	76.61	-0.2363	0.0669	0.3031	1287.8376	0.15827	-422.920242	-422.911877	-422.910933	-422.953315	32.266	
O	 0.0622045399	 1.4347643497	-0.1423613493	-0.421032
C	 0.0385424059	 0.0459181679	 0.1713851607	-0.119511
C	-1.3682040686	-0.5219664369	 0.1148351676	 0.012427
C	-1.9853927313	-0.8790664488	-1.2743506687	-0.077415
O	-1.0268301409	-2.0076647154	-1.3843779585	-0.312208
C	-1.5554440611	-2.0643318733	 0.0057231725	-0.081704
C	-2.9586268332	-1.8280196231	-0.5659403067	 0.477208
C	-4.3243057221	-1.7005286864	 0.0126012739	-0.358487
C	-4.0130651027	-2.7447235249	-1.0599751685	-0.365108
H	-0.1198549804	 1.5223757593	-1.0830447549	 0.282697
H	 0.6995381868	-0.5331999386	-0.4838471901	 0.110515
H	 0.4233543175	-0.0300528882	 1.1943690757	 0.106979
H	-2.0442967585	-0.0083604433	 0.8044847344	 0.083318
H	-2.1392224503	-0.2586319168	-2.1591621724	 0.090522
H	-1.1876457677	-2.8615169573	 0.6531394444	 0.095771
H	-4.4958626677	-2.0494474542	 1.0260564668	 0.118263
H	-4.9324538757	-0.8473534308	-0.2709705494	 0.118401
H	-4.4159456751	-2.5845109935	-2.0547800806	 0.119481
H	-3.9781849047	-3.7863242053	-0.7576342668	 0.119884
