21
gdb 37012	3.23361	1.15799	1.13776	1.7196	82.94	-0.2513	0.0708	0.3221	1223.0074	0.182386	-387.057102	-387.048741	-387.047797	-387.090256	32.678	
C	 0.2934348401	 1.2189442334	 0.6143604052	-0.209108
C	 1.5410014356	 1.5116905369	-0.2746525319	-0.311685
C	 1.3814009291	 0.1024352027	-0.8489285684	 0.348211
C	-0.029186415	-0.0246740271	-0.2698321092	-0.311685
O	 1.7665189663	-0.2952767481	-2.1597872088	-0.322958
C	 2.3942361046	-0.9333419075	-1.0535746937	 0.348203
C	 3.8934271598	-0.8940119336	-0.7500174688	-0.311687
C	 3.7269101517	-2.2922977733	-0.0795408539	-0.209109
C	 2.3232331934	-2.43038139	-0.7451940485	-0.311687
H	 0.5666564989	 0.942911383	 1.6353741747	 0.105605
H	-0.4689919172	 1.9982861706	 0.6558247288	 0.104559
H	 1.3444392393	 2.2750909082	-1.0332703891	 0.114777
H	 2.4820004457	 1.7504393506	 0.2280192201	 0.103017
H	-0.2867848223	-0.958703133	 0.2365191498	 0.103017
H	-0.790502495	 0.1861378862	-1.0267165556	 0.114777
H	 4.486598348	-0.9381452009	-1.6682310884	 0.114778
H	 4.2638634731	-0.0718342511	-0.1319874943	 0.103017
H	 4.4671588615	-3.0496673716	-0.3418601909	 0.10456
H	 3.6655400997	-2.2261584271	 1.0091149325	 0.105605
H	 1.4951302449	-2.7809249023	-0.1234827218	 0.103017
H	 2.3515614777	-3.0271897459	-1.661672858	 0.114778
