21
gdb 119340	3.85188	1.04832	0.99636	1.0485	83.21	-0.2264	0.0941	0.3205	1318.8651	0.182648	-387.030652	-387.022207	-387.021263	-387.064251	32.541	
C	 0.0971154489	 1.5701736141	-0.058630687	-0.388392
C	 0.2038982398	 0.0615442597	 0.0692198368	-0.0598
O	 0.4485660595	-0.4798593436	-1.2290878378	-0.288925
C	 0.579018498	-1.8340557216	-1.2515713576	 0.436479
C	 1.620158734	-2.795106021	-0.724564352	-0.151235
C	 0.5615824169	-3.6946511335	-0.0934030693	-0.218332
C	-0.4488254998	-3.0594144081	-1.0879690776	-0.138763
C	 0.0351401308	-3.5547523111	-2.479890256	-0.223371
C	 1.2795307885	-2.7024734535	-2.2459440293	-0.1419
H	 1.0229940608	 1.9874816056	-0.4646134178	 0.128094
H	-0.7237225936	 1.8427923837	-0.727942855	 0.128485
H	-0.0881039574	 2.0221542275	 0.9203897172	 0.115796
H	 1.0237355485	-0.2227228665	 0.7447824645	 0.096952
H	-0.7250611236	-0.3627161208	 0.4788318762	 0.095888
H	 2.6257591771	-2.5818576991	-0.3853590922	 0.083697
H	 0.691571573	-4.7814899158	-0.1548722949	 0.087406
H	 0.3570362452	-3.4089285956	 0.9424694222	 0.094078
H	-1.5094920724	-3.0043616057	-0.851823693	 0.069053
H	 0.1507117286	-4.6374649206	-2.6072155985	 0.085906
H	-0.5747857904	-3.1513754246	-3.2928423439	 0.101479
H	 2.0447519277	-2.4054224094	-2.951457135	 0.087405
