13
gdb 2526	3.90626	2.07715	1.45287	2.2647	52.12	-0.2513	-0.0542	0.197	801.6864	0.09774	-381.585428	-381.577564	-381.576619	-381.617877	25.801	
C	-0.2789271191	 1.3950431021	 0.025973197	-0.245742
O	 0.1352299135	 0.0434269608	 0.1584129863	-0.236124
C	 0.7053407483	-0.5121321882	-0.9832462935	-0.055571
C	 1.4625566932	-1.7742249704	-0.567055129	 0.128315
O	 2.0591141604	-2.4726398415	-1.3418319764	-0.241823
C	-0.2963279339	-0.8761973082	-2.0895764725	 0.144167
O	-1.4602980947	-0.5855323305	-2.0558965402	-0.230242
H	 0.5616916347	 2.0351971019	-0.2821113013	 0.107933
H	-1.0974720675	 1.4970706681	-0.6925078642	 0.143878
H	-0.6207058518	 1.7134131399	 1.0127428639	 0.137391
H	 1.4510708291	 0.15637259	-1.457120858	 0.118017
H	 1.39168061	-1.9831509995	 0.5208240648	 0.115956
H	 0.162595058	-1.4411830545	-2.9281583969	 0.113846
