14
gdb 2020	7.80016	1.90068	1.76453	2.6952	59.69	-0.2499	0.0278	0.2777	728.0368	0.113588	-324.558989	-324.552833	-324.551889	-324.588867	23.568	
N	 0.0287740414	 1.1558880805	 0.5781204704	-0.541256
C	-0.0291192905	 0.0315013331	 0.0288722717	 0.43173
C	-1.1306075347	-0.972135351	-0.2533386678	-0.438751
C	 0.003878306	-1.7755161393	-0.8788100592	 0.451908
C	 0.3669073195	-3.2145411259	-0.8017253189	-0.330548
C	 0.1001947712	-2.5434253932	-2.1474955936	-0.330548
O	 0.9636056601	-0.7389482486	-0.5520947886	-0.268403
H	 0.9819432958	 1.5227415711	 0.5721614494	 0.228607
H	-1.5922920148	-1.4036411061	 0.636782648	 0.140367
H	-1.9042842438	-0.6185621727	-0.9374999802	 0.140368
H	 1.3970086395	-3.4545396771	-0.562375187	 0.134268
H	-0.3666360789	-3.9124104209	-0.4116843419	 0.123996
H	-0.8157461425	-2.7823363186	-2.6777910571	 0.123995
H	 0.9569755317	-2.347305761	-2.7826809151	 0.134268
