20
gdb 55196	3.73696	1.04796	0.83535	3.7714	83.05	-0.2271	0.0166	0.2437	1397.8814	0.170264	-403.203659	-403.194206	-403.193262	-403.238177	34.279	
C	-0.001474766	 1.4599063232	-0.0117750544	-0.492943
C	 0.0190648611	-0.0605280126	-0.0079785041	 0.388757
O	 0.0503168532	-0.715438523	 1.0223772006	-0.376995
N	 0.0006530011	-0.6641893619	-1.2301176314	-0.090658
C	-0.0377209536	-0.013398169	-2.5404057614	-0.208386
C	-0.0428817046	-1.1887293936	-3.478140415	-0.188475
C	-0.0127426704	-2.351560555	-2.827828228	 0.313299
C	-0.0068964649	-3.7307916055	-3.4021277102	-0.490107
C	 0.0174352526	-2.1224720492	-1.3375997393	-0.236751
H	 0.8638289675	 1.8696409278	-0.5437514708	 0.133525
H	-0.9000283109	 1.8459449595	-0.5049275168	 0.133524
H	 0.0166668178	 1.8024270477	 1.0221847894	 0.14473
H	-0.9317205259	 0.6180352752	-2.6606271538	 0.11484
H	 0.832428922	 0.6420692264	-2.7002799002	 0.114849
H	-0.0686208518	-1.0638501272	-4.5539072921	 0.098689
H	-0.032897933	-3.7106993438	-4.4944931108	 0.127803
H	 0.887596974	-4.2845831564	-3.0909457621	 0.13321
H	-0.8697809321	-4.3093409574	-3.0495297756	 0.133181
H	 0.911924217	-2.5462366681	-0.8592287481	 0.123952
H	-0.8434953532	-2.5693459072	-0.8202369957	 0.123955
