18
gdb 60315	3.72918	0.81184	0.72599	3.2281	74.87	-0.2737	-0.0894	0.1843	1564.8224	0.143716	-439.099056	-439.088772	-439.087828	-439.135487	35.54	
C	-0.6409275	 1.3697040759	 0.5603967336	-0.39141
C	-0.3457173834	-0.046317078	 0.0873927071	 0.136415
C	 1.1225025682	-0.437639139	 0.2488460123	-0.385691
O	-1.1776227918	-0.9198323883	 0.8789016356	-0.237248
C	-1.5708966644	-2.096290826	 0.2644991084	-0.193398
C	-2.738616567	-1.9070965439	-0.7015854146	 0.284006
O	-3.2406440968	-0.8535001813	-0.9886405887	-0.252975
C	-3.2291090684	-3.1749565827	-1.2931424028	 0.215845
N	-3.584233969	-4.1813702274	-1.7383588788	-0.287198
H	-0.03986329	 2.0943364363	 0.0032439202	 0.116227
H	-1.6984062077	 1.600492021	 0.413895318	 0.138084
H	-0.4055805007	 1.4706260437	 1.6245924683	 0.125342
H	-0.6386635231	-0.137410121	-0.9670412857	 0.083473
H	 1.4272870763	-0.340520172	 1.2952973006	 0.128321
H	 1.3026627792	-1.4709067667	-0.0651218681	 0.113961
H	 1.7604838519	 0.2097954207	-0.3608826081	 0.121735
H	-0.763968933	-2.6071891022	-0.2906340797	 0.130241
H	-1.8978117705	-2.8031894592	 1.0400052422	 0.15427
