20
gdb 6863	3.20985	1.80723	1.60861	1.7368	70.16	-0.2554	0.0764	0.3318	916.928	0.177818	-386.15043	-386.142459	-386.141515	-386.182035	31.1	
C	 0.0070997381	 1.5208316867	 0.0105009893	-0.433258
C	-0.0309482126	-0.0114009968	 0.0025215454	 0.2354
C	-1.481194505	-0.5202320595	 0.0063631806	-0.409964
C	 0.7161634815	-0.5484620036	-1.2360549601	-0.097255
O	 0.869822862	-1.9609967749	-1.1792971275	-0.239548
C	 1.5546713759	-2.3433490707	-0.0170370537	 0.015008
O	 0.8803597838	-1.9734153728	 1.155359047	-0.239548
C	 0.7272787397	-0.5615719223	 1.2285272009	-0.097255
H	 1.034624869	 1.9017230949	 0.0078535297	 0.112509
H	-0.5035852979	 1.9294253377	-0.8683963603	 0.117333
H	-0.4955469271	 1.92002237	 0.8983085029	 0.117332
H	-2.0231957703	-0.1586554894	-0.8743272569	 0.106724
H	-1.5080495427	-1.6114333526	 0.0007553428	 0.138401
H	-2.0152414136	-0.167942481	 0.8956352041	 0.106724
H	 0.166944565	-0.3315213501	-2.1572646116	 0.107105
H	 1.7083843339	-0.0697382679	-1.3074361126	 0.082132
H	 1.6182125769	-3.4331876186	-0.0231202694	 0.116447
H	 2.5698600362	-1.8983321502	-0.0192521446	 0.072474
H	 1.7201225015	-0.0835814961	 1.2960531089	 0.082132
H	 0.1863948156	-0.3544775729	 2.1569067851	 0.107106
