16
gdb 32173	3.89245	1.07809	0.84987	2.3723	74.85	-0.2288	-0.0176	0.2112	1284.2807	0.125826	-437.95039	-437.94232	-437.941376	-437.984106	29.898	
O	 0.3087089829	 0.7998149899	 1.0391377024	-0.415129
C	-0.0117438259	 0.1175813217	-0.1575932105	-0.162899
C	-1.4358759937	-0.3816982167	-0.0995957207	 0.29803
C	-2.1759275294	-0.3546202114	 1.0863384807	-0.207652
C	-3.4712376974	-0.8509984874	 1.0634942488	-0.001765
N	-4.0583724281	-1.3592222386	-0.0262183226	-0.370019
C	-3.3404017773	-1.3775559657	-1.1440155034	 0.447175
O	-3.929207461	-1.8880947908	-2.2477369825	-0.421529
C	-2.031367442	-0.9025902133	-1.2415829344	-0.299498
H	 1.2418959586	 1.0278861187	 1.0142009824	 0.293852
H	 0.1021678442	 0.7716569827	-1.0369539012	 0.107202
H	 0.6562804829	-0.7452240958	-0.3158726064	 0.111159
H	-1.7453778212	 0.0485474083	 1.992057882	 0.11783
H	-4.0771755672	-0.8435720392	 1.9662436603	 0.109159
H	-4.8179562355	-2.1513464669	-1.9707751324	 0.295745
H	-1.5139030299	-0.9468292755	-2.1934582023	 0.098339
