16
gdb 2831	5.01798	1.67473	1.39567	1.6197	67.52	-0.2449	0.0377	0.2826	895.0158	0.135708	-288.583008	-288.575292	-288.574347	-288.614887	28.157	
C	-0.0663919336	 1.525471564	-0.2480990373	-0.377942
C	-0.0357074987	 0.1077218307	 0.3329109213	-0.187768
C	-1.3846825956	-0.5665167484	 0.2542772506	 0.014638
N	-1.7643681598	-1.1327777891	-1.0438184578	-0.322573
C	-1.5480389136	-2.049062761	 0.1050482435	-0.255348
C	-0.4330487553	-2.9537534095	 0.0392527633	 0.384698
C	 0.4874172858	-3.7272148826	 0.0194616285	-0.450943
H	 0.9198569563	 1.9956968148	-0.1924792434	 0.113485
H	-0.3734288399	 1.5024750936	-1.2982208322	 0.130655
H	-0.771037869	 2.1657852467	 0.2948962585	 0.108302
H	 0.6932166454	-0.5045568885	-0.20623244	 0.119574
H	 0.2851031881	 0.1346728335	 1.3820220541	 0.098268
H	-2.1725618355	-0.0790585591	 0.8298262414	 0.08462
H	-2.7629667271	-1.0326016622	-1.2068005428	 0.234881
H	-2.4362142747	-2.4745457422	 0.5682710934	 0.108104
H	 1.3025563973	-4.4069796406	-0.0107396212	 0.19735
