21
gdb 84570	2.60119	1.81043	1.4069	0.2884	85.78	-0.2342	0.0251	0.2594	1017.0589	0.18486	-349.934333	-349.926833	-349.925888	-349.965808	31.17	
C	-0.3795606603	 1.5632318973	-0.0272247666	-0.399266
C	-0.0372034726	 0.0666984418	-0.0139183186	-0.037464
C	 0.6879773108	-0.4309363951	-1.255615147	-0.070428
C	 1.7626591555	-1.1788131981	-0.9940277029	-0.093228
C	 2.0098414288	-1.3061747454	 0.4833421162	-0.067083
C	 3.1012159605	-0.4197775148	 1.1433008431	-0.063307
C	 2.9922687437	 1.001821044	 0.6827553342	-0.281842
C	 2.0107566251	 0.4999238722	 1.7090816446	-0.060491
C	 0.9045460703	-0.4056035488	 1.1273296228	-0.034583
H	 0.5174845997	 2.1840440657	-0.0944269368	 0.125961
H	-1.0241467294	 1.8069504493	-0.8787118757	 0.107878
H	-0.9159700517	 1.8470542799	 0.8844129569	 0.110462
H	-0.9908034178	-0.4769366978	 0.0675312528	 0.074375
H	 0.3250173116	-0.1979518503	-2.2530747084	 0.085663
H	 2.4016114109	-1.6299823075	-1.7464008103	 0.087603
H	 2.0410022044	-2.3404115713	 0.8376211556	 0.07036
H	 3.9894985842	-0.7992952866	 1.6336350621	 0.079917
H	 3.7491664618	 1.6699778392	 1.0822257033	 0.106645
H	 2.6887990645	 1.2317243805	-0.3332299576	 0.112262
H	 1.9644364713	 0.9536610002	 2.6923209429	 0.079446
H	 0.3591585688	-0.9018828044	 1.9323106794	 0.067119
