19
gdb 91665	2.43366	1.86662	1.42831	2.9415	74.39	-0.2494	0.0812	0.3305	977.9662	0.161039	-422.990877	-422.983568	-422.982624	-423.02222	30.185	
O	-0.0571792957	 1.4001237302	-0.0235125625	-0.454575
C	-0.0500730439	-0.0090956971	 0.0314305392	 0.163516
C	 0.4582871524	-0.6196663757	 1.3915881069	-0.256129
C	-0.8021259857	-1.4073411223	 1.8091205395	-0.129016
C	-1.1963298525	-2.0987838438	 0.4650593219	-0.242287
C	-1.4637740586	-0.6365790152	-0.0063500449	-0.162451
C	-1.8960917699	-0.398365007	 1.4460994725	 0.522079
C	-3.1901986882	-0.0855857787	 2.0310959288	-0.310733
O	-2.1023185768	 0.8685515244	 2.0571179137	-0.3145
H	-0.6766813504	 1.7143290031	 0.647627804	 0.294924
H	 0.5612217523	-0.3343034135	-0.8146361401	 0.082425
H	 1.330831353	-1.2672362889	 1.2696736581	 0.098608
H	 0.7136805398	 0.1793441772	 2.0922233729	 0.112067
H	-0.7912634298	-1.9391042016	 2.7597832538	 0.07061
H	-0.4122815193	-2.6543406079	-0.0551192471	 0.100949
H	-2.1067661514	-2.6973143917	 0.5353593013	 0.104599
H	-2.093759886	-0.3907785921	-0.8598724989	 0.07293
H	-4.028402071	 0.1867038551	 1.3915091685	 0.123848
H	-3.4619512082	-0.4872738744	 3.0058748224	 0.123135
