18
gdb 39736	3.72762	1.60288	1.40298	0.9191	83.68	-0.2084	-0.0391	0.1693	967.3416	0.147947	-364.669212	-364.662313	-364.661368	-364.700047	28.868	
C	-0.19045297	 1.3562944527	-0.301742911	-0.345108
C	 1.2198196697	 0.8764894291	 0.0363283626	-0.33408
C	 0.1049796693	-0.0924306933	-0.1631786446	 0.404777
N	-0.2934253324	-0.9798525556	 1.0024369908	-0.192787
C	-1.3212490757	-2.1125029264	 0.6769437109	-0.02063
C	-2.2388633811	-2.1638291444	-0.5602212032	-0.266703
C	-1.3648468222	-1.4050538542	-1.5477915605	-0.097306
C	-0.1097744783	-1.3071579728	-1.0511166677	-0.098179
C	 0.0614380667	-2.1794775579	 0.1989388733	-0.071403
H	-0.7621818498	 1.8271722849	 0.4909757023	 0.124398
H	-0.3753466871	 1.7569971507	-1.2930664132	 0.119227
H	 1.9812083143	 0.9437246091	-0.7328745057	 0.120613
H	 1.5727153591	 1.0328874417	 1.0497719163	 0.125661
H	-1.6316415864	-2.5649683726	 1.6145727725	 0.100184
H	-2.4836433354	-3.2150101267	-0.7713860309	 0.11883
H	-3.1904919868	-1.630779284	-0.4541651003	 0.118806
H	-1.8018740608	-0.5904160665	-2.1187499288	 0.098807
H	 0.8695091569	-2.8523911637	 0.4621719772	 0.094892
