19
gdb 101011	2.84388	1.0607	1.00233	3.0937	66.98	-0.2547	0.0432	0.2979	1265.6619	0.157685	-497.261601	-497.252153	-497.251209	-497.295957	35.072	
O	-0.016785251	 1.450729443	 0.0410715067	-0.425866
C	 0.043401164	 0.0485343805	 0.1953634006	-0.079992
C	-1.3513336684	-0.5611526998	 0.0041613036	 0.089081
O	-1.8870839677	-0.1178711653	-1.2428961667	-0.456451
C	-1.3799752387	-2.0859101779	 0.0606508002	 0.300136
O	-0.5945995588	-2.5284570973	-1.026658227	-0.487849
C	-1.1408134099	-2.7106357604	 1.4587566304	-0.131017
O	-2.5457498894	-2.996608075	 1.5992572693	-0.26829
C	-2.7992263692	-2.682573854	 0.2156328567	-0.134297
H	-0.577797116	 1.5961931346	-0.7321079734	 0.285746
H	 0.7408811267	-0.4133134181	-0.5208020184	 0.095795
H	 0.4198729192	-0.1516247918	 1.2044017431	 0.104502
H	-2.0184868132	-0.1625043934	 0.7760756239	 0.103836
H	-1.4586326828	-0.6616722501	-1.9177580473	 0.291132
H	-0.7154509023	-3.4772342113	-1.1364853318	 0.289328
H	-0.5276833131	-3.6230858978	 1.4212060627	 0.0948
H	-0.7679779508	-2.0595776974	 2.2568813463	 0.115743
H	-3.6461756666	-2.0029176143	 0.0814214269	 0.127214
H	-2.9600855321	-3.5869518943	-0.3919900857	 0.086449
