16
gdb 45659	3.29271	1.6019	1.11768	2.9936	79.51	-0.1948	-0.0224	0.1724	1030.784	0.127044	-400.798862	-400.791955	-400.791011	-400.830116	27.518	
O	-0.1651990909	-0.0426782526	 0.0600709677	-0.366406
C	-0.0695788914	 1.1615156033	 0.0610199669	 0.389562
N	-1.1250406735	 2.0650650569	-0.0668814413	-0.32615
C	-0.7248108531	 3.3933506789	 0.2024332837	-0.178145
C	 0.609787723	 3.4411145741	 0.3274617297	 0.258256
C	 1.6481464502	 4.244211426	 0.9411371507	-0.183247
C	 2.6395689797	 3.4347475443	 1.3626707611	-0.080088
C	 2.3469587725	 1.9636772073	 1.0950122667	-0.297624
C	 1.1732647492	 2.0583833731	 0.0937085307	-0.18054
H	-2.0822225936	 1.7520295918	-0.0924553661	 0.257813
H	-1.4749420931	 4.1574658743	 0.3463797964	 0.128227
H	 1.6034017842	 5.3158895664	 1.0903636147	 0.103594
H	 3.5270820727	 3.7619928476	 1.8916061499	 0.101083
H	 3.2062721316	 1.4148679656	 0.6996081375	 0.116847
H	 2.0468178051	 1.4550611625	 2.0211805053	 0.128029
H	 1.5800608471	 2.0009826706	-0.9273428236	 0.128791
