22
gdb 86406	2.61558	1.36089	1.01901	2.2492	82.41	-0.2384	0.0778	0.3162	1257.3803	0.194203	-404.339894	-404.33069	-404.329746	-404.374182	35.243	
C	 0.1034528925	 1.5828152322	 0.0725033249	-0.406789
C	 0.1347034799	 0.0659844111	 0.0346594628	 0.150683
C	 0.7160783567	-0.5604197976	-1.2439825101	-0.328659
C	 1.2723228841	-1.8899177644	-0.7388858005	 0.317078
C	 1.0505192851	-3.1728541966	-1.4447694745	-0.29578
N	 2.3940232411	-2.5606644463	-1.4069249175	-0.349986
C	 1.2816882143	-1.7775361175	 0.8001943625	 0.074941
C	 2.5839651653	-2.15735093	 1.4799084186	-0.389418
O	 0.9911648678	-0.4066393661	 1.0695486923	-0.276694
H	 1.1093349275	 1.9871824001	-0.0773240489	 0.122433
H	-0.5523335582	 1.9743950292	-0.7113795676	 0.11385
H	-0.2675513242	 1.9341822931	 1.0392255455	 0.126568
H	-0.8849820847	-0.3283381245	 0.1956201037	 0.061639
H	-0.0236585868	-0.6736118957	-2.041178684	 0.101934
H	 1.5308407894	 0.0720452582	-1.6189203259	 0.103537
H	 0.9588937618	-4.0986989567	-0.8806614888	 0.115236
H	 0.4915035986	-3.1580538708	-2.377420389	 0.10774
H	 2.5931713229	-2.1036787944	-2.2939769496	 0.227569
H	 0.4596191029	-2.3981194999	 1.1985124411	 0.062669
H	 3.4057479078	-1.549810954	 1.0936432569	 0.122827
H	 2.5019870234	-2.001115218	 2.5591017261	 0.115468
H	 2.8223077329	-3.2071099916	 1.2908997621	 0.123155
