15
gdb 31455	5.41955	0.89471	0.81292	5.3653	75.1	-0.2629	-0.0392	0.2237	1380.0604	0.113411	-416.864202	-416.856046	-416.855102	-416.897894	28.935	
C	 0.0380912792	 1.4969551151	 0.2577681967	-0.384173
C	-0.0435317094	 0.0041579454	-0.1056199997	-0.295904
C	-1.4396472442	-0.5090492933	-0.1553070404	 0.395586
N	-2.1017896267	-0.9653016594	-1.1683821592	-0.337863
C	-3.3553268923	-1.2917583128	-0.6502353073	 0.141549
C	-3.3741547636	-1.0035654608	 0.6785721782	-0.098366
O	-2.1599569019	-0.5033653643	 1.0091552142	-0.16386
C	-4.404688965	-1.8354619859	-1.4356909772	 0.216691
N	-5.2730170134	-2.2790298639	-2.0587075691	-0.330522
H	 1.0820013877	 1.819566713	 0.2891731059	 0.12872
H	-0.4868064308	 2.1086224841	-0.4814167576	 0.136742
H	-0.4074153302	 1.6874118349	 1.2378358445	 0.135835
H	 0.3953583544	-0.181697237	-1.0883365066	 0.147086
H	 0.5238445978	-0.5846557243	 0.624955559	 0.132878
H	-4.1091892017	-1.0902575011	 1.4596609687	 0.175603
