18
gdb 108659	2.18242	1.57339	0.95544	4.9988	78.19	-0.2147	-0.0112	0.2035	1205.5401	0.148636	-439.137314	-439.128403	-439.127459	-439.170998	33.298	
N	-0.1809553047	 1.2555487883	 0.0016965306	-0.574763
C	-0.1335614968	-0.0981031284	 0.001210725	 0.298091
C	-1.2026911132	-0.9395201469	 0.0947235902	 0.054429
C	-2.6369721371	-0.5298293877	 0.2285880323	-0.210626
O	-2.817345566	 0.6080189168	 1.0910529501	-0.420589
C	-0.7552209541	-2.3238208491	 0.0589225446	 0.326481
O	-1.4425878489	-3.3236805311	 0.1507099779	-0.373113
C	 0.7780250593	-2.3213208702	-0.1093636088	-0.331432
C	 1.1789273616	-0.8351097675	-0.1406436588	-0.321854
H	 0.6678263166	 1.7795511426	 0.1343113356	 0.255558
H	-1.0423937492	 1.6739541975	 0.3268147374	 0.271973
H	-3.0552777518	-0.2110301222	-0.7336463945	 0.120962
H	-3.2251065331	-1.3910244943	 0.5699032832	 0.128031
H	-2.5538815251	 0.3328165416	 1.9758868187	 0.284922
H	 1.2367316659	-2.8687622507	 0.7187648046	 0.125936
H	 1.044468767	-2.8530540804	-1.0271604712	 0.128068
H	 1.6762737077	-0.5468115719	-1.074397643	 0.123974
H	 1.8640153819	-0.5635139663	 0.6722370661	 0.11395
