19
gdb 69466	4.72965	0.87213	0.81663	2.6438	78.44	-0.2488	0.0263	0.275	1433.5749	0.159466	-419.195914	-419.186996	-419.186052	-419.230497	32.867	
C	 0.0953854837	 1.5866197214	 0.1212292093	-0.484105
C	-0.0186689217	 0.0941634427	 0.0596680848	 0.351746
C	-1.311773157	-0.7111224054	-0.1667961878	-0.328814
C	-0.7715703926	-1.7855083124	 0.8441666542	 0.048556
N	-0.6786776008	-3.1740636471	 0.4531369075	-0.289517
C	-1.4140064441	-4.1642171103	 1.0322942038	 0.153106
O	-2.2409340925	-4.0030539342	 1.9037954206	-0.32043
C	 0.5294577361	-0.9849928477	 0.9609295586	-0.121089
N	 1.135898419	-0.7016215173	-0.3417693515	-0.359854
H	 1.0968952456	 1.8794656664	 0.4461893211	 0.135105
H	-0.0824730735	 2.0328572837	-0.8643714724	 0.123683
H	-0.638152881	 2.008953897	 0.8159574284	 0.120884
H	-2.2221229386	-0.226836475	 0.1940848546	 0.118552
H	-1.4760926784	-1.0471690618	-1.1964181142	 0.094664
H	-1.3507537651	-1.7682836591	 1.7676178135	 0.129499
H	-0.0051284995	-3.4404341928	-0.248299853	 0.242114
H	-1.1678880874	-5.1582379029	 0.6085034348	 0.074842
H	 1.1664009999	-0.9235628992	 1.8367797162	 0.09727
H	 0.9217285979	-1.391712666	-1.0604868985	 0.21379
