16
gdb 14263	3.253	2.7059	1.88154	1.625	70.52	-0.2209	-0.0468	0.1742	743.1907	0.13355	-346.587754	-346.581809	-346.580865	-346.617413	24.475	
C	-0.0636401875	 1.5687250518	-0.0098099889	-0.266515
C	 1.4818912846	 1.4771844984	 0.008010941	 0.047966
O	 1.3840541493	 0.1117852714	 0.5033835595	-0.279609
C	 0.0155435679	 0.0226019793	 0.0149576903	 0.047961
C	-0.0465022096	-0.6345823964	-1.3429895451	-0.074999
C	 0.7716489134	-0.3247174407	-2.360602766	-0.07065
C	 1.8116971139	 0.707069815	-2.3655575257	-0.070654
C	 2.1329882219	 1.5275232553	-1.3533565992	-0.075
H	-0.454154529	 1.9668553697	 0.9274925703	 0.111801
H	-0.5429973686	 2.0478916526	-0.8635823158	 0.11207
H	 2.0106776732	 2.1134693065	 0.7232989933	 0.075424
H	-0.6215455244	-0.497607671	 0.7357963366	 0.075425
H	-0.7911041111	-1.4135236847	-1.4824161807	 0.091867
H	 0.656574484	-0.8743262497	-3.2913908374	 0.091524
H	 2.3576926022	 0.8133513996	-3.2995122632	 0.091523
H	 2.9171291397	 2.2652342628	-1.500082739	 0.091866
