18
gdb 108027	4.01343	1.46407	1.34822	1.4705	73.38	-0.2293	0.0702	0.2996	992.6173	0.148519	-401.867979	-401.86082	-401.859876	-401.899548	28.649	
C	 0.0429388103	 1.2650586566	-0.2284351545	-0.256352
O	-0.1008935829	-0.0554944165	 0.2689952858	-0.299487
C	-1.3814795659	-0.5611697387	 0.172441968	 0.417737
C	-2.5491485015	-0.0651660469	 1.019668917	-0.234264
N	-3.6247757197	-0.9637691664	 0.600036025	-0.124938
C	-3.4295536038	-1.3323305496	-0.8215339398	-0.064645
C	-3.0473620222	-2.2821869844	 0.2604314689	-0.068037
C	-1.5448095863	-2.0441798782	-0.0412655201	-0.157852
C	-1.9372606126	-1.0766365174	-1.1496429853	-0.16833
H	 1.1052337876	 1.5105834359	-0.1664973587	 0.129873
H	-0.2856054883	 1.3382228348	-1.273963586	 0.111802
H	-0.5241604937	 1.9918650533	 0.3689139315	 0.115516
H	-2.3602820895	-0.1761979471	 2.0920634094	 0.112299
H	-2.8297273277	 0.9719542186	 0.8101140405	 0.104686
H	-4.2743624021	-1.306970595	-1.4981394921	 0.094751
H	-3.5155470703	-3.1843881653	 0.6327955554	 0.095283
H	-0.7284651203	-2.7503337396	-0.003004179	 0.09849
H	-1.479249351	-0.919915844	-2.1153278361	 0.093469
