17
gdb 48446	2.34256	1.48544	1.10534	3.0629	68.29	-0.2573	-0.0414	0.2159	1112.3907	0.13417	-458.912967	-458.904383	-458.903439	-458.947251	30.281	
O	 0.0142234727	-0.2100159233	 0.0132632076	-0.235971
C	-0.0148455956	 0.9924861942	 0.0254341439	 0.103833
C	 1.2026575173	 1.8958490085	 0.0071788373	 0.146166
C	 1.4395110317	 2.5917761639	 1.3797953576	-0.127508
O	 2.5998270203	 1.7843644517	 1.6272612929	-0.266621
C	 2.5385369198	 1.1862149802	 0.3150682003	-0.121719
C	 1.1543902683	 2.7840621713	-1.2168873826	-0.005838
C	 0.4497395752	 4.0736515088	-1.2386087769	-0.186101
O	 1.8758170465	 4.0119734544	-1.1655062548	-0.227193
H	-0.9820045013	 1.5449868966	 0.0600453462	 0.084008
H	 1.6855338664	 3.6559970658	 1.2920637458	 0.123855
H	 0.6604741715	 2.4479679792	 2.1390125778	 0.107168
H	 2.4820338919	 0.0946877755	 0.3548533636	 0.130868
H	 3.3757180534	 1.5023562589	-0.3182939486	 0.111196
H	 1.2617681645	 2.249239079	-2.16237787	 0.113194
H	 0.0442700519	 4.4526901258	-2.1745402594	 0.129922
H	-0.0451793843	 4.4336761195	-0.337402421	 0.120742
