18
gdb 35497	3.3178	1.37995	1.16105	0.845	82.54	-0.2193	0.0143	0.2336	1089.939	0.148708	-364.758924	-364.751282	-364.750338	-364.791152	30.127	
C	-0.8347803831	-0.9920033247	-1.0565657335	-0.464411
C	-0.5165511632	 0.0692736115	-0.5882096303	 0.329513
C	-0.1264921274	 1.3406888858	-0.0212408535	-0.193334
C	-0.0375287035	 1.4805824661	 1.5277543809	-0.187375
N	 1.2533217323	 2.2051534407	 1.401800882	-0.097323
C	 2.3712337359	 1.6321283964	 2.1705338283	-0.223167
C	 2.9805207595	 0.6032612199	 1.240272641	-0.074342
C	 2.4238541787	 0.6607435838	 0.0314834247	-0.075591
C	 1.3869394747	 1.7496131892	-0.0173060839	-0.039339
H	-1.1195033033	-1.9277044478	-1.4696014035	 0.195074
H	-0.7290936408	 2.1463152305	-0.4503283067	 0.109095
H	-0.8333351528	 2.05648547	 2.0092083087	 0.108077
H	 0.0521462152	 0.5049174327	 2.0217456848	 0.105761
H	 3.1020986366	 2.4056144904	 2.4485111564	 0.108729
H	 2.0020852248	 1.1993602816	 3.1099365381	 0.107763
H	 3.7856464015	-0.0592012984	 1.5370695832	 0.09963
H	 2.6885175363	 0.056111654	-0.8269046115	 0.106344
H	 1.6416167785	 2.5347675184	-0.7406711052	 0.084894
