17
gdb 28680	3.5147	1.05313	0.83939	3.1074	81.07	-0.211	0.0306	0.2416	1352.5573	0.135857	-380.886667	-380.877741	-380.876797	-380.921183	32.389	
C	 0.3095272135	 1.3810093609	 0.1886665387	-0.498786
C	 0.0188866762	-0.0689997422	-0.0077950903	 0.341406
N	-0.6164576778	-0.5993438541	-1.0307754867	-0.296268
C	-0.6354326385	-1.9566796983	-0.7972989065	-0.185456
C	-0.0096311192	-2.2560509545	 0.3828289918	 0.312141
C	 0.2018666962	-3.5459132365	 1.1236596371	-0.470746
C	 1.4724188503	-3.5955335492	 1.8453636019	 0.287588
C	 2.5066896497	-3.5939225552	 2.4579447145	-0.446682
N	 0.398021461	-1.0363531198	 0.8827644141	-0.330904
H	 1.3864806768	 1.5802928958	 0.2386710257	 0.130507
H	-0.103076816	 1.9343858031	-0.655732085	 0.157415
H	-0.1408525699	 1.7683371502	 1.109993637	 0.129937
H	-1.1005999776	-2.6417120149	-1.490698849	 0.102266
H	-0.613616884	-3.7190214752	 1.8417214849	 0.147849
H	 0.1471371668	-4.3727849781	 0.4064347902	 0.153794
H	 3.4270528298	-3.6201626839	 2.9873797527	 0.202278
H	 0.9559068528	-0.9148058383	 1.712826029	 0.263662
