19
gdb 45896	2.26017	1.70281	1.11972	2.6647	81.94	-0.2215	-0.0215	0.2001	1113.0211	0.160524	-385.909877	-385.901774	-385.900829	-385.942557	31.495	
O	 0.0074047415	-0.1135214253	 0.2663372029	-0.298771
C	-0.0111216316	 1.0857026703	 0.1305264416	 0.395986
C	-1.3395218538	 1.8576443374	 0.0627256172	-0.351088
C	-1.8516414085	 2.0197406095	-1.3573235583	-0.052742
C	-1.3214124574	 2.8145323914	-2.2859693764	-0.032782
C	-0.0772203067	 3.6557780734	-2.0883703464	-0.311719
C	 1.1839811721	 2.8493407732	-2.3202802551	-0.032782
C	 1.76131073	 2.0699406678	-1.4068000758	-0.052742
C	 1.2929628724	 1.8942301859	 0.0266771531	-0.351089
H	-2.0617210081	 1.2858902126	 0.6491419468	 0.1253
H	-1.2160156202	 2.8392526462	 0.5347971105	 0.114138
H	-2.7108955108	 1.4088945565	-1.6182003273	 0.101514
H	-1.7691180176	 2.8326982216	-3.2764070739	 0.094806
H	-0.0984294147	 4.5157822136	-2.7645726847	 0.106891
H	-0.0687879061	 4.0561950674	-1.0663770818	 0.109323
H	 1.6037204865	 2.8795531526	-3.3225992006	 0.094806
H	 2.6297332694	 1.4830943056	-1.6913360891	 0.101514
H	 1.1551990023	 2.8722109357	 0.5023182188	 0.114138
H	 2.0465524613	 1.3429907947	 0.5928894882	 0.1253
