17
gdb 37098	2.18357	2.04727	1.32214	1.7945	72.16	-0.2484	0.0413	0.2897	984.2617	0.136004	-417.892818	-417.88536	-417.884416	-417.924674	29.386	
C	-0.0257525264	 1.51253469	 0.0645256295	-0.297464
N	 1.2258818743	 0.7226706396	-0.0041891345	-0.365558
C	-0.0595714807	 0.0397567158	 0.0020966146	 0.278099
C	-0.4358919949	-1.0009892666	 1.0494382533	-0.077429
O	-1.8428716596	-1.2381732012	 0.90143925	-0.246087
C	-0.9457730076	-1.9116595736	 0.0073197294	-0.077345
C	-0.5915115737	-0.9113798973	-1.0861580009	 0.278011
C	-1.2241091213	-0.6309816904	-2.3881779898	-0.297475
N	 0.0992369495	-1.2926047972	-2.309449351	-0.365533
H	-0.1897927713	 2.028773511	 1.0061314773	 0.129396
H	-0.3432942037	 2.0647688433	-0.8168990378	 0.114495
H	 1.6205945801	 0.7530692966	-0.9427855957	 0.224729
H	 0.0278847209	-1.1982343528	 2.0077833448	 0.116776
H	-0.9768241915	-2.9927005416	-0.0456854652	 0.116774
H	-2.0289216363	-1.2602113062	-2.7574770707	 0.129387
H	-1.2709442019	 0.4047392948	-2.7164999286	 0.114482
H	 0.8451141142	-0.6347575142	-2.5298873145	 0.224744
