15
gdb 2350	5.34313	1.92113	1.63237	3.3177	57.18	-0.2512	-0.0209	0.2302	779.1238	0.123857	-345.648463	-345.641029	-345.640085	-345.681076	25.18	
C	 0.3227865939	 1.4513008422	-0.0319698011	-0.481302
C	-0.0684330587	-0.0072560701	 0.1179617345	 0.373577
O	-0.3123404512	-0.5015559798	 1.1945393921	-0.290573
C	-0.1079755217	-0.8159050225	-1.1674839957	-0.145935
C	 1.2634455111	-1.4142543724	-1.6048571148	-0.072564
O	 0.7696001979	-2.7537080691	-1.473105219	-0.266349
C	-0.5331827259	-2.2897986404	-1.0498720236	-0.085378
H	 1.2422336971	 1.5501822585	-0.620020525	 0.139558
H	-0.4608933544	 1.9891463718	-0.5786913924	 0.143817
H	 0.45716349	 1.9062626247	 0.9498293955	 0.146431
H	-0.5991552527	-0.2445385406	-1.9587462743	 0.092739
H	 1.5699827844	-1.1792509891	-2.6315295016	 0.10619
H	 2.1024149327	-1.2120330419	-0.92576332	 0.10847
H	-0.7709646957	-2.5992844197	-0.0276562609	 0.130498
H	-1.3236988068	-2.6128414117	-1.7364666437	 0.100819
