12
gdb 405	6.13748	3.07004	2.45758	1.2031	52.54	-0.2424	0.035	0.2774	544.2268	0.094491	-269.176442	-269.170213	-269.169268	-269.205661	23.372	
O	-0.0593283048	 1.3735816301	-0.073134681	-0.44268
C	 0.0015377584	-0.0277256881	-0.0178912088	 0.243346
C	-0.4671974108	-0.700548086	 1.2632813336	-0.313287
C	-1.347024927	-0.6959570912	 0.0390329751	-0.28994
C	 1.0726919798	-0.6300353868	-0.7698263175	 0.305981
C	 1.9952960848	-1.1021755736	-1.380629093	-0.500705
H	 0.7676683685	 1.7151743248	 0.2856896224	 0.28678
H	 0.0108892289	-1.6267253852	 1.5596404454	 0.126035
H	-0.731932203	-0.0289134727	 2.0719810531	 0.123217
H	-2.1946965997	-0.0206674288	 0.0313177995	 0.133043
H	-1.4799237904	-1.6180075771	-0.5132617483	 0.130009
H	 2.7991072152	-1.5234993553	-1.9318914504	 0.198201
