20
gdb 94945	3.18955	1.28345	1.01327	3.8132	78.92	-0.2427	0.0351	0.2778	1206.8522	0.172878	-403.191929	-403.183656	-403.182712	-403.224966	31.968	
C	-0.1142433948	 1.526710905	-0.0006783929	-0.412079
C	 0.0456562296	 0.0066194473	-0.0104689528	 0.023703
C	 0.8690656092	-0.5378596432	-1.1996547642	-0.197124
C	 1.2902726787	-1.9607820896	-0.7789320168	-0.244903
C	 1.5561574759	-1.8349712523	 0.735937928	-0.180534
C	 0.7821696419	-0.568241577	 1.2247177226	 0.028305
N	 0.0311235295	-1.460169587	 2.1202114063	-0.330872
C	 0.6245034069	-2.6264100056	 1.6922706281	 0.418439
O	 0.4425643163	-3.7823640112	 1.9654183762	-0.36572
H	 0.8616125964	 2.0227982238	 0.0581652112	 0.116219
H	-0.6100690528	 1.8794472549	-0.9107117194	 0.117594
H	-0.7107477532	 1.8634767515	 0.854016903	 0.112637
H	-0.9485038589	-0.4572575035	-0.0433617208	 0.076707
H	 0.315446899	-0.5135229549	-2.1436802589	 0.099088
H	 1.7620994077	 0.0873719279	-1.3351477561	 0.097493
H	 0.4789105282	-2.6725888597	-0.9654068118	 0.115666
H	 2.162753938	-2.3218362678	-1.3283978069	 0.106511
H	 2.6109833566	-1.8879930548	 1.0087305699	 0.096272
H	 1.361898746	 0.1913138907	 1.7590472764	 0.077749
H	-0.7842525999	-1.3065089145	 2.6959884687	 0.244848
