17
gdb 105962	3.1146	1.46837	1.17934	1.8786	71.56	-0.2135	0.0634	0.2768	1052.4259	0.134136	-421.696465	-421.688367	-421.687423	-421.729139	31.222	
O	-0.1121132051	 1.36184386	 0.0767223195	-0.420286
C	-0.0293947444	-0.055524729	-0.0087032886	-0.231089
C	-1.4237976472	-0.585518015	-0.0163305999	 0.280985
C	-2.6412190731	-0.1391839613	 0.7806512153	-0.133556
C	-3.2350498166	-1.5772932247	 0.725346009	-0.192049
C	-3.2403841435	-1.5067536114	-0.8107752015	-0.144184
C	-2.6547933123	-0.0658720109	-0.7433321396	-0.127961
C	-2.0296030422	-2.040657918	-0.0830089338	 0.300397
O	-1.4525622133	-3.2755221269	-0.227682068	-0.446828
H	 0.781275688	 1.7152834787	 0.040580972	 0.290253
H	 0.4976432592	-0.3705984884	-0.9246197878	 0.095679
H	 0.5311504449	-0.4721234484	 0.8461854113	 0.083097
H	-2.7128715981	 0.6550154439	 1.5116484824	 0.090399
H	-3.8949147394	-2.1325814675	 1.3788325217	 0.086269
H	-3.8947752115	-2.0082888259	-1.5105762401	 0.090397
H	-2.742824121	 0.7934325056	-1.3944935571	 0.08994
H	-1.1286203944	-3.5652782909	 0.6331514351	 0.288538
