14
gdb 904	7.48187	2.05024	1.62925	3.1927	60.5	-0.1822	0.0386	0.2207	744.091	0.115616	-320.79136	-320.784536	-320.783592	-320.821974	24.717	
C	-0.0165635803	 1.4528357045	-0.001531804	-0.335473
N	 0.0099974235	 0.0078474142	 0.0245198923	 0.032376
C	-0.0586654526	-0.8280096887	-1.0396770684	 0.001406
N	-0.0132134236	-2.0971382286	-0.6868640674	-0.322084
C	 0.0960792054	-2.0866178283	 0.680656307	 0.290233
N	 0.2337934489	-3.2882196262	 1.3817144089	-0.594497
C	 0.1135346813	-0.794117762	 1.1533726932	-0.213039
H	 0.9043550782	 1.8706873188	 0.4186227324	 0.141588
H	-0.1094697148	 1.787714914	-1.0365936863	 0.142724
H	-0.8677590479	 1.8404817709	 0.5681317756	 0.139796
H	-0.1444990715	-0.4571441097	-2.0507146601	 0.121234
H	-0.091769654	-4.0633480915	 0.8183098801	 0.246987
H	-0.2312983929	-3.2884726848	 2.2794939886	 0.238922
H	 0.1955269503	-0.3752546526	 2.1419365582	 0.109827
