16
gdb 84590	2.36281	2.07267	1.31088	2.8286	69.64	-0.2671	-0.0144	0.2527	950.5854	0.126169	-437.889133	-437.882008	-437.881064	-437.920679	28.12	
O	 0.2826800185	 1.201664069	-0.6501906169	-0.435134
C	 0.0855732062	-0.0716576866	-0.0791908626	 0.0952
C	 0.5036856526	-0.1827979318	 1.3793931187	-0.094407
C	-0.4157500824	-0.7530426101	 2.1598506486	-0.089312
C	-1.660837074	-1.0820345576	 1.3911425363	 0.059115
O	-2.7146251023	-0.0436805585	 1.5833192065	-0.26739
C	-2.3797130657	 0.5312736448	 0.3850314545	 0.431827
N	-2.7204588178	 1.6277626632	-0.1301716906	-0.550307
C	-1.3919261754	-0.5387541344	-0.0282865423	-0.223115
H	-0.5039201636	 1.739674147	-0.4744442354	 0.298435
H	 0.6798600995	-0.7655069042	-0.687802772	 0.096714
H	 1.47084143	 0.1837547371	 1.7056168282	 0.116028
H	-0.3270302332	-0.9322446434	 3.2249205547	 0.112522
H	-2.0901545238	-2.073566087	 1.5359610577	 0.102514
H	-3.3664936592	 2.1427182177	 0.4705956006	 0.233311
H	-1.7101638192	-1.1410608853	-0.8776377759	 0.114001
