17
gdb 17102	4.92917	1.57974	1.47671	4.4032	70.08	-0.2318	0.0392	0.271	889.3775	0.144852	-363.870442	-363.863822	-363.862878	-363.9028	25.415	
O	-0.003959863	 0.0096575729	 0.0999609163	-0.347621
C	 0.0417541842	 1.2247131409	 0.0803455968	 0.128474
N	 1.178514181	 1.9507792746	 0.0881015366	-0.01292
C	 2.5478881217	 1.4112629391	 0.0502202714	-0.169625
C	 3.2888034738	 2.7600368541	-0.072058468	-0.052575
C	 2.5293723304	 3.6319027054	 0.9799379613	-0.221079
C	 1.3585076734	 3.4017989217	-0.0169611666	-0.005743
C	 2.4250521846	 3.4979015183	-1.1458244879	-0.222208
H	-0.8616487964	 1.8682937722	 0.062133972	 0.063488
H	 2.789633847	 0.8587162193	 0.9634487606	 0.123367
H	 2.6929703434	 0.7475428914	-0.8076162737	 0.125264
H	 4.37539299	 2.7197474649	-0.1228585497	 0.079343
H	 2.4101773221	 3.2411540712	 1.993271161	 0.105548
H	 2.8764237643	 4.6661311422	 0.9973689044	 0.107867
H	 0.424227442	 3.9606503476	-0.0056358854	 0.084947
H	 2.7631029621	 4.5193749545	-1.3273244667	 0.107905
H	 2.2101503494	 2.9836295097	-2.0856737526	 0.105569
