17
gdb 79331	2.97629	1.85908	1.6559	1.5113	70.27	-0.2259	0.0046	0.2305	872.9491	0.138847	-421.821128	-421.814676	-421.813732	-421.851523	27.466	
O	 0.0398448922	 1.4090467419	 0.0566109239	-0.449346
C	 0.022946295	-0.0067274376	 0.0522223858	 0.152262
C	-1.3856518619	-0.5456673688	-0.139933409	-0.160448
C	-1.5025871594	-0.7205402616	-1.6237821117	 0.078279
O	-0.2892917855	-0.3846936374	-2.2361540172	-0.268588
C	 0.7188855844	-0.6031121407	-1.2002070829	-0.040348
C	 0.9122265118	-2.0841886432	-1.0407948068	-0.096397
C	-0.2169795529	-2.7585703956	-0.7995436631	-0.050125
C	-1.4609426433	-1.9654754567	-0.7233337709	-0.136292
H	-0.3159195371	 1.691927998	-0.7945670397	 0.287546
H	 0.5090043257	-0.329072909	 0.9749939493	 0.096841
H	-2.1846137914	-0.1809219775	 0.4917172992	 0.101106
H	-2.3654139877	-0.4956477468	-2.236465373	 0.109967
H	 1.6103543975	-0.0500544482	-1.4924899829	 0.086698
H	 1.884094654	-2.5455580252	-1.1643810651	 0.097564
H	-0.2617710667	-3.8395803811	-0.7207212045	 0.100676
H	-2.3995602148	-2.4860034403	-0.5745227315	 0.090605
