19
gdb 22302	2.54005	1.27252	0.87703	3.1138	87.4	-0.187	-0.0032	0.1838	1307.0555	0.160955	-419.2007	-419.192073	-419.191128	-419.233675	33.908	
N	 0.0432769587	 1.387035782	-0.1451273256	-0.562973
C	-0.0197491881	 0.013221275	-0.0116685184	 0.33972
C	-1.1902942931	-0.6634629088	 0.0674914912	-0.247327
C	-1.2444185011	-2.1093964518	 0.061164469	 0.368421
C	 0.0447706071	-2.8603817869	-0.1806174546	-0.277791
C	 1.2225141677	-2.1304944396	 0.4757523243	-0.219748
C	 1.3166372325	-0.6897330344	-0.0408682554	-0.2831
N	-2.295675408	-2.8353543488	 0.2272514268	-0.244242
O	-3.4536821131	-2.0461964841	 0.4176727322	-0.407303
H	 0.858474682	 1.8410930784	 0.2386412589	 0.247309
H	-0.8129212119	 1.8926497254	 0.0297009045	 0.252383
H	-2.1290589464	-0.1255132154	 0.1242830073	 0.089724
H	-0.0570178072	-3.8831473477	 0.1895321564	 0.113725
H	 0.2237735353	-2.9249134542	-1.2634880371	 0.10734
H	 1.0815318065	-2.1176176992	 1.5629620759	 0.108889
H	 2.1608176289	-2.6590372659	 0.2792994364	 0.096221
H	 1.6970716409	-0.6784866467	-1.0721123477	 0.123886
H	 2.043212613	-0.1168834967	 0.5514318873	 0.095859
H	-4.1335753637	-2.7204543506	 0.5080001086	 0.29901
