12
gdb 28669	5.99687	1.04412	0.88928	3.0269	71.47	-0.2764	-0.0693	0.207	1172.41	0.080571	-431.746997	-431.740212	-431.739268	-431.778518	25.053	
O	 0.0721286238	 1.3074464818	 0.1045152391	-0.372118
C	 0.062164694	-0.0225044138	 0.0574323553	 0.478766
N	 0.0918258103	-0.5899224343	-1.1558706698	-0.342002
C	 0.0812885722	-1.9153333089	-1.1810125625	-0.032784
C	 0.0415107204	-2.6836930058	-0.0107407768	 0.076292
C	 0.0133226927	-1.9642288369	 1.1940407367	-0.031036
N	 0.0232551503	-0.6406664458	 1.2395913552	-0.282143
C	 0.0303813337	-4.1063790568	-0.042428161	 0.209989
N	 0.0213502978	-5.2639633629	-0.0690987642	-0.322419
H	 0.1008023591	 1.6203783548	-0.810732862	 0.316109
H	 0.1049828704	-2.3926331382	-2.1568909122	 0.150232
H	-0.0182209945	-2.4884658132	 2.1456422822	 0.151114
