18
gdb 113688	3.71278	0.93069	0.77821	3.2804	70.72	-0.26	0.0254	0.2854	1457.8262	0.146108	-476.223748	-476.213946	-476.213002	-476.259511	33.721	
C	 0.3397197907	 1.232062008	 0.1320643725	-0.23186
O	-0.0153064565	-0.130240855	-0.1343074673	-0.238547
C	 0.5184116673	-0.6415160841	-1.2602585803	 0.483236
O	 1.2679134317	-0.051271567	-2.0011851981	-0.399659
N	 0.0274519995	-1.91556307	-1.5042273282	-0.146407
C	 0.0407432321	-3.0167065952	-0.5596149335	-0.257659
C	 0.9069129284	-3.0396705725	-1.7841009887	-0.026325
C	 0.5791843627	-3.825182847	-3.0289300049	-0.064449
O	 1.0829936316	-3.179535218	-4.1814605196	-0.41845
H	 1.4220138331	 1.3362464195	 0.2413572447	 0.141552
H	 0.0039092378	 1.8830835073	-0.6788974527	 0.143613
H	-0.1651374293	 1.4910604273	 1.0628172968	 0.134317
H	 0.5260462797	-2.856722086	 0.3990767056	 0.135218
H	-0.8697774615	-3.6085757458	-0.5216996076	 0.12876
H	 1.9691969731	-2.854812726	-1.631420129	 0.117632
H	 1.0531273729	-4.8121286356	-2.9920493427	 0.112287
H	-0.5110735093	-3.9742592398	-3.0820928901	 0.091393
H	 0.822266056	-2.25209372	-4.1263023169	 0.29535
