23
gdb 59649	2.73972	1.13812	1.04081	1.9402	81.67	-0.2509	0.0776	0.3285	1317.9163	0.205576	-425.44892	-425.439155	-425.438211	-425.483923	37.004	
C	-0.2886282862	 1.5213895349	 0.1671830749	-0.403306
C	 0.1491940745	 0.0742278428	-0.0703938403	 0.123115
O	 1.1135064932	-0.0125529127	-1.1092933512	-0.439991
C	 0.7018318543	-0.579694426	 1.2055287447	 0.134357
C	 1.0256278681	-2.0701639366	 1.0828741658	-0.244218
C	 2.1588771862	-2.2435654479	 2.1035347373	-0.252075
C	 2.8972667657	-0.887688857	 2.0450624987	 0.150764
C	 4.1548666219	-0.8965855345	 1.1818730305	-0.397611
O	 1.9562844348	 0.0516973122	 1.4941660747	-0.308095
H	 0.5451594067	 2.1109526247	 0.5611206865	 0.126474
H	-0.621747764	 1.9703181605	-0.7720022724	 0.1192
H	-1.1111962364	 1.5710796786	 0.8890504809	 0.106801
H	-0.7110042897	-0.5160487417	-0.4101348118	 0.081887
H	 1.9316232093	 0.3192180732	-0.7156593833	 0.281218
H	 0.0020738256	-0.4037553649	 2.0386978918	 0.060818
H	 0.1607169003	-2.7053829906	 1.2890275117	 0.099004
H	 1.3700539659	-2.2751311106	 0.0649748306	 0.121397
H	 1.7485376053	-2.4093919015	 3.1047559638	 0.102632
H	 2.8212938273	-3.0821530944	 1.8745595933	 0.104547
H	 3.1578584755	-0.5438458235	 3.0546575925	 0.0759
H	 3.9406484765	-1.2968357241	 0.1849634933	 0.121217
H	 4.5451260055	 0.1191646807	 1.0683385934	 0.122145
H	 4.9344487497	-1.5131080216	 1.6414222046	 0.113821
