15
gdb 30544	5.53029	0.97316	0.82757	4.2401	85.49	-0.217	-0.0413	0.1757	1314.9705	0.114825	-413.049239	-413.041102	-413.040158	-413.083413	28.614	
N	 0.0133664372	 1.368453029	-0.0173497637	-0.491832
C	 0.0521617409	 0.0204368161	-0.0023720207	 0.135859
N	 1.1667607102	-0.6203505967	-0.0281765019	-0.360816
C	 1.1241269552	-2.0108652988	-0.028865023	 0.380499
N	-0.0315578217	-2.690418246	-0.0294006199	-0.320696
C	 0.0510763343	-4.0204685112	-0.0298865584	-0.020327
C	 1.2689758007	-4.690634878	-0.0309693674	-0.027992
N	 2.4307730352	-4.0255439263	-0.0312862995	-0.234828
C	 2.3521728323	-2.7015744191	-0.0303214922	-0.056595
H	 0.8771985548	 1.8861652912	-0.008393427	 0.269803
H	-0.8540679916	 1.8659057642	 0.0618581898	 0.270113
H	-0.9228108195	-0.4729346025	 0.0242731172	 0.130448
H	-0.8870145892	-4.5719130162	-0.0303629869	 0.106136
H	 1.3139933765	-5.7758758983	-0.0323285012	 0.107518
H	 3.2776666146	-2.1327154374	-0.0306134053	 0.112708
