16
gdb 127880	2.75446	1.62506	1.03516	1.0671	78.41	-0.237	-0.087	0.15	1114.9397	0.124671	-430.219344	-430.210946	-430.210002	-430.252823	29.777	
C	 0.0701144291	 1.4389355299	 0.0649223107	-0.333598
N	 0.0071273362	-0.0112917427	 0.0712394996	-0.345153
C	-1.1219650832	-0.5845874997	-0.0015424517	 0.480477
N	-2.3810813167	 0.0010071162	-0.0916476732	-0.294632
C	-3.3913436526	-0.7947806865	-0.154677255	 0.108854
N	-3.3805394274	-2.179677828	-0.143786038	-0.225731
N	-2.2304521838	-2.7438177221	-0.0612915297	-0.045335
N	-1.1359694345	-2.0090195349	 0.007880149	-0.033121
C	 0.1224230592	-2.7363835425	 0.098988864	-0.311395
H	 0.6920908387	 1.7658798508	-0.7765954095	 0.124463
H	-0.9069030051	 1.927939321	-0.0048770229	 0.134462
H	 0.5731977605	 1.7786780728	 0.9778135379	 0.12446
H	-4.3888024946	-0.3660281969	-0.2258084149	 0.141675
H	-0.1155184316	-3.7990457911	 0.090549884	 0.153511
H	 0.7621687349	-2.4658884625	-0.7439296239	 0.160531
H	 0.6421401511	-2.4529940937	 1.0168885536	 0.160533
