14
gdb 2476	5.29239	2.73393	2.46416	2.0133	56.61	-0.2197	-0.0129	0.2069	589.838	0.115987	-324.55226	-324.547035	-324.546091	-324.581099	20.824	
O	 0.0321170886	 0.0503006786	-0.0428706518	-0.326996
C	 0.0277811724	 1.2496786755	-0.00292142	 0.423835
C	-1.1686715509	 2.2341192231	 0.0335431457	-0.285729
N	-0.4613050503	 3.5453680344	 0.0750038092	-0.121588
C	 0.6192732126	 3.2985525915	-0.9639721448	-0.187825
C	 1.1877306032	 2.2387955031	 0.0264090752	-0.139643
C	 0.6256260383	 3.2302309648	 1.0885658299	-0.187826
H	-1.7995338468	 2.1514760322	-0.855863578	 0.132329
H	-1.7940484607	 2.0923841952	 0.9193629074	 0.132328
H	 0.2595707074	 2.9748270257	-1.9445943718	 0.115492
H	 1.2539293331	 4.1815633084	-1.0652374319	 0.120951
H	 2.1977342587	 1.833947703	 0.0098071714	 0.088229
H	 1.261078219	 4.1046836435	 1.2443992319	 0.120951
H	 0.2719272853	 2.8419381912	 2.0476955976	 0.115492
