16
gdb 44454	4.21485	1.4792	1.34748	3.7493	70.63	-0.2523	0.0234	0.2757	954.4612	0.125396	-437.811882	-437.805374	-437.80443	-437.842659	26.788	
N	-0.0274290222	 1.224478484	-0.2157274605	-0.527981
C	-0.0079804669	-0.0196575168	-0.0414817573	 0.426108
C	-1.2595375283	-0.9273373967	-0.0696194898	-0.442388
C	-0.5736948125	-2.2430707514	-0.2575945028	 0.382798
C	-0.468983155	-3.7812036794	-0.1488274709	-0.320923
C	 0.8839510551	-3.1985811733	-0.7048667922	-0.001149
O	 0.1048912965	-2.3361174111	-1.5911798524	-0.333174
C	 0.7983197664	-2.1083674464	 0.4032907834	 0.105879
O	 1.1460433949	-0.7541396159	 0.2111536174	-0.252538
H	 0.9126341284	 1.6174106483	-0.1489496808	 0.229543
H	-1.7918999831	-0.8653808802	 0.8849278856	 0.139363
H	-1.9285544658	-0.6271981856	-0.875585176	 0.156953
H	-0.4874336595	-4.2288539888	 0.8481165778	 0.1096
H	-1.0353846445	-4.3463940282	-0.8873876251	 0.128233
H	 1.735557158	-3.73302717	-1.1246489723	 0.108687
H	 0.9510576485	-2.4155067286	 1.440881596	 0.09099
