18
gdb 80772	3.48881	1.07695	0.95899	4.8637	73.82	-0.2417	0.0377	0.2793	1246.6171	0.148395	-439.076869	-439.068506	-439.067562	-439.110377	31.517	
O	-0.0877572616	 1.4088174823	 0.0362575116	-0.427812
C	-0.1024436197	 0.0010578429	 0.0192653243	 0.095685
C	-0.4261131363	-0.8246702429	 1.2261680298	-0.116445
C	-1.4214200841	-0.081885524	 2.1232923547	-0.259834
C	-2.4324563241	-0.0252034224	 0.9264335535	 0.045692
N	-2.9388557262	 1.2536623269	 0.491108778	-0.280733
C	-4.2589688639	 1.5722132499	 0.4882574731	 0.150756
O	-5.162596359	 0.8434075954	 0.8449134548	-0.331885
C	-1.4059497984	-0.7212634537	 0.0242571456	-0.114353
H	 0.6746021126	 1.6972244895	 0.5495917424	 0.29172
H	 0.643117157	-0.4369575447	-0.6439269203	 0.097412
H	 0.1888538932	-1.6632717505	 1.5289037489	 0.093467
H	-1.7960866134	-0.6814662822	 2.9545487742	 0.114781
H	-1.0851856779	 0.8860109018	 2.5049237629	 0.092444
H	-3.3005272176	-0.6544204621	 1.1193405008	 0.124568
H	-2.258184956	 1.9267832304	 0.1728041022	 0.259874
H	-4.4300905435	 2.6008646943	 0.1118660198	 0.069311
H	-1.651972691	-1.4497371806	-0.7394692164	 0.095352
