19
gdb 67826	3.05067	1.79826	1.46296	1.3473	79.03	-0.2117	0.0159	0.2276	960.1339	0.16119	-385.884788	-385.87769	-385.876746	-385.915786	29.384	
C	-0.0150781001	 1.5267226574	 0.0389405248	-0.496386
C	 0.0061315015	 0.0195831875	-0.0492722049	 0.26919
C	 0.9125941453	-0.6700097393	-1.017735948	-0.120167
C	 0.4105069214	-1.8353818756	-1.4263416591	-0.089083
C	-0.8774016036	-2.1621354471	-0.6848649763	-0.125132
C	-0.5066215546	-2.9955578439	 0.5624884398	-0.070624
O	 0.165850069	-2.064636835	 1.4221515216	-0.256503
C	-0.3979178884	-0.799678922	 1.1939878891	 0.057364
C	-1.2663645408	-0.8184118044	-0.0199338797	-0.161541
H	 0.9635619826	 1.9200537668	 0.3370793359	 0.121557
H	-0.277788693	 1.9776870018	-0.9249285348	 0.120964
H	-0.7476045434	 1.87138336	 0.7761934986	 0.115405
H	 1.8713544042	-0.2549396878	-1.3081175069	 0.093942
H	 0.9065864769	-2.5486050448	-2.0748839735	 0.09462
H	-1.6608981462	-2.6265361855	-1.2889018176	 0.07352
H	-1.4060514291	-3.3970438634	 1.0560668175	 0.087484
H	 0.184673805	-3.8178941701	 0.3579852606	 0.107855
H	-0.6581258872	-0.2636228488	 2.1023495203	 0.092148
H	-2.2667691095	-0.4058315358	-0.0713174473	 0.085387
