20
gdb 103894	4.48971	0.72502	0.69055	1.9266	76.76	-0.2437	-0.0256	0.2181	1639.1676	0.167403	-440.25505	-440.244741	-440.243796	-440.291144	36.61	
C	-0.0223999838	 1.6598003521	-0.1823156648	-0.465526
C	-0.0633986203	 0.1531994355	-0.0202338729	 0.29129
C	-1.3896145333	-0.4805915099	-0.4156149603	-0.114682
O	-1.7275853366	-0.235439786	-1.7722488448	-0.411159
C	 1.1860146468	-0.6520573687	-0.1956866127	-0.305341
N	 0.56574759	-0.514979341	 1.1221629293	-0.126224
C	 1.2652302171	 0.2566148676	 2.1350512289	-0.231965
C	 2.0023477048	-0.6820095469	 3.0800702311	 0.15911
O	 2.9917640383	-0.3800761515	 3.6933741472	-0.238478
H	 0.9812827784	 2.0724764476	-0.0616281419	 0.118843
H	-0.384154332	 1.9187055827	-1.1808464297	 0.140894
H	-0.6847053902	 2.1469022054	 0.5432364664	 0.122391
H	-1.3551935991	-1.5539745975	-0.1832952406	 0.097979
H	-2.201650903	-0.0408781274	 0.1748268033	 0.110615
H	-1.0587550331	-0.6597728309	-2.3200886552	 0.284357
H	 1.1596248595	-1.6499006008	-0.6290991326	 0.111703
H	 2.1091111609	-0.1040677046	-0.380556494	 0.115523
H	 1.9814977985	 1.0015428211	 1.7600122152	 0.117065
H	 0.5223906655	 0.7943987024	 2.7425972059	 0.134322
H	 1.5303353915	-1.6855056791	 3.1684965425	 0.089282
