21
gdb 91559	2.693	1.25389	1.01803	0.6407	87.72	-0.247	0.0522	0.2992	1256.5537	0.181202	-349.898366	-349.889095	-349.888151	-349.9324	35.68	
C	-0.1567221003	 1.5269990937	-0.1266334306	-0.411011
C	 0.0857739926	 0.0226252734	-0.1111352355	-0.024021
C	 1.2936277699	-0.5741039649	-0.9163370883	-0.247417
C	 1.7928007005	-1.2534419209	 0.3640089547	-0.120396
C	 2.0597503439	-0.2126888098	 1.4184778583	-0.320531
C	 0.6412923626	-0.6412811038	 1.1654930456	 0.382497
C	-0.221774519	-1.2671025806	 2.2393266832	-0.477044
C	-0.9209575566	-0.280037577	 3.0613039345	 0.323761
C	-1.4932930707	 0.5453432078	 3.7220205231	-0.464173
H	 0.7434412857	 2.0845953289	 0.1519366465	 0.11276
H	-0.457371817	 1.8630364161	-1.1253746485	 0.109293
H	-0.9491898279	 1.8009524253	 0.5768765506	 0.127223
H	-0.8335850845	-0.4937858843	-0.4094393441	 0.070257
H	 0.9791631558	-1.2706113232	-1.6966093526	 0.099856
H	 1.9828697182	 0.1546072268	-1.3577574795	 0.093588
H	 2.2108736688	-2.2514750003	 0.4289261936	 0.082781
H	 2.4891280193	-0.5853958654	 2.3436090179	 0.10902
H	 2.413447509	 0.7767734127	 1.1387191103	 0.105316
H	-0.9611534423	-1.9353541703	 1.7760244761	 0.126475
H	 0.3991099801	-1.9027071984	 2.8843553102	 0.127242
H	-1.9977358781	 1.2687473943	 4.3131200245	 0.194526
