16
gdb 87943	3.97623	1.12427	1.01519	5.013	65.67	-0.2538	0.0531	0.3069	1161.8878	0.124491	-475.048833	-475.040709	-475.039765	-475.082036	30.286	
O	-0.0226669113	 1.3885298718	-0.0301816479	-0.419061
C	-0.0083540705	-0.0072148434	-0.0264376241	 0.017601
C	-0.4921510079	-0.7698187747	 1.1992562764	-0.388816
C	-1.3453479106	-0.6606982134	-0.033872271	 0.423804
C	-2.6487889227	 0.1356237039	-0.0973124676	-0.248753
N	-3.5169790707	-0.8625749291	-0.6901418481	-0.370585
C	-2.8264209844	-1.9228210511	-1.2244382925	 0.461609
O	-3.2397833361	-2.8150461112	-1.9090858113	-0.389213
O	-1.5147061166	-1.8201868888	-0.8273289502	-0.272796
H	 0.6968182026	 1.7000879362	 0.529160339	 0.295606
H	 0.7693389476	-0.479842631	-0.6252624879	 0.111225
H	-0.029111725	-1.7280754748	 1.4066814683	 0.135709
H	-0.7965256352	-0.1924632819	 2.0667134028	 0.121742
H	-2.9928995861	 0.4441834585	 0.8945293373	 0.122932
H	-2.5392039389	 1.0328871575	-0.719003179	 0.134252
H	-4.4231736941	-0.6472564484	-1.0696040442	 0.264745
