22
gdb 13404	5.36447	1.00087	0.90072	1.4664	78.96	-0.2374	0.0872	0.3246	1371.0478	0.201001	-350.224637	-350.215667	-350.214723	-350.259248	32.46	
C	 0.0334294941	 1.5546553483	-0.0541179495	-0.38151
C	-0.0035965887	 0.0244813478	-0.055068439	-0.163979
C	-1.4264850274	-0.5398784576	 0.0176434445	-0.17809
C	-1.4781798597	-2.0637521714	-0.0066750392	 0.155149
C	-2.8853187585	-2.6726642028	 0.058907426	-0.239468
C	-2.6947519191	-4.0051166312	-0.6774793742	-0.23177
C	-1.6861880486	-3.6149828102	-1.7658998789	-0.055499
O	-0.9088817961	-2.5441062524	-1.2336128905	-0.278783
H	 1.0604537672	 1.9293556502	-0.1084843367	 0.109851
H	-0.5151284332	 1.9643308769	-0.9097873629	 0.112486
H	-0.4222540924	 1.9642171174	 0.8548552127	 0.108885
H	 0.4793532889	-0.36260099	-0.9585378956	 0.117254
H	 0.5797066015	-0.3579535893	 0.7933993884	 0.088953
H	-1.918709294	-0.1905054091	 0.9360810854	 0.08675
H	-2.0198058251	-0.1593029544	-0.824549951	 0.091718
H	-0.8725607256	-2.4534565806	 0.8301250167	 0.060036
H	-3.2454464545	-2.7866452388	 1.0843131113	 0.100448
H	-3.5946262729	-2.0333972935	-0.4804114789	 0.100388
H	-2.2615763974	-4.7533125811	-0.0049206804	 0.10598
H	-3.620477726	-4.416971898	-1.0868095184	 0.101274
H	-1.0182549552	-4.4381631682	-2.0451347272	 0.098993
H	-2.2000811774	-3.2762671519	-2.6781049126	 0.090932
