18
gdb 8525	4.39928	1.876	1.59552	2.0589	70.59	-0.2281	0.0705	0.2987	853.5102	0.152572	-347.712072	-347.704935	-347.703991	-347.742807	28.648	
C	-0.1185933748	 1.5654673494	-0.001915165	-0.450779
C	-0.0655779335	 0.0388445202	-0.0063753068	 0.293141
C	-1.4277910761	-0.5615159523	-0.3489400486	-0.450778
C	 1.1669019639	-0.6067061235	-0.6993026076	-0.124971
C	 2.0983648953	-0.3258695165	 0.522672727	 0.079853
O	 2.5848955754	-1.6958888906	 0.626826993	-0.33491
C	 1.1755768307	-1.8250703225	 0.2780593309	 0.079854
C	 0.7073411785	-0.6281308299	 1.1656448694	-0.124973
H	 0.8503171767	 2.0117371653	 0.2421184705	 0.113586
H	-0.4244508941	 1.9490196759	-0.9821635397	 0.115393
H	-0.8470870873	 1.9293414389	 0.7318694432	 0.115391
H	-1.7647527822	-0.2280628077	-1.337278627	 0.115391
H	-1.4069264531	-1.6555930343	-0.3564907264	 0.113586
H	-2.18704587	-0.247943451	 0.3768369538	 0.115393
H	 1.4550560459	-0.6123329468	-1.7518207848	 0.076099
H	 2.7986861251	 0.4879496621	 0.7045944489	 0.096313
H	 0.7595296691	-2.8249474122	 0.1640508593	 0.096313
H	 0.4735696206	-0.6580939044	 2.2311550599	 0.076099
