17
gdb 25746	2.72351	1.51471	0.98061	3.7927	79.57	-0.1867	-0.0093	0.1774	1163.2999	0.136858	-418.078451	-418.069833	-418.068889	-418.111555	32.656	
C	 0.0330248681	 1.4977530861	-0.0037247775	-0.485161
C	 0.0297529153	-0.0215212792	 0.0354835841	 0.301246
O	 1.0958083812	-0.6414946163	 0.0386487914	-0.383144
C	-1.2489787243	-0.6977678667	 0.0591685146	 0.131278
C	-1.3673948609	-2.0940899992	 0.0471648953	 0.305673
N	-0.3705132756	-3.0344956175	 0.1292634306	-0.602929
N	-2.6913865855	-2.4010005638	 0.0145601616	-0.316455
C	-3.4516550666	-1.2290734101	 0.0144008557	-0.083604
C	-2.5918137117	-0.1752641359	 0.0434147457	-0.271233
H	 1.0634845211	 1.8545818343	-0.0165898464	 0.133185
H	-0.4922342058	 1.8636458426	-0.8926707192	 0.133263
H	-0.4853015749	 1.9080759697	 0.8698388577	 0.133966
H	 0.5354475009	-2.5832095314	 0.0175582571	 0.280115
H	-0.4922591208	-3.8682461803	-0.4283721047	 0.243314
H	-3.0645941409	-3.3332878125	 0.0662383214	 0.259535
H	-4.527388061	-1.2775573402	-0.0106940027	 0.122417
H	-2.8725668287	 0.8664069702	 0.0431894153	 0.098534
