20
gdb 11754	4.98002	1.32528	1.22713	0.8562	75.46	-0.2392	0.0932	0.3324	1077.5622	0.176172	-348.967048	-348.958608	-348.957663	-348.999702	31.842	
C	-0.2650632652	 1.3133442144	 0.0084624989	-0.256603
O	 0.1707336213	-0.0305426482	 0.1181551588	-0.281533
C	 0.7556610495	-0.5090887925	-1.0350989745	 0.46384
C	-0.0517547029	-0.9715957405	-2.2153974272	-0.3417
C	 0.8434851535	-1.9543184105	-1.4819535247	-0.158161
C	 2.3188241322	-1.7598237069	-1.876438366	 0.042355
C	 2.7519140498	-2.0836994983	-3.3006788181	-0.402211
C	 2.2158859003	-0.2530063531	-1.4378046487	-0.328343
H	 0.5723728036	 1.9985579138	-0.1864320186	 0.110642
H	-1.0055459406	 1.4306512168	-0.7952645884	 0.109812
H	-0.724240189	 1.5802106072	 0.9630391418	 0.125153
H	-1.1082550242	-1.1026099725	-2.0033466998	 0.11328
H	 0.1684976124	-0.6454242707	-3.2292598054	 0.100932
H	 0.4289847062	-2.8398200108	-1.014985793	 0.089057
H	 2.9614761678	-2.2959089731	-1.1712897071	 0.077206
H	 2.1279787612	-1.5721989383	-4.0408821322	 0.11389
H	 3.7895265524	-1.7777642584	-3.4741518234	 0.112791
H	 2.684149715	-3.1594650612	-3.4968043524	 0.114347
H	 2.3829196053	 0.4978915894	-2.2176073884	 0.088948
H	 2.8530887713	-0.0254570769	-0.5802164417	 0.106297
