17
gdb 70129	2.41499	1.98701	1.26415	1.2259	73.92	-0.2388	-0.0137	0.2252	992.1132	0.138008	-418.054629	-418.046966	-418.046022	-418.086506	29.863	
C	-0.0643035347	 1.5150758973	 0.0002360427	-0.462597
C	 0.0111434626	 0.0047853493	-0.0158257928	 0.163603
C	-0.7897709994	-0.7842296866	 1.0062014434	-0.327236
C	 0.7049618956	-0.7705908122	 1.1315819584	-0.026271
N	 1.4426897838	-1.9601897171	 0.8749604757	-0.236125
C	 1.3697222747	-2.4531295152	-0.2938112339	 0.078456
N	 0.6882404345	-1.89385731	-1.3686255772	-0.351994
C	 0.1636108169	-0.600434039	-1.365587447	 0.387697
O	-0.1087305169	-0.0381779128	-2.4064372338	-0.362578
H	 0.8218577169	 1.9615443449	-0.4605089293	 0.131124
H	-0.9377896079	 1.8616864981	-0.558863099	 0.140714
H	-0.1410526419	 1.8840871738	 1.0271709029	 0.112148
H	-1.3627587281	-0.1985973138	 1.7163036434	 0.128133
H	-1.2602814518	-1.7111197273	 0.6969797021	 0.131255
H	 1.1232487932	-0.1660347878	 1.9299385286	 0.105907
H	 1.881875705	-3.3849772112	-0.5263147715	 0.128355
H	 0.8152987376	-2.2902078303	-2.2895264026	 0.259411
