17
gdb 83908	2.48567	1.53794	1.23636	4.0364	74.	-0.2382	0.0141	0.2522	1056.7881	0.137775	-417.997354	-417.989309	-417.988365	-418.029873	30.546	
N	-0.0348769625	 1.4935248154	 0.0013247962	-0.512154
C	-0.0549447575	 0.0611790677	-0.0048201346	-0.05002
C	-1.3458950397	-0.7144874685	 0.0301214747	-0.126127
C	-2.6409628952	 0.0128420982	-0.3269676546	-0.264803
C	-2.5770967137	 0.0870870578	-1.8649246093	-0.089667
O	-1.1746221395	 0.094655994	-2.1925796687	-0.301342
C	-0.5143194012	-0.7126595365	-1.2509446879	 0.247254
C	 0.1757958456	-1.8606349345	-1.761423521	 0.235594
N	 0.7622404239	-2.7831568576	-2.1429132886	-0.351676
H	 0.9247612417	 1.8178897321	-0.0643927804	 0.243836
H	-0.5091284435	 1.8386173908	-0.8299886297	 0.245975
H	 0.7630003773	-0.387514	 0.5495116843	 0.116345
H	-1.3871629902	-1.6063169453	 0.6431365517	 0.11867
H	-3.5184131146	-0.5373668972	 0.0190886567	 0.119864
H	-2.6647169394	 1.0101067302	 0.1234315134	 0.131626
H	-3.0583563857	-0.7874983577	-2.3230636392	 0.116993
H	-3.0124323459	 0.9936322212	-2.2916767428	 0.119632
