13
gdb 42307	3.60052	1.20894	0.98615	3.9501	63.84	-0.2757	-0.0962	0.1796	1118.7137	0.089678	-452.766874	-452.759086	-452.758142	-452.800663	26.65	
O	 0.3656996105	 0.5520780426	-1.3928248776	-0.261627
C	 0.0659865058	 1.3763175784	-0.5683043406	 0.290992
C	 0.9547464185	 1.6506089089	 0.574945921	 0.266708
N	 1.6834725968	 1.8813328512	 1.4421393702	-0.296352
C	-1.2143456322	 2.212592885	-0.5990726826	-0.111008
C	-2.1874307379	 1.7974833407	-1.7247208798	-0.131502
O	-3.3490109184	 1.3113778599	-1.0045424498	-0.208238
C	-3.0670044098	 1.4809223728	 0.2999267258	 0.140142
N	-1.953063564	 1.9776189664	 0.6578759896	-0.272422
H	-0.9126628312	 3.2660897048	-0.6548828883	 0.131516
H	-2.5007721042	 2.6322373563	-2.3539764404	 0.13359
H	-1.7913705639	 0.9895238481	-2.3423545403	 0.156782
H	-3.85258142	 1.1682658251	 0.9784926828	 0.16142
