22
gdb 102676	3.08294	0.71916	0.61285	5.195	84.24	-0.2644	0.0428	0.3073	1836.9132	0.191966	-404.362134	-404.351069	-404.350125	-404.399618	38.38	
C	 1.1388853942	 1.8912816378	-0.1866093292	-0.393289
C	 0.4082172455	 0.5476860856	-0.2970448122	-0.196667
C	 1.0535754303	-0.4788474143	-1.2562693349	 0.131412
C	 0.8823048418	-1.9094875017	-0.7381033474	-0.20439
C	 1.4979402901	-2.9507699526	-1.6919122312	-0.344778
C	 1.337878177	-4.318295054	-1.2056632622	 0.255365
N	 1.2046335319	-5.3945021911	-0.8058556608	-0.310124
O	 0.4785808596	-0.4705479372	-2.5579109222	-0.248231
C	 0.7767886534	 0.64822564	-3.3615142298	-0.236894
H	 2.1649433771	 1.7502031054	 0.1706032328	 0.118391
H	 1.1941212699	 2.416430625	-1.1441350994	 0.119963
H	 0.6314986965	 2.5516575462	 0.523393584	 0.120003
H	 0.3518395212	 0.1024792141	 0.7033144223	 0.104276
H	-0.6280884908	 0.6936762914	-0.6236970255	 0.113526
H	 2.1335106725	-0.2595817924	-1.3453540438	 0.062251
H	 1.347813822	-1.9902250821	 0.2489096111	 0.118783
H	-0.1853906609	-2.1190659715	-0.6110660137	 0.128268
H	 1.0314549864	-2.8597629914	-2.6764964014	 0.169142
H	 2.5684052327	-2.7544226176	-1.8281775412	 0.144012
H	 0.2555728393	 1.5561685664	-3.0286313492	 0.114412
H	 1.8576510529	 0.8564206341	-3.3854883455	 0.105465
H	 0.4418517475	 0.4122224001	-4.3751031707	 0.129103
