16
gdb 3983	6.27445	0.83277	0.77594	4.0175	69.37	-0.2586	-0.006	0.2526	1396.4665	0.128485	-379.903682	-379.894511	-379.893567	-379.938544	31.433	
C	-0.0811556938	 1.5271390672	-0.0146277031	-0.475262
C	-0.0222686397	 0.0227433244	-0.0265762505	 0.347364
C	 0.0126909046	-0.7465297678	 1.2682245029	-0.271172
C	 1.3550581568	-0.5517471177	 2.0173192604	-0.336985
C	 1.3744981452	-1.2399808434	 3.3056313781	 0.25848
N	 1.3709789476	-1.7884653445	 4.3226967809	-0.301282
N	 0.0021222345	-0.6834393387	-1.0923318795	-0.15366
O	-0.0224465038	 0.1159444074	-2.2422761155	-0.395665
H	 0.8332383061	 1.9565731807	-0.4382801042	 0.150707
H	-0.9048428223	 1.874732956	-0.6452102012	 0.15667
H	-0.2171420457	 1.9167498337	 0.9965099877	 0.120932
H	-0.8052134541	-0.4155363719	 1.9187501786	 0.12937
H	-0.1339113815	-1.807502055	 1.0566135784	 0.141307
H	 2.178720855	-0.9293706508	 1.4019317256	 0.164044
H	 1.5498678247	 0.5124017294	 2.1917074473	 0.155003
H	-0.0293616536	-0.5403478089	-2.947231056	 0.31015
