18
gdb 40351	3.93656	1.32085	1.21161	0.9271	75.23	-0.2317	0.0038	0.2355	1066.4303	0.148783	-401.864807	-401.857507	-401.856563	-401.897247	29.117	
C	 1.1111833628	 0.9157030349	-0.0971494152	-0.235774
N	 0.1698283853	 0.1079374182	-0.8908093827	-0.316077
C	-0.2423558738	 0.6192567459	 0.4286112545	-0.196955
C	-0.5044786546	-0.4195839581	 1.466586254	 0.460293
C	 0.4414196095	-1.6086500876	 1.8313238473	-0.258684
C	-0.3867655675	-1.4100795515	 3.1358712665	 0.005843
O	-0.3632285706	 0.029366904	 2.8637815087	-0.325344
C	-1.8030146001	-1.7953933991	 2.6646378482	-0.086311
C	-1.8856691458	-1.1189139187	 1.5194357161	-0.122224
H	 1.9722783525	 0.3722102287	 0.278784333	 0.122221
H	 1.3191368316	 1.9362022354	-0.4071860886	 0.115009
H	-0.2426359805	 0.6727047577	-1.6281116482	 0.235255
H	-0.9468889217	 1.4493482582	 0.4550217469	 0.093357
H	 0.343132532	-2.5426260557	 1.2768581974	 0.105699
H	 1.4832813288	-1.3007145571	 1.9470241121	 0.103974
H	-0.038840745	-1.6904406137	 4.1287151732	 0.079439
H	-2.5034214487	-2.4555690035	 3.1545110045	 0.109865
H	-2.6706795342	-1.050954148	 0.7808086724	 0.110412
