16
gdb 50923	1.8173	1.52088	0.92023	3.0708	70.62	-0.2648	-0.0057	0.2591	1236.8507	0.124394	-434.065403	-434.05639	-434.055446	-434.100304	31.36	
O	 0.0241253039	 0.6032839743	 1.1616862246	-0.317372
C	-0.0145304087	 1.3873224494	 0.2381489954	 0.166068
N	 1.068474618	 1.7619597523	-0.5007628454	-0.284777
C	 2.3884296873	 1.2055877138	-0.2279291475	-0.155243
C	 3.0595426176	 0.8824051189	-1.4970078916	 0.281357
N	 3.5910013901	 0.6552916574	-2.4970667753	-0.306793
C	 3.2524800309	 2.1134213791	 0.6407212954	 0.020541
C	 3.0956139546	 2.0285323995	 2.112987465	-0.249654
N	 4.3234255755	 1.5417286803	 1.4602199134	-0.309017
H	-0.9418549196	 1.8814386719	-0.1049486711	 0.101317
H	 0.9560192783	 2.4178839463	-1.2576320729	 0.26847
H	 2.2063403975	 0.2734732328	 0.3206799237	 0.159303
H	 3.5047986736	 3.0648635168	 0.1777386356	 0.108475
H	 3.225407429	 2.9203673771	 2.718350455	 0.129353
H	 2.375946853	 1.3106332312	 2.4957690611	 0.147336
H	 4.319967659	 0.5254368788	 1.4045394546	 0.240635
