20
gdb 124542	2.45691	1.3715	1.01832	2.5749	81.72	-0.1929	0.0335	0.2265	1241.9381	0.171911	-399.353547	-399.343896	-399.342952	-399.388316	35.792	
C	-0.1026281254	 1.6751999101	 0.3474456219	-0.379086
C	-0.1022348261	 0.1980293351	-0.0680537565	-0.081446
C	 0.8075161925	-0.6342698233	 0.8595797491	-0.381368
C	-1.4925542875	-0.378510329	-0.1195315448	 0.324656
N	-2.4783258663	 0.0681776999	 0.6598272502	-0.300783
N	-3.5388771089	-0.6897363374	 0.3487208893	-0.191952
C	-3.268629215	-1.6217686737	-0.6082257733	-0.113005
C	-1.9396920356	-1.4513304379	-0.9396474073	 0.10692
N	-1.1871980192	-2.1077610335	-1.9331295806	-0.614366
H	 0.9180580948	 2.071476477	 0.3532328106	 0.098022
H	-0.7037357203	 2.2778853679	-0.3389563838	 0.115417
H	-0.5260161061	 1.7951349968	 1.348416582	 0.131751
H	 0.3082731802	 0.1281962577	-1.0852901147	 0.080035
H	 0.445486889	-0.5856125244	 1.8917682383	 0.125315
H	 0.8289665871	-1.6903543344	 0.5682747684	 0.100068
H	 1.8364034313	-0.2589969696	 0.8388398333	 0.108118
H	-4.4176512392	-0.51181632	 0.8017742708	 0.269113
H	-4.0194207169	-2.3057844178	-0.9708205469	 0.118788
H	-1.626478533	-2.9632219913	-2.2482974958	 0.238956
H	-0.2481978153	-2.3254244522	-1.6230472702	 0.244847
