20
gdb 40564	3.94803	1.0253	0.88985	2.4415	83.08	-0.226	0.0204	0.2464	1338.6635	0.173023	-403.124937	-403.116775	-403.115831	-403.158041	31.363	
C	 0.2332361208	 1.5423553686	-0.0029282127	-0.244852
N	 1.289205023	 0.5390844825	-0.1654101066	-0.31397
C	-0.1061150979	 0.087705603	 0.0239562924	-0.115784
C	-0.4257088527	-0.6651440733	 1.2638398747	 0.361634
C	-1.4355354821	-1.5384753271	 1.2983799308	-0.191008
C	-1.7814082357	-2.3421619868	 2.521123466	-0.117869
O	-0.7979493004	-2.2806786347	 3.5341317904	-0.245505
C	-0.3158845201	-0.9632769401	 3.736818072	-0.087815
C	 0.41586194	-0.4428146441	 2.4992260363	-0.299508
H	 0.280632682	 2.1115747746	 0.9209985734	 0.119333
H	-0.0946192749	 2.1153391713	-0.8668073954	 0.113227
H	 1.5545047454	 0.4547397381	-1.142515838	 0.23499
H	-0.632238797	-0.275735863	-0.8572873598	 0.079112
H	-2.0609937175	-1.7004693569	 0.422754544	 0.079062
H	-2.7637184594	-2.0176338057	 2.9155138172	 0.092761
H	-1.8849843153	-3.4033895254	 2.2630278254	 0.115274
H	-1.1495066554	-0.2865441507	 3.9902747043	 0.084461
H	 0.3519781301	-1.0126327949	 4.6014428083	 0.105183
H	 1.3824525422	-0.9465227633	 2.3820637966	 0.128174
H	 0.6460667246	 0.621203208	 2.6301481707	 0.1031
