22
gdb 78662	2.3045	1.6957	1.33957	0.8425	86.32	-0.1953	0.0866	0.2819	1101.6221	0.193263	-367.14463	-367.135542	-367.134598	-367.17786	35.232	
C	-0.1307569281	 1.5821184044	 0.3335615445	-0.438208
C	 0.1608666552	 0.0821528642	 0.2997428469	-0.01458
C	 1.0899622659	-0.625175191	-0.7562596163	-0.066655
C	 1.3775256462	-1.7128011059	 0.3537395516	-0.148752
C	 2.4546804068	-0.7531077646	 0.7338747154	-0.07563
N	 2.4940592124	-0.1654067927	-0.5938463661	-0.065172
C	 2.9100768799	 1.2113700384	-0.8120328268	-0.329378
C	 1.017406238	-0.6289619491	 1.3519386865	 0.29942
C	 0.7538863805	-0.761211834	 2.8225238958	-0.509937
H	-0.4182764809	 1.9531336172	-0.6568495135	 0.113125
H	-0.9674478309	 1.7877442008	 1.0107876512	 0.111204
H	 0.718031131	 2.1748917459	 0.6794396295	 0.120586
H	-0.7961040393	-0.4538292721	 0.2469823551	 0.07284
H	 0.7450454718	-0.7885783542	-1.7774877641	 0.067
H	 1.3159954422	-2.7914193559	 0.367910026	 0.090539
H	 3.3347714893	-0.9034910953	 1.349145889	 0.087724
H	 4.0045848655	 1.256306313	-0.7692108622	 0.115669
H	 2.6087228891	 1.5200153464	-1.8186774453	 0.116657
H	 2.518334218	 1.9461708169	-0.0959141021	 0.100408
H	 0.8183538366	 0.2087358514	 3.3295292081	 0.119979
H	-0.2434294537	-1.1731809796	 3.0187986851	 0.115982
H	 1.4832094246	-1.4275990241	 3.2970285717	 0.117176
