14
gdb 22793	2.93359	1.51836	1.04964	1.023	68.98	-0.2546	-0.0605	0.1941	1062.5078	0.102279	-469.99749	-469.989874	-469.98893	-470.029976	28.244	
O	 0.0017599282	 1.3520944344	 0.0834323534	-0.349066
N	 0.0341660767	-0.016886355	-0.058083989	-0.174276
C	-1.104897211	-0.5990760287	-0.0073889716	 0.224062
C	-1.1084472017	-2.1081511665	-0.1349684148	-0.241735
N	-2.1819491234	-2.6519841268	-0.962978859	-0.238812
C	-3.2441645916	-1.9636336176	-1.0255284781	 0.103721
N	-3.4546025694	-0.7288943387	-0.4147132431	-0.360349
C	-2.443489048	 0.0684833446	 0.1199437708	 0.382771
O	-2.6777355106	 1.1574855925	 0.5880840394	-0.330707
H	 0.9305551538	 1.5903617042	-0.0226894985	 0.316039
H	-0.1402981788	-2.4331575681	-0.5226962983	 0.141735
H	-1.2099348607	-2.5589124872	 0.865754752	 0.13396
H	-4.1021853965	-2.3317665976	-1.5862886216	 0.130229
H	-4.368305197	-0.2982051893	-0.4493207517	 0.262428
