24
gdb 6134	2.64181	1.69523	1.45371	0.0967	84.59	-0.2696	0.0749	0.3444	1063.788	0.221954	-314.277174	-314.267481	-314.266537	-314.310483	37.429	
C	-0.7620409754	 1.1019788517	-1.2209466767	-0.401509
C	-0.1367913931	-0.2302246778	-0.8129948847	 0.016381
C	 1.3218611457	-0.4572105565	-1.308252325	-0.276984
C	 1.8618781579	-0.2946661941	 0.149846309	 0.346677
C	 2.7609348429	-1.4284464155	 0.6415246563	-0.447014
C	 2.5527582274	 1.0531032997	 0.3760965312	-0.445669
C	 0.3750591573	-0.3729271152	 0.6606732718	 0.000026
C	-0.1235694337	 0.5767202856	 1.7428131064	-0.415478
H	-0.113833627	 1.9540992578	-0.9927585509	 0.115468
H	-0.9501290897	 1.1174078325	-2.3004377439	 0.11113
H	-1.7194730884	 1.2699601499	-0.715651951	 0.111396
H	-0.8248813965	-1.032130083	-1.0996031745	 0.061598
H	 1.4894989154	-1.4589083021	-1.7145848943	 0.088571
H	 1.694296578	 0.2714584993	-2.0358624954	 0.087
H	 3.7284962998	-1.420036028	 0.1251992335	 0.107834
H	 2.9603091309	-1.3396586546	 1.7165631638	 0.107955
H	 2.2993094762	-2.4065657398	 0.4678179964	 0.105472
H	 1.9543335684	 1.8944598246	 0.0154494543	 0.112974
H	 2.7614338375	 1.2239211547	 1.43832986	 0.109452
H	 3.5099282183	 1.0808633216	-0.1578657673	 0.108677
H	 0.1846098804	-1.3988256219	 0.9969840653	 0.061138
H	 0.0151935676	 1.628306696	 1.47625745	 0.113412
H	-1.1920047194	 0.423530998	 1.9327601241	 0.110666
H	 0.4026054695	 0.404326527	 2.6886445716	 0.110825
