17
gdb 124708	3.95108	0.99111	0.96363	2.4417	69.81	-0.2851	-0.0221	0.263	1264.0159	0.136553	-451.307579	-451.298785	-451.297841	-451.342445	30.68	
C	 0.0102768372	 1.5615884379	-0.0345385787	-0.397569
C	-0.0005394043	 0.035182048	 0.033481569	 0.047196
C	 0.7291513213	-0.512329687	 1.2674342593	-0.084361
O	 2.0845238399	-0.1256133287	 1.1362055365	-0.414791
N	-1.3701585103	-0.4871167808	 0.0185534775	 0.130769
N	-1.8373123824	-1.2846217942	-0.9355471386	-0.240553
C	-3.0806628815	-1.4893378756	-0.5164545055	 0.071155
N	-3.3560328704	-0.8484016809	 0.6400290207	-0.204885
N	-2.2553020646	-0.2140105246	 0.9678689719	-0.132957
H	 1.0450668574	 1.9070703987	-0.0026722343	 0.148583
H	-0.4554948917	 1.91344161	-0.9585859948	 0.130226
H	-0.531600546	 1.9870744266	 0.814200674	 0.144504
H	 0.4662345445	-0.3890227175	-0.857687336	 0.133662
H	 0.2663091946	-0.1003852865	 2.1752246723	 0.11879
H	 0.6169227321	-1.6065167133	 1.2945301245	 0.105084
H	 2.5506142886	-0.373402191	 1.9395399788	 0.297497
H	-3.7901569244	-2.1021857711	-1.0480356465	 0.14765
