18
gdb 110272	2.66316	1.37536	1.15648	3.7989	72.75	-0.2424	-0.0274	0.215	1128.9707	0.146693	-439.050918	-439.042224	-439.04128	-439.084326	32.397	
C	-0.1044156257	 1.4588222414	 0.0446875802	-0.429881
C	 0.1306735186	-0.0293226578	-0.1029260663	 0.018805
C	 0.6795938075	-0.7152510049	-1.3140232944	-0.190229
N	 1.4209652991	-0.7071479086	 0.0373427096	-0.162129
C	 2.4935333912	 0.1819252184	-0.5564727652	-0.126343
C	 3.8423589116	-0.5359022541	-0.5076298085	-0.085113
O	 3.7455678197	-1.8748691303	-0.9411725569	-0.418071
C	 1.7911205434	 0.0873603124	-1.9269123316	 0.440201
O	 2.1069098307	 0.3613821487	-3.0474324609	-0.312065
H	 0.5710220506	 2.0719128541	-0.5538863459	 0.139138
H	-1.1257247107	 1.691972039	-0.2717758779	 0.136297
H	-0.0056477811	 1.7569073395	 1.0939605305	 0.133976
H	-0.643992568	-0.6224424898	 0.3821566732	 0.112014
H	 0.2234536741	-1.6033607457	-1.7382125434	 0.122459
H	 2.5730190813	 1.1698465707	-0.09417925	 0.098625
H	 4.5410006601	-0.0273500624	-1.179606939	 0.129577
H	 4.2420998006	-0.4682235632	 0.5164601714	 0.097997
H	 3.0715173572	-2.2861671874	-0.3857682147	 0.294742
