21
gdb 133863	2.74553	2.00151	1.36002	0.4506	91.34	-0.2008	-0.0152	0.1856	995.0389	0.183006	-349.790689	-349.783068	-349.782124	-349.822503	31.336	
C	-1.2558237648	 1.4892287778	-0.5036279716	-0.29417
C	-1.3214751846	 0.0125406497	-0.0050776575	 0.08508
C	-1.2801578945	-1.4731054024	-0.4789795467	-0.294158
C	-0.0161792437	-1.7428457963	 0.3852170447	-0.105269
C	 1.2642302958	-1.4934302381	-0.4606853384	-0.294168
C	 1.3227362897	-0.0087669463	 0.0145265004	 0.085076
C	 1.2885564521	 1.4689136357	-0.4842022833	-0.294156
C	 0.0120492669	 1.7526185947	 0.356797188	-0.105269
C	-0.0042033087	 0.0072760403	 0.6626611271	 0.091463
H	-2.1354685104	 2.0814605116	-0.2398130852	 0.095128
H	-1.0619984563	 1.6243618121	-1.5709456192	 0.102635
H	-2.0526842654	 0.0253149288	 0.812384924	 0.096458
H	-1.0891645937	-1.6290268151	-1.5439644644	 0.10262
H	-2.1691713448	-2.0464993341	-0.205135203	 0.095124
H	-0.0279063014	-2.5798615927	 1.0834853868	 0.070822
H	 1.0860925956	-1.6460459331	-1.5283798042	 0.102635
H	 2.1398299652	-2.0811598683	-0.1743101169	 0.095128
H	 2.0418613336	-0.0080634674	 0.8427371496	 0.096457
H	 1.1132506054	 1.6073463106	-1.554289626	 0.10262
H	 2.1735167716	 2.0468266917	-0.2067530397	 0.095124
H	 0.0136194421	 2.6009594908	 1.0413605154	 0.070822
