20
gdb 58925	2.88733	1.51853	1.19375	1.7706	78.49	-0.2234	0.0634	0.2868	1093.2368	0.170604	-403.046382	-403.03807	-403.037126	-403.079277	32.592	
C	 0.0316787852	 1.5546556853	-0.0218495289	-0.411279
C	-0.014888256	 0.0260882493	 0.01591744	-0.029733
O	 0.7230092639	-0.4929401975	 1.1235749057	-0.423055
C	-1.4344924522	-0.5034404338	-0.003030526	 0.334444
C	-2.5793211258	-0.2006306715	-0.9689855032	-0.241634
N	-3.2697565149	-1.1857123422	-0.0353050213	-0.161224
C	-1.9412146521	-1.9819586411	 0.0881891029	-0.044014
C	-2.0453042002	-1.9907361875	 1.6153122266	-0.25842
C	-2.4834742293	-0.5918714853	 1.1648829741	-0.06514
H	 1.0684185273	 1.9006643985	-0.0003479337	 0.126814
H	-0.4472273961	 1.9439327773	-0.9257382992	 0.124682
H	-0.4933104698	 1.9811135466	 0.8421698884	 0.10943
H	 0.5076305452	-0.3659946621	-0.866613908	 0.092557
H	 0.387859594	-0.0661262241	 1.9199672739	 0.280878
H	-3.023402675	 0.8008016462	-0.9521325446	 0.097016
H	-2.495189444	-0.5635886167	-1.9995452516	 0.097844
H	-1.725089748	-2.7972421898	-0.6052352306	 0.080488
H	-2.8383980879	-2.6188485498	 2.0298774051	 0.104951
H	-1.1116617533	-2.0750859379	 2.170597588	 0.107555
H	-2.9149073408	 0.2302484061	 1.7410918324	 0.07784
