11
gdb 21407	3.97536	2.06692	1.35988	3.5832	56.77	-0.2862	-0.083	0.2032	804.1846	0.073601	-430.728052	-430.721874	-430.72093	-430.758657	22.735	
N	-0.1017938331	 1.3162224388	 0.1454073839	-0.509506
C	 0.0226071592	 0.0586792375	-0.0066622628	 0.362921
N	-1.1011498403	-0.7507631763	-0.0724265574	-0.409312
C	-1.1029642268	-2.1139081642	-0.2336211895	 0.527997
O	-2.0822405092	-2.7965271486	-0.2882102775	-0.345602
O	 0.1432982148	-2.7067958647	-0.3369766945	-0.263269
N	 1.3366022597	-1.9854963461	-0.2834883541	-0.028237
C	 1.2603245465	-0.7194167765	-0.1317063433	-0.015108
H	 0.8076782537	 1.773562322	 0.1752503716	 0.236731
H	-2.0081733356	-0.3097071368	 0.0039439199	 0.287449
H	 2.2141061911	-0.2017913452	-0.0959107863	 0.155936
