19
gdb 62730	2.54694	1.50619	1.22004	2.5949	77.44	-0.2379	-0.0107	0.2271	1098.9847	0.156901	-423.021432	-423.012239	-423.011295	-423.054762	35.126	
C	-0.0772569331	 1.5240136778	-0.0359276743	-0.460289
C	 0.0607845905	 0.0081556618	-0.0648160981	 0.242424
C	-1.1498205557	-0.6999341719	 0.5344368068	-0.444351
C	 0.7039371376	-0.7331591849	-1.2050431748	-0.175892
C	 1.8981884387	 0.0198361982	-1.7900279388	-0.371648
C	 2.5675059631	-0.1441892103	-0.4023308289	 0.313415
O	 3.7226617333	-0.2320422994	-0.0654494847	-0.343195
C	 1.3594456438	-0.6859276489	 0.2688793179	 0.28144
O	 1.4346812101	-1.5681188484	 1.3108390217	-0.450994
H	 0.8049281711	 2.0424394328	-0.4165422809	 0.125244
H	-0.9400437557	 1.8408940753	-0.6331819857	 0.118979
H	-0.2411802749	 1.8657168517	 0.9914481833	 0.127021
H	-2.0565442607	-0.4044251972	-0.0035593704	 0.117536
H	-1.0535728507	-1.7865023028	 0.484399676	 0.129501
H	-1.2755383275	-0.4262592995	 1.5864210054	 0.129786
H	 0.2384339537	-1.5958624603	-1.6642655431	 0.109346
H	 2.4592576616	-0.5406202895	-2.5423798068	 0.12985
H	 1.7212712458	 1.0329927237	-2.1580028619	 0.119354
H	 2.3319745891	-1.9285294083	 1.3069479073	 0.302473
