21
gdb 114220	4.58942	0.90407	0.82718	1.9772	85.95	-0.2392	0.0098	0.249	1462.3963	0.182419	-387.088695	-387.079847	-387.078902	-387.122795	33.742	
C	-0.0617623702	 1.4939024488	-0.2395018014	-0.388628
C	 0.0230018607	-0.0197333931	-0.0228552209	-0.177259
C	 0.74586501	-0.4307305135	 1.2725983523	-0.027338
C	 0.7117049819	-1.9620447545	 1.5425682664	-0.344251
C	 2.1306165757	-2.3363998696	 1.9781077329	 0.434269
C	 2.4520660033	-3.3233372559	 3.0221851881	-0.250429
O	 2.6257653963	-3.6426982882	 1.6412076784	-0.282386
C	 2.9744620198	-1.1514653375	 1.6784424072	-0.154207
C	 2.2287946768	-0.1152317198	 1.2964977684	-0.075372
H	 0.9301813261	 1.9487760164	-0.3282725883	 0.118022
H	-0.6124861848	 1.7294146475	-1.1553312791	 0.115067
H	-0.5776869807	 1.9844555469	 0.5936638548	 0.114333
H	-0.9916872198	-0.4374036319	 0.0018491424	 0.09744
H	 0.5287949261	-0.4918673087	-0.874987248	 0.099788
H	 0.2583697358	 0.1014570107	 2.1036501107	 0.078803
H	-0.0451518311	-2.2438802036	 2.2786326739	 0.103403
H	 0.4864639853	-2.5044925492	 0.617966344	 0.120031
H	 3.3706572343	-3.2279446221	 3.6017945906	 0.108556
H	 1.6411021463	-3.8475666694	 3.5284260638	 0.109493
H	 4.0527054305	-1.1699170044	 1.7854209329	 0.101557
H	 2.6154280675	 0.866915821	 1.0480752808	 0.099107
