21
gdb 64205	2.38897	1.48835	1.3705	2.3034	78.12	-0.2378	0.0643	0.3021	1095.6668	0.18117	-424.202656	-424.193571	-424.192627	-424.236177	35.185	
C	-0.2372720153	 1.4893798532	 0.1809483882	-0.458522
C	-0.0333419139	-0.0136528846	 0.0574611022	 0.266145
O	-1.2622884805	-0.6982146734	-0.061754242	-0.468724
C	 1.0898217143	-0.4184213317	-0.9302424886	-0.128119
O	 1.9746442302	-0.723792258	 0.1650567868	-0.321586
C	 0.9046175856	-0.6533447463	 1.1238257342	 0.431061
C	 1.1800800509	-0.0189943913	 2.5014753324	-0.299865
C	 0.3050016466	-1.1300192638	 3.1447866579	-0.213507
C	 0.4516182346	-1.9521782614	 1.8354854343	-0.283844
H	 0.7165870038	 2.0065359615	 0.3161951146	 0.135693
H	-0.7028609517	 1.8868991787	-0.7301657739	 0.107908
H	-0.8862819505	 1.7265227818	 1.0295664559	 0.126938
H	-1.843564414	-0.1854451301	-0.6324387183	 0.279704
H	 0.834720395	-1.3068794845	-1.5216893899	 0.098561
H	 1.4968404255	 0.3613361758	-1.5849378675	 0.092687
H	 2.2392210516	-0.1379232504	 2.748735681	 0.114272
H	 0.9000431734	 1.0256406063	 2.6578590227	 0.093045
H	 0.6747079101	-1.5836183573	 4.0662182747	 0.098064
H	-0.7246365	-0.8006496772	 3.3057718005	 0.106335
H	-0.4295875023	-2.4577218634	 1.4403881263	 0.117623
H	 1.2907090366	-2.652165244	 1.8813748586	 0.106131
