22
gdb 123226	5.31746	0.50876	0.48483	4.1432	82.35	-0.2475	0.0355	0.2831	2292.8017	0.1926	-441.510467	-441.499439	-441.498494	-441.548983	37.467	
C	-0.1868738596	 1.5253605499	-0.2463795388	-0.382678
C	-0.0041419636	 0.0104543337	-0.1260928829	-0.184141
C	 0.7158539449	-0.5842584087	-1.3282205761	-0.030822
O	 0.8428550155	-1.9808162761	-1.1419481206	-0.258643
C	 1.4933470078	-2.6406265378	-2.2095486298	-0.064419
C	 1.4851096612	-4.1303118465	-1.9016933279	-0.166322
N	 0.1278914105	-4.6168382099	-1.7369250079	-0.267627
C	-0.3670131753	-5.6907945428	-2.4031318151	 0.156578
O	 0.2581427158	-6.3896805491	-3.1738562827	-0.327545
H	 0.7775128312	 2.0390383535	-0.3256966081	 0.118734
H	-0.7757372277	 1.7877364427	-1.1321374709	 0.118335
H	-0.7057818729	 1.9283219032	 0.627829881	 0.120138
H	 0.5659832917	-0.2338651569	 0.7774762644	 0.108817
H	-0.9781860541	-0.482331429	-0.0241883914	 0.102987
H	 0.1561920592	-0.3739083268	-2.2559138601	 0.087564
H	 1.7128821458	-0.1258795214	-1.4442099675	 0.087888
H	 0.9686223835	-2.4458071649	-3.1590077406	 0.097787
H	 2.5304871489	-2.2833371416	-2.3172387608	 0.093123
H	 1.9369311584	-4.6984954224	-2.7173232741	 0.147434
H	 2.0695096731	-4.3126376561	-0.9907677974	 0.117371
H	-0.4815456816	-4.0751375974	-1.1447031905	 0.254118
H	-1.4335493328	-5.8672131257	-2.1583039522	 0.071322
