15
gdb 16294	3.49192	1.77638	1.47064	2.411	69.21	-0.2338	0.0248	0.2586	878.6816	0.118468	-362.581516	-362.574223	-362.573279	-362.612806	28.332	
O	 0.0507055402	 1.4010093049	-0.0873709126	-0.432246
C	 0.0864582556	 0.0123154317	 0.0162899812	 0.088385
C	 0.3052712033	-0.6344065937	 1.440374696	-0.258561
C	-1.075124747	-1.2728741007	 1.3216824441	-0.109496
N	-2.024624263	-0.159974945	 1.1168577877	-0.388678
C	-1.2810720816	-0.7159449381	-0.0576807869	 0.218886
C	-1.9467025196	-1.245709025	-1.1928144097	 0.118012
C	-2.4882991064	-1.6832947748	-2.1750147879	-0.394875
H	-0.6904945027	 1.6856143892	 0.4650874717	 0.291795
H	 0.7981711289	-0.3576730433	-0.72355945	 0.103544
H	 1.1225623283	-1.3585864354	 1.4455343006	 0.109687
H	 0.4281479941	 0.073979929	 2.2629121712	 0.110232
H	-1.4137633516	-2.2248091839	 1.7107817551	 0.111223
H	-2.967405297	-0.5451884639	 1.0790424222	 0.242753
H	-2.9654336615	-2.071212421	-3.0407293226	 0.189339
