20
gdb 94117	3.1973	0.93504	0.86438	4.7609	76.8	-0.2456	0.0364	0.2821	1406.0475	0.171849	-440.323871	-440.314579	-440.313634	-440.359793	33.744	
O	-0.9045830803	 1.0079294737	 1.0247683116	-0.434522
C	-0.1206506016	 0.2166418931	 0.1360726414	 0.122761
C	 0.979225048	-0.5790288031	 0.8834835219	-0.234352
C	 0.3403493385	-1.9397126239	 1.2693377482	-0.217717
C	-1.1183923091	-1.8809283376	 0.7464514818	 0.062248
C	-1.0548630311	-0.8638884377	-0.4077676719	-0.229533
N	-1.6631099143	-3.1721876255	 0.3717458348	-0.29288
C	-2.7141494517	-3.7657237579	 0.9993708604	 0.149465
O	-3.3315899645	-3.3031288764	 1.9347600312	-0.321846
H	-0.316809866	 1.6185812416	 1.4802237748	 0.281895
H	 0.300674024	 0.8453079118	-0.6609336579	 0.061385
H	 1.846610336	-0.724662929	 0.2317331758	 0.099978
H	 1.3306414741	-0.0165836753	 1.7542134528	 0.094257
H	 0.8700915793	-2.7645523473	 0.77967579	 0.090205
H	 0.3712807671	-2.1398878332	 2.342663902	 0.115837
H	-1.7793087298	-1.4977177977	 1.5247207078	 0.140979
H	-2.0321858947	-0.462564185	-0.6836856958	 0.120193
H	-0.6062123056	-1.3265261431	-1.2968730777	 0.084226
H	-1.2270344874	-3.6744695253	-0.3868391947	 0.239195
H	-2.9536696409	-4.7493258322	 0.5463779636	 0.068225
