20
gdb 63780	3.42448	1.25656	1.16538	2.81	80.21	-0.2573	0.0271	0.2844	1150.725	0.170571	-403.143715	-403.135144	-403.134199	-403.176605	33.409	
C	 0.3660491207	 1.4377188009	 0.0915743085	-0.445869
C	 0.0741868278	-0.0555069385	 0.0041373561	 0.306086
C	-1.4109719127	-0.3286723601	-0.2438134803	-0.443684
C	 0.987026752	-0.8927167856	-0.9636687772	-0.293803
C	 1.3928126164	-1.8325342893	 0.2155913419	-0.164691
C	 0.5875590031	-0.9279701024	 1.1854063274	 0.073717
O	 1.8397818933	-0.455910781	 1.7757626284	-0.270644
C	 2.585348311	-1.3143735747	 0.9801741154	 0.435039
N	 3.8195166284	-1.5321604509	 0.9574797349	-0.550171
H	 1.4151834644	 1.6237362122	 0.332924186	 0.130449
H	 0.1403655205	 1.9274346678	-0.8622928782	 0.114402
H	-0.2459508329	 1.9152730434	 0.865158765	 0.115109
H	-1.7262175142	 0.0939783717	-1.2037190368	 0.120725
H	-1.6257974555	-1.4031542239	-0.2678749698	 0.115055
H	-2.0287251342	 0.119177265	 0.5426577675	 0.117949
H	 0.433014547	-1.400626759	-1.755855621	 0.108449
H	 1.8234064148	-0.3539289969	-1.4134448814	 0.117845
H	 1.2807152511	-2.9076671333	 0.1002542225	 0.102188
H	-0.1078485005	-1.2612283291	 1.9569974173	 0.084726
H	 4.3107949194	-0.9587987963	 1.6456460237	 0.227123
