21
gdb 73006	2.68169	1.45523	1.17099	2.1132	82.48	-0.239	0.0722	0.3112	1142.6977	0.182585	-387.03947	-387.030924	-387.02998	-387.072494	32.817	
C	 0.0126152526	 1.5678303303	 0.0130817173	-0.500669
C	-0.0122614668	 0.0665324901	 0.0353182945	 0.273174
C	-0.7630297783	-0.8075085091	-0.9853348036	-0.285413
C	-1.1544176627	-1.7995999424	 0.1584282268	-0.230124
C	-0.3880795345	-0.9259205423	 1.1564420577	-0.17779
C	 1.031964182	-0.7701735727	 0.7092827665	 0.268066
C	 2.0302717334	-1.7934690693	 0.1670250385	-0.148173
O	 3.0674777727	-1.2588700771	 1.0201864956	-0.277507
C	 2.1854478163	-0.2585977069	 1.5710024312	-0.160251
H	 0.605910844	 1.9431811593	-0.8302144925	 0.121667
H	-0.9983396932	 1.9790075308	-0.0865797252	 0.117858
H	 0.448433601	 1.9783918683	 0.9295954287	 0.1201
H	-1.6344477926	-0.3016826491	-1.4087096147	 0.10326
H	-0.1643597496	-1.2084332965	-1.8104291275	 0.094876
H	-2.2310029741	-1.8137540251	 0.3403053718	 0.10508
H	-0.8082649307	-2.8338369853	 0.0582958996	 0.097684
H	-0.6769201449	-0.728061686	 2.1839186213	 0.081623
H	 1.8162173311	-2.8463031356	 0.3941178748	 0.100374
H	 2.2888078387	-1.7019128091	-0.8965401896	 0.098361
H	 2.5385089406	 0.7593103783	 1.3565526881	 0.09819
H	 2.0639212953	-0.3700791108	 2.656957671	 0.099613
