13
gdb 132979	3.32714	1.45372	1.01819	7.9801	63.11	-0.26	-0.046	0.214	1059.1929	0.089655	-494.084573	-494.077001	-494.076057	-494.117487	26.665	
C	-0.0286817578	 1.4983896862	 0.0388545443	-0.354589
N	-0.0063794179	 0.0382806173	 0.0127186938	-0.143655
C	-0.0423520226	-0.6960600077	-1.1594143612	 0.104224
N	-0.0246613729	-1.9690716368	-1.2262648289	-0.300665
C	 0.0367867752	-2.7136702184	-0.0123510018	 0.399365
O	 0.0559986049	-3.9140641137	-0.0202622201	-0.321716
N	 0.0746548952	-1.9850091734	 1.20896813	-0.380381
C	 0.0519709609	-0.7241733967	 1.1483730592	 0.422719
F	 0.0848643445	 0.0108510841	 2.2479337925	-0.058587
H	 0.8743842667	 1.8914436749	 0.5111866105	 0.166817
H	-0.0760452464	 1.8546522517	-0.9913132633	 0.153801
H	-0.9027436753	 1.8630328835	 0.5830739201	 0.16681
H	-0.0888940044	-0.092115601	-2.0645560551	 0.145858
