15
gdb 50883	2.74456	1.02017	0.85222	5.3363	69.58	-0.2499	-0.0292	0.2207	1330.6555	0.113164	-450.169841	-450.160822	-450.159877	-450.205097	31.42	
N	-0.403537891	 0.9843320885	 0.6191730543	-0.560708
C	-0.0875785638	-0.1392376255	 0.1036521895	 0.484343
N	-1.0023955396	-0.9295783452	-0.5350438685	-0.314004
C	-2.4071051181	-0.6010197173	-0.4622636978	-0.289776
C	-3.0683333777	-1.0947973448	 0.761067526	 0.268149
N	-3.5870301437	-1.5051203892	 1.70811204	-0.304181
N	 1.2315433292	-0.6681635115	 0.105902324	-0.370829
C	 1.672820287	-1.8946369994	-0.3168679658	 0.182896
O	 0.9939454582	-2.7711749236	-0.8100432223	-0.316759
H	 0.3903790766	 1.4712217688	 1.0241977083	 0.213829
H	-0.7112309706	-1.8737787557	-0.7586458629	 0.286147
H	-2.5134336	 0.4859268086	-0.4992289341	 0.191559
H	-2.9198351379	-1.0279568177	-1.3292994916	 0.157505
H	 1.9233871332	-0.0625547109	 0.5207140974	 0.262504
H	 2.7596122281	-2.0074401253	-0.1544317767	 0.109325
