18
gdb 14168	3.27104	2.21075	1.82754	1.6332	66.21	-0.2483	0.0818	0.3302	804.4369	0.154615	-384.922172	-384.915132	-384.914188	-384.952815	28.685	
C	-0.1799572728	 1.6635261762	-0.0100422937	-0.467546
C	-0.0006814611	 0.1606001018	-0.0153337357	 0.480162
O	-1.2524775769	-0.4038044438	-0.3336401132	-0.500092
C	 1.1703322878	-0.548592475	-0.7680937556	 0.008498
C	 2.4581427147	 0.095446102	-0.23350457	-0.226538
C	 2.0931130005	 0.0465306004	 1.2887684229	-0.226538
C	 0.712383936	-0.6099561735	 1.1416723092	 0.008498
O	 0.9859662449	-1.6743109921	 0.1623003176	-0.331319
H	 0.7414039181	 2.1969875902	 0.2281375702	 0.118431
H	-0.530714356	 1.9955549296	-0.9918667303	 0.130783
H	-0.9424212527	 1.9403957461	 0.7242896194	 0.130786
H	-1.1148738796	-1.3605473906	-0.331394757	 0.284846
H	 1.0988735145	-0.8275089525	-1.8200165168	 0.07948
H	 3.3316991041	-0.5134582038	-0.4742207114	 0.111875
H	 2.6251104988	 1.1057771948	-0.6150100973	 0.103659
H	 2.771565542	-0.5885244875	 1.8616704066	 0.111875
H	 2.0543933877	 1.0292959517	 1.7650735247	 0.103659
H	 0.1761573902	-0.9511510339	 2.0279505603	 0.07948
