21
gdb 83773	2.75643	1.77893	1.59075	1.3916	80.95	-0.234	0.0803	0.3143	971.2142	0.185454	-387.061185	-387.053874	-387.05293	-387.092659	30.166	
C	-0.0903007339	 1.6547760257	-0.0591050675	-0.43723
C	 0.1010212881	 0.1477489651	 0.0621009572	 0.027591
C	 1.1415924716	-0.6295628717	-0.7970931286	 0.086845
O	 2.3893447911	 0.0451081021	-0.8807745561	-0.271393
C	 2.8707479093	 0.4704135515	 0.3979989249	-0.086554
C	 2.281872042	-0.4203047083	 1.4851575478	-0.056848
C	 2.4904180629	-1.8949843755	 1.0353309799	-0.237464
C	 1.1452183886	-1.756234903	 0.3143594439	-0.034819
C	 0.7204959682	-0.5958078535	 1.2707848827	-0.063473
H	 0.8485094549	 2.2096573125	-0.0520297722	 0.127194
H	-0.6030200638	 1.898375747	-0.9964172921	 0.116223
H	-0.7118318393	 2.031658358	 0.7611481847	 0.11287
H	-0.8713922775	-0.3356724538	-0.105503755	 0.073197
H	 0.8818575981	-0.9087521245	-1.8200035111	 0.071723
H	 3.9634652447	 0.379704798	 0.3702635847	 0.102669
H	 2.6304490144	 1.5267664809	 0.5730508975	 0.091319
H	 2.623929583	-0.1220805161	 2.4784155014	 0.065851
H	 3.384847345	-2.1156414508	 0.4447330519	 0.099286
H	 2.4183102195	-2.6010019314	 1.8674134185	 0.095586
H	 0.5119842725	-2.6186426515	 0.0993781372	 0.060061
H	 0.1428902405	-0.7493036209	 2.1844477003	 0.057366
