22
gdb 10223	3.18852	1.14897	0.89955	1.278	76.33	-0.2408	0.0879	0.3287	1366.3997	0.197318	-387.323778	-387.313155	-387.312211	-387.359818	36.466	
C	-1.0754489696	 1.465978583	 0.1401070687	-0.386275
C	-1.2431524468	 0.0133872237	-0.3097117333	-0.181269
C	 0.0024973751	-0.5438523646	-1.0071488822	 0.111524
C	-0.1864010898	-2.0173011853	-1.3683711579	-0.056711
O	 1.0498913018	-2.5769511277	-1.7622944577	-0.234611
C	 0.9401712459	-3.9241131139	-2.1544278489	-0.228884
O	 0.2304996937	 0.2546919184	-2.1582649224	-0.253757
C	 1.5707583884	 0.3180937438	-2.6059782122	-0.234566
H	-0.2680525639	 1.5611221541	 0.8751032817	 0.108648
H	-0.8311903517	 2.1028449208	-0.7131571527	 0.133634
H	-1.9927101639	 1.8432122754	 0.6021303758	 0.107936
H	-1.4780826109	-0.6234573504	 0.551295906	 0.093223
H	-2.0902130786	-0.0649135815	-1.0029266965	 0.103969
H	 0.8681487338	-0.4698010789	-0.3275067499	 0.069155
H	-0.5887644347	-2.5661695393	-0.4992815397	 0.079505
H	-0.9245064347	-2.0940587098	-2.1839410062	 0.092275
H	 0.559605617	-4.5562595145	-1.3361342194	 0.103291
H	 0.2694869383	-4.0456289664	-3.0196517785	 0.106
H	 1.9396807642	-4.2688225057	-2.4305732805	 0.126454
H	 2.243269758	 0.6712329149	-1.8086788119	 0.098899
H	 1.9341845821	-0.651915232	-2.9601234821	 0.125799
H	 1.5939234163	 1.0404241659	-3.4267521103	 0.115762
