19
gdb 99193	6.51837	0.49743	0.4677	3.9406	82.01	-0.2383	-0.0121	0.2262	2292.0123	0.154709	-423.013223	-423.001771	-423.000827	-423.053897	37.439	
C	-0.0683038665	 1.4850254339	 0.0327094594	-0.497514
C	-0.0228041244	 0.0303932999	-0.0193255115	 0.121839
C	 0.0303784746	-1.1718150652	-0.0639453413	 0.010963
C	 0.064916703	-2.6288219378	-0.1163247823	-0.359521
C	-1.3377488028	-3.2525015137	-0.029411103	-0.300702
C	-1.3093273005	-4.7734035927	-0.1141179935	 0.371813
O	-0.3037296005	-5.393994774	-0.352954881	-0.275754
C	-2.6525642109	-5.4590314815	 0.1272109046	-0.168859
O	-2.5233022475	-6.8413306816	-0.0707846876	-0.393721
H	 0.4941656821	 1.871608036	 0.8899477962	 0.14667
H	 0.3610997776	 1.9304979782	-0.871628877	 0.146941
H	-1.0977042915	 1.8498330033	 0.1226834408	 0.144129
H	 0.547010739	-2.9698026341	-1.0390886074	 0.144829
H	 0.6837573749	-3.0251494335	 0.6972006924	 0.13866
H	-1.8399587498	-2.9479877885	 0.8973655636	 0.126799
H	-1.971243198	-2.872176765	-0.8415540503	 0.134393
H	-2.9687947069	-5.2027458865	 1.1541171959	 0.109166
H	-3.3939768266	-4.9967402279	-0.547799377	 0.106411
H	-3.376707125	-7.2485959694	 0.1033704891	 0.293459
