15
gdb 130197	2.44988	1.83911	1.05123	4.3362	76.38	-0.1755	-0.0127	0.1628	1056.6447	0.114749	-450.137448	-450.129328	-450.128384	-450.169571	31.56	
N	 0.0211638927	 1.2983564139	 0.1392279703	-0.547441
C	-0.0069399429	-0.0638067794	 0.0599637006	 0.37274
N	-1.1574886391	-0.6846792019	 0.053479383	-0.310096
N	-1.1106117069	-2.0358937413	 0.0303756824	-0.245177
C	 0.0331336816	-2.7683414112	 0.0139155688	-0.114071
C	 1.2467133334	-2.1502060069	 0.0007243392	 0.260773
O	 2.4481108558	-2.8028938077	-0.0293815033	-0.449301
C	 1.3175339436	-0.711669023	 0.0083206498	 0.199828
N	 2.3715571155	 0.0366840921	-0.0330341905	-0.596197
H	 0.9177913362	 1.6981443413	-0.101129305	 0.273454
H	-0.8147602981	 1.7969332146	-0.1156045086	 0.251934
H	-2.0117818181	-2.4790277446	 0.039892215	 0.273029
H	-0.0917091102	-3.8458355518	 0.0057638606	 0.11304
H	 2.3037604866	-3.753984497	-0.0517727084	 0.296254
H	 3.21152066	-0.539826477	-0.0761311839	 0.221233
