18
gdb 40806	4.01726	1.05157	0.88307	2.905	72.35	-0.2482	0.0229	0.2712	1281.0112	0.149235	-439.069057	-439.061112	-439.060168	-439.102237	29.365	
C	 0.2741357395	 1.5268292623	 0.0294980138	-0.184426
O	 1.1710980562	 0.4420117901	-0.2130817388	-0.236721
C	-0.2034758797	 0.1371405088	 0.0277443305	 0.079064
C	-0.5146787376	-0.6191364648	 1.2966395571	-0.067678
C	-1.9975623846	-0.5127841979	 1.6553869235	-0.082445
O	-2.3106558555	-1.2803754161	 2.8238059653	-0.226217
C	-1.6395142769	-2.4517881362	 2.9624987654	 0.128753
N	-0.6887362848	-2.9212565814	 2.2762847528	-0.271887
C	-0.1578283362	-2.1105988881	 1.1844286236	-0.162992
H	 0.4144859407	 2.0443982541	 0.9777350065	 0.116553
H	 0.0746389498	 2.1705032379	-0.825892657	 0.118937
H	-0.7363703487	-0.2117785051	-0.8605565015	 0.095045
H	 0.0710240703	-0.1785885462	 2.1124570521	 0.095823
H	-2.2926631682	 0.5143002422	 1.884208491	 0.121691
H	-2.621135474	-0.8722651251	 0.8250575391	 0.112042
H	-2.0389831001	-3.0010580449	 3.8130531278	 0.124855
H	-0.5287248412	-2.5180819379	 0.2328382062	 0.109749
H	 0.929523341	-2.2332222418	 1.1632638726	 0.129853
