20
gdb 55695	3.24033	1.08029	1.0559	2.2436	75.31	-0.2602	0.0582	0.3185	1258.5707	0.170073	-440.330813	-440.321406	-440.320462	-440.364881	35.626	
C	-0.2799409107	 1.7025380144	-0.5595875196	-0.449539
C	-0.1001745345	 0.2512896051	-0.1351560086	 0.45215
C	 0.9469840853	-0.5258229875	-0.9687534382	-0.266941
C	 1.9761323388	-0.2898343454	 0.1717659825	-0.229414
C	 0.7913100621	 0.0458578771	 1.1188842988	-0.242489
O	-1.3691864542	-0.436763378	-0.148931478	-0.31536
C	-2.2561126385	-0.1311675744	 0.8272699976	 0.476103
N	-3.4211395476	-0.8210206151	 0.6239586519	-0.557726
O	-2.0665008069	 0.6494761267	 1.7326674604	-0.405301
H	 0.6938225098	 2.1962011928	-0.6365949636	 0.115505
H	-0.7655037894	 1.7525804739	-1.5395561366	 0.116119
H	-0.8861313437	 2.2417538925	 0.170593051	 0.150006
H	 0.6628150297	-1.5777610536	-1.0493158952	 0.106451
H	 1.1755226455	-0.1388839782	-1.9649702575	 0.09688
H	 2.6098236377	-1.1345543481	 0.4474846001	 0.101312
H	 2.6178893997	 0.5741489195	-0.0186793268	 0.105923
H	 0.8864019974	 0.8919282598	 1.8003513482	 0.111165
H	 0.466517924	-0.8287416574	 1.6865954549	 0.106838
H	-3.4147768931	-1.6055471855	-0.0053892584	 0.262121
H	-4.0609372812	-0.8430092285	 1.399304357	 0.266195
