14
gdb 81262	2.92766	1.5076	1.22592	3.1778	63.69	-0.2324	-0.0907	0.1417	987.7539	0.101782	-473.803261	-473.796166	-473.795222	-473.834852	27.256	
O	 0.1655779365	 1.3716141766	-0.1251682051	-0.435687
C	 0.0934099351	-0.0165189181	-0.0680089643	 0.174262
C	 0.1554938985	-0.6283780049	 1.3723393333	-0.16832
N	-1.3069486192	-0.2534257218	 1.4651509327	-0.347212
C	-1.3559816012	-0.6065001156	-0.0048488622	-0.168311
C	-1.1194678292	-2.1107426036	 0.0643903399	 0.328222
O	-1.6437990021	-3.0240801756	-0.5061465823	-0.29652
C	 0.0407666147	-2.1275479528	 1.1217214845	 0.328214
O	 0.64316938	-3.0571630462	 1.5772951977	-0.296522
H	-0.440353837	 1.715137305	 0.5453000152	 0.30058
H	 0.7739777507	-0.4151417245	-0.8212729539	 0.117122
H	 0.8401833298	-0.2703199068	 2.1387357744	 0.110875
H	-1.8669333641	-0.8579034333	 2.0701394095	 0.242419
H	-2.1767686525	-0.2266545184	-0.6101546295	 0.110877
