17
gdb 18585	3.78348	2.03706	1.62494	1.7917	68.43	-0.2187	0.0068	0.2255	822.1344	0.144275	-363.838558	-363.831899	-363.830955	-363.869353	26.374	
O	 0.6082174124	 0.856253332	-0.8978126304	-0.427115
C	 0.1480439125	-0.2279888802	-0.1384876954	 0.131165
C	 0.1715148176	-0.1287522135	 1.4087373016	-0.217697
N	-1.2193743552	-0.6533642515	 1.4797521036	-0.095422
C	-2.1832089529	 0.223829344	 2.1657943749	-0.220186
C	-2.7127123328	 1.1343167385	 1.0774438481	-0.072491
C	-2.2716770579	 0.7526638829	-0.1220016079	-0.106755
C	-1.3883202759	-0.4606722272	 0.0015455748	-0.066311
H	 0.1212752907	 1.6383756986	-0.6128289385	 0.279442
H	 0.6708295463	-1.1072928314	-0.5204616963	 0.098339
H	 0.9080133586	-0.7377069191	 1.9424016108	 0.10576
H	 0.2681734925	 0.9142763728	 1.7456049149	 0.086223
H	-2.9974675979	-0.3550840035	 2.6264946575	 0.110118
H	-1.6876925586	 0.7670999473	 2.9815413452	 0.107565
H	-3.3969471967	 1.9532656791	 1.2703190004	 0.101283
H	-2.5408019411	 1.2002901895	-1.071661946	 0.106999
H	-1.7901340914	-1.3257768782	-0.5416607272	 0.079086
