19
gdb 68417	2.54201	1.89142	1.45717	2.3442	75.07	-0.2217	0.0681	0.2898	965.5805	0.159467	-422.986672	-422.979088	-422.978144	-423.018133	31.463	
O	-0.1093101967	 1.3913775612	 0.0289181196	-0.484155
C	 0.0347616494	 0.0126340065	 0.0322464883	 0.286996
C	 0.8673083569	-0.8192388739	-1.0031118111	-0.302903
C	 0.5785937349	-1.9136713921	 0.0559522202	 0.095217
C	 0.7476733401	-0.826547168	 1.1478874201	-0.302897
O	-0.8488328421	-2.0915613511	-0.0240434107	-0.318352
C	-1.2883844622	-0.733527118	-0.0438765998	 0.48271
C	-2.5437278761	-0.3335231652	 0.6525746154	-0.355876
C	-2.4589049542	-0.3283413733	-0.8725140849	-0.355875
H	 0.7631096426	 1.7936763575	 0.0786531076	 0.285924
H	 0.454209112	-0.9632778869	-2.0030894787	 0.10845
H	 1.9188120988	-0.5246675244	-1.0408088588	 0.090314
H	 1.0754520825	-2.8799971422	 0.080301388	 0.087229
H	 1.7883990519	-0.5326304235	 1.3039511251	 0.090313
H	 0.2262853492	-0.9771997615	 2.0948887778	 0.108449
H	-3.1250799676	-1.1222655832	 1.1169981028	 0.119001
H	-2.5604762788	 0.6223978935	 1.1650543366	 0.123228
H	-2.419078934	 0.6310370391	-1.377200202	 0.123227
H	-2.9848722166	-1.1136999044	-1.4038746655	 0.119001
