16
gdb 10166	2.56021	1.22826	0.88615	2.7305	63.5	-0.2565	-0.0581	0.1983	1244.4883	0.126612	-420.879851	-420.870359	-420.869415	-420.915784	31.159	
O	-0.0959034035	 1.4130432269	 0.0337854335	-0.41806
C	 0.0307317409	 0.0036206531	-0.0173888019	-0.080667
C	-1.3824373901	-0.5716980665	 0.0142390513	-0.210028
C	-1.4000157762	-2.1197679233	-0.0395580915	-0.165565
C	-0.7813579857	-2.6850395004	 1.2304867568	 0.156603
O	 0.2051591488	-3.3711527743	 1.2633889991	-0.239727
C	-2.8473176984	-2.5791407612	-0.1609425	 0.150772
O	-3.2946854709	-3.1613871409	-1.1116681577	-0.234145
H	 0.7843225956	 1.7984131482	-0.005878956	 0.29224
H	 0.5412686288	-0.3257974594	-0.9359989039	 0.10149
H	 0.6159317671	-0.3798407046	 0.8334502947	 0.103418
H	-1.8881013471	-0.2189315816	 0.9216764308	 0.120099
H	-1.9441931094	-0.1718723152	-0.8362517914	 0.133894
H	-0.844046982	-2.4966584919	-0.9015901968	 0.119029
H	-1.316955417	-2.3977423917	 2.1655686815	 0.084714
H	-3.490780681	-2.3093449072	 0.7077442012	 0.085933
