19
gdb 40033	3.52257	1.54859	1.44326	2.3691	77.88	-0.2221	0.0773	0.2994	971.5403	0.162595	-381.995458	-381.988758	-381.987813	-382.02631	28.21	
C	 0.0312008775	 1.5363334247	 0.0008077377	-0.294525
N	 1.2586340592	 0.7141960691	 0.0355448975	-0.381242
C	-0.0522834742	 0.0551027667	 0.0147571009	 0.349868
C	-0.4585205322	-0.8041756512	 1.2275667723	-0.242279
N	-1.4488662502	-1.7741721112	 0.7213039921	-0.130045
C	-2.6256930455	-1.0236007019	 0.1360890886	-0.183238
C	-2.0096744406	-1.1358111821	-1.2492782035	-0.093516
C	-0.9963699374	-2.0915141032	-0.6717989464	-0.041179
C	-0.5273010673	-0.7551212161	-1.1674744739	-0.133506
H	-0.158878004	 2.1072008094	 0.9067510658	 0.114488
H	-0.2253364096	 2.0552511781	-0.9202201844	 0.107753
H	 1.6885855722	 0.6881830762	-0.8863899006	 0.226832
H	 0.4187418975	-1.3454637811	 1.5981364638	 0.115541
H	-0.8802295275	-0.2255868084	 2.0541647258	 0.106895
H	-3.5389031589	-1.6153683813	 0.2465140374	 0.109269
H	-2.7896414507	-0.0239946302	 0.5549090498	 0.101528
H	-2.529060168	-1.1833698028	-2.1990800621	 0.088486
H	-0.6492010265	-3.07357362	-0.9653950452	 0.093546
H	-0.0062495238	-0.6839168848	-2.1167864859	 0.085325
