20
gdb 104123	2.5346	1.27861	1.10122	5.1541	74.69	-0.2578	0.0522	0.31	1209.8447	0.171131	-440.350022	-440.340869	-440.339925	-440.383873	34.431	
C	 0.0498065002	 1.5609045085	 0.076230374	-0.405522
C	-0.0769289277	 0.0347655806	 0.0734613035	-0.200419
C	-1.5162002408	-0.5157912601	-0.0800082553	 0.262364
C	-2.1157224626	-0.2017092559	-1.4522261665	-0.442436
C	-1.5414969355	-2.0350537829	 0.2271276092	-0.111789
O	-1.8237374272	-2.1405326714	 1.625942096	-0.241908
C	-2.3895697097	-0.9709723241	 2.0611936706	 0.470642
O	-2.803803997	-0.8081421437	 3.1742734779	-0.393055
N	-2.3939179441	-0.082306926	 1.0069486475	-0.388073
H	 1.0930772982	 1.85501907	 0.2222339994	 0.12758
H	-0.2868286736	 2.0073853149	-0.8645236837	 0.122895
H	-0.5257797915	 2.0129061722	 0.8911674812	 0.117583
H	 0.532440535	-0.3823810868	-0.7381720776	 0.100778
H	 0.3366070451	-0.3623730903	 1.0084839924	 0.116034
H	-1.5063592315	-0.641983055	-2.2487443166	 0.122943
H	-3.1300888659	-0.6018295837	-1.5258228197	 0.128857
H	-2.1654261678	 0.876161295	-1.6308368631	 0.124747
H	-2.3330617619	-2.5432903556	-0.3360037564	 0.111888
H	-0.5854935292	-2.5238388483	 0.0264816536	 0.12143
H	-2.5275213124	 0.8908724828	 1.2296718836	 0.255461
