17
gdb 53024	4.09857	1.00054	0.88899	1.8399	83.88	-0.2299	0.038	0.2679	1344.1734	0.134597	-384.571796	-384.563604	-384.56266	-384.606802	30.173	
C	-0.0217871888	 1.439604095	 0.0052564716	-0.516604
C	 0.0173025521	-0.0143794132	 0.0215125563	 0.34879
C	 0.0461936491	-1.2196448527	 0.0305078834	-0.375229
C	 0.089187731	-2.6472035566	 0.0535336074	 0.254189
C	 0.8127691688	-3.5985928578	 1.043017287	-0.325608
C	 0.1366285326	-4.5827867248	 0.0698557682	-0.123995
C	-1.1080098077	-3.6638329857	-0.1199679581	 0.052749
O	-1.0522690304	-3.6759897826	-1.5728783527	-0.322994
C	 0.3391345443	-3.6370623647	-1.1525352413	 0.052709
H	 0.9877533886	 1.8646806397	-0.0227084372	 0.149695
H	-0.562788896	 1.8111397344	-0.8720523603	 0.15314
H	-0.5232135848	 1.8342983233	 0.8960122592	 0.149807
H	 1.9051418281	-3.5633103283	 1.0282267369	 0.106222
H	 0.4428688585	-3.5903384338	 2.0715353082	 0.106232
H	 0.1436673553	-5.6709123707	 0.0515040755	 0.088739
H	-2.0796895857	-3.6722075992	 0.3731173099	 0.101077
H	 1.1212856349	-3.6130119523	-1.910840254	 0.101081
