20
gdb 36791	8.40531	0.50992	0.49847	2.1692	83.22	-0.2478	0.0522	0.3001	2171.1715	0.168973	-403.072695	-403.062596	-403.061651	-403.109312	35.488	
C	-0.0673726495	-1.11006251	-0.1012505521	-0.448159
C	-0.0057666817	 0.0888023862	-0.1573600389	 0.286402
C	 0.1047439095	 1.5397500487	-0.2167227703	-0.34966
C	 1.5243405265	 2.0257722196	 0.0951117551	-0.045899
O	 1.5198939028	 3.432332785	 0.0110934296	-0.243601
C	 2.7773621104	 4.0139875059	 0.291631715	-0.081457
C	 2.6445572302	 5.5107861033	 0.2438891741	 0.016819
C	 3.7939131532	 6.3293532629	-0.2159827295	-0.246461
N	 2.5857615887	 6.2108582996	-1.0465170558	-0.30387
H	-0.1372163373	-2.1684518017	-0.0551160474	 0.196732
H	-0.1793906534	 1.903944946	-1.2110278039	 0.141504
H	-0.5878874023	 2.0050440825	 0.4944317494	 0.141825
H	 1.8255946019	 1.6917044294	 1.1009170743	 0.100191
H	 2.2381737377	 1.5891967923	-0.6219851692	 0.098343
H	 3.131425743	 3.6952117956	 1.2872347528	 0.094253
H	 3.5302193785	 3.6780162751	-0.4439690777	 0.079095
H	 1.9720854754	 5.9243705163	 0.9921702873	 0.100058
H	 3.9644510516	 7.3134689806	 0.2104679232	 0.122083
H	 4.6982869373	 5.8100705898	-0.5248970443	 0.11029
H	 2.7423745974	 5.5491966628	-1.8037307219	 0.231512
