17
gdb 36671	3.28906	0.78923	0.67421	4.8268	79.69	-0.264	0.0108	0.2748	1609.7678	0.13486	-380.822229	-380.812949	-380.812005	-380.857372	33.222	
C	-0.118111065	-1.1940376532	 0.0374580763	-0.428078
C	-0.0418268643	 0.0001453209	 0.1476364909	 0.288229
C	 0.0792814864	 1.4471913328	 0.2628184259	-0.351209
C	 1.3840550604	 1.9877106483	-0.361126986	-0.197254
C	 1.4607763279	 3.4911117477	-0.2526329108	-0.016419
N	 1.8230195222	 4.0399508369	 1.0559216489	-0.309132
C	 2.7532550323	 4.229106863	-0.0766316883	-0.207057
C	 4.0199092074	 3.5411188743	 0.0005662875	 0.333292
N	 5.0406196697	 2.9992538651	 0.0316497751	-0.33154
H	-0.1944166005	-2.2494553126	-0.0514113157	 0.197175
H	-0.7856990637	 1.925125963	-0.216925903	 0.125061
H	 0.0480590491	 1.7416323575	 1.3189007416	 0.148533
H	 2.2416151234	 1.5366029287	 0.1451362814	 0.143102
H	 1.439357986	 1.6946612982	-1.4151238692	 0.12174
H	 0.7123593333	 4.035052703	-0.829025106	 0.102171
H	 1.3394295958	 4.9141347487	 1.2436066829	 0.24753
H	 2.8237028298	 5.2148823777	-0.5284938217	 0.133857
