19
gdb 113570	4.01879	1.05966	0.96616	1.7107	80.75	-0.2102	0.0149	0.2251	1289.7983	0.157819	-422.991541	-422.982824	-422.98188	-423.025342	32.313	
C	 0.1490891773	 1.1584702822	-0.2858829661	-0.228131
O	-0.1364131	 0.0717451238	 0.5720989099	-0.230268
C	-1.3791352209	-0.492315188	 0.3366430919	 0.049074
C	-1.5445420112	-1.488769633	-0.7993952493	-0.399377
C	-1.5342828113	-1.9635176984	 0.63918267	 0.406786
O	-0.4062001989	-2.6839287142	 1.0764554651	-0.298432
C	-0.8009644195	-3.6147962468	 2.0858181332	-0.12738
C	-2.2949372957	-3.4722142732	 2.1887593514	-0.11139
C	-2.7038084904	-2.5219068407	 1.3534647079	-0.155399
H	 1.1448045038	 1.522161722	-0.0217744628	 0.128133
H	 0.1439671179	 0.8538338996	-1.3422288433	 0.108848
H	-0.575523312	 1.9773752955	-0.1582631351	 0.103156
H	-2.2269613693	 0.160460765	 0.5610868132	 0.079752
H	-2.4669712961	-1.5138915502	-1.3704896658	 0.109864
H	-0.6414445715	-1.721070364	-1.3539288618	 0.131216
H	-0.4872304636	-4.6275715895	 1.7903275319	 0.108201
H	-0.2910201443	-3.3786560161	 3.033383162	 0.109909
H	-2.9062435058	-4.0635002546	 2.8576654252	 0.107155
H	-3.7160059783	-2.1739870993	 1.1951858227	 0.108284
