19
gdb 69599	3.4321	1.29093	1.16976	3.3077	75.03	-0.2505	0.0779	0.3284	1125.1141	0.158884	-423.007779	-422.999745	-422.9988	-423.040039	31.61	
C	 0.0728382565	 1.4931852506	-0.1113767703	-0.484208
C	-0.0642346116	 0.0098406831	 0.0902477444	 0.411587
C	-1.318300005	-0.7265132921	-0.3761876223	-0.279547
C	-1.1884890003	-2.1429706102	 0.2308804716	-0.322851
C	-0.3234347048	-1.9464417067	 1.4749861038	 0.480499
C	-0.7341275829	-2.3083817104	 2.8383882947	-0.260709
O	 0.2292698827	-3.0884742375	 2.1238470524	-0.28297
C	 0.5360618171	-0.7485302589	 1.2007569661	-0.119218
O	 1.1236175985	-0.7753432843	-0.1122280968	-0.298772
H	 1.0192855881	 1.852766058	 0.299516359	 0.132463
H	 0.0503529497	 1.7385767425	-1.1790061537	 0.129326
H	-0.7492019669	 2.0308050568	 0.3727788589	 0.122069
H	-2.2005475411	-0.2070071553	 0.0163307285	 0.103659
H	-1.4039342188	-0.7394949721	-1.4673525871	 0.110057
H	-2.1519066286	-2.6043128574	 0.4573946452	 0.104645
H	-0.6521307067	-2.8022226375	-0.4560303195	 0.13424
H	-0.3463275669	-1.7573187144	 3.6952123741	 0.112463
H	-1.7017773198	-2.7840443491	 2.994778722	 0.113729
H	 1.1418418809	-0.3014908751	 1.9847669491	 0.093538
