15
gdb 15301	2.97428	1.68192	1.17607	3.226	69.61	-0.2473	0.0174	0.2647	1001.7394	0.117005	-362.603821	-362.595709	-362.594765	-362.636777	29.256	
N	-0.2878527569	 1.1712195555	-0.0377741383	-0.437042
C	-0.4679790904	-0.0445563059	-0.3145166903	 0.135092
O	-0.9714927353	-0.8758877931	 0.6325723796	-0.185008
C	-0.996337757	-2.2342030122	 0.3090443669	 0.112734
C	-2.1236013238	-3.0174477208	 0.8806061214	-0.315481
C	-2.078679657	-2.772882851	-0.6266407094	-0.233779
C	-3.0130017461	-1.8828237165	-1.2451869608	 0.324718
C	-3.7850335602	-1.1340792288	-1.7836123203	-0.444981
H	 0.0781057734	 1.6607207636	-0.8518185755	 0.231007
H	-0.2655535058	-0.5454751196	-1.2687331162	 0.096603
H	-0.0138595666	-2.6959856763	 0.2420551052	 0.112442
H	-1.9358131458	-4.0220742713	 1.2400883349	 0.128521
H	-2.8616494487	-2.4503477774	 1.4345290397	 0.152144
H	-1.7756867043	-3.6197410702	-1.2361547516	 0.121034
H	-4.4732135655	-0.471740086	-2.2473924654	 0.201997
