19
gdb 53393	2.84663	1.02219	0.83602	1.9106	85.18	-0.2426	0.026	0.2686	1445.6554	0.157397	-385.827449	-385.817927	-385.816982	-385.864027	33.687	
C	 0.0486916063	 1.4647602535	-0.3261492363	-0.499683
C	 0.01745153	 0.0206887084	-0.1495984787	 0.067651
C	 0.0022387969	-1.1736470558	 0.0085777428	 0.10355
C	-0.0255150705	-2.6157144269	 0.174766787	-0.131138
O	 0.1018761877	-3.0590329212	 1.5561668523	-0.287328
C	-1.1339952583	-3.8066020877	 1.4973460033	-0.138149
C	-1.383828675	-3.3333951056	 0.0726617586	 0.30304
C	-2.6452341762	-2.8257479523	-0.5433899251	-0.321186
C	-1.9638572314	-4.0576612031	-1.0995148165	-0.325375
H	 0.736201503	 1.9308310492	 0.3882734838	 0.155085
H	 0.386119883	 1.7343044725	-1.3329960079	 0.149929
H	-0.9405643646	 1.9100701203	-0.174409329	 0.149387
H	 0.7575132435	-3.0794409877	-0.4425599494	 0.096566
H	-0.9647907417	-4.8848721832	 1.6196840862	 0.099708
H	-1.8532995519	-3.466334397	 2.2532453261	 0.105619
H	-3.5699728602	-2.9559084184	 0.0101156717	 0.114419
H	-2.5863799212	-1.9036362578	-1.1124642225	 0.124591
H	-1.4532283369	-3.9733705021	-2.0539360491	 0.117941
H	-2.4246388922	-5.0250279548	-0.9246714673	 0.115374
