12
gdb 27973	4.09493	1.22142	0.9408	3.4421	63.61	-0.2722	-0.1001	0.1721	1118.72	0.079226	-468.870199	-468.863224	-468.86228	-468.90221	24.909	
O	 0.0427499516	 1.2559244958	-0.1984958834	-0.372255
C	 0.0266426168	-0.0668264495	-0.0782208585	 0.46519
N	-0.0982487448	-0.7609638469	-1.2093761208	-0.300556
C	-0.1084667926	-2.0811758181	-1.0324963568	 0.245752
C	-0.2492689125	-2.8872343554	-2.3046592181	 0.125878
O	-0.2779270437	-4.0862634979	-2.3386902065	-0.219592
N	-0.008056701	-2.7258421012	 0.132911317	-0.265547
C	 0.1112013514	-1.9162667185	 1.1829456927	 0.079704
N	 0.1357270613	-0.5849253635	 1.1493230144	-0.32946
H	 0.137563881	 1.6188970742	 0.6941971679	 0.316799
H	-0.3236359211	-2.2465917285	-3.2061545663	 0.109095
H	 0.1974676136	-2.3812380805	 2.1621982683	 0.144992
