19
gdb 101137	2.559	1.43404	1.02722	1.7375	70.95	-0.2541	0.0562	0.3103	1177.5771	0.158411	-460.113211	-460.104395	-460.10345	-460.146774	33.533	
O	-0.9108909741	 0.2932487356	 1.4353044769	-0.423742
C	-0.5878921334	 0.4696736758	 0.0725939967	-0.080448
C	-1.3763883911	-0.4558941969	-0.8721012732	-0.061349
O	-0.9186272483	-0.2991544399	-2.2114342005	-0.419846
C	-1.3319587539	-1.908752517	-0.4531560528	 0.420557
C	-1.5847552938	-3.1330800108	-1.3490323731	-0.286395
C	-2.0744740533	-3.9098967888	-0.0753502912	-0.241967
C	-1.7891324711	-2.6455039187	 0.7394912593	-0.057346
O	-0.3890625207	-2.3407696304	 0.5641481994	-0.308569
H	-0.5294328404	-0.5612377426	 1.6761767141	 0.296862
H	-0.8106329297	 1.5079175117	-0.1895381312	 0.117442
H	 0.4875248307	 0.307557237	-0.1116340527	 0.08122
H	-2.425498773	-0.1402918624	-0.8983195634	 0.106835
H	 0.0239228214	-0.5023906934	-2.2264896341	 0.284703
H	-2.3821223924	-2.9648428144	-2.0753829344	 0.121367
H	-0.7027928537	-3.5220638175	-1.8619105207	 0.108591
H	-3.1362446037	-4.1621923109	-0.1201206602	 0.112236
H	-1.5011866987	-4.7905550287	 0.2221877971	 0.115175
H	-2.2561347407	-2.2868747675	 1.6493723639	 0.114676
