15
gdb 124003	3.73372	1.60933	1.15147	3.9515	75.2	-0.2068	-0.0411	0.1657	994.2857	0.115964	-416.800591	-416.794033	-416.793089	-416.831508	25.96	
C	-0.0179071943	 1.5083984667	 0.0000654505	-0.232733
N	 1.303637402	 2.1687242456	-0.047167067	-0.417741
C	 2.2394240731	 1.4356709475	-0.7959238698	 0.113963
C	 2.0853080014	 0.1050336715	-1.0750145055	 0.390419
O	 3.1061927051	-0.3342974759	-1.8287733453	-0.231864
N	 3.991168152	 0.7267823533	-2.0389159083	-0.145801
C	 3.4652498995	 1.7653595146	-1.4254045542	-0.054893
C	 1.0222974058	-0.6915275353	-0.5201577571	-0.170351
C	 0.0265449559	-0.0094832972	 0.0707887489	-0.092833
H	-0.5704946108	 1.9208180022	 0.8480074828	 0.117211
H	-0.5747318997	 1.8018547932	-0.9043774237	 0.128131
H	 1.6491651799	 2.4048759316	 0.8769753086	 0.237197
H	 3.986466942	 2.711586275	-1.4576607666	 0.132399
H	 1.0766112273	-1.7735461261	-0.5341507933	 0.118496
H	-0.7853681992	-0.5253304666	 0.5731053601	 0.108399
