19
gdb 38312	2.89699	1.89759	1.87843	2.6646	72.06	-0.2358	0.0674	0.3032	863.3475	0.164121	-422.995801	-422.989854	-422.988909	-423.025704	26.412	
C	-0.0597909252	 1.5869772904	 0.132189815	-0.247899
C	 1.4699399169	 1.3931740051	 0.0443494443	 0.066524
O	 1.2984615273	 0.1225534401	 0.7352433826	-0.265989
C	 0.0142784586	 0.0463574472	 0.0523943989	 0.06652
C	 0.3246794838	-0.4466208638	-1.4169353791	 0.063022
C	-0.16415582	 0.5317441329	-2.5139010494	-0.231982
C	 0.9844979404	 1.5945847299	-2.5202197097	-0.231989
C	 1.9285783496	 1.0373890459	-1.4258066658	 0.063024
O	 1.7417576011	-0.3703277211	-1.5699899408	-0.225744
H	-0.3518429692	 1.908621078	 1.1334708399	 0.10889
H	-0.5989228367	 2.1652219355	-0.6155806862	 0.100812
H	 2.1487389443	 2.0733792177	 0.5629205832	 0.077973
H	-0.71341054	-0.5747600552	 0.5787449293	 0.077974
H	 0.0196701438	-1.4833812127	-1.5669973534	 0.078987
H	-0.2141041596	 0.0113487672	-3.4728657707	 0.10793
H	-1.1515540234	 0.9549739942	-2.3149167719	 0.102515
H	 1.5014781205	 1.5988113545	-3.4823174651	 0.107926
H	 0.6402263222	 2.6128872784	-2.3247378675	 0.102519
H	 2.9849467954	 1.2602529559	-1.5834107438	 0.078986
