12
gdb 129438	4.12109	1.29818	0.9872	3.424	62.89	-0.2691	-0.1121	0.157	1071.9256	0.077511	-464.960909	-464.953501	-464.952557	-464.993256	26.588	
N	-0.0666517095	 1.3262171264	 0.0082453283	-0.536146
C	 0.0654540375	-0.0166193686	 0.0029183325	 0.374887
O	 1.1140212488	-0.6333408427	-0.0076258967	-0.346885
C	-1.2496046239	-0.7637518147	 0.0111499606	 0.271087
C	-1.2758205194	-2.1567982895	 0.0069330679	 0.016918
N	-2.4349645891	-2.7964270481	 0.0142819685	-0.167081
N	-3.5570176856	-2.0723103844	 0.0256507333	-0.043068
N	-3.5360672243	-0.7606324007	 0.029646402	-0.057756
N	-2.3872252313	-0.0861891121	 0.0224869095	-0.257657
H	 0.7596105758	 1.9003867032	 0.0032586472	 0.277002
H	-0.9837169174	 1.7439516385	 0.0169142388	 0.288748
H	-0.3631551617	-2.7422788473	-0.0023091319	 0.179951
