19
gdb 53038	3.43278	0.91007	0.82138	1.4266	87.96	-0.2188	0.0428	0.2616	1484.5218	0.157983	-385.837164	-385.82766	-385.826716	-385.872588	34.516	
C	-0.0176429698	 1.4965434623	 0.0141508198	-0.50862
C	-0.0026311145	 0.0415218314	-0.0067681041	 0.254375
C	 0.0127091106	-1.164628282	-0.0200292862	-0.20474
C	 0.04406265	-2.5876970391	-0.0589481463	 0.183591
C	 0.7706617543	-3.4305483388	-1.1278358307	-0.28801
C	-0.4046630621	-4.4532502204	-1.1305896325	-0.223074
C	-1.1273282796	-3.6355598686	-0.0566682592	-0.177849
C	-0.2486925481	-3.4430184818	 1.1401111656	 0.050525
O	 0.6979724566	-4.3880996124	 1.548085409	-0.420394
H	 0.7851258411	 1.908349633	-0.6079674042	 0.147952
H	-0.9652725799	 1.8951904246	-0.3661848074	 0.144727
H	 0.121364568	 1.8848022316	 1.029563948	 0.146198
H	 0.8594089265	-2.894159648	-2.0733592859	 0.109923
H	 1.7503060522	-3.8078978854	-0.828214847	 0.113093
H	-0.9422055013	-4.4657013963	-2.0803228328	 0.104442
H	-0.154544271	-5.4811452904	-0.852763407	 0.094872
H	-2.1937175741	-3.4444738165	-0.0150841284	 0.09227
H	-0.7161740506	-2.8894442677	 1.9544695844	 0.093099
H	 0.2248700718	-5.1485882055	 1.9027773349	 0.28762
