16
gdb 84392	2.20574	1.76698	1.15193	3.1681	69.27	-0.2797	-0.0164	0.2634	1047.4478	0.124569	-437.900001	-437.891709	-437.890765	-437.932938	31.239	
O	 0.1298307008	 1.4257750567	-0.1046941643	-0.419416
C	 0.0463437926	 0.0249766815	-0.0098941338	 0.093901
C	 0.6910391496	-0.5881106313	 1.2129716007	-0.111299
C	-0.0203803721	-1.592809624	 1.7173604393	-0.111309
C	-1.2873873469	-1.8585516441	 0.9357175778	 0.093904
O	-2.421482094	-2.1771602334	 1.7041885253	-0.419413
C	-1.4139381752	-0.563224466	 0.0480970658	-0.258089
C	-2.2947476932	 0.3931904998	 0.7106788761	 0.278266
N	-2.9550011733	 1.149113986	 1.2857080486	-0.333078
H	-0.3002836901	 1.8124630977	 0.6684109647	 0.295014
H	 0.5302081917	-0.3409212326	-0.9233314294	 0.114429
H	 1.6536419804	-0.237457339	 1.5672108292	 0.117815
H	 0.2521347059	-2.2167373685	 2.5608640111	 0.117814
H	-1.1551427063	-2.7210008649	 0.2715877384	 0.114435
H	-2.6041527317	-1.4415995908	 2.3023496903	 0.295013
H	-1.814441978	-0.7782472171	-0.9450878498	 0.132015
