18
gdb 37202	2.74637	2.05019	1.73949	3.3645	73.97	-0.2061	0.0572	0.2633	865.6986	0.150524	-397.985464	-397.978753	-397.977809	-398.01599	28.467	
C	-0.0321611005	 1.5207056836	-0.0512947233	-0.215168
N	 1.4809400332	 1.5531980479	 0.0153799929	-0.379281
C	 1.5253502162	 0.0694526983	-0.0444048554	 0.253462
C	 1.5498588462	-0.7274894522	 1.2867389764	-0.220123
N	 0.0478808869	-0.6964843464	 1.313351334	-0.368465
C	 0.0080342957	-0.0371064595	-0.0046377507	 0.247169
C	 0.0522137047	-0.8922030595	-1.2808761819	-0.131962
N	 0.7080145683	-0.0543244973	-2.3102323048	-0.333596
C	 1.5574023598	-0.7662773857	-1.3307706436	-0.130123
H	-0.493845139	 1.9836189563	 0.8245960483	 0.106201
H	-0.4503103345	 1.9376502474	-0.9709505315	 0.110995
H	 1.8939182636	 1.9894113949	-0.8022677964	 0.224252
H	 1.9996244077	-1.7260799593	 1.2216775495	 0.092331
H	 1.9950503773	-0.1891024432	 2.1283869187	 0.116454
H	-0.4080043871	-1.60030516	 1.3631028811	 0.216533
H	-0.598703167	-1.7095243055	-1.5747902896	 0.089414
H	 0.7259870784	-0.5966676617	-3.17282762	 0.234338
H	 2.3168572601	-1.4638690484	-1.6693346537	 0.087568
