16
gdb 132512	3.10171	1.30182	0.9222	0.9863	76.08	-0.2164	-0.0024	0.214	1205.558	0.123897	-445.927061	-445.918897	-445.917953	-445.960969	30.679	
C	-0.0472632186	 1.5258553055	 0.0318223589	-0.492094
C	-0.0053512132	 0.0176466414	-0.0048799528	 0.313277
C	-0.0657987644	-0.6853495744	-1.2090561241	-0.189861
C	-0.0244779761	-2.0782936219	-1.2496099972	-0.197419
C	 0.0792905705	-2.8053957156	-0.0701364615	 0.255439
O	 0.1204863742	-4.1641218314	-0.0898205031	-0.440485
C	 0.138932576	-2.0966432312	 1.1313558561	 0.187695
F	 0.2389067577	-2.8268813674	 2.2636811579	-0.102062
C	 0.0988194462	-0.7190137515	 1.182307647	-0.331916
H	 0.8751176935	 1.9446251426	 0.4506881385	 0.131045
H	-0.1736808363	 1.9408445833	-0.9715097446	 0.124082
H	-0.8747928339	 1.8909838091	 0.6505195233	 0.130222
H	-0.1473218624	-0.1351646658	-2.1410933642	 0.093427
H	-0.0723133121	-2.6158400378	-2.1897051028	 0.110634
H	 0.1922032304	-4.468493132	 0.8230876774	 0.302338
H	 0.1491051886	-0.2301316329	 2.1495034811	 0.105677
