18
gdb 40868	4.04728	1.46087	1.3451	3.2252	74.36	-0.2365	0.072	0.3085	992.6834	0.149293	-401.865333	-401.858412	-401.857468	-401.896869	27.547	
C	 0.0279839891	 1.3686662986	-0.2980696519	-0.077771
C	 1.466901725	 1.5861274974	 0.2033736698	-0.378224
C	 1.3351352019	 0.1597519005	 0.7685983155	 0.521598
O	-0.0018336997	 0.0289389287	 0.2413070524	-0.329938
C	 2.2225728355	-1.0338196765	 0.4981861501	-0.133692
C	 3.1984447838	-1.1492138482	 1.6251237229	-0.043471
C	 2.9496681533	-0.0200203853	 2.6132229519	-0.250346
C	 1.4735153953	-0.2493723425	 2.245178591	-0.094469
N	 1.8168433113	-1.7096730972	 1.7866451217	-0.156333
H	-0.7376122293	 2.0082162031	 0.1567302883	 0.104772
H	-0.1070041681	 1.3713867499	-1.3858006861	 0.106136
H	 2.2245990238	 1.7044284763	-0.5733732929	 0.115558
H	 1.5980574524	 2.3693797024	 0.9532532115	 0.112606
H	 2.3188065279	-1.5913458969	-0.4265699916	 0.099813
H	 4.061114835	-1.8033508261	 1.5594574039	 0.099109
H	 3.1656686201	-0.3421206408	 3.635058984	 0.115928
H	 3.3869920274	 0.9685549518	 2.4357646158	 0.098048
H	 0.6528050054	-0.0781568253	 2.9388371138	 0.090674
