16
gdb 109328	2.17128	1.43564	0.94569	3.9941	71.37	-0.2581	-0.0044	0.2536	1208.9835	0.123632	-437.88612	-437.877301	-437.876357	-437.920427	30.887	
O	-0.0220025311	 1.4562926693	 0.0558713309	-0.412565
C	 0.0163560673	 0.0445145282	 0.1132505998	-0.18452
C	-1.3782678028	-0.4798981092	 0.0381068297	 0.298021
C	-2.5185658989	 0.185105231	-0.1018340783	-0.193952
C	-3.6760808495	-0.764777759	-0.1490741571	-0.122641
O	-3.1041138246	-2.0619444534	 0.0686871242	-0.262216
C	-1.6911999934	-1.9652020899	 0.1025872762	-0.101853
C	-1.0812519399	-2.70613227	-1.0282459246	 0.270234
N	-0.5774401274	-3.2695099319	-1.9023148846	-0.327157
H	 0.8820293764	 1.77980965	 0.0089985278	 0.296707
H	 0.6064097098	-0.3833216647	-0.7147374426	 0.125502
H	 0.4891621306	-0.311425809	 1.0463899484	 0.103887
H	-2.6127589871	 1.2589732869	-0.180373568	 0.134521
H	-4.4219318658	-0.5757480101	 0.6349670694	 0.121786
H	-4.1992826719	-0.742919524	-1.1168080001	 0.123406
H	-1.3188071417	-2.4306788941	 1.0284142588	 0.130839
