23
gdb 66345	2.17992	1.37387	1.29137	0.5099	90.53	-0.2571	0.0603	0.3173	1193.5684	0.206497	-351.154768	-351.145597	-351.144652	-351.187795	36.887	
C	-0.020978087	 1.5405536237	 0.0104687147	-0.42268
C	-0.04121338	-0.0023409158	 0.0024051632	 0.080603
C	 0.674666706	-0.5333073546	-1.2707771389	-0.198775
C	 0.8147855781	-2.0600671798	-1.2838912682	-0.204858
C	 1.5336894874	-2.5693887997	-0.0263553731	-0.180374
C	 0.8389504906	-2.0736284524	 1.2500408169	-0.204858
C	 0.6987694277	-0.5468298208	 1.2559467799	-0.198775
C	-1.4374340834	-0.4552352733	 0.0132930936	 0.376201
C	-2.586827301	-0.8108930642	 0.0224085787	-0.531556
H	 1.0122318917	 1.90357396	 0.0025586756	 0.109979
H	-0.5345685028	 1.9423326814	-0.8678239641	 0.120112
H	-0.5176865064	 1.9328590012	 0.902643978	 0.120112
H	 0.1357331166	-0.1887027874	-2.1598862112	 0.096858
H	 1.6718249516	-0.073414479	-1.3039985896	 0.088768
H	-0.1832903436	-2.5113789705	-1.3425670345	 0.108645
H	 1.3550391119	-2.3718523053	-2.1848891942	 0.088239
H	 1.5805294895	-3.6641153512	-0.0326598585	 0.089017
H	 2.5736946999	-2.2128688117	-0.0343650649	 0.088074
H	-0.1578751112	-2.5256350747	 1.3229010057	 0.108645
H	 1.3962513011	-2.3949909493	 2.137184062	 0.088239
H	 1.6964284174	-0.0872199085	 1.2750648779	 0.08877
H	 0.176928492	-0.2118160674	 2.1588113029	 0.096858
H	-3.600911066	-1.1257444807	 0.0305347679	 0.19276
