13
gdb 5164	8.01949	1.26192	1.09035	2.2057	63.12	-0.2182	0.0049	0.223	1010.1421	0.097445	-394.813323	-394.806423	-394.805479	-394.845195	24.561	
N	-0.1788440583	 1.2956259771	 0.0101449914	-0.431476
C	-0.0345499319	 0.0463178685	 0.0035430679	 0.111734
O	-1.1655235304	-0.7274912754	 0.0082405038	-0.227537
C	-1.0058730134	-2.0710525	 0.0010722447	 0.505166
N	 0.098692193	-2.7638163349	-0.0098823199	-0.353444
C	-0.3238197738	-4.0839613236	-0.0127878639	-0.085644
C	-1.6855217654	-4.159283083	-0.0034520357	-0.107486
N	-2.1215967283	-2.8410812491	 0.0055436	-0.332827
H	 0.7345055379	 1.7459499443	 0.0053520003	 0.239075
H	 0.8805987551	-0.5471413258	-0.0059415143	 0.153773
H	 0.3890794574	-4.8933400365	-0.0214749559	 0.115897
H	-2.3752529568	-4.9855511615	-0.0022363874	 0.135753
H	-3.0691449653	-2.50343782	 0.013817979	 0.277018
