15
gdb 49491	2.239	1.69369	1.1776	5.1936	71.42	-0.2583	-0.055	0.2034	1037.2663	0.112854	-416.74622	-416.738565	-416.737621	-416.778907	28.205	
O	-0.726740669	 0.8202962245	 0.514923151	-0.237872
C	 0.1736397875	 0.9767033161	-0.2707564337	 0.126977
C	 1.3056083248	 1.9601100725	-0.1135558857	-0.127944
C	 1.1447869077	 3.4731195222	-0.5366948516	-0.063752
C	 0.2390580275	 3.7024491002	 0.6976544784	-0.239707
C	 1.4654385942	 2.8572365289	 1.1540150682	 0.24172
N	 2.3160796484	 3.8409664078	 0.3537950626	-0.332044
C	 1.8248834263	 2.4326291882	 2.4851495118	 0.169423
N	 2.1205678748	 2.0801850176	 3.5452115155	-0.340847
H	 0.2254790256	 0.3797378882	-1.2095172319	 0.092166
H	 2.2402341969	 1.5169160264	-0.4766812562	 0.099177
H	 1.041558187	 3.8702536017	-1.5448543128	 0.110963
H	 0.2363642748	 4.7237676508	 1.0748376419	 0.13325
H	-0.7290315868	 3.2113966674	 0.7313985772	 0.148406
H	 3.1638860804	 3.3647962777	 0.0271078154	 0.220084
