16
gdb 44330	3.18029	1.94319	1.54203	3.479	71.35	-0.2176	-0.0203	0.1973	864.806	0.126855	-400.752183	-400.745894	-400.744949	-400.782735	26.01	
O	 0.1420762724	 0.1919002571	 0.5147520884	-0.297232
C	 0.0862669713	 1.286511922	 0.0442023319	 0.396965
C	-1.1039758902	 2.2682846275	 0.0858681293	-0.359494
C	-0.6990827019	 3.3921357413	-0.8406387933	-0.062466
C	 0.5561292584	 4.2598148629	-0.5997152174	-0.102184
C	 1.4467544473	 3.9689345592	 0.5654683506	-0.094002
C	 1.8219102563	 2.6891686211	 0.5211750095	-0.096545
N	 1.2204767669	 1.9753758672	-0.5973860012	-0.159647
C	 0.6277067958	 3.0208745639	-1.4507547038	-0.048084
H	-2.0221241966	 1.7744283772	-0.2449422507	 0.136691
H	-1.2517993619	 2.5539765741	 1.1328579029	 0.142891
H	-1.4582625938	 3.8445340987	-1.4673550173	 0.100726
H	 0.5436721337	 5.2460621134	-1.0479780594	 0.099203
H	 1.7658873914	 4.7017564346	 1.2933651631	 0.109699
H	 2.4115350839	 2.117469206	 1.223986423	 0.133845
H	 0.8365771671	 2.9742512736	-2.5125386854	 0.099634
