18
gdb 90307	2.9193	1.80073	1.45001	2.7123	77.17	-0.2339	0.0035	0.2374	939.7669	0.150221	-401.895858	-401.889035	-401.888091	-401.926728	28.656	
O	 0.0774413596	 1.43220769	 0.0768933342	-0.438123
C	 0.0563314828	 0.0386689183	 0.0574363762	 0.121424
C	 0.1269405761	-0.6607500431	 1.4843823857	-0.336407
C	-1.3752378004	-0.7409113503	 1.367497543	 0.228037
C	-2.4712777194	-0.2391185559	 1.9446294145	-0.201667
C	-3.3877319626	 0.2685302628	 0.8734453299	-0.064223
N	-2.773149302	 1.4558735011	 0.1999362269	-0.352528
C	-2.6662037251	 0.1202551283	-0.4369791023	-0.070695
C	-1.3784539236	-0.6184653474	-0.1404300433	-0.089664
H	-0.8168211741	 1.7383538418	 0.3146315056	 0.2997
H	 0.8229922305	-0.3031204207	-0.644501193	 0.083772
H	 0.6353266922	-1.6286485947	 1.4231972416	 0.104388
H	 0.5484762204	-0.0663702986	 2.2968702358	 0.115797
H	-2.6050756344	-0.0027422069	 2.9933492645	 0.09983
H	-4.4696176754	 0.2433687574	 0.9485367067	 0.094086
H	-3.4917456094	 1.9894376184	-0.2841904038	 0.235294
H	-3.2075977121	-0.04465541	-1.3613561998	 0.092728
H	-1.3004067132	-1.5616521404	-0.6898494326	 0.07825
