16
gdb 11120	6.67614	1.03637	0.96171	5.8908	65.87	-0.2479	0.0165	0.2645	1167.7934	0.131156	-379.900713	-379.892679	-379.891734	-379.933511	28.806	
O	 0.2166254156	 1.178986306	 0.565105785	-0.419572
C	 0.1223743173	-0.1825687263	 0.1784164423	-0.093111
C	-1.2642549006	-0.3776048631	-0.4177813347	 0.059824
C	-1.7128365146	-1.8590918387	-0.4978861353	-0.270156
C	-2.5492154748	-1.5608711595	 0.78476571	-0.111316
N	-2.3817032102	-0.1161148851	 0.5206934888	-0.302529
C	-3.9353474279	-2.0321414858	 0.81910479	 0.290968
N	-5.0217716272	-2.4254398028	 0.8452880419	-0.32263
H	 1.0736933507	 1.3247901609	 0.9757937483	 0.294125
H	 0.8837117051	-0.4502831903	-0.5719413515	 0.095231
H	 0.2594075906	-0.8528615591	 1.0436599518	 0.083711
H	-1.3424899204	 0.2082344983	-1.339456984	 0.093149
H	-2.3378852632	-2.076552495	-1.3631349035	 0.138507
H	-0.9403646784	-2.6228881745	-0.3989563633	 0.117925
H	-2.0485149878	-1.9286085187	 1.6905760122	 0.11205
H	-2.1470987341	 0.4650124237	 1.318800022	 0.233824
