17
gdb 94503	3.63025	0.78499	0.69039	3.224	80.84	-0.2665	-0.0652	0.2012	1600.3545	0.133682	-421.781131	-421.77163	-421.770686	-421.817439	32.17	
C	-0.3983000257	 1.4728578562	-0.0353896749	-0.413901
C	 0.0219769032	 0.0141526581	-0.0878697364	-0.039925
C	 1.4009171538	-0.3189037319	-0.6978967312	-0.075802
O	 1.8509840453	-0.9525983137	 0.5205496303	-0.274965
C	 0.6130738496	-0.6514412708	 1.2024770653	-0.077143
C	 0.7812120296	 0.1803210804	 2.380013793	 0.164368
C	 0.8961288716	 0.8685041657	 3.3674579512	 0.00357
C	 1.0792098741	 1.6809861283	 4.5418802501	 0.02059
O	 0.181465289	 2.215450531	 5.1517531085	-0.229066
H	 0.3931132647	 2.1018701328	 0.3830511531	 0.131834
H	-0.6260427386	 1.8377544759	-1.0424083042	 0.122352
H	-1.2926258824	 1.606846677	 0.5806576983	 0.134177
H	-0.7810142747	-0.5994759216	-0.5024272885	 0.094882
H	 1.4035333064	-1.0157339581	-1.5433739041	 0.109173
H	 2.0150954061	 0.5550466811	-0.9497581334	 0.108306
H	 0.0946877021	-1.5734851352	 1.4992472929	 0.116942
H	 2.137536176	 1.7845612349	 4.8563122401	 0.104609
