17
gdb 46951	2.8339	1.88141	1.40321	4.7255	71.46	-0.2412	0.011	0.2522	929.8072	0.139813	-418.000309	-417.993567	-417.992623	-418.031402	27.166	
O	 0.0212197582	-0.055335622	-0.1504325478	-0.378374
C	-0.0369200543	 1.1552028558	-0.0360611818	 0.394592
N	-1.2291574936	 1.8275892474	 0.0021089668	-0.322994
C	-1.3986413184	 3.2743691623	 0.0036730621	-0.171557
C	-0.1583905775	 3.9393275111	 0.5849101582	-0.054092
C	 0.3843287464	 3.3188142226	 1.9004758387	-0.169377
N	 1.6286196757	 2.813194112	 1.2225135106	-0.147443
C	 1.1613756946	 3.4736405214	-0.0493249751	-0.067967
C	 1.2103586466	 1.9998014544	 0.0392081893	-0.109892
H	-2.0393643822	 1.2376583147	-0.1184568127	 0.24932
H	-1.5937201724	 3.6542800355	-1.0112612311	 0.111897
H	-2.2734222486	 3.5234805048	 0.6163775905	 0.115426
H	-0.2863030043	 5.0217100235	 0.6205475033	 0.088524
H	 0.6738502718	 4.0668150731	 2.6408250448	 0.118704
H	-0.2189422255	 2.5452127543	 2.3834068048	 0.119612
H	 1.8227188838	 4.0593199204	-0.6788862313	 0.100861
H	 2.0636950897	 1.4855745888	-0.3875918093	 0.122759
