16
gdb 107531	2.09274	1.60832	1.10676	4.5129	68.78	-0.2641	-0.0042	0.2599	1103.5665	0.123396	-437.838377	-437.829957	-437.829013	-437.872	30.685	
O	 0.0803561132	 1.4229389366	 0.1150022603	-0.404147
C	 0.0580425523	 0.0145872143	-0.0516232148	-0.178644
C	-1.3352272158	-0.535405575	-0.0236535618	 0.231663
C	-2.0678959979	-1.018917562	 1.2195194875	-0.362222
C	-1.9188593874	-1.9288737968	 0.0448626506	 0.05029
O	-2.9204554679	-1.6489270968	-0.9437931883	-0.287056
C	-2.3762311635	-0.3163853438	-1.1319260052	-0.05745
C	-3.3665738777	 0.746385954	-0.9459952424	 0.295539
N	-4.1379821784	 1.5907270467	-0.7818543911	-0.324861
H	-0.352202288	 1.6308697219	 0.9503996024	 0.291277
H	 0.5233590403	-0.1691300511	-1.026540092	 0.119105
H	 0.6705279492	-0.5022528759	 0.7042406979	 0.096862
H	-1.4119791716	-1.2329904098	 2.0585946888	 0.126245
H	-3.0493840809	-0.6340499251	 1.4807223072	 0.145106
H	-1.4708257182	-2.9147997133	 0.0408209743	 0.123427
H	-1.9215614275	-0.2273472839	-2.1250193836	 0.134868
