20
gdb 18027	3.78212	1.90541	1.37732	0.2703	81.65	-0.2246	0.0311	0.2557	945.8368	0.180262	-311.876985	-311.87009	-311.869145	-311.907712	28.164	
C	 0.0085842359	 1.5681876611	-0.0566380926	-0.250738
C	 1.5719944281	 1.4772382825	 0.0309526316	-0.31723
C	 1.3631879968	 0.0902497417	 0.6032693994	 0.348439
C	 1.8739839325	-0.6658720552	 1.5651935788	-0.231084
C	 1.0894797626	-1.8350758657	 2.1166618388	-0.227603
C	-0.2637738176	-2.062682145	 1.403974112	-0.201481
C	-0.9738619198	-0.7467605336	 1.0217672354	-0.23047
C	-0.0524804892	 0.0107457927	 0.0720594181	-0.018681
H	-0.4106732665	 2.0593996045	 0.8257261795	 0.103931
H	-0.419097552	 2.0176974784	-0.9558844702	 0.094866
H	 2.0287283125	 1.466539349	-0.9655112267	 0.106049
H	 2.097632565	 2.2124200807	 0.6460779565	 0.104505
H	 2.8262265699	-0.4272820503	 2.0347490429	 0.075982
H	 1.6846570927	-2.7571157562	 2.0725012463	 0.100747
H	 0.9172804521	-1.6572367747	 3.1890787063	 0.102297
H	-0.094150743	-2.640603625	 0.4863369254	 0.09839
H	-0.9096967778	-2.6771111251	 2.0401788301	 0.090182
H	-1.9532690997	-0.9553042849	 0.5767368182	 0.088008
H	-1.1486961	-0.144106023	 1.9227346206	 0.091306
H	-0.0853254825	-0.438961612	-0.9299621504	 0.072584
