19
gdb 78186	2.04941	1.6551	1.38552	3.8943	79.15	-0.2471	0.0094	0.2565	1063.7891	0.159309	-382.036488	-382.027641	-382.026697	-382.069722	33.169	
C	-1.2256172598	 0.825699051	-0.7054531358	-0.437437
C	-0.5501847997	-0.5171459576	-0.8691891791	 0.030513
C	 0.5393951317	-0.9273135258	-1.7774744751	-0.070103
C	 1.678666848	 0.0771078573	-1.9637730829	-0.004848
C	 1.5038218592	 1.337652118	-2.800386586	-0.428957
C	 1.7790504953	 0.0983149891	-0.3993836183	-0.139478
C	 1.6114018741	 1.3492782389	 0.3315103993	 0.302702
N	 1.5202325688	 2.347149923	 0.9092146681	-0.339786
N	 0.7175730604	-0.9691763351	-0.246986949	-0.16346
H	-0.5699470092	 1.6848509829	-0.8280537396	 0.149232
H	-2.0337128527	 0.9075163904	-1.4404062303	 0.123317
H	-1.6725668343	 0.8957527557	 0.2913860467	 0.138242
H	-1.2638847945	-1.3299276865	-0.7320348994	 0.108012
H	 0.4752723336	-1.8500896043	-2.3468445142	 0.101027
H	 2.5590085754	-0.4587064885	-2.3294830126	 0.101186
H	 0.6546257278	 1.9465173285	-2.4875233185	 0.135962
H	 2.4014410874	 1.9620435657	-2.7465389486	 0.131221
H	 1.3505387921	 1.0660828019	-3.8502734461	 0.12509
H	 2.7221934064	-0.3389507746	-0.0619055089	 0.137566
