20
gdb 93249	2.86404	1.32986	0.95075	5.1417	76.46	-0.2388	0.0548	0.2937	1257.0416	0.171776	-440.340473	-440.33127	-440.330325	-440.374644	33.42	
C	-0.0001531342	 1.5582447907	 0.0099929032	-0.409073
C	 0.0193219904	 0.0291002195	 0.0053998002	-0.027029
C	 0.73759935	-0.539924058	-1.2082881656	-0.070672
O	 0.6713762095	-1.9652102527	-1.2183625554	-0.248725
C	 0.951120038	-2.6670617313	-0.0852782544	 0.469396
O	 1.1158497178	-3.8614776096	-0.1630279805	-0.39769
N	 1.0107944981	-1.9565438509	 1.0902392042	-0.155266
C	 1.4000402619	-2.6582211455	 2.3006691274	-0.338173
C	 0.7154413318	-0.5386513234	 1.2395813271	-0.144193
H	 1.0156976429	 1.9685162194	-0.0137062385	 0.122966
H	-0.5397433131	 1.9463801527	-0.8592483069	 0.125155
H	-0.4939613527	 1.9427991523	 0.9078285385	 0.124959
H	-1.0109739172	-0.3477166723	-0.0199327829	 0.098564
H	 0.2754026129	-0.2198309995	-2.1457734556	 0.120666
H	 1.7893440206	-0.2171300417	-1.2201305787	 0.106678
H	 1.6195740292	-3.6926277705	 2.0443323462	 0.173745
H	 2.2884362418	-2.1930536949	 2.7474858976	 0.117455
H	 0.5915726882	-2.6323125206	 3.0427534908	 0.119411
H	 1.6470267399	 0.0194000547	 1.4308955401	 0.102191
H	 0.0842540643	-0.4047317786	 2.1284570033	 0.109636
