14
gdb 21683	5.34307	1.31557	1.07522	2.911	60.57	-0.2311	0.0004	0.2315	1036.1177	0.107894	-415.846836	-415.839306	-415.838362	-415.878971	27.484	
N	 0.081949593	 1.3600700103	 0.0400934641	-0.58837
C	 0.0510706646	-0.0226595063	-0.00260047	 0.419894
N	-1.0279787828	-0.6641448519	-0.3994672415	-0.229977
O	-0.6658841334	-2.0233955039	-0.3964900138	-0.221311
C	 0.6062360299	-2.1371100551	 0.0079786162	 0.410592
C	 1.1838566394	-3.5180446095	 0.0803429366	-0.170905
O	 2.3091558512	-3.5801483246	 0.9336698712	-0.402257
C	 1.1303118674	-0.9150381537	 0.282758272	-0.408203
H	 0.6308897861	 1.7417060397	 0.7964739726	 0.254498
H	-0.8386680183	 1.7761753208	-0.0046771104	 0.260595
H	 0.3902237813	-4.2232510236	 0.3693429233	 0.120999
H	 1.539228833	-3.828057847	-0.9091491035	 0.143912
H	 2.0187801149	-3.3356909141	 1.8189369284	 0.28904
H	 2.1315598135	-0.6819102911	 0.6029232649	 0.121492
