17
gdb 49204	3.37007	1.20991	0.91961	4.1361	84.88	-0.2394	-0.077	0.1624	1226.8348	0.136655	-421.842208	-421.834297	-421.833353	-421.875084	29.492	
O	-0.0867475722	-0.0741522724	 0.0278539583	-0.285824
C	-0.0452264377	 1.1352416844	 0.1035699108	 0.101024
C	 1.1841640267	 1.9383408871	 0.0318656575	 0.174822
C	 1.0751082775	 3.2801139727	 0.1367029653	-0.129615
C	 2.1321523308	 4.26906576	 0.0533812979	-0.07797
C	 3.4614421663	 4.0695822293	 0.0651997501	-0.072502
C	 4.2293904144	 2.7977949346	 0.2743506783	-0.1364
O	 3.5103918108	 1.6822119616	 0.727545068	-0.231601
C	 2.4920609615	 1.2119865597	-0.1453211785	-0.208391
H	-0.9748820332	 1.7345304227	 0.231734864	 0.069883
H	 0.0702299889	 3.6821984321	 0.2630614953	 0.101095
H	 1.7898125917	 5.2956186419	-0.0520569421	 0.099774
H	 4.1024548157	 4.940896637	-0.0628500441	 0.106906
H	 4.789320823	 2.5681637364	-0.6521969146	 0.107376
H	 4.990456621	 2.9812897455	 1.0448784695	 0.130531
H	 2.3362429796	 0.1555447841	 0.0859508202	 0.143104
H	 2.8243658551	 1.2769222033	-1.193419416	 0.107787
