18
gdb 55128	2.63765	1.44303	1.13065	3.4454	71.58	-0.2382	0.0284	0.2665	1109.8343	0.146874	-439.085856	-439.076864	-439.07592	-439.120029	33.694	
N	 0.1125419686	 1.1942683665	-0.3825934013	-0.526147
C	 0.0286664361	-0.0167193385	 0.2367275432	 0.38745
O	 0.9257677254	-0.465391529	 0.9300618982	-0.377772
C	-1.2611805579	-0.7922033365	 0.032750822	-0.18077
C	-2.0488789129	-0.8529917268	-1.3261233652	-0.273382
C	-1.9105333241	-2.3827521766	-1.3053723557	-0.11378
C	-0.4383646537	-2.7358654964	-1.3116616501	-0.337037
C	-1.0912241078	-2.3100387983	-0.0261464629	 0.435778
O	-1.1490467106	-3.1197513524	 1.0873636741	-0.468928
H	 0.9250600398	 1.7657992055	-0.2166314045	 0.260735
H	-0.6501207819	 1.5759471358	-0.9133550751	 0.262012
H	-1.9427639946	-0.5262026064	 0.8478811992	 0.112763
H	-3.0758130089	-0.4940214227	-1.2333854302	 0.10856
H	-1.5752352389	-0.360123943	-2.1823803939	 0.09559
H	-2.6770288876	-3.0880277672	-1.5995165506	 0.096716
H	-0.2294140937	-3.7998610846	-1.3489707132	 0.117224
H	 0.2836717364	-2.110480543	-1.8332003181	 0.106073
H	-0.3053252739	-3.0124717964	 1.545048454	 0.294915
