18
gdb 90581	3.46512	1.30638	1.03035	2.6466	79.53	-0.2316	-0.0207	0.2108	1166.5054	0.147949	-401.929128	-401.921069	-401.920125	-401.96194	30.782	
C	-0.3940651851	 1.4719743787	-0.0378394974	-0.368142
C	 0.0726370158	 0.0283338694	 0.0895863733	-0.058484
N	 1.24381661	-0.2614186074	-0.8450955004	-0.355759
C	 2.1794161635	-0.3344103637	 0.3366246106	-0.105725
C	 0.9908745685	-0.330080442	 1.2435271967	 0.258562
C	 1.1051928816	-1.1293503809	 2.3055404078	-0.238489
C	 2.5058450824	-1.722172676	 2.3365244577	-0.350769
C	 2.9028050431	-1.6054088823	 0.8304075523	 0.348928
O	 3.5322075288	-2.3989230394	 0.1905036451	-0.288339
H	 0.4416280695	 2.1658130553	 0.0899641204	 0.122912
H	-0.827174257	 1.6405589738	-1.0280471594	 0.123915
H	-1.1527906241	 1.6993483824	 0.7182808321	 0.116242
H	-0.7762961743	-0.6541783656	-0.0351065377	 0.086395
H	 1.1472772303	-1.1813164146	-1.2696942416	 0.231366
H	 2.8767014718	 0.5128248054	 0.3464449601	 0.107799
H	 0.3036796929	-1.4807182164	 2.9448216372	 0.105213
H	 3.2244937229	-1.1674327814	 2.9551167283	 0.1324
H	 2.5373408894	-2.7660539852	 2.6619437651	 0.131976
