20
gdb 86050	3.27074	0.9587	0.86123	3.6084	77.42	-0.2299	0.004	0.2339	1409.6948	0.168492	-440.283837	-440.274241	-440.273296	-440.318334	34.962	
C	-0.0193871653	 1.4673842225	 0.2422839795	-0.321339
N	-0.0323354835	 0.0218361341	 0.207458843	-0.071451
C	-1.2699125919	-0.6858821871	 0.5893631452	-0.213745
C	-0.3934794475	-1.78812327	 1.2225133132	 0.372363
C	-0.1463345631	-2.9932859901	 0.3307160006	-0.435567
C	 0.7349794001	-0.7167085901	 1.2248688051	-0.223068
O	-0.908114909	-2.1966841662	 2.4995350675	-0.229755
C	-0.0410641412	-2.7048258968	 3.3930602159	 0.156612
O	-0.3822010215	-3.111337696	 4.463979922	-0.277257
H	 0.9868215661	 1.8344697763	 0.0146266253	 0.124842
H	-0.7001311823	 1.8609531411	-0.5196401941	 0.126087
H	-0.3236650452	 1.88064953	 1.2224107465	 0.096268
H	-1.8552978439	-0.169875173	 1.3658458786	 0.104027
H	-1.9255121563	-0.9647972192	-0.2421407616	 0.106933
H	 0.1637432477	-2.6575582996	-0.6623753732	 0.142359
H	 0.6403056489	-3.6369012185	 0.7381878241	 0.121275
H	-1.0602390224	-3.5869998054	 0.2348882023	 0.13524
H	 1.7426670857	-1.0202407412	 0.9204224126	 0.107357
H	 0.7862440914	-0.1995334376	 2.197286263	 0.09651
H	 1.0077007733	-2.6967156833	 3.0402109546	 0.082308
