15
gdb 25648	6.14708	0.75947	0.67883	3.07	85.24	-0.1934	-0.0089	0.1844	1600.4934	0.112925	-416.830733	-416.821984	-416.821039	-416.865962	31.127	
C	-0.0202864533	 1.4263116492	 0.0070784937	-0.51055
C	 0.0156272492	-0.0266402399	 0.0068557814	 0.236504
C	 0.0601939827	-1.232585856	 0.0074547886	-0.066851
C	 0.0919176015	-2.642886273	 0.0070863455	 0.173755
N	 1.1703553158	-3.4234957619	 0.0628397224	-0.394202
C	 0.699165281	-4.6956058226	 0.0361487132	 0.328509
O	 1.5301626535	-5.7585676433	 0.0784447574	-0.442529
C	-0.67456485	-4.7296634754	-0.0363579363	-0.201461
N	-1.0420933602	-3.4001344029	-0.0538215653	-0.291447
H	 0.9932996095	 1.8385557701	 0.0557501873	 0.159703
H	-0.4941830584	 1.81579845	-0.9010918425	 0.151956
H	-0.5781772092	 1.8135274854	 0.8672464355	 0.151974
H	 2.4239903026	-5.3976665831	 0.1261160909	 0.301654
H	-1.3848550914	-5.5358219015	-0.0749869097	 0.133518
H	-1.9796646833	-3.0390393451	-0.102746962	 0.269465
