16
gdb 4053	6.40118	1.24717	1.06387	2.6455	75.64	-0.1809	-0.0115	0.1695	1079.8913	0.130557	-379.887533	-379.879621	-379.878677	-379.919671	28.946	
C	-0.0655894092	 1.3459133721	-0.1315127998	-0.329372
N	 0.0177041723	-0.0448634149	 0.2501970617	-0.051012
C	-1.1650293092	-0.9046879543	 0.1120164389	-0.25175
C	-0.5701401559	-2.3034050711	 0.0042480344	 0.385394
C	 0.8648319624	-2.1374785752	-0.1296599527	-0.278173
C	 1.1302241371	-0.815559261	-0.0033799238	 0.011785
N	-1.3183387515	-3.3421750317	 0.0574420247	-0.264938
O	-0.541860466	-4.5171080193	-0.0652264121	-0.402876
H	 0.8973357422	 1.8314317079	 0.0496585676	 0.132629
H	-0.3287607404	 1.484194826	-1.1933801447	 0.116064
H	-0.8207071325	 1.856954369	 0.4743573571	 0.132574
H	-1.8458484725	-0.793600875	 0.9613992285	 0.134728
H	-1.7185698804	-0.6409235326	-0.801734238	 0.123074
H	 1.5783777618	-2.9364109976	-0.2346529875	 0.118044
H	 2.0963619292	-0.3265568263	-0.0476014553	 0.123267
H	-1.2121778874	-5.204245636	 0.0010495811	 0.30056
