15
gdb 75878	2.32083	1.63302	1.28002	3.072	69.17	-0.2482	-0.0744	0.1738	1009.9787	0.11218	-457.80036	-457.792347	-457.791402	-457.833278	29.574	
O	-0.0667394483	 1.3445454176	-0.0047741023	-0.436832
C	-0.0171913356	-0.0827846864	 0.0216263166	-0.071221
C	-1.4631651201	-0.5656598421	-0.0219756426	 0.389163
O	-1.9493134651	-1.2531371069	 0.8383877828	-0.300726
C	-2.1975612413	-0.1589778208	-1.2915705159	-0.354901
C	-1.3624560757	-0.4757855994	-2.5032395708	-0.052507
C	-0.033411157	-0.6491892435	-2.4787341406	-0.143647
C	 0.7527079105	-0.5390896749	-1.2378938258	 0.343051
O	 1.953538906	-0.707846327	-1.1884331976	-0.331788
H	 0.843003097	 1.6599175899	-0.0637634556	 0.303165
H	 0.4808616134	-0.4677773374	 0.9174849915	 0.107681
H	-3.1676924569	-0.6611642212	-1.3266003812	 0.13775
H	-2.3814672733	 0.9237734051	-1.2544981328	 0.166222
H	-1.897101362	-0.5707508244	-3.444874209	 0.125579
H	 0.5279305885	-0.8814183586	-3.3777335065	 0.119009
