15
gdb 24103	7.24619	0.77444	0.70276	5.9763	73.06	-0.211	0.0094	0.2205	1491.62	0.113516	-416.832792	-416.824665	-416.823721	-416.866339	29.439	
N	-0.0279720109	-1.1434466967	-0.0051422229	-0.289548
C	 0.0085325591	 0.0102045911	 0.0017197809	 0.276475
C	-0.0002960462	 1.4744880066	 0.0119748706	-0.212872
O	 1.3278427089	 1.9410804899	 0.0004713466	-0.259985
C	 1.447792112	 3.3022212764	 0.0066051564	 0.362293
C	 0.4579495943	 4.264298386	 0.0245881758	-0.20605
N	 1.1015926773	 5.4849804763	 0.0235275916	-0.256781
C	 2.4557379729	 5.3034708107	 0.0053325267	-0.052463
C	 2.7103940359	 3.9519261199	-0.0055533927	-0.278001
H	-0.5553934541	 1.8357567191	-0.8676642461	 0.148109
H	-0.5357589259	 1.8233945621	 0.908628267	 0.148126
H	-0.6158466064	 4.1986073592	 0.0378022803	 0.118985
H	 0.6362655364	 6.3743758317	 0.0344245865	 0.265426
H	 3.1308840879	 6.1436205126	 0.0015599791	 0.126875
H	 3.6736976189	 3.469168635	-0.0204634398	 0.109412
