19
gdb 70034	3.20006	1.49665	1.3327	0.5093	73.9	-0.229	0.077	0.306	1014.2298	0.160897	-422.990638	-422.983143	-422.982199	-423.022248	30.264	
O	-0.1617336526	 1.4057941679	-0.0076875799	-0.467238
C	-0.066449097	 0.0240661869	 0.0106792421	 0.393346
C	-0.3169731285	-0.8200980625	-1.2063962162	-0.363743
C	-1.2080094508	-0.9798879781	 0.0128261361	-0.127279
C	-0.5171833845	-1.7891810923	 1.1290550634	-0.031274
C	 0.1762954875	-3.1145981426	 0.7994731185	-0.105616
O	 1.4404670842	-2.7730026612	 0.22553714	-0.252065
C	 1.9031472997	-1.5702714723	 0.8433614685	-0.109857
C	 0.6514092599	-0.7452915393	 1.1421524289	-0.109174
H	 0.5078594919	 1.7485489259	-0.6093910418	 0.285054
H	-0.7986094548	-0.267335673	-2.0079233012	 0.108568
H	 0.3625239885	-1.6013239799	-1.5268271516	 0.135537
H	-2.2744761602	-0.8020787946	-0.0506389321	 0.091623
H	-1.1043673529	-1.8336849716	 2.0472641055	 0.077409
H	 0.3215367086	-3.7091259984	 1.71614629	 0.088536
H	-0.3559855053	-3.7302404377	 0.0686600476	 0.11103
H	 2.4460450047	-1.8008892742	 1.7746453744	 0.088807
H	 2.6008140011	-1.0955966938	 0.1463130953	 0.104314
H	 0.7205816704	-0.1449728591	 2.0502453925	 0.082022
