20
gdb 12114	2.91938	1.87294	1.59569	1.7451	74.08	-0.2611	0.0916	0.3526	933.1193	0.175349	-348.98092	-348.972313	-348.971369	-349.013518	33.017	
C	 0.0515540222	 1.4286055892	 0.5955359193	-0.471442
C	-0.0040062541	 0.0128280691	 0.0494690103	 0.297002
C	 0.9214602525	-0.3506735421	-1.083609981	-0.309177
C	 1.1749185945	-0.898932645	 0.3008801887	-0.301466
C	-1.3782936031	-0.6209263837	 0.0722366607	 0.351432
C	-2.0110036287	-0.8049144767	 1.4360129404	-0.467639
C	-2.2399311078	-0.5251652512	-1.1172651035	-0.225934
O	-1.5504659649	-1.7417597111	-0.8083357623	-0.277298
H	 1.0634440257	 1.8353095957	 0.507329605	 0.116402
H	-0.6239766822	 2.0935098174	 0.0444468303	 0.115426
H	-0.2275902739	 1.4709723164	 1.6538989319	 0.118452
H	 0.5549079869	-1.0489499111	-1.8260649671	 0.128932
H	 1.5827483021	 0.4218483077	-1.461802641	 0.102731
H	 2.011314642	-0.509074866	 0.8716405456	 0.105965
H	 0.9739362927	-1.9534846799	 0.4562682247	 0.120573
H	-2.207164871	 0.1576749825	 1.9181921736	 0.122837
H	-2.9563222155	-1.3449360147	 1.3440966954	 0.125155
H	-1.3472161398	-1.3798427724	 2.0901665176	 0.12725
H	-3.3232847489	-0.5670059335	-1.010632763	 0.109573
H	-1.8780027686	-0.0002178506	-2.0001077857	 0.111226
