25
gdb 118952	2.7775	0.88809	0.83954	1.2745	88.88	-0.261	0.0775	0.3385	1557.8195	0.227522	-389.484175	-389.473439	-389.472494	-389.519765	40.323	
C	-0.1205111852	 1.5483544067	-0.123091046	-0.41812
C	 0.049063271	 0.0440048742	 0.0318205221	 0.019257
C	 1.0282177267	-0.7167069165	-0.9016488218	-0.242807
C	 1.410480577	-1.6271378566	 0.2934368231	-0.252546
C	 0.803768967	-0.5675386339	 1.2720273615	 0.325623
C	 1.8883628685	 0.361136464	 1.8301703836	-0.449038
C	-0.1187079591	-1.10094225	 2.3720849576	-0.240817
C	 0.5684556015	-1.9317294153	 3.4515063245	-0.085854
O	-0.448859202	-2.481006738	 4.2793671959	-0.419713
H	 0.8397335475	 2.0730900574	-0.0945249149	 0.111651
H	-0.5949910655	 1.7851509835	-1.0822758624	 0.112574
H	-0.7542247549	 1.966348051	 0.6674390541	 0.113434
H	-0.9375502518	-0.4316048437	-0.0258972207	 0.066512
H	 0.6066522479	-1.1961732084	-1.7886031394	 0.092518
H	 1.8620371287	-0.0837513441	-1.2215974588	 0.096353
H	 0.8367821935	-2.5590782457	 0.2975742082	 0.095541
H	 2.4686834805	-1.8723908135	 0.4213412916	 0.088628
H	 2.5186132711	 0.7691890427	 1.0337354738	 0.111884
H	 1.4536104032	 1.2062580639	 2.3758488203	 0.112238
H	 2.5503171936	-0.1746417707	 2.5185087202	 0.111849
H	-0.646079437	-0.2676831963	 2.8555099976	 0.097023
H	-0.8906436844	-1.7346617804	 1.9183475657	 0.099093
H	 1.169901525	-2.7278714699	 2.9821161708	 0.086094
H	 1.2570855115	-1.3082043282	 4.0412002446	 0.085285
H	-0.0246664442	-2.9770459421	 4.9854607185	 0.283335
