18
gdb 39818	2.81538	1.67306	1.59388	2.244	71.12	-0.2442	0.0733	0.3175	935.318	0.150047	-439.023187	-439.016206	-439.015262	-439.054256	28.406	
C	 0.1439706868	 1.329029983	-0.0105830623	-0.345297
N	 1.3315203648	 0.4481493867	 0.0333379124	-0.385785
C	 0.0052731397	-0.1396949982	 0.0071767399	 0.36089
C	-0.6793337593	-1.0242318767	 1.0629010364	 0.039844
C	-1.8369890177	-1.1683376755	 0.0308644722	-0.238241
C	-0.7203281328	-1.0007899927	-1.0405018803	 0.018964
O	-0.0519446341	-2.2542023763	-1.1997037813	-0.28638
C	 0.6652215186	-2.6070002112	-0.0263831258	 0.031563
O	-0.0255019988	-2.29089366	 1.1654702322	-0.280909
H	-0.0262981326	 1.9063586559	 0.8942715102	 0.126142
H	-0.0856913019	 1.8546995671	-0.9345460386	 0.117721
H	 1.7623566136	 0.3874754858	-0.8872188176	 0.238439
H	-0.8607248759	-0.6569789115	 2.0732960735	 0.086519
H	-2.3594364752	-2.1251692749	 0.0318999321	 0.109408
H	-2.5356608782	-0.3289248072	 0.0489829082	 0.104036
H	-0.9439215897	-0.6141224676	-2.0366178527	 0.080586
H	 0.8048357589	-3.6902058519	-0.0465539922	 0.117705
H	 1.6396785336	-2.0997367048	-0.0263436262	 0.104795
