13
gdb 76369	2.15643	1.45992	1.19926	4.4027	65.08	-0.2819	-0.0186	0.2634	1054.0666	0.087525	-452.735698	-452.72698	-452.726035	-452.769111	31.094	
O	 0.0866789744	 1.3705533291	-0.085399943	-0.395491
C	 0.0488947038	 0.008839413	-0.0361863613	 0.108394
C	-0.3566373793	-0.6750816578	 1.2136151747	 0.006683
O	-0.6558341532	 0.2008025743	 2.2376510651	-0.407309
C	-1.3507276904	-0.7363755438	 0.0019047294	-0.101972
C	-2.5247548985	 0.0787234948	 0.1041703373	 0.247875
N	-3.4561834906	 0.7525013734	 0.2303908477	-0.325938
C	-1.4544558126	-1.9823705731	-0.6987547496	 0.246848
N	-1.4765254206	-2.9991028357	-1.2504730374	-0.322451
H	-0.2420293477	 1.7095627844	 0.7603415411	 0.317678
H	 0.7685288468	-0.4657082982	-0.6936962495	 0.159616
H	 0.0911790598	-1.6276682294	 1.4886107355	 0.144747
H	-1.432273652	-0.1019385412	 2.72345767	 0.321319
