18
gdb 53651	4.22659	0.56193	0.51412	3.4332	82.3	-0.253	0.009	0.262	2089.7199	0.144842	-401.936433	-401.925632	-401.924688	-401.97503	36.312	
C	 0.0098798444	 1.5072003535	-0.0018121175	-0.497727
C	 0.0224093738	 0.051724558	 0.0383587106	 0.125093
C	 0.0456344845	-1.1515635205	 0.0718044404	 0.008897
C	 0.0371432337	-2.6086410269	 0.1106351888	-0.364437
C	-1.3763412402	-3.1936887643	-0.075512442	-0.194093
C	-1.3698698689	-4.7292366231	 0.0163972413	-0.023603
O	-0.8649390835	-5.2130958068	 1.2485917361	-0.407063
C	-2.7195962789	-5.268463347	-0.2515639685	 0.25491
N	-3.7871303059	-5.6726432315	-0.4313527919	-0.312254
H	 0.650824005	 1.8887743955	-0.8042322616	 0.149221
H	-1.0012366614	 1.8914973841	-0.1758928735	 0.148952
H	 0.3687028779	 1.9354604948	 0.9405924548	 0.148676
H	 0.6971117485	-3.0073495706	-0.6721235677	 0.128642
H	 0.4468119605	-2.9681943722	 1.061373552	 0.142653
H	-2.0517388891	-2.7902882134	 0.687820316	 0.120411
H	-1.7844833656	-2.8941850874	-1.0461422028	 0.133215
H	-0.6928999063	-5.1339608267	-0.7452890405	 0.141652
H	-1.4699239485	-4.9430685855	 1.949731146	 0.296856
