19
gdb 104704	2.1144	1.41396	1.04715	3.7641	71.25	-0.274	0.0101	0.2841	1215.8593	0.157718	-460.197279	-460.187929	-460.186985	-460.231634	34.501	
C	-0.1094893242	 1.6376338568	 0.0594385835	-0.394675
C	 0.1974887375	 0.1403960273	 0.187133978	-0.241102
C	 0.7589812153	-0.5062195261	-1.0736586218	 0.395015
C	 2.1022191609	 0.0550870443	-1.535207021	-0.122629
O	 2.5635568932	-0.5574423682	-2.7218753034	-0.419848
C	 0.6304339662	-2.0443513288	-1.1574862638	-0.470355
C	-0.3641659007	-1.7521608409	-2.2741184724	 0.439498
O	-1.0673664399	-2.35617451	-3.0172628534	-0.315654
O	-0.2114774691	-0.3868486322	-2.1989295047	-0.296271
H	 0.7958995271	 2.2384248142	-0.065699773	 0.122757
H	-0.7623382227	 1.8225727719	-0.7982903468	 0.142621
H	-0.6193209855	 1.9976939367	 0.9573371938	 0.121493
H	 0.9076685365	-0.0375990195	 1.0051147902	 0.10887
H	-0.7218428557	-0.3929726181	 0.4554836358	 0.110569
H	 2.0251862731	 1.1445684752	-1.6521975501	 0.107688
H	 2.8549199488	-0.1446942918	-0.7645491351	 0.120414
H	 1.9371426225	-0.3315692707	-3.4188604809	 0.297568
H	 1.5216737302	-2.5656437798	-1.5073577563	 0.157777
H	 0.2084429266	-2.5454140803	-0.2850567188	 0.136263
