21
gdb 67818	2.50752	2.19798	1.57148	0.1621	85.83	-0.2266	0.0203	0.2468	943.4606	0.185935	-349.950343	-349.943437	-349.942493	-349.98095	30.177	
C	 0.0296862292	 1.5393734654	-0.0324613595	-0.501311
C	-0.0077203524	 0.0206517781	-0.0603177699	 0.346159
C	 0.5897307566	-0.6203854464	-1.2849510983	-0.150578
C	 0.0934123443	-1.8552617236	-1.4067918668	-0.096076
C	-0.7404274413	-2.1355838132	-0.1739786941	-0.079874
C	 0.3129675374	-2.194434509	 1.0069614751	-0.215005
C	 0.2918059134	-0.7028131736	 1.3610485642	-0.06861
C	-1.2198649931	-0.5263709674	 1.6715915971	-0.250427
C	-1.3628303737	-0.7364749788	 0.1510086329	-0.044963
H	 1.0662429314	 1.8962139002	-0.0448035677	 0.114857
H	-0.4707272485	 1.9578583072	-0.9129691434	 0.116586
H	-0.4476603495	 1.9616872736	 0.8556375845	 0.115234
H	 1.3182879077	-0.1403911227	-1.9283154873	 0.087396
H	 0.357119586	-2.59732477	-2.1509996215	 0.091571
H	-1.4243490817	-2.9829011783	-0.2257660047	 0.058255
H	-0.0282697567	-2.8041216063	 1.8493474462	 0.091581
H	 1.2792145593	-2.5748326862	 0.6695418222	 0.092051
H	 1.0699569022	-0.3189774204	 2.0214917625	 0.057054
H	-1.6809062399	-1.2542240609	 2.3455158155	 0.084152
H	-1.4955049374	 0.4815600661	 1.9843557944	 0.096128
H	-2.2550454734	-0.4574243039	-0.4141143613	 0.05582
