21
gdb 107269	3.18907	1.45812	1.30054	0.9351	81.94	-0.2416	0.0988	0.3404	1078.8946	0.184191	-387.037557	-387.029843	-387.028898	-387.069557	31.45	
C	-0.2740054716	 1.2880658896	-0.0584919207	-0.253517
O	 0.2815239256	-0.0093440084	 0.0481416461	-0.291095
C	 0.7888215219	-0.4962959606	-1.1514354458	 0.472989
C	-0.1459840924	-1.0774366333	-2.1855732567	-0.38185
C	 0.8192452503	-1.9760715639	-1.4276285041	-0.114284
C	 2.2824083713	-2.1343917426	-1.8917996605	-0.037341
C	 2.5170932697	-0.9156800228	-2.8265041575	-0.235164
C	 2.239952556	-0.1146709182	-1.5261529641	-0.099041
C	 3.0088741854	-1.2730534744	-0.7978938042	-0.214489
H	 0.4721474206	 2.0320478016	-0.3721464217	 0.107063
H	-1.1081316513	 1.3118956089	-0.7741838324	 0.107575
H	-0.6455858367	 1.559311621	 0.9326302575	 0.12333
H	-1.1758398206	-1.1588503903	-1.851054588	 0.112814
H	-0.0460156168	-0.8838967309	-3.2470889548	 0.109841
H	 0.4154471552	-2.6819000562	-0.7113162852	 0.095683
H	 2.6189029402	-3.1351569045	-2.1633977366	 0.060068
H	 3.5643086475	-0.8374427653	-3.1268885369	 0.097003
H	 1.8821569082	-0.7695053968	-3.7010578886	 0.092263
H	 2.5252953884	 0.9325223069	-1.4226822084	 0.058415
H	 2.7538373219	-1.4599776758	 0.2481284674	 0.102293
H	 4.0933077271	-1.2253596738	-0.9308689148	 0.087444
