18
gdb 95050	2.26448	1.96738	1.25978	3.6122	71.78	-0.2468	0.0269	0.2737	1016.2228	0.149086	-439.11833	-439.110507	-439.109563	-439.150613	30.142	
C	-0.0814867386	 1.5524023534	-0.0744540015	-0.410711
C	 0.040766586	 0.0418310253	 0.0168524266	 0.127567
O	 0.7961323172	-0.4420978675	-1.09859215	-0.258074
C	 1.1703986989	-1.7749012651	-0.7940072421	-0.101509
C	 1.5339349006	-1.7741529384	 0.6948652181	 0.006777
N	 2.786928392	-1.094732606	 1.0431466108	-0.321004
C	 2.2008765689	 0.0763762213	 1.4654528602	 0.440256
O	 2.6505885644	 1.1289153166	 1.8303464874	-0.365919
C	 0.7825376556	-0.5163275803	 1.2435692491	-0.224469
H	 0.8984362594	 2.0275937064	 0.0032551382	 0.15244
H	-0.5414313631	 1.8311974233	-1.0262042466	 0.124483
H	-0.7111115579	 1.9293205657	 0.737039612	 0.119911
H	-0.9645576464	-0.4152872426	-0.0080482789	 0.067366
H	 0.3311089033	-2.4711794192	-0.9615769469	 0.092922
H	 1.9955905759	-2.0584686181	-1.4533457904	 0.11037
H	 1.3907987254	-2.7353871021	 1.1932136905	 0.089199
H	 3.7382420702	-1.2757745003	 0.7544175886	 0.248819
H	 0.1691944683	-0.6237531623	 2.1376569049	 0.101576
