21
gdb 81987	2.35656	1.41487	1.27413	0.6364	88.25	-0.2457	0.0566	0.3024	1148.5125	0.180732	-349.896847	-349.887538	-349.886593	-349.930064	36.614	
C	-0.4446212691	 1.5140645891	 0.4001130253	-0.413381
C	-0.1168036032	 0.0400029198	 0.2001022733	-0.028116
C	 0.2937967928	-0.4519292763	-1.194487745	-0.04209
C	 1.6209218589	 0.1128994463	-1.6142623607	-0.30794
C	 1.5925655979	-1.0352348773	-0.6459926557	-0.064778
C	 1.2458214214	-0.5632262605	 0.7891439716	 0.093055
C	 2.2364268805	 0.3930092733	 1.4680389585	-0.446027
C	 0.9739876941	-1.6938283172	 1.6665602182	 0.291393
C	 0.7578219738	-2.6261671182	 2.3957056806	-0.464703
H	 0.3387361427	 2.1730142348	 0.0145706259	 0.113926
H	-1.3732938333	 1.766701913	-0.1236147378	 0.117281
H	-0.588451764	 1.7482605012	 1.4603211422	 0.118765
H	-0.9417866831	-0.5663356065	 0.5805929606	 0.088729
H	-0.3883020039	-0.8887171308	-1.9140100509	 0.083368
H	 1.9355642053	-0.1526063865	-2.6186634206	 0.112515
H	 1.9362052952	 1.1066213385	-1.3097424763	 0.105636
H	 2.05738201	-1.9886745678	-0.8640193389	 0.092297
H	 2.4782071117	 1.2450030152	 0.8285692918	 0.112353
H	 1.824844508	 0.7754787937	 2.4068284947	 0.12372
H	 3.1675501148	-0.1327168538	 1.6998349384	 0.125143
H	 0.5647066694	-3.4483693403	 3.0390552947	 0.188854
