18
gdb 61995	4.06037	0.79477	0.7654	7.1263	73.19	-0.2425	0.0134	0.256	1499.7627	0.146495	-435.301949	-435.291668	-435.290724	-435.338374	36.046	
C	 0.3077665744	 1.2712920715	 0.8549658361	-0.387157
C	 0.0543577235	-0.0757175317	 0.1432372945	-0.107295
N	 0.6211526992	-1.2747085033	 0.7674413959	-0.276211
C	 2.0701089186	-1.3211465328	 0.8172169913	-0.278304
C	 2.654626166	-0.7631091137	 2.1274173898	 0.410026
N	 4.0042961971	-0.5878530365	 2.1324151291	-0.520641
O	 1.9493803255	-0.5240801999	 3.0892231108	-0.359967
C	-1.395550698	-0.2863431216	-0.019951663	 0.278038
N	-2.5365981124	-0.4229390052	-0.1370566595	-0.319621
H	 1.3792747113	 1.4844612061	 0.8863843463	 0.121972
H	-0.1890834726	 2.0859561716	 0.3201599841	 0.131275
H	-0.0644468615	 1.2400038589	 1.8811289971	 0.151954
H	 0.4718363582	-0.0174256112	-0.8710679015	 0.128419
H	 0.2759803633	-1.350634469	 1.7218597835	 0.241831
H	 2.4065281352	-2.3654331553	 0.7374877002	 0.135546
H	 2.4980358925	-0.7955039676	-0.0442640395	 0.118858
H	 4.5818912682	-0.8766043894	 1.3617465347	 0.2636
H	 4.4525681413	-0.3415673709	 3.0003375001	 0.267677
