18
gdb 9512	2.76876	1.90205	1.53111	3.1629	67.89	-0.2444	-0.0287	0.2157	915.8509	0.15251	-384.950856	-384.942404	-384.94146	-384.983635	31.33	
C	-0.1169790824	 1.6018604035	 0.0255227541	-0.4414
C	-0.0511758365	 0.0742816701	-0.0658961667	 0.181592
C	-1.4370983548	-0.5633911536	 0.1227392773	-0.105143
O	-1.9696622809	-0.273067187	 1.3986135784	-0.423155
C	 0.8340345363	-0.4732587284	-1.2383918343	-0.295843
C	 1.9619739264	-0.86663111	-0.2317939828	-0.335371
C	 0.9710770246	-0.5581642533	 0.8936866773	 0.381291
O	 0.9077558272	-0.8396861254	 2.0618346474	-0.324354
H	 0.8793501477	 2.0556596018	 0.014889282	 0.112564
H	-0.678254631	 2.0023045921	-0.8261314578	 0.120987
H	-0.6277079185	 1.9001197488	 0.9437913052	 0.146119
H	-2.1420376981	-0.1631623657	-0.6159260644	 0.107676
H	-1.3662784682	-1.6506890581	-0.0470391242	 0.083344
H	-1.312388689	-0.561989912	 2.0468376883	 0.297171
H	 0.3917266725	-1.3400983048	-1.7354658467	 0.113318
H	 1.1112011779	 0.2634659269	-1.9937448266	 0.110239
H	 2.3505279616	-1.8876307216	-0.257180211	 0.133083
H	 2.8106488953	-0.1751583235	-0.2336515452	 0.137883
