27
gdb 58105	2.32616	1.22902	1.01589	0.0966	95.02	-0.2683	0.0788	0.3471	1379.4262	0.250384	-353.551924	-353.540887	-353.539943	-353.587253	42.987	
C	 0.1332576195	 1.5314699955	-0.0007394267	-0.415295
C	-0.0342877676	 0.0052703547	 0.0887802621	 0.041759
C	 0.7552572725	-0.52029854	 1.299483341	-0.402573
C	-1.524037913	-0.484525563	 0.0441931874	 0.262334
C	-2.3367163867	 0.0628726271	 1.2315154371	-0.439485
C	-2.1876929561	-0.0052953343	-1.2660156162	-0.411672
C	-1.5198875763	-2.0217521596	-0.0011541851	 0.027683
C	-1.7069654429	-2.9323021262	 1.1872824388	-0.277087
C	-2.7698454408	-2.8580917818	 0.119610504	-0.29641
H	 1.1976002158	 1.7878346587	-0.0307486668	 0.108824
H	-0.3280992208	 1.955270567	-0.8961557992	 0.112157
H	-0.2942053516	 2.0382297621	 0.8712266658	 0.113139
H	 0.4367067421	-0.4200419762	-0.8099021727	 0.064702
H	 0.38422966	-0.0960346278	 2.2388906585	 0.110066
H	 0.7085962773	-1.6080914627	 1.3818017502	 0.120986
H	 1.8089783248	-0.2345560698	 1.2125068383	 0.105311
H	-2.3999496558	 1.1537873118	 1.1860461657	 0.113978
H	-3.3645453704	-0.3138313314	 1.2161897967	 0.11203
H	-1.8995563104	-0.2028979927	 2.1975226714	 0.116193
H	-1.6098335308	-0.323909132	-2.1411985778	 0.103869
H	-3.1916812941	-0.4300783016	-1.3609565846	 0.110405
H	-2.2852407527	 1.0832085261	-1.3054390323	 0.10835
H	-0.8148553246	-2.396390756	-0.7415672577	 0.076046
H	-1.0949221756	-3.8258474398	 1.2523717079	 0.105667
H	-1.9376163419	-2.4890766813	 2.1491365361	 0.111605
H	-3.7017589211	-2.3658537564	 0.3767103488	 0.110258
H	-2.891615769	-3.6987751006	-0.5548471908	 0.107157
