21
gdb 116353	2.19053	1.41205	0.90755	2.6924	81.38	-0.234	0.0254	0.2594	1306.9379	0.182742	-424.227744	-424.218488	-424.217544	-424.261665	34.883	
C	-0.0536404875	 1.5505161046	-0.0096218783	-0.486392
C	 0.0187273824	 0.0454350331	-0.0163619089	 0.30902
C	 0.0106477374	-0.6524009272	-1.1536618481	-0.175728
C	-0.0071425754	-2.1540977166	-1.2027512748	-0.122695
O	-0.3071406152	-2.7436429994	 0.0447205266	-0.248544
C	 0.4341402312	-2.1608101595	 1.0983757555	-0.084158
C	 0.0578617314	-0.6860078318	 1.3157435898	-0.091969
C	 1.0219412343	-0.0438757134	 2.3173506453	-0.096203
O	 0.9639257243	-0.8050510065	 3.5161450426	-0.421326
H	 0.8495345051	 2.0086385467	 0.4115392965	 0.124474
H	-0.1833574889	 1.9410415791	-1.022455667	 0.119269
H	-0.8959703775	 1.9040248592	 0.5991777019	 0.124652
H	-0.0062035103	-0.1390382671	-2.1128924786	 0.081047
H	-0.7794612964	-2.5013248425	-1.8999316665	 0.113237
H	 0.9589763411	-2.5333452265	-1.5882258549	 0.091467
H	 0.223929434	-2.7474049532	 1.9932622212	 0.124037
H	 1.5168657336	-2.2324614353	 0.8919809934	 0.078179
H	-0.9435682244	-0.6458910687	 1.7700388651	 0.094188
H	 2.0413813917	-0.0394067494	 1.8960650603	 0.087833
H	 0.7367762517	 1.0009924787	 2.5044821158	 0.091206
H	 1.5835970675	-0.4253038943	 4.1453642529	 0.288408
