20
gdb 72870	3.12292	1.20167	1.01894	4.4103	81.68	-0.236	0.0287	0.2647	1233.5826	0.170798	-403.152114	-403.143298	-403.142353	-403.186612	32.64	
C	-0.3773595092	 1.5787203891	 0.0918641513	-0.496613
C	 0.039076788	 0.1286645841	 0.0223430558	 0.339275
C	-1.0682188807	-0.9676643463	 0.1120854972	-0.282269
C	-0.3270299355	-1.6438482311	 1.3058713744	-0.223629
C	 0.830641826	-0.6232795086	 1.1625418229	-0.0566
N	 1.8329128756	-0.9738530389	 0.1575534611	-0.027671
C	 1.1983035341	-0.2511298316	-0.9461794787	-0.227194
C	 2.9917525587	-1.665403988	 0.1968528166	 0.127464
O	 3.7270384723	-1.8361431232	-0.7550372884	-0.335274
H	 0.4888167944	 2.2392909431	 0.2065822346	 0.123171
H	-0.9038501899	 1.8758539881	-0.8232719888	 0.125573
H	-1.0540949755	 1.7594394722	 0.9339855426	 0.119493
H	-2.0532668243	-0.5720603028	 0.3716511263	 0.105832
H	-1.174462265	-1.5806118339	-0.7866008026	 0.10722
H	-0.8609815185	-1.5367975703	 2.2537984709	 0.107532
H	-0.0420198799	-2.6906371539	 1.1816430304	 0.110936
H	 1.2249638882	-0.1455796201	 2.0634621845	 0.082405
H	 0.9337782902	-0.8759730771	-1.8059054093	 0.11908
H	 1.798071888	 0.5966688647	-1.2980242873	 0.117427
H	 3.2014114031	-2.0597256455	 1.2135095265	 0.063843
