15
gdb 22858	2.27274	1.73936	0.99131	2.9987	75.01	-0.2088	-0.0659	0.1429	1125.9676	0.112152	-453.949163	-453.940647	-453.939703	-453.982256	31.179	
C	-0.0247211769	 1.490262162	 0.1013736456	-0.497615
C	-0.0083697085	-0.0009165887	 0.031232664	 0.200844
C	-0.024944945	-0.7906809303	-1.0622861946	-0.113171
N	-0.0004258141	-2.1492840911	-0.7255329879	-0.362524
C	 0.0347716245	-2.3277147257	 0.6499014887	 0.381184
O	 0.0617548233	-3.3845828871	 1.2336157544	-0.345525
C	 0.0300944378	-0.8989446009	 1.1824994495	 0.19326
N	 0.0539404674	-0.4757292723	 2.3964193352	-0.225042
O	 0.0885631165	-1.4826483021	 3.3335889941	-0.338632
H	 0.8630904543	 1.8741980954	 0.6162524732	 0.136266
H	-0.0563685994	 1.9292054424	-0.8997045612	 0.118702
H	-0.8933936533	 1.852610806	 0.6624198413	 0.136309
H	-0.053484172	-0.4974960933	-2.1020882493	 0.135529
H	-0.0061021922	-2.9194834687	-1.371613074	 0.26432
H	 0.1024437476	-0.9929174755	 4.1646396212	 0.316095
