17
gdb 31733	4.42467	0.93525	0.78173	3.0719	72.28	-0.202	0.0091	0.2112	1431.5225	0.135918	-455.16496	-455.155762	-455.154817	-455.199753	32.372	
C	 0.1460661276	 1.2986677605	-0.1304058753	-0.330263
N	 0.2510537537	-0.1458501741	-0.0630809033	-0.378557
C	 0.7444932338	-0.7098202118	 1.0924192029	 0.31384
C	 0.8948875165	-0.194169602	 2.3436470129	-0.146369
O	 1.3794204987	-1.2139582902	 3.1521306066	-0.181015
C	 1.5019092685	-2.2642267076	 2.3327377327	 0.377813
C	 2.0038895023	-3.5722343922	 2.8575427892	-0.141404
O	 2.1126002996	-4.5198964835	 1.8254188756	-0.421505
N	 1.1467806799	-2.041884454	 1.10551628	-0.402122
H	 1.1005348159	 1.8156033812	 0.0583610749	 0.115674
H	-0.2216032616	 1.5875217502	-1.1170045241	 0.131117
H	-0.5799726946	 1.6505907016	 0.6112930089	 0.135039
H	 0.6090676431	-0.595042881	-0.8930781334	 0.24676
H	 0.7250363068	 0.7555345366	 2.8145234336	 0.137335
H	 2.9830299255	-3.4206775596	 3.3357561828	 0.123526
H	 1.3215702434	-3.9254232688	 3.6477978477	 0.119752
H	 1.725737611	-4.1154728954	 1.0369078583	 0.30038
