16
gdb 107904	3.3142	1.33498	1.19016	3.7018	68.27	-0.2536	-0.0026	0.251	1055.3752	0.124391	-437.837261	-437.829694	-437.82875	-437.869696	28.826	
O	 0.1063995209	 1.2556591705	-0.3219785952	-0.413468
C	-0.017635364	-0.0295802288	 0.2547066105	-0.173709
C	-1.4356182462	-0.5143261913	 0.2087616144	 0.319406
C	-2.6431214461	-0.0547246338	 1.0374472327	-0.286869
C	-3.4121218369	-1.2278106949	 0.3565294368	-0.215985
C	-2.0071953068	-1.8489947678	-0.0055412268	-0.109715
N	-1.9225460157	-0.8840656491	-1.189004074	-0.252784
C	-3.3793370218	-0.7788443166	-1.0977261687	 0.445504
O	-4.1658396407	-0.5607148905	-1.9622252478	-0.313321
H	-0.2028587207	 1.1778183456	-1.2325436905	 0.29773
H	 0.6325245255	-0.7675962194	-0.2381108305	 0.103919
H	 0.3079370716	 0.0636931783	 1.2965171557	 0.116853
H	-2.4697622873	-0.2396897843	 2.1005911601	 0.119859
H	-3.0322999061	 0.956530274	 0.8884654896	 0.125937
H	-4.2766400874	-1.7059304189	 0.8075417054	 0.106567
H	-1.6243070784	-2.856475473	-0.0763645119	 0.130076
