16
gdb 28239	4.7712	1.26955	1.02184	1.0176	72.85	-0.1725	0.034	0.2066	1122.2953	0.128218	-434.086875	-434.079597	-434.078653	-434.118424	28.305	
N	 0.04107547	 1.287348166	 0.1882275184	-0.584169
C	-0.0453704065	-0.0752009859	 0.0588328842	 0.42353
N	-1.1365986376	-0.7837730749	-0.0785064501	-0.424698
C	-0.6419347022	-2.0720813538	-0.0081414414	 0.304104
C	 0.6866282202	-2.088034076	 0.1900121348	 0.194916
C	 1.2827131519	-3.4248666148	-0.0777642212	-0.333424
C	-0.0461572315	-4.259767257	 0.0338839536	-0.163148
N	-1.1697500456	-3.3315938756	-0.3102170045	-0.397649
O	 1.1183004438	-0.7647061205	 0.1817707457	-0.228861
H	 0.9080723441	 1.6880798473	-0.1392209555	 0.263991
H	-0.7804166466	 1.7644523844	-0.152664084	 0.270813
H	 1.7194931809	-3.5057749932	-1.0846625332	 0.110022
H	 2.0313677989	-3.7839268902	 0.6357456956	 0.110435
H	-0.0506357607	-5.1252076473	-0.6325185255	 0.11217
H	-0.1455485148	-4.6160018921	 1.0677075922	 0.1072
H	-2.0345382444	-3.5659762964	 0.163775681	 0.234769
