20
gdb 80873	2.19954	1.96818	1.61543	2.0227	77.68	-0.2371	0.0878	0.325	965.216	0.172583	-403.098978	-403.091433	-403.090489	-403.130284	31.668	
C	-0.0199476653	 1.5057757466	 0.0720674449	-0.490892
C	-0.042153212	 0.0060440542	-0.0700708096	 0.291697
C	 0.3538899769	-0.752978767	-1.3656774571	-0.294613
C	-0.3351084252	-1.9445014759	-0.6619642529	-0.107824
C	 0.4781887753	-2.1237567965	 0.620571457	-0.029528
C	 1.8115476144	-1.4934999305	 0.7863195131	-0.258414
N	 0.6060401452	-0.7054169913	 1.0950414663	-0.171255
C	-1.3578220231	-0.850224243	-0.1359917015	 0.160728
O	-2.0956138911	-1.0416449403	 1.0278844832	-0.452267
H	 1.0072300791	 1.8859864196	 0.0832853896	 0.119704
H	-0.5507621653	 1.9832548148	-0.7572013636	 0.114618
H	-0.4982812752	 1.8068241461	 1.0091314676	 0.130036
H	-0.2251408435	-0.3931210083	-2.2183929297	 0.104469
H	 1.3996014296	-0.8330520529	-1.6589950522	 0.100751
H	-0.6539734876	-2.8386405336	-1.1954323862	 0.068002
H	 0.1349351106	-2.8530530372	 1.3491987459	 0.098703
H	 2.3849443932	-1.7522671992	 1.6727183691	 0.118343
H	 2.42658515	-1.2381882916	-0.068602786	 0.119723
H	-2.0468243172	-0.522609819	-0.9183077248	 0.081798
H	-1.4595426988	-1.028032185	 1.7564522069	 0.296222
