15
gdb 18567	3.81497	2.07154	1.67848	4.967	59.87	-0.2444	0.0036	0.248	783.8483	0.121843	-399.825513	-399.819291	-399.818347	-399.855955	24.072	
O	-0.2103600465	 0.2593004184	 0.6090106345	-0.317209
C	-0.0454830163	 1.3422693199	 0.1529949463	 0.455931
O	-0.9903245352	 2.1696985358	-0.4085660758	-0.259571
C	-0.0068151219	 3.2252147996	-0.6861952187	 0.111623
C	-0.1238588998	 4.4141750491	 0.2561720852	-0.233694
C	 0.5565052982	 3.9102997077	 1.5565490794	-0.192488
N	 1.6129848825	 2.969173435	 1.140184103	-0.27557
C	 1.1186407081	 2.3388820128	-0.0685590413	-0.204022
H	 0.0025615373	 3.4554395045	-1.7512164279	 0.096168
H	 0.4356647401	 5.2558913292	-0.1686300283	 0.106091
H	-1.1594832525	 4.7312686787	 0.4004999811	 0.125346
H	 0.9762327363	 4.7119193296	 2.1670470826	 0.112842
H	-0.1701665231	 3.3723215065	 2.1758643412	 0.135249
H	 2.4689305267	 3.4717901684	 0.9315560943	 0.228203
H	 1.9168489462	 1.9577493048	-0.7052751956	 0.111099
