19
gdb 117067	4.65264	0.74895	0.65303	1.1515	76.41	-0.2286	-0.0565	0.1722	1724.1821	0.156514	-456.345887	-456.334978	-456.334033	-456.383438	36.557	
C	-0.1652759392	 1.3986400652	 0.006721743	-0.308406
N	-0.0896452716	-0.0348149741	-0.148600055	-0.287435
C	 0.5624602428	-0.6184924207	-1.1797393357	 0.257428
N	 1.1580472996	 0.0713764535	-2.0877275912	-0.544448
C	 0.48591299	-2.1434492717	-1.1026618098	 0.326746
O	-0.1047261155	-2.6849793069	-0.1994170076	-0.297364
C	 1.1819729201	-2.9268177345	-2.2063069888	-0.179214
O	 1.0149730893	-4.291937308	-1.984336692	-0.214022
C	 1.6349968945	-5.0853861499	-2.9715245308	-0.229494
H	 0.834852114	 1.8386245132	 0.0938722941	 0.139457
H	-0.6509048851	 1.8637450116	-0.858927451	 0.139334
H	-0.73834388	 1.6297628646	 0.9064709833	 0.122618
H	-0.5249167613	-0.659865183	 0.5098812843	 0.263338
H	 1.5951114304	-0.5257026728	-2.7840844285	 0.216505
H	 0.761129971	-2.6118757619	-3.1788353201	 0.119926
H	 2.2490240661	-2.6382504073	-2.2217612915	 0.119946
H	 2.7225125046	-4.9160194371	-3.0082946679	 0.108695
H	 1.4471024569	-6.1284058464	-2.7087177111	 0.137697
H	 1.2214356732	-4.8886709438	-3.9730187639	 0.108692
