23
gdb 109933	1.99771	1.42632	1.0957	0.8118	82.2	-0.2424	0.0756	0.318	1268.72	0.202789	-425.412288	-425.401623	-425.400678	-425.447358	39.625	
C	-0.546979692	 1.636450064	 0.0288174124	-0.240502
O	-0.3089189702	 0.2848026141	 0.3547861919	-0.239725
C	-1.3768855315	-0.5705391976	 0.0462490288	 0.117816
C	-1.4587127049	-1.2131001372	-1.3817427772	-0.034143
C	-0.1919396133	-1.1245822082	-2.2278812394	-0.397332
C	-1.7072348201	-2.5883148214	-0.6900824148	-0.296984
C	-1.2926775291	-1.9761268619	 0.6881784154	 0.365022
C	 0.0891929726	-2.381404765	 1.1853889194	-0.448082
O	-2.2531862461	-2.0919263599	 1.7270474604	-0.481151
H	 0.3336665583	 2.2053092831	 0.3375562129	 0.125277
H	-0.7008585653	 1.7844809352	-1.0501791718	 0.106963
H	-1.4286482228	 2.0282758629	 0.5589252047	 0.109064
H	-2.3345708331	-0.1112979244	 0.3289893223	 0.073966
H	-2.3093803295	-0.8560879071	-1.9690752535	 0.067521
H	 0.696808078	-1.4442821518	-1.6768605676	 0.124854
H	-0.2834870636	-1.7608696935	-3.1148914818	 0.110664
H	-0.0098482082	-0.1006801075	-2.5699166784	 0.11476
H	-2.7580505608	-2.885022662	-0.6846181327	 0.100722
H	-1.0991611627	-3.4228540583	-1.0516761402	 0.090565
H	 0.8557049738	-2.2593286479	 0.4173146404	 0.127699
H	 0.3719201005	-1.7726107918	 2.0475593196	 0.133087
H	 0.0816332816	-3.4380720283	 1.4831651437	 0.097834
H	-2.1427623416	-2.9544260156	 2.1416578154	 0.272103
