16
gdb 128192	3.83625	1.14489	0.8898	7.35	77.77	-0.2118	-0.0262	0.1856	1253.3755	0.126064	-434.08886	-434.080523	-434.079579	-434.12201	30.682	
C	 0.0934631195	 1.4688619463	-0.0462106576	-0.349889
N	-0.1327731925	 0.0454251941	 0.1266778992	-0.365656
C	 0.5391179282	-0.7193839961	 1.0518293911	 0.519087
C	 0.6109693297	-2.0891135464	 1.0034263026	-0.383377
C	 1.2886795166	-2.8233423156	 2.0400494092	 0.369074
O	 1.4137586817	-4.0436752338	 2.0978311176	-0.410445
C	 1.858673012	-1.9401861271	 3.0852361113	-0.082335
N	 1.7890407795	-0.65027363	 3.1128062581	-0.182115
N	 1.1342938096	-0.055773157	 2.0884614916	-0.301883
H	 1.1493254487	 1.7256243522	-0.2156640557	 0.136022
H	-0.4823865778	 1.8071858975	-0.9088840487	 0.14891
H	-0.2709366679	 2.0358457663	 0.8190994845	 0.140818
H	-0.3835178819	-0.4623754362	-0.7059127993	 0.259104
H	 0.1517410177	-2.6293668036	 0.183825013	 0.096543
H	 2.3878663491	-2.4085162883	 3.9099711663	 0.133388
H	 1.0876577677	 0.9451686676	 2.1661978468	 0.272754
