19
gdb 82767	2.84055	1.86252	1.50624	1.2094	72.92	-0.2456	0.0781	0.3237	940.4045	0.162007	-423.006809	-423.000038	-422.999094	-423.03763	28.193	
C	 0.0106543025	 1.5505888355	-0.0032313294	-0.424716
C	 0.0326597179	 0.0252404463	-0.0138144277	 0.043521
C	 0.9693109949	-0.5742973579	-1.0869571168	 0.01803
O	 2.2819564167	-0.1381522404	-0.6202749358	-0.296678
C	 2.063640655	-1.0712343368	 0.4585555851	 0.053867
C	 1.2901914424	-1.9971062124	-0.4946553514	 0.107566
O	 0.2742118767	-2.6898090199	 0.1838123798	-0.278416
C	 0.0930628767	-2.0016914905	 1.4419172907	-0.094683
C	 0.7530215737	-0.6422358122	 1.2067056982	-0.103741
H	 1.0266616793	 1.9482083212	 0.0582898756	 0.135905
H	-0.4540509119	 1.9433156774	-0.9145299742	 0.111625
H	-0.561321563	 1.9279146259	 0.8508665609	 0.110422
H	-0.982853045	-0.3698494594	-0.1221482067	 0.079103
H	 0.7839653821	-0.3666151198	-2.1412325601	 0.075372
H	 2.9535310358	-1.3339714185	 1.0287381332	 0.0853
H	 1.8573155426	-2.6575188701	-1.1484619849	 0.095563
H	-0.9784467225	-1.9332638737	 1.653854896	 0.112171
H	 0.5725251823	-2.5757092298	 2.2486834607	 0.09663
H	 0.8649276337	-0.018527165	 2.0933225568	 0.073158
