19
gdb 126635	3.16507	1.07099	0.85458	5.3726	78.34	-0.2195	0.0156	0.2352	1380.952	0.160421	-415.391047	-415.381763	-415.380819	-415.426012	33.318	
C	 0.027795074	 1.5662572566	 0.0172525577	-0.380403
C	-0.041381064	 0.0381763145	-0.0199365477	-0.179468
C	 0.7023060644	-0.5406355337	-1.2302481551	-0.15309
N	 0.6835116256	-1.9903525557	-1.2734411482	 0.023368
N	 1.6719862433	-2.7149547417	-0.6791346818	-0.167769
N	 1.4066851899	-3.9699389976	-0.8793250189	-0.188385
C	 0.2446202729	-4.0815886231	-1.5783284626	-0.135902
C	-0.2356901697	-2.8141382439	-1.8362961557	 0.305066
N	-1.3177807401	-2.3281540077	-2.5720274704	-0.607885
H	 1.0649489021	 1.9131803759	 0.0764416245	 0.126409
H	-0.4191269338	 2.0092686386	-0.8797725073	 0.117654
H	-0.5055125643	 1.9627168377	 0.8856361641	 0.123037
H	 0.3966147014	-0.3880779269	 0.8888424302	 0.13116
H	-1.089271888	-0.2885764739	-0.0421559357	 0.092549
H	 0.2695008253	-0.1741889126	-2.1675198213	 0.128023
H	 1.7541604903	-0.2450634733	-1.2039788213	 0.142081
H	-0.1697286127	-5.0376604919	-1.8552448811	 0.108817
H	-1.8789554845	-3.0805778668	-2.9488087025	 0.259442
H	-1.9164035021	-1.6998086348	-2.048276457	 0.255297
