18
gdb 92998	3.05613	1.19331	0.95776	2.8013	76.2	-0.2559	-0.0026	0.2533	1239.6343	0.147828	-439.086862	-439.078228	-439.077284	-439.12119	31.783	
O	-0.2144140941	 0.9452470458	-0.7905703372	-0.435426
C	-0.1962183477	-0.1871254408	 0.0405313681	 0.122725
C	 0.2593610636	 0.0447923771	 1.5050715763	-0.292542
C	-0.5463874968	-0.9739419399	 2.268553787	-0.055604
C	-1.5412215076	-1.4890111905	 1.5451516907	-0.084369
C	-1.582840307	-0.8907672394	 0.1673328625	 0.035701
O	-2.6302103261	 0.0981113513	 0.108831812	-0.215626
C	-3.2868848389	 0.2467917258	-1.0614071587	 0.12701
N	-4.06754995	 1.2245224649	-1.2226446479	-0.446992
H	-0.9266649515	 1.5173604167	-0.4782703624	 0.297529
H	 0.4948432971	-0.8932722185	-0.4311459883	 0.100061
H	 1.3407759487	-0.0754910477	 1.6258647566	 0.112682
H	 0.0191736461	 1.0654810168	 1.8317376116	 0.120167
H	-0.3321654294	-1.235926689	 3.2991322365	 0.105736
H	-2.2725452018	-2.2106302843	 1.8884474871	 0.10532
H	-1.7508043678	-1.6207609678	-0.633401235	 0.081698
H	-3.0737687694	-0.5495922021	-1.7872010886	 0.091611
H	-4.5029776674	 1.1738760817	-2.1412190003	 0.230319
