17
gdb 90649	3.41769	1.19703	1.11355	4.3408	73.86	-0.2565	0.026	0.2825	1125.5746	0.136066	-417.976798	-417.968151	-417.967207	-418.009776	32.692	
N	-0.1037851	 1.4630664602	 0.0990201019	-0.559629
C	-0.1083044519	 0.0249379786	 0.0458983294	 0.167739
C	 0.9361185214	-0.5839435794	-0.7596901922	 0.228434
N	 1.7960352704	-1.0175529516	-1.4018147747	-0.345235
C	-0.5007794473	-0.8012076154	 1.261038827	-0.084444
C	-1.5414386566	-0.0196396248	 2.0700822056	-0.29732
C	-2.5024564222	-0.1090322569	 0.8291611792	 0.113649
O	-3.0413910489	 1.0493626804	 0.2412907099	-0.432407
C	-1.3991435528	-0.7743931465	 0.0210631105	-0.102495
H	 0.843916377	 1.8214686375	 0.1379399936	 0.241376
H	-0.5735534028	 1.8620084445	-0.7053184668	 0.250992
H	 0.1284652826	-1.6047299101	 1.6205646661	 0.111576
H	-1.9163374992	-0.5596161737	 2.9413696715	 0.104408
H	-1.2388089551	 0.9910821452	 2.3462118293	 0.124118
H	-3.2890782024	-0.8490354604	 1.0324997294	 0.082005
H	-3.7198900523	 1.4017065045	 0.826003013	 0.287373
H	-1.5492640298	-1.523872222	-0.7460667028	 0.109859
