19
gdb 73645	2.35295	1.71537	1.45536	3.4999	75.91	-0.2371	0.0278	0.2649	1012.9212	0.16124	-419.216804	-419.208841	-419.207897	-419.249005	31.296	
C	-0.0882661194	 1.4838056591	 0.0281333602	-0.484635
C	-0.0020091811	-0.0296971867	 0.0057616883	 0.167865
N	-1.3031371394	-0.6786956594	-0.1077528978	-0.310879
C	-1.150702157	-2.0236769036	 0.4719709292	-0.1898
C	-0.1000283758	-1.8957549637	 1.6058371451	-0.238576
C	 0.8246539343	-0.8048407261	 1.0934386186	 0.084898
O	 1.742480363	-1.2802831421	 0.051126758	-0.283089
C	 1.0521778735	-0.6139472448	-0.9411732084	 0.427839
N	 1.2725979641	-0.5248903033	-2.1709278468	-0.553911
H	 0.9037353916	 1.9329708135	 0.1210851059	 0.132124
H	-0.5378585	 1.8433024815	-0.9012807305	 0.153413
H	-0.7006776814	 1.8273484908	 0.8698569493	 0.111912
H	-1.9792359172	-0.1452808	 0.4309793544	 0.216055
H	-2.1149285499	-2.4066263028	 0.8123089679	 0.106657
H	-0.7822254788	-2.7037834465	-0.3040420152	 0.128895
H	-0.5746187892	-1.5515758717	 2.532661011	 0.101664
H	 0.4311090668	-2.8266921321	 1.8208058563	 0.117805
H	 1.373141205	-0.2448987839	 1.8524488026	 0.086242
H	 2.1032690209	-1.0550067183	-2.441764528	 0.225518
