17
gdb 125971	3.72365	1.20929	1.15364	3.0637	74.25	-0.2304	0.0174	0.2478	1117.1142	0.138393	-414.189275	-414.181402	-414.180457	-414.222425	29.153	
C	-0.2852285168	 1.5151625582	-0.1697633665	-0.416888
C	-0.1605247751	 0.0257451829	 0.035597243	 0.00147
C	 1.0911984499	-0.6978044279	-0.308528396	-0.24088
N	 0.7242063044	-0.5308160202	 1.0981461768	-0.207466
C	 1.5000352675	 0.3296964446	 1.8632735055	 0.44852
N	 2.6941873431	 0.8361558814	 1.5989691614	-0.325189
C	 2.9746461206	 1.5470770298	 2.7292115321	 0.027506
N	 2.0449851065	 1.5216796814	 3.6659421901	-0.216457
N	 1.1003690121	 0.7291567076	 3.0910046271	-0.256141
H	 0.6864088068	 2.0101367002	-0.1005705285	 0.149835
H	-0.7049453599	 1.7180353231	-1.1602863109	 0.129302
H	-0.9543786858	 1.9628956681	 0.5730449919	 0.126068
H	-1.0943376546	-0.5280422029	-0.0327547209	 0.102276
H	 1.0545251858	-1.7224862042	-0.6663702439	 0.123475
H	 1.9320325772	-0.1080492181	-0.661334014	 0.152796
H	 3.8934106489	 2.0993512576	 2.8603404445	 0.1236
H	 0.2634705294	 0.4797421885	 3.5909543381	 0.278173
