17
gdb 48916	3.06237	1.53322	1.29311	2.7309	73.37	-0.2427	-0.0312	0.2116	1000.2711	0.136874	-421.787893	-421.780808	-421.779863	-421.819711	27.477	
O	-0.0093678966	-0.0681413619	 0.0025075943	-0.250932
C	 0.0433974773	 1.136124554	-0.0787145585	 0.014735
C	 1.3039198255	 1.9160543705	-0.0515716187	 0.230761
C	 2.7510310909	 1.3941550306	 0.0132436293	-0.296003
C	 2.908411308	 2.9316997554	 0.0072734313	-0.09751
C	 1.7630358964	 3.0497000798	-1.0558630277	-0.103914
C	 0.9796922045	 4.3080231852	-0.7121859749	-0.115696
O	 0.9627053344	 4.2297668909	 0.7254999816	-0.273089
C	 1.6958688594	 3.0561417489	 0.9727459328	 0.101801
H	-0.8847300864	 1.7457901977	-0.169433726	 0.07525
H	 3.0413182182	 0.8687098586	 0.9260544697	 0.107402
H	 3.1082528394	 0.865694717	-0.8725622084	 0.108885
H	 3.8272918243	 3.5180753802	 0.0338909462	 0.082382
H	 1.9488706864	 2.7973136476	-2.0997279613	 0.088149
H	 1.4835554557	 5.2275301086	-1.0336485403	 0.112486
H	-0.0466601627	 4.3157217852	-1.0969615082	 0.112543
H	 1.7705394952	 2.8510488718	 2.0397207686	 0.10275
