15
gdb 14889	4.99918	1.42465	1.15131	3.4599	69.8	-0.2667	-0.0433	0.2234	985.2667	0.120684	-362.686022	-362.679054	-362.678109	-362.717327	25.828	
N	 0.0630020811	-1.1709176597	 0.0001712703	-0.332729
C	-0.0050467453	-0.0144678102	 0.0096812335	 0.214103
C	-0.0423612919	 1.4131494837	 0.0214166922	 0.163407
C	-1.2083576004	 2.0731430945	 0.0140590178	-0.142572
C	-1.2712919036	 3.5711051585	 0.0604383396	-0.11967
O	-0.03261887	 4.1837786854	 0.3412096978	-0.242566
C	 1.0377019265	 3.6120134285	-0.3931658643	-0.092756
C	 1.276901705	 2.160757325	 0.027233542	-0.301468
H	-2.1514101641	 1.5372240149	-0.0297938696	 0.123178
H	-1.6911468336	 3.9436643415	-0.8931887627	 0.112696
H	-1.9613582188	 3.8906053056	 0.8507254099	 0.134797
H	 0.8295049028	 3.6585709536	-1.4743218081	 0.099388
H	 1.914855493	 4.2308912229	-0.1894030806	 0.119849
H	 1.7250181825	 2.1202928769	 1.0272478911	 0.136388
H	 1.9846929969	 1.6802546488	-0.657057449	 0.127956
