21
gdb 114998	3.15811	1.04021	0.82936	2.0836	80.88	-0.247	0.012	0.259	1413.5746	0.182673	-424.228555	-424.219316	-424.218372	-424.262668	34.822	
C	 0.0816013156	 1.3271367845	-0.1540732252	-0.241179
O	-0.0158407126	-0.0376087686	 0.1824376529	-0.246974
C	-1.3250513324	-0.5750539583	 0.1045539137	 0.122212
C	-1.8127011976	-0.7475605807	-1.3440580624	-0.271983
C	-3.024239601	-1.6419547494	-1.4221763988	-0.063394
C	-3.4327647503	-2.420819051	-0.4209191314	-0.090836
C	-2.7120581539	-2.5335332037	 0.899737332	 0.088956
O	-2.680268592	-3.88339965	 1.360103054	-0.436544
C	-1.3067467745	-1.9234444488	 0.8205003259	-0.24254
H	 1.1072564722	 1.6382260585	 0.0599013502	 0.127477
H	-0.1237516253	 1.5191071558	-1.2173175837	 0.106301
H	-0.6069795128	 1.9432270431	 0.4458837277	 0.103051
H	-2.0244285028	 0.0995677321	 0.6303742741	 0.065961
H	-2.0464085828	 0.2240344526	-1.7957049871	 0.103666
H	-0.9887162139	-1.166895582	-1.9397379133	 0.116944
H	-3.5869720552	-1.6221801614	-2.3528020109	 0.090878
H	-4.3248325454	-3.034598921	-0.5197329227	 0.093408
H	-3.2919874915	-2.0107992023	 1.6729000919	 0.097237
H	-2.2262024808	-4.4032297875	 0.6871403041	 0.274525
H	-0.6516968749	-2.6064149687	 0.2628487097	 0.093185
H	-0.8814101978	-1.811123313	 1.8211604292	 0.10965
