8
gdb 3910	6.30167	3.0235	2.04319	3.1252	43.15	-0.2947	-0.1404	0.1543	541.8821	0.042699	-391.391111	-391.385777	-391.384833	-391.421267	17.906	
O	 0.0170970011	-0.0474997263	 0.0022859136	-0.294391
C	 0.0315733001	 1.1413159957	 0.0087565674	 0.491922
O	-1.1827062153	 1.8266169646	 0.0284470796	-0.234894
N	-1.2502186058	 3.2438820825	 0.0370243539	 0.105762
N	-0.1945123966	 3.8844570616	 0.0265194409	-0.109689
C	 1.0356861669	 3.1949181811	 0.0071984394	 0.123492
N	 1.1916829765	 1.9286312215	-0.002252466	-0.257816
H	 1.9012322732	 3.8518926494	-0.0020230688	 0.175613
