18
gdb 80527	2.23198	1.48426	1.25078	1.7936	73.95	-0.2457	-0.0357	0.21	1096.903	0.146217	-439.046337	-439.037443	-439.036499	-439.079753	32.985	
C	-0.0807534208	 1.5869445234	-0.1018418278	-0.438632
C	 0.0354346778	 0.0886299111	 0.0834975815	-0.02818
N	 1.1924555099	-0.7341491799	-0.2597327367	-0.185345
C	 2.4365823766	 0.0378496498	 0.1169537625	-0.183277
C	 2.0583876282	 0.0682782687	 1.6105188604	 0.028403
O	 2.063005	 1.3457660288	 2.2034844576	-0.422854
C	 0.7324696195	-0.5878264681	 1.2213132692	 0.196544
C	 0.1278277142	-1.7071989575	 1.9621918842	 0.061237
O	 0.3811706672	-1.9480979196	 3.1201355657	-0.269887
H	 0.7137993862	 2.1414858073	 0.393681453	 0.159039
H	-0.0875288614	 1.8317289988	-1.1697480628	 0.128265
H	-1.0325419107	 1.9239320063	 0.3206874909	 0.127925
H	-0.8679879043	-0.4434901109	-0.2163425899	 0.104052
H	 3.3196409029	-0.5593634008	-0.1114427302	 0.122034
H	 2.5212347317	 1.0134365364	-0.3665262554	 0.122399
H	 2.6561723144	-0.6396157874	 2.1954720909	 0.10396
H	 1.8106478889	 1.247028994	 3.1278603539	 0.293621
H	-0.5910312804	-2.3238610103	 1.3777702431	 0.080695
