15
gdb 2083	4.83703	2.57553	1.77679	4.2037	57.5	-0.2353	0.0609	0.2962	698.4414	0.128893	-341.890999	-341.884586	-341.883641	-341.921343	23.871	
O	 0.0010180123	-0.0649329544	-0.139844009	-0.416861
C	-0.0134295654	 1.1446899764	 0.0143075654	 0.432043
N	-1.1870063524	 1.8559016862	 0.15518562	-0.333104
C	-1.2907756898	 3.3039074466	 0.0805390834	-0.151927
C	-0.0422743797	 3.930468733	 0.7001372758	-0.195421
C	 1.2060188549	 3.338025541	 0.0474325492	-0.151898
N	 1.1436633363	 1.8877282806	 0.123637694	-0.333097
H	-2.003136557	 1.2968693413	-0.0343107739	 0.24835
H	-1.4023458025	 3.6527160435	-0.9592203609	 0.101671
H	-2.1872846536	 3.6225074083	 0.6229376022	 0.111602
H	-0.0588765497	 5.0153297981	 0.5631381773	 0.106068
H	-0.0252072154	 3.7218949064	 1.7748964989	 0.120946
H	 1.2806750477	 3.6897619916	-0.9946392355	 0.101674
H	 2.1074999892	 3.6808858433	 0.5663018527	 0.111601
H	 1.9693398151	 1.3511054982	-0.0879893597	 0.248351
