19
gdb 84144	1.93197	1.48402	0.95686	2.4612	78.44	-0.2454	-0.0213	0.2242	1265.77	0.157834	-423.053382	-423.044128	-423.043184	-423.088231	33.786	
C	-0.1747054854	 1.3161245147	 0.2652217184	-0.489475
C	 0.0284751086	-0.1509894785	 0.058154007	 0.332293
C	-0.335290027	-0.8749049718	-1.0040532916	-0.217213
C	 0.0732116103	-2.3206412298	-0.9127237355	 0.07146
O	 1.0282586951	-2.6952652845	-1.9012747965	-0.427282
C	 0.6077385588	-2.4383422103	 0.5626716202	-0.12359
C	 0.7027313456	-1.0022336396	 1.1122351292	-0.327689
C	-0.3042913525	-3.3358922677	 1.3747753157	 0.143758
O	-0.8989840181	-3.0169228304	 2.3724253885	-0.242003
H	 0.7824716605	 1.8236561339	 0.4399993578	 0.128037
H	-0.6599297449	 1.7855614783	-0.5942486901	 0.12698
H	-0.7908315368	 1.5035452902	 1.1532739985	 0.136888
H	-0.8343031796	-0.4874464146	-1.8860089049	 0.093775
H	-0.7629639984	-3.0091695114	-1.0858934496	 0.090422
H	 1.6849683704	-1.9905140232	-1.9412791198	 0.27488
H	 1.574591635	-2.9526409045	 0.5118573563	 0.102354
H	 1.7372711476	-0.6789933521	 1.2837436929	 0.103067
H	 0.1870404277	-0.9334584737	 2.0766354742	 0.137546
H	-0.405730617	-4.3636909848	 0.9569097893	 0.08579
