19
gdb 113462	4.43949	0.9403	0.93033	0.6525	75.96	-0.252	0.075	0.327	1349.8566	0.157467	-422.965935	-422.957399	-422.956455	-422.999465	32.193	
C	 0.3499716863	 1.4587174229	 0.2177942128	-0.37504
C	-0.3239189885	 0.1490626531	-0.2090749923	-0.209903
C	 0.3365731608	-0.4664758849	-1.4175538232	-0.033825
O	 1.6234297202	-1.0949617948	-1.1985782878	-0.299207
C	 0.5276002978	-1.9059022911	-1.5770696352	 0.434968
C	 0.0881644372	-3.1301568699	-0.7318829985	-0.348817
C	 0.1229637229	-3.9443019306	-2.038889268	 0.034034
O	-0.7765296928	-3.3089328565	-2.9534273023	-0.240835
C	 0.5517054366	-2.7757966049	-2.8281436193	-0.093075
H	 1.4022586602	 1.2864648564	 0.4622940855	 0.134109
H	 0.3090916959	 2.2047934194	-0.5832750464	 0.116384
H	-0.140272277	 1.8854592157	 1.0975677201	 0.114735
H	-0.3003803973	-0.5713894678	 0.6156913205	 0.105019
H	-1.3803781345	 0.3276693142	-0.447602333	 0.106474
H	 0.3061531024	 0.1408925953	-2.3250856858	 0.09051
H	 0.8730081475	-3.4087765108	-0.0238894519	 0.12439
H	-0.8803708405	-3.0884046957	-0.2286591963	 0.115966
H	 0.3218615294	-4.9993413868	-2.182215288	 0.111041
H	 1.1578698432	-2.6866785533	-3.721848411	 0.113073
