16
gdb 5241	7.02613	1.18077	1.02682	3.2083	67.41	-0.2139	0.038	0.2519	1123.4214	0.131915	-379.948142	-379.940371	-379.939427	-379.9814	27.245	
C	 0.0215424646	 1.3326620247	-0.0463621848	-0.226735
O	-0.0132018583	-0.0725919195	-0.1475643152	-0.250333
C	-1.3103645076	-0.6062490969	 0.0310984528	-0.166915
C	-1.2080744529	-2.0978086464	-0.0196665106	 0.334364
N	-2.2028889128	-2.9467480123	-0.1495314256	-0.318492
C	-1.6205710348	-4.1942761144	-0.105499419	-0.090622
C	-0.2635361422	-4.0900052274	 0.0481256525	-0.114605
N	-0.0137176235	-2.7366323719	 0.1077573109	-0.254672
H	 1.0581260384	 1.6447716367	-0.1922835644	 0.130274
H	-0.6059816722	 1.8093865679	-0.8144867876	 0.113732
H	-0.320843557	 1.6773722843	 0.9415836372	 0.111105
H	-1.7275122826	-0.2804890333	 0.9997386076	 0.112118
H	-2.0027351997	-0.2559818693	-0.7496211012	 0.121983
H	-2.2120870573	-5.0930536259	-0.1911206579	 0.103526
H	 0.5252842773	-4.8205147497	 0.1116573044	 0.123496
H	 0.8735301305	-2.2680195166	 0.1826812808	 0.271777
