21
gdb 41145	2.86561	1.87021	1.43514	0.1639	87.1	-0.2294	0.0184	0.2478	983.0709	0.186375	-349.929907	-349.923181	-349.922237	-349.960384	29.641	
C	-0.004982642	 1.5707680406	-0.1160621147	-0.269129
C	 1.5566166507	 1.4894922472	 0.013560526	-0.343191
C	 1.3432806257	 0.1913006487	 0.8184946697	 0.357169
C	 2.0203458435	-1.1817463374	 1.0443266881	-0.319549
C	 1.0369180404	-1.2907437031	 2.2687153264	-0.063623
C	 1.146274465	 0.2611072294	 2.3538000652	-0.247849
C	-0.3957832057	-1.5840392595	 1.8461258376	-0.058082
C	-0.9488847482	-0.8735366735	 0.855487433	-0.132241
C	-0.0146873073	 0.0262686071	 0.1027375884	 0.009965
H	-0.4470638065	 2.1161557644	 0.7214978232	 0.106959
H	-0.4208619548	 1.9530328284	-1.050779264	 0.09352
H	 2.0223416229	 1.3108466477	-0.9611257567	 0.100576
H	 2.0760072612	 2.3122132245	 0.5116631861	 0.093219
H	 1.9340683648	-1.9223123247	 0.2441026932	 0.090988
H	 3.058591208	-1.1189859453	 1.3848194388	 0.092081
H	 1.3550016344	-1.890558523	 3.1223966698	 0.057919
H	 2.0703953224	 0.5861259919	 2.843447214	 0.088273
H	 0.2913065232	 0.8027632319	 2.7646481662	 0.092922
H	-0.9630042985	-2.3228509046	 2.404927856	 0.085744
H	-1.9791857097	-1.0159435051	 0.541265423	 0.083574
H	 0.1748749204	-0.4185443656	-0.8867107792	 0.080755
