14
gdb 10975	2.82716	2.53784	1.86631	1.8046	57.1	-0.2314	-0.0279	0.2036	740.7133	0.107011	-419.652915	-419.646217	-419.645273	-419.683567	25.654	
O	 0.2694234333	 1.3949428612	-0.1426054345	-0.470596
C	 0.1205638369	 0.0322356347	-0.0399195118	 0.243047
C	-1.2516733268	-0.7685216208	-0.0431806509	-0.311618
C	-0.3439000876	-1.9185108705	 0.4699485537	-0.028137
O	 0.5423991177	-2.1538998193	-0.6346598923	-0.274584
C	 0.9158848254	-0.8145068917	-1.0460747876	-0.108261
C	 0.3696709582	-0.785203164	 1.2463010253	 0.374677
O	 0.7033864813	-0.5180770815	 2.3620641305	-0.322498
H	 0.1628119385	 1.7772970252	 0.7368308775	 0.300463
H	-1.9732238793	-0.4045745431	 0.6907976217	 0.122373
H	-1.7051428087	-0.9327446694	-1.021983841	 0.126691
H	-0.7013693567	-2.8486769327	 0.8994968982	 0.110412
H	 0.6163327079	-0.6390494391	-2.0852367051	 0.116729
H	 1.9974244797	-0.668948959	-0.9505747637	 0.121303
