18
gdb 124836	4.36032	0.96129	0.83829	7.0667	73.03	-0.242	0.0251	0.2671	1366.5778	0.148236	-435.278646	-435.269815	-435.268871	-435.313023	31.859	
C	-0.0971103695	 1.5474183466	-0.0358724376	-0.399005
C	 0.066814409	 0.0285702686	-0.0887621521	 0.116779
O	 0.9867076014	-0.361835464	-1.1024187619	-0.425183
C	 0.6365577675	-0.5188796008	 1.2223857816	-0.166958
N	 0.6189153752	-1.9703888124	 1.2929942914	-0.009136
C	-0.1541238737	-2.7583465944	 2.1009453882	 0.013467
N	 0.0818256884	-4.0261784762	 1.889451566	-0.227358
N	 1.0483468706	-4.0980223755	 0.9031619412	-0.228774
C	 1.3500349299	-2.8702914544	 0.5657495316	 0.020555
H	 0.8629873655	 2.0306465673	 0.1706090451	 0.132148
H	-0.4643463591	 1.9235157486	-0.9960121727	 0.118904
H	-0.815399041	 1.8447405976	 0.7351883306	 0.121821
H	-0.9122678338	-0.4452608939	-0.2583081441	 0.087939
H	 0.5818009854	-0.2084849535	-1.9614488954	 0.292453
H	 1.6661074398	-0.1615987913	 1.3320259181	 0.138292
H	 0.0566635392	-0.1385753289	 2.0666311289	 0.126339
H	-0.8534041944	-2.3531116639	 2.8167297333	 0.134605
H	 2.0578211297	-2.5667350995	-0.1873331422	 0.15311
