19
gdb 9610	3.11934	1.46312	1.1894	1.7512	78.83	-0.2405	0.0385	0.2791	1091.9856	0.163326	-327.876495	-327.86733	-327.866386	-327.909958	34.102	
C	-0.322153946	 1.4949698732	 0.0960356086	-0.385342
C	 0.2906695318	 0.1055498733	-0.1141600002	-0.227591
C	 0.8785499582	-0.4875665507	 1.1559860455	 0.337062
C	 2.100834936	 0.2130004142	 1.717560046	-0.466557
N	-0.1240301439	-1.0022437913	 2.0995430707	-0.35203
C	 0.7706240338	-1.9669567293	 1.4058610701	-0.317765
C	 0.1770180064	-2.8916489154	 0.4801364737	 0.38379
C	-0.2833355058	-3.6842370446	-0.2985501742	-0.436798
H	 0.4272900844	 2.2366938783	 0.3909458039	 0.110497
H	-0.7919638998	 1.8531885696	-0.8247644707	 0.113142
H	-1.0890827056	 1.4580653413	 0.8757829536	 0.131319
H	-0.4765081282	-0.5768026306	-0.4894911608	 0.11967
H	 1.0758731939	 0.1494732125	-0.8799178031	 0.093632
H	 1.861324239	 1.236615318	 2.024962892	 0.128358
H	 2.4947510544	-0.3153363448	 2.5920589756	 0.112784
H	 2.9001414052	 0.269754195	 0.9707571766	 0.127655
H	 0.1954351405	-0.8884568829	 3.0594076177	 0.228896
H	 1.5788425192	-2.394887299	 1.9964652296	 0.103891
H	-0.7004279734	-4.3795336468	-0.9841261144	 0.195386
