13
gdb 4369	3.7829	2.02866	1.3216	3.2469	65.22	-0.2141	-0.0285	0.1855	851.9335	0.098285	-394.846097	-394.839643	-394.838699	-394.876398	25.301	
N	 0.0644650447	 1.3484305359	 0.1366720137	-0.567195
C	 0.0139392899	-0.0230052687	 0.0431606746	 0.362924
C	-1.201319717	-0.7307420334	 0.0813420391	-0.083187
N	-1.2300851962	-2.0573662154	 0.0402722929	-0.214223
C	-0.0726145203	-2.7098426089	-0.0353465665	-0.10486
C	 1.1303360223	-1.997187749	-0.0756132514	 0.401742
O	 2.2948549407	-2.668903522	-0.1584652262	-0.41493
N	 1.1823624002	-0.6718743276	-0.0420998847	-0.406811
H	 0.9345204978	 1.7641429457	-0.1584430164	 0.257601
H	-0.7618856969	 1.8587675541	-0.1302312164	 0.258308
H	-2.15060379	-0.2058081768	 0.1473814166	 0.097174
H	-0.0828557598	-3.7933230299	-0.0683424591	 0.116122
H	 2.9945612747	-2.0012282839	-0.1703744663	 0.297335
