16
gdb 96770	3.80003	1.54025	1.32669	1.5329	75.24	-0.2359	-0.0285	0.2074	973.444	0.125546	-396.875578	-396.868537	-396.867592	-396.90706	27.337	
C	-0.1066651055	 1.3973446709	-0.1149084191	-0.342506
N	-0.124612777	-0.0556946948	-0.1131332751	-0.332538
C	 0.5230009001	-0.6870067623	-0.9746691287	 0.457265
C	 0.8180588857	-2.1041244721	-1.2392275725	-0.199268
C	 0.9449329251	-2.3258825608	-2.7860807235	-0.01447
N	 0.2754656111	-1.3921046301	-3.6784729725	-0.188882
C	 0.6061401521	-0.2435940839	-3.2429219092	 0.007038
N	 1.4669014231	-0.2197152796	-2.0714496469	-0.230234
C	 2.0188910154	-1.6266932574	-2.0522429035	-0.040089
H	 0.6180216077	 1.8257271734	-0.8186766535	 0.12636
H	-1.1075728244	 1.7684263293	-0.3622491075	 0.132692
H	 0.123360748	 1.7515952798	 0.8952018064	 0.13161
H	 0.7039296668	-2.944853201	-0.5694391454	 0.119026
H	 1.0271567325	-3.3569958421	-3.1039911977	 0.11853
H	 0.2305150678	 0.694018956	-3.636735719	 0.135047
H	 3.0783466314	-1.8211941051	-1.9507326421	 0.120418
