23
gdb 100693	2.97899	0.75837	0.63876	1.2289	91.45	-0.2408	0.0614	0.3023	1820.1015	0.202236	-388.270051	-388.258077	-388.257133	-388.308749	41.65	
C	-0.0597680448	 1.4874388623	 0.0097274828	-0.49914
C	-0.0080099765	 0.0317103566	-0.0034411089	 0.077425
C	 0.0432901513	-1.1719818411	-0.0070580939	 0.058687
C	 0.0573370887	-2.636921631	-0.0223779545	-0.152698
C	-1.3852432598	-3.1659069955	 0.1416208615	-0.400391
C	 0.782779273	-3.170776182	-1.2920987542	 0.046227
C	 2.2251709654	-2.6548551708	-1.3703573262	-0.398701
C	 0.7597258796	-4.7012772593	-1.3503740314	-0.093026
O	 1.4271753978	-5.1096299179	-2.5372974472	-0.423188
H	 0.7454822773	 1.9103511957	 0.6208814334	 0.145669
H	 0.0418214001	 1.8996877298	-1.0004061278	 0.146167
H	-1.0095645944	 1.8494597771	 0.4191501045	 0.144997
H	 0.6380869311	-2.9774075514	 0.8488374456	 0.095279
H	-1.4019602949	-4.2442834512	 0.319302976	 0.113548
H	-1.8696737595	-2.6779264703	 0.991124075	 0.122687
H	-1.9802827681	-2.9519848222	-0.75205796	 0.12303
H	 0.2312817985	-2.8035097616	-2.1677971896	 0.085636
H	 2.8049523224	-2.995827582	-0.5031243298	 0.10176
H	 2.7153201477	-3.031093518	-2.2696739613	 0.131981
H	 2.2477511619	-1.5629365782	-1.3809850245	 0.12217
H	 1.259511042	-5.1087859442	-0.453838487	 0.079287
H	-0.2744381555	-5.071605012	-1.3492549213	 0.087088
H	 1.3970920866	-6.069372063	-2.5817564311	 0.285509
