20
gdb 80537	2.1946	1.75692	1.29803	3.326	78.76	-0.2319	-0.0074	0.2244	1076.4055	0.171281	-403.132828	-403.124432	-403.123488	-403.165402	32.689	
C	-0.0333770739	 1.6045694181	 0.0887586704	-0.417609
C	 0.0513547898	 0.0802009762	 0.0107638498	 0.01276
C	 0.9925766362	-0.4787479444	-1.1179047476	-0.261136
C	 1.9710429504	-1.3094160814	-0.2402520403	-0.123564
N	 1.1210202645	-1.967159323	 0.801471742	-0.096354
C	 0.0870613571	-2.9123164636	 0.4088153628	-0.331639
C	 0.7530189782	-0.5839306616	 1.2362622306	-0.134305
C	 2.2326746797	-0.2964475076	 0.8964154175	 0.473939
O	 3.1405208772	 0.3405260336	 1.3290528395	-0.326675
H	 0.9585077739	 2.0545740056	 0.204769581	 0.133734
H	-0.4858168249	 2.0198956226	-0.8174267846	 0.118603
H	-0.6439491792	 1.9229814511	 0.9406076959	 0.118045
H	-0.959200421	-0.326105114	-0.0947883199	 0.079171
H	 0.4647736516	-1.0968977893	-1.8481734062	 0.107561
H	 1.5093451735	 0.3160714973	-1.664170077	 0.113348
H	 2.7518607131	-1.8995185412	-0.7181015258	 0.087936
H	 0.5658072422	-3.8284337308	 0.0492808009	 0.128403
H	-0.5077309936	-3.1709371166	 1.2902624821	 0.128652
H	-0.6005614821	-2.5589062155	-0.3746136634	 0.104277
H	 0.3191852873	-0.4525363953	 2.2271760824	 0.084854
