17
gdb 28107	4.94387	1.2403	1.00385	0.7771	85.34	-0.1837	-0.0095	0.1741	1168.7944	0.137266	-384.733474	-384.726036	-384.725092	-384.76524	28.963	
C	 0.1022311366	 1.4566072445	 0.022273611	-0.490606
C	-0.0730202176	-0.0182104435	-0.0017513508	 0.356251
C	-1.1708720176	-0.828141915	-0.130850395	-0.475157
C	-0.6802947787	-2.1668052895	-0.0773328102	 0.267702
C	 0.6695700131	-2.0604791906	 0.0792367143	 0.309887
O	 1.0758043542	-0.7723773364	 0.129440184	-0.237233
C	 1.3242190365	-3.3490300942	 0.1518196439	-0.213966
C	 0.3507822894	-4.280421188	 0.0367971199	-0.082918
C	-1.0197793536	-3.6286021559	-0.1202079888	-0.41578
H	 0.7528841728	 1.8015247535	-0.7901614218	 0.136116
H	-0.8688445477	 1.9444059428	-0.0891919587	 0.133724
H	 0.5493206804	 1.7971526733	 0.9638195472	 0.136116
H	-2.1859243037	-0.4794786187	-0.2475806157	 0.107225
H	 2.383897471	-3.5251807982	 0.2741191854	 0.108183
H	 0.4915670704	-5.3527433957	 0.0504478175	 0.100072
H	-1.6992391947	-3.9398279925	 0.6842792953	 0.130199
H	-1.4977284409	-3.935669266	-1.0598615575	 0.130186
