14
gdb 1952	8.46064	1.57516	1.48102	4.4437	58.19	-0.2781	0.0038	0.2819	823.6716	0.113284	-324.573632	-324.566693	-324.565749	-324.604927	24.444	
C	-0.4849093696	 1.3687987711	 0.114911365	-0.401675
C	 0.2219103725	 0.0364716642	 0.0077194019	 0.16959
C	 0.9391480013	-0.3204897684	-1.3147473471	-0.309057
C	 2.2044112304	-0.4429432831	-0.4279068362	 0.003337
O	 1.4912704472	 0.023558623	 0.7283723653	-0.289346
C	 2.7301109669	-1.8039444036	-0.2599937458	 0.272439
N	 3.1425746788	-2.8771226506	-0.1427412661	-0.3167
H	 0.1470163262	 2.1780277251	-0.263548582	 0.123185
H	-1.4162707928	 1.3511765394	-0.4614984314	 0.124823
H	-0.7339598848	 1.5844588292	 1.1583583897	 0.137818
H	-0.4210982216	-0.7725903176	 0.3767594996	 0.095795
H	 0.6178304012	-1.2312381541	-1.8182539593	 0.136588
H	 0.9950876439	 0.5004285462	-2.0312183954	 0.124079
H	 3.0369610304	 0.2209314491	-0.6867757182	 0.129126
