16
gdb 15701	3.63483	1.75555	1.2477	4.4856	60.35	-0.2654	0.0005	0.2659	939.4729	0.132181	-420.923602	-420.916341	-420.915397	-420.955372	26.846	
O	-0.0490857871	 1.4737553096	-0.162046322	-0.423268
C	 0.0419842052	 0.0706574386	-0.1520082095	-0.069493
C	-1.332277786	-0.5913445031	 0.0340775493	-0.164666
C	-1.3699709646	-2.1233312205	 0.0664567483	-0.260711
C	-2.5538019549	-2.3995065079	 1.0056712738	-0.088547
O	-2.6114728061	-1.2702040818	 1.9015331534	-0.212298
C	-1.941271882	-0.2176928257	 1.3827073656	 0.459347
O	-1.8539950764	 0.836431254	 1.9581329381	-0.361092
H	-0.5165133855	 1.7191888856	 0.650316151	 0.300086
H	 0.4680581266	-0.2330952637	-1.1143171928	 0.109513
H	 0.7221792889	-0.2955267293	 0.6363972373	 0.089127
H	-2.0053291755	-0.196851617	-0.7385578144	 0.121398
H	-1.5033375778	-2.5823515414	-0.9146530841	 0.122304
H	-0.443254265	-2.5138588424	 0.5014734294	 0.122159
H	-3.5049395977	-2.4590686475	 0.464700348	 0.123798
H	-2.439673452	-3.2968376674	 1.6163441584	 0.132343
