20
gdb 79784	3.68841	1.67828	1.54858	1.6656	81.04	-0.2215	0.0801	0.3017	945.3813	0.174277	-365.951912	-365.94536	-365.944416	-365.982451	28.013	
C	-0.2089454067	 1.6138093449	-0.0425832805	-0.430264
C	 0.0275427699	 0.1137372887	 0.0055165019	 0.02093
C	 1.2064338113	-0.538791449	-0.7521580927	-0.010628
C	 2.4986094587	 0.1427932128	-0.2860207134	-0.056664
C	 3.5258307537	-1.0172077092	-0.2516116257	-0.244054
C	 2.621274994	-1.5499802382	 0.8579933423	 0.00917
C	 2.1959681265	-0.1103415212	 1.2570204912	-0.067099
C	 0.7158770109	-0.5539415847	 1.2011440853	-0.021883
N	 1.2077667929	-1.6841814065	 0.2856239992	-0.17219
H	 0.687899705	 2.1754419725	 0.2379358044	 0.117901
H	-0.5037124412	 1.9352512674	-1.0476499787	 0.117868
H	-1.010670025	 1.9050989759	 0.6445216578	 0.117352
H	-0.8896940776	-0.440007148	-0.2215172414	 0.08567
H	 1.1299548991	-0.8226423495	-1.8030692688	 0.065798
H	 2.7508293712	 1.1229181965	-0.6887007824	 0.068095
H	 3.6656413081	-1.6168575029	-1.1571098118	 0.097569
H	 4.4961700759	-0.7019296616	 0.1430087359	 0.100152
H	 2.8896788483	-2.3549374416	 1.5411027004	 0.07153
H	 2.6631878647	 0.516045945	 2.0158483947	 0.063287
H	 0.1999922702	-0.8218357013	 2.1247816322	 0.067461
