21
gdb 82373	2.32837	1.90226	1.31501	1.8157	81.04	-0.2555	0.0819	0.3374	1049.2217	0.184672	-387.080141	-387.072318	-387.071374	-387.112029	31.764	
C	-1.0136155557	 1.0483371429	 0.0796494874	-0.385676
C	 0.088163359	-0.0213631373	 0.0060419011	-0.035443
C	 0.7316463148	-0.0769336219	-1.3747658301	-0.025285
C	 1.6375480562	 1.0208554865	-1.8884082916	-0.294294
C	 2.2098994776	-0.3362253137	-1.5504062976	-0.043506
C	 3.1077119944	-0.5411881377	-0.3413912703	-0.262751
C	 2.5173684982	-0.0956325417	 0.9771372581	 0.048977
O	 2.006498271	 1.2431783991	 1.0687914204	-0.262435
C	 1.0789518297	 0.1478870209	 1.140799576	 0.053803
H	-0.5860905253	 2.0469655177	-0.0481938247	 0.132308
H	-1.7589686036	 0.894636597	-0.7071163823	 0.110307
H	-1.5306984442	 1.0198274326	 1.0449700497	 0.107388
H	-0.3834318307	-1.0004502286	 0.1826319758	 0.075587
H	 0.0793972125	-0.5263132435	-2.1192311449	 0.078849
H	 1.5596876413	 1.2910818105	-2.9364353777	 0.099053
H	 1.8678116919	 1.8397340295	-1.2195058098	 0.138139
H	 2.4871056599	-0.95510297	-2.3990956696	 0.080004
H	 3.33892281	-1.6106144147	-0.2398636245	 0.10344
H	 4.0717064982	-0.0363513808	-0.4908222057	 0.111106
H	 3.0878168974	-0.4004770594	 1.8561763703	 0.086227
H	 0.6469293376	 0.0151480428	 2.1349140698	 0.084201
