25
gdb 93673	2.38404	1.35057	1.16143	1.5209	87.93	-0.2349	0.0737	0.3087	1258.1137	0.228089	-389.514428	-389.504236	-389.503292	-389.548724	39.755	
C	-0.6881244165	 1.2728019232	-0.0366279833	-0.426211
C	 0.1347930448	-0.0140660081	-0.0423069156	 0.011732
C	 1.2693988617	-0.0327015225	-1.0740451757	-0.074882
O	 2.2023741833	-1.0098220133	-0.6381901024	-0.306869
C	 1.9288628641	-1.418337945	 0.722093445	 0.388246
C	 1.3302187078	-2.8347017441	 0.688752506	-0.414093
C	 3.271444774	-1.4498743303	 1.4543694289	-0.426405
C	 0.8928044737	-0.3835892493	 1.2600206038	-0.037876
C	 1.5038217952	 0.8271385339	 1.976664662	-0.417931
H	-0.0649504804	 2.1559118614	 0.1336430404	 0.119719
H	-1.194973554	 1.4087344295	-0.9981603059	 0.11497
H	-1.4600063843	 1.250431709	 0.7398800076	 0.115454
H	-0.5435561448	-0.843293084	-0.2754509797	 0.077807
H	 0.9200099739	-0.2916106741	-2.080987077	 0.095894
H	 1.7570936926	 0.9539711859	-1.1378532759	 0.08358
H	 1.9926029	-3.5021056724	 0.1301053583	 0.119356
H	 1.2110207775	-3.2352322326	 1.701291468	 0.106852
H	 0.3518061703	-2.8469995811	 0.2002209561	 0.109907
H	 3.7633108226	-0.4756390323	 1.425673971	 0.116744
H	 3.1473619977	-1.7501872731	 2.500099744	 0.107652
H	 3.9336023833	-2.1738193995	 0.9703025124	 0.11845
H	 0.2136756015	-0.8832443727	 1.9597091102	 0.06522
H	 2.1843899767	 1.3926402548	 1.3315254409	 0.122579
H	 0.7202054801	 1.512276822	 2.3129830688	 0.113329
H	 2.0675025491	 0.5193515348	 2.861282562	 0.116775
