25
gdb 112815	2.30214	1.09801	0.86558	1.6325	89.09	-0.2372	0.0781	0.3153	1508.3335	0.227393	-389.491761	-389.480907	-389.479963	-389.528526	39.611	
C	 0.4060534519	 1.5359864027	 0.0658363325	-0.385926
C	 0.1535332614	 0.0247991325	 0.0724313449	-0.184796
C	 0.5172010888	-0.6123165035	-1.2604819528	 0.141933
O	 1.9256073386	-0.4739568113	-1.5641328234	-0.315283
C	 2.091586691	-1.8982250699	-1.7594567269	 0.158484
C	 3.2157597605	-2.4503427923	-0.9017664167	-0.404706
C	 0.5963546641	-2.1591198043	-1.3983307264	-0.083031
C	 0.2302480264	-3.0372643856	-0.2032327525	-0.188726
C	 0.323881641	-4.5370840636	-0.5079966356	-0.392767
H	 1.4539859609	 1.7442784195	-0.1672552992	 0.137407
H	-0.2112142562	 2.037261578	-0.6881945245	 0.111374
H	 0.1751336546	 1.9815633634	 1.0380098939	 0.107974
H	 0.738259056	-0.4434629113	 0.8720816898	 0.095114
H	-0.9037470734	-0.1817305772	 0.285081088	 0.092255
H	-0.0881500891	-0.1477730948	-2.0542652109	 0.06391
H	 2.3078997316	-2.1122702752	-2.8160654264	 0.069119
H	 3.0282731936	-2.2954042015	 0.1641504182	 0.118098
H	 3.3647638798	-3.5200200676	-1.0826155362	 0.11475
H	 4.1465407165	-1.9328016087	-1.1558363784	 0.12636
H	 0.0333902018	-2.5118167081	-2.2683742088	 0.069838
H	 0.8580480386	-2.798232931	 0.6618838497	 0.100817
H	-0.7978705833	-2.7995346155	 0.0985099181	 0.098408
H	-0.3362428716	-4.8112574739	-1.3384999056	 0.115224
H	 1.3412326545	-4.8300872816	-0.7858661023	 0.120711
H	 0.0328706519	-5.1357037492	 0.3607256616	 0.113458
