19
gdb 104671	2.21206	1.30594	1.14605	3.1254	67.25	-0.2427	0.0362	0.2789	1167.4677	0.157949	-497.258655	-497.248952	-497.248008	-497.292851	36.39	
O	 0.1680323724	 1.2136421551	-0.3393803485	-0.428704
C	 0.0144584635	-0.04316047	 0.3324254515	-0.139309
C	-1.4069230718	-0.5564092132	 0.2163364765	 0.188305
C	-2.4252662466	 0.2528404698	 0.998419826	-0.122718
O	-2.5986408353	 1.5520378451	 0.461625693	-0.432051
C	-1.8607418566	-1.0438448189	-1.1382078353	-0.011969
O	-0.8679150749	-1.0372100149	-2.1449357578	-0.437854
C	-1.65438233	-2.0428690742	-0.0265666562	 0.027431
O	-0.5875255091	-2.9313689569	-0.1426322206	-0.434425
H	 0.0425875557	 1.0299895694	-1.2785941595	 0.297595
H	 0.7365329985	-0.7771258248	-0.0373258334	 0.104196
H	 0.2522887818	 0.151726595	 1.3831712749	 0.117329
H	-3.4083774967	-0.2332450861	 0.9718794935	 0.092889
H	-2.1147386847	 0.2917234752	 2.0566108075	 0.087961
H	-1.7132710092	 1.8742860215	 0.238170546	 0.288441
H	-2.8572623788	-0.7730716722	-1.4774968093	 0.108217
H	-1.2114138655	-1.5064622743	-2.9127373698	 0.302986
H	-2.5161043931	-2.5006856195	 0.4517429626	 0.105234
H	-0.1598286396	-2.7338332961	-0.9873402711	 0.286446
