15
gdb 21266	3.4422	1.90705	1.23869	2.7156	64.07	-0.1859	0.039	0.2249	935.8905	0.12011	-395.980703	-395.972683	-395.971739	-396.013046	28.899	
C	 0.0473948389	 1.3894192195	 0.0057059836	-0.247339
O	 0.0358570955	-0.022742176	-0.0354623093	-0.271048
C	-1.1997888379	-0.589668915	-0.0233354248	 0.230458
C	-2.4632968862	-0.036755364	 0.0244846793	-0.156301
N	-3.323152163	-1.0909489419	 0.0309770717	-0.206653
N	-2.6966130513	-2.291829854	-0.006819639	-0.301359
C	-1.4038346783	-1.9940897907	-0.0441703332	 0.281961
N	-0.4096658835	-2.9642107713	-0.1563267839	-0.594846
H	 1.0935599405	 1.6997684929	-0.005606058	 0.133413
H	-0.4675416824	 1.8166264525	-0.8662462959	 0.119111
H	-0.4342295645	 1.7655970133	 0.9195281314	 0.116633
H	-2.8043456258	 0.9843266831	 0.0526548956	 0.126782
H	-4.325812132	-1.0666897476	 0.0447985154	 0.270096
H	-0.7245314384	-3.8682264531	 0.1708512954	 0.249032
H	 0.4495908883	-2.6907823877	 0.3015784616	 0.250059
