18
gdb 78837	2.71797	1.70762	1.29062	4.081	76.6	-0.2272	0.0253	0.2525	1009.5734	0.14783	-401.907349	-401.899624	-401.89868	-401.939603	29.827	
C	 0.2020183705	 1.5630143004	 0.1319660723	-0.414599
C	 0.1809073766	 0.0468831985	 0.0191878106	 0.030772
C	 0.863940601	-0.6799583113	-1.1470236589	-0.116197
C	 1.2010068907	-1.8670266987	-0.2718434197	-0.106115
C	 2.3204429368	-0.9665253398	-0.6963952248	-0.035441
N	 2.4653184039	-0.4242040116	 0.643695164	-0.027501
C	 3.1912511231	 0.6042552059	 1.1522885929	 0.132741
O	 2.9563432787	 1.171105778	 2.1998856735	-0.339395
C	 1.0814372506	-0.8517223472	 0.9387901646	-0.064622
H	 1.210671234	 1.9692251307	 0.0297094838	 0.12917
H	-0.419126665	 2.0086028999	-0.6528724221	 0.111331
H	-0.1907824058	 1.8908573814	 1.099522875	 0.128807
H	-0.8443495395	-0.3302911948	 0.1024536804	 0.084277
H	 0.5886652708	-0.6811019657	-2.1945835666	 0.093621
H	 1.0479092374	-2.9316598291	-0.3646482785	 0.106227
H	 3.1479987499	-1.1375439629	-1.37101544	 0.116638
H	 4.0808586338	 0.8221080922	 0.5243651943	 0.066624
H	 0.8372679826	-1.058507236	 1.9767241192	 0.103663
