20
gdb 76621	2.44249	1.50323	1.21722	3.0747	74.48	-0.2272	0.0693	0.2965	1107.5987	0.170818	-440.2384	-440.229671	-440.228727	-440.271535	34.334	
C	 0.1178909376	 1.2731551771	-0.8349547897	-0.466577
C	 0.0023438258	-0.0160840434	-0.0469964821	 0.33284
C	 1.1308972909	-0.9874201785	-0.097217987	-0.275686
N	 0.9020586036	-0.1933748857	 1.1229846931	-0.369961
C	-1.3979939368	-0.5411533938	 0.124148387	-0.196527
C	-1.9504043563	-1.0169517527	 1.4618280004	 0.032588
O	-1.2174061455	-0.8452631661	 2.635838016	-0.43873
C	-2.4705111436	 0.2616279985	 0.8515860401	 0.069054
O	-2.0995281556	 1.4285554933	 1.5164025872	-0.431267
H	 1.164954781	 1.571495915	-0.9594112299	 0.102655
H	-0.317336353	 1.1550825669	-1.8331255514	 0.124402
H	-0.4241181049	 2.0697408117	-0.318880852	 0.157196
H	 0.9402576845	-2.0506813231	 0.0128884315	 0.126967
H	 1.9939498925	-0.7389371624	-0.7085602795	 0.11789
H	 1.558957507	 0.5786969356	 1.1880452338	 0.238422
H	-1.7529381967	-1.1023560566	-0.7378916506	 0.091699
H	-2.5737583762	-1.9076905565	 1.4667560544	 0.094588
H	-0.2818372598	-0.7138214501	 2.3601740547	 0.312185
H	-3.4675991624	 0.3049456594	 0.4216854298	 0.091871
H	-1.7575315923	 1.1234780313	 2.3742237242	 0.286392
