24
gdb 120845	4.3636	0.62316	0.58854	2.1163	87.16	-0.2273	0.0858	0.3131	1993.594	0.216129	-405.516844	-405.506015	-405.505071	-405.554178	38.905	
C	 2.9589258337	 0.2623423732	-4.0440932326	-0.381762
C	 2.423839243	-1.0544586637	-3.4762102927	-0.165573
C	 2.2531588049	-1.0246887133	-1.9508632681	-0.196479
C	 1.6820504661	-2.3234113953	-1.4178610494	 0.014827
C	 2.5656822539	-3.4305222425	-0.9590459188	-0.256355
N	 1.7314517262	-2.699790385	-0.0023198824	-0.119916
C	 2.4006019739	-1.8254832924	 0.9610852821	-0.134367
C	 2.3673094552	-2.4913124076	 2.3362530308	-0.060535
O	 2.9899575099	-3.7640344841	 2.3289155427	-0.423142
H	 2.2839704894	 1.0954127091	-3.8178805426	 0.115105
H	 3.9389227725	 0.5081874767	-3.6200285296	 0.114935
H	 3.0707868646	 0.2109815227	-5.1314803851	 0.113609
H	 1.4583174902	-1.2900752578	-3.9426714982	 0.098275
H	 3.0989859248	-1.8766164843	-3.7450647603	 0.101246
H	 3.2199020558	-0.8104757578	-1.4818947591	 0.097832
H	 1.5855151111	-0.1945614267	-1.6795823315	 0.098685
H	 0.7367381741	-2.6019432343	-1.8852409379	 0.086562
H	 2.3005327514	-4.4705153383	-1.1343988618	 0.109962
H	 3.6374371949	-3.2350103753	-0.9405633903	 0.112623
H	 3.4451734555	-1.6091587126	 0.6885513214	 0.091898
H	 1.861316706	-0.8713012887	 1.0120017991	 0.097956
H	 2.9162884402	-1.8790041571	 3.0597849208	 0.101409
H	 1.3226458101	-2.5625917827	 2.6750967087	 0.090872
H	 2.4738057226	-4.3099883422	 1.7258836748	 0.292332
