19
gdb 82192	2.44466	1.84009	1.36482	2.0361	73.24	-0.2494	0.0664	0.3157	1000.9962	0.159542	-423.000194	-422.992211	-422.991267	-423.032248	31.872	
C	-0.1956360885	 1.4634396383	 0.0047797786	-0.489397
C	 0.0145074705	-0.032412233	 0.0061899085	 0.321796
C	-0.7368762837	-0.8782342284	 1.0045453245	-0.336755
C	 0.7676724993	-0.7627493621	 1.1025223777	-0.105339
C	 1.5587218792	-1.8711382655	 0.4385685605	 0.027928
O	 0.7556593298	-2.8558151997	-0.2406320903	-0.26684
C	 1.3684991802	-1.8100116457	-1.0147948675	-0.004804
C	 0.3931375208	-0.6808610508	-1.3470143522	 0.03699
O	-0.7017802044	-1.1070564599	-2.1365438034	-0.434729
H	 0.6920174603	 1.9940808596	-0.359609054	 0.114028
H	-1.0359782069	 1.7344105183	-0.6446546626	 0.131534
H	-0.4177338196	 1.834835067	 1.0102015352	 0.113218
H	-1.3236050711	-0.3406140582	 1.7424901916	 0.107944
H	-1.1457539244	-1.8379120394	 0.7141242557	 0.123965
H	 1.2212625528	-0.2412913315	 1.9378475485	 0.084529
H	 2.458733329	-2.2600631016	 0.9059106366	 0.099312
H	 2.0946325844	-2.1449207877	-1.7515509954	 0.100952
H	 0.9134969109	 0.0686538443	-1.9549718561	 0.085728
H	-1.0768116186	-1.8767217139	-1.6923865459	 0.289937
