16
gdb 51682	3.09816	1.25827	0.92777	2.4255	72.26	-0.2556	-0.0604	0.1952	1195.0727	0.125101	-437.945979	-437.937941	-437.936997	-437.979418	29.233	
O	 0.2930853243	 0.9064141486	-1.5431600368	-0.327181
C	 0.003603134	 1.2157945191	-0.4052787183	 0.151486
N	 0.9011950844	 1.3543103716	 0.6042317045	-0.293355
C	 2.2833420545	 0.9635190149	 0.4563115819	-0.046325
C	 3.1458932877	 1.7529067088	-0.5495689614	-0.274776
C	 4.4467961321	 1.9414932621	 0.1906796883	-0.049918
C	 4.3800330066	 1.5937145143	 1.483992849	-0.180066
C	 3.0138098873	 1.1406064244	 1.8017367845	 0.360108
O	 2.4978389923	 0.9755701271	 2.8845305523	-0.344326
H	-1.0311409534	 1.4395220564	-0.0797729442	 0.083579
H	 0.5753859426	 1.4397629984	 1.5583572193	 0.259405
H	 2.347665509	-0.1032317882	 0.1935900101	 0.127871
H	 3.2682315509	 1.2342165604	-1.5034765306	 0.140861
H	 2.6884178922	 2.722631567	-0.7788856757	 0.141101
H	 5.3290137221	 2.3419115532	-0.297915483	 0.125465
H	 5.1600651333	 1.6793113419	 2.2286517801	 0.126069
