19
gdb 23475	2.78234	1.31277	1.03902	1.2262	79.11	-0.2224	-0.0034	0.219	1194.0591	0.158803	-419.117614	-419.108989	-419.108045	-419.151229	32.578	
C	 0.2033555422	 1.5693903122	-0.2567830814	-0.410379
C	 0.0104931572	 0.0950767185	 0.0624053076	 0.022206
C	 0.6761610185	-0.9734422559	-0.8487088879	-0.193465
N	 1.2752719284	-1.6880410724	 0.3291726711	-0.130006
C	 2.707342147	-1.2938643668	 0.5569294371	-0.280356
C	 2.2463866392	-0.148873919	 1.4358634385	 0.41796
N	 2.7702386347	 0.7648707595	 2.1372772769	-0.240305
O	 4.1724850126	 0.7317008377	 2.0346479576	-0.390806
C	 0.8043700198	-0.5491445132	 1.2344828783	-0.106066
H	 1.2620270694	 1.8188980603	-0.3749002459	 0.12458
H	-0.3132713055	 1.8340741373	-1.1858563318	 0.116035
H	-0.1983370876	 2.2026860004	 0.5412855558	 0.123698
H	-1.0543460865	-0.1189679673	 0.1935892553	 0.084899
H	-0.0074939614	-1.608425862	-1.4189959419	 0.107399
H	 1.4274871971	-0.5694818195	-1.5390007802	 0.097384
H	 3.273191575	-2.0652707746	 1.0911739095	 0.13185
H	 3.2640933544	-1.0221665873	-0.3471848477	 0.123706
H	 4.4371610076	 1.449842712	 2.6195541	 0.308625
H	 0.2439344579	-0.8031261999	 2.1385934991	 0.09304
