21
gdb 36086	3.50095	1.14405	1.07215	0.6379	87.23	-0.258	0.0558	0.3137	1221.4236	0.183678	-349.919196	-349.910998	-349.910054	-349.951957	33.079	
C	-0.0723085107	-1.1988315367	-0.1776964908	-0.462191
C	-0.049333246	-0.0048634497	-0.0386947219	 0.315634
C	 0.0062578894	 1.4453989633	 0.1207056703	-0.470962
C	 1.4211326974	 2.0060409162	 0.0424111656	 0.36361
C	 2.2729220637	 1.9474311303	-1.262392416	-0.249895
C	 3.0565930408	 3.095780773	-0.5643967696	-0.017675
C	 1.6833938261	 3.5428759572	 0.0124833329	-0.273149
C	 3.6869434835	 2.3671266189	 0.6390748286	-0.211571
C	 2.444183416	 1.5379015533	 1.1010200617	-0.24568
H	-0.1051416442	-2.2531371148	-0.2978068943	 0.193461
H	-0.6177265739	 1.9176469768	-0.649458654	 0.124424
H	-0.4401645112	 1.7226899433	 1.0860112432	 0.126418
H	 2.8025193879	 1.0177373376	-1.4895922714	 0.093057
H	 1.7152558781	 2.2881498793	-2.1388038617	 0.091625
H	 3.6910863267	 3.7812588628	-1.1264749194	 0.057761
H	 1.0623421575	 4.0574191339	-0.7257876062	 0.091539
H	 1.6708607383	 4.0875758595	 0.962350029	 0.085323
H	 4.5303955428	 1.734892894	 0.3468307093	 0.095443
H	 4.0391454072	 3.0616654689	 1.4074608312	 0.093722
H	 2.1225276551	 1.7875930518	 2.1173480604	 0.090944
H	 2.6075112854	 0.458127571	 1.0572425031	 0.108163
