14
gdb 133050	5.22633	1.02338	0.8605	4.4528	67.18	-0.2464	-0.052	0.1944	1236.5921	0.101549	-478.015565	-478.008188	-478.007244	-478.047886	26.972	
C	 0.0698098874	 1.3954198417	 0.0069527679	-0.252612
O	-0.0083161278	-0.0216526477	 0.0029692164	-0.263397
C	-1.2385919897	-0.5845883123	 0.0108672237	 0.310275
C	-2.4604269475	 0.0873681823	 0.0227747926	-0.103245
N	-3.6263428048	-0.5701800887	 0.0297683309	-0.30343
C	-3.5449034859	-1.8829219404	 0.0244649329	 0.346765
F	-4.6947052102	-2.5349023209	 0.0326652005	-0.061284
N	-2.4588030658	-2.6412845022	 0.0137610721	-0.297813
C	-1.3057350518	-1.9833684168	 0.0068672426	-0.04551
H	 1.1325072111	 1.6395909254	-0.0006320259	 0.146862
H	-0.4075429764	 1.8261640582	-0.8822365329	 0.133134
H	-0.3934440236	 1.8203535093	 0.9063368945	 0.133136
H	-2.5220899659	 1.1704635834	 0.0268658134	 0.12271
H	-0.3882095091	-2.5660910513	-0.0022342087	 0.134409
