18
gdb 33463	2.81867	1.33956	1.04981	3.385	76.18	-0.2668	0.0245	0.2913	1161.5651	0.148028	-401.931986	-401.923522	-401.922578	-401.965724	31.09	
N	 0.4641623549	-1.1618012765	-0.2884845755	-0.342334
C	 0.254535972	-0.0319355693	-0.1509939157	 0.228875
C	-0.0415756961	 1.3689299676	-0.0031955023	 0.162201
C	 0.1739381313	 2.0028173884	 1.3612351232	-0.293935
C	 1.1178298694	 2.3224876136	 0.24138067	-0.297583
C	-1.1981290168	 1.8405620119	-0.8753562602	 0.062098
C	-2.6358681001	 1.458813376	-0.4538750045	-0.284296
C	-2.8671302779	 2.9811114112	-0.4019644939	-0.068945
O	-1.4713882576	 3.2437686152	-0.6929156305	-0.295863
H	-0.5393036624	 2.7685749432	 1.6413886245	 0.13789
H	 0.5151422066	 1.3603410541	 2.1636611289	 0.13651
H	 2.1160293487	 1.9027866475	 0.2625481351	 0.138607
H	 1.0248708603	 3.2959874612	-0.2250955756	 0.149663
H	-0.9672780639	 1.6173542107	-1.9253777712	 0.095298
H	-3.2169541902	 0.9055865773	-1.1914461184	 0.123758
H	-2.696492932	 0.9530746351	 0.5108385883	 0.123379
H	-3.5187607231	 3.3830257871	-1.1862056038	 0.112916
H	-3.1666756031	 3.4024590559	 0.5636458415	 0.111761
