21
gdb 22076	2.12382	1.38507	1.06525	1.1041	82.83	-0.2271	0.0062	0.2333	1256.5939	0.179872	-420.355344	-420.345047	-420.344103	-420.39009	38.404	
C	 0.2924556844	 1.6604370182	-0.0544664822	-0.382625
C	 0.0371678093	 0.1623511212	 0.0514643115	-0.046249
N	 0.8587400794	-0.6834499715	-0.8723138091	-0.369956
C	 1.3055849857	-1.5900271488	 0.2448870381	 0.234698
C	 0.6239771432	-2.9626794166	 0.2430299124	-0.434324
C	 2.8248849639	-1.7145504566	 0.3346642733	-0.408774
C	 0.6546880899	-0.6047079338	 1.2045207623	 0.371553
N	 0.6975484171	-0.5434809075	 2.4655971008	-0.258146
O	-0.0707549857	 0.5338439257	 2.9548927949	-0.394235
H	 1.3619238193	 1.8726675503	 0.0243948438	 0.120595
H	-0.0576989975	 2.0337129589	-1.0224038162	 0.113319
H	-0.2331775517	 2.1940732214	 0.7415125935	 0.13213
H	-1.0440715971	-0.0327658539	-0.0136139462	 0.087828
H	 0.3096160619	-1.1636754043	-1.5781457723	 0.210842
H	 0.9521950891	-3.5455322796	-0.6256692108	 0.116048
H	 0.8805672574	-3.5257418238	 1.1454589169	 0.131763
H	-0.4656799363	-2.8667951166	 0.2034009153	 0.114506
H	 3.293151712	-0.7284790459	 0.2979603025	 0.121159
H	 3.1160321087	-2.2067923797	 1.267960157	 0.121954
H	 3.2076317853	-2.3057560541	-0.5043542278	 0.111551
H	 0.0707071715	 0.467407057	 3.9052157023	 0.306364
