20
gdb 40293	2.64412	1.55278	1.19011	2.5271	74.82	-0.2493	0.0693	0.3186	1093.1099	0.173225	-440.250228	-440.242122	-440.241178	-440.283269	31.211	
C	-0.0300454815	 1.521296727	-0.0451404851	-0.293217
N	 1.2381679997	 0.7846199797	 0.0683068527	-0.341192
C	-0.0248588367	 0.0343028078	 0.0136877631	 0.348547
C	-0.3893517022	-0.6980714143	 1.2948993978	-0.324315
C	 0.6004732554	-1.8107558023	 1.6706279055	-0.050342
O	 1.0787130217	-2.624274222	 0.6010942361	-0.23852
C	 0.2458585059	-2.8650520786	-0.491418077	 0.017155
O	 0.3505533445	-1.8854053211	-1.4961531401	-0.230693
C	-0.39127364	-0.7002855082	-1.264967122	-0.163933
H	-0.3069234395	 2.0967476519	 0.8342866504	 0.116503
H	-0.279807047	 1.9985057316	-0.9900734665	 0.11042
H	 1.7145464276	 0.7403996114	-0.8293778125	 0.237086
H	-0.4118091661	 0.003828268	 2.1352601296	 0.109101
H	-1.4066194683	-1.0959241835	 1.1989416752	 0.10249
H	 1.5000957825	-1.3553439642	 2.0931927571	 0.128871
H	 0.1480924419	-2.4477279219	 2.4454205658	 0.090657
H	 0.6056855062	-3.7900823082	-0.9488480215	 0.115574
H	-0.8081376633	-2.9889561399	-0.1862057474	 0.074337
H	-1.4705469461	-0.9298709676	-1.2485068324	 0.091908
H	-0.1992168448	-0.0631212559	-2.1344022486	 0.099563
