11
gdb 133440	3.15936	1.48879	1.01194	2.049	58.43	-0.2602	-0.0881	0.1721	1020.2302	0.065349	-529.9484	-529.9415	-529.940556	-529.980259	25.508	
O	-0.0500343802	 1.255278476	 0.1507451318	-0.348926
C	 0.0011289949	-0.0591084045	 0.0643468006	 0.403735
N	 1.1294645444	-0.6791234049	 0.0173808196	-0.395627
C	 1.0395887916	-2.0389911208	-0.0711466382	 0.393894
F	 2.2042924655	-2.6475802995	-0.1178396529	-0.043284
N	 0.0117680139	-2.8030322754	-0.1154654422	-0.170518
O	-1.217886891	-2.1166724018	-0.0635725405	-0.277349
C	-1.3025119413	-0.7528664457	 0.0262430389	 0.366562
N	-2.4021575658	-0.1311377632	 0.0731606434	-0.495563
H	 0.8645456623	 1.5800958401	 0.166872306	 0.321619
H	-3.1904120143	-0.7805014203	 0.0350560236	 0.245456
