13
gdb 132277	2.09963	1.78436	0.97039	5.8801	64.41	-0.2678	-0.0701	0.1977	1103.6934	0.087942	-497.922295	-497.914717	-497.913773	-497.954872	27.425	
C	 0.0591900785	 1.4894332667	 0.013190519	-0.474409
C	-0.0697464733	 0.0038451332	 0.0051236722	 0.436118
C	-1.2240272519	-0.6945697665	-0.1423927771	-0.393736
C	-1.0799430357	-2.1066498492	-0.1143418055	 0.37639
F	-2.1871116363	-2.8122967757	-0.2546820219	-0.046486
N	 0.0146874141	-2.7637719503	 0.0332475549	-0.386558
C	 1.1865119045	-2.0663076394	 0.1816975107	 0.447336
O	 2.2802632716	-2.5137051888	 0.3263276675	-0.319649
O	 1.0943080708	-0.6269380164	 0.1619809832	-0.251061
H	 0.7318340277	 1.8099068458	-0.7888583997	 0.166254
H	-0.9125982921	 1.9671940677	-0.1171700701	 0.145516
H	 0.502643083	 1.8203648038	 0.9578030648	 0.166252
H	-2.1836333507	-0.2182982408	-0.2715410479	 0.134032
