17
gdb 116855	7.06232	0.49476	0.46641	0.9577	77.73	-0.266	-0.031	0.235	2269.5277	0.1331	-458.956188	-458.945582	-458.944637	-458.993973	34.821	
C	 0.0590234928	 1.349366607	 0.0082457225	-0.240601
O	-0.012970833	-0.0824895228	 0.0020493883	-0.217263
C	-1.2629247753	-0.5865858244	 0.0109880578	 0.253538
O	-2.2660161433	 0.0850963266	 0.0231660579	-0.359833
C	-1.2398452946	-2.0282256957	 0.0036385612	-0.061509
C	-1.2910933389	-3.2322987777	-0.0026094695	 0.220183
C	-1.3757952938	-4.68314871	-0.0095723316	-0.343355
C	-2.8215637992	-5.1949556029	 0.0009070944	-0.06496
O	-2.747819962	-6.6087078702	-0.0071022979	-0.413551
H	 1.1220280774	 1.5895500718	 0.0011413062	 0.135322
H	-0.4344575747	 1.764498002	-0.8742542357	 0.142924
H	-0.4208029486	 1.7561532081	 0.9020680269	 0.142979
H	-0.8661432832	-5.0840532804	-0.8942265553	 0.150588
H	-0.8501426165	-5.0934056543	 0.8613370277	 0.150602
H	-3.3366717575	-4.8148906033	 0.8952246845	 0.10617
H	-3.3528608436	-4.8056723939	-0.8798732483	 0.10617
H	-3.643062766	-6.9594016298	-0.0009991789	 0.292596
