19
gdb 46912	2.9429	1.37106	1.04589	2.3822	74.6	-0.2428	-0.0166	0.2262	1144.2517	0.160777	-423.039267	-423.031402	-423.030458	-423.0719	30.522	
O	 0.0034433642	-0.0427323013	 0.0280178987	-0.297896
C	-0.0136122227	 1.1670585642	-0.0117715605	 0.382959
C	-1.3423241179	 1.9215345522	-0.0155060272	-0.289124
C	-1.5470261492	 2.8240825786	 1.2256936397	-0.255758
C	-0.7738638634	 4.1234526431	 1.1280213575	 0.062815
O	-0.0291212759	 4.5601486771	 2.2688179276	-0.256733
C	 0.6962096348	 4.1435020325	 1.1081927749	 0.062821
C	 1.5068698967	 2.8657331021	 1.1844726595	-0.255761
C	 1.2934233034	 1.9575209102	-0.0511155576	-0.289123
H	-1.4057995228	 2.5372167541	-0.922957513	 0.110741
H	-2.1276011551	 1.1640887111	-0.0681369667	 0.123321
H	-2.6146064546	 3.0440466279	 1.3265726575	 0.114134
H	-1.2520668541	 2.292227248	 2.1351223629	 0.126727
H	-1.2916828095	 4.9304809499	 0.6064962834	 0.092978
H	 1.1775751315	 4.9641593597	 0.5731881211	 0.092977
H	 2.5703890134	 3.1147581739	 1.2565900649	 0.114135
H	 1.2511705483	 2.3263442124	 2.1013197467	 0.126727
H	 2.0973747734	 1.2217774251	-0.1252567515	 0.123321
H	 1.3155229194	 2.5744155693	-0.959692978	 0.11074
