21
gdb 68387	2.52419	1.91836	1.42387	1.4701	80.61	-0.2351	0.085	0.3201	1004.073	0.184694	-387.07612	-387.068659	-387.067715	-387.107333	31.529	
C	-0.0222023897	 1.5051596814	 0.0119499479	-0.481763
C	 0.0820958089	-0.0002209085	-0.061721487	 0.412368
C	 0.4763941634	-0.6746678776	-1.3984403464	-0.302202
C	-0.5982390996	-1.6863941921	-0.969471795	 0.101833
C	-0.0461449273	-2.7738056931	-0.0321359298	-0.24145
C	 0.6914007182	-2.1454306778	 1.1526570783	-0.016061
C	 2.0295037933	-1.4570323145	 1.0233721145	-0.312129
C	 0.7687405454	-0.6335421551	 1.1449609751	-0.052487
O	-1.2380741767	-0.6503100477	-0.1755244222	-0.329432
H	 0.9765813931	 1.9542475507	 0.0346199831	 0.120729
H	-0.5674607636	 1.8983839987	-0.8501641664	 0.119027
H	-0.5516109143	 1.8081314799	 0.9215473479	 0.125542
H	 0.1425544804	-0.0694853522	-2.2437248133	 0.103421
H	 1.4996267371	-1.0111008794	-1.5671150668	 0.095773
H	-1.2702798687	-2.0962788999	-1.7284255542	 0.06938
H	-0.89374876	-3.352872524	 0.3495966631	 0.107278
H	 0.5881247424	-3.4699672178	-0.5960955765	 0.095585
H	 0.5029606967	-2.6209873487	 2.1092686773	 0.085873
H	 2.6851153456	-1.4861198898	 1.8877408285	 0.107654
H	 2.5599292988	-1.4910332182	 0.0789727254	 0.111498
H	 0.6050568364	-0.1078883043	 2.0810108266	 0.079563
