20
gdb 12093	3.21605	1.60824	1.41806	1.6192	74.51	-0.2525	0.0895	0.342	998.4647	0.175376	-348.975939	-348.967219	-348.966274	-349.009429	32.779	
C	-1.8314213079	 0.0655053256	 1.8963732795	-0.419494
C	-0.833304242	-0.7131178391	 1.0796075524	 0.08489
O	-0.0877699386	 0.0187118542	 0.1042382853	-0.256753
C	 0.6339051702	-0.5705646604	 1.1925508446	-0.027207
C	 1.3475589309	 0.3651517803	 2.1463654058	 0.319964
C	 1.7204976082	 1.7126584774	 1.5546001177	-0.446917
C	 1.0215364386	 0.2922447654	 3.6242599178	-0.291569
C	 2.3186425382	-0.2764892483	 3.1088599092	-0.309082
H	-1.3957037402	 0.9865914352	 2.287559574	 0.135275
H	-2.697023983	 0.3267556169	 1.2784130118	 0.126517
H	-2.1925977725	-0.5352870914	 2.7381857391	 0.11756
H	-1.2015705533	-1.6732472377	 0.7094804776	 0.083677
H	 1.2297299761	-1.4324732384	 0.8817378336	 0.086505
H	 0.8341132611	 2.2551044365	 1.2150164985	 0.128831
H	 2.2418663311	 2.3271169213	 2.2952925135	 0.106068
H	 2.3811341223	 1.5930962344	 0.6888528895	 0.120637
H	 1.0525336407	 1.2124397571	 4.198894565	 0.110284
H	 0.2598717881	-0.4082233702	 3.948467509	 0.111173
H	 2.4204165345	-1.3575011571	 3.0848484171	 0.108657
H	 3.2410819875	 0.2507668683	 3.3281478489	 0.110983
