18
gdb 33849	4.12893	1.26609	1.13404	2.2479	81.81	-0.2322	0.0383	0.2705	1103.8152	0.148752	-364.744439	-364.736929	-364.735985	-364.776045	30.744	
C	-0.0627403705	-1.1755326259	 0.1608243517	-0.410238
C	-0.0168351376	 0.0238384024	 0.0842093556	 0.279638
C	 0.0172311271	 1.4535142533	-0.0539369906	 0.097656
C	-1.0058317043	 2.1124979596	-0.9978902376	-0.317626
C	-0.318809933	 3.3252986489	-1.6326850912	-0.029954
C	 0.0961219617	 4.5001231455	-0.7872049814	-0.316193
C	 1.0962892552	 3.4098667573	-1.0896798195	-0.026098
C	 1.2813434017	 2.2777039599	-0.1006995515	-0.088708
N	 0.4870593172	 2.2163589797	 1.1241251643	-0.354594
H	-0.0945252674	-2.2334997838	 0.2438401796	 0.189149
H	-1.2726599461	 1.3933502494	-1.7773893844	 0.121888
H	-1.9330294519	 2.3656155462	-0.4699751515	 0.112379
H	-0.5228757354	 3.5155510317	-2.6804613576	 0.092049
H	 0.2376414971	 5.4468367433	-1.2980447172	 0.117976
H	-0.3002965268	 4.6172465039	 0.2169125535	 0.111244
H	 1.939642177	 3.6418872918	-1.7290059489	 0.090059
H	 2.2633826381	 1.8221907572	-0.0260400622	 0.103941
H	-0.0698260523	 3.0551171497	 1.2621170187	 0.227432
