11
gdb 2733	4.81945	2.29446	1.6936	4.1088	52.44	-0.2913	-0.0066	0.2848	688.7236	0.079309	-339.437849	-339.431769	-339.430825	-339.468119	21.266	
N	-0.0187435187	 1.232460383	-0.2297821989	-0.518997
C	-0.0028956671	 0.0082085834	 0.0058986439	 0.451713
O	 1.01582098	-0.859528973	 0.3288965183	-0.240601
C	 0.1024221617	-1.9884547425	 0.4527884336	-0.088466
C	-1.0824102491	-1.0795581003	 0.025938188	-0.286257
C	-2.1792942778	-0.919968067	 0.9627994593	 0.291974
N	-3.0459376909	-0.8156557754	 1.719447639	-0.309189
H	 0.9085152206	 1.6529719469	-0.1582337101	 0.24425
H	 0.3607880932	-2.7878222281	-0.2434466677	 0.140652
H	 0.0628644522	-2.3561964759	 1.479152369	 0.151285
H	-1.4689947341	-1.2978410412	-0.9725545744	 0.163636
