19
gdb 114973	2.92505	1.3579	1.09005	1.1645	76.9	-0.2353	0.006	0.2413	1141.9368	0.160049	-422.981937	-422.973756	-422.972812	-423.014748	31.243	
O	-0.0406618075	 1.4063394635	-0.1362647629	-0.4254
C	 0.0065598368	-0.0017197887	 0.0591839941	-0.074291
C	-1.428861361	-0.520747363	 0.0292534765	-0.049914
C	-2.0871415713	-0.3151437356	-1.3845874571	-0.256195
C	-1.7669739215	-1.6176153278	-2.1173598303	-0.205346
C	-1.5180831576	-2.5621070156	-1.2186318926	 0.198154
C	-0.5614959263	-3.6499774485	-0.8014169143	-0.156102
O	-0.2930013922	-2.8855971732	 0.4173668961	-0.309861
C	-1.492253106	-2.0550246928	 0.1841380478	 0.08797
H	 0.8631220948	 1.7306295728	-0.1822751538	 0.286621
H	 0.5976046279	-0.4953130478	-0.7258390681	 0.091845
H	 0.4677446251	-0.2581083672	 1.0237708076	 0.099204
H	-1.9913333602	-0.0004570291	 0.8103862107	 0.076256
H	-3.1652335831	-0.1272058843	-1.2992396636	 0.105677
H	-1.6574442983	 0.5559515112	-1.8878585779	 0.124927
H	-1.6512328012	-1.6820248463	-3.1929421616	 0.098862
H	-1.0063955814	-4.6238562662	-0.5585626978	 0.108832
H	 0.3327088893	-3.796771535	-1.4161510492	 0.119003
H	-2.2867006265	-2.3840951163	 0.8666198165	 0.079758
