16
gdb 20797	3.1351	1.84315	1.24026	3.8653	67.98	-0.2092	-0.0008	0.2084	975.4717	0.130989	-379.917568	-379.90949	-379.908546	-379.950806	28.896	
C	 0.2053383851	 1.6083304647	-0.2022129921	-0.370484
C	-0.0999515935	 0.1305865026	 0.0981094224	-0.303005
C	 0.5616265641	-0.3716727116	 1.3359702803	 0.390903
C	 0.1003021469	-0.922861923	 2.4981658068	 0.03072
N	-1.2064782946	-1.2714669776	 2.8742834004	-0.610129
C	 1.2906638059	-1.1693291829	 3.2406834386	-0.001412
N	 2.3672265867	-0.7971581269	 2.5937433979	-0.143714
O	 1.9164958044	-0.3002827894	 1.3846648358	-0.222579
H	 1.2813225847	 1.7636234773	-0.3131907608	 0.143217
H	-0.284803807	 1.9217625479	-1.1284976872	 0.115693
H	-0.1453224858	 2.2543973334	 0.6082180549	 0.12066
H	-1.1812779998	-0.0167836238	 0.2003826464	 0.104019
H	 0.2092705493	-0.4853327252	-0.7564087218	 0.129941
H	-1.9107818398	-0.8044185464	 2.3174288631	 0.244207
H	-1.3902546511	-1.0851645245	 3.8523150419	 0.248833
H	 1.3873385644	-1.6054629046	 4.2256427935	 0.12313
