17
gdb 52077	2.78814	0.91385	0.75214	3.6244	70.63	-0.2533	-0.0493	0.204	1470.9389	0.132115	-458.956956	-458.947472	-458.946528	-458.992876	32.526	
O	-0.8360670578	 0.87766373	 0.3771671078	-0.233216
C	 0.1612112227	 0.9621594592	-0.2906719569	 0.155379
C	 1.2518977767	 1.9909808622	-0.0967885496	-0.277711
C	 1.5130533124	 2.7852713977	-1.3916691119	-0.303936
C	 2.6647139162	 3.7528742852	-1.2501026726	 0.31091
C	 2.594569493	 5.1321662663	-1.7873077173	-0.222919
O	 2.4672155854	 4.8947541316	-0.3965290968	-0.259378
C	 4.0460004147	 3.1814170646	-1.1231178787	 0.126237
O	 4.3221650109	 2.0278740265	-1.3335077628	-0.255598
H	 0.3484618444	 0.2539520815	-1.1328173415	 0.074412
H	 0.9755257707	 2.6550340441	 0.7258000513	 0.135814
H	 2.1673639398	 1.4495867063	 0.1758262067	 0.142031
H	 1.7491757035	 2.0944969111	-2.2090660927	 0.130247
H	 0.6130001647	 3.3398688376	-1.6745460253	 0.120405
H	 3.5022336955	 5.6496619397	-2.0962665836	 0.127947
H	 1.6850755199	 5.4272425508	-2.3080332342	 0.134069
H	 4.8048962772	 3.930655086	-0.8074976919	 0.095305
