20
gdb 43739	3.9844	1.05381	1.02654	4.1269	79.15	-0.2435	0.0404	0.2839	1244.8393	0.172483	-403.193421	-403.185005	-403.18406	-403.227492	32.045	
O	 0.3289391722	-0.0209846097	-0.0008888847	-0.366914
C	 0.1451693169	 1.1668263988	 0.010064221	 0.44096
C	-1.0823837106	 2.1091722717	 0.0372197569	-0.490155
C	-0.059807623	 3.2824077209	 0.0210615785	 0.389238
C	-0.0282552148	 4.2280553947	-1.186121891	-0.25554
C	 1.0189550242	 5.2781087513	-0.7812023684	-0.208794
C	 0.7976073884	 5.4848117171	 0.7430228503	-0.205901
C	-0.0076532476	 4.2434892316	 1.2241810835	-0.263505
N	 0.996236133	 2.243214405	 0.0042833365	-0.363397
H	-1.7249006019	 2.0359209811	-0.8425103466	 0.127141
H	-1.6866037557	 2.0270943299	 0.9429401243	 0.127119
H	 0.2009897704	 3.7070113028	-2.1194237308	 0.102145
H	-1.0142586514	 4.6972983262	-1.2948366806	 0.102801
H	 2.024331718	 4.8820211322	-0.9675409106	 0.096981
H	 0.9368326942	 6.2067765045	-1.3514305355	 0.101613
H	 1.748358381	 5.5864112801	 1.2729445265	 0.10272
H	 0.2360953133	 6.4034483205	 0.9344911194	 0.105754
H	-1.0299353755	 4.5328270426	 1.4887472377	 0.107911
H	 0.4260852435	 3.7575070727	 2.1016838252	 0.105675
H	 2.0047057154	 2.2934937561	-0.0106737116	 0.244148
