25
gdb 119072	2.08645	1.09184	0.85253	1.379	88.53	-0.2615	0.0765	0.338	1501.6225	0.22827	-389.480377	-389.469821	-389.468877	-389.515971	39.514	
C	 0.5746900328	 1.4421979615	 0.2596329095	-0.395084
C	 0.1865264	-0.0189536472	 0.0076409373	-0.229881
C	 0.5804766719	-0.5763000767	-1.3736209874	 0.361303
C	 0.006755412	 0.2270103628	-2.5451000941	-0.250323
C	-1.51524033	 0.3129364823	-2.5801442974	-0.084303
O	-1.8807345155	 0.9440307749	-3.8006029627	-0.419553
C	 2.1178515536	-0.8594857423	-1.4696241474	-0.265125
C	 1.8530981835	-2.3562234831	-1.1581122219	-0.212344
C	 0.3450500325	-2.123840252	-1.4388849613	-0.259687
H	 1.6465766882	 1.6060929821	 0.1054133187	 0.118195
H	 0.037817002	 2.1279099297	-0.4031346534	 0.12049
H	 0.342328294	 1.7320580538	 1.2891744276	 0.111092
H	 0.6520717912	-0.6483750296	 0.7772419866	 0.090482
H	-0.895903011	-0.1372692286	 0.1497136937	 0.092253
H	 0.4164364546	 1.2444314465	-2.5505066179	 0.101978
H	 0.330198186	-0.2359271256	-3.4853264706	 0.097855
H	-1.9477606766	-0.6989050807	-2.5122801091	 0.086204
H	-1.89052859	 0.8840080168	-1.7169081474	 0.085639
H	-2.8387148616	 1.0239566235	-3.8212618516	 0.283411
H	 2.499544668	-0.7048391356	-2.4830385962	 0.095306
H	 2.7633974806	-0.3135095402	-0.7760145359	 0.092184
H	 2.3645369882	-3.0882919413	-1.787143452	 0.095664
H	 2.0524920286	-2.6114611092	-0.1140544548	 0.100973
H	-0.3659557812	-2.5419332966	-0.7199689614	 0.088804
H	 0.0527822582	-2.4529829251	-2.4407355607	 0.094469
