18
gdb 97408	2.6324	0.90831	0.72177	3.1126	78.74	-0.2502	-0.0277	0.2225	1572.4855	0.144546	-439.06918	-439.059525	-439.05858	-439.105142	33.555	
C	 0.1224141179	 1.0116670111	 0.5074532152	-0.317222
N	-0.1107120631	-0.1661082421	-0.3024080329	-0.197169
C	-1.0972124432	-0.884144999	-0.0127928315	 0.126257
O	-1.3641736856	-2.0000960723	-0.7432430968	-0.207044
C	-2.4936642178	-2.7283030566	-0.350371671	 0.105636
C	-2.5326119793	-4.1422229503	-0.7740670222	-0.33082
C	-2.3637151076	-3.8185614	 0.7138372605	-0.140134
C	-1.0482662708	-4.0944193413	 1.340797355	 0.159458
O	-0.9113976555	-4.4364061073	 2.4899130038	-0.266782
H	 1.1182156278	 0.9511576123	 0.9601210863	 0.134768
H	 0.1169630448	 1.9009292925	-0.1325352183	 0.132281
H	-0.6163034481	 1.1571823202	 1.3120012133	 0.100506
H	-1.8059755198	-0.7009740202	 0.8083395604	 0.086242
H	-3.4169434969	-2.1534425027	-0.3410594555	 0.119706
H	-3.4717712789	-4.5761293295	-1.0943372951	 0.138638
H	-1.6515227846	-4.5137872005	-1.2867941116	 0.148575
H	-3.2131411409	-3.9682534112	 1.3711324814	 0.114008
H	-0.1750549883	-3.9699420132	 0.664553889	 0.093096
