15
gdb 125314	3.61613	1.15268	0.8788	3.754	73.94	-0.2428	-0.0379	0.2049	1247.1341	0.112746	-453.991956	-453.983723	-453.982779	-454.025052	29.803	
C	-0.0539748692	 1.5733280673	 0.0023829053	-0.50242
C	 0.0004428297	 0.0811159737	-0.0350541058	 0.080206
C	-0.07603418	-0.7741490382	-1.0954181975	-0.08071
N	 0.0244847013	-2.0614060253	-0.6115912914	-0.03002
C	-0.010029046	-3.2223223026	-1.3797473673	 0.188471
O	 0.0774308073	-4.3399541952	-0.9557269401	-0.273493
N	 0.166278731	-2.0786137154	 0.7506998768	-0.349437
C	 0.1507764857	-0.8076176517	 1.0802951049	 0.412049
O	 0.2662713661	-0.3914785056	 2.3503105736	-0.414931
H	 0.8600889334	 1.993410623	 0.4357296533	 0.143333
H	-0.1752443155	 1.9890509826	-1.000936835	 0.12806
H	-0.8883710511	 1.9249883648	 0.6187324778	 0.143335
H	-0.1928600785	-0.5860465741	-2.1517239445	 0.150875
H	-0.1307420797	-2.9644876746	-2.4490760549	 0.091674
H	 0.3536004855	-1.1768769986	 2.9071658848	 0.313008
