15
gdb 64903	2.04871	1.72139	1.11488	6.7891	71.43	-0.2617	-0.0059	0.2558	1078.7538	0.112544	-412.980125	-412.971106	-412.970162	-413.01353	33.207	
N	-0.1141139321	 1.4183842354	 0.0274313707	-0.556785
C	-0.0174373345	-0.0172704953	-0.0053522592	 0.108817
C	-0.4583427857	-0.7536510137	 1.243865794	-0.339677
C	-1.3719274822	-0.7624514504	 0.0254341972	 0.129726
N	-2.550804408	 0.0488432392	-0.0730350562	-0.56462
C	-1.4655773337	-2.013235132	-0.6978196277	 0.306185
N	-1.5612977588	-3.0269710809	-1.244557509	-0.335373
C	 1.0682568794	-0.57981126	-0.7815038323	 0.263346
N	 1.9629567509	-0.9625246717	-1.4065543548	-0.333815
H	 0.6356301342	 1.8153908872	 0.58522846	 0.257645
H	-0.0431653277	 1.8061621293	-0.9085471066	 0.262243
H	 0.0724452248	-1.66082289	 1.505713822	 0.160762
H	-0.7741433228	-0.1275395542	 2.0705516713	 0.140875
H	-3.280361897	-0.3017186991	 0.5389942406	 0.247061
H	-2.3164857769	 0.9988529565	 0.2000662301	 0.253609
