17
gdb 49017	2.70956	1.68348	1.31399	2.1896	72.01	-0.2494	-0.0322	0.2172	988.4603	0.135276	-421.771151	-421.763674	-421.76273	-421.803222	28.854	
O	-0.100553089	 0.0136138534	-0.2749996482	-0.263872
C	 0.0059337242	 1.1692091863	 0.0637032799	 0.063434
C	 1.277794735	 1.936349558	 0.0474100473	 0.22327
C	 1.4667073214	 3.1443332554	 1.0171669762	-0.291884
C	 1.7520418498	 4.1016672093	-0.1780888155	-0.221098
C	 1.5658153151	 2.9225135981	-1.1712025831	-0.113864
C	 2.8106472923	 2.0645943775	-1.4916074953	 0.027985
O	 3.6561753134	 2.0495937963	-0.3358481882	-0.243919
C	 2.5447724802	 1.1502348223	-0.369831326	-0.03132
H	-0.8839809267	 1.7516971552	 0.3982953538	 0.072041
H	 0.5504296665	 3.3856167102	 1.5631858739	 0.106281
H	 2.2836977995	 3.0216744831	 1.7286663441	 0.122986
H	 1.0051076025	 4.888949836	-0.2997715855	 0.104398
H	 2.7465195118	 4.5497953892	-0.1876683571	 0.120164
H	 0.8469969476	 3.0156207195	-1.9852374591	 0.091628
H	 3.287314937	 1.9023327173	-2.451499553	 0.111557
H	 2.7391066094	 0.0931974926	-0.2390927142	 0.122214
