21
gdb 119009	2.9415	1.06736	0.96899	0.9076	75.16	-0.2535	0.0791	0.3326	1337.1141	0.181101	-461.354182	-461.344402	-461.343458	-461.389335	35.01	
C	-0.1313505093	 1.4472341778	-0.7448428501	-0.224839
O	-0.1973786965	 0.0608274593	-0.9827486961	-0.240701
C	 0.8038337779	-0.6653041136	-0.3026507865	-0.087385
C	 0.6425485823	-2.1546787458	-0.6291299021	 0.337001
C	-0.7276410761	-2.6844236226	-0.226141627	-0.434082
C	 1.0174534182	-2.4413654313	-2.0983366554	-0.142874
O	 2.4154070227	-2.690337223	-2.0386181199	-0.241394
C	 2.5848920474	-3.3902760887	-0.8345350641	 0.015711
O	 1.6766757515	-2.8414136252	 0.1024224355	-0.306558
H	-0.2642863957	 1.6833076601	 0.322519441	 0.106948
H	 0.830560305	 1.8716650209	-1.0722292748	 0.107544
H	-0.9374844478	 1.9166446035	-1.3138885134	 0.127322
H	 1.8085100616	-0.3385273269	-0.6146005406	 0.09659
H	 0.7267911199	-0.5218785324	 0.7870944438	 0.093095
H	-1.5133132213	-2.1450196605	-0.7613253576	 0.136194
H	-0.8083376034	-3.751949274	-0.44909061	 0.113837
H	-0.8866020461	-2.5448033389	 0.8471779227	 0.123032
H	 0.4770999524	-3.3220432153	-2.4779045139	 0.090374
H	 0.836022966	-1.591263738	-2.7569781968	 0.130693
H	 2.3740635619	-4.4666961352	-0.9721846533	 0.083573
H	 3.6129679595	-3.2527562001	-0.4844953213	 0.11592
