13
gdb 131109	3.36198	1.14525	1.06732	4.0505	64.54	-0.2856	-0.0465	0.2391	1120.5203	0.089392	-452.734193	-452.72639	-452.725445	-452.767616	27.503	
O	-0.175543333	 1.3696329026	 0.0766267049	-0.393617
C	 0.0113521755	-0.0262040258	-0.0128655819	-0.130101
C	 0.773119756	-0.3959408219	-1.2294742459	 0.266886
N	 1.3650994616	-0.6702978744	-2.1824510729	-0.308325
C	 0.6597759546	-0.6009830981	 1.215273411	 0.454338
C	 0.2923370891	-1.5410380772	 2.1226471582	-0.351228
C	 1.3758050727	-1.5402811789	 3.0441219263	 0.046582
N	 2.3038456566	-0.6754147697	 2.7206159398	-0.122872
O	 1.8520312397	-0.0760864568	 1.5474691929	-0.220556
H	 0.6857630842	 1.7776641724	 0.2307218362	 0.310612
H	-0.9884104336	-0.4621124809	-0.1019425706	 0.16217
H	-0.6039724523	-2.1377597099	 2.1390405799	 0.13808
H	 1.506458229	-2.1395681913	 3.933926112	 0.14803
