18
gdb 75940	2.17293	1.83573	1.07299	2.9077	75.37	-0.2487	0.0027	0.2514	1117.6934	0.147678	-439.106422	-439.097916	-439.096972	-439.139545	32.353	
C	 0.6624197824	 1.3611715663	 0.1290724149	-0.475851
C	 0.1165854787	-0.0158907065	-0.0835987756	 0.28708
C	 0.0350375492	-0.6456828357	-1.2551587074	-0.192541
C	-0.5141451253	-2.0401738231	-1.3141065946	-0.13197
O	-0.1372315321	-2.8417754141	-0.1700569941	-0.240705
C	-0.0039951814	-2.2349828673	 1.0209441151	 0.388437
N	 0.4472844439	-2.8064071167	 2.0585449964	-0.555948
C	-0.4171736119	-0.7728440179	 1.1238872449	-0.02838
O	-0.0030446273	-0.2297561475	 2.3450240841	-0.437724
H	 1.4902452348	 1.33910441	 0.843985282	 0.147961
H	 1.008051176	 1.7982322603	-0.8110236583	 0.116538
H	-0.0978005009	 2.0192112025	 0.5660666613	 0.137556
H	 0.3535288221	-0.1849907854	-2.1846890656	 0.099361
H	-1.6127202043	-2.0440246498	-1.3785794101	 0.125518
H	-0.1337788544	-2.5903999257	-2.1778748982	 0.131754
H	 0.7108508042	-3.7747371567	 1.8822626456	 0.228609
H	-1.5239620931	-0.7531349041	 1.0637039802	 0.102999
H	 0.3346338794	-0.9900063986	 2.8513676794	 0.297305
