19
gdb 78694	5.31565	1.08809	1.08325	1.9137	80.52	-0.2538	0.0938	0.3476	1188.0846	0.159059	-385.78962	-385.782162	-385.781218	-385.821261	30.054	
C	-0.1893064572	 1.600908642	 0.0130084567	-0.42
C	-0.0407638568	 0.087709463	 0.0285290002	-0.012128
C	 1.1634906407	-0.573298335	-0.6811534856	-0.041818
C	 2.1516459451	-0.2464249885	 0.5024592177	-0.181157
C	 0.759861189	-0.5937878575	 1.161273066	-0.03753
C	 1.1034834521	-1.8354528043	 0.2557757478	-0.17668
C	 2.5842325138	-1.7022529574	 0.5693318147	 0.520518
C	 3.7926623706	-2.4486081923	 0.2475684343	-0.304021
O	 3.3009012784	-2.3344688338	 1.6048915324	-0.295725
H	 0.7583476661	 2.1049626137	 0.229234454	 0.114513
H	-0.5383529274	 1.951589827	-0.9646644455	 0.115442
H	-0.9200968045	 1.9302800499	 0.7599392566	 0.116886
H	-1.0008849432	-0.3982939453	-0.1878133748	 0.06445
H	 1.4243741335	-0.5825402809	-1.7409143966	 0.070127
H	 2.7383016339	 0.660305086	 0.6403555886	 0.080389
H	 0.5552764561	-0.626576937	 2.2320060138	 0.080222
H	 0.4855090527	-2.72106729	 0.1098408429	 0.077105
H	 3.7240462327	-3.4462827846	-0.1845304935	 0.114824
H	 4.7270285044	-1.9241583049	 0.0507961604	 0.114584
