20
gdb 116371	3.2	1.12401	0.88842	1.8854	77.22	-0.2343	0.0169	0.2511	1323.1877	0.171558	-440.276439	-440.267396	-440.266452	-440.310909	32.78	
C	-0.0510845464	 1.3828704323	 0.1201567987	-0.242926
O	 0.00294691	-0.0231204995	 0.0220199344	-0.242836
C	 0.6661091054	-0.5177595659	-1.1333156452	 0.100356
C	 1.2029407792	-1.9013094072	-0.7875131233	-0.223278
C	 2.1666599795	-2.4413801726	-1.832211708	-0.076251
O	 1.5983253106	-2.8140437496	-3.0916586684	-0.227496
C	 0.9496502208	-1.9098520146	-3.8780857585	 0.121396
N	 0.1887123968	-0.9383877541	-3.6260772116	-0.251291
C	-0.311599943	-0.5548260405	-2.3196409101	-0.165218
H	 0.9565023766	 1.826987513	 0.1215819625	 0.105779
H	-0.6289803292	 1.8459947138	-0.6922129126	 0.112241
H	-0.5401552393	 1.6183250386	 1.0686919929	 0.128966
H	 1.5144898279	 0.142183151	-1.3847022453	 0.065805
H	 1.742809304	-1.8347857101	 0.1637915069	 0.110918
H	 0.370897887	-2.600077107	-0.6402330441	 0.113661
H	 2.9644295551	-1.7078163441	-2.0172156349	 0.106972
H	 2.6341350946	-3.3608714851	-1.4724157576	 0.120355
H	 1.1351231326	-2.1693126895	-4.9218984245	 0.116393
H	-1.1282372003	-1.2387727215	-2.0459666173	 0.120379
H	-0.7665320219	 0.4347288325	-2.4282333638	 0.106074
