17
gdb 98333	3.50439	0.85032	0.72967	6.3207	71.02	-0.2756	-0.0037	0.272	1517.1324	0.134614	-455.189107	-455.179026	-455.178082	-455.225519	34.421	
C	-0.0367451819	 1.4550786635	 0.1284013295	-0.339711
N	-0.1137836011	 0.0031299969	 0.1461952367	-0.311357
C	-1.267257389	-0.6744460761	-0.0505762485	 0.387612
O	-2.3466168615	-0.1498713028	-0.2820578773	-0.386206
C	-1.180647781	-2.2132382123	-0.0061379885	 0.028811
O	-2.4640537562	-2.7302050365	 0.1600089079	-0.419725
C	-0.5426411965	-2.7274297468	-1.3279397788	-0.348866
C	-0.3919530785	-4.1790284268	-1.3347167543	 0.270854
N	-0.2478635614	-5.3251973174	-1.3314801342	-0.300268
H	 0.7346004795	 1.7944188853	-0.5695784589	 0.136884
H	-1.0070783753	 1.8317728684	-0.1948199718	 0.178548
H	 0.1859165796	 1.8532551742	 1.1239743217	 0.139366
H	 0.7060269775	-0.5172258168	 0.4149591454	 0.257108
H	-0.5483405882	-2.5303605758	 0.834642821	 0.103499
H	-3.0588120235	-1.9886986383	-0.0498617602	 0.298625
H	-1.1859725415	-2.4261410438	-2.1616288433	 0.164901
H	 0.440888639	-2.2712759248	-1.4882946964	 0.139925
