21
gdb 117670	3.03226	0.91827	0.83369	1.6966	74.67	-0.2597	0.0787	0.3384	1459.7096	0.179786	-461.334899	-461.324568	-461.323624	-461.370333	37.895	
C	 0.020593014	 1.7349307514	-0.0182385782	-0.410182
C	 0.0246686377	 0.2045377416	-0.0105498903	 0.307558
O	 0.7501651852	-0.201785084	 1.1460615588	-0.472463
C	-1.3966094533	-0.4001423877	 0.004889357	-0.195577
C	-2.2090874112	-0.0796144516	 1.2538264403	-0.092234
O	-3.4210023695	-0.8189567422	 1.166774709	-0.424102
C	 0.7474198709	-0.3168421153	-1.2534924288	 0.059123
C	 2.2034109541	-0.4722685755	-1.2906545318	-0.191304
O	 1.3440749348	-1.6100184181	-1.0959361028	-0.259613
H	 1.0446451464	 2.1133471206	-0.0736601488	 0.121604
H	-0.5428693743	 2.1209937795	-0.8733201357	 0.11513
H	-0.4331854753	 2.1233646594	 0.8965594115	 0.130691
H	 0.9868424536	-1.1278590214	 0.9932348834	 0.287534
H	-1.9510344448	-0.0685684639	-0.8814845349	 0.098366
H	-1.3109588176	-1.4912041657	-0.0694389002	 0.113682
H	-1.6273171011	-0.3566803701	 2.1435954295	 0.102009
H	-2.4146404569	 1.0003020767	 1.3144580837	 0.082375
H	-3.9243744236	-0.6597117714	 1.970343924	 0.284432
H	 0.2143300928	-0.1831678905	-2.1953486396	 0.094938
H	 2.7255265186	-0.4503354552	-2.245065452	 0.119365
H	 2.7861996194	-0.1871366765	-0.4187273938	 0.128669
