18
gdb 91061	3.95593	1.23707	1.14833	2.9332	78.43	-0.2306	0.0029	0.2335	1102.0536	0.149317	-401.876024	-401.868764	-401.86782	-401.907641	29.568	
O	 0.1840258692	 1.4004838103	 0.0901143234	-0.431148
C	 0.0365666733	-0.004798381	-0.0108007591	 0.12868
C	-1.4596373872	-0.478805482	-0.0852912658	-0.291832
C	-1.3486987444	-1.7805445203	-0.8883455956	-0.037254
C	-2.0832366229	-2.2665109606	-2.1691355979	-0.08614
N	-1.9401152789	-1.2377813313	-3.2172273178	-0.325636
C	-0.7994797895	-2.1819517253	-2.9465862669	-0.190527
C	-0.1373406885	-1.531201802	-1.7598807871	 0.340231
C	 0.6607273385	-0.5812834382	-1.2916901326	-0.292516
H	-0.201165696	 1.7839523112	-0.7066223662	 0.276895
H	 0.5218559203	-0.390888227	 0.8954086153	 0.091532
H	-1.9208933886	-0.5710567525	 0.9013051258	 0.095576
H	-2.0158257841	 0.2686083469	-0.6629161893	 0.108478
H	-1.1941020051	-2.6535473765	-0.2409210493	 0.086113
H	-2.8684428988	-3.0106266635	-2.2256244672	 0.093028
H	-2.416634364	-1.5948447307	-4.0470906766	 0.230275
H	-0.4062275472	-2.8079474993	-3.7365599488	 0.103286
H	 1.561433634	-0.1604893382	-1.7225121945	 0.100959
