18
gdb 59160	2.57551	1.49415	1.32047	3.0856	71.64	-0.2436	-0.0081	0.2355	1052.5716	0.146734	-439.062269	-439.053734	-439.05279	-439.095535	32.403	
C	-0.1218077179	 1.5128371833	 0.2021412868	-0.415731
C	 0.0895405235	 0.0282543072	-0.1044903346	 0.089002
O	 1.0355364632	-0.5560427009	 0.7761114195	-0.428307
C	-1.2500435574	-0.7023866347	-0.1548934842	 0.006199
C	-1.564521924	-2.11884703	 0.086177799	-0.067709
C	-0.7596949582	-2.8032937788	 1.1916624537	-0.360878
C	-1.1707600496	-1.6044028816	 2.0530302758	 0.392851
O	-0.9732715126	-1.2373239702	 3.1720296605	-0.319145
N	-2.0642193121	-1.0222317839	 1.0612543785	-0.202798
H	 0.8398184025	 2.0325510012	 0.2056003323	 0.12934
H	-0.7690573086	 1.9849090733	-0.5428952576	 0.124983
H	-0.5958807598	 1.6362269085	 1.1824231634	 0.14164
H	 0.5293122159	-0.0729225422	-1.1059629515	 0.101412
H	 0.8858334546	-0.2113904688	 1.663885287	 0.300487
H	-1.9017175105	-0.2452499378	-0.9001991514	 0.110211
H	-2.2912236212	-2.6385645112	-0.528423785	 0.112226
H	-1.2451494983	-3.7189835898	 1.5417504476	 0.13585
H	 0.3052559302	-2.9715385235	 1.0467235802	 0.150368
