21
gdb 57919	3.13031	1.17888	0.92484	3.3454	81.5	-0.2264	0.0538	0.2802	1325.5865	0.182656	-420.421086	-420.411115	-420.410171	-420.456473	35.011	
C	-0.077533606	 1.5441334446	-0.1733746248	-0.334972
N	 0.1043050533	 0.1309543235	 0.1008646409	-0.114034
C	 0.5692315551	-0.2169067064	 1.4302251841	-0.33595
C	 0.1088917365	-0.74658573	-0.9627590651	 0.446263
O	 0.082139646	-0.3826527596	-2.1296720676	-0.415423
N	 0.1508415718	-2.0969121726	-0.6263013906	-0.144663
C	-0.7596969357	-2.7890429002	 0.3215072529	-0.169154
C	-0.804999087	-3.9962061491	-0.6480880328	-0.24054
C	-0.0631408239	-3.1083359699	-1.6809161246	-0.152204
H	 0.8650397848	 2.0990560747	-0.0641126201	 0.115579
H	-0.4306346584	 1.6560696095	-1.1970906892	 0.164485
H	-0.8090467395	 1.9753545529	 0.5208357691	 0.113581
H	-0.2481431998	-0.2783378383	 2.162015983	 0.116595
H	 1.0956856942	-1.1710420019	 1.4061422282	 0.148943
H	 1.2741498724	 0.5465602172	 1.7822525162	 0.121362
H	-0.333461574	-2.9755221252	 1.3118027353	 0.105528
H	-1.7202425408	-2.2740399952	 0.4450981667	 0.111342
H	-0.2226968274	-4.8511757013	-0.3012523841	 0.113287
H	-1.7991479443	-4.3364248122	-0.9386203365	 0.11342
H	-0.6877078331	-2.7271956802	-2.4939557212	 0.12593
H	 0.861542096	-3.5105330304	-2.1044146095	 0.110626
