21
gdb 99185	4.79065	0.7036	0.67048	3.6573	79.72	-0.2414	-0.0076	0.2337	1728.7632	0.180576	-424.223855	-424.213839	-424.212895	-424.260553	35.571	
O	 0.0091078428	 1.4442308894	-0.2664855369	-0.394211
C	-0.1025682625	 0.0468601281	-0.2234072456	-0.169913
C	-1.5652914997	-0.3562271837	-0.0525347713	 0.384293
O	-2.4630393693	 0.4470765111	-0.0998052056	-0.283511
C	-1.7990664253	-1.8450396275	 0.1873005135	-0.355358
C	-3.2354591482	-2.2772726389	-0.0597839065	 0.079731
C	-3.7627066789	-2.3713726742	-1.5194285698	-0.217581
C	-4.5474688305	-3.6464702959	-1.1086015966	-0.20862
C	-3.6158974878	-3.7725350466	 0.12781806	-0.245563
H	 0.9356624161	 1.6654973859	-0.3969809441	 0.292506
H	 0.2561593036	-0.4383718761	-1.1492078514	 0.108473
H	 0.4734477953	-0.4051010919	 0.6032588185	 0.103716
H	-1.0985982758	-2.4295488525	-0.4256312471	 0.103906
H	-1.5133875022	-2.0492478094	 1.2308851063	 0.125248
H	-3.9023598971	-1.6378599589	 0.5250324222	 0.092511
H	-4.3232967937	-1.5196006234	-1.9088500828	 0.109741
H	-2.9547731792	-2.6074770058	-2.2214356288	 0.088837
H	-5.5750710065	-3.4116073048	-0.817115506	 0.104516
H	-4.5701470596	-4.4803960941	-1.8138332651	 0.094175
H	-2.7642449959	-4.4299856647	-0.0791929734	 0.092308
H	-4.0591624156	-4.071256256	 1.0813671607	 0.094794
