18
gdb 51043	2.60574	1.26812	1.01415	4.5751	75.34	-0.2498	-0.0379	0.2119	1219.5838	0.145844	-439.075977	-439.066992	-439.066048	-439.110145	32.506	
N	 0.0958959781	 1.3561878972	-0.281870884	-0.44719
C	 0.0483119354	 0.1105569261	-0.0946249241	 0.12814
O	-1.1437615301	-0.5271657812	-0.194496104	-0.232421
C	-1.1657665685	-1.9187747615	 0.0146430595	 0.303508
C	-0.8765297278	-2.4618479482	 1.4594352827	-0.28322
C	-2.1532644166	-3.3363588733	 1.3555062114	-0.221113
C	-2.611775999	-2.4748233416	 0.1495844136	-0.277163
C	-0.3705162308	-2.6780096904	-1.03044111	 0.136761
O	 0.3389954906	-2.1721397767	-1.8585111584	-0.255363
H	 1.0510493798	 1.6871943986	-0.1629695918	 0.229573
H	 0.8844844719	-0.5452587629	 0.16845458	 0.095441
H	 0.0788859832	-2.9621279839	 1.6349137089	 0.113031
H	-0.989689365	-1.6437127249	 2.1742298051	 0.133485
H	-1.9287585096	-4.3674813136	 1.0714406191	 0.115207
H	-2.8097341291	-3.3553297372	 2.2264858512	 0.117636
H	-3.2720088734	-1.6571002197	 0.4435779827	 0.138811
H	-3.0361499026	-2.9820804343	-0.7196683395	 0.116835
H	-0.4913780465	-3.7837548527	-0.9647863222	 0.088041
