18
gdb 23484	3.94302	1.29608	1.14577	1.0439	78.43	-0.2356	0.0174	0.253	1087.3252	0.149515	-401.889632	-401.882484	-401.88154	-401.921059	29.237	
O	-0.1348136829	 1.3373235059	-0.0949985607	-0.396774
N	 0.0192435974	-0.0644317655	-0.0434926696	-0.259846
C	-1.1096352195	-0.644271173	 0.0309647255	 0.44845
C	-2.496332479	-0.031207836	 0.1085586113	-0.328326
C	-3.3672101427	-1.221035803	 0.5028231923	-0.049539
C	-3.3492297003	-2.5021161676	-0.3208815926	-0.062634
C	-2.0840432203	-2.6049746923	-1.1708813469	-0.239528
C	-1.2507255706	-2.1387415129	 0.0809546425	-0.135297
C	-2.524019134	-2.3845131576	 0.9503136781	-0.08205
H	 0.779535803	 1.6388836459	-0.1108686955	 0.304166
H	-2.5172405774	 0.7568455812	 0.8689035717	 0.129089
H	-2.7806621106	 0.4415301449	-0.8385391605	 0.124281
H	-4.297249026	-1.032989424	 1.0274383367	 0.087151
H	-4.2645335897	-3.0600733399	-0.4817158307	 0.083342
H	-1.8562324812	-3.6455111064	-1.4151807993	 0.107738
H	-2.0054907174	-1.9989990735	-2.0802904651	 0.098269
H	-0.3304517349	-2.6794895763	 0.2876491699	 0.083503
H	-2.590407824	-2.8999467298	 1.898788353	 0.088006
