20
gdb 102145	1.87118	1.33071	0.90529	3.1924	82.17	-0.2405	0.0264	0.2669	1363.8931	0.167807	-403.145508	-403.13476	-403.133816	-403.182915	37.8	
C	-0.2939018863	 1.4759252096	 0.1676724204	-0.376659
C	-0.0924322124	-0.0405755591	 0.2018186869	-0.156372
N	 0.8257729239	-0.4707427179	 1.2585383402	-0.060641
C	 0.2485758019	-0.7365173176	 2.5697777044	-0.361484
C	-0.3468861641	-2.0715747514	 2.6952935936	 0.339886
C	-0.8262041205	-3.170061491	 2.7830025017	-0.457298
C	 2.1389075533	-0.7254562053	 0.9342639345	 0.405582
C	 3.0314858246	-1.2857630851	 2.0328413357	-0.511872
O	 2.5697545237	-0.5074928045	-0.1852472081	-0.372953
H	 0.6550595342	 1.9780636332	-0.0382235115	 0.14047
H	-1.0049808825	 1.7469464735	-0.6192825302	 0.118608
H	-0.6866134073	 1.8563867796	 1.1170917586	 0.110188
H	-1.046687396	-0.5573203715	 0.3549336783	 0.108188
H	 0.329107064	-0.3806870502	-0.7448831313	 0.144455
H	 1.0065796717	-0.5990149396	 3.3447819158	 0.148004
H	-0.51849313	 0.0220602797	 2.7670778836	 0.142802
H	-1.2513515826	-4.1402431304	 2.8621475853	 0.2063
H	 2.6051060164	-2.1830054196	 2.491121214	 0.145499
H	 3.9905555442	-1.5299607918	 1.5777428268	 0.148757
H	 3.2001773039	-0.5493951906	 2.8262309614	 0.138542
