20
gdb 113026	4.05496	0.86588	0.81828	4.2638	85.29	-0.2641	-0.0022	0.2619	1477.33	0.171852	-366.047162	-366.03816	-366.037216	-366.081551	33.319	
C	-0.1578520653	 1.5673236993	 0.2016334315	-0.390245
C	-0.0467621329	 0.0479600771	 0.0463283479	-0.18232
C	 0.6700782813	-0.4007730044	-1.2381827206	-0.007648
C	 0.9013374646	-1.9333247205	-1.2992866234	-0.253907
C	 0.7194217032	-2.3400368636	-2.7943552943	-0.194974
C	-0.0658014228	-1.1658671634	-3.3627117411	-0.085287
C	-0.0810085051	-0.1336894147	-2.5246438258	-0.052356
C	 1.9945168985	-2.522464123	-3.4996625602	 0.266188
N	 2.9987556271	-2.6624734483	-4.0554162353	-0.328386
H	 0.8313949143	 2.0380783452	 0.2010778168	 0.119732
H	-0.7396018382	 2.0184308119	-0.6088375251	 0.118782
H	-0.6499892046	 1.8297447512	 1.1429551812	 0.117928
H	 0.4978656755	-0.3624993794	 0.9062298169	 0.101156
H	-1.0467309846	-0.404828969	 0.0717799295	 0.097482
H	 1.6363281727	 0.1253366313	-1.2808617501	 0.092884
H	 1.8693340698	-2.2382323664	-0.8980059774	 0.123456
H	 0.1253528367	-2.437850553	-0.7148479798	 0.111384
H	 0.1705627486	-3.2847510256	-2.8846417754	 0.125825
H	-0.499560829	-1.197085799	-4.3546072411	 0.114186
H	-0.5537801298	 0.8187171842	-2.7368235842	 0.10612
