19
gdb 40184	3.33714	1.492	1.2543	0.4582	75.01	-0.2281	0.081	0.3092	1047.9904	0.159855	-422.980067	-422.972499	-422.971554	-423.011939	30.534	
C	-0.0023869136	 1.4952294616	-0.0249464279	-0.333722
C	 1.3083114384	 0.7292046096	-0.0700002273	-0.317701
C	-0.006996792	 0.0067516562	 0.0607517055	 0.430174
C	-0.3759577366	-0.7079938109	 1.3328868581	-0.147876
O	 0.1865059379	-2.0165464802	 1.3762298385	-0.26083
C	 0.1801594405	-2.7076208553	 0.1618592931	 0.103249
C	-1.0807053109	-3.0358588092	-0.6066743572	-0.346089
C	-0.103615574	-2.0015825217	-1.1340158451	 0.040986
O	-0.5129168301	-0.6576530025	-1.0731721961	-0.295777
H	-0.2455615919	 2.0685423569	 0.8633947534	 0.11497
H	-0.3617272928	 1.9216081826	-0.9546371862	 0.127588
H	 1.8102616119	 0.666107152	-1.0284808508	 0.120221
H	 1.9673932386	 0.7711364705	 0.7904923706	 0.117172
H	 0.0109284118	-0.1840526304	 2.2109451046	 0.10968
H	-1.4727815431	-0.7586928254	 1.4161069613	 0.099883
H	 0.9657320939	-3.4561398102	 0.1693136883	 0.105887
H	-1.1483462392	-4.0030342618	-1.092867796	 0.112457
H	-2.0216744484	-2.6388890869	-0.2423217343	 0.125391
H	 0.4947645897	-2.224016205	-2.0142166826	 0.094337
