21
gdb 72493	2.52354	1.78249	1.46266	2.157	77.02	-0.2385	0.0778	0.3163	1005.4576	0.185103	-424.24012	-424.232459	-424.231515	-424.271638	31.338	
C	-0.0708382516	 1.5020881704	-0.0023317144	-0.474628
C	 0.023268187	-0.0195064816	 0.0002739666	 0.237497
C	 0.8549451171	-0.5997457955	-1.1668761012	-0.085145
O	 1.4133035098	-1.8339549339	-0.6973905102	-0.271544
C	 0.948832005	-2.0477832005	 0.6363809922	 0.081597
C	 0.7821044772	-0.6328656774	 1.1947669008	-0.257568
C	-0.4149886449	-2.75412627	 0.6057099889	-0.081096
O	-1.3336312057	-2.063307926	-0.2261101493	-0.250263
C	-1.3809818374	-0.6630517194	-0.0099452307	-0.101395
H	 0.9216950886	 1.955128606	 0.090101221	 0.118918
H	-0.5246710038	 1.8732719043	-0.9283136619	 0.11856
H	-0.6818432535	 1.8635123759	 0.8320740862	 0.117987
H	 0.2423408112	-0.7885872634	-2.056127214	 0.104765
H	 1.6741257966	 0.0774356362	-1.4448428575	 0.089104
H	 1.6859886846	-2.6634321954	 1.1605142529	 0.075893
H	 1.7543723052	-0.1528543486	 1.3464010084	 0.098661
H	 0.2177380229	-0.5912580696	 2.1309185311	 0.09601
H	-0.3190120588	-3.7542080474	 0.1742333386	 0.114026
H	-0.8021923534	-2.8537709501	 1.6349078323	 0.080032
H	-1.8948367417	-0.4274436697	 0.9384375086	 0.083571
H	-1.9873427544	-0.2609334543	-0.8287322386	 0.105018
