21
gdb 105035	2.2313	1.13593	1.11756	3.1436	79.13	-0.2298	-0.0156	0.2142	1287.1286	0.178748	-424.207369	-424.196873	-424.195929	-424.243855	37.38	
C	 0.8742027429	-0.3320537231	-0.995832046	-0.254628
O	-0.1120169772	 0.0684225917	-0.0726560664	-0.296848
C	-1.3717392211	-0.5548700799	-0.1155685822	 0.438342
C	-1.8737081038	-1.3098226271	-1.3191544585	-0.342482
C	-1.5180621313	-2.0521148893	-0.0397082138	-0.335002
C	-2.3633827414	 0.3037087064	 0.6630060159	-0.112156
C	-1.8839190711	 0.5775026892	 2.1002752109	-0.413973
C	-2.5929754769	 1.618575792	-0.0645023972	 0.161196
O	-3.6752133316	 2.0368863934	-0.3899108732	-0.257642
H	 1.7800646997	 0.2193900361	-0.7334887967	 0.133183
H	 1.0972207093	-1.4068519712	-0.9380725002	 0.112495
H	 0.59954647	-0.0835477471	-2.0298352085	 0.117132
H	-2.9183275491	-1.1956609956	-1.5882899061	 0.128631
H	-1.2156659871	-1.4523673923	-2.1676805558	 0.11929
H	-0.6173462547	-2.6560385019	-0.0570755211	 0.119542
H	-2.3140733209	-2.4616862513	 0.5726687506	 0.119491
H	-3.3274591281	-0.2134597534	 0.687035226	 0.091044
H	-2.6347428631	 1.1463174612	 2.6560653698	 0.124041
H	-1.7081803601	-0.3665622801	 2.6246239005	 0.124033
H	-0.9470725712	 1.1396402238	 2.0987026512	 0.138892
H	-1.6638635634	 2.1918287184	-0.2761361291	 0.085419
