17
gdb 53820	3.29832	1.21008	0.90034	9.081	72.6	-0.2178	-0.0297	0.1881	1245.8662	0.136235	-455.169062	-455.160311	-455.159367	-455.203011	31.598	
O	-0.2264613088	-0.0114941602	 0.1949928705	-0.457997
C	 0.0083595319	 1.1978040055	 0.0624936098	 0.3765
O	 1.0225551438	 1.8896537128	-0.0406409159	-0.445042
C	-1.3480156714	 2.0355250407	 0.0185913865	 0.276882
N	-2.4335074775	 1.2949033132	 0.1289939546	-0.491446
H	-3.3823202937	 1.630466892	 0.1259824263	 0.267288
H	-2.1827189897	 0.3073841977	 0.2242293328	 0.294763
N	-1.3599144997	 3.3343966578	-0.1148532232	-0.063433
C	-0.2710892744	 4.3279629656	-0.2502584814	-0.144438
C	-1.3585237561	 5.4400371878	-0.3295711226	-0.254126
C	-2.4395525447	 4.3330817752	-0.1823570223	-0.19423
H	 0.3898555248	 4.3474491354	 0.6154819864	 0.156347
H	 0.3346627088	 4.1683731408	-1.1415177704	 0.156302
H	-1.3377936237	 6.1582166065	 0.4897089656	 0.129452
H	-1.3935461232	 5.9776978424	-1.2767459402	 0.129457
H	-3.1000699253	 4.1922474046	-1.0447313709	 0.131887
H	-3.043599831	 4.3732050622	 0.7305224944	 0.131835
