19
gdb 51095	4.09147	1.0537	1.00925	4.3081	75.99	-0.2719	0.0072	0.2791	1228.5762	0.160573	-423.043319	-423.035501	-423.034557	-423.076387	30.063	
O	 0.0358506759	-0.0014166351	 0.0651681557	-0.276866
C	 0.0707160196	 1.1846253851	 0.2064082509	 0.145254
O	 1.0773565992	 1.9421545201	-0.2678677223	-0.248326
C	 0.9935211905	 3.3458989618	-0.0994464722	 0.433241
C	 0.6224631963	 4.043617336	 1.2440354692	-0.284305
C	 1.3775689999	 5.224863286	 0.5662446518	-0.027888
C	 2.3130992768	 4.1450669371	-0.0547400261	-0.270172
C	 0.4492353999	 5.5685837749	-0.6200250183	-0.210106
C	 0.1545267395	 4.1221487905	-1.1332381719	-0.263236
H	-0.6992634665	 1.7704265142	 0.7413193452	 0.080926
H	-0.4338934942	 4.1817932288	 1.491030283	 0.097778
H	 1.1668145955	 3.6239151812	 2.0923994395	 0.112537
H	 1.7753663781	 6.050089927	 1.1536788824	 0.074485
H	 3.0202347534	 3.7295468069	 0.6653117335	 0.110903
H	 2.8101410531	 4.3662216496	-1.0028624426	 0.100108
H	-0.4553058458	 6.0931156416	-0.3005642195	 0.103526
H	 0.9496355477	 6.1855369434	-1.3710487143	 0.105695
H	 0.5058016476	 3.9414996712	-2.1521837225	 0.113994
H	-0.9056796464	 3.8568739797	-1.0867080916	 0.102451
