18
gdb 69909	2.68994	1.84097	1.45235	3.2623	75.35	-0.2333	-0.0083	0.225	954.3131	0.148403	-401.909433	-401.90208	-401.901135	-401.940891	29.782	
C	 0.1157542162	 1.4237407509	-0.0557670863	-0.468363
C	-0.0885285427	-0.069547841	-0.043007927	 0.324618
C	-0.6312050365	-0.7815482105	 1.1406767656	-0.298847
N	 0.8065334027	-0.921320268	 0.842383737	-0.153511
C	 1.1710208755	-1.9998930423	-0.1224063576	-0.104763
C	-0.0823911033	-2.3248063238	-0.9940041539	-0.282083
C	-0.0057913011	-0.8194007708	-1.3826212944	-0.208565
C	 1.5364061818	-1.0934361753	-1.3385716144	 0.453282
O	 2.4943251896	-0.8276843458	-1.9901922023	-0.313471
H	 0.9660684959	 1.697674803	-0.6895386155	 0.136571
H	-0.7729417746	 1.9354366887	-0.4420341924	 0.120577
H	 0.3129184959	 1.7936155156	 0.9535574466	 0.131332
H	-0.8024574364	-0.1870456224	 2.0336393142	 0.122973
H	-1.3049465755	-1.6254924571	 1.0502008242	 0.116534
H	 1.8298112674	-2.7589332299	 0.2915887285	 0.095913
H	 0.1657804363	-2.9798057671	-1.8316154774	 0.124436
H	-0.983998125	-2.6888084452	-0.5050648386	 0.115698
H	-0.5090103362	-0.397715959	-2.2494533161	 0.08767
