19
gdb 68353	2.90589	1.77354	1.32585	1.5324	82.03	-0.2197	-0.0432	0.1764	1007.4912	0.160753	-385.885486	-385.878038	-385.877094	-385.916728	30.735	
C	 0.0348087674	 1.5514000906	 0.035622824	-0.472833
C	-0.0081903759	 0.0411523935	-0.0656561871	 0.360225
C	 0.7437411368	-0.6386746993	-1.2411826226	-0.307423
C	 1.3095171253	-1.5625360878	-0.1375075005	 0.050827
O	 0.9319486512	-0.5825004769	 0.8683247139	-0.314048
C	 0.5648889564	-2.8617475968	 0.0413588737	-0.080216
C	-0.7577266787	-2.9356745298	 0.2547165931	-0.072172
C	-1.6941808214	-1.8121963361	 0.3091473274	-0.085995
C	-1.4038021532	-0.5117252792	 0.1517574842	-0.095565
H	 1.0576762052	 1.9154389795	-0.0865867547	 0.119798
H	-0.5970461306	 2.003207289	-0.7373367433	 0.119034
H	-0.3371850288	 1.8793196798	 1.0124531733	 0.129409
H	 0.1545708398	-1.0899660419	-2.039683913	 0.110383
H	 1.512745708	 0.0169681711	-1.6537951158	 0.104984
H	 2.391244313	-1.7236879769	-0.1335376935	 0.073397
H	 1.1483709474	-3.7778113889	 0.0085507905	 0.091483
H	-1.1998279562	-3.9191337718	 0.3924774115	 0.091087
H	-2.7334731579	-2.0797439282	 0.482959708	 0.090945
H	-2.2108735879	 0.2144637201	 0.2071558211	 0.08668
