23
gdb 122073	2.39154	0.75867	0.60008	4.9373	87.44	-0.2361	0.0359	0.272	1901.2947	0.204365	-384.47833	-384.466935	-384.465991	-384.516156	39.66	
C	-0.1636472816	 1.5737334834	 0.0190260045	-0.381904
C	-0.1238808234	 0.0435354918	 0.0056224117	-0.170164
C	-1.5188588252	-0.5928412049	-0.0190796291	-0.173907
C	-1.4703498997	-2.1233531085	-0.0321763755	-0.19371
C	-2.8620563521	-2.8000508965	-0.0174142484	-0.140803
N	-3.708371412	-2.5305359099	-1.1762349366	-0.271743
C	-4.7589436578	-1.5377308565	-1.0011251436	-0.32555
C	-2.6806380937	-4.2622104041	 0.1341531555	 0.29733
N	-2.5141430824	-5.3995852421	 0.2526401218	-0.329203
H	 0.8448866056	 1.9977038931	 0.0365116419	 0.1167
H	-0.673861831	 1.9653183728	-0.86806173	 0.114764
H	-0.6976508757	 1.9486345255	 0.8991884039	 0.11611
H	 0.4463943047	-0.3021907229	-0.8665573452	 0.099311
H	 0.4220096698	-0.3183950524	 0.8865298619	 0.101324
H	-2.0891301773	-0.2516890363	 0.8560771027	 0.097205
H	-2.0634282158	-0.2298641312	-0.8998633321	 0.099236
H	-0.9267092985	-2.4759273454	-0.9188039415	 0.111895
H	-0.9029423824	-2.4856824519	 0.8336542705	 0.119273
H	-3.4020207579	-2.460462483	 0.8758275166	 0.123663
H	-3.1457996309	-2.3449497901	-1.9966863497	 0.225567
H	-5.4697335919	-1.88776418	-0.2448768618	 0.13296
H	-4.4123936849	-0.5352055544	-0.701210574	 0.102453
H	-5.3089784059	-1.4385507667	-1.9412392635	 0.129193
