23
gdb 101870	3.2669	0.66193	0.57855	1.0766	89.4	-0.2539	0.0552	0.3091	1972.526	0.201984	-388.261839	-388.250422	-388.249478	-388.299553	40.553	
C	-0.1584217994	 1.516823226	 0.054678693	-0.385327
C	-0.0632257189	-0.0075824595	-0.0353712256	-0.172736
C	 0.7414051551	-0.4988471298	-1.2405547911	 0.156158
C	 0.9064869213	-2.0208232903	-1.2401616379	-0.40421
O	 0.0544360688	-0.0469065966	-2.4060102982	-0.257203
C	 0.8229096856	-0.0023252081	-3.5854751058	-0.05633
C	-0.0415919214	 0.6587684792	-4.6664092296	-0.348849
C	 0.6500088003	 0.7562439153	-5.9443382891	 0.287822
C	 1.2454956701	 0.8242470468	-6.9860905581	-0.450942
H	 0.833277979	 1.9694977871	 0.1685180276	 0.108515
H	-0.6126146109	 1.9266226236	-0.850653795	 0.129214
H	-0.7641474653	 1.824308681	 0.9124212576	 0.109438
H	 0.3985583283	-0.4118813378	 0.8733362618	 0.093077
H	-1.0683624996	-0.4431438708	-0.0979982983	 0.102899
H	 1.7399329298	-0.0281458508	-1.2165961943	 0.062142
H	-0.0735167688	-2.5082963125	-1.2623283853	 0.122294
H	 1.4804071764	-2.3669941022	-2.1043804824	 0.116972
H	 1.4355102174	-2.3478476548	-0.3394053964	 0.114948
H	 1.7439879574	 0.5820494311	-3.4325415642	 0.098041
H	 1.1224196863	-1.0063266245	-3.9201824597	 0.101391
H	-0.9655609063	 0.0787742213	-4.7765275025	 0.139358
H	-0.3391997707	 1.6542407123	-4.316346884	 0.138007
H	 1.7593847255	 0.8908034738	-7.9126849726	 0.195322
