19
gdb 55936	4.21711	0.92031	0.84193	3.4588	76.79	-0.2385	0.0591	0.2976	1397.6666	0.160587	-419.218279	-419.20954	-419.208596	-419.253181	33.051	
N	-0.0347964361	 1.3913924775	 0.0565115021	-0.568911
C	 0.0760797722	 0.0028696297	 0.007095556	 0.449816
O	 1.1493969261	-0.5700306834	 0.0461330886	-0.393102
N	-1.1340747785	-0.6493546691	-0.0636781253	-0.349298
C	-1.2166074678	-2.0869741255	 0.0331013982	 0.067016
C	-1.5525327868	-2.7889519294	 1.4028896706	-0.260768
C	-2.716566914	-3.5071765601	 0.7112112543	-0.033628
C	-3.6898664147	-2.4920384915	 0.1919864068	-0.286587
C	-2.4332980396	-2.7606957701	-0.597730289	-0.076239
H	 0.8497193627	 1.844492378	-0.1190353939	 0.258356
H	-0.8067661719	 1.8115701362	-0.4403655212	 0.244225
H	-1.9691694155	-0.1237779831	 0.1414242406	 0.234698
H	-0.2776806688	-2.4752722076	-0.3596269587	 0.120447
H	-0.7459748829	-3.4436996508	 1.7376074491	 0.113997
H	-1.8329155307	-2.1250686642	 2.2275299096	 0.092576
H	-2.9833835982	-4.5477747194	 0.8424611729	 0.090404
H	-4.5965053722	-2.8863678118	-0.2554022611	 0.114815
H	-3.8403631193	-1.5561084183	 0.7280526126	 0.094676
H	-2.4822006439	-3.1209710271	-1.6186088423	 0.087508
