19
gdb 35544	2.51645	1.56544	1.42165	1.5188	78.99	-0.2484	0.0375	0.2859	1028.0581	0.160018	-385.849674	-385.841731	-385.840787	-385.882262	31.215	
C	 0.6357005681	-0.9845561312	 0.3105536312	-0.494274
C	 0.2863870806	 0.1602085912	 0.1933698024	 0.365942
C	-0.1717397153	 1.5458923194	 0.0232447127	-0.088111
C	-0.8372518599	 2.1349892561	 1.2955118116	-0.252723
C	 0.3139973999	 2.854032091	 2.0047470974	-0.027077
C	 1.3315949448	 1.9861011838	 2.8069604177	-0.237723
C	 2.4153510438	 2.2463646523	 1.7197991201	-0.237592
C	 1.3818915732	 3.0576250134	 0.8870961394	 0.115771
O	 0.8953510671	 2.4408310572	-0.2972474858	-0.252005
H	 0.9510427048	-1.9937041671	 0.411928246	 0.199929
H	-0.8590186856	 1.5711959181	-0.8297272504	 0.112308
H	-1.6022301479	 2.8546323975	 0.989623825	 0.1076
H	-1.3137189133	 1.3647768195	 1.9056470051	 0.116742
H	-0.0209488792	 3.7542184146	 2.5222684853	 0.070938
H	 1.5716572508	 2.3795789779	 3.7971603565	 0.09808
H	 1.0389723386	 0.9393095873	 2.9135901539	 0.110601
H	 3.2617186285	 2.8463614736	 2.0639034508	 0.096897
H	 2.7957113322	 1.3624031217	 1.2057475938	 0.118761
H	 1.6766298589	 4.0745348837	 0.6170878574	 0.075938
