18
gdb 128653	3.58439	1.14414	0.87859	2.6846	76.96	-0.198	0.045	0.243	1311.0247	0.148109	-435.27742	-435.267957	-435.267013	-435.31178	33.759	
C	-0.1251206462	 1.3984737731	-0.0212017399	-0.228845
O	-0.0421801181	-0.0216672068	 0.0056952945	-0.271013
C	-1.2200799237	-0.6720804905	 0.0188930142	 0.487525
N	-2.387319593	-0.0474698261	 0.0066703329	-0.384734
N	-3.3050988876	-1.065764015	 0.0437006454	-0.014471
C	-4.7146120771	-0.7658680368	 0.0474163687	-0.332715
C	-2.7109947728	-2.2855062331	 0.0448602402	 0.412385
N	-3.4718858461	-3.4574369334	 0.1288241717	-0.608771
C	-1.343255294	-2.0794889401	 0.0375943075	-0.462479
H	 0.9044428828	 1.7600476432	-0.0296602934	 0.120601
H	-0.654873063	 1.745363055	-0.9149188568	 0.127775
H	-0.6519494243	 1.7791402634	 0.860401933	 0.128265
H	-5.1143369697	-0.6340538637	-0.9665085109	 0.126785
H	-5.2511176316	-1.5796466554	 0.54162384	 0.144351
H	-4.8700828431	 0.1599186817	 0.6038055774	 0.152907
H	-4.1346203864	-3.5615595328	-0.6313335923	 0.250777
H	-2.8795417441	-4.2765518311	 0.1602969749	 0.255003
H	-0.5592969619	-2.8175772317	 0.0339539129	 0.096653
