15
gdb 129703	2.36586	1.922	1.06167	1.7653	75.66	-0.1904	-0.0267	0.1637	1050.2122	0.115497	-450.149082	-450.141392	-450.140447	-450.180852	30.247	
N	 0.0052959056	 1.4163154758	 0.141750012	-0.598078
C	-0.014765153	 0.0279491542	 0.0464549395	 0.167193
C	-1.1763789957	-0.6885113697	 0.037612036	 0.338655
O	-2.3912506818	-0.1115756199	 0.0555495702	-0.446464
C	-1.1636671314	-2.1327297146	 0.0026706836	 0.312142
N	-2.3065993024	-2.7381712226	-0.0083284648	-0.620142
N	 0.1031625842	-2.6840480879	-0.0258548579	-0.317023
N	 1.2799673623	-2.0210648838	-0.0222432672	-0.220732
C	 1.2062461737	-0.7243598831	 0.0162695791	-0.025482
H	 0.7760132879	 1.8630920523	-0.3344553664	 0.251177
H	-0.8798114055	 1.846250137	-0.0895007186	 0.265699
H	-3.0089529813	-0.874086717	 0.0329621534	 0.30669
H	-2.2387286054	-3.7518107578	-0.0445954692	 0.205023
H	 0.2014673504	-3.6873049836	-0.0534327987	 0.264608
H	 2.1592136724	-0.2035972593	 0.028464909	 0.116734
