27
gdb 101715	3.55951	0.69813	0.63113	0.1652	96.98	-0.2597	0.0879	0.3476	1936.4736	0.250575	-353.558598	-353.547194	-353.54625	-353.5957	42.11	
C	-0.1054927607	 1.6279152326	 0.0011491094	-0.391545
C	 0.0587994455	 0.1046831966	 0.0153076808	-0.16864
C	 0.7012876424	-0.4692337793	 1.2924755334	 0.048332
C	-0.1583397999	-0.2131362983	 2.5385852718	-0.387136
C	 1.0037471174	-1.9701680294	 1.1025871582	-0.206353
C	 1.827480738	-2.5893908039	 2.2164410434	 0.003559
C	 1.1940380086	-3.3481605903	 3.3623795283	-0.287025
C	 2.0325984585	-4.0840140546	 2.3458706268	-0.010577
C	 1.4121856837	-5.0812602721	 1.3906791691	-0.402243
H	 0.8548473812	 2.1302737361	 0.1650844957	 0.111379
H	-0.4966661563	 1.9692290849	-0.9626173952	 0.110015
H	-0.7970042674	 1.9748232762	 0.7748158467	 0.117531
H	-0.9208685894	-0.3706460309	-0.1354094591	 0.089411
H	 0.672491705	-0.1916026239	-0.8453391725	 0.088745
H	 1.6649386881	 0.044400405	 1.4354495887	 0.064503
H	-0.3189489971	 0.8554023719	 2.7086340279	 0.109802
H	-1.1437480594	-0.6846343382	 2.4338563373	 0.105171
H	 0.3112323981	-0.6239852927	 3.4359580581	 0.122413
H	 0.0547118217	-2.5099966414	 0.9892095956	 0.088252
H	 1.5388115251	-2.0944450522	 0.1506646098	 0.088862
H	 2.6980378114	-1.9924680784	 2.4832272678	 0.075022
H	 1.5799402154	-3.2106601596	 4.3670807644	 0.104235
H	 0.1190969696	-3.4997328528	 3.3208901609	 0.105468
H	 3.0228434888	-4.374440475	 2.6890606795	 0.078117
H	 0.3984500694	-4.7922585398	 1.0994575851	 0.115066
H	 2.004489737	-5.1806707326	 0.4737139159	 0.113974
H	 1.3489732452	-6.0729246182	 1.8525004723	 0.113664
