19
gdb 72728	2.66914	1.9685	1.55149	0.3135	75.23	-0.245	0.0316	0.2767	932.3781	0.158659	-422.892545	-422.885032	-422.884088	-422.923843	31.027	
C	-0.094728823	 1.5298434384	 0.0075651316	-0.437047
C	 0.0245233529	 0.017552474	-0.0443096494	 0.419129
O	 1.1628751756	-0.3076792468	-0.9911807159	-0.367493
C	 2.0269745606	-0.3834856182	 0.2173782135	-0.219375
C	 0.7241696365	-0.779771863	 0.9647920746	 0.312242
C	 0.3945194664	-2.2755810487	 0.7222581372	-0.228239
C	-1.1320226038	-2.1616588232	 0.4826623611	-0.220894
C	-1.2225321824	-0.6605629558	 0.6930847739	-0.031563
O	-0.3868991067	-0.4392910876	 1.9320327778	-0.38301
H	 0.8729006039	 2.0274531291	 0.1098976953	 0.119289
H	-0.5343231554	 1.8649016925	-0.9391463007	 0.126673
H	-0.7419876854	 1.854777767	 0.8237982096	 0.135816
H	 2.7997584308	-1.1485582631	 0.1147181505	 0.122222
H	 2.4644994743	 0.5894096451	 0.4528655752	 0.121965
H	 0.9338378712	-2.6975077711	-0.1258560688	 0.116809
H	 0.6409075448	-2.8432374296	 1.6231203248	 0.107207
H	-1.4435455593	-2.4614299496	-0.5216266093	 0.10934
H	-1.7300562252	-2.7074876103	 1.2150828966	 0.11018
H	-2.1897005557	-0.1600127892	 0.7579664523	 0.086748
