19
gdb 60294	3.59604	0.72768	0.631	3.0682	79.48	-0.24	-0.0158	0.2242	1757.2656	0.157371	-456.370046	-456.35978	-456.358836	-456.406181	36.041	
C	 0.1481902929	 1.5388248168	 0.1194164936	-0.401791
C	-0.1879525569	 0.0466945351	 0.141327015	 0.107877
O	 0.6843738077	-0.6634811923	 1.0206078965	-0.42066
C	-1.6696544088	-0.185931831	 0.4743052739	-0.136018
N	-2.2256789058	-1.5243846603	 0.3764361353	-0.277923
C	-1.4733888534	-2.5364877895	 0.2551695519	 0.110812
N	-2.0550579685	-3.7975204199	 0.1479336996	-0.304471
C	-1.3509301615	-4.9698527139	 0.0123911572	 0.15794
O	-0.1466883499	-5.0562872438	-0.0294489329	-0.295758
H	 1.2145363647	 1.6771914362	-0.075711794	 0.129215
H	-0.4195577872	 2.065661838	-0.6540437671	 0.11946
H	-0.0858623208	 2.0064609255	 1.0840357473	 0.108875
H	 0.0200040051	-0.3809621354	-0.847481621	 0.097625
H	 0.5059101075	-0.365326922	 1.919687993	 0.279839
H	-1.8640890674	 0.1838816336	 1.4943478606	 0.099467
H	-2.2725612333	 0.4586879265	-0.1793128566	 0.111553
H	-0.3850669577	-2.5587933802	 0.2396629392	 0.16825
H	-3.0652577528	-3.8242288606	 0.1693481772	 0.259446
H	-2.028430464	-5.8425970429	-0.0560577387	 0.086262
