18
gdb 53372	4.06441	0.80725	0.73976	1.2453	82.88	-0.2438	0.025	0.2689	1597.7697	0.146444	-401.949739	-401.939953	-401.939009	-401.987209	33.229	
C	-0.0590365355	 1.4525541929	-0.0008085167	-0.497091
C	-0.0196910666	-0.0026751986	 0.0006455773	 0.042391
C	 0.0034888873	-1.2062039303	-0.0096401825	 0.113636
C	 0.0575573368	-2.664574523	 0.0035122874	-0.177348
C	 0.6086924403	-3.2504919246	 1.3448139455	-0.120712
O	-0.418660234	-4.1627854576	 1.7743947021	-0.252327
C	-1.4252079754	-4.0635269137	 0.8604749117	 0.412156
C	-2.6140265869	-4.9149593625	 1.1484002697	-0.471181
N	-1.2811309101	-3.2863012079	-0.1342138264	-0.298566
H	 0.9403618614	 1.8771207414	-0.1470497463	 0.147525
H	-0.6995088366	 1.8290133106	-0.8059175865	 0.152349
H	-0.450510705	 1.8432022493	 0.9448809472	 0.147822
H	 0.6723242931	-3.0003393663	-0.8415240712	 0.111499
H	 1.5399733988	-3.8081429976	 1.2190074162	 0.11914
H	 0.7424174897	-2.4835634369	 2.1111387521	 0.125617
H	-2.3218057602	-5.9684569281	 1.1984334542	 0.145072
H	-3.0409758296	-4.6489380912	 2.1204008242	 0.146333
H	-3.3616548976	-4.7772364658	 0.368395352	 0.153686
