23
gdb 95768	1.96939	1.66856	0.97577	1.4063	89.31	-0.224	0.0284	0.2524	1293.8343	0.205242	-388.31082	-388.300951	-388.300007	-388.345176	37.214	
C	 0.0121170968	 1.5772307623	-0.0844173162	-0.402985
C	 0.0314271598	 0.0437880492	 0.0397941367	-0.075419
C	 0.6790234715	-0.557827784	-1.2102108729	-0.089157
O	 0.8952912109	-1.9457173062	-1.0731863404	-0.245321
C	 1.8386906817	-2.2144199395	-0.0614808356	-0.148762
C	 1.5973126267	-1.4742279817	 1.23643303	 0.163606
C	 2.4030908833	-2.0291033611	 2.3824904679	-0.484404
C	 0.7347797309	-0.4493617643	 1.2991417595	 0.225765
C	 0.3555537481	 0.2579433371	 2.5773147871	-0.491084
H	 1.0286845892	 1.9863426237	-0.072271176	 0.116325
H	-0.4579205603	 1.876934623	-1.0274782026	 0.113382
H	-0.5497068907	 2.0479365325	 0.7258373584	 0.118607
H	-1.0139772825	-0.3002726595	 0.0801534086	 0.082774
H	 0.0332552434	-0.4261815105	-2.0840587033	 0.102069
H	 1.6329756006	-0.03984151	-1.4157449976	 0.079423
H	 1.7921788553	-3.2959388561	 0.1199354577	 0.109166
H	 2.8640306959	-2.0017830739	-0.4232366376	 0.08763
H	 3.4519626624	-2.1546111504	 2.0828341649	 0.122535
H	 2.3932298022	-1.3927030293	 3.2677250917	 0.124131
H	 2.0454170524	-3.0252980814	 2.6755020119	 0.125287
H	 0.6893647267	-0.272909712	 3.4695867139	 0.11927
H	 0.7620677911	 1.2756702061	 2.6221956776	 0.125624
H	-0.7354100355	 0.357203286	 2.6456209164	 0.121534
