16
gdb 124624	4.3497	0.89828	0.88791	1.6781	70.09	-0.2725	-0.0675	0.205	1361.4298	0.121483	-471.135588	-471.126843	-471.125899	-471.170387	30.932	
C	 0.0170773114	 1.5563476919	 0.023943486	-0.368454
C	 0.0190715105	 0.0257887525	-0.0387039872	 0.032544
C	 0.7802119742	-0.4910536216	-1.263433131	-0.368425
N	 0.6791484748	-0.4869183061	 1.1678688916	-0.345671
C	 0.0718716289	-1.2134143862	 1.9688131631	 0.570333
O	-1.2305996651	-1.6827526187	 1.9493217586	-0.236164
N	-1.3987583079	-2.4620476986	 3.0930296706	 0.060333
N	-0.3516662312	-2.4839977749	 3.7452100062	 0.069523
O	 0.6272383005	-1.730178381	 3.1205084498	-0.229519
H	 1.0412152622	 1.9349199394	 0.0954690435	 0.129282
H	-0.4480834303	 1.9736859743	-0.8745230166	 0.11551
H	-0.5391445915	 1.9130285759	 0.8956155973	 0.117696
H	-1.0209414208	-0.3248185669	-0.0978976751	 0.090585
H	 1.8241699493	-0.1653562831	-1.2271899727	 0.129232
H	 0.7659452687	-1.584077555	-1.3021539813	 0.117713
H	 0.3264969362	-0.1089584219	-2.1831645629	 0.115481
