20
gdb 55457	3.24938	1.10816	0.94857	1.3111	76.39	-0.2107	-0.0206	0.1902	1295.2345	0.171538	-440.297416	-440.288494	-440.28755	-440.331446	33.19	
C	-0.1794097388	 1.4409858936	 0.0690573415	-0.483794
C	-0.1188613672	-0.0707945372	 0.0344426238	 0.386703
O	-0.0669044082	-0.7426338242	 1.0407778242	-0.312194
C	-0.0892185326	-0.7355833574	-1.3389159667	-0.077954
C	 1.3847286076	-0.8038336634	-1.8230433487	-0.084367
O	 1.4876903529	-1.5392153488	-3.0244732539	-0.245237
C	 1.026238352	-2.8744716813	-2.8619412431	-0.075178
C	-0.4426312205	-2.8797042378	-2.4370150221	-0.162387
N	-0.7007956864	-2.0558548345	-1.2576778186	-0.301528
H	 0.5277717767	 1.8845445489	-0.639877638	 0.139422
H	-1.1805819484	 1.7660505146	-0.2390827024	 0.152352
H	 0.0209942432	 1.8026033056	 1.0782703827	 0.145022
H	-0.6466561184	-0.1247025947	-2.0621299775	 0.086668
H	 1.7883137737	 0.1915716142	-2.0344508073	 0.10626
H	 1.9948980804	-1.2720727534	-1.0315619834	 0.095079
H	 1.1687004824	-3.369565678	-3.8275443108	 0.106299
H	 1.6425490433	-3.3947386382	-2.1083166622	 0.084272
H	-1.0471830284	-2.4924458728	-3.2682729064	 0.107593
H	-0.7809311631	-3.9013814249	-2.2347310664	 0.104085
H	-0.3799500701	-2.5012397303	-0.4028171847	 0.228884
