14
gdb 130966	7.38058	0.73259	0.66918	5.9776	67.18	-0.2355	-0.018	0.2175	1541.272	0.099358	-469.99127	-469.982804	-469.98186	-470.027132	28.649	
O	 0.2690921765	-0.2033928329	 0.3518497977	-0.246681
C	 0.2954491998	 0.7615536248	-0.3651051851	 0.152652
C	 0.8046376051	 2.1273763157	 0.0700755138	-0.234809
N	 0.6990583221	 3.0675364351	-1.0280943547	-0.42175
C	 1.0751024791	 4.2549849882	-0.8393305568	 0.57625
N	 1.051906809	 5.2918315419	-1.761219093	-0.373313
C	 1.5457814689	 6.4009120134	-1.1431808361	 0.084526
N	 1.8869238613	 6.1939047154	 0.0813119733	-0.119561
O	 1.5921836722	 4.8126085565	 0.3020335362	-0.249728
H	-0.0560403428	 0.7313483314	-1.4210115435	 0.08487
H	 0.2241775653	 2.4366416565	 0.9527877087	 0.140374
H	 1.8391085031	 2.002391665	 0.4251177252	 0.140372
H	 0.7212730852	 5.1962529377	-2.7049186807	 0.29239
H	 1.6453952052	 7.3626350915	-1.6234227352	 0.174408
