17
gdb 98485	2.35313	1.30018	0.95668	2.8347	65.29	-0.2659	-0.0508	0.2152	1229.814	0.133052	-496.079182	-496.069794	-496.06885	-496.1138	33.727	
O	-0.2311861484	 1.5052267766	-0.5103199536	-0.420608
C	-0.3829649735	 0.1485535506	-0.8039119606	-0.134242
C	-1.1061106035	-0.5765581879	 0.3177483873	 0.296158
O	-1.3356747341	 0.0068590407	 1.3621840248	-0.355169
C	-1.468981157	-2.0233144723	 0.1513034833	 0.284016
C	-1.6531892764	-2.8086216067	 1.4411878798	-0.135809
O	-0.5996114342	-2.6219522544	 2.3586726097	-0.418075
C	-2.2069263071	-2.4358801487	-1.06408423	-0.222554
O	-0.8134683238	-2.6741383038	-0.9486680602	-0.250838
H	-0.5050694007	 1.6051006769	 0.4145878073	 0.294737
H	-0.9209585229	 0.0162296786	-1.7531581631	 0.12405
H	 0.5859008779	-0.362729307	-0.935774313	 0.140505
H	-2.6268502913	-2.5400744248	 1.8770211357	 0.108262
H	-1.6754215001	-3.8725510582	 1.1869806913	 0.124982
H	-0.6740858436	-1.7163846034	 2.6821657462	 0.300443
H	-2.8446977564	-3.3168286939	-0.9966600176	 0.133888
H	-2.5082441051	-1.6973634324	-1.8042776574	 0.130253
