17
gdb 5109	3.36767	2.04026	1.29104	1.0461	71.79	-0.1712	0.0636	0.2348	934.9865	0.141658	-363.900932	-363.892266	-363.891322	-363.93413	31.034	
C	 0.0381266573	 1.4384842188	-0.0069952299	-0.347617
N	 0.0375295077	-0.0089259283	-0.011134463	-0.087105
C	 0.0083880922	-0.8285847498	-1.1379823995	 0.277964
C	-0.0259621936	-0.2636944638	-2.5176694039	-0.50101
C	 0.0185737502	-2.1277886291	-0.6985988831	-0.2129
C	 0.054421868	-2.123246033	 0.7306621545	-0.306886
C	 0.0647878761	-0.8033607635	 1.1045480952	 0.351097
O	 0.0954949331	-0.1865267548	 2.3183548283	-0.444346
H	 0.9118365332	 1.8348023338	-0.5355873584	 0.132751
H	-0.8645467031	 1.8357846433	-0.4837370846	 0.132711
H	 0.0684459347	 1.7845625434	 1.0257196061	 0.160143
H	 0.85166184	 0.356308168	-2.7454339889	 0.120089
H	-0.045530725	-1.0811488333	-3.2424166486	 0.131897
H	-0.9123289938	 0.3587352021	-2.7004871684	 0.120082
H	 0.0020114136	-2.9999412434	-1.3349598345	 0.08548
H	 0.0703597732	-2.9757668897	 1.3919687871	 0.081449
H	 0.1144319161	-0.868515751	 2.9956410315	 0.306203
