16
gdb 54629	3.8797	1.3042	1.19988	10.9186	73.03	-0.199	-0.0362	0.1628	1038.9436	0.125868	-437.820896	-437.813722	-437.812778	-437.852958	27.703	
O	 0.4936749274	 0.2815629632	-0.3763518039	-0.420604
C	-0.0770563239	 1.2295579273	 0.1234829865	 0.336203
O	 0.1637121332	 1.9719281704	 1.1271070868	-0.482727
C	-1.4309081099	 1.8023831801	-0.3727048883	 0.086099
C	-2.6845352016	 1.4544945046	-0.0089074116	-0.157236
C	-3.3612649702	 2.7962940638	 0.2067268493	-0.054792
C	-2.9399184644	 3.5939937811	-1.0539641339	-0.2312
C	-1.5336819034	 3.3342416877	-0.4627457432	-0.044033
N	-2.1639739837	 3.5440157772	 0.9380958528	-0.253778
H	-2.3331626548	 4.5104899887	 1.2272445635	 0.277436
H	-1.5801556003	 3.0014508112	 1.6033452909	 0.309327
H	-3.0548815051	 0.504852748	 0.3458386785	 0.126907
H	-4.3272963195	 2.8903305029	 0.6977602027	 0.116037
H	-3.1660980064	 3.1275395551	-2.0096082581	 0.1479
H	-3.2345104847	 4.648415468	-1.0402409059	 0.111371
H	-0.6441891328	 3.9200402607	-0.6709121361	 0.133089
