19
gdb 106901	2.80284	1.29571	1.06881	3.6344	76.57	-0.2367	-0.011	0.2256	1188.5602	0.156997	-423.006147	-422.996889	-422.995945	-423.040316	33.901	
C	 0.1965111247	 1.3106956251	-0.2258874587	-0.259798
O	-0.1723112826	-0.0158178063	 0.122407607	-0.282636
C	 0.556513619	-0.5393729078	 1.1618514514	 0.445129
C	 1.9269835243	-1.0950896634	 0.9848500698	-0.346611
C	 0.7874107495	-2.0431402136	 1.3948702871	-0.281484
C	 0.4948481222	-1.8313180518	 2.8503269277	 0.428026
O	 0.3885258926	-2.5556854484	 3.7996659467	-0.3219
C	 0.2293283957	-0.3099424225	 2.658270715	-0.187097
C	 0.9744520203	 0.7080135247	 3.5121318654	-0.424641
H	 1.2593229621	 1.3725903727	-0.4962063727	 0.115188
H	-0.4122434346	 1.5913721569	-1.0876137333	 0.134188
H	-0.0000716806	 2.0142077647	 0.5944407484	 0.117991
H	 2.230807905	-1.2367697638	-0.0476024546	 0.130556
H	 2.7417261715	-0.8795571597	 1.6692610039	 0.124223
H	 0.5337697171	-2.8989305143	 0.7821729924	 0.118728
H	-0.8560504649	-0.1762784894	 2.7559528815	 0.111384
H	 2.0558229483	 0.6599180001	 3.351203059	 0.119595
H	 0.6475705082	 1.7307158059	 3.2989342254	 0.11969
H	 0.7881886422	 0.5105932611	 4.5725568186	 0.139471
