19
gdb 4828	4.49296	1.30221	1.08689	1.8294	80.42	-0.1854	0.0481	0.2334	1153.5979	0.166059	-327.980814	-327.972178	-327.971234	-328.014331	31.595	
C	-0.2651843109	 1.5378776038	 0.1717959963	-0.36371
C	 0.1155726333	 0.0570195269	-0.0119246395	-0.300787
C	 0.8762686099	-0.5229728041	 1.1385218879	 0.301912
C	 2.1927835132	-0.9070329289	 1.2563978988	-0.22615
C	 2.3964217386	-1.3705144643	 2.5881263103	-0.21489
C	 1.2005020496	-1.2620405587	 3.260333063	 0.297346
C	 0.8252298144	-1.6016503095	 4.6648475541	-0.504735
N	 0.2881223255	-0.7442014323	 2.3667230742	-0.337767
H	 0.629286247	 2.1533721166	 0.3055741354	 0.125212
H	-0.8153334692	 1.9126809847	-0.6974223316	 0.110239
H	-0.8984901242	 1.6815730242	 1.0539025521	 0.106194
H	-0.7967799884	-0.5273541398	-0.1985896243	 0.098067
H	 0.7315845201	-0.0506463114	-0.9104016122	 0.113681
H	 2.9286911541	-0.8595480503	 0.4674344742	 0.083348
H	 3.3163326851	-1.747237531	 3.010066294	 0.083312
H	 0.4688524836	-0.7271843046	 5.2247180904	 0.12221
H	 0.0350144247	-2.3621522102	 4.7136364343	 0.122087
H	 1.6946163717	-1.9980104897	 5.1945523988	 0.136053
H	-0.6786660281	-0.5646429316	 2.5779714737	 0.248377
