14
gdb 15312	4.44075	1.25015	1.04609	1.8825	64.79	-0.2629	0.0053	0.2682	1063.943	0.107263	-378.744226	-378.736393	-378.735449	-378.778194	27.268	
O	-0.0540480821	-0.0158569963	-0.3788356567	-0.316436
C	 0.0062583452	 1.1697800385	-0.138270843	 0.15412
N	 1.1657336559	 1.8742846396	 0.0068088512	-0.299314
C	 2.4368357843	 1.226807357	-0.0303073354	 0.080534
C	 3.5139304811	 1.6700293003	-0.9722499875	-0.300083
C	 3.6549368129	 1.954851784	 0.5233309332	-0.212699
C	 3.4773249588	 3.3005737716	 0.985456525	 0.284557
N	 3.2695124602	 4.382165887	 1.3424736579	-0.338551
H	-0.8831814017	 1.8152356558	-0.0099297336	 0.089067
H	 1.1189300668	 2.8444039174	 0.283995807	 0.269804
H	 2.3545479317	 0.1691896745	 0.1885764573	 0.151225
H	 4.1783575448	 0.9248710301	-1.3936889236	 0.143425
H	 3.3050803381	 2.5202986285	-1.610681928	 0.147598
H	 4.3701270841	 1.3694643619	 1.0898140963	 0.14675
