21
gdb 86664	2.51515	1.17232	1.01886	3.2597	79.68	-0.2422	-0.023	0.2192	1268.981	0.179484	-424.229135	-424.218998	-424.218054	-424.264143	37.47	
C	-0.0959142793	 1.4857453809	 0.0087097987	-0.436827
C	-0.0293780034	-0.0449877159	-0.0246209615	 0.266784
C	-1.4050711601	-0.6388696262	-0.3066652116	-0.454534
C	 1.1417538693	-0.5605669905	-0.9133093501	 0.116879
O	 1.5253277346	 0.3189250452	-1.9426336294	-0.430363
C	 2.0311575059	-0.6892650055	 0.3469676666	-0.314524
C	 0.7373232712	-0.6794393244	 1.2106960688	-0.09581
C	 0.7681988745	 0.0792771953	 2.506228528	 0.154102
O	 0.2550948335	-0.2913164847	 3.5326095329	-0.258853
H	 0.8747758215	 1.9469266657	 0.2070341823	 0.120188
H	-0.4376107769	 1.8618479181	-0.9593273892	 0.130931
H	-0.8006483798	 1.8248407578	 0.7753431952	 0.117207
H	-1.7930389312	-0.2763749839	-1.2655521208	 0.122408
H	-1.3681446846	-1.7324531562	-0.3483475	 0.111582
H	-2.1227495003	-0.3575094601	 0.4718750266	 0.124393
H	 0.896097363	-1.5543912801	-1.315192743	 0.067086
H	 2.2021625279	-0.1083572307	-2.4764799938	 0.28663
H	 2.6878611692	-1.5572155944	 0.4372911223	 0.104553
H	 2.6184736247	 0.2220925994	 0.4975577641	 0.112592
H	 0.3613976633	-1.6850061094	 1.4142081399	 0.087045
H	 1.320320647	 1.0468532895	 2.464503464	 0.068534
