14
gdb 16042	3.58547	1.79429	1.48201	3.6838	63.99	-0.2402	-0.0098	0.2304	854.507	0.108028	-378.674517	-378.667371	-378.666427	-378.705803	26.513	
N	-0.0816092492	 1.4950742205	 0.0314872562	-0.519965
C	-0.0769279917	 0.0634429014	 0.0001716151	-0.043994
C	-1.3286923925	-0.7688294554	 0.0673012106	-0.182162
C	-2.4152282759	-0.1499916979	-0.801540804	-0.109996
O	-1.5062255161	-0.0357403467	-1.9378457786	-0.321615
C	-0.4908187325	-0.7474935296	-1.2207228154	 0.307018
C	 0.2807901839	-1.7391400483	-1.8904027207	 0.21356
N	 0.9399178675	-2.5375374625	-2.4092343016	-0.346376
H	 0.8551191618	 1.8418038485	-0.1523742301	 0.243841
H	-0.6674425223	 1.8468629724	-0.7218213366	 0.250751
H	 0.7454188615	-0.3810452199	 0.5531159324	 0.124927
H	-1.4686252694	-1.5728798397	 0.7768657156	 0.125995
H	-3.2301582702	-0.8394578579	-1.0407884773	 0.132666
H	-2.819546665	 0.8193319451	-0.4925110656	 0.125348
