16
gdb 37115	3.14633	1.82957	1.79351	1.0028	70.97	-0.2386	0.0098	0.2484	842.1566	0.1262	-400.661562	-400.655304	-400.65436	-400.691825	26.221	
C	-0.0530075563	 1.5778241791	 0.0223167146	-0.326443
C	 1.4124020343	 2.002822052	 0.0765223256	-0.053328
C	 2.2705941346	 0.9816707959	-0.0367617622	-0.123226
C	 1.5280250971	-0.3040273063	-0.1290155135	 0.136636
N	 0.6902328179	-0.6293315938	 1.0382462461	-0.366177
C	 0.0514813557	 0.0649941676	-0.0791146983	 0.169207
C	-0.1930363716	-0.8618786974	-1.2630446318	-0.054457
O	 0.6361945079	-0.4476159413	-2.3573524256	-0.226748
C	 1.241739831	-1.2214845895	-1.3125406075	-0.048291
H	-0.6064862495	 1.9066396427	 0.9088329569	 0.122353
H	-0.5590674144	 2.000526996	-0.8537453386	 0.122378
H	 1.701458453	 3.0381131353	 0.2294981196	 0.098332
H	 3.350395651	 1.0645651826	-0.0294060185	 0.103165
H	 0.436626887	-1.6154041237	 1.0467040113	 0.232291
H	-1.0697877517	-1.4498660134	-1.5107376595	 0.106721
H	 1.7208299141	-2.148349036	-1.6059417085	 0.107588
