15
gdb 31334	2.67751	1.2703	0.87772	4.4031	73.29	-0.2424	-0.0574	0.185	1238.7443	0.112089	-457.79259	-457.784282	-457.783338	-457.826429	29.402	
O	 0.0061604967	 1.3517471847	 0.488263151	-0.413467
C	 0.01314539	 0.0742722707	-0.1301320823	-0.204347
C	-1.3717672115	-0.4899019051	-0.0423406703	 0.203431
C	-1.7549223591	-1.8097231998	 0.0592825507	 0.163262
O	-3.1200813885	-1.8949522835	 0.065220343	-0.157208
C	-3.5923322495	-0.6385086228	-0.0248705148	 0.003217
C	-2.5769183776	 0.2683003275	-0.0971504316	-0.255688
C	-0.9853248738	-3.0353931314	 0.1645008292	 0.069194
O	-1.4450294386	-4.1543055329	 0.2308330422	-0.282377
H	 0.8614492765	 1.7629022196	 0.3314392197	 0.294717
H	 0.3040595833	 0.1540940286	-1.1905799218	 0.113566
H	 0.7344704022	-0.6034144811	 0.3494275133	 0.108526
H	-4.6663611621	-0.5403687681	-0.022137385	 0.150735
H	-2.6593347096	 1.340532386	-0.1616616842	 0.136398
H	 0.1122312117	-2.8561746925	 0.1826191511	 0.070039
