22
gdb 88372	2.08019	1.47332	1.14262	1.1616	88.47	-0.2191	0.0521	0.2712	1222.074	0.190311	-367.145783	-367.13522	-367.134275	-367.181013	39.985	
C	-0.8039956629	 1.5651536097	-0.2478056428	-0.425345
C	-0.4793270737	 0.125531053	 0.0967533382	 0.039698
C	 0.8036857871	-0.511248228	-0.3346285987	-0.262997
N	 0.5066293048	-0.3145484728	 1.075369126	-0.098465
C	 1.307371962	 0.5440392738	 1.9787340571	 0.069964
C	 2.1588474695	-0.4355649062	 2.8210647969	-0.380776
C	 2.2587718473	 1.5700383104	 1.3159996326	-0.426924
C	 0.3770977293	 1.2529623456	 2.8693172101	 0.391211
C	-0.3587249088	 1.8401648682	 3.6167357611	-0.509689
H	 0.0817876873	 2.1521239044	-0.4981480595	 0.119433
H	-1.4674660608	 1.5839083474	-1.119403599	 0.117781
H	-1.3209136567	 2.0620531754	 0.5780702082	 0.137161
H	-1.3670563434	-0.5073853604	 0.1181054702	 0.088126
H	 0.8462165991	-1.5447184386	-0.6729843681	 0.109333
H	 1.5196502136	 0.1473612956	-0.823839435	 0.106336
H	 2.8381167347	-0.9856567416	 2.1621590626	 0.112921
H	 2.7510423833	 0.1029037173	 3.5660363805	 0.114465
H	 1.5098852002	-1.1519642437	 3.3268170784	 0.131446
H	 1.7232957105	 2.3288528428	 0.7445447138	 0.12649
H	 2.8307148073	 2.0837278552	 2.0935454892	 0.126953
H	 2.9690729726	 1.0618848423	 0.6571933766	 0.117491
H	-1.0145434123	 2.35330994	 4.2757559016	 0.195387
