21
gdb 82791	2.47469	1.9501	1.59491	0.1955	85.54	-0.226	0.0206	0.2465	966.7087	0.185552	-349.942672	-349.935507	-349.934563	-349.973782	30.215	
C	-0.2870663527	 1.5708307136	 0.0609961405	-0.413354
C	 0.0145391599	 0.0819395709	-0.0159566071	 0.033775
C	 0.7307639278	-0.5230702653	-1.2615136728	-0.042928
C	 1.9613336737	 0.2323200464	-1.8363140919	-0.242211
C	 2.8945570413	-0.4499386172	-0.7673451962	-0.06315
C	 3.2084668571	 0.4106877817	 0.4286035189	-0.080162
C	 2.2389226338	 0.3597010021	 1.3447426771	-0.075433
C	 1.1152578348	-0.5550479328	 0.9295083767	-0.094902
C	 1.6800502243	-1.319935252	-0.309561764	-0.037043
H	 0.6224692779	 2.1733530495	-0.0194080032	 0.119352
H	-0.964824024	 1.875199432	-0.7448199872	 0.109948
H	-0.7682909104	 1.8255832602	 1.0123432093	 0.109034
H	-0.9168556241	-0.4775760727	 0.1285500444	 0.069491
H	 0.078735047	-0.997017018	-1.997483149	 0.057578
H	 2.1901228378	-0.0996730087	-2.8531380152	 0.096064
H	 1.9370189921	 1.3253370683	-1.8299339256	 0.094238
H	 3.7627148349	-0.9611748391	-1.1905012768	 0.063706
H	 4.0936692237	 1.0355147748	 0.4872811512	 0.088689
H	 2.2180203025	 0.937706129	 2.2626678505	 0.08882
H	 0.6999113775	-1.1396835576	 1.7545569654	 0.061264
H	 1.7664746649	-2.4058099951	-0.2835742448	 0.057226
