15
gdb 9561	4.26867	1.31883	1.24274	3.7984	73.56	-0.2646	0.0058	0.2705	1002.1336	0.117116	-325.500341	-325.492093	-325.491149	-325.532714	30.292	
C	-0.0571070951	 1.5407796054	-0.0780538061	-0.457001
C	 0.0151888144	 0.0246340238	-0.0207702188	 0.145861
C	 1.3394218082	-0.6773015212	-0.2394018545	-0.306235
C	 0.7419393671	-0.6743377987	 1.1503147788	-0.236217
C	 1.3188720427	 0.1056180648	 2.2036381316	 0.316858
C	 1.8023577905	 0.7496175573	 3.0969234939	-0.422472
C	-1.163488981	-0.657125823	-0.497021932	 0.247721
N	-2.1134259704	-1.197264447	-0.8772353601	-0.342888
H	 0.8492089538	 1.9769701952	 0.3464467695	 0.140009
H	-0.1604298165	 1.8790090274	-1.1129255338	 0.138965
H	-0.9130595885	 1.9113324463	 0.4925747784	 0.144809
H	 1.3418647938	-1.6156531445	-0.780460861	 0.144787
H	 2.1964918492	-0.0377025643	-0.4142549683	 0.139462
H	 0.289827937	-1.6089197488	 1.4675309218	 0.14135
H	 2.2292205648	 1.3142892873	 3.8885062206	 0.204992
