20
gdb 109999	1.97255	1.38003	0.86972	3.9173	77.85	-0.2398	0.0222	0.2621	1343.3076	0.169689	-440.295005	-440.285159	-440.284215	-440.330385	35.061	
C	-0.4103564235	 1.3936334109	 0.1415342129	-0.398988
C	-0.0602460322	-0.0954838738	 0.0890946888	-0.161435
C	 0.6224929689	-0.5004923245	-1.2148905509	 0.004141
C	 0.8276222285	-2.0326515787	-1.443473681	 0.07699
O	 0.4884880063	-2.8034851684	-0.3203736306	-0.421313
C	-0.2070174909	-1.9508734663	-2.606306564	-0.202713
N	-0.2444229815	-0.498576046	-2.4130044973	-0.049108
C	-0.4472633042	 0.4377142047	-3.3710492917	 0.123836
O	-0.9141702443	 0.2071654329	-4.4681597002	-0.331588
H	 0.4823858048	 2.0199824876	 0.0321417713	 0.113218
H	-1.1101430692	 1.6649770935	-0.6554841141	 0.126702
H	-0.8811801705	 1.6497213636	 1.0951440505	 0.119678
H	 0.6149232316	-0.3556011008	 0.9123971143	 0.110123
H	-0.9601753816	-0.702628613	 0.2259790871	 0.113038
H	 1.536130383	 0.0904323717	-1.3570479963	 0.086313
H	 1.8379715812	-2.2659240425	-1.8005114498	 0.083338
H	 0.6467419556	-3.7300838047	-0.5250214392	 0.292968
H	 0.1328311383	-2.2465553715	-3.6030263635	 0.126238
H	-1.1563307724	-2.4479533954	-2.3795110914	 0.118564
H	-0.144238918	 1.4506232505	-3.0362496051	 0.069998
