12
gdb 43432	3.33542	1.29216	0.93135	3.4515	72.76	-0.2895	-0.1171	0.1725	1125.952	0.079266	-431.732838	-431.725536	-431.724592	-431.764892	26.72	
N	-0.133889977	 1.2987928519	 0.0109135618	-0.502943
C	-0.0158011705	 0.0363409658	 0.003637239	 0.339295
N	 1.1081454357	-0.7837255778	-0.0077826363	-0.412339
C	 0.778687443	-2.1413660493	-0.0126726463	 0.450106
O	 1.5538981674	-3.0638490005	-0.0224117244	-0.33758
C	-0.715904817	-2.1719365587	-0.0032701728	-0.353421
C	-1.1741403139	-0.9086646441	 0.0062140341	 0.189249
C	-2.5227182835	-0.4685543152	 0.0171373186	 0.271658
N	-3.6293517282	-0.1314684375	 0.0259735747	-0.316909
H	 0.7692478595	 1.7755189145	 0.0075904982	 0.233671
H	 2.0613466383	-0.457947992	-0.0121928025	 0.274158
H	-1.2818166238	-3.0911706169	-0.0043977741	 0.165055
