17
gdb 14139	4.26546	1.62365	1.42332	1.4905	69.56	-0.2268	0.0231	0.2499	920.7621	0.14301	-363.866516	-363.859148	-363.858204	-363.898236	27.636	
C	-0.1281430925	 1.5008811347	 0.0390527684	-0.412968
C	 0.0044632543	-0.0046853922	 0.0686593101	-0.042634
C	 1.3163804093	-0.6779829735	-0.2644641015	-0.343391
C	 0.7945746636	-0.7048933942	 1.1486521093	 0.324741
C	 1.4756500832	 0.0102121585	 2.3237092943	-0.177117
O	 1.272989099	-0.9022107331	 3.4306766634	-0.226028
C	 0.59422126	-1.9543905135	 2.9084184465	 0.103007
N	 0.2839636158	-1.9547444351	 1.6792972323	-0.296982
H	 0.7986915769	 1.9968684332	 0.3477287833	 0.113049
H	-0.3608853585	 1.850624065	-0.972449425	 0.123996
H	-0.9280298652	 1.8484053767	 0.702640981	 0.121603
H	-0.883580404	-0.5491023674	-0.2392526006	 0.100986
H	 1.29796667	-1.6109206969	-0.8158873445	 0.124644
H	 2.1744914492	-0.0423025583	-0.4662714796	 0.107298
H	 2.5529139867	 0.1518260934	 2.1904267315	 0.119492
H	 1.0198306238	 0.9705294128	 2.5848672312	 0.12012
H	 0.3644482984	-2.7383371901	 3.6204397198	 0.140183
