20
gdb 78528	2.33583	1.60456	1.27579	2.4908	79.87	-0.2119	0.0695	0.2814	1103.251	0.168912	-403.063475	-403.054444	-403.0535	-403.096399	35.246	
C	 0.1561050179	 1.4684055656	 0.0751343692	-0.475353
C	-0.1003087683	-0.0063010407	-0.0256860141	 0.331856
C	-0.9952848196	-0.7619655461	 0.8776006655	-0.305294
N	 0.4770205093	-0.9731732512	 0.9708210875	-0.220945
C	 1.0043326416	-1.7977842058	-0.1865091911	 0.318013
C	 2.3762757381	-2.358419917	 0.0338557355	-0.465605
C	 0.0721552475	-2.2644239458	-1.2549357968	 0.042848
O	-1.1851155726	-2.8580785056	-1.0612679645	-0.418711
C	 0.4331800586	-0.8037473925	-1.2306258837	-0.265708
H	 1.1897466786	 1.7084304141	-0.1985054951	 0.12078
H	-0.5079039317	 2.0264356263	-0.5963546084	 0.116955
H	-0.0151774487	 1.8192859196	 1.096605072	 0.127897
H	-1.3566661085	-0.2190364275	 1.7479762994	 0.110039
H	-1.6313784741	-1.5574560176	 0.521820345	 0.149394
H	 2.3441592204	-3.1423912102	 0.7999816833	 0.130591
H	 2.7809276738	-2.7932340281	-0.884855057	 0.113256
H	 3.060425911	-1.5805962997	 0.3864448705	 0.127548
H	 0.6488835501	-2.7690458487	-2.035585319	 0.092338
H	-1.7474495772	-2.5930770422	-1.7979967601	 0.285602
H	 0.9261036736	-0.3189852369	-2.0659750381	 0.084498
