19
gdb 84681	2.1741	1.8179	1.41793	0.8391	75.13	-0.2486	-0.0039	0.2447	1012.345	0.159466	-423.013765	-423.005512	-423.004568	-423.046478	32.038	
C	-0.2697534863	 1.4495147759	-0.0508500542	-0.495292
C	 0.0553807797	-0.0341098521	-0.0132268072	 0.263598
C	-1.0823646005	-0.942142947	 0.5224242309	-0.11776
O	-0.337737238	-1.2859715215	 1.7097658188	-0.296711
C	 0.8328651749	-0.5875660668	 1.2099650905	 0.053502
C	 1.8679289703	-1.5089654605	 0.6240500184	-0.089737
C	 1.8517307865	-1.4826326619	-0.7089022766	-0.126984
C	 0.8069718405	-0.5454462762	-1.2757122112	 0.022491
O	-0.0126391538	-1.1380139389	-2.275849583	-0.430459
H	 0.6381057166	 2.0480850108	-0.187181369	 0.118414
H	-0.9450342951	 1.6741052745	-0.8842594875	 0.129373
H	-0.7536089276	 1.77760999	 0.8748536584	 0.121322
H	-2.0173801361	-0.4245015713	 0.7656081545	 0.105336
H	-1.3236566848	-1.8244279203	-0.0849827495	 0.079926
H	 1.2216596154	 0.1148812707	 1.9563296631	 0.077837
H	 2.5202580719	-2.1198779546	 1.2383806549	 0.10742
H	 2.49382015	-2.0628886903	-1.3640716622	 0.1065
H	 1.2756436521	 0.3016132511	-1.7931695181	 0.091258
H	-0.2951406859	-2.0003357616	-1.9523165908	 0.279963
