18
gdb 72199	3.42139	1.82632	1.5835	0.6038	73.13	-0.2365	0.056	0.2924	896.4712	0.149725	-401.896899	-401.890383	-401.889439	-401.927351	27.461	
C	-0.006335361	 1.4516528092	 0.0245455907	-0.478765
C	-0.0132462859	-0.0561034757	 0.0060708273	 0.319074
C	-1.1462334513	-0.7787244662	-0.7093908189	-0.281628
C	-0.6928957299	-2.2303300192	-0.6549944339	 0.077402
O	-0.8519463699	-2.729746663	 0.7063342625	-0.311268
C	 0.4919764161	-2.3097636056	 0.9932556283	 0.098184
C	 0.6879718153	-0.7835618026	 1.1023189157	-0.110437
N	 1.2896199993	-0.6988060166	-0.3025298108	-0.194465
C	 0.8613364831	-2.1424027918	-0.4799491722	-0.061605
H	 0.9151101549	 1.8317577359	 0.4729925934	 0.13008
H	-0.0748354261	 1.8478836389	-0.9942580775	 0.12316
H	-0.8556428469	 1.8370235322	 0.5985332782	 0.121165
H	-2.1181403547	-0.6513309353	-0.2250693762	 0.118075
H	-1.2178147318	-0.4143911018	-1.7419444969	 0.103334
H	-1.1356195228	-2.9057976534	-1.3890121137	 0.081971
H	 1.0054050089	-2.9331858228	 1.7256877416	 0.088625
H	 1.1394209194	-0.2580842528	 1.9386484037	 0.088079
H	 1.5361734633	-2.7710243392	-1.0544847815	 0.089017
