22
gdb 109605	2.32288	1.06511	0.95558	4.5598	88.07	-0.2707	0.0407	0.3114	1403.6715	0.192408	-367.231292	-367.220572	-367.219628	-367.267091	38.623	
C	-0.512345848	 0.5366966214	-2.6532849147	-0.37784
C	-0.2326649085	-0.4587555714	-1.5195790652	-0.210385
C	-1.5023065889	-0.8611431714	-0.7950907994	-0.039851
C	-2.3722873415	-2.0253301761	-1.1965526746	-0.0458
C	-2.0762141028	-2.9426217261	-2.3634372483	-0.421615
C	-1.5751008635	-2.0949593607	 0.1131303477	 0.106257
C	-0.3926686376	-3.0381864368	 0.2912371831	-0.459424
C	-2.351089417	-1.9305565125	 1.3187179542	 0.241699
N	-2.9699355097	-1.8013462636	 2.2885951778	-0.354748
H	 0.415451216	 0.8362823642	-3.1497186053	 0.116829
H	-1.1741440448	 0.1013388864	-3.4088999097	 0.121624
H	-0.9954055437	 1.442839204	-2.2725277998	 0.121873
H	 0.2827642918	-1.333485565	-1.9267114471	 0.098997
H	 0.4598826247	-0.0062737983	-0.7987942233	 0.109425
H	-2.0505913041	-0.0057295554	-0.4076876758	 0.104536
H	-3.4359433334	-1.8633915507	-1.0461958635	 0.108104
H	-1.0080562273	-3.083687342	-2.5404210598	 0.121679
H	-2.5192407914	-3.9309416097	-2.2026555975	 0.130193
H	-2.5085800108	-2.5322215221	-3.2822203675	 0.128835
H	 0.1809568104	-3.150687702	-0.6290001971	 0.123844
H	 0.2838367317	-2.6634955783	 1.0651169438	 0.138374
H	-0.7360106716	-4.0305609441	 0.5982490418	 0.137391
