20
gdb 133751	3.14559	0.80325	0.75058	2.1389	68.27	-0.322	0.0777	0.3997	1566.6724	0.165829	-534.678987	-534.668852	-534.667908	-534.715168	36.486	
C	-0.1875186199	 1.6126133128	 0.8015333622	-0.394563
C	-0.1182763885	 0.1375848439	 0.3950611338	-0.174009
C	-1.4655660413	-0.4752018981	-0.037425569	 0.03259
C	-2.0412959339	 0.2143299411	-1.2838363638	-0.402143
C	-1.2846417753	-1.9925867237	-0.2391782095	-0.345242
C	-2.5652219985	-2.8010839096	-0.3090278956	 0.282429
F	-3.2855995561	-2.5548083254	-1.4184466828	-0.080205
F	-2.2953887688	-4.118067108	-0.3070449651	-0.079438
F	-3.3675502335	-2.5583477507	 0.7422524341	-0.08451
H	 0.7820878399	 1.9560471567	 1.1749616635	 0.115673
H	-0.4619446578	 2.2592878471	-0.0368166505	 0.121966
H	-0.9238601122	 1.768285787	 1.5980672078	 0.116823
H	 0.6091541575	 0.0143837597	-0.4195504407	 0.095536
H	 0.2729491121	-0.4424102792	 1.2406711466	 0.094529
H	-2.1733040802	-0.3402531117	 0.7912517906	 0.089217
H	-2.2068386263	 1.2794839422	-1.1032096497	 0.117778
H	-1.3498105618	 0.1232923307	-2.1306316462	 0.111546
H	-2.9942737934	-0.2235510993	-1.5845150322	 0.131692
H	-0.7184025508	-2.2029115213	-1.1532691952	 0.125253
H	-0.7155825013	-2.4140392643	 0.5959515216	 0.125078
