19
gdb 92560	2.61651	1.81741	1.74938	1.7535	73.32	-0.2374	0.0806	0.3181	918.0942	0.161558	-423.019355	-423.012305	-423.011361	-423.050591	28.772	
C	-0.5295250625	 1.5048207681	 0.080525039	-0.401906
C	-0.0222892993	 0.0658695111	 0.014303656	 0.121411
O	 0.7058569444	-0.1686492069	-1.2032618052	-0.285307
C	 2.05985697	-0.5122355839	-0.9288502238	 0.066043
C	 2.9226029948	 0.7540392015	-0.877332732	-0.088003
O	 2.6411142754	 1.3348207907	 0.4027532258	-0.260563
C	 2.2790732314	 0.286172141	 1.2713543547	 0.089295
C	 0.9073960427	-0.3513111204	 1.1456080044	-0.114877
C	 2.1212113361	-1.0047168194	 0.528130323	-0.145846
H	 0.3067847291	 2.2046330236	 0.1280976549	 0.142192
H	-1.1388190803	 1.730787608	-0.7992641037	 0.117971
H	-1.1537587049	 1.6417955806	 0.9704013138	 0.106793
H	-0.8854958674	-0.6156232152	 0.0055246328	 0.075839
H	 2.396981267	-1.2375261336	-1.6735388804	 0.083452
H	 3.9924190028	 0.5070679634	-0.955354069	 0.090902
H	 2.6532617417	 1.4745506349	-1.6527485289	 0.118008
H	 2.7423683696	 0.3543156822	 2.2498753998	 0.099943
H	 0.4609890477	-0.7529646089	 2.0490309161	 0.090385
H	 2.5419107518	-1.9615267765	 0.8070359528	 0.094267
