12
gdb 2138	3.64061	3.60402	1.96873	1.6932	50.16	-0.2743	-0.0288	0.2455	624.508	0.090797	-360.564423	-360.558401	-360.557457	-360.594365	21.509	
C	-0.0464860793	 1.5624923986	-0.0094831971	-0.387166
C	 0.0386235624	 0.0338807696	-0.0272034727	-0.116854
N	 0.8369526139	-0.4847502284	-1.1439786455	-0.247344
C	 1.7485452525	-1.1816420958	-0.6099628747	 0.120653
O	 1.7857133031	-1.2940773561	 0.7597436632	-0.203271
C	 0.7119660684	-0.5289216613	 1.2244063565	 0.42836
O	 0.4686855414	-0.4021527493	 2.3815896081	-0.312133
H	 0.9524358963	 2.0056665506	 0.0244606774	 0.134054
H	-0.5511174265	 1.9160043858	-0.9109846457	 0.140616
H	-0.6052047888	 1.8899355601	 0.870757113	 0.145405
H	-0.9744918181	-0.3829238853	-0.0899216664	 0.138962
H	 2.5332398347	-1.7225025286	-1.1248920761	 0.158718
