24
gdb 116802	4.60072	0.55495	0.51952	2.6232	91.6	-0.2426	0.0301	0.2726	2250.8991	0.21437	-405.555722	-405.544177	-405.543233	-405.594258	40.542	
C	 0.2718694502	 0.7448130554	-0.8700548513	-0.396168
C	-0.3157723789	 0.2415205647	 0.4529979129	-0.10923
N	-1.5099184671	-0.5858207198	 0.4248775621	-0.228713
C	-2.0466537615	-0.9003305086	-0.6669114207	 0.126897
O	-3.1562941701	-1.6712272888	-0.6763344313	-0.211356
C	-3.7065926928	-1.962708496	-1.9619078673	-0.063272
C	-4.8977626336	-2.9001451166	-1.7802230505	 0.019973
C	-5.596317017	-3.1233029965	-3.127234516	-0.394751
C	-4.4730968429	-4.2244703321	-1.1338445222	-0.38459
H	 1.1584805876	 1.3534371055	-0.6681313032	 0.114915
H	 0.57844395	-0.0798096039	-1.5227645393	 0.117865
H	-0.4397766273	 1.368787815	-1.4215803848	 0.11796
H	 0.4529350172	-0.3252023299	 0.9956456226	 0.111627
H	-0.5403878937	 1.102835751	 1.0964626053	 0.111729
H	-1.7022460865	-0.608176549	-1.6672689724	 0.073714
H	-4.023888552	-1.0303311939	-2.4500289435	 0.09945
H	-2.9439297293	-2.4362063703	-2.5988419547	 0.098486
H	-5.5976446104	-2.3937028494	-1.1026741751	 0.090689
H	-4.9255162277	-3.612091803	-3.8438856839	 0.114574
H	-6.4727374221	-3.7668226004	-3.0059893937	 0.119085
H	-5.9325209897	-2.1803161955	-3.5715438203	 0.112728
H	-3.7885570338	-4.7763654997	-1.789901281	 0.107239
H	-3.9641798619	-4.0500275763	-0.1832434467	 0.140277
H	-5.3423310368	-4.8633232818	-0.9487862152	 0.110872
