18
gdb 35368	3.68486	1.38766	1.23241	4.3461	78.2	-0.2707	0.0373	0.308	1034.9778	0.150999	-364.811742	-364.804818	-364.803874	-364.843087	28.008	
N	-0.0732483024	-1.1777445205	-0.1774299148	-0.333029
C	-0.0541945143	-0.0252726655	-0.0854273922	 0.266346
C	-0.0159268218	 1.4293957332	 0.0362100003	-0.133408
C	-0.6267995422	 1.9703085776	 1.3700875972	-0.25728
C	 0.25677374	 3.1727218973	 1.6969524541	-0.0397
C	 1.7402366046	 2.9511151515	 1.944076145	-0.057478
C	 2.1998968637	 1.6315401113	 1.3219773406	-0.24195
C	 1.4150771558	 2.0197729491	 0.0269683628	-0.047634
C	 1.2428377531	 3.4528862956	 0.5966777077	-0.097208
H	-0.5711858201	 1.8499653733	-0.8105164992	 0.121863
H	-1.6713660849	 2.2598242557	 1.2306101427	 0.11524
H	-0.6026991349	 1.2081440861	 2.1540127728	 0.125443
H	-0.1802547156	 4.0134124777	 2.2237953694	 0.091546
H	 2.2596841569	 3.5032530683	 2.7183599391	 0.088081
H	 3.2771150596	 1.6301968647	 1.1413418951	 0.110821
H	 1.9248012954	 0.6929362959	 1.8152081282	 0.109788
H	 1.9396178918	 1.8855240791	-0.9176652124	 0.087643
H	 1.3856447053	 4.3960149298	 0.0871827537	 0.090917
