20
gdb 61628	3.12532	0.85798	0.787	2.3735	82.1	-0.2242	0.0287	0.2529	1523.5862	0.168115	-403.070482	-403.060353	-403.059408	-403.10598	37.184	
C	-0.3583750569	 1.3016442169	 0.020012567	-0.317317
N	 0.0830792609	-0.0825721581	 0.0819274702	-0.07697
C	 1.4741737088	-0.3614206189	-0.2510120772	-0.270793
C	 0.9855779691	-0.5350695996	 1.1471516982	 0.025087
C	 1.4879507881	 0.3561839608	 2.2641049792	-0.238494
C	 0.5317746477	 0.3709239389	 3.4785542805	-0.054949
O	 0.3277282098	-0.9381096272	 4.0053563394	-0.415967
C	 1.0043539844	 1.2993873684	 4.5094178711	 0.292098
C	 1.437447566	 2.0341293786	 5.3569005025	-0.435905
H	 0.409859162	 2.0484295359	 0.276978287	 0.099312
H	-0.6927254224	 1.5123891088	-1.0010334359	 0.126005
H	-1.2143835347	 1.443963438	 0.6882455466	 0.122976
H	 1.6561073071	-1.2198246232	-0.8931313337	 0.113148
H	 2.1303078763	 0.4897492636	-0.4384604054	 0.100867
H	 0.7523952194	-1.5423432753	 1.4850217089	 0.103653
H	 2.4648164363	-0.0104273606	 2.6063056272	 0.103431
H	 1.6480143953	 1.3830198455	 1.9238407904	 0.112465
H	-0.4614510913	 0.6887302937	 3.139285294	 0.125657
H	 1.1240537257	-1.1808346458	 4.4913305632	 0.285198
H	 1.7976184484	 2.6909058197	 6.1100190069	 0.2005
