20
gdb 14349	4.36463	1.55202	1.3343	1.8545	73.96	-0.2408	0.0792	0.32	991.3809	0.179117	-349.004829	-348.99744	-348.996496	-349.036598	28.735	
C	-0.5145060004	 1.4721118032	-0.0101716853	-0.404271
C	 0.0673202968	 0.0604215884	 0.007335086	 0.053087
C	 0.8397370302	-0.3338746471	-1.27183485	-0.23555
C	 1.6588905836	-1.5721816205	-0.8651343535	-0.066662
C	 3.1943348666	-1.4797799974	-0.9591238075	-0.084996
O	 3.3084039274	-1.1578906689	 0.4431242205	-0.295577
C	 1.8972294149	-1.417223082	 0.6606298602	 0.133407
C	 1.0879497096	-0.2021919375	 1.1393418818	-0.240661
H	 0.2782219842	 2.218908109	-0.136383113	 0.114692
H	-1.2279649151	 1.6004589187	-0.8313338399	 0.111525
H	-1.0394160088	 1.6991417809	 0.9237501128	 0.113419
H	-0.7597528142	-0.6540682938	 0.1300581501	 0.071
H	 0.1764428254	-0.5169523484	-2.1222934618	 0.095258
H	 1.5091415969	 0.4882863035	-1.5573661666	 0.098222
H	 1.2145468575	-2.5076089521	-1.2089916198	 0.072819
H	 3.6972710633	-2.4264182973	-1.1975533244	 0.094458
H	 3.6019906018	-0.6887749804	-1.6014410411	 0.097218
H	 1.758513681	-2.3092223706	 1.2827163374	 0.069041
H	 1.7740843519	 0.646788308	 1.2389729811	 0.110024
H	 0.6064600873	-0.3568906058	 2.109256213	 0.093546
