19
gdb 110856	2.23938	1.28223	1.09067	1.4589	71.61	-0.2325	0.0693	0.3018	1211.0603	0.15711	-460.104344	-460.094923	-460.093979	-460.138338	35.127	
C	 1.0657243984	 0.626634255	-1.924264137	-0.427733
C	 1.4654643935	-0.6680360475	-1.2491608186	 0.102293
O	 2.9069903655	-0.9082191145	-1.1567990421	-0.307457
C	 2.7676359409	-1.3525865807	 0.1972862498	 0.008312
C	 2.3683670659	-0.2077614725	 1.0956985916	-0.132685
C	 2.9118286625	 1.1984343052	 0.961790816	-0.103666
O	 4.0599976748	 1.3836236109	 1.7803778411	-0.417868
C	 1.3212439148	-0.9229416792	 0.2540338907	 0.252689
O	 0.2352551459	-1.5757818508	 0.8033549392	-0.454339
H	 1.4437819669	 0.649049462	-2.9514803837	 0.132603
H	-0.0271288597	 0.6902313921	-1.9704750856	 0.122361
H	 1.4409835467	 1.5074200873	-1.4000057679	 0.127038
H	 1.0123903734	-1.5185382706	-1.7770263288	 0.093888
H	 3.2814825609	-2.2580010086	 0.4975473803	 0.112192
H	 2.2801924299	-0.5334129224	 2.1321169413	 0.102334
H	 3.1371633062	 1.4152738634	-0.0888202678	 0.108195
H	 2.1802683327	 1.934784799	 1.3117623045	 0.105336
H	 4.7429961819	 0.7901966443	 1.4505815341	 0.284812
H	-0.3017623212	-0.9316202823	 1.2768785629	 0.291695
