15
gdb 47616	2.43431	2.03086	1.21926	4.8347	60.75	-0.2601	-0.0124	0.2477	963.736	0.113836	-494.898657	-494.891537	-494.890593	-494.931088	26.167	
O	-0.0214849685	 0.1441745015	 0.6202556249	-0.314861
C	-0.0325260875	 1.2205438548	 0.0998400461	 0.418921
O	-1.205578274	 1.8086882777	-0.2501077896	-0.223048
C	-1.1619264312	 3.1155328768	-0.8389712153	 0.010026
O	-0.2751695971	 3.9577097031	-0.179789396	-0.231192
C	 1.0591166498	 3.5335805546	-0.3902593303	 0.040855
C	 1.9379455318	 3.656203479	 0.860322756	-0.09224
O	 2.0417105794	 2.2156189132	 0.9793465086	-0.27393
C	 1.2407196133	 2.0126561478	-0.2006918622	-0.043996
H	-0.9096659334	 3.0158863605	-1.9062474185	 0.107499
H	-2.1660015458	 3.5244018191	-0.725348118	 0.144398
H	 1.4555281636	 3.9572776685	-1.3194882228	 0.095705
H	 2.9170319302	 4.1227488366	 0.7096247955	 0.115977
H	 1.4298561074	 4.1111369421	 1.7164293536	 0.129328
H	 1.798027842	 1.4894222047	-0.987404282	 0.116558
