18
gdb 51556	2.62768	1.32184	1.04145	4.8271	72.9	-0.24	0.0189	0.2589	1174.5511	0.147409	-439.06332	-439.054662	-439.053718	-439.097411	31.277	
O	 0.4656875097	 1.0197059223	 1.5154637612	-0.314685
C	 0.2741964123	 1.5572966595	 0.4475126982	 0.154021
N	 1.2260703438	 1.7520492273	-0.5108250055	-0.281918
C	 2.541692139	 1.1905322032	-0.408396191	-0.037148
C	 3.6941838189	 1.9690138374	-0.9972339203	-0.39879
C	 3.5493292613	 1.8424952123	 0.4878418749	 0.309869
C	 3.3403172078	 2.9348976459	 1.5300318298	-0.136502
O	 4.2677225838	 2.2783977759	 2.4247281505	-0.275259
C	 4.4789977713	 1.1887880935	 1.5025434691	-0.133413
H	-0.7086565164	 1.9674663049	 0.1384700167	 0.077897
H	 0.9212580471	 2.0932865539	-1.4100647812	 0.24989
H	 2.5836893307	 0.1043927139	-0.4733889008	 0.109444
H	 4.478590194	 1.4115699921	-1.4989414939	 0.123977
H	 3.4718002302	 2.9352965925	-1.4409486398	 0.118548
H	 3.6827372658	 3.9400136409	 1.251334931	 0.096048
H	 2.3320395099	 2.9888045595	 1.954728127	 0.126625
H	 4.131203754	 0.230169331	 1.9089780902	 0.112451
H	 5.5324812168	 1.099581604	 1.2055427638	 0.098944
