23
gdb 58125	2.58514	1.03867	0.91521	4.2695	82.92	-0.266	0.0125	0.2785	1416.1716	0.201721	-425.463872	-425.452717	-425.451772	-425.4997	40.886	
C	 0.0834580099	 1.527873778	 0.0154818306	-0.412293
C	 0.0029439531	-0.0038558987	-0.0733382892	 0.034735
C	-1.4397358978	-0.4798797148	 0.1527340335	-0.414741
C	 0.6493629186	-0.5636452488	-1.3723917032	 0.351837
C	 0.6052663784	-2.0958836501	-1.4014238698	-0.426572
C	 0.0443566	 0.0382707181	-2.6469130461	-0.43129
O	 2.0487141245	-0.1397370175	-1.2252960967	-0.230884
C	 2.9496370943	-0.3760064278	-2.1876954889	 0.162464
O	 4.0970293692	-0.047872091	-2.0845791105	-0.285668
H	 1.0971623527	 1.8840829808	-0.1779476127	 0.139491
H	-0.5966035249	 2.0119213242	-0.6939053268	 0.111249
H	-0.2070565696	 1.8576767474	 1.0177565321	 0.113668
H	 0.6205005258	-0.4111747053	 0.7373457755	 0.089179
H	-2.1115428744	-0.1431638666	-0.6444704125	 0.117216
H	-1.5182519751	-1.5675157758	 0.2257360611	 0.117798
H	-1.8197806134	-0.0619399512	 1.0899096715	 0.121069
H	-0.4205678527	-2.4512550657	-1.5240658487	 0.129152
H	 1.1880248631	-2.4933296064	-2.2370144268	 0.118459
H	 1.0094890906	-2.511710179	-0.4739849599	 0.131274
H	 0.2491521808	 1.1089419791	-2.7115647531	 0.13816
H	 0.4358668251	-0.4408557781	-3.5482573251	 0.12108
H	-1.0396313908	-0.1051931612	-2.6519634419	 0.129181
H	 2.5441424028	-0.8930706397	-3.0745834322	 0.075436
