16
gdb 27097	3.14035	1.18502	0.9022	3.2283	73.32	-0.2134	-0.0054	0.208	1244.1164	0.123768	-437.94277	-437.934061	-437.933116	-437.976975	30.986	
C	 0.1435061375	 1.3699548039	-0.3701231473	-0.515874
C	 0.0309320413	-0.1051018565	-0.1318232163	 0.181361
C	-0.2755327126	-1.0722084611	-1.0590484998	 0.268243
N	-0.3073741037	-2.301738185	-0.4537427841	-0.295498
C	-0.0278032217	-2.1414432321	 0.8819170152	-0.081082
C	 0.1916506686	-0.8051312341	 1.1062088951	-0.228476
O	-0.5840766155	-0.9810446152	-2.3945815057	-0.216448
C	 0.4474632959	-0.7112100706	-3.2523297905	 0.154355
O	 0.2761479221	-0.5800964201	-4.4218669234	-0.255457
H	 1.169509491	 1.7318159362	-0.2359252738	 0.12907
H	-0.1716994189	 1.6334303538	-1.3838461396	 0.130457
H	-0.4886868128	 1.9317758035	 0.3259473908	 0.133431
H	-0.5543363417	-3.1579853909	-0.9188310852	 0.271389
H	-0.010357723	-2.9869466773	 1.5497020301	 0.126193
H	 0.4390707891	-0.3575515367	 2.0569688928	 0.098833
H	 1.4115548144	-0.6328648278	-2.7189552983	 0.099503
