17
gdb 17499	3.01825	2.43438	1.66093	1.1485	67.84	-0.2037	0.0735	0.2772	818.3022	0.141248	-363.773619	-363.766199	-363.765255	-363.804584	29.61	
C	-0.0212079482	 1.5209769193	 0.0058325064	-0.512362
C	 0.0964694008	 0.0312410271	 0.0011419537	 0.269586
N	-0.8560934344	-0.8786558299	 0.686989052	-0.380554
C	 0.604889083	-0.9349799235	 0.993864409	-0.110782
C	 1.3272347676	-1.7576773276	-0.1102134171	-0.120937
C	 0.3714011545	-2.2278134239	-1.1948159172	-0.356872
C	 0.8032045696	-0.78986297	-1.144476049	 0.349194
O	 1.5241020721	-0.155806223	-2.1410768407	-0.45399
H	 0.9035954822	 1.9782764581	-0.3589024241	 0.139821
H	-0.8384866	 1.8613132375	-0.6420706482	 0.121851
H	-0.2158985359	 1.8958885573	 1.0165329706	 0.115395
H	-1.2940048535	-0.3402631062	 1.4356935897	 0.221519
H	 0.9670078146	-0.7763314099	 2.0020096893	 0.090226
H	 2.3237727042	-2.1638127616	-0.0013848432	 0.095703
H	 0.8686804561	-2.7931378261	-1.9778237522	 0.106612
H	-0.6398871397	-2.5319790598	-0.9571661065	 0.138655
H	 0.9580873968	-0.075819028	-2.9172001025	 0.286938
