18
gdb 71191	2.66818	1.63812	1.29361	4.2012	76.92	-0.2304	0.0181	0.2485	1027.6796	0.147457	-401.913351	-401.905579	-401.904635	-401.945537	30.233	
C	 0.1070226544	 1.6266257095	 0.1508257776	-0.508662
C	 0.1622281318	 0.125913362	 0.1430329477	 0.301005
C	-1.1070395524	-0.7819227626	 0.0338920829	-0.264294
C	-0.2589607438	-1.8656634632	 0.695711275	-0.085328
C	 1.1797168015	-1.671097314	 0.1615109344	-0.008612
C	 0.6771014651	-0.8369508599	 1.296895795	-0.160245
N	 1.1384452373	-0.5545689972	-0.7667579726	-0.07814
C	 1.1216555432	-0.6219456623	-2.1309493189	 0.122997
O	 1.5560241201	-1.5455051022	-2.7852648634	-0.32163
H	 1.1031668282	 2.0532733136	 0.2991703391	 0.136136
H	-0.2944703264	 2.0129237195	-0.7922047241	 0.131886
H	-0.5449387843	 1.9757998778	 0.9574105836	 0.129235
H	-1.8992627304	-0.4372527721	 0.7037742042	 0.108062
H	-1.5095608514	-0.9507451876	-0.9716811722	 0.102477
H	-0.5804570114	-2.8066218308	 1.12244632	 0.098219
H	 1.926677642	-2.4499237873	 0.1278089898	 0.12593
H	 1.0548097765	-0.6562830073	 2.2924638148	 0.103408
H	 0.7276795897	 0.3109389142	-2.585605063	 0.067555
