23
gdb 96065	2.51319	1.48109	1.15036	1.3787	85.02	-0.2493	0.0718	0.3211	1180.7644	0.207373	-388.299568	-388.290791	-388.289847	-388.332315	35.572	
C	-0.0150163829	 1.5251398258	 0.0225839635	-0.464844
C	-0.0244993667	 0.0089612432	 0.0146479173	 0.348812
C	-0.8723969241	-0.6864225958	 1.0449650878	-0.310859
C	 0.6348930333	-0.7079438307	 1.1841772645	-0.06175
C	 1.3891759919	-2.021496531	 0.9974041272	 0.095532
O	 0.6063267527	-3.0620933122	 1.5914024351	-0.433633
C	 1.6899084515	-2.3285189991	-0.4781777195	-0.211072
C	 0.4697394494	-2.0929431442	-1.3714134498	-0.217178
C	 0.0986998287	-0.6032724981	-1.3756509099	-0.255182
H	 0.9151081492	 1.9202396684	-0.4035912729	 0.109598
H	-0.8464107168	 1.9265269783	-0.5698879535	 0.112426
H	-0.1123111393	 1.9202389039	 1.0388473041	 0.110134
H	-1.4339413963	-0.0738758338	 1.7428379104	 0.099435
H	-1.354514908	-1.6230623849	 0.7925327725	 0.123037
H	 1.0409524874	-0.067760322	 1.9614142817	 0.075246
H	 2.3461984632	-1.9399437939	 1.5347285403	 0.058206
H	 1.1001676983	-3.8836912869	 1.498678435	 0.275583
H	 2.5168823681	-1.6864977013	-0.8107908663	 0.091694
H	 2.0469915593	-3.3634047125	-0.5622057335	 0.076117
H	 0.6750299334	-2.4203709257	-2.3960109075	 0.089368
H	-0.3654818438	-2.7035775741	-1.0100399622	 0.10882
H	-0.8329057483	-0.4403441186	-1.9330332596	 0.091635
H	 0.88043838	-0.0568405447	-1.9230104447	 0.088876
