19
gdb 32741	3.18453	1.04119	0.8122	2.758	80.6	-0.1932	0.0225	0.2157	1438.4043	0.159382	-419.242218	-419.232818	-419.231874	-419.27745	33.436	
C	-0.2992701422	 1.4296819746	-0.0293067487	-0.394443
C	 0.2917071439	 0.0250182894	-0.0098227673	-0.125975
N	 0.2868382924	-0.5129701538	 1.3579653304	-0.409591
C	 0.6934523667	-1.8201004778	 1.549720134	 0.325513
C	 1.5370654012	-2.4513510181	 2.4150405791	 0.167704
C	 2.4353231982	-1.8788314756	 3.4596107111	-0.500343
N	 1.439195932	-3.8279900651	 2.1907040999	-0.299937
C	 0.5927105479	-3.9482485787	 1.2288470998	 0.054591
O	 0.0792653974	-2.7700695325	 0.7786762925	-0.17675
H	 0.2969747493	 2.1196849066	 0.5792403374	 0.114518
H	-0.3183750092	 1.8225389966	-1.0497209677	 0.123487
H	-1.3195823707	 1.4259084715	 0.364099146	 0.132882
H	-0.3119174269	-0.64666507	-0.6261630693	 0.132646
H	 1.3060910179	 0.0318141165	-0.4408171241	 0.096443
H	 0.744421265	 0.1063247003	 2.0145406332	 0.236874
H	 2.5479512577	-0.7962739002	 3.3379994833	 0.105639
H	 2.0572871819	-2.0614871318	 4.4726439894	 0.134504
H	 3.4318369255	-2.3277857551	 3.3998488995	 0.139989
H	 0.2545192319	-4.8415754767	 0.7290450217	 0.142249
