17
gdb 83861	2.31182	1.74519	1.33376	3.0492	68.67	-0.2397	-0.0193	0.2204	996.5204	0.136787	-458.961116	-458.953542	-458.952598	-458.993184	29.66	
O	 0.1330855959	 1.3649939424	-0.01371274	-0.417664
C	-0.0017838422	-0.0132499362	-0.0201124884	 0.100466
C	-0.4688357801	-0.6769044509	 1.2337763725	 0.000486
O	-0.7527264326	 0.236943878	 2.257485529	-0.268056
C	-2.1439277221	 0.4696763057	 2.4848831755	-0.09196
C	-2.8102349505	 1.0446805539	 1.229450203	-0.325713
C	-2.6678486825	 0.0773646873	 0.0633139158	 0.416607
O	-3.5539205817	-0.108705195	-0.7408668362	-0.32799
C	-1.3903499146	-0.6886344293	 0.015623889	-0.223923
H	 0.1032120795	 1.6284086426	 0.9179681604	 0.295324
H	 0.7287975223	-0.5135220101	-0.6488102408	 0.117137
H	-0.0376851513	-1.6111700519	 1.5839671284	 0.11109
H	-2.6344741214	-0.4652183124	 2.7902405862	 0.11298
H	-2.1946590824	 1.1704628156	 3.3219307894	 0.122396
H	-3.8730391017	 1.2442823202	 1.3894345408	 0.127329
H	-2.3200726658	 1.9883913636	 0.961336875	 0.136054
H	-1.4586346087	-1.6098928635	-0.5522356896	 0.115438
