17
gdb 18502	5.38383	1.15526	1.10771	2.3097	68.34	-0.2399	-0.027	0.2129	1086.5317	0.141885	-363.81826	-363.810664	-363.80972	-363.851375	27.505	
O	-0.5593095119	 0.8831632807	 0.7785903	-0.235353
C	 0.070673103	 1.0472049757	-0.2338812364	 0.16142
C	 1.4142405451	 1.7360138949	-0.3179057042	-0.299415
C	 1.3511186254	 2.9764962556	-1.218596701	-0.00481
C	 0.6421804047	 4.2733945041	-0.7307359375	-0.182584
N	 1.8511968234	 5.1207082132	-1.0366072819	-0.121453
C	 2.913153005	 4.608626097	-0.1550337539	-0.236506
C	 2.6015275028	 3.8406078918	-1.376750925	-0.051031
H	-0.3259205328	 0.6978923287	-1.2171880823	 0.071933
H	 1.7432536485	 1.9835678027	 0.6945953957	 0.120327
H	 2.1306831437	 1.0233553517	-0.7517320644	 0.11992
H	 0.9656791394	 2.6898768055	-2.202236942	 0.089805
H	-0.2044077276	 4.5793529939	-1.3475573639	 0.117042
H	 0.3452723682	 4.3030177546	 0.323240876	 0.114473
H	 3.8092067855	 5.2214067482	-0.1721548829	 0.124774
H	 2.6466366251	 4.2262457667	 0.828236149	 0.114532
H	 3.2883609727	 3.790331435	-2.2162695253	 0.096925
