17
gdb 79080	2.72592	1.74687	1.47124	2.3261	71.66	-0.2278	0.0066	0.2345	935.916	0.136958	-421.791091	-421.783922	-421.782978	-421.822125	29.835	
O	 0.0079402743	 1.4267377977	 0.0937339184	-0.437599
C	-0.0127917797	 0.0348183722	-0.0291636066	 0.178217
C	-1.3188433572	-0.7343830814	 0.0094448056	-0.189766
C	-2.0062119101	-0.7782327495	-1.4024322268	-0.170556
C	-1.5773407213	 0.1881767892	-2.4458444029	-0.102456
C	-0.2357215229	 0.2084118198	-2.5193639452	-0.107262
C	 0.3297823449	-0.6576155042	-1.4319179002	-0.239863
C	-0.828873177	-1.6619927717	-1.0579990586	 0.392952
O	-0.7818781564	-3.0330317272	-1.0149317674	-0.458425
H	-0.552965677	 1.7783606561	-0.6086011618	 0.27861
H	 0.6723284514	-0.3586282847	 0.7248273256	 0.104369
H	-1.9216317436	-0.9474314836	 0.8837249331	 0.096759
H	-3.00498294	-1.1983277099	-1.3816435798	 0.091255
H	-2.2662318944	 0.7686489531	-3.0476118427	 0.098698
H	 0.3632301246	 0.8378395186	-3.1655051175	 0.102342
H	 1.3490412282	-1.022563172	-1.5468005295	 0.071919
H	-0.7816950636	-3.3656987824	-1.9202515138	 0.290807
