15
gdb 8135	4.40734	1.74797	1.46567	2.9756	61.94	-0.2485	0.0221	0.2705	850.6267	0.119194	-399.795842	-399.78897	-399.788026	-399.82675	26.87	
O	 0.0578846842	 1.4018699161	-0.2889489597	-0.465509
C	 0.0098576981	 0.0471856265	 0.0240654488	 0.368088
C	-0.3548408346	-0.9667549895	-1.0454312494	-0.373154
C	-1.310612132	-0.6501960656	 0.0814386119	 0.042745
O	-1.3292328754	-1.5523765429	 1.168210368	-0.233394
C	-0.1154898734	-1.5421270056	 1.8174858066	 0.405617
N	 0.1916024293	-2.3190598616	 2.7607003179	-0.53156
C	 0.7804473303	-0.4626684544	 1.2302932158	-0.384177
H	 0.8507390591	 1.5615515134	-0.8126531731	 0.288469
H	-0.6132396614	-0.5592326359	-2.0167960772	 0.125738
H	 0.1303638728	-1.9378324588	-1.0562300809	 0.127608
H	-2.2614607339	-0.1640959055	-0.0928912919	 0.123925
H	-0.5834679992	-2.9496720907	 2.9732529605	 0.225263
H	 1.7725911769	-0.8657702282	 1.0126208174	 0.134333
H	 0.8984973791	 0.3514958429	 1.9526188552	 0.146008
