19
gdb 38844	2.65018	1.98519	1.71982	1.4033	72.95	-0.2303	0.0799	0.3102	890.9943	0.162604	-423.013003	-423.0064	-423.005456	-423.043662	27.949	
C	-0.0323547981	 1.5009870754	-0.2774069787	-0.323848
C	 1.2814562286	 0.8029995633	-0.0273007195	 0.10626
O	 2.0064771008	 0.9648201994	 1.1681143184	-0.281738
C	 1.5454669354	 0.2634933473	 2.3259707347	 0.098864
C	 0.3448432818	 0.9682206154	 2.9662288002	-0.091856
O	-0.8019051563	 0.4849460039	 2.2538693363	-0.273723
C	-0.3805652704	-0.543363369	 1.346018671	 0.079868
C	 0.9091024093	-1.0892852859	 1.9741173604	-0.255545
C	 0.0041279041	 0.0097115007	-0.030978846	-0.068043
H	-0.4571067474	 2.1058469706	 0.5145934376	 0.134193
H	-0.2298318943	 1.8531239707	-1.2840542614	 0.107933
H	 1.965301077	 0.7058116617	-0.8647104848	 0.095176
H	 2.4062599666	 0.2025230506	 2.9949114421	 0.083345
H	 0.2526013638	 0.7121727355	 4.0306623836	 0.097154
H	 0.4181768197	 2.0556715515	 2.8662582759	 0.110829
H	-1.1994207518	-1.2620391147	 1.2713025546	 0.079054
H	 1.5123235484	-1.685152144	 1.2870173034	 0.110697
H	 0.7117729075	-1.6637012181	 2.883678764	 0.105866
H	-0.1768910447	-0.6672045943	-0.8604513018	 0.085517
