16
gdb 44037	3.34945	1.7429	1.51579	3.4298	74.14	-0.2408	0.0067	0.2475	893.2872	0.125497	-400.628813	-400.622393	-400.621449	-400.659336	26.637	
O	-0.0673366223	 0.0337702209	-0.2639839812	-0.336505
C	 0.0081227773	 1.2041316992	-0.0374317031	 0.348424
N	-0.9788514147	 2.1910524329	 0.1677818726	-0.399601
C	-0.0372412378	 3.1884148827	 0.6293095016	 0.261732
C	 0.6054321509	 3.2615175379	 2.0264097332	-0.287873
C	 1.7861085501	 3.3262770714	 1.0461984924	-0.089525
C	 0.9852227828	 4.2106503707	-0.0187744754	-0.095362
C	 1.317804904	 3.2694984142	-1.1776895764	-0.273199
C	 1.1070570917	 2.3189580917	 0.0258227181	 0.037534
H	-1.9598882319	 2.057703292	 0.3793063152	 0.249766
H	 0.404053147	 4.1553420482	 2.6228606459	 0.098951
H	 0.5386936603	 2.3555063208	 2.6369776995	 0.105528
H	 2.8523784527	 3.4187886014	 1.261803529	 0.088771
H	 0.9248035049	 5.302638388	-0.0100418985	 0.07803
H	 0.5791160779	 3.2048259911	-1.9807997903	 0.10951
H	 2.3320702871	 3.3169788667	-1.5817405225	 0.103821
