22
gdb 5987	4.02684	0.99432	0.96453	0.2204	74.47	-0.2575	0.063	0.3204	1331.102	0.197227	-387.342899	-387.332341	-387.331397	-387.377987	38.415	
C	-0.2328985921	 1.5039245399	-0.0472106477	-0.39353
C	 0.0722228388	 0.0040622769	 0.0016551651	-0.19321
C	 0.8384020889	-0.469550049	 1.2590239526	 0.336916
C	 2.2013558381	 0.2186419618	 1.3831912214	-0.402365
O	 0.1188871913	-0.0841642656	 2.4414279743	-0.459312
C	 0.9728466519	-2.0061058662	 1.2057281166	-0.193178
C	 1.6478894058	-2.6422919165	 2.4159084542	-0.090864
O	 1.4787006573	-4.0505782187	 2.2991510256	-0.425055
H	 0.6717735705	 2.1017033084	-0.1919038638	 0.11712
H	-0.9107671253	 1.7322740572	-0.8752268312	 0.108428
H	-0.7044832402	 1.8300618588	 0.8837615061	 0.125411
H	-0.8726410743	-0.5565489552	-0.0396491588	 0.082811
H	 0.6360573535	-0.2966297774	-0.890152709	 0.095493
H	 2.0820478945	 1.3034535421	 1.4217766604	 0.123791
H	 2.7080802151	-0.0885086669	 2.301041185	 0.122714
H	 2.8406685539	-0.0326685876	 0.5315968331	 0.111179
H	-0.7512708235	-0.4967806685	 2.4003107859	 0.275018
H	-0.0315409264	-2.44357038	 1.1242596176	 0.092396
H	 1.5085353221	-2.3005719816	 0.2956588583	 0.100907
H	 2.715824413	-2.3792173341	 2.4448222862	 0.084932
H	 1.1860652845	-2.2541206821	 3.3347485264	 0.096546
H	 1.8995889027	-4.4639802657	 3.0584089415	 0.283854
