18
gdb 10858	3.71535	1.53388	1.30596	2.0729	69.19	-0.2535	0.0055	0.259	976.1202	0.15476	-384.947619	-384.939777	-384.938833	-384.979578	30.291	
O	-0.0552022453	 1.4479089683	 0.0077117374	-0.438669
C	 0.0070334142	 0.023839932	-0.0280062551	 0.102803
C	-1.4272213083	-0.496288081	 0.0396747071	-0.215155
C	-1.4691301697	-1.9967185753	-0.2661492471	-0.235541
C	-0.9446127043	-2.3043568152	-1.6778248147	 0.103957
O	-1.9377006977	-2.0884544105	-2.6875321952	-0.437915
C	 0.2986967232	-1.5117960773	-1.9974755093	-0.101615
C	 0.70723115	-0.4701920797	-1.2732583223	-0.082189
H	 0.8451909714	 1.7885459234	 0.0115235401	 0.280278
H	 0.5593771314	-0.34449339	 0.8558237137	 0.073518
H	-1.8552761609	-0.275786272	 1.0216703667	 0.10299
H	-2.0203072563	 0.0623505278	-0.6952575659	 0.100513
H	-0.8542137529	-2.5371258603	 0.4657383192	 0.095651
H	-2.4878912451	-2.3859049097	-0.1830186262	 0.107357
H	-0.7257216296	-3.3761825696	-1.7497749158	 0.086481
H	-2.00599727	-1.1373381916	-2.8236419746	 0.279834
H	 0.8351911376	-1.8020598059	-2.8975165967	 0.095781
H	 1.6025926324	 0.0780572567	-1.5651708612	 0.08192
