18
gdb 63289	1.91553	1.6705	1.10095	3.9907	79.3	-0.2419	0.0265	0.2684	1160.1629	0.144692	-401.947158	-401.937596	-401.936652	-401.981367	35.757	
C	-0.0284126	 1.541168468	-0.1239483946	-0.426655
C	-0.0110906154	 0.0200977002	-0.0126377748	 0.333044
C	-1.3975101333	-0.5875812801	-0.212218261	-0.432069
N	 1.0323233245	-0.614588074	-0.8448711104	-0.359354
C	 1.8035402506	-1.0994529115	 0.1725250735	 0.446731
O	 2.8392941867	-1.7015167901	 0.2118463601	-0.359253
C	 0.7777252854	-0.5643002035	 1.2337687803	-0.421985
C	 1.2720422231	 0.3377352729	 2.2448379809	 0.352654
C	 1.690491935	 1.0907391813	 3.0837035345	-0.460134
H	 0.9684116299	 1.9586039082	 0.0328760043	 0.135447
H	-0.3821295013	 1.8445108971	-1.1155013467	 0.112219
H	-0.7011303524	 1.9750862056	 0.6216059224	 0.130123
H	-1.7985984451	-0.3255430433	-1.1975178055	 0.119322
H	-1.3619913374	-1.6782833533	-0.1384872373	 0.12462
H	-2.0953422695	-0.2094179294	 0.5414838704	 0.130183
H	 1.1700669248	-0.637824619	-1.8451686801	 0.248513
H	 0.2368408816	-1.4002782599	 1.6890020628	 0.125365
H	 2.0670264527	 1.747827431	 3.8280494211	 0.201228
