14
gdb 13343	5.99453	1.22784	1.11554	4.5909	61.1	-0.2658	-0.0103	0.2554	1028.2959	0.106812	-419.700837	-419.69365	-419.692706	-419.733267	25.105	
O	 0.0629194271	 0.0220203238	 0.2909515078	-0.273789
C	 0.048979699	 1.1875508004	 0.0345508664	 0.179166
O	 1.1291280551	 1.9816647741	 0.1910225356	-0.197332
C	 0.9466304177	 3.3877070485	-0.0739483848	 0.175672
O	 0.418538108	 4.0450875003	 1.0418555913	-0.251368
C	 1.4290507609	 4.8454197405	 1.6638830623	-0.124694
C	 2.5816154888	 4.8132159748	 0.7033774559	-0.084132
C	 2.2993542867	 3.9976584008	-0.3051634507	-0.106327
H	-0.8316185098	 1.7289508199	-0.3620165981	 0.082206
H	 0.2369746485	 3.4803602841	-0.9069091102	 0.098697
H	 1.0232263721	 5.8529569609	 1.8193244816	 0.125287
H	 1.6962924964	 4.4355524653	 2.6485831239	 0.128471
H	 3.4957311322	 5.3716313375	 0.8563992212	 0.123058
H	 2.9217032674	 3.734558659	-1.1486119324	 0.125083
