12
gdb 133313	2.39144	1.9211	1.0658	3.0315	62.81	-0.2376	-0.0679	0.1697	993.987	0.078061	-510.093074	-510.085738	-510.084794	-510.124841	27.454	
N	 0.0325510179	 1.3496593276	 0.1370190812	-0.557833
C	-0.0193692434	-0.00838346	 0.0526181968	 0.334061
C	-1.1941355966	-0.71395462	 0.0295432124	 0.044519
F	-2.3584559102	-0.0631582915	 0.0387442311	-0.06273
C	-1.193515084	-2.1432177974	-0.0105219811	 0.383194
O	-2.1241261058	-2.9219245854	-0.0363679358	-0.385158
N	 0.1499826891	-2.6069132402	-0.0204975332	-0.279037
N	 1.2809581734	-1.9068837071	-0.012473979	-0.040381
N	 1.21525499	-0.6358574124	 0.0237096219	-0.274394
H	 0.9176530415	 1.7737226629	-0.0901766996	 0.275509
H	-0.7998073861	 1.8696803614	-0.0847752968	 0.275616
H	 0.279046164	-3.6110871178	-0.0510131477	 0.286631
