18
gdb 6788	6.98445	0.69005	0.65422	2.5595	66.11	-0.2434	0.0596	0.303	1663.4015	0.153426	-418.292213	-418.282464	-418.28152	-418.328205	33.692	
N	-0.0492138956	 1.3326379682	 0.026577911	-0.565404
C	-0.004891339	-0.046297578	-0.1720918767	 0.449309
O	 0.9254342723	-0.5965359573	-0.731662918	-0.389763
N	-1.0939161669	-0.7126345884	 0.342602884	-0.341829
C	-1.1406123633	-2.1644127905	 0.378041822	-0.152604
C	-2.5121318336	-2.7013895395	-0.0354274521	-0.173061
C	-2.5741515917	-4.2227932957	-0.0035787358	-0.070653
O	-3.8949603301	-4.6100264766	-0.3500604257	-0.421207
H	 0.6273071352	 1.8147914536	-0.5463509151	 0.25923
H	-0.9595381608	 1.769381121	 0.02477382	 0.244635
H	-1.676583397	-0.217618854	 0.999132644	 0.236808
H	-0.3588984054	-2.5063486929	-0.3043717292	 0.149957
H	-0.8777289712	-2.5370423824	 1.3797199653	 0.099168
H	-3.2910448755	-2.3121569895	 0.6330504239	 0.09738
H	-2.7562413027	-2.3509790386	-1.043917158	 0.115113
H	-1.8364720907	-4.6393031358	-0.708548829	 0.092169
H	-2.3030474249	-4.5869068543	 1.0015781434	 0.084476
H	-3.9339980891	-5.5707142391	-0.357884204	 0.286277
