17
gdb 17466	4.3041	1.97986	1.67717	2.504	66.32	-0.2357	0.0665	0.3022	812.6329	0.143715	-363.832216	-363.825601	-363.824657	-363.862535	26.645	
C	 0.0860184277	 1.4982040151	-0.1420092537	-0.458801
C	-0.0435912726	 0.0089640496	 0.0613919869	 0.324386
C	-1.3913030511	-0.6573561024	-0.2621024	-0.323665
C	-1.4992567557	-1.8688267561	 0.6531755125	 0.041733
O	-0.4761513191	-2.8614651071	 0.4732686172	-0.25987
C	-0.3252578197	-1.9081765619	 1.5392771555	 0.029492
C	 0.5911564212	-0.750240058	 1.1877158517	-0.101787
N	 1.1798675705	-0.7760088932	-0.159136072	-0.368102
H	 1.0853637723	 1.8321103814	 0.1471592528	 0.130753
H	-0.0619763712	 1.7633490712	-1.1954253918	 0.120048
H	-0.6551168544	 2.0468545952	 0.4499203109	 0.110954
H	-2.2113227579	 0.0343017929	-0.0349639552	 0.108986
H	-1.4820194377	-0.9285528896	-1.3203355077	 0.118861
H	-2.4742717819	-2.2673697762	 0.9236601343	 0.100311
H	-0.3322248613	-2.323940268	 2.542036352	 0.100298
H	 1.1860179706	-0.2931083137	 1.9720211849	 0.085807
H	 0.9585435902	-1.6780927992	-0.5790967082	 0.240597
