16
gdb 24778	4.06618	1.35173	1.02773	7.0084	81.08	-0.2069	-0.01	0.1969	1107.1873	0.127152	-400.78909	-400.782088	-400.781144	-400.820638	27.191	
O	-0.0181037365	-0.0723015705	 0.0043009055	-0.405196
C	-0.0023786363	 1.1555054173	 0.0099356393	 0.396114
C	-1.2410846798	 1.9589530089	 0.0306378677	-0.265109
C	-1.2452213382	 3.3170959972	 0.0371055691	-0.00538
N	-0.0434993157	 3.9544337721	 0.0234874485	-0.083122
C	 0.5451326727	 5.2995528363	 0.023076042	-0.175129
C	 1.9448373892	 4.5859849684	 0.0004309403	-0.368843
C	 1.1534468858	 3.286769062	 0.0043178839	 0.467601
C	 1.2435240119	 1.9413985477	-0.0031621	-0.462397
H	-2.1762352144	 1.4124538683	 0.0408247384	 0.110227
H	-2.1393630723	 3.9296683251	 0.0521978237	 0.133806
H	 0.3009135114	 5.8895736272	-0.8650498635	 0.133491
H	 0.3249445018	 5.8795287899	 0.9240151402	 0.133509
H	 2.538190603	 4.7701131697	-0.8970717298	 0.140831
H	 2.5623136016	 4.7607620599	 0.8834066107	 0.14084
H	 2.1907832658	 1.4173259505	-0.018287356	 0.108758
