16
gdb 131724	3.07778	1.1015	0.83422	4.8155	67.73	-0.238	0.0231	0.2611	1327.063	0.124682	-471.209016	-471.200019	-471.199075	-471.243873	31.323	
O	-0.1103767275	 1.3492401004	 0.5161986769	-0.427888
C	-0.0433446444	 0.0493223924	-0.057980635	-0.197277
C	-1.4122657862	-0.5416061595	 0.0127744729	 0.371083
N	-1.7219589678	-1.8135964514	 0.0177800582	-0.284627
N	-3.1031415098	-1.9002371089	 0.0193808525	-0.284624
C	-3.5693547845	-0.6769645361	 0.0312522743	 0.371083
C	-5.0013618463	-0.2621265587	 0.1047832331	-0.197281
O	-5.0975313079	 1.0390178908	-0.462436581	-0.427886
N	-2.5428411584	 0.2202058752	 0.0242986855	-0.304091
H	 0.7272864408	 1.792412284	 0.3542514575	 0.297844
H	 0.2861703821	 0.100059161	-1.107753518	 0.117924
H	 0.6516426283	-0.6135129046	 0.4740976582	 0.131907
H	-5.6082727855	-1.0037792108	-0.4310100146	 0.131908
H	-5.3342215163	-0.2585523976	 1.1547217947	 0.117919
H	-5.9839392246	 1.373173367	-0.2983337433	 0.297843
H	-2.6058515822	 1.2247675568	 0.0270435881	 0.286162
