12
gdb 132395	1.76241	1.76231	0.88118	0.0004	60.13	-0.2584	-0.0112	0.2472	1126.2867	0.075931	-529.903101	-529.896388	-529.895444	-529.934465	25.99	
F	 0.0018877706	 0.0292572013	 0.0035187989	-0.074215
C	-0.0164443775	 1.3623199465	 0.010734996	 0.364825
C	-1.2437660343	 2.0108436893	 0.0307221285	-0.421535
C	-1.2293484067	 3.3990261229	 0.0378059174	 0.365003
F	-2.3927683097	 4.0498257443	 0.0569340576	-0.074227
C	-0.0540839521	 4.1378858309	 0.0257853945	-0.42168
C	 1.1408493342	 3.4314461492	 0.0059300914	 0.365029
F	 2.2863099678	 4.1135222957	-0.0059635639	-0.074237
C	 1.1927371235	 2.044186296	-0.0020313084	-0.421356
H	-2.1729091927	 1.4575867461	 0.0403827539	 0.130818
H	-0.068885454	 5.219206381	 0.0316522037	 0.130805
H	 2.136447461	 1.5162822469	-0.0175453596	 0.13077
