19
gdb 40662	3.82606	1.22708	1.03132	2.6539	80.7	-0.2187	0.0101	0.2288	1180.0852	0.161479	-382.011908	-382.004384	-382.00344	-382.044199	29.748	
C	 0.891499018	 1.2124783572	 0.0083991661	-0.246521
N	 1.6874384801	 0.0008650477	-0.2437883663	-0.30688
C	 0.2275783034	-0.1112122926	-0.1116102994	 0.001067
C	-0.2824746465	-0.8486231266	 1.1069547397	-0.009184
C	-1.6639363715	-0.4282605495	 1.5792516625	-0.101456
C	-2.4531636168	-1.4899062518	 1.73854982	-0.086468
C	-1.7308449618	-2.7287881093	 1.3311717356	-0.066052
C	-1.3347053758	-2.7759469608	-0.1059295704	-0.244125
N	-0.3717870581	-2.3224741026	 0.9067037305	-0.102142
H	 1.0432987773	 1.6564487156	 0.9889833997	 0.117806
H	 0.747686588	 1.9318802446	-0.7934724553	 0.11045
H	 1.9560449105	-0.0462272943	-1.2226718451	 0.232206
H	-0.3458049749	-0.2766133025	-1.0217646241	 0.081191
H	 0.4602576296	-0.6792115597	 1.8994383733	 0.09773
H	-1.9386040254	 0.6067885319	 1.7464021223	 0.100201
H	-3.4763841978	-1.4851329224	 2.0938958448	 0.103108
H	-1.8271954206	-3.6411947932	 1.9138097395	 0.094101
H	-1.0674733594	-3.7195937914	-0.5744571789	 0.114956
H	-1.8102316683	-2.0528627204	-0.7642432145	 0.110009
