19
gdb 94903	2.77676	1.65937	1.29746	2.3982	77.3	-0.2217	0.0198	0.2415	1029.785	0.16081	-423.029237	-423.021348	-423.020404	-423.061683	30.53	
O	-0.2623459823	 1.448633645	 0.0525692376	-0.428204
C	-0.0052334357	 0.0555706683	 0.0220810353	 0.072529
C	 0.5535521631	-0.4660451841	 1.37458467	-0.242171
C	-0.6796642953	-0.6084645574	 2.3349770844	-0.325313
C	-1.8426720918	-0.4877184189	 1.3933448119	 0.346895
C	-3.0752622264	 0.0003157989	 1.3854912406	-0.273078
C	-3.5248471158	 0.173384048	-0.0464545176	-0.105643
O	-2.3866147523	-0.1567987523	-0.8528963258	-0.281989
C	-1.3690678069	-0.667090704	-0.0224482047	 0.081209
H	 0.5822007155	 1.9018379041	 0.134305114	 0.28188
H	 0.647311486	-0.2078636747	-0.8215392108	 0.061085
H	 1.033996056	-1.4387609037	 1.2234046943	 0.104713
H	 1.3190986783	 0.2087050524	 1.7692430578	 0.094869
H	-0.6535934532	-1.570281086	 2.8585975406	 0.112984
H	-0.7009224179	 0.1706994001	 3.1012475098	 0.120686
H	-3.6700971701	 0.3237902211	 2.2305387713	 0.098582
H	-4.3715909533	-0.4764554336	-0.3219744277	 0.098274
H	-3.8287312678	 1.2098261279	-0.2527876842	 0.111878
H	-1.17111792	-1.7243888311	-0.2754181269	 0.070816
