15
gdb 116829	15.81541	0.37315	0.36621	5.0335	96.18	-0.2593	-0.0812	0.1781	2753.1175	0.109705	-420.578136	-420.567939	-420.566994	-420.615851	33.133	
O	-0.0995755898	 1.4612527584	 0.0111383525	-0.409384
C	 0.049161367	 0.0546861397	 0.00216187	-0.067159
C	-1.3709914717	-0.5287368482	 0.0122644206	-0.361241
C	-1.3916557764	-1.9791773294	 0.0049431721	 0.266675
C	-1.3980992019	-3.1912060389	-0.0015263694	-0.164897
C	-1.4072683553	-4.5452118117	-0.0087476593	-0.15688
C	-1.41953465	-5.7604064613	-0.0154118921	 0.229944
C	-1.3935603437	-7.1969663118	-0.0235757765	-0.035927
O	-2.3785938204	-7.9010768709	-0.0178595291	-0.222869
H	 0.7750062852	 1.8608939035	 0.0042486061	 0.294388
H	 0.5824943312	-0.2977603779	-0.8929012619	 0.106284
H	 0.5990265228	-0.3073297876	 0.8833012312	 0.106282
H	-1.8983715255	-0.1514201016	 0.8974562141	 0.156163
H	-1.9146455015	-0.1422782266	-0.8590343455	 0.156159
H	-0.37225936	-7.6289493159	-0.0358613127	 0.102462
