25
gdb 114992	3.07932	0.98751	0.79425	0.2593	95.1	-0.2348	0.0303	0.2651	1558.9708	0.229966	-352.388693	-352.378961	-352.378017	-352.423057	37.681	
C	-0.0677273288	 1.562194739	 0.1261292277	-0.390488
C	-0.0137434622	 0.0363403006	-0.00375977	-0.182883
C	 0.7290910973	-0.4772589651	-1.2469104993	 0.026469
C	 2.209719376	-0.055825483	-1.2742160786	-0.244677
C	 3.003015667	-0.7944738601	-2.320959507	-0.083829
C	 2.5604342932	-1.876583603	-2.9591513279	-0.030061
C	 1.2276966681	-2.5310496466	-2.6837317644	-0.028605
C	 1.3493157318	-4.0626866917	-2.678232474	-0.399516
C	 0.6275685632	-2.0054450248	-1.3697487562	-0.198584
H	 0.9285781631	 1.9982394198	 0.2486945924	 0.118017
H	-0.5219885006	 2.0181728254	-0.7610426326	 0.112379
H	-0.6641675559	 1.8606426626	 0.994043772	 0.110366
H	 0.453898225	-0.3920164669	 0.8939514374	 0.090658
H	-1.0388225509	-0.3560746325	-0.0256498545	 0.089259
H	 0.2445421221	-0.0399162357	-2.1334499131	 0.067498
H	 2.297074777	 1.0233485485	-1.4510885734	 0.102013
H	 2.6611291123	-0.223841583	-0.2829495981	 0.100414
H	 3.986986383	-0.3957224831	-2.5591093217	 0.079921
H	 3.1816071296	-2.3429116037	-3.7221721594	 0.075978
H	 0.5417542576	-2.2642189749	-3.5042981473	 0.077719
H	 2.0333301862	-4.3973409605	-1.8903969035	 0.115659
H	 0.3759776915	-4.5331818773	-2.5027148292	 0.109136
H	 1.7339742042	-4.4338214317	-3.6342177416	 0.109075
H	 1.1598622908	-2.4674880205	-0.5254466014	 0.089543
H	-0.4193593707	-2.3227848517	-1.2878415662	 0.084538
