18
gdb 103352	2.89249	1.40802	1.11225	1.9359	68.09	-0.2434	0.0502	0.2937	1100.5353	0.148229	-476.13817	-476.130158	-476.129214	-476.17043	32.207	
O	-0.0295829195	 1.4704979686	 0.1037726284	-0.428611
C	 0.0206001317	 0.0371491835	 0.1233124239	-0.164565
C	-1.3977614328	-0.5158446897	 0.0409077573	 0.459971
O	-2.2004478222	 0.1813721032	 0.9676559992	-0.505811
C	-2.008863341	-0.8350378432	-1.375533127	-0.184346
N	-1.0198838283	-1.9803275387	-1.4136757609	-0.332899
C	-1.6249709349	-2.0489985514	-0.0228248077	-0.161417
C	-3.037806224	-1.7904587714	-0.6712973935	 0.172657
O	-4.1505145608	-1.3549826125	 0.0260839566	-0.441924
H	-0.1604665694	 1.7475619415	-0.8092675862	 0.293143
H	 0.648625219	-0.3669859286	-0.6720347118	 0.134337
H	 0.4569791537	-0.2246979471	 1.0925683703	 0.119854
H	-1.8486766328	 1.0846514768	 0.9764275395	 0.292646
H	-2.1530263201	-0.1704251612	-2.230716868	 0.072247
H	-1.4105445403	-2.7380533762	-1.9811771863	 0.216933
H	-1.3166438706	-2.802404833	 0.7044842645	 0.082082
H	-3.3570133401	-2.616191301	-1.3169040546	 0.078693
H	-3.8576912278	-0.6247689596	 0.5909656763	 0.297011
