15
gdb 51997	6.7342	0.6795	0.63426	2.9741	67.94	-0.272	-0.0388	0.2333	1670.2205	0.110384	-491.097653	-491.088278	-491.087334	-491.133573	31.145	
N	-0.1265044323	 1.0330005382	 0.0039139032	-0.434707
C	-0.3383553922	-0.1986662663	 0.1475066793	 0.14913
O	-0.5499424193	-0.9693977983	-0.9494384714	-0.164
C	-0.8166734109	-2.3295106075	-0.7265929099	-0.223
C	-2.2189945679	-2.5672262502	-0.1837028802	 0.449213
O	-2.9538436557	-1.7294147096	 0.2534759468	-0.318401
O	-2.492518865	-3.9047380976	-0.2497623633	-0.204327
C	-3.7119584496	-4.3440134354	 0.2218041795	 0.119009
N	-3.9411282488	-5.5773865866	 0.1785651861	-0.411008
H	 0.0288138863	 1.4697893231	 0.909823949	 0.234718
H	-0.3598123221	-0.761184512	 1.0895163115	 0.091249
H	-0.7123944899	-2.8418026354	-1.6855900631	 0.167985
H	-0.1000302648	-2.7916683384	-0.0318278144	 0.146835
H	-4.3425571363	-3.5316140578	 0.5824280609	 0.150957
H	-4.8700644316	-5.7720848863	 0.549707696	 0.246349
