21
gdb 71231	2.68903	1.82194	1.67411	1.224	81.19	-0.2347	0.0871	0.3218	954.9319	0.184858	-387.071193	-387.064042	-387.063097	-387.102043	30.645	
C	-0.1124683028	 1.5072063264	 0.0060593538	-0.466477
C	 0.0545883191	 0.0058998878	 0.0039301152	 0.417047
C	 1.0980491948	-0.6691843386	-0.9389102231	-0.284037
C	 1.2924641851	-1.7106130388	 0.1765691915	-0.038834
C	-0.0256146982	-2.5116471531	 0.534634406	-0.052719
C	-0.0792272649	-1.7735328095	 1.9041598262	-0.235031
C	 0.7784891814	-0.6901690905	 1.2376977145	-0.060531
C	-1.1749559346	-1.9884031434	-0.3205344972	-0.088723
O	-1.2372209224	-0.5665762182	-0.2011165837	-0.305133
H	 0.8454444502	 2.0015152905	 0.191960912	 0.110497
H	-0.5027823714	 1.8515497656	-0.9567939119	 0.12198
H	-0.8177318722	 1.8087542176	 0.7870379303	 0.124009
H	 0.7569016257	-0.974233515	-1.9329867916	 0.095463
H	 1.9928584366	-0.0480001355	-1.0456639036	 0.095547
H	 2.225768352	-2.266596932	 0.2751650621	 0.060313
H	 0.023024062	-3.6026565117	 0.5245656249	 0.064539
H	-1.0665973593	-1.4997253229	 2.2880002154	 0.099314
H	 0.4833176809	-2.2985451097	 2.6813970112	 0.094308
H	 1.4340332619	-0.0359387818	 1.8160771046	 0.055436
H	-1.0519031345	-2.2838538259	-1.3733974641	 0.090348
H	-2.1398442293	-2.3759892114	 0.0253280077	 0.102688
