18
gdb 17206	4.35582	1.76663	1.55096	1.7187	71.38	-0.239	0.0733	0.3123	874.0302	0.154702	-347.751229	-347.744395	-347.743451	-347.782251	27.028	
C	-0.2478885578	 1.4105435334	 0.0784582624	-0.319222
C	 1.1759377086	 0.9190539775	-0.048887062	-0.335943
C	 0.0429618888	-0.061276812	 0.0297265787	 0.387812
C	-0.1706163309	-1.1136253861	 1.1376021669	-0.322945
C	-0.6339052878	-2.1090884913	 0.0467590425	 0.129045
O	-2.0547714481	-2.05635264	-0.1925043692	-0.293844
C	-1.8838425255	-1.1524192508	-1.3104223372	-0.077549
C	-0.3680312303	-1.0531618361	-1.0680722855	-0.172173
H	-0.5605188565	 1.8364090347	 1.0265156529	 0.114693
H	-0.7081567427	 1.8731922684	-0.789272525	 0.11123
H	 1.6769854161	 1.0481842953	-1.0033756783	 0.111085
H	 1.8294306723	 1.0106028308	 0.8133164044	 0.112286
H	 0.7534953019	-1.4110074583	 1.6441027246	 0.099088
H	-0.9390343317	-0.8961805744	 1.8841591817	 0.109931
H	-0.2494560084	-3.1320199826	 0.0643403636	 0.074516
H	-2.1636721067	-1.6359872358	-2.2555319515	 0.096545
H	-2.4616162661	-0.2273291336	-1.193386963	 0.101126
H	 0.302998965	-1.190570879	-1.9161025358	 0.07432
