13
gdb 1824	5.85945	2.24095	1.65393	0.6383	56.66	-0.2573	-0.0057	0.2516	706.265	0.103992	-340.699868	-340.693683	-340.692739	-340.730933	22.338	
N	-0.093268901	 1.3098086159	 0.007730445	-0.527711
C	-0.0159496825	 0.0444229751	 0.0009380012	 0.390725
C	-1.2200543752	-0.8880565621	 0.0032772459	-0.281349
C	-0.6375221518	-2.3138008945	-0.0073647428	-0.342522
C	 0.8795963504	-2.1347666061	-0.0151395309	 0.407173
O	 1.7316749364	-2.9871116743	-0.0244361623	-0.349975
N	 1.1182295866	-0.7673872169	-0.0097558285	-0.348745
H	 0.8280808806	 1.7511415914	 0.004563984	 0.21144
H	-1.83080496	-0.6827889695	 0.8852889198	 0.144662
H	-1.8410964867	-0.6739023138	-0.8693850797	 0.144663
H	-0.9152712852	-2.9053264031	 0.8687767356	 0.145539
H	-0.9253218098	-2.896292672	-0.8863160442	 0.145549
H	 2.0617886283	-0.4079592599	-0.0134483232	 0.260552
