16
gdb 128129	3.20892	1.24709	0.9121	2.3786	69.97	-0.1983	0.032	0.2303	1232.6773	0.124846	-471.189409	-471.180369	-471.179424	-471.223239	32.651	
C	 0.1323037548	 1.4692758969	 0.0130825337	-0.331199
N	-0.1500671525	 0.049343777	 0.1566931553	-0.385024
C	 0.5250057122	-0.7180062927	 1.0529519621	 0.54924
C	 0.6973694472	-2.0804111169	 1.1020990703	-0.136418
N	 0.2352738003	-3.00268555	 0.1285656338	-0.631315
C	 1.4286862186	-2.2446601142	 2.3086426604	 0.428888
O	 1.8418761186	-3.4303189345	 2.789504001	-0.426875
N	 1.6924725152	-1.1215695954	 2.932548392	-0.294147
O	 1.0944674275	-0.1216318542	 2.1057291045	-0.240854
H	 1.132670041	 1.673605981	-0.393946575	 0.125699
H	-0.6148112365	 1.90880778	-0.650934713	 0.130557
H	 0.055054445	 1.9560898943	 0.9872495691	 0.158442
H	-0.3733412905	-0.4636945154	-0.6845852256	 0.257596
H	-0.4861459329	-3.614253199	 0.4993489437	 0.24343
H	 0.9854868825	-3.6029758645	-0.1993551703	 0.243743
H	 2.3275763294	-3.2573158826	 3.6070824378	 0.308237
