15
gdb 49634	3.41333	1.63232	1.44254	2.3726	63.33	-0.2561	-0.0276	0.2284	899.3221	0.112627	-457.705017	-457.698374	-457.69743	-457.7367	25.467	
O	-0.6085437139	 0.9052121963	 0.6786038521	-0.24626
C	 0.0948631744	 1.1696528159	-0.2624975202	 0.150209
C	 1.3318062296	 2.0271110565	-0.172612218	-0.091825
C	 1.2310801195	 3.3405928222	-0.9866719171	-0.000913
O	 0.0191666828	 3.9266709829	-0.4340438602	-0.28047
C	 0.7907708437	 4.1466908909	 0.7477874475	 0.061429
C	 2.1131783083	 4.2628942382	-0.012842501	 0.061466
O	 2.827089352	 3.4350470471	 0.8979509964	-0.289953
C	 1.5419341569	 2.7893210636	 1.1489690368	 0.024228
H	-0.124832234	 0.7666078324	-1.2768802974	 0.081767
H	 2.221039581	 1.4396538828	-0.4284674414	 0.113298
H	 1.2735612758	 3.3390406275	-2.0736206593	 0.095906
H	 0.3605499071	 4.8092834567	 1.4945162499	 0.108424
H	 2.6257794174	 5.1507253274	-0.3770424648	 0.105099
H	 1.4619698594	 2.2800791497	 2.1042575066	 0.107595
