24
gdb 100024	2.29998	1.37015	1.15915	2.6579	85.03	-0.2308	0.0744	0.3052	1241.9927	0.214774	-405.520981	-405.510085	-405.509141	-405.556549	40.934	
C	 0.1322385054	 1.3447023388	 0.236160204	-0.245525
O	 0.1257399295	-0.0463088359	 0.0105830811	-0.288248
C	 0.6551854426	-0.5505707657	-1.2282326239	 0.287394
C	-0.2697159302	-0.1437916379	-2.3879422017	-0.427688
C	 2.0868636275	-0.0446551853	-1.4597746523	-0.427616
C	 0.6542124062	-2.0872141441	-1.0475528949	 0.340626
C	 0.9892497633	-2.9209536784	-2.2704276237	-0.46976
C	 0.9951806859	-2.6346588947	 0.2905684253	-0.279686
N	-0.3967953658	-2.6848507124	-0.2064775654	-0.373149
H	 1.1476948728	 1.7555103749	 0.3130992909	 0.111515
H	-0.4125467415	 1.9048205948	-0.5356668877	 0.109566
H	-0.3743909062	 1.5013154484	 1.1921060975	 0.129294
H	-0.3381107343	 0.9441557515	-2.4748384436	 0.111959
H	 0.107567339	-0.5179636884	-3.3426309078	 0.122377
H	-1.2757678834	-0.5434434945	-2.2325461936	 0.127784
H	 2.7165764283	-0.2682317155	-0.5941459365	 0.124354
H	 2.5265630891	-0.5255555953	-2.3366975006	 0.123106
H	 2.1083558198	 1.0343388384	-1.6394030463	 0.11226
H	 1.9843868496	-2.694520999	-2.6672436497	 0.110935
H	 0.9666311994	-3.9786636581	-1.9984148358	 0.128469
H	 0.259570936	-2.776493727	-3.0728499795	 0.119951
H	 1.4938334887	-3.5980180004	 0.3625626959	 0.102399
H	 1.2193532267	-1.9346216373	 1.0879857283	 0.113299
H	-0.9049949382	-1.9268261668	 0.24431639	 0.236382
