19
gdb 92186	2.60896	1.89739	1.70049	1.6112	72.84	-0.2344	0.066	0.3003	903.1902	0.162096	-422.993979	-422.98713	-422.986185	-423.024759	28.826	
O	-0.0052102477	 1.3948290613	-0.1775173757	-0.434252
C	 0.005444852	-0.0157315779	 0.0119808396	 0.10267
C	 0.6764606887	-0.4770137801	 1.3354526087	-0.232302
C	-0.3945628445	-0.616544441	 2.4250964868	-0.077266
C	-1.311026848	 0.6447504388	 2.4341102341	-0.242449
C	-2.1844356474	-0.0768760702	 1.3926908681	-0.067029
C	-1.6134082655	-1.4384237157	 1.8278664428	 0.128054
O	-1.3955277315	-1.8850382041	 0.4804702437	-0.306826
C	-1.4471822915	-0.4848419668	 0.0680546156	 0.083196
H	 0.9056070276	 1.6890162083	-0.2748090939	 0.284283
H	 0.4954590916	-0.5085295453	-0.8403858616	 0.07237
H	 1.1762960595	-1.4365826366	 1.1748764784	 0.109969
H	 1.4406334735	 0.2498356476	 1.635064114	 0.085497
H	 0.0204443936	-0.9519903249	 3.3774715135	 0.062916
H	-1.8563619126	 0.747284432	 3.3770771526	 0.094162
H	-0.8585674536	 1.599451362	 2.1642223221	 0.111541
H	-3.2474714363	 0.1379761911	 1.2846720867	 0.070775
H	-2.098656811	-2.1808546355	 2.463675427	 0.074562
H	-1.9846371068	-0.3472765628	-0.8725780526	 0.080131
