27
gdb 95826	2.608	1.11254	0.85308	0.0764	95.86	-0.2944	0.0813	0.3757	1504.9344	0.254258	-353.5862	-353.576351	-353.575407	-353.620322	38.99	
C	 0.0652302626	 1.6362668112	 0.0377038213	-0.406015
C	 0.0143680622	 0.102566265	-0.015523819	 0.065155
C	 0.5810853282	-0.4326397877	-1.3463228062	-0.186864
C	-0.0315541567	-1.7718380047	-1.7895979506	-0.212339
C	 0.3574716428	-3.0158591023	-0.9779730455	-0.17033
C	 0.1425333851	-2.9523286866	 0.547023854	 0.050365
C	 0.3145162317	-4.3535531429	 1.1527225136	-0.399745
C	 1.1162924894	-1.9580501903	 1.2161541447	-0.199847
C	 0.6935530572	-0.477337547	 1.244293241	-0.198377
H	 1.096233133	 1.9966238967	-0.0640471013	 0.110967
H	-0.5254391183	 2.0842169185	-0.7683097192	 0.106233
H	-0.3231786719	 2.0153362168	 0.989478929	 0.107076
H	-1.0456772955	-0.1867196479	 0.0129770599	 0.066874
H	 0.3729206501	 0.304114632	-2.1323030336	 0.085923
H	 1.6760291538	-0.5087043877	-1.2921267231	 0.087221
H	-1.1255084115	-1.6643710543	-1.7775427986	 0.090478
H	 0.2376805497	-1.9565602274	-2.8371108292	 0.087329
H	-0.2059641572	-3.8676424321	-1.3806006157	 0.0846
H	 1.4176153931	-3.2475092719	-1.1577943556	 0.087531
H	-0.8900486414	-2.6288412322	 0.7448034874	 0.064963
H	 1.3381242528	-4.7199017253	 1.0063893358	 0.110719
H	 0.1174238611	-4.3479152768	 2.2298949632	 0.106877
H	-0.3649297078	-5.0768495623	 0.689434469	 0.10629
H	 1.290816981	-2.267703104	 2.2538552609	 0.085215
H	 2.0898821234	-2.0543469906	 0.7177206158	 0.090345
H	 1.5879766175	 0.1207621387	 1.4667471883	 0.088094
H	 0.0150054755	-0.3141212348	 2.0916738437	 0.091261
