16
gdb 110436	3.60157	1.25303	1.05521	5.4649	68.15	-0.2478	0.0023	0.2501	1114.1258	0.124167	-437.82922	-437.821594	-437.82065	-437.861639	28.751	
O	-0.2069146927	 1.4390186805	 0.1925030149	-0.419604
C	-0.076927759	 0.0592154262	-0.1096727369	-0.105889
C	-1.4401685648	-0.5785767123	 0.0877943255	-0.003381
C	-1.3896824089	-2.1126888374	 0.1383747599	-0.056173
C	-1.2887681418	-2.1318264439	 1.6023125423	-0.054502
C	-1.882332907	-0.6679862234	 1.5837528529	-0.207211
C	-3.2019477868	-1.4116347228	 1.4495269202	 0.437993
O	-4.3346790908	-1.2458079584	 1.7690144366	-0.31293
N	-2.5661596772	-2.6289887594	 0.9323516309	-0.210311
H	 0.6427581351	 1.8645262495	 0.0448026037	 0.29232
H	 0.2499498547	-0.0963192983	-1.1506253671	 0.094488
H	 0.6619789402	-0.4299222002	 0.545531657	 0.091379
H	-2.1661619676	-0.1176161123	-0.591038076	 0.099056
H	-0.9950469005	-2.8029210299	-0.5969035623	 0.11449
H	-0.7739005013	-2.7301940081	 2.3384773398	 0.127219
H	-1.7237275316	 0.1557642705	 2.2722021786	 0.113055
