15
gdb 32397	6.29274	0.82546	0.74334	3.2829	77.96	-0.2324	-0.0263	0.2061	1430.7818	0.114438	-416.855934	-416.847711	-416.846767	-416.889398	29.857	
O	 0.3229395573	 1.0214933103	 0.7902131561	-0.408388
C	 0.0529453764	 0.0261267508	-0.1859682433	-0.16979
C	-1.3746335374	-0.4439861631	-0.1575917648	 0.238572
C	-2.1968946264	-0.4441882809	 0.9567553414	-0.152683
N	-3.4076734537	-0.9545103787	 0.599591354	-0.315422
C	-3.3907991176	-1.289167288	-0.7388676657	 0.239007
C	-2.132377686	-0.9756208618	-1.2284583877	-0.353987
C	-4.5203043009	-1.8354824668	-1.383420242	 0.208218
N	-5.4561361429	-2.2840180179	-1.9010832149	-0.348136
H	-0.2529792543	 1.7706095863	 0.6029227136	 0.282899
H	 0.3106155749	 0.3683533956	-1.200167168	 0.100288
H	 0.738044782	-0.7967522825	 0.0498659593	 0.129023
H	-1.9968638139	-0.1175924472	 1.9640214826	 0.147229
H	-4.2059303485	-1.0590366318	 1.202834818	 0.280656
H	-1.8091351089	-1.1191513842	-2.2479413686	 0.122512
