15
gdb 15556	3.67248	1.80867	1.37852	4.8088	66.28	-0.274	-0.0081	0.2659	882.2804	0.119701	-362.682914	-362.67564	-362.674696	-362.714587	27.131	
O	 0.0887516266	 1.416251848	-0.0374438962	-0.412317
C	 0.0432982925	 0.0092306776	 0.0215930276	 0.121965
C	 0.6067519493	-0.5418930795	 1.3560909854	-0.287694
C	-0.6271190195	-0.7404821547	 2.2017764973	-0.081453
C	-1.7406060539	-0.7364491912	 1.4718177024	-0.06933
C	-1.4273891028	-0.5460720569	-0.0058183173	-0.233489
C	-2.3705163426	 0.3202704934	-0.7105141398	 0.278841
N	-3.1427232197	 0.9894616052	-1.2499710565	-0.324258
H	-0.4232120797	 1.7710357476	 0.699285747	 0.289788
H	 0.6072657562	-0.3326342933	-0.8483190158	 0.105514
H	 1.1352210922	-1.4933115152	 1.2069921702	 0.119494
H	 1.3315494136	 0.1618143028	 1.7776963672	 0.123654
H	-0.5896447954	-0.9016516912	 3.2730358936	 0.110904
H	-2.7514268346	-0.8829097942	 1.8306801051	 0.122271
H	-1.4383717721	-1.5209255684	-0.5144414903	 0.136109
