20
gdb 90961	2.65165	1.69053	1.41439	1.5948	78.47	-0.2394	0.0713	0.3107	1016.6139	0.172343	-403.097817	-403.090011	-403.089066	-403.129635	31.593	
C	-0.1360594802	 1.5621123052	-0.057501494	-0.415916
C	 0.0269165451	 0.0415945672	-0.003630525	 0.01085
C	 0.9370107805	-0.5614603634	-1.1159544247	-0.261858
C	 1.9792895789	-1.2396386779	-0.2421881282	-0.042451
N	 1.22605876	-1.9126524633	 0.9257492733	-0.16365
C	 2.4586330427	-1.6521464287	 1.7918070095	-0.236812
C	 2.3291370179	-0.3494079343	 0.9883213848	 0.339038
O	 3.0523594585	 0.8345877786	 1.0534908028	-0.471831
C	 0.8064934522	-0.4511237687	 1.212009856	-0.013135
H	 0.8382884783	 2.0592204713	-0.0224902674	 0.136038
H	-0.6437894953	 1.8676473964	-0.9782671531	 0.111913
H	-0.7308911357	 1.9285724855	 0.7863060386	 0.111619
H	-0.9595822732	-0.4343361574	-0.017382696	 0.079045
H	 0.4121869921	-1.2750246786	-1.7569007061	 0.106946
H	 1.3829634905	 0.207481294	-1.7552882659	 0.100513
H	 2.7463612724	-1.8640673703	-0.7060538053	 0.06474
H	 2.2433299513	-1.6253420912	 2.8635125315	 0.10157
H	 3.2941831947	-2.323575031	 1.5708323889	 0.092873
H	 3.9665701177	 0.6530884663	 0.8083722217	 0.280786
H	 0.3909337815	-0.2845436298	 2.2080793786	 0.069722
