18
gdb 101281	2.30155	1.20539	0.89745	2.623	72.58	-0.285	-0.0093	0.2757	1312.2262	0.145374	-439.06893	-439.059218	-439.058274	-439.10456	34.503	
C	 0.0766998093	 1.5416239135	-0.636741694	-0.386907
C	 0.1054258364	 0.0642971269	-1.0378897746	-0.215454
C	 1.4832941293	-0.5691904567	-0.8207333053	 0.084514
O	 1.904395703	-0.4761220943	 0.5385255072	-0.42597
C	 1.5891679571	-2.0296964897	-1.2536107676	 0.028969
O	 0.4011465329	-2.7962231468	-1.4698100485	-0.225068
C	 1.2643160217	-2.583998804	-2.5868769919	-0.102085
C	 0.7688771104	-1.7764113392	-3.6809501599	 0.310218
N	 0.406853015	-1.1599542077	-4.5894641041	-0.329117
H	 0.3866580928	 1.673658219	 0.4030343337	 0.124927
H	 0.7543359782	 2.1318682019	-1.2629571856	 0.121151
H	-0.9291446429	 1.9546343003	-0.7527650441	 0.117626
H	-0.6324206274	-0.5076888046	-0.4603227507	 0.103542
H	-0.1863381772	-0.0411442567	-2.0865968697	 0.135946
H	 2.2414309878	-0.0038271371	-1.3780925609	 0.109455
H	 1.2005427826	-0.8385183935	 1.0893450033	 0.28542
H	 2.3659222162	-2.5647042666	-0.7050976222	 0.119026
H	 1.8076641148	-3.4669159047	-2.9211936952	 0.143807
