26
gdb 113706	2.80459	0.97241	0.89945	1.1572	93.79	-0.2155	0.0759	0.2914	1516.8943	0.238055	-369.589335	-369.578146	-369.577202	-369.62547	42.205	
C	-2.8060928756	-1.8819449637	-3.2493548724	-0.370297
C	-1.7342910408	-2.3717243707	-2.275383192	-0.120393
N	-1.6694434446	-1.473123277	-1.1289535578	-0.098748
C	-2.4173706914	-1.809411764	 0.0761119732	-0.279097
C	-0.9260749317	-1.7447835035	 0.1018918014	 0.027243
C	 0.0192804446	-2.9090345089	 0.4433022503	 0.227833
C	 1.3377035725	-2.711610265	-0.333429662	-0.399829
C	 0.3081407841	-2.7905524791	 1.9565319823	-0.39545
C	-0.5259800783	-4.3233097268	 0.1742654386	-0.423902
H	-2.8479195345	-2.5244149731	-4.1348146811	 0.106258
H	-3.7937149572	-1.8921432679	-2.7765432373	 0.116748
H	-2.5958268895	-0.8570937351	-3.5670794456	 0.124132
H	-1.9506151249	-3.4150934404	-2.0007931982	 0.08608
H	-0.7564858233	-2.3634371926	-2.7713042234	 0.100687
H	-3.0214818474	-1.0186027554	 0.5162548125	 0.106758
H	-2.8761158136	-2.7969583364	 0.1189145298	 0.102857
H	-0.5062723708	-0.8154206466	 0.4921335187	 0.08254
H	 1.7610745248	-1.7191848886	-0.1449190077	 0.111551
H	 2.0829374907	-3.4559581085	-0.0313466951	 0.106875
H	 1.1860476428	-2.8093734844	-1.4128364025	 0.116521
H	-0.6074034254	-2.9189932725	 2.5432709425	 0.113849
H	 1.023471751	-3.5568584721	 2.2735161486	 0.107482
H	 0.733237284	-1.8128680082	 2.2066749413	 0.110757
H	-0.653027894	-4.5302154693	-0.8900597789	 0.118283
H	 0.1805438793	-5.0641589328	 0.5649969181	 0.109528
H	-1.4840822607	-4.4930980575	 0.6745534767	 0.111732
