20
gdb 90678	3.27701	1.03713	0.96617	3.3002	80.68	-0.2343	-0.0128	0.2214	1327.8266	0.169264	-403.127979	-403.118673	-403.117729	-403.1627	34.202	
C	-0.7547484381	 0.8885250699	 0.3651156198	-0.405689
C	 0.1749696242	-0.234182156	-0.0553395729	 0.084073
C	 1.3782125842	 0.0344416163	-1.0096613849	-0.289777
C	 2.2494244445	-0.5547331053	 0.0959915491	-0.026068
C	 2.0881834456	 0.2249073421	 1.352849061	-0.105911
N	 1.0856721486	-0.8177026041	 1.0101236376	-0.163253
C	 2.9506996468	-0.0532085643	 2.5524544186	 0.377332
C	 3.1703560184	-1.4960162987	 2.9553233259	-0.491499
O	 3.437695537	 0.8759481709	 3.1591935299	-0.31181
H	-0.2156535985	 1.7734637156	 0.7146594582	 0.126338
H	-1.3778943057	 1.1940140725	-0.4821706577	 0.123048
H	-1.4174644601	 0.5532858874	 1.1694912157	 0.132087
H	-0.4196993001	-1.0734305659	-0.4266086213	 0.092982
H	 1.3481651208	-0.5654383176	-1.9207701333	 0.115732
H	 1.5875658183	 1.0742996082	-1.2771658626	 0.111422
H	 3.0459857893	-1.2793196893	-0.0396317279	 0.099814
H	 1.8266884245	 1.27648443	 1.2767231569	 0.096888
H	 3.7331185139	-2.0310631143	 2.1815715859	 0.136326
H	 3.7299200664	-1.5265990432	 3.89054122	 0.136905
H	 2.2089738799	-2.0074556343	 3.0529693122	 0.161061
