17
gdb 67635	2.42522	1.92126	1.60637	2.4683	70.71	-0.2202	0.0706	0.2908	912.3139	0.136006	-421.765331	-421.758065	-421.75712	-421.796417	30.018	
O	-0.1543712813	 1.3825846962	-0.082710229	-0.464363
C	-0.0063768849	 0.01667597	-0.0544801644	 0.3399
C	 0.8889477951	-0.8365149951	-1.001015419	-0.159996
C	 1.1375659726	-2.1286893856	-0.2425569391	-0.070258
C	 0.9260215031	-1.925323895	 1.2496298754	-0.236562
C	-0.1650733965	-0.8743817174	 1.1825546733	-0.238013
C	-1.0492120918	-1.0660212168	-0.0547843744	 0.339894
O	-2.4196999412	-0.969336326	-0.0833528193	-0.464364
C	-0.1627785035	-1.9284066506	-1.0013605155	-0.159993
H	 0.5422315784	 1.7771234862	 0.454659565	 0.284994
H	 1.4803093884	-0.46747729	-1.8278650445	 0.090739
H	 1.8708462889	-2.8348823978	-0.6169853369	 0.084609
H	 0.5998687076	-2.8444154858	 1.7511617007	 0.094655
H	 1.8321057134	-1.5650862286	 1.7515096221	 0.094657
H	-0.6297087153	-0.4270970851	 2.0541022925	 0.088367
H	-2.7879927985	-1.680416696	 0.4536831289	 0.284995
H	-0.5091510447	-2.5328958227	-1.828522586	 0.09074
