18
gdb 55927	3.80729	1.05397	1.00394	1.5598	72.48	-0.2345	0.0197	0.2542	1254.8172	0.146834	-439.073677	-439.064965	-439.064021	-439.108377	31.401	
C	-0.0830129367	 1.3988924659	-0.1288515404	-0.48043
C	 0.2210411395	-0.0789044791	-0.1585415534	 0.432397
O	 1.1766601686	-0.6112881976	 0.350269104	-0.361546
O	-0.7272394856	-0.7494344403	-0.8454168212	-0.243184
C	-0.5237853884	-2.1593231985	-0.9583692703	 0.162729
C	-1.5569541924	-2.870655398	-1.8846706089	-0.268833
C	-0.3697425808	-3.4038164408	-2.6968790076	-0.049982
N	 0.312461521	-2.2037924399	-3.2292020217	-0.329067
C	 0.6093766484	-2.6609769984	-1.8492927176	-0.072907
H	 0.6614442787	 1.9115165266	 0.4790595978	 0.145295
H	-0.0700767897	 1.7976341006	-1.1474454073	 0.155301
H	-1.0842706099	 1.5717963669	 0.2749307163	 0.147109
H	-0.4701225298	-2.5995555952	 0.0396492686	 0.100789
H	-2.1340316062	-3.6347307658	-1.3612328321	 0.107979
H	-2.2215765406	-2.2025614501	-2.4352488447	 0.119682
H	-0.2708367726	-4.368716739	-3.1767852975	 0.098308
H	 1.0870093279	-2.5271538506	-3.8085905141	 0.231458
H	 1.6171883184	-2.9043488868	-1.54255915	 0.104902
