21
gdb 96113	2.23781	1.73128	1.18835	1.8423	77.41	-0.2573	0.0825	0.3397	1117.0238	0.183212	-424.235572	-424.226892	-424.225948	-424.268406	34.231	
C	-0.1053431177	 1.522700028	 0.0021043141	-0.470878
C	 0.0733159254	 0.0231683104	-0.0256814052	 0.357889
O	-0.7859691244	-0.7192870286	 0.864813324	-0.304195
C	 0.626358864	-0.6964701994	 1.1378306285	-0.005747
C	 1.3671285944	-2.0159619707	 1.014742331	-0.227745
C	 1.6621159328	-2.4034989921	-0.4433029062	-0.216244
C	 0.4636031175	-2.1118015412	-1.3515344515	-0.2295
C	 0.1655981947	-0.6096008525	-1.4104542597	 0.087075
O	-1.0191999401	-0.3371542768	-2.1525315674	-0.441723
H	 0.7893403714	 2.0241528181	-0.3832634323	 0.118402
H	-0.9496887779	 1.81258079	-0.6289354839	 0.137777
H	-0.2885424083	 1.8690836266	 1.0220553247	 0.122468
H	 0.8748634018	-0.0963672584	 2.0148066056	 0.085232
H	 2.2995142273	-1.9557762713	 1.5868844158	 0.099947
H	 0.7550843877	-2.7881270975	 1.4972430351	 0.11619
H	 2.5302859568	-1.8345688026	-0.802445896	 0.09803
H	 1.9411200423	-3.4606365982	-0.5006865074	 0.098772
H	 0.6391084388	-2.4714675151	-2.3698068234	 0.101607
H	-0.4249375512	-2.6302191093	-0.9706932243	 0.101153
H	 0.9668075209	-0.10422466	-1.9653779823	 0.085884
H	-1.7501190363	-0.7206236293	-1.6527442392	 0.285606
