20
gdb 104653	2.30586	1.31091	1.01404	1.1125	77.15	-0.2167	-0.0362	0.1805	1266.2236	0.167801	-440.249392	-440.239505	-440.238561	-440.284487	35.246	
C	 0.3409555709	 1.3470110265	-0.0794921715	-0.26187
O	 0.2021540956	-0.0426311604	 0.1554243665	-0.294346
C	-1.1231305309	-0.5135682973	 0.1148394938	 0.309882
C	-1.8538939123	-0.5008896796	-1.2568147903	-0.23726
N	-1.5043788556	-1.9205907037	-1.4480854325	-0.067741
C	-2.5109199845	-2.8077326465	-1.9858497076	-0.324904
C	-1.1275541284	-2.0654578123	-0.0329389877	-0.211863
C	-1.9085776124	-0.0116580801	 1.3137610415	 0.092773
O	-3.1075668444	 0.092075558	 1.3583903896	-0.249412
H	 1.4015734268	 1.5805485485	 0.0337010308	 0.13724
H	 0.0228934495	 1.6258611939	-1.0928946872	 0.11915
H	-0.2315103508	 1.9506068504	 0.640576652	 0.11317
H	-2.9281550049	-0.3145898897	-1.1131240494	 0.114306
H	-1.4629109734	 0.1726159644	-2.0261893603	 0.106811
H	-2.7357445383	-2.5250206341	-3.019686193	 0.123097
H	-2.1319700026	-3.8352395761	-1.9962644151	 0.122169
H	-3.4579905846	-2.7954374702	-1.4133851281	 0.097756
H	-0.1537242511	-2.5321075659	 0.1452738087	 0.120729
H	-1.8944379651	-2.5489848259	 0.591310876	 0.099686
H	-1.2630198236	 0.22216701	 2.1911964136	 0.090626
