15
gdb 47418	2.90586	1.58451	1.22066	3.1511	60.92	-0.2649	-0.0124	0.2525	996.4963	0.112785	-494.906529	-494.898953	-494.898008	-494.93949	26.954	
O	 0.0313802648	 0.0172626122	-0.1570394193	-0.329361
C	 0.0172793504	 1.2028021832	-0.0182201068	 0.38857
O	-1.113204971	 1.9337233197	 0.174980704	-0.223897
C	-0.757099987	 3.2967608541	 0.3717517738	 0.013372
O	 0.5918119421	 3.4444332656	-0.0159876135	-0.286958
C	 1.188648564	 2.1690592639	-0.0194243176	 0.177398
C	 2.325192856	 1.8876522433	 1.0020476605	-0.113846
O	 3.269695447	 1.6558364835	-0.0558672467	-0.2639
C	 2.2927597755	 1.9464618661	-1.0718477241	-0.112089
H	-1.3878054522	 3.9279181465	-0.2604890191	 0.139131
H	-0.9016186838	 3.5487802641	 1.4318542479	 0.121877
H	 2.5755119938	 2.7643918275	 1.6111511722	 0.115844
H	 2.1892305469	 1.0058341089	 1.6376163229	 0.124533
H	 2.1296372082	 1.099373759	-1.7462533519	 0.12971
H	 2.5270357654	 2.8533101122	-1.6408510922	 0.119615
