14
gdb 7873	3.83321	1.83555	1.25071	0.466	69.3	-0.2633	-0.072	0.1913	916.511	0.108181	-378.790076	-378.782735	-378.78179	-378.821799	26.778	
C	 0.0025873402	 1.4893208647	-0.0177049925	-0.489829
C	-0.0526617025	 0.001980229	-0.0146476486	 0.199102
C	-1.0811137463	-0.8445057273	-0.1631966908	-0.243625
C	-0.6023981594	-2.2411958871	-0.0805240069	 0.397963
N	-1.3438096908	-3.2706162931	-0.1846592226	-0.523485
N	 0.7765479231	-2.1456518732	 0.1268338363	-0.407673
C	 1.1947152201	-0.8184930986	 0.179489877	 0.370423
O	 2.3266266341	-0.4299589066	 0.3469523345	-0.350237
H	 0.6742956232	 1.8473017621	-0.8056134588	 0.151759
H	-0.9859386708	 1.9276877044	-0.1698380696	 0.13151
H	 0.4135478726	 1.8605655647	 0.9274988541	 0.151758
H	-2.1254859742	-0.6160629676	-0.3222680645	 0.132234
H	-0.8055856055	-4.1350180821	-0.0969959879	 0.218359
H	 1.4080721563	-2.9232609394	 0.2271223004	 0.26174
