19
gdb 42814	3.01054	1.47814	1.32147	2.86	79.34	-0.2286	-0.0014	0.2272	1040.798	0.160897	-385.88108	-385.873764	-385.87282	-385.912697	29.84	
O	 0.0017208007	-0.0046025514	 0.0360809737	-0.325674
C	-0.0103470977	 1.1876178095	-0.0264108458	 0.438831
C	-1.0752013713	 2.3034426697	 0.0423888208	-0.144017
C	-0.015921683	 3.009425144	 0.9562777882	-0.250169
C	 1.0309237876	 2.3282918333	 0.009336368	-0.216862
C	 0.7166882269	 3.0161080273	-1.3204417414	 0.41155
C	 1.5319688355	 4.1590023915	-1.8533878138	-0.337693
C	 1.5413659204	 2.8176563691	-2.5576074485	-0.337775
C	-0.8358806154	 3.0077843864	-1.3152702397	-0.305921
H	-2.0997889671	 2.116886179	 0.3570999264	 0.084083
H	-0.0246301317	 4.1016137037	 0.9510536541	 0.10992
H	 0.0031220667	 2.6216363028	 1.9761786045	 0.115959
H	 2.0734170541	 2.1725311207	 0.2794841512	 0.079757
H	 1.0053724343	 4.9807892748	-2.3292599369	 0.111694
H	 2.4235898185	 4.4571436665	-1.3108166119	 0.113186
H	 2.4387852511	 2.2112594551	-2.4876253177	 0.118302
H	 1.0252363864	 2.7365629896	-3.5089483659	 0.114343
H	-1.259456015	 2.4473400279	-2.1539615362	 0.11374
H	-1.2609338209	 4.0165045904	-1.326682429	 0.106747
