17
gdb 72783	2.39998	1.80573	1.38311	3.3812	74.83	-0.2362	-0.0255	0.2107	987.9326	0.135002	-421.808083	-421.800101	-421.799157	-421.840466	30.39	
C	-0.1277160924	 1.5741497612	-0.2318634524	-0.451176
C	 0.0271992632	 0.0821609639	 0.0132258234	 0.318673
O	 1.1314002048	-0.4701234217	-0.7835807875	-0.338238
C	 1.9333658151	-0.6846054948	 0.4244417486	-0.157228
C	 0.6791135276	-0.479334639	 1.2337061289	 0.127613
C	-0.1461732535	-1.1086235665	 2.069210574	-0.197954
C	-1.5761110639	-0.9421587441	 1.5867611099	-0.359196
C	-1.3597058016	-0.6239601043	 0.0708210177	 0.323653
O	-2.0952352075	-0.8966229256	-0.83194206	-0.287469
H	 0.8225892278	 2.0926271318	-0.0786205041	 0.126019
H	-0.454756322	 1.7350957884	-1.2639205985	 0.147143
H	-0.8761678487	 2.0131587446	 0.4362975791	 0.123452
H	 2.3904075146	-1.678340723	 0.4600141656	 0.125879
H	 2.7108587493	 0.0839797102	 0.5133244811	 0.114432
H	 0.1317244491	-1.8030958979	 2.8533166479	 0.110795
H	-2.1826151076	-1.8445571824	 1.7093909401	 0.136981
H	-2.1322061342	-0.1185357709	 2.0541053462	 0.136621
