19
gdb 38296	3.42695	1.67931	1.47893	1.7175	77.99	-0.2327	0.0196	0.2523	940.0576	0.163164	-385.879388	-385.873046	-385.872101	-385.909819	27.168	
C	-0.1562204551	 1.5112695527	 0.1275619243	-0.239379
C	 1.3802039127	 1.4069433751	 0.0188045913	 0.061175
O	 1.3057133345	 0.1781697539	 0.8161726687	-0.299827
C	 0.0474415969	-0.0163245171	 0.0913689681	 0.064152
C	 0.5757344594	-0.3120814989	-1.3429255364	-0.04965
C	-0.3263174997	-0.0193043898	-2.5098160185	-0.093725
C	 0.04458281	 1.0718608593	-3.1811500143	-0.05861
C	 1.2843556548	 1.7244004926	-2.6108186418	-0.295019
C	 1.6489664167	 0.8383128348	-1.3936239953	-0.008926
H	-0.4627054475	 1.8504797265	 1.1170993736	 0.109369
H	-0.7305233866	 1.9970468109	-0.6626223589	 0.103582
H	 2.0615834757	 2.1577169668	 0.4201082676	 0.076267
H	-0.6331195352	-0.7275138222	 0.5598371549	 0.075415
H	 1.000221425	-1.3203645289	-1.3699462938	 0.080213
H	-1.1833772616	-0.6365828106	-2.7584476019	 0.091177
H	-0.4713471556	 1.4736522314	-4.0474934001	 0.092445
H	 2.094638164	 1.7585611788	-3.3492428479	 0.107902
H	 1.0951927776	 2.7687387186	-2.3246469299	 0.103907
H	 2.6707995742	 0.4605697862	-1.4493289896	 0.079533
