20
gdb 8073	3.4902	2.16598	1.7168	0.2122	78.94	-0.2298	0.0251	0.2549	850.9174	0.179287	-311.875552	-311.868658	-311.867714	-311.905859	29.015	
C	-0.0631746503	 1.5419064028	 0.0249698633	-0.477708
C	 0.0258059961	 0.0263139348	 0.0142151461	 0.327747
C	 1.0986397506	-0.6564927456	-0.8922591626	-0.24308
C	 1.1462152878	-1.7863620516	 0.1811575091	-0.064334
C	 0.7257975201	-0.6932870343	 1.2104920695	-0.243079
C	-0.0353322947	-2.7049862038	-0.044417319	-0.058143
C	-1.2287185152	-2.1465135634	-0.2462478644	-0.069455
C	-1.3450040296	-0.6394333109	-0.2404972572	-0.277623
H	 0.9180483335	 1.9934882011	 0.2067961385	 0.107396
H	-0.4363624916	 1.9249758462	-0.932649281	 0.110921
H	-0.7449725077	 1.8944931901	 0.8084751044	 0.110923
H	 0.817147232	-0.937947788	-1.9106067725	 0.08973
H	 2.0229395582	-0.0707643033	-0.9103133029	 0.087849
H	 2.0841681275	-2.3205962095	 0.3381188471	 0.055392
H	 1.5840389412	-0.114077871	 1.5649949237	 0.087849
H	 0.113134227	-1.0074231721	 2.0598735209	 0.08973
H	 0.1066155374	-3.781292605	-0.0380785108	 0.082881
H	-2.1247383515	-2.7368211885	-0.4154503031	 0.083815
H	-2.0633623181	-0.3158144982	 0.5277039768	 0.099595
H	-1.7574830727	-0.2856296598	-1.1973592861	 0.099595
