18
gdb 133879	3.52243	2.18585	1.90252	1.4529	77.63	-0.2229	0.0977	0.3206	796.9713	0.151939	-364.733608	-364.72822	-364.727276	-364.762857	24.82	
C	-1.4654291296	 1.4132199711	 0.5681035953	-0.329036
C	-1.6028057538	 0.0873391604	-0.2453323911	-0.045247
C	-0.7916302605	-0.6767775488	 0.8504632046	-0.048452
C	 0.2789806801	-1.5708433367	 0.2577016417	-0.112693
C	 1.5659625326	-0.7250173786	 0.1841999944	-0.079841
C	 1.3718569407	 0.6148885298	 0.923819884	-0.349398
C	-0.1011564171	 0.7013774571	 0.6045012761	 0.309207
N	-0.2584146586	 0.4155185353	-0.8988464269	-0.147135
C	 0.5923107085	-0.7793213717	-0.9811639457	-0.032642
H	-2.0175062233	 1.47424973	 1.5072693635	 0.097545
H	-1.5173773278	 2.333702672	-0.0142425573	 0.110891
H	-2.4642203155	-0.2444404216	-0.828608088	 0.078823
H	-1.2315711393	-0.911784336	 1.821236657	 0.065396
H	 0.2919236566	-2.6507477316	 0.3126589867	 0.085907
H	 2.5382949398	-1.1987794336	 0.1209655738	 0.086116
H	 1.9652940462	 1.4204464442	 0.4830729308	 0.115531
H	 1.5827921197	 0.5420932906	 1.9943809962	 0.106282
H	 0.8300514411	-1.1943579918	-1.9511780451	 0.088746
