16
gdb 48946	3.87382	1.47957	1.27689	2.4654	68.56	-0.224	-0.0474	0.1765	974.433	0.124263	-437.811813	-437.804805	-437.803861	-437.843519	27.029	
O	-0.7865220593	 0.9536771358	 0.453942378	-0.254148
C	 0.2911242175	 0.7732843775	-0.0552784733	 0.071481
C	 1.3750041161	 1.8086063019	-0.0717967795	 0.325365
C	 1.5483482589	 2.8132987849	 1.0863965417	-0.216219
N	 1.9654455824	 3.9133191664	 0.1457817884	-0.160775
C	 3.3778473917	 3.6530333338	-0.325343287	-0.187341
C	 2.9068296717	 2.53807453	-1.2751630327	 0.087737
O	 2.6384449773	 1.3067620984	-0.5595643091	-0.343511
C	 1.4714922203	 3.0498307132	-1.0152602557	-0.095988
H	 0.5599901235	-0.1757045621	-0.5686615227	 0.094515
H	 0.5829399492	 3.0592646328	 1.5363319403	 0.137309
H	 2.2748607573	 2.5520373868	 1.8601985281	 0.11614
H	 3.7434605142	 4.5322489209	-0.8654629704	 0.117707
H	 4.0912017621	 3.3769393749	 0.4559176888	 0.117011
H	 3.3959552596	 2.3606211553	-2.2346338411	 0.091049
H	 0.7251535974	 3.4207691295	-1.7141741437	 0.099666
