20
gdb 65781	2.70946	1.29076	1.15524	4.021	75.09	-0.2495	0.0257	0.2752	1160.9843	0.171282	-440.316796	-440.307598	-440.306653	-440.351201	33.768	
C	-0.0232302658	 1.6027590511	 0.0034799229	-0.447179
C	 0.059391888	 0.07425892	 0.0180938233	 0.292451
C	 0.8732062273	-0.5191780637	-1.1528255621	-0.304792
C	 1.4851376426	-1.8178766295	-0.570460543	-0.074731
O	 1.2040188737	-1.816700685	 0.8258459103	-0.254324
C	 0.8549832303	-0.4983067707	 1.2100819033	-0.096465
N	-1.2882915855	-0.5199973522	-0.0134225512	-0.298067
C	-2.2218612347	-0.3773494561	 0.9609607033	 0.15867
O	-2.0988481437	 0.290353366	 1.9688368861	-0.33429
H	 0.9796321855	 2.0391697293	 0.0393690231	 0.112759
H	-0.5175817034	 1.95192821	-0.9082118652	 0.114254
H	-0.5935550109	 1.9576067433	 0.8637029065	 0.159634
H	 0.2598310878	-0.691799451	-2.0423862716	 0.103603
H	 1.6554914348	 0.188737981	-1.437115373	 0.116937
H	 1.0477604739	-2.7258940942	-1.0001373144	 0.103604
H	 2.5693299514	-1.8548755846	-0.7467039334	 0.099219
H	 1.749857649	 0.1221969379	 1.384281027	 0.081085
H	 0.2700769195	-0.5428085395	 2.1284974336	 0.144181
H	-1.5109458912	-1.148420825	-0.7686886475	 0.245424
H	-3.1434981487	-0.9494690872	 0.7298387821	 0.078027
