18
gdb 99496	2.60685	1.07072	0.87092	1.4439	75.23	-0.2312	0.0006	0.2318	1396.9856	0.14462	-439.063278	-439.052733	-439.051789	-439.099703	36.182	
C	 0.438074604	-0.9535421455	-1.2059399527	-0.317075
N	-0.2654097825	-0.5869117446	 0.0158541044	-0.275894
C	 0.5077882538	-0.7419326649	 1.2391989533	-0.250372
C	 1.815190299	-0.0576471054	 1.2592807804	 0.351176
C	 2.8672052948	 0.5244678951	 1.2377410201	-0.493091
C	-0.3321017696	-0.1879113434	 2.3993686358	 0.463444
O	-1.1152926041	 0.7190315252	 2.2919044886	-0.360774
O	-0.0562459075	-0.8312659556	 3.5406551646	-0.228818
C	-0.741470033	-0.3408608033	 4.7034906514	-0.24378
H	 0.6759943339	-2.023434742	-1.1839504169	 0.120227
H	-0.2247248795	-0.7791471591	-2.0577248196	 0.123116
H	 1.3771266907	-0.4029993992	-1.3726222596	 0.112719
H	-0.607673898	 0.3675786595	-0.0231304125	 0.237238
H	 0.6744510478	-1.810298195	 1.4229877719	 0.129019
H	 3.8001702242	 1.0321648831	 1.2254591067	 0.202684
H	-0.4849280261	 0.7056451117	 4.8849020769	 0.145753
H	-1.8229946439	-0.4232705322	 4.5728533719	 0.146323
H	-0.405468984	-0.9669535145	 5.5294876151	 0.138104
