18
gdb 111706	2.74014	1.18247	0.9516	3.2584	78.25	-0.2622	0.0087	0.2709	1273.79	0.147412	-401.922505	-401.913839	-401.912895	-401.956248	31.842	
C	 0.1640928044	 1.4743263753	 0.1560940196	-0.378566
C	-0.1814130194	-0.0013428466	-0.0799177831	-0.217619
C	 0.5724100606	-0.5723408502	-1.262207878	-0.081566
C	 1.9146865702	-1.2146723782	-1.1700151181	 0.052932
O	 2.0918975009	-1.9175962881	 0.0532516346	-0.273351
C	 1.0254881553	-2.841098366	-0.2826689519	-0.138836
C	 0.7006436208	-2.0698217577	-1.5665914383	 0.095577
C	 0.3287754358	-2.6514417934	-2.8086686739	 0.19035
N	 0.0180798304	-3.1289520928	-3.81709625	-0.34967
H	 1.2317522925	 1.5991965343	 0.3626086356	 0.127077
H	-0.0822715614	 2.0865495069	-0.7180936358	 0.119264
H	-0.3921821726	 1.8724819	 1.0095133911	 0.120627
H	 0.058149231	-0.5765643042	 0.8189698547	 0.120677
H	-1.2583217941	-0.1106613498	-0.2537038778	 0.110734
H	 0.4579557546	-0.0128981116	-2.1895385037	 0.114652
H	 2.8000033862	-0.9389463077	-1.7315691134	 0.129155
H	 1.4312322156	-3.8367101407	-0.4836693112	 0.135521
H	 0.2502954693	-2.8939789094	 0.4881045398	 0.123042
