23
gdb 81004	2.35109	1.54263	1.2545	1.3978	85.67	-0.2292	0.0907	0.3199	1164.3369	0.205426	-388.288013	-388.278919	-388.277975	-388.320912	36.227	
C	-0.1391278963	 1.6056076223	-0.0491251068	-0.438378
C	-0.0012072484	 0.0892873564	 0.011663558	-0.000438
C	 1.1242736606	-0.576796458	-0.8547866129	-0.090322
C	 2.1113127356	-0.22955948	 0.3022904226	-0.291765
C	 0.8524621322	-0.555046114	 1.1502682742	 0.451514
C	 0.6939995341	-0.2600442755	 2.6145393138	-0.497781
O	 0.6644457247	-1.9666985151	 0.8942206322	-0.336581
C	 0.8927294499	-2.065042428	-0.5370170131	 0.1538
C	-0.2545791522	-2.7769937892	-1.2355256594	-0.415124
H	 0.8159300917	 2.133459585	 0.0170461549	 0.116873
H	-0.6135944433	 1.9072273426	-0.9895220094	 0.117209
H	-0.7747642919	 1.9687692407	 0.7662290472	 0.118092
H	-0.992307307	-0.3653917868	-0.0785580081	 0.067855
H	 1.3104695734	-0.3030667079	-1.8936872443	 0.063358
H	 2.9793937491	-0.8787892696	 0.4449120193	 0.094086
H	 2.4119707736	 0.8169662465	 0.3304646114	 0.09857
H	 0.8064720995	 0.8109239322	 2.806747242	 0.116665
H	-0.2949277394	-0.5742156933	 2.9635209157	 0.125552
H	 1.4461635803	-0.7981338367	 3.1998323289	 0.126347
H	 1.8153487509	-2.6396571878	-0.7036951552	 0.066203
H	-1.1883893885	-2.2115138278	-1.1790711753	 0.118055
H	-0.0110877789	-2.9411498617	-2.2909981085	 0.10964
H	-0.4234639196	-3.7532289942	-0.7711391572	 0.126568
