18
gdb 14731	7.63383	0.57144	0.55165	1.7066	74.94	-0.2457	0.0347	0.2804	1988.4212	0.150931	-384.889563	-384.879351	-384.878407	-384.927048	33.508	
C	-0.0265349364	 1.3417962794	 0.3018723997	-0.229181
O	-0.0411163034	-0.0044084134	-0.1083151553	-0.227173
C	-1.3086674048	-0.6046594927	 0.023583924	-0.043365
C	-1.1837627281	-2.0584645772	-0.4442072594	-0.353064
C	-2.4440155905	-2.7835159655	-0.3560927617	 0.033355
C	-3.497334444	-3.3592345634	-0.2674644464	 0.11507
C	-4.7686406646	-4.0663829949	-0.1896631678	-0.215084
O	-5.02743005	-4.4443763314	 1.1581178988	-0.409574
H	 0.9910001787	 1.7152086564	 0.1635522937	 0.127748
H	-0.7162056392	 1.9589403696	-0.2957449071	 0.104507
H	-0.3038669754	 1.4490891392	 1.3625274463	 0.105821
H	-1.6532670157	-0.5736141687	 1.0698323646	 0.100047
H	-2.0605988329	-0.0754064071	-0.5842726324	 0.095022
H	-0.8141909312	-2.0619161872	-1.4768722333	 0.137611
H	-0.4151521005	-2.5549198248	 0.160255231	 0.140427
H	-5.5685013585	-3.4153205564	-0.579460647	 0.11376
H	-4.7296190317	-4.9489421148	-0.8492557263	 0.115542
H	-5.8690374021	-4.9117102071	 1.1669537486	 0.28853
