17
gdb 80015	2.88183	1.82783	1.63182	3.019	69.55	-0.2445	-0.009	0.2355	881.0973	0.138488	-421.794657	-421.78831	-421.787366	-421.82488	27.452	
O	 0.1244604667	 1.3828906075	-0.1056866426	-0.45876
C	 0.0399076043	-0.0109857677	-0.0154513166	 0.177204
C	 0.4122692502	-0.6302783752	 1.3707130336	-0.158927
C	-0.779755137	-0.1275240235	 2.1947356808	-0.098749
C	-1.8527564319	-0.114479909	 1.3907738997	-0.098741
C	-1.4045173483	-0.6081890266	 0.0094599098	-0.158926
C	-1.0835950845	-2.1062312012	 0.2323650192	 0.052458
O	 0.1904566448	-2.5614550562	-0.2577712679	-0.259796
C	 0.0849197952	-2.1204385457	 1.1078922975	 0.052459
H	-0.4088207686	 1.7486257727	 0.6120557942	 0.273028
H	 0.6436726076	-0.4078275206	-0.8277011434	 0.114019
H	 1.4061989774	-0.4087660619	 1.7581353885	 0.073208
H	-0.7468894366	 0.112548487	 3.2496371124	 0.105512
H	-2.8705765285	 0.1383693223	 1.658433564	 0.105512
H	-2.0519320591	-0.3667153522	-0.8329201471	 0.073209
H	-1.8734549641	-2.8509064926	 0.2589473944	 0.103645
H	 0.2695929524	-2.8769625271	 1.8646575734	 0.103645
