19
gdb 102857	3.45075	0.83539	0.71074	2.5973	78.74	-0.2555	-0.0285	0.227	1549.2387	0.155584	-422.996746	-422.986309	-422.985365	-423.03306	36.786	
O	 0.1472597026	 1.4434435439	 0.0750557257	-0.422508
C	 0.0893648175	 0.0266014502	 0.0668239711	-0.073543
C	-1.3546702434	-0.5004662848	 0.0238666853	-0.00695
C	-2.0689444975	-0.089647478	-1.2806934457	-0.287469
C	-2.2791741133	 1.4036019783	-1.4041744332	 0.150581
O	-1.8128644373	 2.0900200313	-2.2806650327	-0.258763
C	-1.3938613252	-2.0398773239	 0.1853109375	-0.374525
C	-0.8643088255	-2.5097664853	 1.4601240894	 0.294198
C	-0.4345525041	-2.8822740675	 2.5191114711	-0.428323
H	 0.1150570691	 1.7639232616	-0.8316695784	 0.299783
H	 0.6631983005	-0.397300834	-0.7719735908	 0.092675
H	 0.5647847161	-0.3137275941	 0.9913273398	 0.128507
H	-1.8873874403	-0.0542493441	 0.8731240948	 0.101052
H	-1.5141241691	-0.4358002556	-2.1600332925	 0.117381
H	-3.0655703856	-0.553431614	-1.3009262287	 0.1174
H	-2.9297098122	 1.8448103942	-0.6162210374	 0.085144
H	-2.4300619793	-2.3841641287	 0.0780311623	 0.132839
H	-0.834957018	-2.505038351	-0.6385747297	 0.133006
H	-0.054152315	-3.2194091584	 3.4514596819	 0.199514
