22
gdb 22118	2.62425	0.81934	0.7397	0.7189	82.21	-0.2401	0.0143	0.2544	1640.8769	0.190581	-441.449742	-441.438315	-441.437371	-441.487307	40.411	
C	-1.4149027781	-0.8987778426	-0.038980122	-0.397359
C	 0.095311193	-0.7384079656	 0.1719042792	 0.030375
C	 0.6374411315	-1.8161555728	 1.1117640319	-0.068758
O	 0.0101515386	-1.6550610347	 2.3773481234	-0.425004
C	 0.8458744176	-0.7557586771	-1.178869557	-0.287151
C	 2.300664076	-0.3727896133	-1.0892869184	 0.359148
C	 2.6847551558	 1.0289156848	-0.6932709406	-0.469671
N	 3.1486978789	-1.2883865087	-1.372066092	-0.171809
O	 4.4724488328	-0.8260253795	-1.2498418487	-0.401454
H	-1.8222373253	-0.0724963678	-0.6306900927	 0.105712
H	-1.6368139199	-1.8317909258	-0.5713482711	 0.108706
H	-1.9332157519	-0.9265817529	 0.9218025363	 0.134852
H	 0.272041455	 0.2277404354	 0.663651208	 0.084864
H	 0.4251778506	-2.8110395886	 0.6847968567	 0.083865
H	 1.7300038455	-1.7257285596	 1.1971177977	 0.095129
H	 0.3355910502	-2.3443069848	 2.962978518	 0.286392
H	 0.7746006753	-1.7509591357	-1.630313916	 0.11096
H	 0.3422736806	-0.054843305	-1.8582721594	 0.103039
H	 3.1288366602	 1.042005304	 0.3083317684	 0.146286
H	 3.4454607197	 1.4180512486	-1.3755235721	 0.148046
H	 1.8189940379	 1.694220106	-0.6951463557	 0.119673
H	 4.9791064761	-1.5962454644	-1.5271750439	 0.304157
