14
gdb 22003	3.51586	1.33788	1.02273	1.7906	79.42	-0.2276	-0.0756	0.152	1093.8596	0.102068	-432.826591	-432.819215	-432.818271	-432.858531	27.774	
O	-0.2559230955	 1.3577110605	-0.3731991589	-0.386153
N	-0.0400030832	-0.022946734	-0.3825806361	-0.202858
C	-1.0936957643	-0.6658160257	-0.0116002755	 0.261953
C	-1.0192320703	-2.1083339484	 0.1695537401	-0.139543
C	-2.07326407	-2.9552986626	 0.1029438359	 0.004959
N	-3.3572943749	-2.6994493596	-0.324236245	-0.236192
C	-3.9172381398	-1.5413066738	-0.2838941022	 0.080561
N	-3.5306120286	-0.3914582438	 0.3765224402	-0.216942
C	-2.3184183127	-0.0111278037	 0.5143308046	 0.001136
H	 0.6023061647	 1.7031159397	-0.6412244074	 0.315753
H	-0.0360332278	-2.5152808664	 0.3864080593	 0.120561
H	-1.8894031955	-4.009034775	 0.2989008737	 0.118206
H	-4.9067773034	-1.4588869692	-0.7323806143	 0.128909
H	-2.1400265187	 0.8798507221	 1.1179442657	 0.149652
