21
gdb 58537	2.02912	1.45393	1.35258	1.8971	77.95	-0.2345	-0.0292	0.2053	1142.2889	0.179591	-424.23899	-424.228913	-424.227969	-424.273775	37.617	
C	 0.0019231458	 1.4767274618	 0.0197205095	-0.415289
C	-0.0348847216	-0.0589789321	 0.0528309992	-0.01611
C	 0.7022893076	-0.586686781	 1.2932115329	-0.418215
C	-1.4870693515	-0.5734644738	-0.0683275765	 0.325513
O	-2.1330171694	-0.034621325	-1.2104142156	-0.486147
C	-1.6928951104	-2.1176011214	 0.0373743877	-0.283966
C	-2.3414580047	-1.9661126306	 1.4491934415	-0.345096
C	-2.3573927255	-0.4528448276	 1.2100938573	 0.352166
O	-2.9430115277	 0.4756678152	 1.6931054555	-0.317696
H	 1.0332349244	 1.8363909308	 0.0877151197	 0.11331
H	-0.4228558054	 1.8615464494	-0.910673092	 0.117828
H	-0.5585400478	 1.9032228609	 0.859074922	 0.132689
H	 0.481170904	-0.4345636522	-0.8418120848	 0.084729
H	 0.7221417188	-1.679629997	 1.3373849442	 0.116221
H	 1.7408644197	-0.2423111328	 1.2857877596	 0.120879
H	 0.2455534309	-0.2164442439	 2.218553708	 0.125655
H	-2.4946090166	 0.8231161761	-0.9583380433	 0.292517
H	-2.4015265748	-2.4535932486	-0.72017081	 0.124917
H	-0.7903112629	-2.7271363968	-0.0139404622	 0.107826
H	-3.3191109728	-2.4248417399	 1.6154758485	 0.133351
H	-1.6814560798	-2.2472795816	 2.2760282086	 0.134918
