19
gdb 79836	2.62865	1.67889	1.4202	1.0966	73.96	-0.225	0.0722	0.2972	1001.6981	0.159809	-422.991453	-422.983525	-422.982581	-423.023431	31.402	
C	-0.2639615804	 1.5593494857	-0.0451803493	-0.417411
C	 0.0340689943	 0.0678353561	-0.1205059461	 0.014603
C	 0.7543488644	-0.5643405262	-1.3217175379	-0.150558
C	 2.2838618927	-0.422498679	-1.2047780306	-0.15745
C	 2.8731650923	 0.5987203188	-0.2466747485	-0.108313
O	 2.2331364935	 0.3477176856	 1.0143749432	-0.26595
C	 1.1552506454	-0.5535869755	 0.7849519724	-0.015268
C	 1.5580309986	-1.4628472265	-0.4116864546	 0.383342
O	 1.7068966745	-2.83149087	-0.4507586416	-0.466881
H	-0.962558392	 1.8528707283	-0.8366086703	 0.111338
H	-0.725558982	 1.8120475036	 0.9156210353	 0.116716
H	 0.6353269826	 2.1696475113	-0.1472848975	 0.124114
H	-0.8896514443	-0.4989252868	 0.0500677341	 0.077673
H	 0.3135734666	-0.8053687844	-2.2826048489	 0.08885
H	 2.8457920827	-0.7343816164	-2.0776271994	 0.094081
H	 3.9560537492	 0.4582913253	-0.1275978012	 0.099428
H	 2.7035161304	 1.6381802729	-0.5560328121	 0.100851
H	 0.861670399	-0.996845449	 1.7359666112	 0.081907
H	 2.5756193924	-3.0544421636	-0.0971848482	 0.288926
