20
gdb 115923	3.71664	1.17385	0.98397	2.8537	75.63	-0.2432	0.0703	0.3135	1240.8104	0.172296	-440.256338	-440.247966	-440.247022	-440.289489	31.817	
C	 0.0609863889	 1.3657855055	-0.0705360743	-0.241179
O	 0.0971012809	-0.0503260255	-0.0214706797	-0.238829
C	 0.7037924094	-0.5646476774	 1.111773235	 0.232826
C	 0.5261879868	-2.0812870034	 1.1099214209	-0.232587
C	 1.4468602696	-2.7395871668	 2.12849642	-0.048119
N	 2.8432551664	-2.9531648841	 1.6988317148	-0.318448
C	 2.557598344	-1.9511630838	 2.7318332166	-0.039439
C	 2.7257214541	-0.5020717797	 2.3184660374	-0.084255
O	 2.0802077413	-0.2151789347	 1.0943661706	-0.255141
H	 1.0686993378	 1.7919813487	-0.1101069886	 0.130819
H	-0.4859981601	 1.6359907886	-0.9761463393	 0.12618
H	-0.4660819902	 1.7802643067	 0.802509262	 0.101204
H	 0.2527169502	-0.1246624832	 2.0272099108	 0.04095
H	-0.5197117205	-2.3174245191	 1.3283310054	 0.100579
H	 0.754525946	-2.4475908626	 0.1050693036	 0.129409
H	 0.9967014139	-3.5140591939	 2.7443885714	 0.08448
H	 3.2139021366	-3.7974860785	 2.1266897254	 0.229404
H	 2.8438177523	-2.1666151053	 3.7598401176	 0.082763
H	 2.3318080564	 0.1425361194	 3.1245480955	 0.084425
H	 3.7824723561	-0.2571646009	 2.1723845149	 0.114959
