16
gdb 73894	2.30286	1.65691	1.0342	6.2545	75.24	-0.2178	-0.0374	0.1804	1112.9651	0.124083	-437.894596	-437.886414	-437.885469	-437.9273	30.609	
N	 0.0852862683	 1.3383102009	-0.0304212448	-0.579801
C	-0.0071309146	-0.0115224806	 0.007785663	 0.281963
C	-1.1284473273	-0.8014453084	 0.0189915872	 0.150175
C	-2.5015793709	-0.3662589578	 0.0331774014	 0.043737
O	-3.4713777525	-1.1024585429	 0.0491686326	-0.301834
C	-0.7136471088	-2.231915372	-0.0089141814	-0.058894
O	 0.058836204	-2.5963005504	-1.1866111951	-0.26275
C	 0.7540837853	-2.2759091375	 0.014436626	 0.029962
C	 1.2653118237	-0.8409292044	 0.0652995225	-0.34234
H	 0.9797948853	 1.7730344381	-0.1738775593	 0.268434
H	-0.7239069283	 1.9041612279	-0.2218787315	 0.272553
H	-2.6478269039	 0.7424379363	 0.0459207504	 0.023866
H	-1.3621057108	-3.0099009636	 0.3758027728	 0.115369
H	 1.3366331671	-3.0762575908	 0.4620797945	 0.099116
H	 1.9366046862	-0.6122830447	-0.7708779217	 0.132749
H	 1.813449967	-0.63862327	 0.9944844735	 0.127696
