17
gdb 109190	3.5883	1.01581	0.88412	3.3014	74.62	-0.2693	-0.004	0.2653	1334.1685	0.136418	-418.043332	-418.034573	-418.033628	-418.077951	30.881	
C	 0.3829274189	 0.7439016069	 0.6547919235	-0.383708
C	-0.381995734	 0.2833900158	-0.5969974352	-0.27543
C	 0.5219890734	-0.1941684777	-1.6847790248	 0.416784
N	 0.6522625375	 0.2969475109	-2.8461126167	-0.295549
C	 1.6529242827	-0.5006694655	-3.5518458774	-0.206109
C	 2.0710054975	-1.6020647746	-2.5175288135	-0.049476
O	 1.2932298036	-1.2843419034	-1.3501346726	-0.252796
C	 1.7727034482	-2.9686488905	-2.9560656378	 0.273935
N	 1.5528219142	-4.0380979426	-3.3335678024	-0.310769
H	 0.9877516015	-0.0681166626	 1.0658101183	 0.138976
H	 1.0468375222	 1.5817161577	 0.4217704212	 0.1296
H	-0.3195437669	 1.0723224714	 1.4251414328	 0.125917
H	-1.0583220463	-0.5378614308	-0.3317541495	 0.133016
H	-0.985479112	 1.0940200483	-1.009903136	 0.138485
H	 1.2309514097	-0.9330421371	-4.4629793065	 0.144198
H	 2.5067532404	 0.1198995677	-3.8394254183	 0.131519
H	 3.1300111796	-1.5450222239	-2.249732555	 0.141408
