21
gdb 102435	1.71511	1.28877	0.86943	2.7324	86.19	-0.2594	-0.0561	0.2033	1443.3144	0.178957	-387.080532	-387.069586	-387.068642	-387.117308	38.793	
C	-0.1640025831	 1.3183847531	-0.1267893221	-0.391229
C	 0.0004782986	-0.1878426414	 0.0971192811	-0.18986
C	 0.8690278041	-0.5518783248	 1.3306566827	-0.073382
C	 0.1838841843	-0.2451052951	 2.6696257471	-0.182025
C	 1.1186763502	-0.3557893056	 3.8786377028	-0.394659
C	 1.2361040058	-2.031181715	 1.2232636419	 0.220112
O	 0.7166165115	-2.9031675788	 1.8864064429	-0.299719
C	 2.251422858	-2.3552835782	 0.2286009122	 0.276056
C	 3.1036400963	-2.6122074366	-0.5822804114	-0.413248
H	 0.8083349257	 1.804316691	-0.2632559809	 0.118006
H	-0.7604027337	 1.5092326165	-1.0243169523	 0.118154
H	-0.667417774	 1.8081053487	 0.7117542358	 0.124738
H	-0.9820446868	-0.6624208706	 0.2118369674	 0.11087
H	 0.4541162925	-0.6291423958	-0.7978586436	 0.110731
H	 1.8064313619	 0.0171534095	 1.2506128123	 0.086041
H	-0.2343327126	 0.7659081366	 2.6276818679	 0.091488
H	-0.6580376063	-0.9346026007	 2.7914400517	 0.117242
H	 1.5108889995	-1.3709168742	 3.9838300065	 0.134641
H	 1.9684150501	 0.330529906	 3.7882219124	 0.109135
H	 0.5893935354	-0.106854794	 4.8033775675	 0.11364
H	 3.8541665125	-2.8568386408	-1.2942874518	 0.213268
