17
gdb 85142	2.23259	1.63988	1.14913	3.6172	67.84	-0.2641	-0.0037	0.2603	1088.3607	0.135376	-458.966906	-458.958603	-458.957659	-459.000306	30.016	
C	-0.2539035623	 1.51227594	-0.0718565101	-0.411163
C	 0.1164802832	 0.0470945299	-0.0771290994	 0.084864
O	 1.4001492915	-0.1898909154	-0.7696915539	-0.267603
C	 1.9577120342	-0.7507435963	 0.3485848342	 0.424896
O	 3.0552661315	-1.1883102028	 0.4841118027	-0.330883
C	 0.7042649262	-0.5876153753	 1.1988058752	 0.035051
C	 0.733481879	 0.0684138961	 2.5930209324	-0.128631
O	 0.0954891854	-1.0714789916	 3.1978751934	-0.268511
C	 0.0776562234	-1.7815119347	 1.9461181833	-0.129002
H	 0.5274105184	 2.115757311	 0.3995297639	 0.133
H	-0.3926921616	 1.8701080208	-1.0958021684	 0.14294
H	-1.1911698149	 1.6653989457	 0.472865011	 0.13329
H	-0.6569274408	-0.5648398458	-0.5517521804	 0.102525
H	 1.7399794942	 0.2400330482	 2.9922230681	 0.127705
H	 0.137088208	 0.9826882931	 2.696698385	 0.111906
H	-0.9390281003	-2.0477121411	 1.6308006422	 0.111166
H	 0.702125355	-2.6823152719	 1.9710917008	 0.128452
