19
gdb 82892	2.50379	1.96393	1.46964	0.933	74.17	-0.2296	0.0676	0.2972	959.8133	0.159779	-422.983748	-422.976123	-422.975179	-423.015294	30.958	
C	-0.122644765	 1.6174691988	-0.0785266375	-0.438076
C	 0.0211001008	 0.1073133579	-0.0018115169	-0.0383
C	 1.1812684135	-0.6137160051	-0.7406378059	 0.047813
O	 2.3505053336	 0.0746944878	-0.259444265	-0.265844
C	 2.2476399694	-0.3427071201	 1.1086150462	 0.006102
C	 2.4526609714	-1.870526539	 1.0121366446	-0.254481
C	 1.0913860766	-1.805334084	 0.3038366275	-0.102409
C	 0.667505997	-0.6010281546	 1.2060083275	 0.363238
O	 0.0767726831	-0.800597407	 2.4445508877	-0.481714
H	 0.8487671536	 2.1039608613	 0.040075363	 0.131356
H	-0.5411430915	 1.9290884751	-1.0417008318	 0.116479
H	-0.7955814302	 1.9877140581	 0.7034726082	 0.108149
H	-0.9231494985	-0.40603128	-0.2174596336	 0.078085
H	 1.2172154418	-0.7495207157	-1.8194823176	 0.078838
H	 2.8083904239	 0.3148510057	 1.7724401772	 0.07393
H	 3.3376932926	-2.2145542374	 0.4724703876	 0.099232
H	 2.3580066255	-2.3668618678	 1.9803596328	 0.113151
H	 0.4459879157	-2.6524601103	 0.0811042833	 0.079154
H	 0.1202044365	 0.0236548464	 2.9418180726	 0.285296
