16
gdb 133054	4.75026	0.93778	0.79232	2.691	75.09	-0.2319	-0.0057	0.2262	1344.1075	0.124605	-445.912031	-445.904088	-445.903144	-445.945277	29.695	
O	 0.1624393686	 1.0787271175	 0.8690482015	-0.413259
C	-0.039783513	 0.145369974	-0.1796578812	-0.171052
C	-1.4390006819	-0.4180499871	-0.0930821526	 0.279681
C	-2.1281906828	-0.4463047255	 1.1204889027	-0.16437
C	-3.4023411267	-1.0010547198	 1.2036133213	-0.24321
C	-3.9791094389	-1.5341862347	 0.0604489693	 0.292957
F	-5.2041228834	-2.0698912689	 0.1339242966	-0.084938
C	-3.3199655664	-1.5198899562	-1.1607609316	-0.239449
C	-2.0506869321	-0.9541183856	-1.2280880485	-0.177907
H	 1.0988577596	 1.2931473372	 0.9014455829	 0.291086
H	 0.1038058082	 0.6144438026	-1.1661872141	 0.096454
H	 0.6907455384	-0.6784028259	-0.1115296202	 0.103041
H	-1.6622863635	-0.018282851	 1.9992216151	 0.119812
H	-3.9507877338	-1.0240959467	 2.1381326253	 0.108765
H	-3.804702564	-1.9370100288	-2.0355410497	 0.108294
H	-1.5321536281	-0.9286939312	-2.1823475868	 0.094096
