15
gdb 81539	4.22852	1.19557	1.03865	0.9626	63.15	-0.2621	-0.0489	0.2132	1098.2795	0.110745	-494.829413	-494.821792	-494.820848	-494.861389	29.664	
O	 0.1729749063	 1.4363127567	-0.0674257537	-0.445331
C	 0.1131459257	 0.0556236017	-0.0582975191	 0.191521
C	 0.0008295655	-0.6651130561	 1.3224573626	-0.081371
O	-1.3768044227	-0.1225245922	 1.4387971788	-0.338402
C	-1.2923891439	-0.6175513679	 0.0410714496	-0.081364
C	-0.6031044253	-1.9134895804	 0.5914383627	 0.356775
O	 0.2000044686	-2.6579651426	-0.2467897585	-0.487974
C	-1.4756982532	-2.8029420202	 1.4391991098	 0.094612
O	-1.4035743413	-4.0062328995	 1.3217970627	-0.283169
H	-0.4697462856	 1.7344267621	 0.5922937718	 0.292382
H	 0.8174796776	-0.3467067513	-0.7840675541	 0.130347
H	 0.6373708869	-0.6146691231	 2.2063320354	 0.110473
H	-2.1791615891	-0.511072607	-0.5844371607	 0.110472
H	-0.0231681055	-3.5856846817	-0.0557040183	 0.299207
H	-2.1599221339	-2.3130115884	 2.147697421	 0.13182
