21
gdb 83424	3.01331	1.21205	1.05884	1.8027	82.77	-0.2259	0.0746	0.3006	1241.9962	0.182299	-387.031298	-387.022586	-387.021642	-387.065027	33.472	
C	-0.007073839	 1.5290138993	-0.1326213418	-0.423355
C	 0.0867428506	 0.0291831365	 0.0392613418	-0.091339
C	 1.3687995423	-0.7403762968	-0.0965276124	 0.025563
O	 2.4810125193	 0.0315171652	 0.368242864	-0.285221
C	 1.9233616153	 0.051935127	 1.7081064211	-0.154875
C	 0.6673909745	-0.6940441549	 1.2514772591	 0.287627
C	-0.0856562046	-1.7104604844	 2.033149013	-0.108802
C	 0.5663921735	-2.5614516029	 3.0972438306	-0.276824
C	-0.4105518906	-1.4828340587	 3.4933542017	-0.268133
H	 0.9522823117	 2.0050970365	 0.0831217268	 0.136179
H	-0.27243345	 1.7805147343	-1.165026545	 0.11695
H	-0.7685138894	 1.9638085558	 0.5237218037	 0.114079
H	-0.7611305997	-0.528239231	-0.3578412975	 0.084124
H	 1.5726574211	-1.5383080197	-0.8026422272	 0.099102
H	 2.5586049693	-0.5277010632	 2.3875500694	 0.108896
H	 1.8036580666	 1.0694598679	 2.0986996321	 0.102785
H	-0.8637746097	-2.2047514337	 1.4576021039	 0.080565
H	 0.2541011937	-3.5966548596	 3.1797836375	 0.112646
H	 1.6161679844	-2.4001488912	 3.3162657597	 0.114127
H	-0.0109617392	-0.5908170919	 3.9647843039	 0.113065
H	-1.38990312	-1.7733702445	 3.8569736257	 0.11284
