15
gdb 130344	3.09394	1.61901	1.11424	3.7116	68.16	-0.2163	-0.0407	0.1756	1024.411	0.115151	-450.074404	-450.067097	-450.066153	-450.106336	27.781	
N	-0.0431644589	 1.5092027658	 0.2265620576	-0.50093
C	 0.0331898442	 0.0755397945	-0.0258601632	-0.132008
C	-1.4133682541	-0.5432936065	-0.1682410035	-0.163614
N	-1.3586307097	-1.6287369997	-1.1982597482	-0.407902
C	-0.1928637449	-1.3331652125	-1.9099562276	 0.287761
C	 0.6217031024	-0.4337082817	-1.3136552678	 0.327461
O	 1.7440298753	-0.3261298554	-2.0036903959	-0.241752
N	 1.5598172684	-1.2380089492	-3.1486987589	-0.041142
N	 0.4313174642	-1.7968357457	-3.0268991922	-0.212601
H	 0.8740760029	 1.8746534885	 0.4632712513	 0.24222
H	-0.3422519471	 1.9951326833	-0.6148318338	 0.231485
H	 0.5523105117	-0.3748376165	 0.8293255303	 0.11799
H	-1.7769602191	-0.9369344958	 0.7823109681	 0.130687
H	-2.0862965383	 0.2649852667	-0.4825269534	 0.115177
H	-2.199827267	-1.6883999757	-1.7595344227	 0.247169
