21
gdb 40185	3.23398	1.42178	1.19985	1.3486	81.84	-0.2193	0.0753	0.2945	1104.2999	0.185833	-383.224988	-383.217342	-383.216398	-383.256902	31.242	
C	 0.0189355321	 1.5232218957	-0.0126344137	-0.30321
N	 1.2622907681	 0.7354208511	 0.1008772291	-0.350704
C	-0.0415735337	 0.0440539535	 0.0211455038	 0.352582
C	-0.4020006441	-0.7201495615	 1.2784936259	-0.281315
C	 0.3932733046	-2.0336065915	 1.2874491749	-0.224004
C	 0.2879704108	-2.7963807758	-0.022444344	 0.010599
C	-1.0205749422	-3.0535803401	-0.6777916765	-0.246191
N	-0.0698748676	-2.120812254	-1.2825054402	-0.096219
C	-0.4158810136	-0.6884377469	-1.2561166948	-0.229039
H	-0.2419275988	 2.0994883609	 0.871384488	 0.114105
H	-0.1955508717	 2.02446396	-0.9542964432	 0.107816
H	 1.7292667077	 0.7036120903	-0.8028600497	 0.228078
H	-0.1521377383	-0.1273815993	 2.1625781244	 0.106204
H	-1.482956691	-0.9071716995	 1.3068204026	 0.095192
H	 1.446376964	-1.7820081178	 1.4564783804	 0.121902
H	 0.0834310007	-2.6803504606	 2.1168185962	 0.098762
H	 1.0675565612	-3.5452949688	-0.1571229473	 0.087075
H	-1.1951634123	-3.9737862544	-1.2306951924	 0.108068
H	-1.9125569701	-2.641181845	-0.2075510732	 0.103163
H	-1.4949244904	-0.5832482515	-1.4328434831	 0.104268
H	 0.0863086047	-0.2053740451	-2.1055364173	 0.092868
