23
gdb 111747	2.43185	1.234	0.99988	0.9973	86.64	-0.2346	0.0891	0.3237	1341.8518	0.20487	-388.257355	-388.247515	-388.246571	-388.292193	36.515	
C	-0.1379728179	 1.5338208271	 0.163073994	-0.37212
C	-0.2050950727	 0.0151331747	-0.0530460749	-0.295205
C	 0.6565624022	-0.44665157	-1.1981986267	 0.305763
C	 0.3471192396	-0.1775952337	-2.6821126713	-0.275272
C	 0.8626324173	-1.6028253603	-3.0487285779	-0.221616
C	 1.187622752	-1.8612767148	-1.5731931364	-0.186324
C	 2.0991447949	-0.785354272	-1.0461540228	 0.092459
O	 3.0615301017	-0.1583226922	-1.8375410496	-0.241386
C	 4.2437909606	-0.9210705442	-1.9682243199	-0.234046
H	 0.8846071009	 1.8526082833	 0.3895515223	 0.12248
H	-0.4615915878	 2.074271958	-0.7326945561	 0.119884
H	-0.7824766924	 1.8443140613	 0.9913784653	 0.108575
H	 0.101062229	-0.501666787	 0.8653725925	 0.092793
H	-1.2460190924	-0.2824996443	-0.2387553554	 0.093342
H	-0.7248261617	-0.0644392303	-2.8640353007	 0.094823
H	 0.877557412	 0.6642314078	-3.1329580925	 0.107212
H	 0.0660365596	-2.2491157486	-3.4229928147	 0.098715
H	 1.7078940373	-1.6509587808	-3.7412971318	 0.098953
H	 1.05642602	-2.8040281628	-1.0523298377	 0.077285
H	 2.4193489531	-0.9418888929	-0.0124967601	 0.075039
H	 4.7365719833	-1.0735962998	-0.9954390832	 0.10323
H	 4.0448862452	-1.9074413967	-2.4111229267	 0.110815
H	 4.9191056564	-0.3630698118	-2.6213197758	 0.124602
