17
gdb 126926	5.16285	0.92341	0.79161	4.396	80.57	-0.225	-0.0578	0.1672	1421.0072	0.137297	-414.201931	-414.193485	-414.192541	-414.236055	30.23	
C	 0.0272174651	 1.5670568289	 0.0735038307	-0.408806
C	-0.0571967768	 0.0452488754	 0.0140291884	-0.113106
N	 0.7222924389	-0.546572874	 1.0851251424	-0.358641
C	 0.8363508438	-1.8816304354	 1.3146724665	 0.424936
C	 0.3820273382	-2.8763547987	 0.41824798	-0.069996
N	 0.5559909988	-4.1538446525	 0.6935270343	-0.226451
C	 1.1722787078	-4.4185782737	 1.8541714003	 0.077006
N	 1.6019373711	-3.5200310954	 2.735090724	-0.17831
N	 1.4312353563	-2.2352664106	 2.4686246263	-0.270819
H	 1.0641010638	 1.9042069111	-0.0180264734	 0.135842
H	-0.5514395804	 2.0114960502	-0.7398100558	 0.132917
H	-0.3760884529	 1.9454464795	 1.0188993254	 0.130135
H	-1.1099147289	-0.2728364043	 0.0709747816	 0.111263
H	 0.3266506882	-0.3053196238	-0.9532874324	 0.11919
H	 0.9840890813	 0.0336736197	 1.868594179	 0.251297
H	-0.119469484	-2.6225610328	-0.511891342	 0.116824
H	 1.3357532696	-5.4591144836	 2.1128096346	 0.126721
