21
gdb 109126	3.83087	0.9524	0.82793	3.0057	85.53	-0.2334	-0.0103	0.2231	1443.1693	0.182692	-387.137523	-387.128379	-387.127435	-387.171972	34.224	
C	 0.0142860918	 1.6353549785	 0.1859221511	-0.372285
C	 0.0244065885	 0.1170993751	-0.0662960031	-0.27584
C	-1.3507043226	-0.5089027545	-0.0635064854	 0.320435
C	-1.9391306718	-0.9258436545	-1.1877240486	-0.158006
C	-3.2895208002	-1.5899841087	-1.258838752	-0.354934
C	-3.9521006913	-1.7980359015	 0.0985072842	 0.388083
O	-4.7341653485	-2.6969099678	 0.3003498853	-0.311409
C	-3.5618158729	-0.7847203602	 1.1584774294	-0.303769
C	-2.0317670938	-0.664784308	 1.2796248564	-0.307792
H	 1.0333581932	 2.0343267487	 0.1869922983	 0.116066
H	-0.5533214908	 2.1543783004	-0.5926808703	 0.120297
H	-0.4375670776	 1.8855433997	 1.1510574177	 0.11831
H	 0.5111070652	-0.0832479067	-1.026887723	 0.102287
H	 0.6432556538	-0.3657517103	 0.7030178274	 0.101279
H	-1.414994453	-0.8122779034	-2.1349251577	 0.082095
H	-3.9793439918	-0.9865111753	-1.8704897038	 0.132729
H	-3.236408392	-2.5632553217	-1.7606730045	 0.133381
H	-3.9642882244	 0.189013828	 0.8461914717	 0.120096
H	-4.0322707268	-1.0607744756	 2.1048053035	 0.117658
H	-1.6281363591	-1.5532109681	 1.7871068664	 0.121806
H	-1.7857240061	 0.1797806957	 1.9329533968	 0.109511
