18
gdb 66119	2.61247	1.47669	1.31618	3.3457	74.96	-0.2876	0.015	0.3027	1046.4953	0.14869	-401.960203	-401.952126	-401.951182	-401.992576	31.602	
O	-0.0431342112	 1.3754404935	-0.0221830015	-0.459459
C	 0.0138311467	-0.041873044	 0.0050658932	 0.251977
C	 0.6739278922	-0.613353161	 1.2974447959	-0.298719
C	-0.0277616725	-1.9600226463	 1.5610925647	-0.226068
C	-1.422549409	-1.7908399739	 0.9701257631	-0.020397
C	-2.1661533405	-0.5221489347	 1.2969853208	-0.312921
C	-1.3937223925	-0.6256782383	 0.0057763547	-0.031491
C	 0.7405829775	-0.5298067673	-1.1913155069	 0.235884
N	 1.3345126636	-0.8948144358	-2.113566799	-0.34088
H	 0.8564310618	 1.7169650563	-0.0844349164	 0.290037
H	 1.7579629223	-0.7063414162	 1.202603114	 0.117936
H	 0.4727298354	 0.1079999218	 2.0939495588	 0.122463
H	 0.4920675329	-2.7691042851	 1.0366392036	 0.121067
H	-0.0366275585	-2.2157269337	 2.6257299925	 0.108218
H	-1.9964476616	-2.6807198974	 0.7390671092	 0.092348
H	-3.2460720012	-0.5422718406	 1.2049465182	 0.120606
H	-1.8051246496	 0.1318809774	 2.0827870003	 0.123138
H	-1.9295050657	-0.6352679248	-0.9349554853	 0.106262
