15
gdb 5501	3.22635	1.88771	1.19976	4.6092	70.76	-0.2222	-0.0288	0.1934	954.1602	0.119816	-362.721043	-362.713567	-362.712623	-362.752859	27.267	
C	-0.0278530478	 1.5025443233	 0.0431518085	-0.508274
C	-0.0085649429	 0.0030477026	 0.0289380361	 0.174588
C	-0.0268122407	-0.7968705408	-1.0849052218	-0.153881
N	 0.0008895751	-2.1161916697	-0.6737981294	-0.24338
C	 0.0361667291	-2.1804497925	 0.6791543524	-0.12933
C	 0.0316558504	-0.881003924	 1.1645964094	 0.09738
C	 0.0629978228	-0.528266504	 2.5765390458	 0.064727
O	 0.0964971338	-1.3248651467	 3.4935202068	-0.294066
H	 0.8577688659	 1.917911185	 0.5368711817	 0.132943
H	-0.0536350038	 1.8994984842	-0.9755922595	 0.122217
H	-0.9034084658	 1.8949333271	 0.5724398441	 0.132959
H	-0.0567389924	-0.5433626682	-2.1327575491	 0.126376
H	-0.0043193622	-2.911089108	-1.2897628353	 0.269734
H	 0.062009634	-3.1155792996	 1.213922025	 0.153007
H	 0.0542306746	 0.5658540211	 2.7824364253	 0.055
