18
gdb 9044	4.59312	0.90459	0.78806	0.6427	80.28	-0.2566	0.0425	0.2992	1419.7457	0.150413	-310.606869	-310.597294	-310.59635	-310.641374	34.655	
C	 0.109615297	 1.5797053175	 0.0138217206	-0.389548
C	 0.0064246699	 0.041093559	-0.029794703	-0.158998
C	-1.4540445416	-0.4707965539	 0.0073778567	-0.17066
C	-2.1919941662	-0.1340646432	 1.3195775305	-0.370133
C	-3.5350897792	-0.6991527376	 1.3614857403	 0.286641
C	-4.6399126316	-1.1723551819	 1.3706897818	-0.427912
C	 0.6856974479	-0.4835837114	-1.2138812503	 0.306023
C	 1.2261138794	-0.9058575462	-2.2013396635	-0.450143
H	 1.1537419311	 1.8955015469	-0.0514678213	 0.129257
H	-0.4315677398	 2.0247303259	-0.8268252914	 0.128106
H	-0.3062133507	 1.9776885735	 0.9434464368	 0.118509
H	 0.5219592356	-0.3579817697	 0.8562950547	 0.10508
H	-2.0061251825	-0.0520833128	-0.8409364928	 0.11919
H	-1.4516337525	-1.5563059865	-0.1271463589	 0.12284
H	-1.6107256259	-0.5104515392	 2.1724438679	 0.129362
H	-2.2575338752	 0.952391335	 1.4515042563	 0.134731
H	-5.6171121032	-1.5868558157	 1.3894928323	 0.194021
H	 1.7111481376	-1.2847960298	-3.0665187567	 0.193635
