20
gdb 109609	2.47568	1.08538	0.96727	4.9492	81.38	-0.2288	0.028	0.2567	1341.2496	0.170686	-399.318291	-399.307962	-399.307017	-399.353623	37.529	
C	 0.0314041795	 1.5220415453	-0.1636527984	-0.381125
C	 0.0024846597	 0.0378086418	 0.2227253062	-0.201039
C	-1.3857204468	-0.5574556355	 0.0992791511	-0.041877
C	-1.8899542845	-1.2296838717	-1.1596979445	-0.097466
N	-0.9635481065	-1.4348388708	-2.2384324633	-0.512755
C	-1.5933774421	-2.064662575	 0.1075889551	 0.145449
N	-0.4308255817	-2.9301507942	 0.1507680498	-0.57031
C	-2.7313553445	-2.567149775	 0.8318504931	 0.253792
N	-3.6568904849	-2.9722472284	 1.3965790681	-0.348696
H	 1.0376039631	 1.9364439983	-0.0500967042	 0.118691
H	-0.2762826583	 1.673891444	-1.2043722016	 0.108477
H	-0.6449889106	 2.1100643915	 0.4660766667	 0.120682
H	 0.7093119401	-0.5201978397	-0.3959470225	 0.113088
H	 0.3419766632	-0.0817276566	 1.2579695901	 0.117045
H	-2.1507088627	-0.0003553353	 0.6341303298	 0.105259
H	-2.9417793779	-1.0779477246	-1.4005075885	 0.096443
H	-1.3492362051	-2.0690464045	-2.9296793924	 0.242705
H	-0.7469531369	-0.5632261451	-2.7102421103	 0.244813
H	-0.7387614392	-3.8983389773	 0.1425819167	 0.238633
H	 0.0824180962	-2.7813632572	-0.717490631	 0.248192
