21
gdb 41470	3.0921	1.59648	1.31461	1.5252	81.12	-0.2388	0.0859	0.3247	1043.0537	0.185122	-387.074607	-387.067206	-387.066261	-387.106435	30.199	
C	 0.0768867907	 1.5289570053	 0.3837966015	-0.221202
C	 1.4977374353	 1.6495301057	-0.2508500585	-0.319621
C	 1.4424162468	 0.1597740568	-0.6353065366	 0.363003
C	 1.9974365095	-0.4294429211	-1.9188602272	-0.340385
C	 2.082439153	-1.9262147273	-1.5761617041	-0.088981
O	 2.4173627837	-1.9876822956	-0.1911266173	-0.262253
C	 1.8205741984	-0.8832410257	 0.4649132168	 0.084095
C	 0.3178261661	-1.0422252379	 0.8525185033	-0.264411
C	-0.0565954807	 0.0724846708	-0.1536859622	-0.077293
H	 0.0531271268	 1.6023573396	 1.4750515309	 0.098269
H	-0.6561958471	 2.2321756136	-0.0173200006	 0.10148
H	 1.5050420321	 2.3054167165	-1.126585651	 0.100295
H	 2.3184545257	 1.9529132607	 0.4071060199	 0.095301
H	 1.3750841019	-0.2329352165	-2.797153298	 0.099313
H	 2.9984408105	-0.0256167678	-2.1140336551	 0.105406
H	 1.1164049334	-2.4204989666	-1.7675933186	 0.090392
H	 2.8541783559	-2.4683827987	-2.1291039181	 0.107895
H	 2.4939989976	-0.568789493	 1.2680662653	 0.070958
H	-0.0593382848	-2.0311198855	 0.5774736529	 0.105605
H	 0.065480404	-0.8533818719	 1.9004517999	 0.093681
H	-0.8894296589	-0.1147018214	-0.8344975634	 0.058453
