21
gdb 39437	2.40148	1.91116	1.32129	1.4148	81.94	-0.2398	0.0896	0.3294	1034.9731	0.185091	-387.070783	-387.063341	-387.062397	-387.102309	30.824	
C	 0.0053779381	 1.4994136333	-0.0055492638	-0.403261
C	 1.2925750702	 0.7135263577	 0.0285239154	 0.049589
O	 2.0027301894	 0.6900578534	 1.2335922899	-0.255781
C	 2.0471979534	-0.6116390127	 1.8131533291	-0.074938
C	 0.6538777446	-1.0437821831	 2.277591159	-0.2319
C	-0.3583926553	-0.9845664057	 1.1271002988	-0.039616
C	-0.3643276107	-2.1099233587	 0.043812775	-0.229268
C	-0.4539857434	-1.0191099345	-1.0642978153	-0.304731
C	-0.0255186167	-0.0014978764	-0.0072374335	 0.329061
H	-0.2723342729	 2.0182240312	 0.9064583305	 0.116337
H	-0.248420682	 2.0203109773	-0.9238810027	 0.108676
H	 1.9254930926	 0.7079668014	-0.8601173087	 0.080351
H	 2.4684783629	-1.3339994429	 1.0960712275	 0.087229
H	 2.7365575815	-0.5411335843	 2.6591025515	 0.105801
H	 0.6927545923	-2.0544830341	 2.7026022658	 0.094702
H	 0.3438934426	-0.3678404253	 3.0832007791	 0.103278
H	-1.3712394328	-0.8302494345	 1.5146590467	 0.069599
H	 0.5862834948	-2.650071654	 0.0090372779	 0.100808
H	-1.1765548832	-2.8381151096	 0.0969665167	 0.096655
H	 0.1883598556	-1.1352381351	-1.9421164951	 0.096051
H	-1.4829365511	-0.8600180234	-1.4035000538	 0.101358
