21
gdb 89854	2.75654	1.33852	1.04009	1.7113	83.73	-0.2416	0.0167	0.2584	1210.9529	0.183915	-387.092573	-387.084253	-387.083309	-387.125131	33.555	
O	 0.1048995597	 1.4137149346	 0.142773304	-0.437112
C	 0.058593992	-0.0076166409	 0.0243968301	 0.101493
C	-1.3820945791	-0.5410455826	 0.0588084933	-0.313641
C	-1.4175555699	-2.017828656	-0.2889801401	 0.382316
C	-1.1429045029	-3.0116514486	 0.8172218601	-0.29772
C	-2.5325792957	-2.8803645457	 0.2377227921	-0.332603
C	-0.8663352855	-2.3049662981	-1.6783859187	-0.331094
C	 0.3644663015	-1.4875225682	-1.9778809163	-0.054994
C	 0.7814499414	-0.4785349976	-1.2137030908	-0.096299
H	-0.2944165464	 1.7786770769	-0.6550603087	 0.273371
H	 0.5943086348	-0.3628293922	 0.914906009	 0.097941
H	-1.8239646574	-0.3518912036	 1.0423346165	 0.098426
H	-1.9760942608	 0.0251958675	-0.6739385857	 0.083596
H	-0.570769836	-3.9022550497	 0.5794934909	 0.109529
H	-0.9718067239	-2.6294567828	 1.8184537736	 0.110747
H	-3.2999523168	-2.413945992	 0.8469240105	 0.109556
H	-2.8965018319	-3.6835586029	-0.3954047936	 0.107736
H	-0.6400086264	-3.3737997522	-1.7861647073	 0.102647
H	-1.632968773	-2.0925861121	-2.44073526	 0.107999
H	 0.9235879801	-1.7554273342	-2.8718470945	 0.087827
H	 1.6840282462	 0.0743715905	-1.4635754843	 0.090277
