15
gdb 64756	2.74107	1.309	1.11914	5.8781	65.94	-0.2579	0.0043	0.2622	1097.8011	0.111666	-453.971805	-453.962963	-453.962019	-454.005783	31.413	
O	-0.0568776101	 1.4323340482	 0.091301387	-0.465729
C	 0.0137537586	 0.0345740223	 0.0398375519	 0.251725
C	 0.9285354148	-0.5420251357	 1.1370425452	-0.391692
C	 2.2727958691	 0.0274359415	 1.0667000519	 0.26034
N	 3.319625751	 0.512796203	 1.0088887069	-0.299922
C	-1.3959826152	-0.6194803548	-0.0470675349	-0.204153
N	-0.9879665057	-1.1728927145	-1.3440670876	-0.330094
C	 0.2338538301	-0.5526109919	-1.3960077281	 0.379667
O	 1.0959377168	-0.4702650412	-2.2264020351	-0.348258
H	 0.7822337679	 1.7850972355	-0.2325908866	 0.310443
H	 0.5017798022	-0.2994941093	 2.1167922898	 0.163275
H	 0.9880446503	-1.6325545559	 1.0556127146	 0.160206
H	-1.6274552619	-1.3732996663	 0.7115465888	 0.117051
H	-2.1924017685	 0.1269790473	-0.0996170725	 0.136758
H	-1.5208859198	-1.6425434482	-2.0615976613	 0.260383
