18
gdb 95736	2.89418	1.22904	0.90047	5.4121	80.64	-0.2406	-0.0326	0.208	1278.7854	0.149126	-398.163122	-398.15432	-398.153376	-398.196748	32.383	
C	-0.0959898671	 1.5554642773	 0.0125553563	-0.390944
C	 0.0763099603	 0.0365644884	 0.0151242565	 0.054691
C	 0.7613343039	-0.475592338	-1.2638227553	-0.213297
C	 0.9935255178	-1.9861596542	-1.1790850756	-0.174251
N	 1.5861604595	-2.3086138367	 0.1122171883	-0.351149
C	 1.4769554476	-1.4403001272	 1.1671375603	 0.280553
N	 0.8035437733	-0.3551577068	 1.2261825976	-0.310738
C	 2.2257643224	-1.850011072	 2.3429136053	 0.260635
N	 2.8354972544	-2.2075543976	 3.2571575605	-0.323706
H	 0.8779851923	 2.051383292	-0.0516526936	 0.120171
H	-0.7075466689	 1.8804207439	-0.8353652363	 0.10627
H	-0.5767982503	 1.8796785809	 0.9386765907	 0.129919
H	-0.9244265952	-0.4200569295	 0.0761191808	 0.089361
H	 0.1570685869	-0.2445123488	-2.1457313934	 0.10786
H	 1.7233599381	 0.0374999255	-1.3799176095	 0.114024
H	 0.0447962589	-2.5253197691	-1.3067298513	 0.118855
H	 1.6675420689	-2.3227754081	-1.973278904	 0.11883
H	 2.2169444672	-3.0874914999	 0.1941071727	 0.262915
