14
gdb 28698	3.84429	1.01612	0.84589	2.5336	68.31	-0.2189	0.0174	0.2363	1276.7459	0.102628	-432.923858	-432.915916	-432.914972	-432.957279	28.832	
O	 0.3532756576	 1.2504414105	 0.2636390546	-0.419747
C	 0.1231704888	-0.0497784826	 0.0332070111	 0.452988
N	-0.3045612097	-0.5897767728	-1.0759864277	-0.358471
C	-0.3575884642	-1.9459897012	-0.8013778651	-0.174353
C	 0.0356594612	-2.203798855	 0.4791508603	 0.311578
C	 0.1079220688	-3.4722295048	 1.2697507696	-0.457264
C	 1.387753417	-3.6419238806	 1.968338436	 0.255029
N	 2.3885998484	-3.7343797308	 2.5382009063	-0.304063
N	 0.339805032	-0.9550479976	 1.0206887516	-0.360848
H	 0.1526274883	 1.7127077067	-0.5602012246	 0.318393
H	-0.6831505604	-2.6558004998	-1.5466937161	 0.11599
H	-0.6906345966	-3.5335520552	 2.0228417659	 0.163738
H	-0.0415527762	-4.3177758573	 0.5910618801	 0.174128
H	 0.7388978851	-0.7631655895	 1.924943538	 0.282903
