20
gdb 69592	3.35925	1.30219	1.19836	2.1414	78.98	-0.2243	0.0775	0.3018	1129.032	0.171578	-403.11265	-403.104495	-403.10355	-403.14503	32.424	
C	 0.0977449543	 1.5545538954	 0.1989198305	-0.463648
C	 0.145388144	 0.0617351381	 0.0455784544	 0.462924
C	-0.9100245847	-0.8472291334	 0.6206999035	-0.370434
C	 0.5332160822	-0.9206888211	 1.1190563299	-0.225206
C	 1.4104350639	-1.9261900086	 0.4334392939	 0.34631
C	 2.6796473473	-2.3976132968	 1.0360455183	-0.300058
N	 1.5472949204	-3.3286149651	 0.8426020016	-0.364982
C	 1.2250092045	-1.656539891	-1.0636775422	-0.159138
O	 0.7328326582	-0.3244165688	-1.1797012803	-0.299549
H	 1.1036688673	 1.98108379	 0.1353208367	 0.125198
H	-0.5114684549	 2.0011136805	-0.593756877	 0.130251
H	-0.3402502336	 1.8305264886	 1.1618457026	 0.116155
H	-1.6371606519	-0.4023191363	 1.291717038	 0.112377
H	-1.2948918719	-1.6647736063	 0.0204498667	 0.121877
H	 0.7709349479	-0.6093584528	 2.1302623267	 0.087292
H	 3.5435482718	-2.5941001223	 0.4058288328	 0.118166
H	 2.9229098492	-2.0713328179	 2.0447190641	 0.110569
H	 1.0681842542	-3.4823799755	 1.7267579443	 0.231879
H	 2.1534772493	-1.7309394235	-1.637298008	 0.112527
H	 0.5091121924	-2.3786123135	-1.4806324668	 0.107488
