19
gdb 68316	3.56459	1.05282	0.94043	1.8847	82.01	-0.2366	0.057	0.2936	1301.5235	0.156826	-385.796221	-385.787355	-385.786411	-385.829921	33.959	
C	 0.0633776165	 1.4726344868	 0.105842266	-0.516525
C	-0.0110784993	-0.0135884333	-0.055649834	 0.393783
C	 0.6405424055	-0.935161078	-1.121509618	-0.265336
C	 0.0465755246	-1.8107516648	 0.0013049691	 0.04612
O	 0.6161552256	-0.870017025	 0.9946336782	-0.346893
C	-1.2511304151	-0.965241838	-0.036330236	-0.0102
C	-2.1525901872	-0.9557379381	 1.1971557051	-0.395907
C	-3.0055424064	-2.1365230569	 1.2694459909	 0.29869
C	-3.6960974649	-3.120084236	 1.3029197703	-0.451008
H	 1.1061914626	 1.7978808549	 0.1671570226	 0.137182
H	-0.4050853692	 1.9696710996	-0.7495057241	 0.128679
H	-0.4520530862	 1.7925388863	 1.0167821759	 0.1343
H	 0.1847798881	-0.9804006765	-2.1141421031	 0.094327
H	 1.7302655907	-0.9013144403	-1.1488786282	 0.106515
H	 0.1695395088	-2.8759367869	 0.1931094229	 0.100425
H	-1.8255541311	-1.018567655	-0.9659514783	 0.078807
H	-1.5163090922	-0.8925013419	 2.0862855947	 0.148987
H	-2.7796951032	-0.0542726214	 1.1859438412	 0.124823
H	-4.3110768977	-3.9841971556	 1.3482815848	 0.193232
