20
gdb 107165	4.21138	1.02547	0.9618	1.6013	79.86	-0.2347	0.0632	0.2979	1291.5689	0.170565	-403.081459	-403.072828	-403.071884	-403.114798	33.456	
O	 0.2798257821	 1.2690073323	 0.1091870197	-0.412058
C	 0.0090965829	-0.0935199631	-0.194115523	-0.168413
C	-1.4512343199	-0.4186144732	-0.0676536938	 0.315436
C	-2.0648974382	-0.944238785	 1.1737308159	-0.288767
N	-1.9576090385	-1.852557769	 0.0089969264	-0.204132
C	-3.0621447784	-1.4379592831	-0.9023614118	 0.403736
C	-3.5727022875	-2.366944107	-1.9490306576	-0.339867
C	-4.4581369274	-1.9618565921	-0.7827037896	-0.325346
C	-2.5362371155	-0.0091242778	-1.0691960322	-0.396528
H	-0.0166271322	 1.4276574527	 1.0116927019	 0.282354
H	 0.3418122494	-0.2368939212	-1.227673203	 0.113785
H	 0.5902674106	-0.7827299502	 0.437849124	 0.096899
H	-1.4007516399	-1.226025269	 1.9863036353	 0.115043
H	-3.052242595	-0.6093841526	 1.4837109828	 0.115682
H	-3.7951180458	-1.9650070955	-2.932325986	 0.113034
H	-3.1728011745	-3.3751637317	-1.9466711588	 0.125685
H	-4.6510564741	-2.7058517569	-0.0166772126	 0.120528
H	-5.2834385879	-1.2830116012	-0.9722928152	 0.113891
H	-3.187699616	 0.8191136766	-0.7759041931	 0.103916
H	-2.1380487341	 0.1878099471	-2.0678748793	 0.115122
