16
gdb 75684	2.94214	1.3022	1.07537	3.5673	70.44	-0.26	-0.0626	0.1974	1126.2356	0.122219	-437.87399	-437.865437	-437.864492	-437.907484	30.722	
C	-0.0800888425	 1.6351466743	-0.0869245626	-0.415289
C	 0.0718869609	 0.1249614473	 0.0486249981	-0.213638
C	 1.1594408908	-0.6125614935	-0.7519019311	 0.405997
O	 1.4751669453	-0.6869191297	-1.8957044255	-0.286496
N	 1.7090910735	-1.3357398965	 0.3920721222	-0.190111
C	 2.1885638211	-0.2805635585	 1.3211213944	-0.281085
C	 0.731244523	-0.5038206046	 1.2832679749	 0.215678
C	 0.0217142284	-1.2077587222	 2.3858000153	 0.082704
O	 0.57579953	-1.667063274	 3.3521100292	-0.239835
H	 0.8497021194	 2.1600968111	 0.1490892682	 0.128236
H	-0.3573466976	 1.8904343894	-1.1136186147	 0.146895
H	-0.861121282	 2.0116571759	 0.5804971268	 0.130952
H	-0.8850809606	-0.3726534486	-0.1557091252	 0.123659
H	 2.7179359902	-0.694198021	 2.1724004206	 0.166718
H	 2.6084572551	 0.6305802942	 0.9035745631	 0.140901
H	-1.0792701749	-1.2891679837	 2.2529441062	 0.084714
