14
gdb 124312	4.80778	0.94665	0.91791	4.7063	63.58	-0.2701	-0.0702	0.1999	1268.8741	0.098272	-469.970176	-469.961746	-469.960802	-470.005299	28.511	
C	-0.1008393431	 1.5083484697	-0.0422415136	-0.4797
C	 0.0007799478	 0.0039061308	 0.0940012851	 0.389284
O	-0.0301482056	-0.5669766839	 1.1543931229	-0.26647
C	 0.1550194972	-0.7690187119	-1.2302189706	-0.430368
C	 0.1066891073	-2.2410736703	-1.0388606171	 0.447568
N	 1.135638465	-3.0373705329	-1.0605894454	-0.14369
O	 0.6238543294	-4.2665461597	-0.8298738114	-0.137277
N	-0.7577345398	-4.1561669643	-0.6757637269	 0.048188
N	-1.0620780822	-2.9451154007	-0.8014662746	-0.196002
H	 0.7411516497	 1.9036445244	-0.6210122135	 0.14413
H	-1.0146914184	 1.7733130544	-0.5865335992	 0.149932
H	-0.1206103831	 1.9670006316	 0.9465180138	 0.154998
H	-0.6339301013	-0.4544086129	-1.9222619258	 0.155711
H	 1.1100673671	-0.4898265743	-1.6872760839	 0.163697
