17
gdb 29996	3.14387	1.65472	1.15025	0.3709	80.22	-0.1961	-0.005	0.1911	1049.3777	0.138023	-384.721661	-384.714472	-384.713528	-384.753174	28.502	
C	-0.0832298973	 1.5751279534	 0.0475996052	-0.392731
C	 0.0186890388	 0.0394465671	 0.0416647268	-0.199919
C	 0.8173296981	-0.5256371804	-1.1355280208	-0.087249
C	 1.8550731839	-1.2818848912	-0.7228386471	-0.224041
C	 1.86249878	-1.3071121104	 0.7432180434	 0.242017
C	 0.8108564145	-0.5508465837	 1.1626698036	 0.32505
O	 0.7255613602	-0.4992969841	 2.5072537809	-0.204142
C	 1.7744221379	-1.2627219936	 2.9635593039	-0.016215
C	 2.5032423996	-1.7820381924	 1.9331646936	-0.367432
H	 0.912511091	 2.0269477938	 0.0480041711	 0.129461
H	-0.6221952079	 1.9295509478	-0.8362180035	 0.117435
H	-0.6193990878	 1.9227551946	 0.9355665333	 0.126701
H	-0.9988249673	-0.3786588239	 0.0187490192	 0.108554
H	 0.5480846961	-0.3121063499	-2.1619420978	 0.097065
H	 2.5642087832	-1.78843839	-1.3649477094	 0.100908
H	 1.857809963	-1.3324866794	 4.0353237492	 0.132157
H	 3.3724495241	-2.4133222077	 2.0337059184	 0.112379
