18
gdb 106359	3.12699	1.33094	1.13409	4.948	72.18	-0.235	0.0243	0.2593	1105.2546	0.148993	-439.0911	-439.08322	-439.082276	-439.123437	30.888	
O	-0.1143996106	 1.4078413211	-0.0807373483	-0.427483
C	 0.014825843	 0.0013649798	 0.0872531501	-0.203956
C	-1.3677893019	-0.5832865219	 0.0176117458	 0.363943
C	-2.2590501314	-0.5965456951	-1.2656030477	-0.260968
C	-3.0684106961	-1.624683186	-0.3930006294	-0.162961
C	-1.6775736341	-2.0992710143	 0.1404588165	-0.2714
C	-3.5062328929	-0.6668620248	 0.7279811949	 0.41933
O	-4.5985265844	-0.4427188546	 1.1823027287	-0.372558
N	-2.2894210605	-0.0585824112	 1.0564353866	-0.352349
H	 0.7488141877	 1.8117133764	 0.0466712748	 0.29565
H	 0.6391743069	-0.4460199007	-0.7009137512	 0.093713
H	 0.4647664253	-0.247082116	 1.0607321527	 0.102084
H	-2.7479066241	 0.3378538144	-1.5491740262	 0.11485
H	-1.7787019463	-1.0625967147	-2.1297574667	 0.102033
H	-3.8264795907	-2.2935952579	-0.7911374686	 0.089705
H	-1.1387076199	-2.7082590064	-0.5889297994	 0.104703
H	-1.6266986803	-2.5368451885	 1.1396310472	 0.112024
H	-2.2761618297	 0.9334799705	 1.2518041301	 0.253642
