19
gdb 16836	3.60872	1.77976	1.42123	2.0845	70.37	-0.2284	0.0682	0.2966	932.0507	0.166641	-365.043942	-365.036283	-365.035339	-365.075491	30.026	
C	-0.0257402952	 1.5647000305	-0.0107157498	-0.392052
C	 0.0566790758	 0.0433080421	-0.0034186449	 0.06783
C	 0.7200005047	-0.5873492359	-1.2478387207	-0.297002
C	 1.3119009419	-1.91644921	-0.7261061331	 0.118531
O	 2.519656134	-2.3149062325	-1.3574860216	-0.435317
C	 1.5599152009	-1.6415441636	 0.7482158532	-0.019008
C	 2.2487900719	-0.3715418213	 1.086063549	-0.248322
N	 0.7844644082	-0.4691923484	 1.187622642	-0.104658
H	 0.9693678383	 2.0134840135	-0.1003352217	 0.114824
H	-0.6302481224	 1.9155227141	-0.8531820843	 0.113118
H	-0.4809304529	 1.9288066478	 0.9146991785	 0.126484
H	-0.9597623033	-0.3595666346	 0.0939728426	 0.080608
H	 0.0106793312	-0.7303118782	-2.0677798278	 0.095132
H	 1.5372036157	 0.0347770067	-1.6279315159	 0.108833
H	 0.562251013	-2.7190843679	-0.8074192696	 0.067928
H	 2.3108373836	-2.5819096305	-2.258059218	 0.283057
H	 1.6047296195	-2.4882597057	 1.4265104971	 0.087809
H	 2.7574453624	-0.2757069272	 2.0403516944	 0.114939
H	 2.6968585126	 0.201605701	 0.2798100506	 0.117267
