13
gdb 131043	4.70129	1.14186	0.91872	4.3899	70.29	-0.2411	-0.0741	0.1671	1156.2762	0.090961	-448.954458	-448.947215	-448.946271	-448.987175	25.621	
O	 1.8710977828	 4.1985408037	 0.061508812	-0.245651
C	 1.0396072237	 3.3359298463	 0.0544807198	 0.160059
N	 1.2587796331	 1.962002163	-0.0359627069	-0.40362
C	 2.4494660885	 1.2594200171	-0.1386897664	 0.445744
C	 2.407344832	-0.1492314566	-0.2280776755	-0.049576
N	 3.5060001729	-0.8707495132	-0.3271189229	-0.163513
N	 4.6907226684	-0.2472055409	-0.3435533968	-0.194887
C	 4.677357283	 1.078885226	-0.2575579251	 0.107673
N	 3.6145989785	 1.8845947527	-0.1537690078	-0.277203
H	-0.0495383183	 3.530271815	 0.1215179851	 0.093048
H	 0.4226232165	 1.3956345997	-0.0288530063	 0.263695
H	 1.4681499266	-0.6980343202	-0.2190140185	 0.119733
H	 5.6509425523	 1.5607004174	-0.2717645607	 0.144498
