19
gdb 44225	3.83908	1.19499	1.10416	2.8868	79.86	-0.2371	-0.0186	0.2185	1151.8067	0.159102	-385.868856	-385.861033	-385.860089	-385.901574	30.882	
O	-0.3631700293	 0.3605855795	-0.7826387213	-0.298318
C	-0.166909182	 1.3892882635	-0.2032632538	 0.409046
C	-1.0853502259	 2.3971283127	 0.5192608878	-0.359158
C	 0.1753050297	 3.2376965613	 0.8724555998	-0.129759
C	 1.098866101	 2.1800736589	 0.1463045875	-0.144675
C	 1.4626312816	 3.2542908768	-0.9322880294	-0.326505
C	 0.5795094029	 4.2697079505	-0.1868741193	 0.396136
C	-0.2777978063	 5.3516459377	-0.7762812614	-0.320816
C	 0.9237685709	 5.7071380453	 0.0692338586	-0.332107
H	-1.8551518822	 2.8768930444	-0.0918701659	 0.12737
H	-1.5688915246	 1.9358029594	 1.3873266194	 0.130047
H	 0.3023673286	 3.5108171728	 1.9200103901	 0.074241
H	 1.9216348727	 1.6350334225	 0.609314503	 0.091589
H	 2.5259746371	 3.5079882963	-0.9310572825	 0.112797
H	 1.1688323002	 3.0038354227	-1.9557796309	 0.114364
H	-0.219877965	 5.5229829787	-1.846576102	 0.115334
H	-1.2649763793	 5.5112251206	-0.3531249966	 0.113397
H	 0.7480432294	 6.1048576764	 1.0639932565	 0.113537
H	 1.7974595103	 6.11874681	-0.4268153994	 0.113479
