17
gdb 80538	2.64727	1.56628	1.3124	2.866	68.11	-0.2257	-0.0198	0.2059	1021.4474	0.135031	-458.942626	-458.93456	-458.933616	-458.974915	31.016	
C	-0.0480824681	 1.4851401472	-0.0114192904	-0.410299
C	 0.0717746841	-0.0245586639	 0.0992956456	 0.12631
O	 0.9251507923	-0.5557317254	-0.9756288756	-0.296765
C	 1.9498653543	-1.2533050932	-0.2616542869	-0.07227
C	 1.1413884815	-2.0127874314	 0.839563922	 0.105502
O	 1.9102289765	-2.6953007046	 1.7957665068	-0.432153
C	 0.8207558353	-0.5662938127	 1.3315568553	-0.210912
C	 2.2766663439	-0.2577567031	 0.8832553504	 0.44625
O	 3.1991588148	 0.3818277931	 1.2776679661	-0.313145
H	 0.922076416	 1.973321772	 0.116983275	 0.139526
H	-0.4414674033	 1.7534720486	-0.9960232089	 0.13275
H	-0.7356776207	 1.8705241303	 0.7487718652	 0.120163
H	-0.9182535381	-0.4867802744	-0.0011351234	 0.085991
H	 2.6679725298	-1.7091973077	-0.9400137591	 0.096494
H	 0.2884728248	-2.5894950435	 0.4624214215	 0.087082
H	 2.3029252935	-3.4689419563	 1.3779505229	 0.293773
H	 0.4300042333	-0.3517236548	 2.3229550936	 0.101702
