19
gdb 59856	2.88658	1.05252	0.89012	1.4127	73.16	-0.2438	-0.0877	0.1561	1376.7698	0.155252	-460.200132	-460.189622	-460.188678	-460.236566	36.958	
C	-0.0721125941	 1.5084529666	 0.4855324786	-0.395766
C	-0.0426310496	-0.014043332	 0.356737954	 0.145266
O	-0.1939904404	-0.6507706045	 1.6166672137	-0.44101
C	-1.0931918428	-0.5171863552	-0.6650740937	-0.335417
C	-1.1510085098	-2.0287384247	-0.6869293491	 0.309016
O	-0.5004378451	-2.7199876966	-1.435553111	-0.286286
C	-2.1002420253	-2.7064567903	 0.3360418802	 0.308049
C	-2.2085254076	-4.2048366661	 0.2450456397	-0.47367
O	-2.6982810742	-2.0324889569	 1.1469869993	-0.297986
H	 0.6785339967	 1.8319876275	 1.211418255	 0.128926
H	 0.1364229738	 1.9946032608	-0.4733612039	 0.114488
H	-1.053855877	 1.8485801737	 0.8345733399	 0.115039
H	 0.9460232487	-0.3272266387	-0.000397418	 0.103152
H	-1.134295759	-0.6600400081	 1.8383895654	 0.291915
H	-2.0748548286	-0.1150963335	-0.3948016854	 0.122695
H	-0.8237053613	-0.1711083859	-1.6661719733	 0.127126
H	-1.2188090522	-4.6526422849	 0.3797001987	 0.165681
H	-2.9015354478	-4.5738737379	 1.0009463074	 0.142357
H	-2.5392989443	-4.4983888034	-0.7563270176	 0.156427
