17
gdb 110242	2.13514	1.66585	1.10935	4.6309	69.8	-0.2669	0.0028	0.2697	1131.1094	0.133619	-458.950848	-458.942056	-458.941112	-458.984561	31.843	
C	 0.2774546733	 1.0034732139	 0.4402555869	-0.244277
O	-0.395025093	 0.0003521298	-0.3056425121	-0.228216
C	 0.3719042625	-0.5397014285	-1.3114120941	 0.074966
C	 1.4942085157	-1.5707073592	-1.0592897702	-0.406373
C	 1.0030348863	-2.5212066493	-0.0023279313	 0.474641
O	 1.4099573283	-3.0117748843	 0.9992654344	-0.330954
O	-0.2177601057	-2.7531951154	-0.6179494625	-0.278716
C	 0.1795252374	-1.9374163716	-1.7582766693	 0.396771
C	-0.1547535309	-2.462962765	-3.1126000479	-0.491563
H	 1.1742417115	 0.60115303	 0.9292748835	 0.128911
H	 0.5697282612	 1.8501424663	-0.19792195	 0.110517
H	-0.4231441064	 1.3532377263	 1.2001814849	 0.140754
H	 0.6446735782	 0.1566444967	-2.1105732589	 0.103516
H	 2.5091189092	-1.457803062	-1.4132208973	 0.124193
H	-1.2408167845	-2.5055736771	-3.2450037831	 0.149421
H	 0.2583597146	-1.8107395962	-3.8868647715	 0.132871
H	 0.2486040623	-3.4704915743	-3.2475016114	 0.143537
