22
gdb 113208	2.84923	1.00365	0.89803	2.5314	82.2	-0.241	0.0807	0.3217	1412.1553	0.193744	-404.306584	-404.29672	-404.295775	-404.342043	36.831	
C	 0.4817577271	 1.345402298	-0.9822864997	-0.444936
C	 0.0791181735	 0.1235555372	-0.1764834655	 0.30095
N	 1.0833212317	-0.9681634554	-0.1537524335	-0.391076
C	 0.7662269413	-0.2389814706	 1.0953251905	-0.076023
C	 1.936357815	 0.5000687624	 1.7076954928	-0.075348
O	 2.9174694674	-0.4186259608	 2.1604676945	-0.421503
C	-1.368634023	-0.2425456939	-0.3759165454	-0.050291
C	-2.1578358199	-1.1445864753	 0.54001368	-0.296211
C	-2.4587293133	 0.3324259366	 0.4962105891	-0.259763
H	 1.5574492926	 1.5200086636	-0.9443846019	 0.128302
H	 0.2083178212	 1.2040091938	-2.0340617916	 0.116581
H	-0.0363976045	 2.2400055041	-0.6208917789	 0.118862
H	 0.6011933098	-1.8644930134	-0.1526922105	 0.229683
H	 0.1828699107	-0.783983491	 1.834251276	 0.083144
H	 2.365236523	 1.2155434488	 0.9939077876	 0.088261
H	 1.6097221634	 1.0644322375	 2.5878369645	 0.104514
H	 3.1193591982	-0.974407986	 1.3975947756	 0.289485
H	-1.6250520228	-0.3321779473	-1.4298292704	 0.088406
H	-2.8627344764	-1.8271028865	 0.0781953763	 0.11491
H	-1.6921987978	-1.5404406452	 1.4355485228	 0.120715
H	-2.148104163	 0.9254707292	 1.3498537594	 0.116528
H	-3.3796504245	 0.6655821242	 0.0308359583	 0.11481
