21
gdb 71907	3.12992	1.68353	1.60418	1.2082	80.14	-0.2461	0.0841	0.3302	964.2146	0.185824	-387.111252	-387.104291	-387.103346	-387.141995	30.028	
C	-0.0379853053	 1.4671224792	 0.0241277565	-0.479326
C	 0.043567132	-0.0413695365	 0.0002881292	 0.374595
C	 0.6267776621	-0.6883232073	-1.2835918539	-0.242881
C	 0.1926041447	-2.1608199928	-1.1108971129	-0.065099
C	 1.0718372284	-2.8998405377	-0.0729881507	-0.23802
C	 0.2621100295	-2.1909496431	 1.0397916147	-0.065106
C	 0.7078725235	-0.7234759743	 1.225229164	-0.242872
C	-0.9034542801	-1.9786358409	 0.0037537586	 0.112409
O	-1.2776672894	-0.6210341122	 0.0348704011	-0.283672
H	 0.9642134375	 1.9059098622	-0.0010331111	 0.116753
H	-0.5968610243	 1.8372576891	-0.8405979352	 0.123239
H	-0.541342639	 1.8120866377	 0.9322696598	 0.123276
H	 0.1535445725	-0.2371913716	-2.1609171353	 0.098462
H	 1.7105171654	-0.568163067	-1.3740946988	 0.092416
H	-0.0525359079	-2.6655267216	-2.045909562	 0.063012
H	 0.892497042	-3.9790064409	-0.0823134107	 0.095616
H	 2.151600358	-2.7213603905	-0.1053835382	 0.088947
H	 0.0773790208	-2.7218488597	 1.9741846579	 0.063012
H	 1.7953034497	-0.6049188982	 1.2488586035	 0.092415
H	 0.2927138665	-0.2974911438	 2.1435705923	 0.09846
H	-1.7717123366	-2.63422575	 0.0226292913	 0.074364
