20
gdb 22084	3.6237	1.0134	0.97132	0.9692	78.63	-0.2455	0.0051	0.2506	1309.3084	0.168823	-440.261999	-440.252573	-440.251629	-440.295873	35.854	
C	 0.0583333867	 1.4043111885	 0.2121955206	-0.417763
C	-0.0493829527	-0.1017961778	-0.0664148617	 0.377632
C	-1.5036901291	-0.551811915	-0.1330889413	-0.430943
C	 0.7809573299	-0.506983757	-1.3082391542	-0.343481
C	 2.141058644	-0.7431497437	-0.7081940929	 0.364269
C	 1.9609270054	-0.9468717623	 0.7788673467	-0.160252
O	 0.5656382748	-0.8433357144	 1.0093971574	-0.29691
N	 3.2221096891	-0.7258966367	-1.3744878426	-0.218716
O	 4.3240528499	-0.977478884	-0.5314044553	-0.398121
H	 1.1028966967	 1.7310316479	 0.235633847	 0.120203
H	-0.4550521046	 1.9824493354	-0.5629062441	 0.114633
H	-0.3955135791	 1.6390397964	 1.1789572228	 0.12415
H	-2.0249524505	-0.0578811455	-0.9589269901	 0.115226
H	-1.5605590449	-1.6339478966	-0.2789094974	 0.12026
H	-2.0223679774	-0.303885696	 0.7975402607	 0.124627
H	 0.3889754586	-1.4403959054	-1.7299911799	 0.120366
H	 0.7920710891	 0.2448173509	-2.0995747933	 0.12392
H	 2.3087364777	-1.9323891993	 1.1082551212	 0.13227
H	 2.5365437457	-0.1937509611	 1.3381848289	 0.120987
H	 5.0657532806	-0.9245615344	-1.1430849725	 0.307643
