25
gdb 122683	4.75536	0.59836	0.55371	1.2867	89.4	-0.2611	0.081	0.342	2055.1423	0.229872	-389.508503	-389.498034	-389.49709	-389.546168	37.659	
O	-0.0900322255	 1.5033915152	 0.1233406919	-0.42247
C	 0.029423057	 0.0880809754	 0.1030353527	-0.073807
C	-1.3695035804	-0.5030749996	-0.0067743409	-0.169696
C	-1.367725139	-2.035232551	-0.0435794166	-0.210285
C	-2.7639051177	-2.6606055295	-0.1006462	 0.053851
C	-3.5712653965	-2.3504660364	-1.3797133494	-0.199369
C	-4.644771044	-3.4678859035	-1.4803525126	-0.206313
C	-4.2060495237	-4.5739695558	-0.4778389889	-0.205562
C	-2.7714018226	-4.1988391519	-0.0672395451	-0.21166
H	 0.7927002385	 1.878334832	 0.1911702364	 0.283791
H	 0.6427027512	-0.2471708286	-0.7500286486	 0.081586
H	 0.519281966	-0.2831996681	 1.0186950855	 0.081324
H	-1.9633452671	-0.1472419972	 0.8445967171	 0.101802
H	-1.8434800881	-0.0980322491	-0.9082058951	 0.108259
H	-0.788464828	-2.3816368461	-0.9120454268	 0.088494
H	-0.8422824438	-2.416219092	 0.8433200245	 0.088039
H	-3.3391669129	-2.3019629213	 0.7666653682	 0.064997
H	-4.0093237472	-1.3488390815	-1.3737791884	 0.096565
H	-2.8968470916	-2.394996257	-2.2446809842	 0.09097
H	-5.6396044408	-3.0884472373	-1.2296255266	 0.096845
H	-4.7108176656	-3.8545799796	-2.501397943	 0.096722
H	-4.8561792018	-4.5609651501	 0.4039344977	 0.096158
H	-4.2739779258	-5.5791334782	-0.903171308	 0.092089
H	-2.0515109763	-4.5790939918	-0.8051424856	 0.089482
H	-2.4821221643	-4.608109047	 0.9059727058	 0.088189
