16
gdb 35577	2.93239	1.53675	1.29035	3.9722	67.58	-0.273	0.0225	0.2955	989.1637	0.126158	-437.884404	-437.87711	-437.876166	-437.91674	27.341	
N	-0.3045596685	-1.1237927426	-0.6267744226	-0.331926
C	-0.189341339	-0.0098985316	-0.3386005039	 0.299622
C	-0.0325182667	 1.3780153881	 0.0519130814	-0.212571
C	-0.0267056297	 1.690900329	 1.5881509401	-0.278179
C	 1.3687166886	 2.3658317842	 1.4517923986	 0.085489
O	 2.4587400796	 1.6793908334	 2.0278369639	-0.245841
C	 2.7717069083	 0.6209434349	 1.1476297515	-0.001878
O	 2.4869884999	 1.080016214	-0.1648125308	-0.235269
C	 1.4230330954	 1.9858954183	-0.0594896946	 0.080372
H	-0.7549553817	 1.987959382	-0.4965555703	 0.127979
H	-0.8327224503	 2.3517290776	 1.9102174919	 0.124139
H	-0.0161182667	 0.8068906716	 2.2272131258	 0.13629
H	 1.4309633589	 3.4153482393	 1.7396717541	 0.100754
H	 3.8379283423	 0.3956126511	 1.2218261825	 0.133598
H	 2.1725111305	-0.2750654931	 1.3743949469	 0.111917
H	 1.5394173191	 2.7580010538	-0.8204078745	 0.105503
