15
gdb 80252	2.49025	1.66954	1.30362	3.319	60.68	-0.2684	-0.0015	0.2669	973.1228	0.112986	-494.901448	-494.894065	-494.89312	-494.933081	28.82	
O	 0.1100202853	 1.4793221125	-0.107369457	-0.439706
C	 0.0526446606	 0.096994833	-0.0257166807	 0.175773
C	 0.1227957721	-0.6120058514	 1.3509541912	 0.010646
O	-0.992119561	-0.0007169834	 2.0622855195	-0.261829
C	-2.0104366115	-0.0480934107	 1.1180751598	 0.429291
O	-3.1159473581	 0.348418227	 1.3210079916	-0.338753
C	-1.3299433313	-0.6782189695	-0.0768516755	-0.304147
C	-0.5612982931	-1.8297869521	 0.6944163726	 0.124205
O	 0.3324114059	-2.5961119307	-0.0613347396	-0.433951
H	-0.3715388365	 1.855369098	 0.6402326766	 0.300488
H	 0.7562774825	-0.3167319621	-0.7446869229	 0.127621
H	 0.9972974661	-0.6640635821	 1.9949002819	 0.107843
H	-1.9260398573	-0.8258285221	-0.9730296075	 0.100986
H	-1.1726207619	-2.4359240222	 1.3726359138	 0.103311
H	-0.1679128219	-3.2560345842	-0.5519642838	 0.298222
