13
gdb 67556	2.57618	1.89951	1.54958	6.0271	56.76	-0.2697	-0.0121	0.2576	861.9507	0.087723	-493.647241	-493.640224	-493.639279	-493.678609	26.705	
O	-0.0676741477	 1.4508990376	 0.0710979368	-0.452918
C	 0.0498406591	 0.0814739502	-0.0137247221	 0.186138
C	 1.240496966	-0.6466894042	 0.7007794543	-0.068418
O	 0.9797287871	-2.0448768218	 0.6653308944	-0.20673
C	 1.5344326485	-1.4446385463	-0.5052281403	-0.0003
C	 0.3616309881	-0.7699098409	-1.2804700145	-0.004874
O	-0.9119222998	-1.4531678761	-1.1500781819	-0.243522
C	-1.2751361655	-0.7232711814	-0.0307208576	 0.442706
O	-2.2905296664	-0.7746557556	 0.5743831487	-0.312124
H	 0.8089600677	 1.8478397189	 0.1235199614	 0.298188
H	 1.8694027057	-0.2576838848	 1.4950681921	 0.123779
H	 2.4608766018	-1.853215137	-0.8902142242	 0.125476
H	 0.5383758255	-0.3640906186	-2.2738957972	 0.1126
