18
gdb 99157	4.00787	0.82299	0.7251	0.3657	69.48	-0.2511	0.0034	0.2545	1550.1209	0.145412	-476.21809	-476.20798	-476.207035	-476.255055	34.984	
N	-0.2403119675	 1.1940457289	-0.1600888464	-0.484023
C	 0.2444207547	-0.1687280751	-0.0556964864	-0.277488
C	 0.9396866114	-0.5117534631	 1.2587104083	 0.421023
O	 1.1033051367	 0.2445232047	 2.1783178008	-0.345427
O	 1.3669976829	-1.7999043922	 1.2512916689	-0.263585
C	 2.0262957151	-2.2670052612	 2.4170605376	 0.075648
C	 1.2643996549	-3.219498796	 3.3032350442	-0.338426
C	 2.3352263275	-3.7317098025	 2.3591436961	 0.103487
O	 1.9744515816	-4.4620845478	 1.2291777856	-0.43027
H	-0.8743739318	 1.3825196777	 0.6114138883	 0.238313
H	 0.535601059	 1.8356576617	-0.0220767043	 0.237941
H	-0.5860423164	-0.8724925175	-0.1890280942	 0.140419
H	 0.9442860694	-0.3810382393	-0.8726288404	 0.140786
H	 2.7160599829	-1.5472399868	 2.8391693013	 0.126658
H	 1.4539147993	-3.1915739755	 4.3705806342	 0.123665
H	 0.2407972139	-3.4332604644	 3.0153990814	 0.127538
H	 3.2762649047	-4.0685056884	 2.7850147043	 0.107644
H	 1.6637263417	-3.8335556131	 0.5670380006	 0.296098
