19
gdb 92643	3.20167	1.4115	1.06143	2.7612	77.6	-0.221	0.0228	0.2439	1142.6328	0.16172	-419.202205	-419.194037	-419.193093	-419.235027	30.813	
O	 0.4897510713	 1.2342907078	 0.1759212759	-0.435022
C	 0.017850815	-0.078907945	 0.0675868326	 0.040718
C	-1.5251524224	-0.2973711039	-0.1653459694	-0.212073
N	-1.1585670228	-1.1708921799	-1.3010135148	-0.088172
C	-1.8062445011	-1.3899761303	-2.5793691352	-0.170592
C	-0.7301909191	-2.0032306235	-3.4944601098	-0.218272
C	 0.5649142991	-1.1592698634	-3.5241562198	-0.154666
N	 1.0237922109	-0.6521988607	-2.2193527514	-0.360301
C	 0.1533943797	-0.7237804256	-1.3036269308	 0.332378
H	 0.9657341171	 1.4243689902	-0.641649564	 0.297677
H	 0.398108586	-0.6869727344	 0.8960083105	 0.10376
H	-2.1022678093	-0.7898828826	 0.6218355647	 0.109505
H	-2.0092395383	 0.6397878078	-0.4664401458	 0.111348
H	-2.6633744333	-2.0636307381	-2.4726948008	 0.109152
H	-2.1795608199	-0.4412418344	-2.9992946707	 0.098004
H	-0.4982215832	-3.0068988251	-3.1212217585	 0.11713
H	-1.1235048256	-2.1186010415	-4.5092606199	 0.102441
H	 1.3725365042	-1.7551676745	-3.9638645605	 0.110647
H	 0.4365935918	-0.293494493	-4.1885768124	 0.106336
