21
gdb 92984	2.80009	1.14758	0.88404	0.8954	89.58	-0.2372	0.0234	0.2606	1358.4586	0.182169	-349.937345	-349.928158	-349.927214	-349.971292	35.339	
C	-0.6616528386	 1.3435679471	-0.0434662805	-0.412443
C	 0.0896831139	 0.0133092525	-0.0770556403	 0.018165
C	 1.2926089048	-0.0229441002	-1.0565580702	-0.261223
C	 2.2102738803	-1.0427702581	-0.4279553113	-0.070287
C	 1.8598195627	-1.3230509175	 0.8260595571	-0.060892
C	 0.661776776	-0.5161221954	 1.2787113088	-0.051577
C	 1.0755157219	 0.5925253181	 2.287087246	-0.372137
C	 1.6196457926	 0.04906556	 3.5255837256	 0.296621
C	 2.0559779979	-0.4228506425	 4.541800901	-0.434024
H	-0.0127900347	 2.1732872724	 0.2566232425	 0.117374
H	-1.0571910393	 1.5837450732	-1.0360332984	 0.111716
H	-1.5104206154	 1.3128875922	 0.6484903762	 0.114184
H	-0.610997191	-0.7588162148	-0.4177130017	 0.080557
H	 0.9840238177	-0.2858489026	-2.0751121689	 0.101167
H	 1.7881794367	 0.9569390886	-1.1328581027	 0.100512
H	 3.0658681695	-1.4618863154	-0.946511469	 0.090749
H	 2.3854935024	-1.9944618206	 1.4948730701	 0.102226
H	-0.0805765439	-1.1420186104	 1.7880489594	 0.080885
H	 1.8178232113	 1.2530692451	 1.8215511493	 0.129344
H	 0.2056037215	 1.2172328442	 2.5231110716	 0.127741
H	 2.4455893937	-0.8262010358	 5.4431862956	 0.191341
