15
gdb 49277	2.12079	1.69825	1.03307	6.766	73.87	-0.2525	-0.0767	0.1758	1114.5055	0.112857	-416.824122	-416.815808	-416.814864	-416.858174	29.249	
O	-0.139485211	 0.0120059714	-0.2197588826	-0.254824
C	-0.0563308395	 1.1986748591	-0.000444641	 0.078148
C	 1.2174909417	 1.9185468851	 0.0793449931	 0.26326
C	 1.3797593816	 3.2405791486	 0.1814785826	-0.168826
C	 2.8272485023	 3.6212947514	 0.1459834909	-0.202356
N	 3.5320554372	 2.3323238066	 0.1045834016	-0.30576
C	 2.5691116447	 1.229303327	-0.0354410411	-0.24375
C	 2.7744575359	 0.2077051678	 1.0149168507	 0.316074
N	 2.9628013982	-0.5836374423	 1.8347552037	-0.329367
H	-0.9589493132	 1.8322509162	 0.1371289085	 0.083827
H	 0.5776780159	 3.9645060139	 0.2693702895	 0.131239
H	 3.0413321421	 4.256081076	-0.7282841682	 0.122089
H	 3.1091506119	 4.2107713452	 1.031548747	 0.135073
H	 4.2610229897	 2.2962172511	-0.5915640935	 0.239617
H	 2.6454383528	 0.7070471029	-1.0004364412	 0.135555
