18
gdb 24160	5.34804	0.93834	0.8273	2.7425	79.	-0.1801	0.0408	0.2209	1374.7286	0.150252	-398.144408	-398.136401	-398.135457	-398.177574	30.665	
C	-0.3506198367	 1.069520767	-0.3229612143	-0.250554
C	 1.0465793429	 1.1381058249	 0.2421686388	-0.288877
C	 0.3642954723	-0.1930593172	 0.0995981797	 0.040272
N	-0.0717206173	-0.8410001614	 1.2968802427	-0.382894
C	-1.0766688362	-1.7979289513	 1.1994169082	 0.331681
C	-2.0347385046	-1.9621679629	 0.2249848987	-0.194555
N	-2.7970611219	-3.0368403307	 0.6643910015	-0.232586
C	-2.2699583617	-3.4562058784	 1.8394289693	 0.014217
N	-1.2281941015	-2.7338310966	 2.1944674738	-0.327446
H	-1.1612552473	 1.40516711	 0.3125843501	 0.124112
H	-0.4895138218	 1.2497573986	-1.3832369305	 0.107964
H	 1.868610846	 1.363913812	-0.4273919952	 0.112223
H	 1.1576684201	 1.5270221915	 1.2478254359	 0.120068
H	 0.7096555314	-0.8424044678	-0.7085225004	 0.080152
H	 0.673772184	-1.1541829139	 1.9045711863	 0.237302
H	-2.2481148247	-1.4397787176	-0.689890859	 0.120917
H	-3.591469362	-3.4300220224	 0.1903163162	 0.262593
H	-2.675866431	-4.2889259637	 2.3938614981	 0.125411
