23
gdb 74005	2.40986	1.54253	1.15925	0.2621	93.69	-0.2106	0.0284	0.2389	1196.911	0.205992	-351.156631	-351.147581	-351.146637	-351.189735	35.719	
C	-0.0724662276	 1.5051931135	 0.130864385	-0.493068
C	-0.0380768385	 0.0256561535	-0.0827923997	 0.142978
C	-1.0490870541	-0.83644646	-0.1699818791	 0.197445
C	-2.4429616489	-1.1191338338	 0.3459310017	-0.327588
C	-1.8471213948	-2.4933605777	 0.8351767545	-0.27958
C	-0.6368079698	-2.2883852787	-0.1546977448	 0.322902
C	-0.8271944878	-3.0584589394	-1.4652091453	-0.454454
C	 0.8423087723	-2.2095919674	 0.2937379994	-0.294002
C	 1.2716585737	-0.7700326869	-0.1326416193	-0.290435
H	 0.4922074939	 1.7940602815	 1.0272516508	 0.118627
H	 0.3876899254	 2.0418563103	-0.7095103901	 0.124237
H	-1.0971241249	 1.8726041643	 0.2377873209	 0.11975
H	-2.8516872815	-0.4399082385	 1.0983467791	 0.104327
H	-3.1943006706	-1.2622363053	-0.4377855208	 0.107999
H	-1.5368037897	-2.4442661064	 1.8819257112	 0.100421
H	-2.4684828036	-3.3804092641	 0.6800348602	 0.091844
H	-1.8407512587	-2.9391824566	-1.8628758392	 0.109511
H	-0.1264473635	-2.7112978065	-2.2322748709	 0.113795
H	-0.6542625558	-4.1303186046	-1.3123975969	 0.110286
H	 0.9124393169	-2.2953553014	 1.3838598065	 0.094335
H	 1.4770640571	-2.9898533375	-0.139232357	 0.086349
H	 1.7287057915	-0.7585825391	-1.132761744	 0.099322
H	 2.0215686489	-0.3469376289	 0.5466739379	 0.094998
