23
gdb 81372	2.41194	1.56368	1.25888	1.3704	84.98	-0.2393	0.0866	0.3259	1142.8431	0.207142	-388.288564	-388.279851	-388.278907	-388.321768	34.354	
C	-0.0837701735	 1.5359438506	-0.0669246623	-0.432509
C	 0.045982253	 0.0166977182	-0.1016650212	 0.045856
C	 1.2886895015	-0.5483742663	-0.847105438	-0.035501
C	 2.0751029245	-0.4544247757	 0.4897061453	-0.246266
C	 0.6859778316	-0.6289464648	 1.165390582	-0.035418
C	 0.3780871441	-2.1300646171	 1.2211721273	 0.147375
C	-1.0814025555	-2.4648102987	 1.5279203097	-0.404904
O	 0.8042033418	-2.7966827334	 0.0244447901	-0.292802
C	 1.0273317365	-2.0228882993	-1.1512653959	-0.071646
H	 0.8447609379	 2.0256961826	 0.2434372587	 0.116024
H	-0.3487262907	 1.9273844779	-1.0554752134	 0.113303
H	-0.8685058891	 1.8438125438	 0.6331276576	 0.113989
H	-0.9090414551	-0.4149031659	-0.4224358809	 0.061376
H	 1.6573865167	-0.0230558255	-1.7331404789	 0.058548
H	 2.8285889139	-1.2214757929	 0.6878300268	 0.100938
H	 2.5085175833	 0.5326435279	 0.656816534	 0.097388
H	 0.5000512901	-0.1610294792	 2.1366575585	 0.058183
H	 0.9986979336	-2.563925472	 2.019694813	 0.074142
H	-1.762714042	-2.0444201633	 0.7826062942	 0.117516
H	-1.2175882165	-3.5495775937	 1.5360193621	 0.123376
H	-1.3662056539	-2.0747834617	 2.5114794659	 0.107794
H	 0.1669729137	-2.1122644187	-1.8348088671	 0.085409
H	 1.893906454	-2.4751998327	-1.6504262775	 0.097829
