14
gdb 34061	4.36013	1.40566	1.2258	3.7223	75.8	-0.224	-0.0626	0.1614	982.4481	0.098461	-399.36873	-399.361567	-399.360623	-399.40002	28.308	
C	-0.1100216748	-1.1322566573	-0.0069507969	-0.353568
C	-0.0902492796	 0.0694950712	-0.0535107527	 0.188407
C	-0.0450571531	 1.4819994549	-0.0879866675	 0.295064
O	-1.3052836074	 2.2270733287	 0.2977282555	-0.294545
C	-0.5371669283	 3.3109885987	-0.1433143746	 0.232324
N	-0.05434544	 4.1649203915	 0.6555298713	-0.219058
C	 1.3975499022	 3.7582449142	 0.6608229757	-0.172437
C	 1.3653378656	 2.3543286801	 0.0053718194	-0.132251
C	 0.3728697606	 2.4681717595	-1.0893799999	-0.244012
H	-0.1350154953	-2.1937793973	 0.0273901456	 0.200394
H	 2.0824249152	 4.4289517519	 0.1201704393	 0.11761
H	 1.6858521038	 3.7471069506	 1.715574403	 0.141878
H	 2.2579717876	 1.7405016741	-0.0828894408	 0.111876
H	 0.4280181234	 2.4355352692	-2.1692838574	 0.128317
