18
gdb 87469	3.58724	1.24637	1.1156	3.7269	77.41	-0.2432	0.0082	0.2514	1136.7543	0.147414	-401.884388	-401.87643	-401.875486	-401.916797	30.923	
C	-0.0508393912	 1.5265393318	-0.0876620579	-0.391582
C	-0.0101973109	 0.0251811973	 0.0593224643	-0.126166
N	 1.3302521403	-0.6199677772	-0.1023433246	-0.422329
C	 0.6587823266	-0.6660993373	 1.1726726759	 0.451311
C	 1.1913442727	-0.2115282341	 2.5568405652	-0.259264
C	-0.1810743295	-0.7402837677	 3.1066370422	-0.228655
C	 0.2227778562	-1.8495715701	 2.0719126937	-0.284174
C	 1.638189162	-1.6851055713	 2.6801498187	 0.451718
O	 2.558087625	-2.3407959371	 3.0524084524	-0.317319
H	 0.8299319123	 1.9811673706	 0.3725864734	 0.129502
H	-0.0650874055	 1.8111207076	-1.1450486277	 0.125257
H	-0.9466493463	 1.9425420527	 0.3861352575	 0.11736
H	-0.8516441641	-0.5026989037	-0.3894146336	 0.090628
H	 1.2534158056	-1.5053873877	-0.5978054554	 0.23497
H	 1.7169603087	 0.7032368531	 2.8164102324	 0.102607
H	-0.2138367099	-1.032786672	 4.156822997	 0.117003
H	-1.0461800171	-0.1439510678	 2.8131554857	 0.113825
H	-0.3271558751	-2.746854447	 1.7961519607	 0.095308
