18
gdb 62134	2.20498	0.91485	0.67351	5.1141	73.59	-0.263	-0.034	0.2289	1610.8824	0.143693	-439.099718	-439.089323	-439.088379	-439.137014	34.944	
C	-0.1244261352	 1.5399886938	-0.0869155363	-0.411018
C	-0.0116823077	 0.0174959784	-0.0043637457	 0.141435
C	 0.7814655648	-0.5491472354	-1.1949107966	-0.350567
C	 0.8096186657	-2.0099320307	-1.1989894711	 0.267596
N	 0.8146279297	-3.1649859918	-1.2073082127	-0.303899
O	 0.6834162742	-0.4067647668	 1.1567702358	-0.255608
C	-0.0586347848	-0.4005231016	 2.3521258252	-0.15728
C	 0.7323843017	-1.1692774416	 3.3998966297	 0.142702
O	 0.4694059306	-1.1498400044	 4.5718574903	-0.233666
H	 0.8698167262	 1.9973169523	-0.0936914699	 0.133237
H	-0.6559990143	 1.8414046555	-0.994726937	 0.126426
H	-0.6782520716	 1.936907476	 0.7679266836	 0.131504
H	-1.018847743	-0.4279987311	-0.0080872761	 0.092718
H	 0.3441036938	-0.1985014279	-2.135253152	 0.152993
H	 1.8088892629	-0.1716584317	-1.1477988771	 0.161547
H	-0.2597112068	 0.612039354	 2.7306511312	 0.127279
H	-1.032123944	-0.904679601	 2.223913376	 0.128823
H	 1.5702510479	-1.7643213959	 2.9767553325	 0.105779
