14
gdb 133557	2.99836	1.3216	1.19859	0.9748	53.94	-0.2564	0.0578	0.3141	1012.8121	0.097212	-568.146504	-568.138997	-568.138052	-568.179244	27.855	
F	-0.1709078647	 0.0788761506	-0.1801389643	-0.077219
C	-0.0045624733	 1.3965019476	 0.025636712	 0.213501
F	 1.3141940942	 1.6283358338	 0.1381047921	-0.080528
F	-0.4285337264	 2.020828793	-1.0868681892	-0.075306
C	-0.7377082027	 1.8558273508	 1.2355582797	 0.090032
C	-0.3417463067	 3.0724953585	 2.045850624	-0.354567
C	-0.3866945301	 1.7292664951	 2.7015130234	 0.063254
O	-1.7170755455	 1.3693931786	 3.0655577892	-0.279959
C	-2.121352726	 1.3776052042	 1.6682655114	-0.141546
H	 0.6523362603	 3.4465556077	 1.825684521	 0.139764
H	-1.0866675225	 3.8217101894	 2.2961833791	 0.127403
H	 0.4382931749	 1.2454006816	 3.2101625642	 0.12719
H	-2.9702638341	 2.0429228048	 1.4802677861	 0.118622
H	-2.3475399873	 0.3628304743	 1.3276156813	 0.129357
