12
gdb 1231	8.10414	1.29811	1.20018	3.9862	48.14	-0.2604	-0.0321	0.2283	923.5523	0.088066	-397.697425	-397.689752	-397.688808	-397.730742	25.275	
N	-0.1820690266	 1.2828146409	 0.1807660612	-0.557902
C	-0.0607097934	-0.069402948	 0.2481286766	 0.504855
O	 0.730822705	-0.6744760482	 0.9299487563	-0.3874
O	-0.9993619244	-0.6488354234	-0.5608766582	-0.261586
C	-1.0300323688	-2.0731393279	-0.5681266048	-0.166775
C	-2.3511079957	-2.5637920293	-0.0045135374	 0.144346
O	-2.8008976336	-3.6559021435	-0.2244795884	-0.229326
H	 0.5509983601	 1.8286909471	 0.5979743639	 0.275688
H	-0.7457888861	 1.6958118116	-0.5417325736	 0.270773
H	-0.9078216178	-2.4275923997	-1.5952557488	 0.141901
H	-0.209890029	-2.4591912329	 0.0485748756	 0.174732
H	-2.8661822497	-1.8228687465	 0.6478428674	 0.090694
