19
gdb 82966	2.98385	1.81527	1.5244	0.9618	80.7	-0.2206	-0.0082	0.2124	945.9425	0.16042	-385.831524	-385.824427	-385.823483	-385.862645	29.18	
C	 0.2032202551	 1.5056392067	 0.24846902	-0.414327
C	 0.0193182556	 0.0178407981	 0.0218844973	-0.045781
C	 0.7857553032	-0.7196833514	-1.157573685	 0.110433
O	 2.2281105235	-0.5224991068	-1.1976952654	-0.325021
C	 2.5049917982	-1.7772544795	-0.4712378041	 0.121495
C	 3.0763459825	-1.5447734567	 0.9445864709	-0.266502
C	 1.9225407943	-0.7657417878	 1.5746213012	-0.127958
C	 0.7945629953	-0.9755126142	 0.8850631104	 0.102955
C	 0.9999393316	-1.9566137306	-0.2735353449	-0.141257
H	 1.2675623765	 1.7577229919	 0.230319772	 0.132613
H	-0.3034842302	 2.0860848286	-0.5298281829	 0.114861
H	-0.2080265411	 1.8155475109	 1.2148897773	 0.119743
H	-1.0398288183	-0.2440232823	-0.1072084403	 0.079317
H	 0.3394788474	-0.6919914826	-2.1563879663	 0.075882
H	 3.071336945	-2.4676020228	-1.1052377616	 0.068629
H	 3.3374885943	-2.5007468663	 1.4210250993	 0.104842
H	 3.9862346758	-0.9348700951	 0.9258910333	 0.116418
H	 2.0985990712	 0.0838699079	 2.2254126108	 0.094509
H	 0.4590839202	-2.8985066581	-0.333223462	 0.07915
