16
gdb 5258	7.37937	1.16483	1.01881	2.452	67.83	-0.1935	0.034	0.2275	1134.5621	0.131737	-379.955625	-379.947916	-379.946972	-379.988379	27.798	
C	-0.0046454011	 1.4906798374	-0.0173513713	-0.389254
C	 0.0012950782	-0.0267872283	 0.0028981465	-0.034664
O	 0.674728756	-0.4670953649	-1.1796601327	-0.285295
C	 0.7823581166	-1.7997564711	-1.3436161207	 0.379439
C	 1.3921657588	-2.4212379393	-2.4077244052	-0.22534
N	 1.2529531531	-3.771895099	-2.1359857247	-0.23314
C	 0.5886333091	-3.8898863466	-0.9615121954	 0.015728
N	 0.2873180248	-2.7104911548	-0.4524004463	-0.338968
H	 1.0163484678	 1.8830155706	-0.0304157753	 0.124837
H	-0.5268008374	 1.86531936	-0.9025201453	 0.124845
H	-0.5120257654	 1.8749598825	 0.8726386466	 0.115488
H	 0.5184607864	-0.4157727635	 0.8880850642	 0.110557
H	-1.0168655914	-0.4333901995	 0.0203514983	 0.110646
H	 1.8861642093	-2.0483583421	-3.2866824954	 0.128028
H	 1.5873606748	-4.52564237	-2.7114785655	 0.266863
H	 0.3494952003	-4.8456431114	-0.5210703077	 0.130229
