19
gdb 62386	2.51671	1.80642	1.33961	1.7849	80.78	-0.2362	0.0426	0.2788	1014.3506	0.159126	-385.830806	-385.82272	-385.821776	-385.862888	32.462	
C	-0.1521256713	 1.5284722537	 0.0240251627	-0.472894
C	-0.0193909265	-0.0018850407	 0.011074423	 0.130243
C	-1.31912827	-0.5901532138	 0.2936518056	 0.278971
C	-2.4137332672	-1.033475022	 0.5226705672	-0.445798
C	 0.8151112204	-0.6146789827	-1.1956012169	-0.10276
C	 2.1025139466	-0.2102184205	-0.411343886	-0.259501
C	 1.2093955039	-0.6220240973	 0.7805223461	 0.078456
O	 1.0466410646	-2.0292514598	 0.5866684895	-0.272529
C	 0.7628836674	-2.1027836614	-0.8358740515	-0.091893
H	 0.786010836	 2.0435830503	-0.1871003059	 0.118544
H	-0.8867929753	 1.8437266124	-0.7229034306	 0.131075
H	-0.5124784204	 1.8648892449	 1.0007750204	 0.131097
H	-3.3720127067	-1.4389867951	 0.7342147119	 0.188864
H	 0.6243381402	-0.3269044177	-2.2289180883	 0.076791
H	 2.9930042657	-0.8223076404	-0.5670683945	 0.104372
H	 2.353929122	 0.8459896531	-0.4659728314	 0.107007
H	 1.4233294365	-0.4105268545	 1.8272000687	 0.083778
H	-0.2175107483	-2.5611071121	-0.9935114496	 0.117454
H	 1.5329997024	-2.6949334662	-1.3429884701	 0.098725
