19
gdb 89163	2.21088	1.70788	1.43914	2.5198	70.43	-0.2446	0.0555	0.3001	1005.9619	0.158702	-460.125706	-460.117285	-460.116341	-460.157983	33.844	
O	-0.4148310955	 1.2821332052	 1.094458703	-0.436492
C	-0.0683815945	 0.1751676613	 0.2995122206	 0.125345
C	 0.5568791789	-1.0373620353	 1.0591846969	-0.339259
C	-0.7384878345	-1.8306697623	 0.8056874427	 0.416361
O	-0.6681599036	-3.1729127803	 0.419470777	-0.489959
C	-1.9463040458	-1.4621881256	 1.7400359611	 0.007416
O	-1.5334479209	-0.7580547581	 2.9083444325	-0.428527
C	-2.5526272484	-0.5799593487	 0.6044109544	-0.266209
C	-1.2508051302	-0.7490788447	-0.1979837607	-0.096812
H	-0.7481934485	 0.9310948253	 1.9328830624	 0.283055
H	 0.5451276309	 0.5634897637	-0.5159560399	 0.087653
H	 1.3842022653	-1.487271481	 0.5028499222	 0.103842
H	 0.8624109011	-0.8566072296	 2.0923285308	 0.106714
H	-0.2971802565	-3.6784076629	 1.1521323834	 0.277968
H	-2.5418398213	-2.3431395417	 2.0070572638	 0.077121
H	-2.3243572003	-0.4965738128	 3.3919951416	 0.292751
H	-3.4147603582	-1.0523026987	 0.1272379632	 0.105623
H	-2.8099919082	 0.4434238023	 0.8894937408	 0.103788
H	-1.3015534497	-0.9225253362	-1.2725529558	 0.069621
