18
gdb 96886	2.59278	1.21483	0.99672	3.0382	76.04	-0.2528	-0.0406	0.2122	1259.3166	0.144988	-439.086724	-439.077032	-439.076088	-439.122197	33.32	
C	-0.2387034831	 1.4123890443	-0.163606498	-0.341298
N	-0.2070226181	-0.0314154451	-0.3547519094	-0.327472
C	-1.1638335727	-0.7275288926	 0.0379094362	 0.483174
O	-2.3484542548	-0.3719076284	 0.6761487459	-0.259349
C	-2.8167138503	-1.7384016687	 0.6711060868	 0.021579
C	-4.0798738269	-1.9409730928	-0.131475516	 0.14506
O	-4.5806890424	-1.1153382348	-0.8459210075	-0.228865
C	-1.4821740245	-2.2101858293	-0.0061826675	-0.186218
C	-1.5045847024	-2.8692676798	-1.380562512	-0.417428
H	 0.6085636749	 1.7082307213	 0.4646522626	 0.12897
H	-0.1035193792	 1.9015365756	-1.1339527196	 0.131576
H	-1.1634585349	 1.7827701307	 0.2928556144	 0.131888
H	-2.9662502057	-2.1149988658	 1.6901720571	 0.107371
H	-4.5140855935	-2.9613121323	-0.0139971854	 0.080497
H	-0.8603201703	-2.7828864597	 0.6870341078	 0.115092
H	-2.151891043	-2.3263352176	-2.0748154341	 0.145189
H	-0.4932916041	-2.8684060219	-1.7955307954	 0.148241
H	-1.8481691589	-3.9065532031	-1.3209072059	 0.121993
