16
gdb 131523	3.06997	1.54368	1.13511	1.794	69.85	-0.2608	-0.0211	0.2397	1040.5417	0.126402	-437.880672	-437.873456	-437.872512	-437.912496	27.842	
O	-0.3153333173	 1.5069390825	-0.2491261679	-0.423625
C	 0.0504316831	 0.1543810951	 0.0081534383	-0.019383
C	-1.1760276222	-0.7993120395	 0.2185176684	-0.238703
C	-1.4406911908	-1.5487355562	-1.1254881506	-0.353033
C	-0.1005706817	-1.4453988358	-1.7957755	 0.373164
N	 0.45293116	-2.0160923746	-2.8300421024	-0.24756
O	 1.7337432157	-1.4338444724	-2.8929600634	-0.170483
C	 1.8778623449	-0.5444923116	-1.891269898	-0.088777
C	 0.7437291775	-0.5040652615	-1.1501457295	 0.131007
H	-0.6620452584	 1.5557605511	-1.1467170525	 0.279873
H	 0.657927474	 0.2048173709	 0.9153631125	 0.101173
H	-0.92052045	-1.531792677	 0.9907846493	 0.116449
H	-2.0379474231	-0.2306057399	 0.5738044533	 0.116304
H	-1.769523945	-2.5794597093	-0.9749803123	 0.135376
H	-2.2109097287	-1.053179145	-1.7273957378	 0.129553
H	 2.8337215719	-0.0453813366	-1.8514072574	 0.158664
