19
gdb 41875	3.26461	1.52559	1.09605	1.21	76.05	-0.2478	0.0172	0.265	1091.3257	0.162135	-423.038819	-423.031444	-423.0305	-423.071012	28.785	
C	-0.005402022	 1.436748495	-0.0488264059	 0.010447
O	 1.3357841101	 1.9075790066	 0.0137646152	-0.288506
C	 2.0938365192	 0.8267825833	 0.5382290636	 0.141707
C	 3.5592277696	 0.7841874186	 0.1528522644	-0.306768
C	 4.0681789862	-0.6098192413	 0.4722608952	-0.051793
C	 3.2864491502	-1.6646687462	 0.725065294	-0.051791
C	 1.7690686772	-1.6423993582	 0.688125162	-0.306763
C	 1.3556144274	-0.3718025589	-0.0276592914	 0.14172
O	 0.0001283509	 0.0246093479	 0.1251089802	-0.288524
H	-0.6213465258	 1.870190394	 0.7521040956	 0.102402
H	-0.4138634002	 1.7193143888	-1.0296703499	 0.102415
H	 2.0089836907	 0.8059602275	 1.6380487634	 0.072787
H	 3.677187524	 1.0095995943	-0.9156284736	 0.120234
H	 4.1421606895	 1.5368177239	 0.6952886625	 0.113261
H	 5.1474815246	-0.7336346438	 0.5070806955	 0.091448
H	 3.7497787908	-2.6190505781	 0.9615346336	 0.091447
H	 1.386584551	-2.5351286363	 0.1809356101	 0.113261
H	 1.3516696801	-1.6585311233	 1.7039472818	 0.12023
H	 1.6025307564	-0.4642449439	-1.0989770864	 0.072787
