15
gdb 27180	3.21721	1.3072	0.98904	1.7142	69.29	-0.1999	0.0177	0.2176	1140.4514	0.11409	-453.957964	-453.950282	-453.949338	-453.990664	28.573	
O	-0.2754004909	 1.4033429051	 0.2433323397	-0.43666
C	-0.0644470725	 0.0784159922	 0.0793863424	 0.261268
C	 0.1535842672	-0.5722518436	-1.1121193666	 0.237476
N	 0.3306494391	-1.8975362606	-0.7396155548	-0.309255
C	 0.1931449769	-1.9701177215	 0.6050485682	 0.012371
N	-0.0345531006	-0.7824440335	 1.1362676991	-0.343388
C	 0.2338440529	-0.1298937841	-2.5080365699	-0.05009
C	 1.335219162	-0.5114794919	-3.4133134143	-0.181527
O	 0.0654484258	-1.1665543939	-3.4936275739	-0.253023
H	-0.4190771272	 1.5390133404	 1.1878251645	 0.301613
H	 0.3989464486	-2.6569622288	-1.3976536801	 0.275179
H	 0.2619569053	-2.8992622999	 1.1492351722	 0.13566
H	-0.293607436	 0.7982852085	-2.7223048863	 0.11554
H	 1.5847684496	 0.125549052	-4.2608199203	 0.122488
H	 2.1530691296	-1.1187939605	-3.02838246	 0.112349
