18
gdb 78802	1.94005	1.84323	1.83313	2.7341	70.52	-0.2544	0.0476	0.302	946.6456	0.147691	-439.0315	-439.023444	-439.0225	-439.063492	31.778	
C	-0.0437762101	 1.5297002872	-0.0081282364	-0.511621
C	-0.0323644223	 0.0302609207	 0.0190524516	 0.249703
C	 0.3765388175	-0.8037306572	-1.2090643406	 0.069357
O	 1.7655139343	-1.0782722869	-1.3323790487	-0.441482
C	-0.5927641199	-1.8426146097	-0.6841392869	-0.099325
C	-0.5534392951	-1.8201955096	 0.8049201019	-0.105249
C	 0.4575463906	-0.7742023007	 1.2542163248	 0.128358
O	 1.8085536902	-1.0594203795	 1.4517410028	-0.445296
N	-1.3717189786	-0.7914131386	 0.0684477102	-0.191507
H	 0.9836769552	 1.9097892194	-0.0220012465	 0.137634
H	-0.5632225794	 1.9090695765	-0.8939078626	 0.12309
H	-0.5437050309	 1.930986345	 0.8786858241	 0.129721
H	-0.0139516921	-0.3474142068	-2.1276694037	 0.087977
H	 1.9027244078	-1.6683845007	-2.0804633713	 0.291999
H	-1.1037051261	-2.6211892264	-1.2394375528	 0.09503
H	-1.0333713461	-2.5920202867	 1.395890625	 0.096992
H	 0.0914035421	-0.2914865789	 2.1659912854	 0.095643
H	 2.1648293129	-1.3279442471	 0.5929796436	 0.288975
