16
gdb 25664	5.90305	0.76041	0.67775	3.6765	90.21	-0.1879	0.0018	0.1897	1631.9741	0.125129	-396.945667	-396.936501	-396.935557	-396.981277	32.237	
C	-0.0818929116	 1.436234091	 0.0105118048	-0.51046
C	-0.0119308266	-0.0157116658	 0.003061352	 0.233444
C	 0.0633581311	-1.220280343	-0.0025861638	-0.078415
C	 0.1281805739	-2.6301545016	-0.014695797	 0.168733
N	 1.2097882805	-3.3883124047	 0.0202666481	-0.304643
C	 0.7618672551	-4.6836514525	 0.010945547	-0.167806
C	-0.6138336779	-4.7249366861	-0.0406310511	 0.287627
N	-1.5506759433	-5.7623438496	-0.1459432886	-0.619011
N	-1.0099288067	-3.4122014915	-0.0583975839	-0.329127
H	 0.9230491076	 1.8720325316	 0.0203683819	 0.158113
H	-0.6002247983	 1.8187967972	-0.8762519146	 0.149028
H	-0.6131757168	 1.8090139742	 0.8938027331	 0.148777
H	 1.4446475566	-5.5197699078	 0.0416923965	 0.09555
H	-1.0864628214	-6.6534977538	-0.2692207385	 0.253748
H	-2.1561501937	-5.8315156896	 0.6667105162	 0.248454
H	-1.9542345982	-3.080490628	-0.1644436721	 0.265989
