23
gdb 83259	1.80484	1.72319	1.48368	1.3116	84.84	-0.2411	0.0704	0.3115	1118.7643	0.206115	-388.298159	-388.28877	-388.287825	-388.331394	36.844	
C	-0.0755988465	 1.5639034606	-0.0447199348	-0.412269
C	 0.0029890817	 0.0343894965	 0.0039174882	-0.00171
C	 0.6791003685	-0.5937594079	-1.2392774601	-0.225589
C	 1.3206284256	-1.9143958464	-0.754253916	-0.231301
C	 1.5576658806	-1.7342007178	 0.7395943358	-0.147677
C	 2.2520475847	-0.4771231705	 1.214411811	 0.043648
O	 2.9304154812	 0.3890586002	 0.3435238021	-0.418222
C	 0.7487733301	-0.5314290966	 1.2201191897	 0.305136
C	 0.0232842883	-0.5152928013	 2.5469668673	-0.482815
H	 0.9272901528	 1.9970597123	-0.0904391661	 0.138219
H	-0.6356915928	 1.8980338905	-0.9250307939	 0.104255
H	-0.5824516629	 1.9687355841	 0.8380095337	 0.105148
H	-1.0221696563	-0.3584003074	 0.0744545024	 0.061914
H	-0.0369705415	-0.7568459791	-2.0505398291	 0.085539
H	 1.4502958746	 0.082340912	-1.6124163096	 0.110217
H	 0.6365984203	-2.7585094681	-0.9001977332	 0.098158
H	 2.2353595483	-2.1543647881	-1.3093354949	 0.086366
H	 1.6583608153	-2.6244291433	 1.3541278555	 0.072827
H	 2.7144272105	-0.5448547793	 2.20072834	 0.077641
H	 3.7353922519	-0.0528383194	 0.053363409	 0.287083
H	-0.1907420549	 0.5087554903	 2.8749867216	 0.119959
H	-0.9330226613	-1.0477204977	 2.4784315931	 0.112865
H	 0.6134413018	-0.9947306336	 3.3343705784	 0.110608
