17
gdb 71141	2.96233	1.81819	1.42333	4.4284	72.94	-0.2578	0.0263	0.2841	944.1196	0.137102	-417.98542	-417.978367	-417.977423	-418.016577	28.543	
C	 0.0444940205	 1.4901980319	-0.0858721935	-0.489179
C	 0.0132731632	-0.0073026114	 0.0411289746	 0.378186
C	-1.3171362779	-0.7655085302	 0.363914222	-0.289068
C	-0.4918468894	-1.6899432385	 1.2642474146	-0.054189
C	 0.6799887695	-0.7712697083	 1.2214757985	-0.104492
N	 0.7952107245	-2.097353961	 0.6260608758	-0.14272
C	 0.8590148395	-1.9294487636	-0.7923816316	 0.431884
N	 1.1533985242	-2.8566760702	-1.5900642026	-0.542146
O	 0.5925131415	-0.6239037818	-1.1269410525	-0.274896
H	 1.0717426982	 1.8390764041	-0.2275289888	 0.137396
H	-0.55163015	 1.8187059014	-0.9421531966	 0.138576
H	-0.3614731219	 1.9563805986	 0.81624504	 0.127674
H	-1.9964081027	-0.1514527137	 0.9612911267	 0.11535
H	-1.8509013099	-1.1952164118	-0.4884348533	 0.116985
H	-0.8494532095	-2.3310219445	 2.0598413785	 0.115008
H	 1.3890452274	-0.4306306001	 1.9660657407	 0.108135
H	 1.1367344829	-2.509127091	-2.5490649125	 0.227496
