21
gdb 113113	4.99049	0.64176	0.61012	2.1987	80.5	-0.2464	-0.0192	0.2272	1816.6935	0.180682	-424.220103	-424.210116	-424.209172	-424.256586	35.443	
O	 0.1127714196	 1.2777230601	-0.2031795308	-0.422399
C	 0.0983299224	-0.1272753588	 0.0053542053	-0.097657
C	-1.3467787362	-0.5748529287	 0.0536475896	 0.057401
C	-2.1881942925	-0.5113866475	-1.2507187524	-0.24692
C	-2.8253804512	-1.873815283	-0.8599961422	 0.028348
C	-3.0782728936	-2.9081934277	-1.9594158541	-0.298593
C	-3.6331883887	-4.1958686768	-1.3960779351	 0.165356
O	-3.1128120989	-5.2775412948	-1.4925199915	-0.240786
C	-1.6432388464	-2.0972797431	 0.1271618642	-0.263691
H	 1.0284845861	 1.5665975303	-0.2546364438	 0.287329
H	 0.6196827405	-0.6570370686	-0.8098116564	 0.079143
H	 0.6036970406	-0.3993346571	 0.9471881787	 0.085708
H	-1.8559100892	-0.0390337031	 0.8614750968	 0.081091
H	-2.8541921066	 0.3419823657	-1.3926651981	 0.104725
H	-1.5505358668	-0.607502608	-2.1364914375	 0.098697
H	-3.7512686506	-1.7035347517	-0.297807042	 0.076692
H	-3.8184635409	-2.5047544908	-2.666307648	 0.116202
H	-2.16089513	-3.1323968991	-2.5127461718	 0.114188
H	-4.5959103224	-4.0731539628	-0.8437463438	 0.067926
H	-0.8447710845	-2.6853371874	-0.3396426221	 0.104731
H	-1.8647473909	-2.5315949971	 1.104930355	 0.102508
