17
gdb 67980	3.16669	1.73074	1.29014	1.7008	73.97	-0.2445	0.0132	0.2576	977.4522	0.137744	-417.95963	-417.95267	-417.951725	-417.990676	28.344	
C	 0.0315679152	 1.4846401558	-0.100944265	-0.50168
C	 0.0307618662	-0.0094848755	 0.0110962509	 0.471182
O	 0.4364829591	-0.6523984572	-1.2070027054	-0.3001
C	 0.3702796675	-1.9963710734	-0.901995727	 0.423228
N	 0.6389250839	-2.9582579223	-1.6692237712	-0.556296
C	-0.0859792858	-2.0071615007	 0.5216306949	-0.151478
C	 0.6256522636	-0.7945007849	 1.2219735186	-0.093606
N	-0.602466693	-0.4292833893	 2.0165936909	-0.344641
C	-1.1230146929	-0.8356166723	 0.6612340226	-0.09361
H	 1.0323790566	 1.85129647	-0.347124484	 0.132264
H	-0.6539937849	 1.8116242768	-0.8881860179	 0.132265
H	-0.2841080458	 1.914513005	 0.8514577434	 0.154011
H	 0.9257150964	-2.6156163713	-2.5886927305	 0.225212
H	-0.228218575	-2.9547288915	 1.0346792596	 0.095747
H	 1.6346539577	-0.7527088441	 1.6347110514	 0.094769
H	-0.7997380857	-1.1766902022	 2.6865872192	 0.217966
H	-2.1846236829	-0.8425130731	 0.4099933895	 0.09477
