13
gdb 33332	3.06397	0.87723	0.71206	5.73	84.07	-0.2685	-0.0498	0.2186	1481.0574	0.088122	-378.386684	-378.37821	-378.377266	-378.420673	30.229	
C	-0.2553752674	-1.1926554679	-0.000696127	-0.405067
C	-0.1296397843	 0.0015624803	 0.0283544304	 0.376098
C	 0.0049731068	 1.4293445891	 0.0221165821	-0.242151
N	 0.5346531497	 2.0794875575	 1.2303185083	-0.303015
C	 1.3577243537	 2.1117267291	 0.0074995543	-0.297672
C	 2.5788995738	 1.3661382705	 0.0147716889	 0.159462
C	 3.6166813417	 0.7482523391	-0.0168994439	 0.116015
C	 4.7869850847	 0.0474862448	-0.0466881608	 0.204695
N	 5.7847255402	-0.5472955074	-0.0747883667	-0.334747
H	-0.3584207336	-2.2499224668	-0.0147660145	 0.211419
H	-0.7645522704	 1.9594859706	-0.5359163049	 0.129164
H	 0.0893000233	 2.9844066054	 1.3641412943	 0.25164
H	 1.4014279818	 3.0409383957	-0.5570116805	 0.13416
