15
gdb 50444	2.99169	1.53534	1.06594	5.941	69.26	-0.2338	-0.0247	0.2092	1064.7397	0.114119	-454.009415	-454.001595	-454.000651	-454.042338	28.517	
O	-0.1462414172	 0.1085419094	-0.6100194468	-0.270332
C	 0.0063656559	 1.2682371604	-0.3474341569	 0.166097
N	 1.1859564192	 1.8997862396	 0.0545444358	-0.175253
C	 1.1445083486	 3.3487667183	 0.3285105074	-0.227723
C	 2.3859262442	 4.0277421764	-0.1760368434	-0.135599
C	 3.5156554718	 3.3243918764	-0.1912488956	 0.031434
N	 3.5177247109	 1.9865642711	 0.1975846622	-0.378987
C	 2.3895184448	 1.1769651356	 0.2349476259	 0.488329
O	 2.4647689837	-0.0153825288	 0.3883452607	-0.348105
H	-0.8113119087	 2.0147815604	-0.4171160618	 0.079798
H	 0.2494177144	 3.7500616541	-0.1546992066	 0.131691
H	 1.0215237803	 3.5173526198	 1.4103036888	 0.131518
H	 2.3531032554	 5.0630167859	-0.484598136	 0.111953
H	 4.474922694	 3.7209791409	-0.5005670242	 0.127422
H	 4.3797635327	 1.4672194408	 0.2428018902	 0.267756
