18
gdb 58857	2.57992	1.48876	1.08491	3.2256	72.82	-0.234	-0.0145	0.2195	1131.2128	0.14608	-439.05642	-439.047438	-439.046494	-439.09024	33.343	
C	 0.0070587091	 1.5288361579	 0.147839366	-0.421762
C	 0.0291003865	 0.0128352675	-0.0565720129	-0.013472
O	 0.626265339	-0.6780318699	 1.039805911	-0.447366
C	-1.3627409639	-0.5360889658	-0.1932084586	 0.262766
N	-2.1986706418	-0.8570892212	 1.015856065	-0.375131
C	-1.9485097379	-1.9071048028	 0.0203513203	-0.127596
C	-3.015039653	-1.7052045015	-1.0671151993	-0.342157
C	-2.3452772512	-0.3229323954	-1.3218695018	 0.379959
O	-2.4194855821	 0.4869703995	-2.2016976912	-0.317502
H	 1.0267810614	 1.9243844822	 0.2188215493	 0.105636
H	-0.4887472483	 2.0118538748	-0.6990668487	 0.154786
H	-0.5344103196	 1.7838298221	 1.0634807591	 0.133114
H	 0.5790567382	-0.2121225262	-0.9845287674	 0.085964
H	 1.458869494	-0.243884238	 1.2496772034	 0.290434
H	-1.5006571161	-0.9770333547	 1.7537835899	 0.250038
H	-1.4118007488	-2.813664921	 0.2648183621	 0.119559
H	-2.908005639	-2.3474729075	-1.9457398136	 0.129216
H	-4.0506800165	-1.7026788099	-0.7214082827	 0.133516
