19
gdb 90504	2.11024	1.39861	1.19671	3.6093	77.46	-0.2305	-0.0209	0.2096	1164.913	0.156871	-422.998713	-422.989591	-422.988646	-423.032487	33.739	
C	 1.6177759157	 0.597229992	-1.8957633467	-0.421447
C	 1.8526366855	-0.7394783296	-1.2262633852	 0.109172
O	 3.2513781616	-1.0574936643	-0.9349046295	-0.306367
C	 2.8821519968	-1.505758219	 0.3698534061	 0.027581
C	 2.4278828124	-0.3416415754	 1.2188185358	-0.179184
C	 3.0413010509	 1.0069466769	 1.1167371784	 0.134813
O	 2.9670221597	 1.8366435953	 1.9937110016	-0.277621
C	 1.4647642762	-1.0373282403	 0.2251733504	 0.214488
C	 0.148556725	-1.6007055069	 0.6739989393	-0.497588
H	 2.1805739878	 0.648514475	-2.8333892306	 0.135743
H	 0.5546721495	 0.7055136581	-2.1360376213	 0.125768
H	 1.9149059882	 1.4397537985	-1.268577501	 0.131993
H	 1.4546629879	-1.5432369013	-1.8625020963	 0.089139
H	 3.3357110446	-2.4139640409	 0.7506122853	 0.115274
H	 2.161822013	-0.6014481462	 2.2405659391	 0.109828
H	 3.6184222191	 1.1965332262	 0.1910182419	 0.096905
H	-0.6274599739	-0.8273131911	 0.699234584	 0.134263
H	-0.187629884	-2.3936942134	-0.0034100642	 0.126227
H	 0.2203658141	-2.0269973135	 1.6789065429	 0.131011
