18
gdb 14277	2.96409	2.60766	1.86185	0.8665	66.57	-0.2393	0.083	0.3223	779.6014	0.156867	-384.927259	-384.920906	-384.919961	-384.957367	25.917	
C	-0.0726215351	 1.5788390713	 0.0745574026	-0.265417
C	 1.466774352	 1.4944950156	-0.0287146077	 0.114774
C	 2.212995648	 1.5704687183	 1.3069292851	-0.227728
C	 1.9269378315	 0.3599994607	 2.2112726997	-0.063242
O	 0.5413436115	 0.0903278463	 2.3885128524	-0.251511
C	-0.0547067105	-0.6558486657	 1.3420589363	-0.093863
C	 0.0049142447	 0.0430680811	-0.0128397902	 0.101096
O	 1.3735322559	 0.1196210391	-0.4963433075	-0.302564
H	-0.4920197446	 2.0031389314	 0.9867885975	 0.115212
H	-0.5308412157	 2.0325352271	-0.8053888858	 0.105023
H	 1.9356619225	 2.1364966982	-0.7813477165	 0.076096
H	 3.2955492412	 1.6093957543	 1.1324145304	 0.101423
H	 1.9354452682	 2.5031677056	 1.8134260075	 0.104156
H	 2.4284667612	-0.5259299987	 1.7991822751	 0.10454
H	 2.3298551154	 0.5460568724	 3.2120335479	 0.101325
H	 0.4240230901	-1.644324899	 1.2475716988	 0.099367
H	-1.0993414451	-0.8057259802	 1.6383995677	 0.105364
H	-0.6451987411	-0.4662363477	-0.7337156133	 0.075948
