16
gdb 45068	2.45738	1.76472	1.16968	2.0976	73.9	-0.2327	-0.0326	0.2	1034.4605	0.123454	-400.705789	-400.697941	-400.696997	-400.738469	30.053	
O	 0.0090836545	 0.0202702316	-0.3823952864	-0.286086
C	-0.0265446796	 1.1628193527	-0.0273166997	 0.37872
C	-1.2697954604	 1.964176518	 0.3741359752	-0.351364
C	-0.7248089863	 3.2389967726	 0.9746954968	-0.021696
C	 0.227544456	 3.108993688	 2.1051199845	-0.244538
N	 0.7454612315	 3.3563035266	 0.7522200739	-0.095529
C	 1.1996754952	 2.1303340476	 0.0680847042	-0.290166
C	 2.3627613785	 1.5104675171	 0.6786919797	 0.369505
C	 3.3105551271	 0.9859898869	 1.1973303439	-0.449565
H	-1.8625150523	 2.1564303473	-0.528367866	 0.142036
H	-1.8926841426	 1.3708620167	 1.0491455571	 0.146281
H	-1.2846625692	 4.1592808309	 0.8416116357	 0.103269
H	 0.3683659462	 3.9319911873	 2.7986997177	 0.127045
H	 0.3772240079	 2.1226020246	 2.5411431169	 0.127052
H	 1.4403039861	 2.4080487843	-0.9689568337	 0.1413
H	 4.1547707573	 0.5236532478	 1.6462069902	 0.203736
