19
gdb 117505	2.38477	0.81798	0.6346	1.6469	87.35	-0.2489	0.0418	0.2907	1795.8037	0.154757	-385.815142	-385.80386	-385.802916	-385.854008	37.938	
C	-0.0839089226	 1.4026529822	-0.0363681976	-0.228696
O	 0.0378265094	 0.0002790934	-0.0043076942	-0.226828
C	 0.605342681	-0.5273278662	-1.1754660878	-0.049011
C	 0.6065460097	-2.0681584135	-1.052270817	-0.364256
C	-0.7576624263	-2.6046294234	-0.9968293141	 0.361408
C	-1.8750152272	-3.0425779707	-0.9598530248	-0.47143
C	 1.3818602969	-2.6649933976	-2.144564946	 0.064062
C	 2.0269432916	-3.1289933051	-3.0478545145	 0.08327
C	 2.8006409372	-3.7061165334	-4.1375813976	-0.499038
H	 0.8949649986	 1.8960343283	-0.1457983171	 0.104432
H	-0.7310414286	 1.7365012294	-0.8623689089	 0.108319
H	-0.5313387757	 1.7119524478	 0.9110112069	 0.13055
H	 0.0343880542	-0.2303997898	-2.0686054596	 0.103095
H	 1.643600182	-0.1830050304	-1.3058718019	 0.096707
H	 1.1017650118	-2.2948053081	-0.0970867512	 0.140898
H	-2.8620423788	-3.4319070825	-0.9221489446	 0.195966
H	 2.2014096433	-4.4214357849	-4.7113790419	 0.152511
H	 3.1484889268	-2.9330117841	-4.8314296923	 0.148537
H	 3.6825966668	-4.2366830013	-3.7624392758	 0.149504
