17
gdb 100499	2.54733	0.88254	0.68842	3.8	76.9	-0.2576	-0.0678	0.1898	1613.1808	0.132593	-458.94871	-458.938295	-458.937351	-458.986424	35.421	
C	-0.0220416479	 1.4031971359	-0.0307673381	-0.506194
C	 0.0047114398	-0.0479172802	-0.0082572583	 0.14674
C	 0.0064501631	-1.2552225697	 0.0124391871	 0.020243
C	 0.0476650214	-2.6907611953	 0.0445315723	 0.183279
O	-0.9479451887	-3.3871754355	 0.1435952621	-0.324754
C	 1.4156747089	-3.3531555515	-0.0754799761	 0.002492
O	 1.2891544148	-4.740895213	 0.1161239611	-0.445701
C	 2.0476591405	-3.0974557815	-1.460697991	-0.06346
O	 3.2404712849	-3.8338903844	-1.5855934076	-0.417569
H	 0.9847163161	 1.821666471	-0.1267099145	 0.164824
H	-0.6252482452	 1.7645657044	-0.870536611	 0.170004
H	-0.4687291494	 1.7933975309	 0.8901070097	 0.170346
H	 2.0848857185	-2.9352621339	 0.6906222075	 0.104492
H	 0.3318830726	-4.9101719789	 0.1340758186	 0.296945
H	 1.3153043304	-3.3724791958	-2.2379100703	 0.090508
H	 2.2957413274	-2.0389000093	-1.5815639873	 0.113456
H	 3.0184413229	-4.7331934932	-1.3111097443	 0.294348
