19
gdb 70041	4.06391	1.0721	0.94663	0.9819	92.35	-0.2147	-0.0162	0.1985	1283.8806	0.158691	-348.733493	-348.725041	-348.724096	-348.766083	33.513	
C	-0.0555880244	 1.5050726974	 0.0158986256	-0.484568
C	 0.0568994989	-0.0006637431	-0.0021687504	 0.344417
C	-0.8175674879	-0.8249579011	 0.9050476245	-0.319892
C	 0.6868802275	-0.7889539076	 1.1429075814	-0.108254
C	 1.4478570721	-1.8920371426	 0.5082528106	-0.177939
C	 1.3304462137	-1.8789842397	-0.8328569702	 0.166457
C	 0.5131095446	-0.6775114854	-1.2991836426	-0.390476
C	 1.8661888522	-2.8211750338	-1.7407197963	 0.215661
C	 2.3064654339	-3.5940225814	-2.5549360584	-0.426448
H	 0.8845416516	 1.9772686014	-0.2916466461	 0.118297
H	-0.8402211136	 1.8527303657	-0.6667616303	 0.119419
H	-0.303651557	 1.8735145464	 1.0164191094	 0.114836
H	-1.4413533607	-0.2821046001	 1.6086608467	 0.108603
H	-1.2461871201	-1.752989508	 0.5396755318	 0.113049
H	 1.0607477664	-0.3094871222	 2.041318342	 0.086596
H	 2.0002452396	-2.6372683024	 1.0680514426	 0.101519
H	-0.3273845365	-0.9817932391	-1.9339645067	 0.117961
H	 1.1327639767	-0.00363694	-1.9057534171	 0.112139
H	 2.702014203	-4.2833497843	-3.2586591465	 0.188622
