21
gdb 53435	3.10763	0.94406	0.77953	1.6366	87.02	-0.2408	0.0552	0.296	1525.5462	0.182128	-387.076108	-387.066085	-387.065141	-387.113722	35.364	
C	 0.2260791999	 1.5832475706	-0.2278846223	-0.498425
C	 0.1207597276	 0.1348814569	-0.1182438404	 0.048133
C	 0.03634909	-1.0639896357	-0.0321607588	 0.085695
C	-0.0416372145	-2.510738324	 0.0908013044	-0.192516
C	 0.5382967742	-3.0544124403	 1.4215824825	-0.094742
O	-0.0560370837	-4.3261676179	 1.5790962097	-0.238669
C	-1.4244241524	-4.1500345315	 1.2476488072	-0.086118
C	-1.4845584348	-3.1452970101	 0.0668253609	-0.008225
C	-2.6444932141	-2.1589294942	 0.1913699623	-0.401008
H	 1.0641875901	 1.967230576	 0.3644218964	 0.147702
H	 0.38583033	 1.8946654055	-1.2662026236	 0.14717
H	-0.6839860387	 2.077992003	 0.1292863016	 0.14697
H	 0.5339338894	-2.9637257488	-0.7241860618	 0.104835
H	 1.6232073021	-3.1778144643	 1.4036977874	 0.114402
H	 0.2708560821	-2.3801017118	 2.2511985562	 0.093558
H	-1.8408961958	-5.1318283382	 1.0080104003	 0.10784
H	-1.976429796	-3.7423649051	 2.1113508413	 0.086368
H	-1.5937258499	-3.6960880482	-0.8719144888	 0.082773
H	-2.5617630017	-1.5609494758	 1.1047288021	 0.120968
H	-2.6728738937	-1.4677536762	-0.6548261089	 0.123951
H	-3.5993026703	-2.6952471298	 0.2250510021	 0.109341
