23
gdb 120628	3.26334	0.72494	0.66084	1.6655	82.97	-0.2497	0.0732	0.3229	1787.6171	0.203183	-425.409077	-425.39809	-425.397145	-425.445495	40.085	
C	-0.015680824	 1.5478299945	-0.4278482954	-0.398141
C	 0.0028292639	 0.1346009456	 0.1682272292	-0.223873
C	-1.3608134587	-0.5307949649	 0.1554126969	 0.394154
O	-2.3366593961	 0.1559711528	 0.9063070051	-0.476426
C	-1.851324075	-1.2700155445	-1.0703701722	-0.356876
C	-1.5312729677	-2.0209695349	 0.2148429274	-0.044436
C	-0.3845206344	-3.004555872	 0.2981119136	-0.210527
C	-0.7974895759	-4.4043797449	-0.1457569691	-0.066005
O	 0.3403036273	-5.2473475787	-0.0400978378	-0.423223
H	 0.983556703	 1.9925495835	-0.4147210179	 0.11656
H	-0.3645308802	 1.5368174611	-1.4664706898	 0.116009
H	-0.6724993164	 2.2114263571	 0.1449055833	 0.112246
H	 0.716769602	-0.4828993037	-0.3857046095	 0.098436
H	 0.3595088376	 0.1797652624	 1.2047467606	 0.104913
H	-2.5748793598	 0.9526164345	 0.4201245709	 0.280622
H	-2.8937404866	-1.1531295124	-1.3456205567	 0.107261
H	-1.1677297614	-1.3857689443	-1.906584172	 0.105835
H	-2.4094003867	-2.3080280499	 0.7885238093	 0.093546
H	 0.455371365	-2.68629471	-0.3285677644	 0.104359
H	-0.0041435558	-3.0655991847	 1.3252720708	 0.109217
H	-1.6228737914	-4.7658801683	 0.4893279023	 0.084057
H	-1.1755303218	-4.3673569993	-1.1800140793	 0.087751
H	 0.0852121433	-6.132588959	-0.3151132453	 0.284543
