23
gdb 60005	3.96316	0.67107	0.65479	1.6499	88.64	-0.2541	0.0488	0.303	1835.0918	0.201926	-388.265151	-388.253772	-388.252828	-388.302129	41.505	
C	 0.9538317383	-0.2558746246	-1.054066021	-0.388795
C	 0.0274062984	 0.0468894017	 0.1320046251	 0.043751
C	-0.0790090565	 1.5601293358	 0.3628093219	-0.391983
C	-1.3722533919	-0.5680729254	-0.048925626	-0.193714
C	-1.4083974695	-2.1027311597	-0.0499218104	 0.117043
O	-0.7991259424	-2.6497402642	 1.1102544057	-0.417828
C	-2.8556057247	-2.618929288	-0.2266314305	-0.388358
C	-2.9516501377	-4.0700804502	-0.3081514497	 0.312071
C	-3.0252340898	-5.2667722126	-0.3879040523	-0.4368
H	 1.9353027215	 0.2064752222	-0.9067404757	 0.111427
H	 1.1159140428	-1.3293838019	-1.1868632239	 0.122421
H	 0.5382565874	 0.141262521	-1.9885786231	 0.107278
H	 0.4661726218	-0.409783738	 1.0275580831	 0.084536
H	-0.5196006469	 2.0622055244	-0.5072888906	 0.109857
H	-0.7057816817	 1.7909594645	 1.2310225899	 0.1059
H	 0.907435551	 2.0032424041	 0.534565971	 0.110772
H	-2.0268952377	-0.2116286899	 0.7612512153	 0.078568
H	-1.8183449121	-0.1991256903	-0.9832647933	 0.091993
H	-0.8094390066	-2.4898777138	-0.8806441603	 0.10368
H	-1.3094976051	-2.364298297	 1.8768479205	 0.277617
H	-3.4648845687	-2.2516898037	 0.6123887967	 0.117077
H	-3.2853851593	-2.1682629394	-1.1304930797	 0.13038
H	-3.0877810907	-6.324532215	-0.4526853627	 0.193108
