17
gdb 70236	4.18024	1.08748	0.94802	1.7212	84.54	-0.2303	-0.0319	0.1984	1246.4849	0.134277	-384.65914	-384.650846	-384.649902	-384.691693	32.151	
C	-0.1224962677	 1.5527576711	 0.104296474	-0.496321
C	 0.1272281133	 0.0761328212	-0.0068106333	 0.403822
O	-0.7225942618	-0.781643213	 0.8045410408	-0.294759
C	 0.6862541146	-0.7994086211	 1.0434037394	-0.038549
C	 1.4158373892	-1.9573357775	 0.3808505397	-0.350901
C	 1.1699011356	-1.7115376101	-1.1074866694	 0.173677
C	 0.483635769	-0.5713830007	-1.3061589782	-0.249801
C	 1.609465739	-2.6217354786	-2.0956750798	 0.223774
C	 2.0124422798	-3.4209152317	-2.9031124077	-0.415108
H	 0.7355344275	 2.1216894205	-0.2687351061	 0.127109
H	-0.9996595773	 1.8421306692	-0.4847175351	 0.13146
H	-0.3058021268	 1.8321648649	 1.1444450253	 0.133239
H	 1.0019733866	-0.4290765549	 2.015758312	 0.094041
H	 2.4872886321	-1.9475178138	 0.6130631461	 0.121342
H	 1.0223687837	-2.9286977478	 0.6993090983	 0.135663
H	 0.1956049619	-0.1774983782	-2.2727092905	 0.107092
H	 2.3579145716	-4.1176453695	-3.6260522554	 0.19422
