14
gdb 9566	4.50726	1.32104	1.23044	4.4409	70.25	-0.2667	-0.0072	0.2596	987.1647	0.10553	-341.538147	-341.530024	-341.52908	-341.57047	29.489	
C	-0.0432630489	 1.5489044311	-0.0624649177	-0.453277
C	-0.0145360442	 0.0355734249	 0.0136907386	 0.127246
N	 1.3060425769	-0.587728227	-0.1988974106	-0.334912
C	 0.7069457854	-0.6706542896	 1.1432549401	-0.232491
C	 1.3538823546	 0.0711585584	 2.1980049031	 0.337288
N	 1.8429508894	 0.6652829249	 3.060766356	-0.331245
C	-1.1729601121	-0.6477043632	-0.5065281523	 0.272402
C	-2.1331757451	-1.2070469388	-0.9658326757	-0.423705
H	 0.8736594618	 1.9660095471	 0.3574625566	 0.154334
H	-0.1268561502	 1.8651919662	-1.1057412001	 0.139049
H	-0.900912687	 1.9437289086	 0.4887723404	 0.139555
H	 1.2051219655	-1.485901464	-0.6662817593	 0.253118
H	 0.2837047774	-1.6173694146	 1.4652208687	 0.143341
H	-2.9846161336	-1.700019084	-1.366748318	 0.209297
