20
gdb 66566	2.3111	2.21316	1.56603	1.8317	81.03	-0.2215	0.0833	0.3048	954.2432	0.17136	-365.943653	-365.935973	-365.935029	-365.975147	31.275	
C	-0.0632658545	 1.4373113513	 0.0045650687	-0.521313
C	 0.1089573363	-0.0477222826	 0.0163999401	 0.317193
C	 0.2587078554	-0.9260706037	-1.1773894962	-0.089635
C	 0.9251396742	-2.1718234871	-0.5631496907	-0.077503
C	 1.9443474054	-1.6538975076	 0.4812049644	-0.295666
C	 0.7161419409	-0.953696184	 1.1273478776	 0.274775
C	 0.6713258065	-0.5035788831	 2.564319481	-0.515166
C	-0.2267408627	-2.0263886393	 0.4816304575	-0.025423
N	-1.0010881635	-0.999014287	-0.3506002493	-0.224489
H	 0.9049966555	 1.9484524677	-0.0504053521	 0.119304
H	-0.6575014475	 1.7411194396	-0.8628797747	 0.131915
H	-0.5815626033	 1.7877035032	 0.9036766616	 0.124254
H	 0.2476598081	-0.5810978329	-2.2049857383	 0.088565
H	 1.0942686975	-3.0495743498	-1.1831514865	 0.072312
H	 2.3233858505	-2.4631851764	 1.1152391629	 0.095232
H	 2.7766515378	-1.0326600782	 0.1341770431	 0.090943
H	 1.3546558658	 0.3359609884	 2.739654352	 0.118914
H	-0.3356735744	-0.1766934513	 2.8467303192	 0.125376
H	 0.9621457168	-1.3140009161	 3.2410503348	 0.116885
H	-0.7478933449	-2.8291181511	 1.0003930648	 0.073525
