13
gdb 5286	5.13657	1.68446	1.26848	1.2751	62.34	-0.2357	-0.023	0.2127	881.1885	0.098439	-394.864247	-394.857368	-394.856424	-394.895459	25.224	
N	-0.0431383958	 1.3053248096	 0.0071175501	-0.533551
C	 0.0272034118	-0.0473980364	 0.0012550884	 0.341362
O	 1.0612907837	-0.6997483209	-0.0092770861	-0.395551
C	-1.2933291081	-0.7136562399	 0.0094705944	 0.278509
N	-2.4913832149	-0.1578093393	 0.0209948695	-0.321255
C	-3.3734715558	-1.2048146123	 0.0244926783	-0.093555
C	-2.6966751301	-2.4048287093	 0.0144564487	-0.096925
N	-1.3708672892	-2.0704616338	 0.0051386625	-0.262912
H	 0.806339991	 1.8426719317	 0.001958916	 0.265052
H	-0.9424714515	 1.7581091008	 0.0155752954	 0.279606
H	-4.44113941	-1.046914605	 0.0337142407	 0.115736
H	-3.0330217208	-3.4281193092	 0.0133399591	 0.138914
H	-0.5599099302	-2.6692731259	-0.003557567	 0.28457
