15
gdb 18230	4.46867	1.62098	1.34695	3.7607	61.39	-0.2318	-0.0245	0.2073	892.9151	0.119123	-399.778407	-399.771404	-399.77046	-399.810246	25.644	
O	-0.721360699	 0.785919483	 0.637148587	-0.249706
C	 0.226933572	 0.8034442962	-0.1034884334	 0.165238
C	 1.3910647183	 1.7812032934	 0.0170172708	-0.090034
N	 2.6570672848	 1.0719434138	-0.1897547426	-0.323876
C	 3.6193567159	 1.9387648856	-0.8860672078	-0.189253
C	 2.7388639756	 2.9018040792	-1.6503534915	 0.052242
O	 1.6904431159	 2.2689959217	-2.3907651563	-0.243957
C	 1.3819743614	 2.8149274542	-1.10288658	 0.025242
H	 0.3407220847	 0.0966470377	-0.9519362939	 0.099681
H	 1.2950832904	 2.3116406712	 0.9774259124	 0.083101
H	 3.0254024074	 0.672877362	 0.6623875545	 0.23374
H	 4.2664669793	 2.5254179106	-0.2129098701	 0.09598
H	 4.2661570168	 1.3438112339	-1.541546586	 0.120753
H	 3.1515838469	 3.8072482223	-2.085540115	 0.106109
H	 0.6696047197	 3.6337359853	-1.0826022082	 0.114741
