16
gdb 2782	4.33236	2.10196	1.5648	3.6256	62.9	-0.2399	0.0391	0.2791	815.7186	0.137018	-325.80555	-325.798118	-325.797174	-325.837693	25.99	
C	-0.1881225832	 1.5579466781	-0.0482031327	-0.377705
C	 0.1576127787	 0.0666904225	-0.0036462639	-0.156466
N	 0.7758716035	-0.4154950858	-1.2165843442	-0.064368
C	 0.2745960859	-0.6004415745	-2.5823635901	-0.171232
C	 1.6733470831	-1.1755370913	-2.9458299514	-0.370152
C	 2.0293989877	-0.9249505858	-1.4612098612	 0.406423
O	 2.9849346337	-1.0890452118	-0.7477684897	-0.373038
H	 0.7108499509	 2.1598557578	-0.2091650541	 0.131708
H	-0.8962112907	 1.7786868291	-0.8535262535	 0.119467
H	-0.6479145666	 1.8693756912	 0.8947496098	 0.121811
H	 0.8737905238	-0.1377520492	 0.7984144366	 0.141556
H	-0.7460315135	-0.5223390432	 0.2066975626	 0.106995
H	-0.5571192231	-1.3106591982	-2.6562583736	 0.109236
H	 0.0016266361	 0.3293081775	-3.0927621948	 0.111518
H	 1.689189494	-2.2259896511	-3.2411379616	 0.132381
H	 2.2564768596	-0.5863234354	-3.6556491683	 0.131867
