19
gdb 68374	2.7449	1.70612	1.2629	3.0742	76.61	-0.2264	0.0231	0.2495	1037.1868	0.160722	-419.192963	-419.185253	-419.184308	-419.224901	30.989	
C	-0.1130773234	 1.5249797923	-0.0554449625	-0.475117
C	 0.0980508423	 0.0319401417	-0.060914605	 0.395682
C	 1.28923748	-0.649282764	-0.7677126599	-0.22196
N	 1.1986131954	-1.7650629991	 0.2459329572	-0.127473
C	 0.5686422166	-0.7582341096	 1.1787236176	-0.221961
C	 0.1286831466	-2.6657815364	-0.2005817773	-0.254592
C	-1.14924149	-1.9391699207	-0.6329771489	 0.3789
N	-2.1619083694	-2.57387178	-1.043433651	-0.531884
O	-1.1239780355	-0.5736982217	-0.5472188244	-0.285209
H	 0.7854140817	 2.0336072189	 0.3050061959	 0.121616
H	-0.3380432975	 1.884740675	-1.0639681467	 0.133293
H	-0.9511661152	 1.7919790926	 0.595309252	 0.133283
H	 1.1600040482	-0.944740715	-1.8125974434	 0.116656
H	 2.2308217291	-0.1071035833	-0.6451319689	 0.112574
H	 1.3437513118	-0.2412279597	 1.7509788649	 0.112575
H	-0.1973259998	-1.1499555119	 1.8537264426	 0.116657
H	 0.4875912765	-3.2688624365	-1.0400299171	 0.139532
H	-0.1218689651	-3.3610352892	 0.606288205	 0.13953
H	-2.9152324723	-1.9267379734	-1.2861026702	 0.217898
