19
gdb 78108	2.27098	1.6024	1.14834	1.4956	71.63	-0.2326	0.0689	0.3015	1109.7739	0.156563	-460.123294	-460.114045	-460.1131	-460.156278	36.397	
C	-0.1849387757	 1.5694975727	 0.0484176729	-0.464931
C	 0.0788769056	 0.0708532438	 0.0143487563	 0.427298
O	-1.1315072876	-0.6511192391	-0.2040488229	-0.482648
C	 1.2208287194	-0.4650252074	-0.9245111302	-0.358756
C	 1.8249305389	-1.2091346438	 0.2705979161	 0.324321
O	 2.4139422918	-2.4567779555	 0.2207238072	-0.459405
C	 2.2015568729	-0.2631479165	 1.3506579082	 0.054068
O	 2.674418619	 1.0411867541	 1.1373092289	-0.419672
C	 0.7452909452	-0.6004498177	 1.2190419055	-0.21093
H	 0.7324521275	 2.1214962725	 0.2552132188	 0.148493
H	-0.5851470043	 1.9090277726	-0.9164609242	 0.095512
H	-0.9235355623	 1.8027660467	 0.8218034674	 0.119401
H	-1.5742993847	-0.2502961445	-0.9602994629	 0.271943
H	 0.7983387354	-1.1403831685	-1.6720405073	 0.094559
H	 1.8714729813	 0.2688999524	-1.4093089289	 0.091499
H	 1.7760396369	-3.0748575583	-0.1542438824	 0.28811
H	 2.6598321266	-0.7713149563	 2.2007225448	 0.09826
H	 3.5835414329	 0.9773651199	 0.8253851426	 0.288609
H	 0.1803337913	-1.0296438974	 2.0383574802	 0.094271
