17
gdb 61137	4.70357	0.59878	0.549	3.3768	87.63	-0.2666	-0.0624	0.2042	1926.9294	0.131963	-384.638605	-384.628194	-384.62725	-384.675883	35.495	
C	-0.0893040473	 1.6170112253	-0.1133401276	-0.388886
C	 0.0227577603	 0.0819732418	-0.0183952961	-0.17648
C	-1.3731038333	-0.6010015572	 0.0980148808	-0.347761
C	-2.0877050307	-0.2153581809	 1.3074223082	 0.298756
C	-2.6548817805	 0.1098608714	 2.3161144383	-0.438678
C	 0.7532733179	-0.4584142523	-1.1590527732	 0.114831
C	 1.3276092532	-0.910302254	-2.1217322407	 0.018173
C	 2.0547038691	-1.429136514	-3.2511573785	 0.022968
O	 1.5731901249	-2.1222238831	-4.1181022647	-0.229671
H	 0.9012095232	 2.0768500907	-0.143473799	 0.130841
H	-0.6301766879	 1.9084131859	-1.0185926435	 0.131811
H	-0.6311291754	 1.9986951394	 0.7551710762	 0.141605
H	 0.5859192074	-0.1642974528	 0.8912725836	 0.129304
H	-1.9651825379	-0.3458029859	-0.7891619837	 0.145505
H	-1.2392476291	-1.6881389502	 0.0775644912	 0.147622
H	-3.1705789531	 0.3870737052	 3.2021379238	 0.201143
H	 3.1250963194	-1.1389756693	-3.2724799049	 0.098918
