20
gdb 76328	1.96122	1.64463	1.1404	2.7365	76.97	-0.2364	0.0299	0.2663	1177.	0.168102	-440.315421	-440.304938	-440.303993	-440.350555	37.426	
C	-0.0728285913	 1.6279370646	-0.0799754939	-0.41639
C	 0.075655526	 0.1178890145	 0.0115028732	 0.033451
N	 1.1580964402	-0.4693648486	-0.8026279638	-0.098498
C	 1.3355846166	-0.5750443568	-2.2286574915	-0.349317
C	 1.7634004849	-1.1348675271	 0.2259359779	 0.376604
O	 2.6781842137	-1.9213761464	 0.2747283089	-0.398098
C	 0.7674588265	-0.539933556	 1.257774023	 0.218962
C	 1.3625082675	 0.3612053773	 2.3269908433	-0.449186
O	-0.0754783932	-1.5319685296	 1.818011136	-0.475522
H	 0.880375449	 2.1386918287	 0.082541781	 0.122492
H	-0.4484462731	 1.9204601933	-1.0662343063	 0.12231
H	-0.7911474359	 1.9861124907	 0.6641054805	 0.130962
H	-0.8862852918	-0.3759710534	-0.1724815725	 0.093164
H	 1.4871795617	 0.40721225	-2.6901074439	 0.130096
H	 2.2212699449	-1.1890290072	-2.4086707135	 0.161655
H	 0.4712301418	-1.0542406521	-2.7063384149	 0.129068
H	 1.9830840449	 1.1526576352	 1.8976893358	 0.122472
H	 0.5687525466	 0.8166413528	 2.9268283077	 0.126136
H	 1.9977764513	-0.2330051915	 2.9920984192	 0.127782
H	 0.4966836596	-2.2132790285	 2.1907783839	 0.291857
