17
gdb 48278	2.43927	1.15856	0.8336	3.4069	72.58	-0.2539	-0.0238	0.2301	1343.8756	0.135393	-455.141432	-455.132365	-455.131421	-455.176631	31.505	
N	 0.1609189482	 1.0618379044	 0.1138770193	-0.458982
C	-0.047666119	-0.188891054	 0.1698077437	 0.098846
N	-1.324148719	-0.7473114496	 0.0404573256	-0.084314
C	-1.4742517129	-2.202224444	 0.0778666529	-0.225609
C	-1.2609471963	-2.7715273546	 1.4598907956	 0.091891
C	-0.640155309	-4.0859720802	 1.6537626821	-0.177205
O	 0.1013011453	-2.8867122422	 1.8903117876	-0.233843
C	-2.454112587	 0.0433770397	-0.1170080998	 0.163957
O	-3.5732044093	-0.405053822	-0.2252848581	-0.324754
H	 1.1518933199	 1.2587780118	 0.2324084166	 0.236268
H	 0.7112508808	-0.9596282337	 0.3295857922	 0.129779
H	-2.4904170526	-2.4133014404	-0.2619810795	 0.159723
H	-0.765122118	-2.6598910956	-0.6198426084	 0.119926
H	-1.9392009098	-2.3971441476	 2.2267368256	 0.115161
H	-0.8807774828	-4.669655397	 2.540135724	 0.126709
H	-0.3261542529	-4.6661564553	 0.7869810102	 0.120173
H	-2.2062909858	 1.1126370003	-0.1297882795	 0.142275
