20
gdb 113809	2.90261	0.98125	0.89972	3.1909	75.44	-0.2523	0.0624	0.3147	1389.7552	0.169808	-440.227708	-440.218084	-440.21714	-440.263212	34.941	
C	 1.0817023619	 1.1508212971	-0.1567233602	-0.395928
C	 0.0660078474	 0.0776272579	 0.1539840068	 0.001685
N	 0.5885675168	-1.2558913703	 0.493849791	-0.328054
C	-0.1390656136	-0.4885749409	 1.5173397558	-0.07101
C	 0.5795127709	 0.0326620112	 2.7247491164	 0.047106
O	 0.625086794	-0.8107227712	 3.8834766042	-0.276848
C	 1.8681924788	-0.4364537607	 3.2645877876	 0.039296
C	 2.7020434253	-1.5785859172	 2.7385336619	-0.082581
O	 3.380432459	-2.2179378271	 3.8126220896	-0.423809
H	 1.9483115654	 1.0734391124	 0.5039609743	 0.131002
H	 1.4354326742	 1.0573010146	-1.188717563	 0.123954
H	 0.6437663232	 2.1480491773	-0.0401236478	 0.118629
H	-0.8236582932	 0.1054823004	-0.4740620944	 0.086558
H	-0.0055927184	-1.9878863584	 0.1147521936	 0.234547
H	-1.1540024463	-0.8090502038	 1.7519309814	 0.097563
H	 0.3057867702	 1.0629747617	 2.9674996439	 0.093731
H	 2.4436958545	 0.2811700742	 3.8541197677	 0.093618
H	 2.0788196276	-2.2727083473	 2.1680802619	 0.110636
H	 3.4794460433	-1.1989705093	 2.0675724133	 0.110753
H	 2.7020169688	-2.5639754805	 4.4028585059	 0.289152
