17
gdb 85395	1.954	1.77668	0.96088	3.0971	71.12	-0.2401	-0.0277	0.2125	1181.4484	0.137111	-455.209979	-455.201817	-455.200873	-455.242902	30.411	
C	-0.013456823	 1.466074169	 0.0021759352	-0.316293
N	-0.0132087612	 0.0123345576	 0.0263204445	-0.091498
C	-1.3542847893	-0.5381118482	-0.0634090537	-0.268126
C	-1.3523052245	-2.0566793072	-0.1244360845	 0.412965
O	-2.2364026243	-2.705961245	-0.6296781987	-0.33427
N	-0.2602887172	-2.6631894571	 0.4834908032	-0.356135
C	 0.7810357861	-2.0350808256	 1.1551000404	 0.412973
O	 1.6528402098	-2.6665862791	 1.702477625	-0.334271
C	 0.7056287618	-0.517246306	 1.1719005718	-0.268118
H	 1.0169562907	 1.8335580526	 0.0006707762	 0.1301
H	-0.5028096134	 1.8181634913	-0.9107125832	 0.130101
H	-0.5372926076	 1.9129103088	 0.8681420848	 0.100809
H	-2.0002920689	-0.2453143103	 0.7916316527	 0.111443
H	-1.847169793	-0.1826678463	-0.971185823	 0.145667
H	-0.2404185759	-3.676409141	 0.4674601643	 0.26755
H	 1.7331678675	-0.1464590581	 1.1758477506	 0.145673
H	 0.2512949025	-0.2224291956	 2.1418545146	 0.111431
