21
gdb 90817	3.2162	1.71285	1.50973	0.092	83.59	-0.234	0.0921	0.3261	975.0029	0.185702	-349.921238	-349.914317	-349.913373	-349.952266	29.496	
C	-0.1941197957	 1.5758108656	-0.0039890252	-0.402899
C	 0.0037339483	 0.058857589	-0.0214764012	 0.032861
C	 0.7953806207	-0.470947428	-1.265901592	-0.252311
C	 1.9333503223	-1.3092847815	-0.6694189445	-0.013255
C	 2.9936421747	-0.5079927162	 0.0992080376	-0.06887
C	 2.8478474641	-1.3363332807	 1.3519130276	-0.110035
C	 2.2446418482	 0.0481282352	 1.3215694872	-0.067279
C	 0.8095785628	-0.4836281832	 1.1712550391	-0.023449
C	 1.4861389419	-1.8214244153	 0.7389273407	-0.088089
H	 0.7709073019	 2.0948460419	-0.0192042047	 0.116232
H	-0.765518112	 1.912347325	-0.8755773784	 0.109717
H	-0.7348344263	 1.8995006062	 0.8925371776	 0.106492
H	-0.9862917371	-0.4157907972	-0.0063600323	 0.062764
H	 0.1506485451	-1.0727228691	-1.9156570464	 0.089694
H	 1.1854463459	 0.349776616	-1.8788535081	 0.091517
H	 2.3591504664	-2.0696090745	-1.3273244437	 0.058124
H	 3.8791043995	-0.0195710676	-0.2882536875	 0.077386
H	 3.5782848904	-1.7868561247	 2.0070946658	 0.085611
H	 2.5882322313	 0.9375020807	 1.834000094	 0.07916
H	 0.2649229079	-0.5218379307	 2.1177509966	 0.055602
H	 1.0041742595	-2.7867488107	 0.8790934078	 0.061029
