19
gdb 96517	2.36398	1.64143	1.06722	4.4877	72.34	-0.2507	0.0044	0.2551	1144.2315	0.159769	-460.196183	-460.18776	-460.186816	-460.229157	31.999	
C	-0.5554929976	 1.1890625361	 0.0965529069	-0.394492
C	 0.3915546562	 0.0019500747	 0.1690979664	-0.020408
O	 1.0715971473	-0.0967208249	-1.0768625034	-0.251741
C	 1.4493471626	-1.4032552642	-1.4640383229	-0.076184
C	 2.5881080212	-1.9782932722	-0.6238442256	-0.214168
C	 2.2598290861	-2.0685750185	 0.8633510554	-0.081083
O	 2.3032583459	-0.806819358	 1.5441510388	-0.227691
C	 1.404945645	 0.1821762745	 1.3191857925	 0.423836
O	 1.4456062799	 1.1660072039	 2.0057785991	-0.314608
H	 0.0070796272	 2.1055664102	-0.0911480121	 0.145008
H	-1.2712914324	 1.0336845965	-0.7142163427	 0.114981
H	-1.0941426511	 1.3090990952	 1.0386702489	 0.130952
H	-0.1859342359	-0.9203654923	 0.3485294267	 0.084182
H	 0.5760473016	-2.0765655162	-1.4167290847	 0.090212
H	 1.7524809219	-1.3267689803	-2.5125161551	 0.116321
H	 2.8185461624	-2.9872597665	-0.9885035421	 0.107367
H	 3.4907004872	-1.369891009	-0.7479235457	 0.127838
H	 1.2878482264	-2.5525117048	 1.0264936126	 0.110619
H	 3.014164666	-2.6655470143	 1.3804368871	 0.129058
