17
gdb 39755	3.28624	1.67094	1.47409	2.1469	70.68	-0.2396	0.0795	0.3191	925.764	0.137332	-421.765959	-421.759332	-421.758388	-421.796849	27.018	
C	 0.0555000203	 1.5212170317	 0.0025755381	-0.27917
O	 1.1877584272	 0.6246895886	-0.008765742	-0.294023
C	-0.1143825002	 0.0717068237	 0.0307302731	 0.480884
C	-0.5177617314	-0.909265987	 1.104362464	-0.179719
C	-1.8762138315	-1.504818852	 0.7393189578	-0.091003
C	-2.7409025518	-0.7698457456	-0.2815322638	-0.101658
O	-1.9296550306	-0.6557563243	-1.4586457241	-0.259396
C	-0.5966583938	-0.9199002415	-1.0550584607	-0.035586
C	-0.6524816376	-2.0119671654	 0.0494232454	-0.083205
H	-0.0627460705	 2.1009596687	 0.9171011479	 0.114058
H	-0.1100033852	 2.0699411037	-0.9233558919	 0.121544
H	-0.1133490739	-0.9655299446	 2.10746037	 0.098826
H	-2.3535637792	-2.1112837308	 1.4998660787	 0.100443
H	-3.6413308002	-1.3412025089	-0.5344610714	 0.108369
H	-3.0483644636	 0.2256598069	 0.0649951739	 0.102884
H	 0.0389622277	-1.0416426415	-1.9306786812	 0.096711
H	-0.2847518557	-3.0275168417	 0.0268669164	 0.100042
