16
gdb 75223	3.94677	1.15321	1.02994	4.5648	75.87	-0.2594	-0.0169	0.2425	1171.9707	0.12387	-400.755866	-400.74789	-400.746946	-400.788301	30.006	
C	 0.0228502788	 1.510019808	 0.073154587	-0.502422
C	-0.0064105082	 0.0177292872	-0.0133895872	 0.338871
C	 0.0347136794	-0.7552742921	-1.1047888888	-0.182804
C	-0.040277843	-2.2346523139	-0.7968520244	-0.341469
C	-0.0613612537	-2.2579913251	 0.7315664925	 0.288362
O	 1.102498034	-1.705880667	 1.3518284601	-0.27624
C	-0.0523140766	-0.8528775636	 1.206018772	-0.130001
C	-0.7086273579	-3.3357961988	 1.4371356527	 0.225877
N	-1.2398376681	-4.2124747169	 1.9715297079	-0.33555
H	 0.9029517178	 1.8582700663	 0.6271357736	 0.141743
H	 0.0417316242	 1.9653278732	-0.9200694142	 0.133141
H	-0.8566062868	 1.8932661703	 0.6052357203	 0.13473
H	 0.1402678842	-0.387525812	-2.1193966936	 0.10824
H	-0.9458334884	-2.6991106418	-1.2049389538	 0.136367
H	 0.8155454048	-2.796091879	-1.1884520387	 0.142026
H	-0.5081858404	-0.5370811546	 2.1399680947	 0.11913
