16
gdb 50744	2.36233	1.59311	1.06013	4.6248	66.71	-0.247	-0.0269	0.2201	1103.8766	0.12462	-475.056315	-475.048191	-475.047247	-475.089692	29.468	
O	-0.0165357418	-0.0998985616	-0.0348775779	-0.229941
C	 0.0183067661	 1.0933989737	-0.1436550964	 0.139588
C	 1.3070724507	 1.917294157	-0.0591230438	-0.082771
O	 2.4087664444	 1.0514029464	 0.0296093101	-0.242266
C	 3.6347723694	 1.6959517917	-0.2552191481	-0.078035
C	 3.6504667201	 2.1602903416	-1.7056888189	-0.160238
N	 2.4715811648	 2.981019537	-1.9450114291	-0.325457
C	 1.3224908689	 2.9251102841	-1.2232184227	 0.376382
O	 0.3506756552	 3.6251035119	-1.441239894	-0.377224
H	-0.8791883325	 1.7203220838	-0.3078703537	 0.118804
H	 1.2076641031	 2.5380530991	 0.8523138352	 0.12534
H	 3.7959849594	 2.5521364859	 0.4193079281	 0.103775
H	 4.4237771458	 0.9611782224	-0.0789206044	 0.127301
H	 4.5510313656	 2.7521313049	-1.9031461823	 0.1199
H	 3.6648098233	 1.2869578344	-2.3710949346	 0.128396
H	 2.4476136875	 3.6096076777	-2.7351671476	 0.256445
