21
gdb 53537	3.60839	0.82042	0.79076	1.6594	87.49	-0.244	0.0472	0.2913	1581.4949	0.180508	-387.06353	-387.053333	-387.052389	-387.099935	37.046	
C	 0.1009603098	 1.4249674989	-0.1835997422	-0.498905
C	 0.0317385676	-0.0284279367	-0.1140022136	 0.104958
C	 0.0066485995	-1.2330245877	-0.0707623608	 0.005915
C	-0.1005264881	-2.686887276	 0.0116830175	-0.400929
C	-1.5686993484	-3.1423761707	 0.1592394516	 0.433667
O	-2.1482189612	-2.5697535361	 1.3072928889	-0.482232
C	-2.3776006696	-3.0503608514	-1.1726004597	-0.271456
C	-2.1284424671	-4.5685594568	-1.3862878101	-0.215267
C	-1.7292926898	-4.6807547343	 0.1110829755	-0.264205
H	 0.9023314021	 1.7496192163	-0.8564169918	 0.151157
H	-0.8362806518	 1.8519726919	-0.5569864838	 0.149147
H	 0.296925496	 1.8641476245	 0.8007093996	 0.14917
H	 0.3467324166	-3.1519795836	-0.8754853596	 0.123963
H	 0.46043663	-3.0541702913	 0.8806200049	 0.129805
H	-1.939060114	-1.6264461228	 1.2938071808	 0.275883
H	-3.4259948144	-2.8355899858	-0.9519309235	 0.105132
H	-2.0199807334	-2.3530152647	-1.9345205133	 0.097029
H	-2.9781877545	-5.1686822278	-1.7165329256	 0.10113
H	-1.2893045815	-4.7651882551	-2.0589277802	 0.101031
H	-0.8564349849	-5.2858673837	 0.3718947835	 0.092261
H	-2.570538993	-4.9809785373	 0.7400743821	 0.112748
