18
gdb 68436	2.70214	1.60679	1.25285	1.181	77.05	-0.228	0.0473	0.2753	1034.4899	0.148226	-401.874458	-401.866609	-401.865664	-401.906402	31.696	
O	-0.1087694023	 1.3865381051	 0.0729171332	-0.47763
C	 0.0397004282	 0.0092278756	 0.0529716794	 0.378082
C	 0.8807566942	-0.7972262999	-0.9778742261	-0.240659
N	 0.7931262505	-1.9254247091	 0.0263902876	-0.12129
C	 0.8232832523	-0.8470229549	 1.0895986092	-0.246738
C	-0.6716580039	-2.2024750562	-0.0258351421	-0.188645
C	-1.3070520447	-0.7569245345	-0.0133843228	-0.214317
C	-2.208449694	-0.4975432907	 1.0946417569	 0.325108
C	-2.9518140096	-0.3123708087	 2.0217599584	-0.457674
H	 0.7620838074	 1.7889154709	 0.154221375	 0.284987
H	 0.4634153357	-1.0139171557	-1.9657656236	 0.103255
H	 1.913308283	-0.4488885445	-1.067232432	 0.100829
H	 1.8503128746	-0.5082652535	 1.250544806	 0.100292
H	 0.3470262842	-1.1051794296	 2.0381689542	 0.119078
H	-0.9136903895	-2.7572438427	-0.9349618483	 0.112085
H	-0.9744031539	-2.7912419629	 0.8413536004	 0.123721
H	-1.8146851777	-0.5295564948	-0.9568177292	 0.10643
H	-3.6118895947	-0.1330371438	 2.8337970138	 0.193086
