25
gdb 100718	2.69783	0.92344	0.81353	2.4452	89.43	-0.2375	-0.0078	0.2297	1589.3104	0.225538	-389.526905	-389.515156	-389.514212	-389.564283	42.266	
C	 0.0274081985	 1.6169381025	 0.086979907	-0.390139
C	-0.0144961786	 0.0892482527	-0.0387832736	-0.190461
C	 0.7723382912	-0.4761654471	-1.2365619543	 0.062619
C	 2.2599513777	-0.0925342065	-1.1699527177	-0.41392
C	 0.6277716423	-2.0124167164	-1.3619674886	-0.074406
C	-0.8334980771	-2.5128115792	-1.3704108537	-0.412367
C	 1.2606026802	-2.5168103473	-2.6663484135	 0.395919
C	 2.0478375429	-3.812014975	-2.586483629	-0.483253
O	 1.1106519401	-1.9253133664	-3.7117591821	-0.320136
H	 1.0317514672	 1.9879977271	 0.3101686859	 0.118636
H	-0.3067345765	 2.0975382446	-0.8395491882	 0.116174
H	-0.632036484	 1.9558888346	 0.8921889236	 0.110503
H	 0.363136511	-0.363755198	 0.8894886808	 0.087212
H	-1.0632426306	-0.2142367877	-0.1205356009	 0.097237
H	 0.3543907745	-0.0494210147	-2.1574928184	 0.0927
H	 2.724985475	-0.4797512066	-0.2543878327	 0.104761
H	 2.8118918811	-0.4899709884	-2.0263547251	 0.122852
H	 2.3968405378	 0.9916491995	-1.1768004865	 0.118217
H	 1.1465280005	-2.4893378762	-0.5187619925	 0.067279
H	-0.8816065088	-3.5863399847	-1.5827981952	 0.113594
H	-1.3182753249	-2.3512398206	-0.405455358	 0.124415
H	-1.4087558386	-1.9947127706	-2.1439122395	 0.135253
H	 1.4819901866	-4.5840648348	-2.05387767	 0.13548
H	 2.3083991069	-4.1594512135	-3.5870830099	 0.139319
H	 2.9649235357	-3.6410627473	-2.0095133581	 0.142513
