17
gdb 54376	3.30667	1.40474	1.27821	2.3543	72.58	-0.242	0.0134	0.2554	1032.5443	0.137715	-417.97584	-417.968271	-417.967326	-418.008175	29.367	
N	 0.1739130652	 0.7634535901	-1.0010998634	-0.541048
C	-0.0009514128	 0.1093888957	 0.184046202	 0.221753
O	 0.7765895927	 0.1536209395	 1.1187509857	-0.366849
C	-1.2367906823	-0.714421459	 0.2161281694	 0.319083
C	-1.7055242898	-1.8859490754	-0.5820490603	-0.07279
C	-2.1808227039	-2.6168745444	 0.6724120524	-0.243568
C	-2.2282245135	-1.2122829511	 1.3328610863	-0.135942
C	-3.3061581156	-0.5005002785	 0.4971773847	-0.152143
N	-2.4059028884	-0.5657659757	-0.7074460721	-0.208074
H	 0.9467013449	 1.4042470184	-1.0768123297	 0.260449
H	-0.6083677498	 0.8525305976	-1.6300093551	 0.270987
H	-1.2824300618	-2.2876056842	-1.4933856627	 0.110936
H	-3.1117233373	-3.1920993013	 0.6316783192	 0.099324
H	-1.3764643567	-3.2323725446	 1.0809806039	 0.122875
H	-2.1264616028	-1.0846691508	 2.4068594106	 0.096662
H	-4.2785613382	-0.9915112367	 0.3766941533	 0.101841
H	-3.44544737	 0.5501035105	 0.7614912259	 0.116504
