15
gdb 77650	2.20165	1.46654	1.30759	3.5585	68.14	-0.2423	-0.0035	0.2388	1040.1828	0.112149	-453.894872	-453.886484	-453.88554	-453.927782	31.155	
O	 0.0026087847	 1.360036655	 0.0287841846	-0.426573
C	-0.0888080584	-0.0200616798	 0.0390719691	 0.025658
C	-1.3779621647	-0.788716394	 0.0682868543	 0.274227
O	-1.7144944729	-1.7682904591	 0.9605915061	-0.433437
C	-2.4326097667	-0.1041680707	-0.7926600467	-0.228312
N	-1.445759183	 0.0830851845	-1.9130976294	-0.389182
C	-0.4632847023	-0.7823964164	-1.2184757592	 0.112825
C	 0.3296364222	-1.7596752541	-1.8702855037	 0.169711
N	 0.9628167485	-2.5753819093	-2.3966775426	-0.348751
H	-0.3815144795	 1.6427865365	-0.8169240541	 0.305994
H	 0.7114384142	-0.4866644532	 0.6107849508	 0.126503
H	-1.1773708874	-1.6790893277	 1.7552885849	 0.303913
H	-3.2353785255	-0.7994340374	-1.0515402823	 0.134752
H	-2.8545743221	 0.8294341898	-0.4081932301	 0.124529
H	-1.7695834471	-0.335761824	-2.7779427617	 0.248142
