19
gdb 87644	2.64393	1.28495	1.09931	1.5544	78.07	-0.2462	0.0209	0.267	1198.13	0.159003	-419.186646	-419.177537	-419.176593	-419.220389	34.165	
C	-0.0634658942	 1.4816933641	-0.0684354264	-0.405357
C	 0.0889582952	-0.0231069375	-0.0414791835	-0.077339
C	 1.4802539893	-0.6547783881	-0.0571527997	-0.373911
C	 0.633338149	-0.7143271719	 1.1621648523	 0.446459
O	 0.9738541366	 0.0110704579	 2.3731812432	-0.27708
C	 0.3672294792	-0.9548194828	 3.1571298707	 0.404885
N	 0.1472019016	-0.990541976	 4.3906186676	-0.551449
C	 0.0532718571	-1.873989343	 1.972769119	-0.204811
N	-1.2986301335	-2.2844296214	 1.6683993468	-0.514118
H	 0.6984679913	 1.9635822401	 0.5504973015	 0.131236
H	 0.029861199	 1.8671714281	-1.0888811659	 0.121187
H	-1.0421976171	 1.7866074192	 0.3172086631	 0.119794
H	-0.68282992	-0.5837057717	-0.5639572337	 0.106695
H	 1.6441338798	-1.5672338181	-0.6213996166	 0.122133
H	 2.3273743	 0.023768553	-0.0313687518	 0.125871
H	 0.4890562384	-0.1490463005	 4.8586481537	 0.22786
H	 0.7014433091	-2.7557000695	 1.9702999285	 0.115664
H	-1.5732089729	-3.0477041256	 2.2788115012	 0.245301
H	-1.9458699078	-1.5226434865	 1.84995622	 0.23698
