20
gdb 17790	5.72527	1.02541	1.00828	1.3187	75.79	-0.2625	0.0809	0.3433	1228.9303	0.17823	-348.944228	-348.936369	-348.935425	-348.976989	29.853	
O	 0.0013929695	 1.4380924838	-0.2393541556	-0.420911
C	 0.0169160103	 0.0338101788	-0.0289389612	-0.064869
C	-1.4097563297	-0.4810380489	-0.1894682816	-0.238423
C	-1.4953522596	-1.9948093961	-0.0517775493	 0.064653
C	-1.4128635839	-2.7224902024	 1.3353569639	-0.046548
C	-2.8705536512	-2.2554629909	 1.6200101981	-0.220988
C	-2.86182148	-2.731510578	 0.1371375099	-0.060438
C	-2.0379449607	-3.9581732127	 0.625615108	-0.217718
H	 0.8970577504	 1.7689112992	-0.1261740967	 0.284079
H	 0.6786802615	-0.4700981605	-0.7529483003	 0.081905
H	 0.3904562017	-0.2139062068	 0.9779865802	 0.085936
H	-2.0443576952	 0.0403734812	 0.5328631829	 0.106813
H	-1.767487552	-0.1876006147	-1.1845916311	 0.10447
H	-0.8615159399	-2.466321065	-0.814320328	 0.057216
H	-0.5735552525	-2.724220164	 2.0335142411	 0.064349
H	-3.4436395209	-2.8714197377	 2.3186896677	 0.087545
H	-3.0386187122	-1.1956338454	 1.81458105	 0.094094
H	-3.7030686216	-2.7390050735	-0.5585978337	 0.065981
H	-1.4184218326	-4.4644156479	-0.1203866627	 0.08581
H	-2.5623323814	-4.6728305286	 1.2655186985	 0.087045
