16
gdb 80358	3.50183	1.3192	1.15208	2.788	68.47	-0.2633	0.0011	0.2644	1061.2265	0.122834	-437.843898	-437.835648	-437.834704	-437.876412	31.357	
C	-0.1062742455	 1.6091813007	 0.0705867618	-0.459032
C	 0.0860468879	 0.0990944633	 0.1036685363	 0.221134
O	 1.1890807037	-0.3881089748	-0.7326247136	-0.32641
C	 1.6803354256	-1.2054974927	 0.349437833	 0.018733
C	 2.1947239869	-0.3043631856	 1.4086697144	 0.112794
O	 2.8035262045	 0.9112239461	 1.1190934661	-0.428854
C	 0.6964762699	-0.5832298264	 1.3369483712	-0.208425
C	-1.1491247421	-0.5875235186	-0.3186674381	 0.28951
N	-2.1303448773	-1.1132630326	-0.6279800033	-0.332665
H	 0.7825178575	 2.1079046961	 0.4555546141	 0.151068
H	-0.308911112	 1.9393863562	-0.9521641892	 0.146237
H	-0.9626848651	 1.8834564455	 0.6934311335	 0.145729
H	 1.969019269	-2.2229574179	 0.1147504218	 0.121027
H	 2.6580471125	-0.8011500086	 2.2573070038	 0.125141
H	 2.7741309068	 1.0093417982	 0.1580754863	 0.299217
H	 0.1279486476	-1.0209289488	 2.1457003519	 0.124796
