17
gdb 108403	2.51131	1.36709	1.07557	0.6516	74.99	-0.2333	0.0443	0.2776	1154.3043	0.134048	-421.73716	-421.728411	-421.727467	-421.770761	32.705	
O	 0.6622363011	 0.2918225723	-0.6867804286	-0.405049
C	-0.1970660785	 0.2918919168	 0.4380698689	-0.183511
C	-1.4596648872	-0.4969658935	 0.2131028003	 0.421154
O	-2.4457701796	-0.4328978788	 1.2376589242	-0.316659
C	-2.778081944	-1.836245029	 1.0177864472	-0.104836
C	-1.7881120088	-1.9242954796	-0.1352102031	-0.194385
C	-2.0849613587	-0.8014077878	-1.1381291627	-0.317839
C	-3.4100704597	-0.399969161	-1.5065827855	 0.342905
C	-4.5241172123	-0.0641408769	-1.8121433582	-0.436275
H	 0.2788065911	 0.8752173766	-1.3493386101	 0.292697
H	 0.3703024582	-0.1498762634	 1.2639458778	 0.126047
H	-0.4817810761	 1.3090598985	 0.7484391931	 0.113907
H	-2.4910556319	-2.4346369332	 1.8882433994	 0.115293
H	-3.8390398609	-1.9759707902	 0.7883054499	 0.123162
H	-1.1556480322	-2.7632745527	-0.391071097	 0.111993
H	-1.3492254823	-0.7956640901	-1.9386259777	 0.116741
H	-5.5051033283	 0.239023492	-2.0821394479	 0.194656
