19
gdb 82758	2.22745	2.19119	1.53219	0.5427	73.53	-0.2368	0.0704	0.3072	948.2119	0.159153	-422.982632	-422.975033	-422.974089	-423.014166	30.731	
C	-0.0572160743	 1.5279914609	-0.0683462166	-0.427785
C	 0.062799475	 0.0109766974	 0.0193696141	 0.004397
C	 1.0615355019	-0.6272150556	-0.9702452124	 0.008085
O	 2.3141024208	 0.0408804325	-0.6242901427	-0.292587
C	 2.2636619531	-0.7355197065	 0.5723048392	 0.011868
C	 1.4965810114	-1.8822794409	-0.0778920691	 0.059045
O	 0.5836675234	-2.0253304384	 1.0042829457	-0.326513
C	 0.8076812051	-0.5914748682	 1.2432492256	 0.369485
C	 0.5361193087	-0.1411263558	 2.646820482	-0.516882
H	 0.9261728107	 2.0018861273	-0.0398977613	 0.136294
H	-0.5478859389	 1.8251771783	-1.0012701152	 0.115808
H	-0.6588014598	 1.9207321667	 0.7578624988	 0.113881
H	-0.9182829218	-0.4701628698	-0.0403623415	 0.083856
H	 0.8564932819	-0.6508944667	-2.0391501329	 0.081907
H	 3.170536054	-0.7644326085	 1.1743805829	 0.092121
H	 1.8791626834	-2.7999608041	-0.5201673726	 0.094404
H	 1.1455646977	-0.7026696757	 3.3606364446	 0.129171
H	 0.7665989835	 0.9231093438	 2.7555373304	 0.131024
H	-0.5174746558	-0.2912591169	 2.9056529611	 0.132419
