21
gdb 94684	2.46542	1.61456	1.19895	1.368	78.49	-0.2496	0.0688	0.3184	1121.8687	0.1813	-424.227118	-424.217839	-424.216895	-424.260297	35.909	
C	 0.038364595	 1.5653478092	-0.0647538176	-0.415665
C	 0.0454365325	 0.0488134199	 0.0302849401	 0.092031
O	 0.7422540068	-0.4828061094	-1.0957533254	-0.271441
C	 1.2034071477	-1.7907412735	-0.7620133505	-0.13887
C	 1.4920755368	-1.7704498339	 0.7315482556	 0.266086
C	 1.5559107798	-3.0648632006	 1.4996961775	-0.484535
C	 2.2671074381	-0.5483891867	 1.1964863974	-0.404968
C	 0.7588999872	-0.5556095993	 1.2367487996	 0.333256
O	 0.0709137635	-0.6004547226	 2.4474371479	-0.475096
H	 1.0581563181	 1.9607960629	-0.0473761611	 0.120379
H	-0.4422064109	 1.8899237051	-0.9916929855	 0.127715
H	-0.5202997754	 1.9926207911	 0.7747628313	 0.109573
H	-0.9939737002	-0.3232385558	 0.0536600464	 0.070353
H	 0.4339298989	-2.5504638614	-0.9799275199	 0.088656
H	 2.0773378244	-1.9972103754	-1.3895166756	 0.10452
H	 2.4702489879	-3.624460621	 1.2727946252	 0.116279
H	 1.5304562819	-2.87231566	 2.5756237835	 0.129859
H	 0.7013544279	-3.7071389101	 1.2581856575	 0.118068
H	 2.7704757524	-0.6416323125	 2.1532745675	 0.108242
H	 2.7754913025	 0.0689797957	 0.462247925	 0.11846
H	 0.2304974251	 0.2256697483	 2.9155429609	 0.287097
