20
gdb 12368	2.81281	2.12093	1.44016	1.0472	76.57	-0.2406	0.025	0.2657	946.5739	0.177706	-349.019033	-349.011009	-349.010064	-349.050871	31.169	
C	-0.0939986721	 1.5175905798	-0.0982578607	-0.412441
C	 0.0383120647	 0.0059384714	 0.0105411043	 0.127057
O	 0.6832202565	-0.4443824445	-1.1796697825	-0.26301
C	 0.6197722322	-1.8472823072	-1.3413959369	-0.118237
C	 0.9232857073	-2.6018332409	-0.0777252445	-0.069757
C	 1.018604256	-1.9890151989	 1.0993069995	-0.074288
C	 0.8102007027	-0.4999407553	 1.2484952053	-0.023973
C	 2.1530637759	 0.2175965867	 1.4775824831	-0.392173
H	 0.8825289462	 1.9877285322	-0.2403379092	 0.128349
H	-0.7210448176	 1.7771119891	-0.9553936001	 0.120257
H	-0.552237762	 1.931339048	 0.8055860935	 0.11122
H	-0.9727299677	-0.4350147658	 0.0539585623	 0.062795
H	-0.3731329978	-2.147647204	-1.7274420253	 0.093613
H	 1.3473055295	-2.098757543	-2.1230444172	 0.114115
H	 1.0567791509	-3.676593577	-0.1711849958	 0.088553
H	 1.2672829716	-2.5518995237	 1.9960369685	 0.085519
H	 0.1729054931	-0.3265158136	 2.1276855079	 0.071732
H	 2.7586989601	 0.179268747	 0.5675476206	 0.13019
H	 2.0120066236	 1.2653312008	 1.7590972481	 0.111728
H	 2.7182453169	-0.268832301	 2.278976649	 0.10875
