22
gdb 104063	2.829	1.33248	1.20068	1.3824	81.72	-0.2087	0.0744	0.2832	1174.9106	0.193742	-404.293738	-404.284649	-404.283705	-404.327559	34.744	
C	 0.0659871824	 1.2767577346	-0.2785838596	-0.252342
O	-0.0624815539	-0.1036629231	-0.014227104	-0.282424
C	-1.3867842023	-0.5875258142	 0.0886072661	 0.420032
C	-2.1366638015	-0.0041575658	 1.283025855	-0.463543
C	-2.2209013717	-0.6243536683	-1.233106116	-0.242407
N	-2.4292083833	-2.1018593338	-1.1050264957	-0.131467
C	-1.4642090654	-2.8862473145	-1.9434225792	-0.16264
C	-0.3878894214	-2.8645262569	-0.8248963649	-0.261056
C	-1.433275593	-2.1338099041	 0.0457218605	-0.023715
H	 1.1256051443	 1.4651049686	-0.4680676383	 0.127737
H	-0.5078524613	 1.5808974873	-1.1666918624	 0.107393
H	-0.2519124149	 1.8997212724	 0.5686384441	 0.111064
H	-2.3323064169	 1.0659227032	 1.1598497822	 0.115276
H	-3.1030847187	-0.5037067041	 1.3983908315	 0.13231
H	-1.5578722585	-0.1495273001	 2.2009992033	 0.121704
H	-3.1595581788	-0.0613686972	-1.2262419712	 0.09743
H	-1.6430750483	-0.3373012074	-2.1196151329	 0.09606
H	-1.8601618178	-3.8817841123	-2.1671467736	 0.103112
H	-1.2024339687	-2.4009438125	-2.890114767	 0.098775
H	-0.0812249926	-3.8434139395	-0.4513459168	 0.100541
H	 0.5006950771	-2.2681015252	-1.0350650618	 0.121868
H	-1.7433318551	-2.6316018171	 0.969443141	 0.066292
