23
gdb 120194	3.72233	0.90874	0.82592	1.0213	87.72	-0.244	0.0979	0.3419	1530.3926	0.205374	-388.23718	-388.22778	-388.226836	-388.271807	35.515	
C	 1.2920629467	 1.5406613461	 0.2265816065	-0.385407
C	 0.7954357312	 0.1211027246	 0.0108818995	-0.043628
O	 1.6897902255	-0.5393421395	-0.8658976859	-0.269901
C	 1.3717876841	-1.8859310172	-1.0829425503	 0.195331
C	 0.3187305412	-2.2706639347	-2.1784163606	-0.111819
C	 1.3564894489	-1.7602514106	-3.2232735322	-0.226965
C	 2.1828704506	-2.5926981099	-2.1941006458	-0.108542
C	 1.0370407971	-3.6567065541	-2.269728718	 0.058752
C	 0.854314156	-4.7519304634	-1.2264962687	-0.444741
H	 2.2967686	 1.5331900588	 0.6587061317	 0.126231
H	 1.33281615	 2.0814620594	-0.7232549684	 0.12604
H	 0.6244561038	 2.0802692983	 0.905038832	 0.113109
H	 0.7411320397	-0.4195304032	 0.9710477053	 0.084764
H	-0.2219281371	 0.1276348873	-0.4122339078	 0.089147
H	 1.2829308127	-2.4030640954	-0.1205126942	 0.055625
H	-0.7578716786	-2.0899550581	-2.1684031005	 0.062763
H	 1.2737497033	-2.1805082577	-4.2293207192	 0.083442
H	 1.5455802922	-0.6885184627	-3.2387404777	 0.108044
H	 3.2588179066	-2.7756342414	-2.1997281233	 0.067004
H	 0.9547322222	-4.093367438	-3.2709322915	 0.06642
H	 0.9226435196	-4.4009524417	-0.1942685448	 0.119776
H	-0.1250774681	-5.2285770783	-1.3467733964	 0.116823
H	 1.6127675426	-5.5315993986	-1.3589377195	 0.117733
