15
gdb 29156	3.17873	1.44359	0.99402	2.3788	75.75	-0.1766	-0.0245	0.1521	1113.9128	0.115205	-450.199121	-450.191023	-450.190079	-450.231297	31.398	
N	 0.0337288737	 1.4295216541	 0.1652216688	-0.578153
C	-0.0335702101	 0.0365500416	 0.0477293929	 0.321195
C	-1.2037741146	-0.6586221476	 0.0259532351	-0.12247
N	-1.1393801614	-2.0476129414	-0.0147118351	-0.342792
C	 0.0168356498	-2.769443408	-0.0398294057	 0.384234
O	 0.0744193255	-3.9973024615	-0.063075705	-0.425766
C	 1.2172698116	-1.8948440349	-0.0316315661	 0.292884
N	 2.3805374493	-2.5801750043	-0.0970318753	-0.544476
N	 1.1845571406	-0.5914475138	 0.0158155534	-0.38921
H	 0.9132199383	 1.7813360942	-0.1883565437	 0.248348
H	-0.7500922378	 1.9223367024	-0.2389302004	 0.241988
H	-2.1886086378	-0.2163898706	 0.0545556178	 0.111194
H	-1.9905268831	-2.5910648527	-0.0192437432	 0.262678
H	 2.3152358151	-3.5817309666	-0.0057177594	 0.277767
H	 3.250603171	-2.101537901	 0.055902106	 0.262579
