21
gdb 114057	2.58975	1.19919	1.03011	1.1173	79.33	-0.2389	0.0756	0.3145	1268.8261	0.180702	-424.193344	-424.183577	-424.182633	-424.2276	36.86	
C	-0.0327553161	 1.5619066153	 0.0109336845	-0.49717
C	-0.0394950592	 0.0623845107	 0.0707961644	 0.308469
C	 1.1560023817	-0.7808830602	-0.3352978708	-0.402919
C	 0.6086875457	-0.9007356077	 1.0594134685	 0.341816
O	 1.3573855438	-0.58238134	 2.1844189306	-0.465155
C	-0.6418935523	-1.7906958462	 1.0841044932	-0.050392
C	-1.3595182264	-1.7864605209	 2.4212505114	-0.088037
O	-2.6182728981	-2.4213688669	 2.2398609979	-0.42643
C	-1.2890548103	-0.8317353594	 0.0273448603	-0.287622
H	 0.9375021255	 1.961652125	 0.3224745245	 0.122999
H	-0.2327547579	 1.9232692281	-1.0050365249	 0.11727
H	-0.7969283446	 1.9883529121	 0.6707624921	 0.115913
H	 1.0579466674	-1.5900077452	-1.0574003001	 0.099171
H	 2.089701199	-0.2286914243	-0.3961378033	 0.106641
H	 2.1082776987	-1.1843166726	 2.231064551	 0.285183
H	-0.4973818348	-2.827527483	 0.7568431235	 0.063588
H	-0.7491307052	-2.3121119663	 3.1716886022	 0.084184
H	-1.4785752734	-0.7487711309	 2.7722741587	 0.088315
H	-3.0882646443	-2.3971375607	 3.078263935	 0.285088
H	-2.188046436	-0.3491000793	 0.4189838265	 0.107156
H	-1.5249784131	-1.2735176879	-0.9458801951	 0.091931
