17
gdb 26577	2.33231	1.83447	1.04002	1.9622	78.62	-0.229	-0.0396	0.1895	1114.5937	0.136778	-418.095916	-418.087283	-418.086339	-418.129892	31.16	
C	 0.0524410605	 1.502479879	-0.0301158435	-0.483476
C	 0.0027326586	-0.0019384924	-0.0163844307	 0.2302
C	-1.191092852	-0.6775067218	 0.0064998471	 0.109273
C	-2.5297383637	 0.0079561169	 0.019682344	-0.504201
C	-1.1919612234	-2.1316394131	 0.0190990014	 0.375835
O	-2.1576733068	-2.8760817252	 0.0393343318	-0.391831
N	 0.1112207637	-2.6706750585	 0.0051497332	-0.338002
C	 1.2349050079	-1.917484422	-0.0174009465	 0.095986
N	 1.2364972746	-0.6242986528	-0.0286086608	-0.326204
H	 1.0898569484	 1.8370943372	-0.0476102637	 0.142328
H	-0.4672313935	 1.9083079894	-0.9055802502	 0.136614
H	-0.4425231904	 1.9235503762	 0.8524361893	 0.136607
H	-2.6688737082	 0.6407870081	-0.8646231747	 0.128564
H	-3.3208825087	-0.7427612256	 0.037181393	 0.157523
H	-2.6439652365	 0.6555503064	 0.8968439368	 0.128574
H	 0.1615139124	-3.6809747675	 0.0131751322	 0.266657
H	 2.176510627	-2.4612869843	-0.0261336286	 0.135553
