20
gdb 5848	3.15646	1.41722	1.23503	2.1438	67.	-0.2558	0.0587	0.3145	1073.4849	0.174481	-423.277912	-423.26819	-423.267246	-423.311462	36.715	
C	-0.114549203	 1.5275098584	 0.1050017666	-0.416412
C	-0.002171317	 0.004341508	 0.039772458	 0.356524
C	 0.7676785992	-0.531112487	 1.2580983083	-0.420103
O	-1.3352704348	-0.5053975497	 0.0447533937	-0.475482
C	 0.6913085568	-0.4774979342	-1.2575033944	 0.122327
O	 0.5669370984	-1.8964530785	-1.2695746648	-0.461287
C	 0.0591623247	 0.0828372424	-2.5327428835	-0.123304
O	 0.5965108305	-0.6812488016	-3.6156400556	-0.436161
H	 0.8683628473	 1.9993972288	 0.0090708888	 0.111806
H	-0.7695891337	 1.9110355122	-0.6810859869	 0.120478
H	-0.5428023213	 1.8226937716	 1.0670055506	 0.123669
H	 0.2180711367	-0.2888853435	 2.1717824131	 0.115296
H	 0.8811041859	-1.6159928722	 1.1929673213	 0.129938
H	 1.7671149137	-0.0875228433	 1.3238851113	 0.105094
H	-1.2467483874	-1.4363892694	-0.2014788495	 0.281268
H	 1.7555818543	-0.1937980549	-1.231891206	 0.068834
H	 0.6641527034	-2.1516810992	-2.1972436967	 0.293137
H	-1.030078202	-0.0301702664	-2.4670263807	 0.109281
H	 0.3011807372	 1.1465714397	-2.6517974515	 0.099054
H	 0.0239200013	-0.5744813912	-4.3797369121	 0.296042
