18
gdb 35169	3.66258	1.22866	1.09256	1.818	83.78	-0.2393	0.0349	0.2742	1148.3067	0.147784	-364.690913	-364.683232	-364.682288	-364.723008	30.809	
C	-0.107328315	-1.2161943922	 0.0204421155	-0.442651
C	-0.0473238541	-0.0152530706	 0.0347739087	 0.387034
C	 0.0253800686	 1.4185862858	 0.0097424256	-0.412645
N	 0.5979304003	 2.102797503	 1.2288388694	-0.413803
C	 1.308502004	 2.1564604499	-0.0217401506	 0.496882
C	 2.764682249	 1.764637748	-0.3107448423	-0.124737
C	 2.4925262163	 2.2376017268	-1.7726825147	-0.21478
C	 1.8336183088	 3.3268508949	-0.8697890147	-0.149959
C	 3.1181502664	 3.2507033093	 0.0184802503	-0.22308
H	-0.159352916	-2.2766326032	 0.0205776867	 0.196205
H	-0.8252678648	 1.9093218125	-0.4601616788	 0.111091
H	 0.0782094465	 2.9627335616	 1.3961829658	 0.233716
H	 3.2856215545	 0.8660303473	 0.0149401864	 0.088201
H	 3.3696576251	 2.5600046757	-2.3387425996	 0.094175
H	 1.8220008438	 1.6211096027	-2.3755382862	 0.102914
H	 1.2917389687	 4.2189504758	-1.1874574656	 0.074001
H	 3.0189214169	 3.5588539582	 1.0614280144	 0.104452
H	 4.034480031	 3.6368946547	-0.4352789202	 0.092984
