20
gdb 103388	2.36424	1.44449	1.32346	3.7261	78.23	-0.2398	-0.01	0.2299	1114.1478	0.169889	-403.136503	-403.127376	-403.126432	-403.170085	34.356	
C	-0.2027952925	 1.5141863711	 0.0628093243	-0.392146
C	 0.1051474811	 0.0110070132	 0.0875065375	-0.239272
C	 0.7392852279	-0.5204327352	-1.2060810331	 0.171642
C	 2.116280763	 0.0996644726	-1.4872565365	-0.449769
C	 0.7519261306	-2.0445090423	-1.435272925	-0.068319
C	-0.5904273318	-2.6120773239	-1.610340588	-0.265
N	 0.0280897976	-1.9171683155	-2.7826945085	-0.17626
C	-0.1178766202	-0.4976792644	-2.4946345948	 0.37445
O	-0.6549274378	 0.3456761105	-3.1442331579	-0.312357
H	 0.7093211689	 2.1160428929	 0.0161329859	 0.119846
H	-0.8189405926	 1.7724209869	-0.8029900153	 0.147221
H	-0.7427252907	 1.8066726122	 0.9681482028	 0.114433
H	 0.7815671151	-0.2201445359	 0.9214136227	 0.099597
H	-0.8217900306	-0.5371641293	 0.2886748919	 0.098721
H	 2.7870975162	-0.0657208074	-0.6367644932	 0.119754
H	 2.5760250149	-0.34366539	-2.3757474065	 0.13302
H	 2.0346014792	 1.1757705465	-1.655239512	 0.141467
H	 1.6403661902	-2.6625704397	-1.3721589648	 0.108795
H	-0.68063542	-3.6813915815	-1.7720330997	 0.140046
H	-1.4556113585	-2.1564944108	-1.1364270898	 0.13413
