21
gdb 121533	5.06077	0.4739	0.45231	2.5336	86.91	-0.2507	0.033	0.2837	2483.4009	0.178637	-424.186011	-424.174516	-424.173572	-424.224734	39.18	
C	 0.0216259002	 1.5101658898	-0.2224255532	-0.386733
C	-0.0055916413	 0.0032972011	-0.0358098782	-0.017107
O	-1.3545028654	-0.4238537798	-0.0463483863	-0.238517
C	-1.4787346319	-1.820971649	 0.1245225006	-0.205725
C	-2.8817476494	-2.2121384923	 0.1019598752	-0.051226
C	-4.0377682506	-2.5491312853	 0.0769911722	 0.173748
C	-5.4370110802	-2.9868512208	 0.085006075	-0.020761
C	-5.5621430428	-4.4684663719	-0.3010806297	-0.383858
O	-6.0745199612	-2.7156339768	 1.3315658799	-0.413467
H	 1.0528869342	 1.8755498619	-0.2196483637	 0.114913
H	-0.4435783957	 1.7866548821	-1.172624894	 0.130103
H	-0.5260189894	 2.0056856162	 0.5839631726	 0.130497
H	 0.5585265576	-0.4986611313	-0.8407878209	 0.086004
H	 0.4754440975	-0.2792606038	 0.916554221	 0.08584
H	-0.9321482519	-2.3572203479	-0.6715219367	 0.114683
H	-1.02114788	-2.1349462445	 1.0795862113	 0.112923
H	-5.9969223426	-2.386851101	-0.6426812993	 0.120748
H	-5.006651599	-5.0958078229	 0.4035443109	 0.115627
H	-6.6150730885	-4.7608601968	-0.2777681506	 0.125794
H	-5.1620230134	-4.6457586271	-1.3035932305	 0.12473
H	-5.5120852464	-3.07568527	 2.0261964342	 0.281783
