25
gdb 121833	3.89241	0.6319	0.61945	2.5979	85.9	-0.2596	0.0628	0.3224	1944.1726	0.225535	-426.63135	-426.619406	-426.618462	-426.668726	43.286	
C	 0.0680341668	 1.5077511243	 0.2493276124	-0.392411
C	-0.0251991664	 0.0088319323	-0.0503243777	-0.195045
C	 0.673117071	-0.4453043968	-1.3536816766	 0.346976
C	 0.0785390642	 0.2451530542	-2.5840281453	-0.403177
O	 2.0512092372	-0.0450464638	-1.3316150994	-0.456751
C	 0.5759287011	-1.9854693521	-1.4584510308	-0.219785
C	 1.2891172558	-2.6039045578	-2.6645682348	-0.175857
C	 1.3523243929	-4.1234693385	-2.5855442188	-0.075347
O	 2.0028993155	-4.5972494203	-3.7553547223	-0.421287
H	 1.1053910069	 1.847403033	 0.1863239682	 0.125724
H	-0.5223024224	 2.102850661	-0.4535190573	 0.117588
H	-0.305195963	 1.7242532162	 1.2549298072	 0.107167
H	 0.4273712927	-0.5518763276	 0.7805244033	 0.079584
H	-1.0761507567	-0.3047698644	-0.083695141	 0.093361
H	 0.1752655004	 1.3296562095	-2.4998966054	 0.123191
H	 0.6036310977	-0.0630111452	-3.4905968695	 0.127697
H	-0.9815699289	-0.0033437125	-2.6929492031	 0.108099
H	 2.4643567755	-0.4598189956	-0.5659938694	 0.273333
H	 1.0014372282	-2.4064547753	-0.5345250577	 0.076976
H	-0.4832383037	-2.2747232023	-1.4571542683	 0.093306
H	 0.7810601583	-2.3352332301	-3.5967975146	 0.107267
H	 2.3068417181	-2.2064840885	-2.7329713876	 0.116367
H	 1.8976495855	-4.4275816244	-1.6760211015	 0.078894
H	 0.3329808981	-4.5368414389	-2.5026471262	 0.080272
H	 2.0387263851	-5.5570707565	-3.711648134	 0.283857
