16
gdb 46838	2.88891	1.88479	1.52842	3.2502	69.89	-0.2505	-0.0142	0.2363	892.3833	0.127062	-437.88804	-437.881395	-437.880451	-437.919014	26.611	
N	-0.091651353	 1.2695174511	 0.2854136723	-0.52328
C	-0.0280664941	 0.0483914984	-0.0318717257	 0.426413
O	 1.1563731304	-0.5834713998	-0.2933433715	-0.270872
C	 1.1834246164	-1.8845730616	-0.9167849405	-0.071704
C	-0.1475402533	-2.6281679311	-0.7654900954	 0.00479
O	-1.1534383687	-1.7045675881	-1.1909343472	-0.248279
C	-1.2601870862	-0.8394009435	-0.0580602462	-0.062327
C	-1.1621964823	-1.8014057265	 1.1244093119	-0.080446
C	-0.4930335328	-2.8668481529	 0.6991062319	-0.088658
H	 0.8414685147	 1.6881200725	 0.2819054955	 0.22016
H	 1.3985451193	-1.7412953143	-1.9819195967	 0.122524
H	 2.0149848155	-2.4273859442	-0.4559973506	 0.117092
H	-0.1717763394	-3.5132573619	-1.4070777969	 0.095519
H	-2.1650897075	-0.238010767	-0.1280112049	 0.114637
H	-1.5098371122	-1.5711117978	 2.12152989	 0.128303
H	-0.1700022166	-3.7271684633	 1.2694606541	 0.11613
