22
gdb 78777	2.58883	1.69389	1.30647	1.6938	84.96	-0.2329	0.0816	0.3145	1085.2667	0.193433	-367.148115	-367.139184	-367.138239	-367.181402	35.036	
C	-0.2451776793	 1.5739133767	 0.0160554059	-0.431312
C	 0.0234454714	 0.0828876771	-0.1206289187	 0.091809
C	 0.6145049371	-0.6426547563	-1.3492534266	-0.149206
C	 1.1881900366	-1.6441094891	-0.2668847772	-0.051221
C	 2.3160844773	-0.7023851869	-0.1353735729	-0.080844
N	 1.0844152903	-0.5560592188	 0.7394907231	-0.181411
C	 2.0891573371	-0.1415780786	-1.5461163671	 0.329365
C	 2.7824624355	-1.037107192	-2.5865505784	-0.431403
C	 2.418601686	 1.3214868532	-1.8617859174	-0.475954
H	 0.647965858	 2.1917396281	-0.0570143277	 0.123713
H	-0.9527614661	 1.9032342942	-0.753320722	 0.114479
H	-0.7012693187	 1.7683293387	 0.992308542	 0.124044
H	-0.9016480661	-0.4413435744	 0.1507504713	 0.081935
H	 0.010257366	-0.8819182037	-2.2252499111	 0.062124
H	 1.0525093633	-2.695410741	-0.0508164934	 0.093658
H	 3.2500865766	-0.8274751484	 0.3991706319	 0.089341
H	 2.5206407898	-2.0915645058	-2.4586712274	 0.116523
H	 2.4959890547	-0.7372074481	-3.6011103079	 0.111916
H	 3.8724458523	-0.9489397096	-2.5148245185	 0.111977
H	 2.2789562085	 1.9868257802	-1.0108424937	 0.124846
H	 3.4666530827	 1.4102526426	-2.169578163	 0.111067
H	 1.807001977	 1.694994642	-2.6910376212	 0.114554
