19
gdb 114475	3.30882	1.27036	1.15822	2.5696	73.63	-0.2492	0.0656	0.3148	1115.8973	0.15955	-422.95195	-422.944054	-422.94311	-422.984482	30.882	
O	 0.0091117052	 1.534552775	 0.0545030932	-0.422306
C	 0.0710762227	 0.1186232694	 0.1937897795	-0.101772
C	-1.294773779	-0.5285978559	 0.0128117956	 0.020241
C	-1.9228193925	-0.5851879668	-1.4239821714	-0.275067
C	-2.1774468232	-2.1125000941	-1.2501374281	-0.056077
C	-1.0704004557	-3.0636527588	-1.7683495879	 0.013181
O	 0.183982591	-2.3840585662	-1.6502371744	-0.233793
C	-0.3590047994	-3.0027538632	-0.4763876188	 0.014152
C	-1.4454330905	-2.0781988341	 0.1314500174	-0.09693
H	-0.1934458352	 1.7239274479	-0.8670542341	 0.282645
H	 0.7966827595	-0.3191802246	-0.5026580825	 0.112175
H	 0.4337842816	-0.0622347017	 1.2125518091	 0.101128
H	-1.9889189243	-0.0421809162	 0.7055281997	 0.080409
H	-2.8307579476	 0.0093929445	-1.5439049899	 0.100222
H	-1.228531214	-0.345403946	-2.2334593761	 0.104007
H	-3.1972585333	-2.4854263664	-1.3370136373	 0.07597
H	-1.1312262128	-3.8441403996	-2.5191097121	 0.103589
H	 0.2768713093	-3.7233546381	 0.0263633575	 0.104695
H	-1.9122686919	-2.4846991249	 1.0293744805	 0.073533
