16
gdb 19072	3.6335	2.48399	2.09481	0.5346	62.	-0.2446	0.0623	0.3069	705.952	0.133263	-383.706101	-383.700448	-383.699504	-383.735511	23.606	
C	-0.0840627533	 1.5604705686	 0.06656079	-0.249081
C	 1.4568169588	 1.4696673981	 0.0029502472	 0.089692
C	 2.09458778	 1.266921641	 1.3870308605	-0.249541
C	 1.4103933037	 0.1154897895	 2.1127646105	 0.061182
O	 0.0487759099	 0.3015479392	 2.5233369226	-0.251701
C	 0.3106751638	-0.5529245564	 1.4013882511	 0.036201
C	 0.0454695725	 0.0274257354	 0.0116944872	 0.059689
O	 1.3419944004	 0.1685280647	-0.6485380396	-0.300465
H	-0.5508383226	 2.0068340314	 0.9424996463	 0.123714
H	-0.502315706	 1.9583973925	-0.8587243432	 0.107645
H	 2.0092287287	 2.1875830439	-0.608629055	 0.078351
H	 3.1517703748	 1.0110161737	 1.2543556125	 0.113245
H	 2.049582023	 2.1879181674	 1.9806699218	 0.112486
H	 2.0116224315	-0.4442518934	 2.8269843194	 0.098318
H	 0.0962161858	-1.6063354164	 1.5682328948	 0.094377
H	-0.6565856511	-0.561525239	-0.5820847761	 0.075889
