16
gdb 46758	2.92776	1.80617	1.4254	5.5905	66.86	-0.2388	0.0172	0.256	916.8082	0.126971	-437.873095	-437.866435	-437.865491	-437.904317	26.241	
O	-0.0216978465	 0.0397250379	 0.3570767519	-0.350741
C	 0.001181469	 1.1933204188	 0.0381041483	 0.458555
O	-1.1155717158	 1.8611292004	-0.3550198686	-0.222702
C	-0.8764285359	 3.2447057101	-0.6756654014	-0.08908
C	 0.6272494607	 3.5027500371	-0.4805511645	-0.061596
C	 1.0981797404	 4.1023215875	 0.8638780984	-0.063793
N	 0.4008101119	 3.3348851895	 1.9203710112	-0.327754
C	 1.6305002949	 2.7859188984	 1.3055664579	-0.043878
C	 1.1955786213	 2.1312037506	-0.0247277945	-0.189693
H	-1.1989578565	 3.4023125007	-1.7090347765	 0.114204
H	-1.4920737242	 3.8528943555	-0.0085144709	 0.128855
H	 1.1125876139	 3.9443765875	-1.3503883547	 0.090511
H	 1.4644916456	 5.1046726921	 1.0460018674	 0.102391
H	 0.661059958	 3.7355708667	 2.8200547748	 0.238588
H	 2.4936178802	 2.5314979192	 1.9060750206	 0.106827
H	 2.0133373431	 1.7086827579	-0.6072921793	 0.109308
