19
gdb 124517	2.57334	1.37275	0.98125	1.7972	77.35	-0.2143	0.0313	0.2456	1231.7159	0.159973	-419.240361	-419.231248	-419.230303	-419.274222	34.325	
C	 0.2451504528	 1.2748042716	 0.4200708589	-0.38534
C	-0.1774980901	-0.1403274922	-0.0215921827	-0.085389
C	-1.6963634868	-0.225670064	-0.2177874789	-0.394981
C	 0.5801488974	-0.5754101128	-1.2472475899	 0.144543
C	 0.1320047715	-0.8214627417	-2.5313785722	-0.121998
N	 1.2056116167	-1.176116886	-3.2759890995	-0.209667
N	 2.3594571031	-1.1855517138	-2.5616589771	-0.333963
C	 1.9730902691	-0.8240534226	-1.3493125554	 0.343182
O	 2.8493840028	-0.7154913086	-0.3241629332	-0.431497
H	 1.3249407027	 1.3256589983	 0.5815250955	 0.132896
H	-0.0195563688	 2.013254526	-0.3448844614	 0.10948
H	-0.2556205705	 1.5560159052	 1.3529028339	 0.104026
H	 0.0950120924	-0.8254970634	 0.7933640031	 0.087556
H	-2.0314906163	 0.4626519591	-1.0027210833	 0.111434
H	-2.0094760299	-1.2366689771	-0.4972429761	 0.112901
H	-2.2193496535	 0.0484435953	 0.7035239364	 0.11083
H	-0.8576596396	-0.7748756264	-2.9575031226	 0.131798
H	 1.2326648905	-1.4276674996	-4.2475388657	 0.272201
H	 3.7206778965	-0.944574827	-0.6710230097	 0.301988
