23
gdb 110933	2.58899	1.03245	0.88961	1.2212	85.97	-0.2478	0.0749	0.3227	1442.9603	0.205663	-388.253763	-388.244067	-388.243123	-388.288569	36.541	
C	 0.0767968841	 1.7159714575	 0.1018904216	-0.377949
C	 0.228668277	 0.2061281955	-0.1139629427	-0.202245
C	 0.6803983025	-0.5267253377	 1.1480307247	 0.057438
C	-0.2574526444	-0.6658849141	 2.3990484055	-0.26952
C	 0.0508268455	-2.1695335302	 2.4430176328	-0.062865
C	-0.3841456174	-2.8685505144	 1.1882221408	 0.031121
C	-1.6735646655	-2.6325396456	 0.4403662449	-0.117832
O	-2.6435622801	-3.5135489276	 0.9988481961	-0.423904
C	 0.8820478207	-2.0508800317	 1.1527108067	-0.13772
H	 1.022023473	 2.165902534	 0.4261288359	 0.1126
H	-0.2349321962	 2.222288352	-0.8169377293	 0.109957
H	-0.6719078945	 1.9334513237	 0.8715946258	 0.117401
H	-0.7174310016	-0.2061533782	-0.4812974476	 0.095301
H	 0.9657448269	 0.021219838	-0.9070811462	 0.093103
H	 1.6166654919	-0.06574539	 1.4855183863	 0.071595
H	 0.1151744138	-0.1211697743	 3.2687142794	 0.100808
H	-1.3102612897	-0.3976442517	 2.2593296773	 0.096496
H	 0.2817033417	-2.7216494044	 3.3459949225	 0.08351
H	-0.1578491829	-3.933416123	 1.2221173058	 0.092799
H	-2.0024192923	-1.5886866686	 0.5256864631	 0.08572
H	-1.5221380598	-2.8413826534	-0.6313644918	 0.083373
H	-3.4634876066	-3.4010538102	 0.5088965203	 0.283349
H	 1.8252747939	-2.5300110558	 0.9123074079	 0.077464
