15
gdb 4177	3.522	1.83315	1.3643	1.7424	64.67	-0.2505	-0.0027	0.2478	891.6231	0.117305	-399.710753	-399.703247	-399.702303	-399.742412	28.026	
C	-0.0465785345	 1.6009966609	-0.0624633466	-0.407435
C	 0.0254218566	 0.080867744	 0.0089052379	-0.117726
C	 0.706945537	-0.6726825165	-1.1636021335	 0.023461
O	 2.0630720815	-0.2383965193	-1.2140459277	-0.236012
C	 1.7198222498	-1.2779536758	-0.2686969527	-0.086731
C	 1.0925644351	-0.5852353771	 0.8992697534	 0.441122
N	 1.3321755419	-0.6947093357	 2.1366209127	-0.261983
O	 0.4484980624	 0.0933597534	 2.8959706541	-0.389165
H	 0.9229358891	 2.0119119571	-0.3544137298	 0.136652
H	-0.794780817	 1.9204403638	-0.7955148907	 0.114782
H	-0.3196427904	 2.014363389	 0.9114679257	 0.138934
H	-0.9527923851	-0.354399546	 0.2467823293	 0.103138
H	 0.2652999254	-1.0636156775	-2.072414676	 0.112677
H	 2.2701012892	-2.2079775204	-0.3210845632	 0.118656
H	 0.744044319	-0.0800624898	 3.796388197	 0.309628
