18
gdb 102784	1.87585	1.27393	0.82616	0.6168	70.09	-0.2566	-0.0065	0.2501	1381.4215	0.145217	-476.285332	-476.275102	-476.274158	-476.32182	35.432	
C	 0.3312808073	 1.7407669297	 0.237370881	-0.407056
C	 0.5593276132	 0.2463646648	 0.0073131299	-0.171901
C	 0.9002357133	-0.52024763	 1.2867872467	 0.009034
O	-0.2247603934	-0.4951607438	 2.1856472653	-0.205538
C	-0.0641019854	 0.0327696536	 3.4191595152	 0.170058
O	-0.9352805969	 0.0322221287	 4.2337791457	-0.270257
C	 1.3066503716	-1.9677037216	 0.9633106131	 0.375345
N	 0.5257429269	-2.9314742138	 1.5083133097	-0.518426
O	 2.2745078113	-2.178996977	 0.2589061669	-0.367959
H	 1.2217189706	 2.2189457479	 0.6607864774	 0.11825
H	 0.1024096941	 2.2439434419	-0.7061155816	 0.126625
H	-0.5060882411	 1.917337208	 0.9190372466	 0.132965
H	-0.331465156	-0.2099458867	-0.4402985929	 0.114342
H	 1.3883559044	 0.0775351248	-0.6857275572	 0.139482
H	 1.7653008578	-0.0546278551	 1.7772043342	 0.115061
H	 0.9462035202	 0.4560952859	 3.574699594	 0.091087
H	-0.3074311395	-2.695928831	 2.0193468818	 0.281122
H	 0.7239683916	-3.8921516561	 1.2823963143	 0.267766
