19
gdb 102024	2.49229	1.09342	0.79357	1.5122	73.65	-0.2546	-0.0274	0.2272	1452.8637	0.155581	-460.207913	-460.19722	-460.196276	-460.24546	35.848	
C	 0.0424933116	 1.5540471648	 0.1140250013	-0.395351
C	 0.2028280045	 0.0329805174	 0.156737763	-0.191424
C	 0.7343608343	-0.5584727754	-1.1652255835	-0.20673
C	 2.1979347427	-0.1909665529	-1.3627038838	 0.170935
O	 2.5979874562	 0.6206047321	-2.1539018887	-0.249479
C	 0.5412218515	-2.0719054798	-1.2093367363	 0.444623
O	-0.2477118445	-2.700912311	-0.5532507352	-0.357112
O	 1.3736477456	-2.6232037576	-2.1134155057	-0.228933
C	 1.263551353	-4.0453311542	-2.27632766	-0.243676
H	 0.9865899087	 2.0582634534	-0.114718564	 0.132805
H	-0.681915432	 1.8518610182	-0.6515519975	 0.122726
H	-0.3148944987	 1.9297736676	 1.0770432683	 0.119678
H	 0.8797143273	-0.2547667346	 0.9717685446	 0.106876
H	-0.7510088166	-0.4552174583	 0.3742181327	 0.133866
H	 0.1822539111	-0.1354677264	-2.0138889264	 0.12691
H	 2.8931112311	-0.7075055244	-0.6617701154	 0.082107
H	 0.2605258943	-4.3137272355	-2.6164168732	 0.145687
H	 2.0073506568	-4.3149782351	-3.0254298873	 0.141386
H	 1.464574463	-4.5557049183	-1.331466963	 0.145105
