20
gdb 116090	2.76614	1.18688	0.88244	4.5681	76.6	-0.2322	0.0139	0.2461	1335.3674	0.171635	-440.314183	-440.30531	-440.304366	-440.348193	32.764	
C	 0.0819563479	 1.5302555	-0.0889892847	-0.396077
C	 0.0132752099	 0.0106706014	 0.0575261062	-0.110015
N	-1.3504597536	-0.5136764004	 0.0052666892	-0.082182
C	-1.3966252715	-1.9603162078	-0.1184937348	-0.170311
C	-2.8244461677	-2.3688606792	-0.4213618562	-0.069144
O	-3.7583072006	-1.9042082117	 0.567044475	-0.221664
C	-3.5283400839	-0.7636011995	 1.2518287242	 0.411112
O	-4.3759982383	-0.3254895192	 1.9801729045	-0.327318
C	-2.1569950124	-0.102146627	 1.145029847	-0.300215
H	 1.1256483639	 1.8490864719	-0.1651470605	 0.119839
H	-0.4461000127	 1.8522485007	-0.9912500274	 0.128798
H	-0.3548185703	 2.0505161408	 0.7680994321	 0.126877
H	 0.5655562308	-0.4518850646	-0.7682295504	 0.102039
H	 0.5242493239	-0.2971285267	 0.9916478356	 0.080508
H	-0.7590673201	-2.2762844856	-0.950797533	 0.112871
H	-1.0352925198	-2.4788244216	 0.7921070911	 0.089631
H	-3.1277364831	-1.963497962	-1.3930213218	 0.123238
H	-2.9333828049	-3.4562208816	-0.4409345245	 0.121907
H	-1.6529678831	-0.3180025279	 2.1103312731	 0.11339
H	-2.3409495743	 0.9734378801	 1.1242484852	 0.146716
