20
gdb 77910	2.19719	1.54979	1.39542	1.1462	75.17	-0.2294	0.0582	0.2876	1077.8007	0.169052	-440.23024	-440.220615	-440.21967	-440.264023	36.176	
C	-0.1923546259	 1.5732192006	 0.1072153923	-0.335239
N	 0.1331887738	 0.1500474394	 0.1574036029	-0.115871
C	 1.367559255	-0.465071747	-0.2659416879	-0.179711
C	 2.6369583523	 0.2711840419	 0.1748642118	 0.085456
O	 2.9456841618	 1.5574011895	-0.338079713	-0.447596
C	 2.1317583727	 0.2327666536	 1.6568629031	 0.037579
O	 1.9647513051	 1.4793834615	 2.2854431694	-0.442912
C	 0.8707007055	-0.5310801046	 1.1867276132	 0.309629
C	 0.2249237445	-1.6539347764	 1.945777063	-0.492222
H	 0.5598780794	 2.2462547728	 0.5266544132	 0.113357
H	-0.393093304	 1.8411139209	-0.9367147196	 0.115097
H	-1.1183457751	 1.7300004076	 0.6689866225	 0.130648
H	 1.3259237326	-1.2216094048	-1.044188172	 0.091059
H	 3.528704588	-0.3483086151	 0.0442860606	 0.093313
H	 2.1722212455	 1.9007652779	-0.7933518964	 0.297061
H	 2.7660928738	-0.4219647768	 2.2707139003	 0.073556
H	 2.48493426	 2.102605611	 1.7572669189	 0.288913
H	-0.3430549521	-1.2660355071	 2.799501965	 0.130263
H	-0.4671701823	-2.2021155388	 1.3016578529	 0.129843
H	 0.9743994294	-2.3505327465	 2.3359522698	 0.117777
