15
gdb 93488	2.56043	1.58113	1.1511	2.9663	64.55	-0.2732	-0.0182	0.255	1039.811	0.114513	-491.133033	-491.125233	-491.124289	-491.165793	28.982	
O	 0.0439016177	 1.3695956592	 0.0579646599	-0.428522
C	-0.0029146205	-0.0465820253	 0.0102984717	 0.054922
C	-1.4572327633	-0.4627488212	-0.0835054997	-0.091131
O	-2.0495774874	-0.0939517201	-1.3374161575	-0.231123
C	-1.378434934	-0.3256968934	-2.4779537831	 0.483182
O	-1.9026552837	-0.2441502729	-3.554424852	-0.369796
N	-0.031077033	-0.6715477853	-2.3390600094	-0.420467
C	 0.7586551857	-0.5436123197	-1.2041470762	 0.366128
N	 2.0119979639	-0.7448232188	-1.1205381202	-0.523346
H	 0.9738053708	 1.623858274	 0.0370240972	 0.30037
H	 0.4497276618	-0.4998024999	 0.9013782777	 0.108853
H	-1.5478908615	-1.5466804003	 0.0561050136	 0.126411
H	-2.0480235672	 0.0489735757	 0.6771707193	 0.145567
H	 0.4170386327	-0.8558027241	-3.226318502	 0.264203
H	 2.423692518	-1.0117313579	-2.0178099493	 0.214751
