23
gdb 83579	2.46701	1.59056	1.52297	1.2738	83.64	-0.2457	0.0781	0.3238	1054.9723	0.209842	-388.316883	-388.309071	-388.308127	-388.34858	32.281	
C	-0.0412455149	 1.550641672	 0.0107844002	-0.429586
C	 0.0414611962	 0.0224056836	 0.0067303675	 0.03617
C	 0.9223472583	-0.5704675504	-1.116718119	-0.016126
C	 2.3646853143	-0.2765740051	-0.6329131144	-0.205231
C	 2.268975285	-0.2858708042	 0.9226974586	-0.205231
C	 0.7784421354	-0.584484015	 1.2225181276	-0.016126
C	 0.530835624	-2.10231029	 1.2130810181	-0.088271
O	 1.0747348413	-2.7175733088	 0.0538753074	-0.249977
C	 0.6765699495	-2.0881179786	-1.1558280174	-0.088273
H	 0.945007876	 2.0200548822	 0.0741724815	 0.118482
H	-0.5223116497	 1.916748489	-0.9029121213	 0.111179
H	-0.6307976085	 1.9062069512	 0.8630180715	 0.111178
H	-0.980456593	-0.3732976507	-0.0585050081	 0.057806
H	 0.7066889322	-0.1464712623	-2.1034670162	 0.056038
H	 3.0691326077	-1.0266415814	-1.0018691068	 0.101009
H	 2.706059864	 0.6943912643	-1.002329287	 0.092681
H	 2.9234784962	-1.0407465139	 1.3662805788	 0.101006
H	 2.5617284976	 0.6803999008	 1.3426962626	 0.092682
H	 0.443148902	-0.172149189	 2.1803879977	 0.056038
H	 1.0229859137	-2.5884564246	 2.0619601067	 0.101913
H	-0.551582162	-2.3055846595	 1.2861603608	 0.080363
H	-0.388577651	-2.2897169264	-1.3634494275	 0.080363
H	 1.2694178256	-2.5644513931	-1.9437263712	 0.101913
