20
gdb 65349	3.01219	1.02849	0.99222	1.4406	87.74	-0.2305	0.0452	0.2756	1331.159	0.16828	-365.931722	-365.92223	-365.921286	-365.966064	36.071	
C	-0.0507713	 1.5862364222	-0.2194085176	-0.460015
C	 0.0343460212	 0.0762565556	-0.0519697562	 0.099909
C	 1.3649376836	-0.6094238888	-0.2095544582	-0.278156
N	 0.7385201281	-0.5353497531	 1.0971123499	-0.108515
C	 1.3282497972	 0.296749853	 2.1075973212	 0.076703
C	 0.5888076668	 0.408462025	 3.4134292134	-0.274449
C	 1.8536352118	-0.4112327298	 3.3293431242	-0.277484
C	-1.165531523	-0.6239221852	-0.4506889403	 0.295116
C	-2.1749124919	-1.171860926	-0.8065236803	-0.426566
H	 0.9025680222	 2.0747571188	-0.0083521108	 0.11887
H	-0.3337447161	 1.8273040911	-1.2479294246	 0.13349
H	-0.8119375764	 2.0060741113	 0.4452116904	 0.135366
H	 1.4227045809	-1.5966989505	-0.6592974704	 0.120846
H	 2.2177889105	 0.0392004421	-0.4103826192	 0.107532
H	 1.8879724949	 1.1731382501	 1.7789099552	 0.073783
H	 0.614823381	 1.3569046001	 3.9380200479	 0.111062
H	-0.3487872102	-0.1299251893	 3.4859504097	 0.126662
H	 1.7497882944	-1.4895596931	 3.344535418	 0.124418
H	 2.7548348085	-0.0278742281	 3.7945545719	 0.110155
H	-3.0622825036	-1.6696481055	-1.109894684	 0.191273
