17
gdb 51336	4.52868	1.06213	1.02313	4.1608	73.12	-0.2514	0.0213	0.2727	1182.989	0.137957	-417.970413	-417.963	-417.962055	-418.003298	28.06	
O	-0.113634976	-0.0135607287	-0.4081694764	-0.316069
C	-0.0621261641	 1.1572963591	-0.1023366358	 0.153451
N	 1.0787246009	 1.8423917932	 0.1990287525	-0.306356
C	 2.3918710326	 1.2472002842	 0.1587187796	 0.071328
C	 3.5615477649	 2.0076660299	-0.4324995737	-0.090536
C	 4.2021446964	 2.8197765565	 0.6496655971	-0.044227
C	 3.4457075352	 2.6061204745	 1.9494359782	-0.24943
C	 3.2765766046	 1.1684624892	 1.4282091313	-0.034917
N	 4.5340686567	 1.3597181546	 0.5178430817	-0.156194
H	-0.9587004514	 1.8052812891	-0.0351889913	 0.076557
H	 0.9967508028	 2.8218943118	 0.4208837515	 0.25006
H	 2.2877624673	 0.261706761	-0.295528301	 0.136418
H	 3.8062508968	 2.1445515198	-1.4797425838	 0.102603
H	 4.9393992685	 3.5812516368	 0.4218765602	 0.102568
H	 4.1289197202	 2.6343693881	 2.80145408	 0.122604
H	 2.5533194245	 3.1995584647	 2.1791788746	 0.087783
H	 3.2173073202	 0.3145403561	 2.0991016954	 0.094359
