18
gdb 48727	3.54694	1.50165	1.33637	3.4067	76.09	-0.2376	-0.0236	0.214	988.2681	0.149547	-401.889833	-401.882919	-401.881975	-401.921034	28.21	
O	-0.8863971744	 1.237643622	-0.2193204548	-0.280833
C	 0.2505989962	 0.9367636612	 0.0651995083	 0.088757
C	 1.3965865336	 1.8670916856	 0.0411582274	 0.243303
C	 1.1358709628	 3.3603708731	 0.0344532341	-0.361775
C	 1.7159653989	 2.7472639707	-1.1968150421	-0.065455
C	 3.2231238592	 2.4433123707	-1.2577575426	-0.062556
C	 3.6580523058	 2.462235063	 0.2237549387	-0.18854
N	 2.7177394819	 1.2856624367	 0.4079514844	-0.184519
C	 3.1863012051	 0.9001366316	-1.0006201799	-0.175573
H	 0.5221343271	-0.0964289736	 0.373073287	 0.081464
H	 0.0751340088	 3.5837897005	-0.0215691841	 0.146992
H	 1.7007706908	 4.0301688017	 0.6698646485	 0.125367
H	 1.1188634393	 2.6730531237	-2.0982102431	 0.114525
H	 3.8006002882	 2.9064723319	-2.059684226	 0.075124
H	 4.6839818156	 2.1209916588	 0.3702608758	 0.115642
H	 3.4790109668	 3.3293707942	 0.8577171324	 0.110388
H	 2.4773487704	 0.2938356896	-1.5700015804	 0.108539
H	 4.1652866339	 0.4162616885	-0.9596342334	 0.10915
