17
gdb 34387	2.57333	1.63039	1.30226	3.4618	77.79	-0.242	-0.0032	0.2387	1016.3188	0.138532	-380.872814	-380.865422	-380.864478	-380.904632	28.839	
N	-0.0613783371	-1.1663749461	-0.0662851318	-0.346171
C	-0.0531151578	-0.0109837843	-0.0111440878	 0.213908
C	-0.0441169176	 1.4407543897	 0.0480035427	 0.144902
C	-0.2947912681	 2.179890031	-1.3074954899	-0.209007
N	 0.8440172694	 3.0776426365	-1.0098101361	-0.315358
C	 1.3355662108	 2.200496218	 0.080557211	-0.033381
C	 1.4350224131	 2.9025683025	 1.444367685	-0.260956
C	 0.0303574416	 2.7878090544	 1.9884973962	-0.048901
C	-0.759847028	 2.0051503348	 1.2555877582	-0.144896
H	-0.1496254552	 1.5138439806	-2.1663826853	 0.114055
H	-1.2591372365	 2.6888219703	-1.4038808945	 0.117087
H	 1.4928813545	 3.2017808389	-1.777752011	 0.226642
H	 2.2077857688	 1.5913033197	-0.173259682	 0.086008
H	 2.163825783	 2.4252444095	 2.1123607374	 0.11361
H	 1.7471555196	 3.9443442454	 1.3100834376	 0.121306
H	-0.2857509652	 3.2994797932	 2.8909650967	 0.107565
H	-1.7958974353	 1.7671588058	 1.4641995038	 0.113585
