20
gdb 118630	1.67434	1.08412	0.70781	3.7604	78.37	-0.2475	-0.0355	0.212	1613.7461	0.168234	-440.320051	-440.30953	-440.308586	-440.357408	35.842	
C	-0.2325236145	 1.470821945	-0.2281180972	-0.380561
C	-0.1422966992	-0.0555547022	-0.1526696849	-0.172903
C	 0.8319279002	-0.6246491423	-1.1932396747	-0.174487
N	 0.9502242773	-2.0780691449	-1.1680760996	-0.050114
C	-0.1066190652	-2.8912552184	-1.7401247522	-0.26741
C	-0.0993576056	-2.8563539427	-3.2623150885	 0.156104
O	-1.0892116344	-2.8926584289	-3.9429128412	-0.230857
C	 2.0135951966	-2.6952270785	-0.5704710266	 0.150613
O	 2.162519078	-3.8945813973	-0.4713480742	-0.336595
H	 0.7437582737	 1.9362999074	-0.0532684834	 0.120063
H	-0.5856178042	 1.8002856586	-1.2113907385	 0.123449
H	-0.9259104388	 1.8613132254	 0.5216860753	 0.124777
H	 0.1878906228	-0.3683332197	 0.8450483377	 0.110021
H	-1.1368999722	-0.4917417171	-0.3015630805	 0.111858
H	 0.5267060542	-0.3101670955	-2.199822756	 0.11911
H	 1.831130235	-0.2064675727	-1.0271980788	 0.121365
H	 0.0919523651	-3.9243674842	-1.428222529	 0.174251
H	-1.0969744444	-2.5990967108	-1.3786310098	 0.133128
H	 0.9221178348	-2.8070158686	-3.7053018465	 0.088454
H	 2.7458938108	-1.9624731126	-0.1801424415	 0.079736
