19
gdb 65984	2.27549	1.53106	1.38533	2.7135	75.57	-0.2418	0.019	0.2608	1061.1021	0.15989	-419.179453	-419.17079	-419.169845	-419.212746	32.479	
C	 0.3381333738	 1.6646028592	-0.5490072392	-0.449533
C	 0.0007991226	 0.2149251855	-0.1920060433	 0.140614
C	 0.9340810558	-0.8587626683	-0.8186055135	-0.119925
O	 1.4530944662	-1.1909160077	 0.5116517173	-0.257233
C	 0.6290447768	-0.2670437095	 1.1048376786	 0.411397
N	 0.4632781077	 0.041302991	 2.3112562913	-0.556596
C	-1.4894788905	-0.0476983321	-0.3108916141	-0.041095
C	-2.1738161871	-1.1176793816	 0.4563997941	-0.256613
N	-2.3955281784	 0.3000361203	 0.791507051	-0.326258
H	 1.4123608916	 1.8567563772	-0.4711307398	 0.123824
H	 0.0211835113	 1.8886741979	-1.5731363121	 0.122321
H	-0.1809505489	 2.3502805431	 0.1259105401	 0.148298
H	 0.4404632803	-1.7236738222	-1.2666556905	 0.124809
H	 1.7333651298	-0.4876694299	-1.46447683	 0.119757
H	 1.0603105767	-0.5062845517	 2.9331563951	 0.230818
H	-1.8879721085	 0.2072649936	-1.2930339716	 0.090642
H	-3.0275891491	-1.6294407536	 0.021218639	 0.116176
H	-1.5839228634	-1.7191584427	 1.1424952868	 0.122307
H	-1.8408734568	 0.5255084116	 1.6181877309	 0.256289
