19
gdb 61893	3.39189	0.75199	0.65633	2.6302	78.92	-0.2592	-0.0315	0.2277	1687.9603	0.155073	-423.016744	-423.00622	-423.005276	-423.053229	37.322	
C	 0.022129828	 1.4329084687	 0.0780726807	-0.482309
C	 0.045915701	-0.0662356556	-0.1017169516	 0.364729
O	 1.071168848	-0.6807388413	-0.3102993438	-0.317194
C	-1.2717595512	-0.8440065843	-0.0160906525	 0.030918
O	-1.0319002556	-2.2039021296	-0.2571698479	-0.436907
C	-1.9620610401	-0.6423110506	 1.3457332284	-0.203036
C	-3.2582986654	-1.4709440767	 1.4430008	-0.352602
C	-3.9278549305	-1.3119235363	 2.7271549275	 0.287776
C	-4.4591199548	-1.1608862812	 3.7948790084	-0.433947
H	 0.9485782618	 1.8635979657	-0.3038998901	 0.152047
H	-0.8411415273	 1.8829552493	-0.4207625666	 0.141587
H	-0.0596767906	 1.6708516841	 1.1450060151	 0.160082
H	-1.9343792461	-0.4372894828	-0.8021173114	 0.087245
H	-0.0700191295	-2.2718545988	-0.3805444591	 0.293908
H	-1.2777185467	-0.9492257056	 2.1444507263	 0.119755
H	-2.1943309229	 0.4169809186	 1.4975359513	 0.108934
H	-3.9401021411	-1.1775561293	 0.6334871493	 0.126864
H	-3.0119411071	-2.5237986968	 1.2709595135	 0.158606
H	-4.9396229798	-1.0411609574	 4.7339564827	 0.193546
