17
gdb 41608	4.21043	1.34072	1.19819	2.6716	76.01	-0.2061	0.0086	0.2148	1049.4901	0.136362	-421.770179	-421.762995	-421.762051	-421.802037	27.942	
C	 0.0356675171	 1.4608576645	-0.0217647612	-0.089618
O	 1.4616118525	 1.4559808417	-0.3029494557	-0.281643
C	 1.5249329291	 0.057658201	-0.0574457973	 0.008768
C	 0.017747599	-0.050086623	 0.1958573306	-0.239373
C	 0.648940541	-0.7130896982	-1.0086918523	 0.451443
O	 0.390357525	-0.2488864715	-2.3123715066	-0.312333
C	 0.3459536644	-1.3592136753	-3.2112245884	-0.132121
C	 0.5711698697	-2.5704965794	-2.3480693776	-0.114939
C	 0.7422625521	-2.1879774714	-1.0856214415	-0.163853
H	-0.1689907105	 2.0362473108	 0.8873048877	 0.109046
H	-0.5515164752	 1.8484295497	-0.8601442793	 0.121622
H	 2.4016191907	-0.3303326544	 0.4524298453	 0.10121
H	-0.5595418014	-0.5802737929	 0.942976114	 0.097121
H	-0.6268883151	-1.3782831761	-3.7262074863	 0.109502
H	 1.1212584507	-1.2423175111	-3.9843672984	 0.112006
H	 0.5910398789	-3.5819913371	-2.7315027082	 0.11013
H	 0.9278711922	-2.8190159574	-0.2266155049	 0.113031
