18
gdb 114276	4.43263	1.13322	1.09165	1.3526	73.46	-0.2315	0.0242	0.2556	1144.886	0.147642	-438.894427	-438.886832	-438.885888	-438.926496	30.22	
O	-0.0438307437	 1.5159964376	-0.2119563595	-0.414645
C	 0.1562188141	 0.147591999	 0.0902758877	-0.09173
C	-1.1872832103	-0.5553848563	 0.150736802	 0.052852
O	-1.9004222118	-0.4619718391	-1.1724013581	-0.382091
C	-1.8005238256	-1.9027364543	-1.2227962716	 0.362492
C	-2.4091058204	-3.3454586046	-1.2451892732	-0.240578
N	-1.0572061548	-3.4849210446	-0.4674814983	-0.16778
C	-0.4707459039	-2.6025804411	-1.5679644931	-0.213558
C	-1.5222864541	-2.1034063997	 0.2128599544	-0.088039
H	-0.5485237734	 1.5368747471	-1.0345315758	 0.295686
H	 0.8334583599	-0.3207607331	-0.6337102607	 0.097366
H	 0.6319077712	 0.1006334816	 1.0760149498	 0.120535
H	-1.8033505946	-0.0532938895	 0.9032401536	 0.115649
H	-3.2930464216	-3.5308347769	-0.6334813113	 0.121835
H	-2.407331661	-3.9264338392	-2.1711913519	 0.117112
H	-0.3880869287	-3.1059305273	-2.5337055382	 0.106088
H	 0.4700169872	-2.1363592551	-1.2821764137	 0.112966
H	-2.3350818785	-2.3007290145	 0.9100670179	 0.095841
