16
gdb 30524	3.39047	1.10336	0.83706	4.4417	83.82	-0.1926	-0.0142	0.1784	1325.6529	0.124851	-434.116831	-434.108186	-434.107242	-434.150384	31.262	
C	-0.0111659601	 1.5125902292	 0.123696489	-0.495409
C	 0.0140742684	 0.0281263294	 0.0077259957	 0.162373
C	-0.001546133	-0.7343790212	-1.1244278325	 0.348434
O	 0.0331992083	-2.0644509441	-0.7280077738	-0.195385
C	 0.0683444907	-2.0062275516	 0.6239766822	 0.055877
N	 0.0595899069	-0.8143444352	 1.1178002053	-0.305292
N	-0.0394230274	-0.3868007378	-2.4400232672	-0.350362
C	-0.0404899939	-1.2791065809	-3.3601578374	 0.091319
N	-0.1466978518	-0.9469953288	-4.6777609734	-0.49971
H	 0.8798780291	 1.8841836686	 0.6420890328	 0.13078
H	-0.0517155239	 1.9656809038	-0.8692704258	 0.134598
H	-0.8814188658	 1.8491844584	 0.6981271477	 0.131472
H	 0.0991312964	-2.9488303799	 1.148539303	 0.139791
H	 0.0001553443	-2.3542764973	-3.1670992241	 0.123009
H	-0.0295569228	 0.0266769256	-4.9142298065	 0.26509
H	 0.1408487345	-1.6167766483	-5.3704328349	 0.263414
