15
gdb 4751	6.52424	1.29318	1.08686	3.1257	78.97	-0.202	0.0165	0.2185	1055.5507	0.118998	-325.533012	-325.5253	-325.524356	-325.565136	28.454	
C	 0.0035414922	 1.4533945136	 0.0087851537	-0.335997
N	-0.0357241653	 0.0054118423	-0.0019062323	 0.025099
C	-0.004117664	-0.7834611827	-1.1290256427	-0.07747
C	 0.0389118833	-2.0971125326	-0.7389216704	-0.29318
C	 0.0365828782	-2.1169754152	 0.693002135	 0.143723
C	-0.0060774927	-0.7939149614	 1.1052183847	-0.211146
C	 0.0603803273	-3.2556897749	 1.5307151094	 0.253006
C	 0.0825168569	-4.234620821	 2.2333525768	-0.464705
H	 1.0322291874	 1.8312769419	-0.0052152729	 0.142963
H	-0.5241136739	 1.8411301031	-0.8657058619	 0.143582
H	-0.4949814984	 1.8270706053	 0.9059609095	 0.145088
H	-0.0163091721	-0.335304564	-2.1098759337	 0.119731
H	 0.0537052367	-2.9608395925	-1.3841871119	 0.105063
H	-0.0181625021	-0.3749460825	 2.0983503909	 0.124945
H	 0.1012555966	-5.0947376994	 2.8545353256	 0.179297
