16
gdb 18337	3.28807	2.3327	1.60271	4.3754	63.45	-0.2601	0.0106	0.2707	806.6173	0.132909	-383.776127	-383.769657	-383.768713	-383.806993	24.714	
O	-0.0711789842	 0.0093271693	 0.2051432574	-0.343495
C	-0.0305370213	 1.1949352884	 0.0467601775	 0.434619
O	-1.1611249415	 1.94184941	-0.1166655777	-0.223218
C	-0.8622010693	 3.3253308697	-0.3726712288	-0.100016
C	 0.6017987769	 3.5232313497	 0.0187943371	-0.02717
C	 0.9293856094	 3.6324303128	 1.5396797698	-0.235355
C	 1.7942069605	 2.343055899	 1.4367344126	-0.220707
C	 1.1987617834	 2.0949467153	 0.0221886992	-0.171116
H	-1.0388034203	 3.5240963327	-1.4362818086	 0.115655
H	-1.5567035815	 3.9313889079	 0.2165288873	 0.122084
H	 1.1056467748	 4.2654611157	-0.6008180533	 0.083928
H	 1.4474750691	 4.5400994422	 1.8543804048	 0.108342
H	 0.0435450856	 3.5064679012	 2.1689709561	 0.115561
H	 2.8638160481	 2.5584299055	 1.3897169045	 0.111745
H	 1.6267470898	 1.5571401523	 2.1757835689	 0.124802
H	 1.8809132305	 1.7707177386	-0.7654268269	 0.104341
