21
gdb 121944	3.33441	0.76497	0.67714	1.2754	76.2	-0.2581	0.0815	0.3396	1725.1709	0.180262	-461.329366	-461.319144	-461.3182	-461.365699	36.254	
C	 0.8522479692	 0.7257488549	-0.6791242034	-0.3863
C	-0.0593805843	-0.0845147909	 0.2263194527	-0.025274
O	 0.7254234639	-0.6863240469	 1.2377682278	-0.250924
C	-0.0225869832	-1.4695327758	 2.1404086332	-0.079783
C	 0.9434748956	-2.0861073945	 3.1589214436	 0.05992
O	 0.2240251866	-2.7705379091	 4.1639646525	-0.438287
C	 1.9329245535	-3.016479945	 2.4755034097	 0.069627
C	 2.6063277876	-4.087056389	 3.2127203277	-0.187351
O	 1.4736932946	-4.3758747165	 2.374138016	-0.255609
H	 1.6058489054	 0.0816306861	-1.1413148109	 0.125673
H	 0.2720107901	 1.205432059	-1.4729216068	 0.116694
H	 1.3687923633	 1.502691347	-0.108409356	 0.127191
H	-0.8285590754	 0.5617080179	 0.6812557204	 0.088801
H	-0.5909855416	-0.8595713772	-0.3508066096	 0.089319
H	-0.767251958	-0.8619984961	 2.6772653197	 0.097817
H	-0.5651507644	-2.2725992677	 1.6119968755	 0.090097
H	 1.4945029423	-1.2712914949	 3.6440251033	 0.102682
H	 0.0497187676	-3.6506633544	 3.7994281037	 0.291865
H	 2.3883364238	-2.6228115243	 1.5695793987	 0.113947
H	 3.5554816319	-4.4772342203	 2.8510185064	 0.12093
H	 2.4230496716	-4.1916738919	 4.2793583557	 0.128969
