17
gdb 8575	4.30996	1.9792	1.73068	1.5633	68.27	-0.2414	0.0234	0.2648	815.5707	0.144297	-363.869554	-363.862961	-363.862017	-363.900037	26.201	
C	-0.0061405514	 1.4408102064	 0.0645179796	-0.465623
C	-0.0058343704	-0.049756741	-0.0606353428	 0.389537
N	-0.0252558402	-0.6659292788	-1.1736883757	-0.301753
C	-0.0202069443	-2.1262168355	-1.0425698197	 0.012877
C	-1.0689322644	-2.5410384435	 0.0340164359	-0.243306
C	 0.0183209525	-2.1078059145	 1.0471356005	 0.11669
C	 1.0690067065	-2.5371961009	-0.0054340293	-0.243308
O	 0.017744111	-0.6707038969	 1.1561288234	-0.272767
H	 0.8845269323	 1.7780184208	 0.604532595	 0.138214
H	-0.0254420727	 1.8889062769	-0.9282021208	 0.146637
H	-0.8772333674	 1.7748922686	 0.6374002012	 0.13821
H	-0.0375130434	-2.5947127216	-2.0260945814	 0.073558
H	-2.0222079374	-2.0090507274	 0.0470117398	 0.107883
H	-1.2293635638	-3.6206201725	 0.0665443469	 0.105596
H	 0.0378254292	-2.4911274816	 2.0667491147	 0.084076
H	 1.2344077716	-3.6161922315	 0.0210842832	 0.105597
H	 2.0201950823	-2.0017856871	-0.0275819305	 0.107882
