16
gdb 113752	3.5341	0.86535	0.77077	2.6516	66.	-0.2824	-0.0068	0.2756	1436.7449	0.121928	-474.988142	-474.978498	-474.977554	-475.024375	33.284	
O	-0.0880107004	 1.3980228216	-0.6509092554	-0.415316
C	 0.0521264762	 0.2208134019	 0.1231219876	-0.085844
C	-1.278438165	-0.4705413541	 0.2923039367	 0.031831
O	-1.7606397185	-1.2253239308	-0.8382022735	-0.255059
C	-1.4873824095	-1.9227071126	 0.3715709348	 0.026738
C	-0.3388040441	-2.926394974	 0.3499545928	-0.046733
O	 0.275528362	-3.0587796716	 1.6176982681	-0.405484
C	-0.8141905618	-4.2303811138	-0.1567987499	 0.257565
N	-1.2074168071	-5.2573650651	-0.5109268333	-0.306231
H	-0.4182070964	 1.1347866623	-1.5173017239	 0.295465
H	 0.7960044191	-0.4601464875	-0.3117241596	 0.096533
H	 0.4238586307	 0.5380182174	 1.102981814	 0.129228
H	-2.044433159	 0.1607126292	 0.7450263999	 0.112504
H	-2.3740661797	-2.280893068	 0.8988425331	 0.111623
H	 0.4369230679	-2.5660928022	-0.3297419974	 0.151581
H	-0.3407984046	-3.4965465627	 2.2164545261	 0.301599
