21
gdb 36986	4.68661	0.71775	0.69734	1.9853	79.43	-0.2444	0.0859	0.3303	1686.0102	0.181819	-424.172836	-424.163555	-424.162611	-424.208817	33.172	
C	-0.1133336389	 1.4278192092	 0.123104325	-0.074385
O	 0.0011424833	 0.0514413798	 0.4396581805	-0.254439
C	-1.2038156268	-0.6419385896	 0.3464872389	 0.151263
C	-1.6528297186	-1.1652830147	-0.9947647459	-0.2882
C	-1.1083730207	-2.1046284043	 0.0647495125	-0.286982
C	 1.2632901583	 2.0500834836	 0.2383311841	-0.044526
C	 2.2561648633	 1.6845060784	-0.8855064799	-0.069977
O	 2.2308344208	 3.0312456025	-1.4073663106	-0.272354
C	 1.3925934088	 3.4818781448	-0.325182341	-0.090385
H	-0.5072021236	 1.5564412235	-0.8981772484	 0.096236
H	-0.8186199084	 1.9240355777	 0.8112901427	 0.08774
H	-1.9721786593	-0.2963934967	 1.0398860681	 0.082551
H	-2.713122706	-1.1862988282	-1.2213917972	 0.113542
H	-1.009139732	-0.9575683994	-1.842381541	 0.120034
H	-0.1109998378	-2.4988789965	-0.0923469237	 0.125881
H	-1.7900068841	-2.7765210883	 0.5736540282	 0.114962
H	 1.6471686516	 1.9109432503	 1.2509328352	 0.087064
H	 3.2599295964	 1.3941975283	-0.5513337019	 0.100098
H	 1.8970389828	 0.948897784	-1.6153591764	 0.103758
H	 0.4636912453	 3.9432885863	-0.6863377337	 0.098552
H	 1.9103098555	 4.1967709695	 0.3270744948	 0.099565
