19
gdb 82885	2.58151	1.91538	1.46021	0.7088	74.27	-0.2312	0.0661	0.2973	957.6481	0.160003	-422.980298	-422.972781	-422.971837	-423.011673	30.774	
C	-0.0662694357	 1.5450094735	 0.1012441977	-0.521333
C	-0.0211650721	 0.0419400536	 0.0971146792	 0.332664
C	 0.9052515619	-0.7623719361	-0.9083216383	 0.029786
C	 1.9988814087	-0.8370399168	 0.180107855	-0.253525
C	 0.7806235128	-0.8746907725	 1.1140924779	-0.103253
C	-0.2063233116	-1.9517648954	 0.499920292	 0.021264
O	 0.3168224721	-2.0777100406	-0.8290753074	-0.272613
C	-1.2662373557	-0.8386815717	 0.2951220042	 0.052193
O	-1.9338976649	-0.4112941803	 1.4649009898	-0.440387
H	 0.9356488325	 1.9841571342	 0.1556099114	 0.116185
H	-0.545296535	 1.9258483232	-0.8087426634	 0.117735
H	-0.6428050371	 1.9028531895	 0.9594461242	 0.139151
H	 1.0820555597	-0.4760190911	-1.944408585	 0.075642
H	 2.68183669	-1.6885633436	 0.1303960981	 0.09951
H	 2.5534375461	 0.0978315199	 0.2941126876	 0.102394
H	 0.8031207448	-0.7219447866	 2.1893950342	 0.081393
H	-0.419103973	-2.9246193894	 0.9427497757	 0.071209
H	-1.9530440494	-0.9856110664	-0.5498209485	 0.064563
H	-2.5920111541	-1.0759554834	 1.6911432154	 0.287423
