15
gdb 126072	3.9569	1.18565	1.06689	2.3693	68.01	-0.2791	-0.0385	0.2406	1126.3912	0.11274	-453.924672	-453.917044	-453.9161	-453.957576	27.461	
C	-0.0144293625	 1.5274057117	-0.2333079793	-0.440231
C	-0.0010759097	 0.0502270935	 0.0513104701	 0.086582
O	 1.246850367	-0.6381242257	-0.0182048405	-0.238566
C	 0.6028562516	-0.5802866735	 1.251620048	-0.079443
C	 1.2742117254	 0.1671784285	 2.3302063824	 0.442052
N	 1.1033188545	-0.0159390043	 3.6086180449	-0.320162
C	 1.9440420223	 0.9295146881	 4.1386337361	 0.037456
N	 2.5994245967	 1.646841703	 3.2686756626	-0.107004
O	 2.1525019506	 1.135327252	 2.0420553022	-0.194832
H	 0.8192212019	 2.0388420809	 0.2488311215	 0.158234
H	 0.0541245483	 1.6941562188	-1.3130886575	 0.138611
H	-0.9547447026	 1.9678112189	 0.1143055923	 0.130861
H	-0.8280319115	-0.5128837575	-0.3865323888	 0.106496
H	 0.178664739	-1.5148691716	 1.6138569982	 0.128075
H	 2.0738761089	 1.0826788171	 5.2001294579	 0.15187
