15
gdb 19810	4.16766	2.03999	1.81274	2.2424	63.98	-0.2373	-0.0328	0.2045	757.2472	0.119473	-362.59907	-362.592939	-362.591995	-362.629246	24.417	
O	-0.014296283	-0.0253508651	 0.0331959368	-0.281565
C	-0.0314004542	 1.1676761741	 0.0337291472	 0.384566
C	-1.1336604571	 2.2534752426	-0.0146308037	-0.311019
N	-0.0745731609	 3.313076066	-0.0311911036	-0.1279
C	 0.3643558753	 3.8510512601	 1.2827329592	-0.002077
C	 0.4318757585	 2.8528871065	 2.4072663457	-0.310087
C	 1.5277583685	 2.8677721514	 1.3737510806	-0.070846
C	 1.0347053131	 2.2915788336	 0.0357948433	-0.113265
H	-1.7168984043	 2.2398849287	-0.9415804103	 0.138251
H	-1.8229506107	 2.2705239687	 0.8356640294	 0.135216
H	 0.3334524048	 4.9200887454	 1.4581322719	 0.101922
H	 0.7151916965	 3.2900764677	 3.3595750802	 0.123357
H	-0.2559458584	 2.0181148161	 2.5021606116	 0.124834
H	 2.5667112268	 3.0399019342	 1.6205262868	 0.102808
H	 1.7610047351	 2.28583921	-0.781285335	 0.105805
