18
gdb 31265	2.18278	1.56116	0.96556	1.7342	75.9	-0.1889	0.036	0.225	1231.0964	0.148647	-435.281719	-435.272429	-435.271485	-435.316751	32.792	
C	 0.2618140182	 0.7201816184	 0.6632997444	-0.325222
N	-0.3381730896	 0.403827529	-0.6408791042	-0.397823
C	 0.3703004982	-0.5289534038	-1.4138209085	 0.144278
C	 0.6720519406	-1.8694821897	-1.2897435558	 0.33952
O	 0.2757107255	-2.6478565892	-0.2580203602	-0.283002
C	 0.6962255705	-4.0056497081	-0.3133858482	-0.23345
N	 1.4142650564	-2.3209456275	-2.3394213971	-0.348935
C	 1.5821262832	-1.2665948573	-3.1205790797	 0.00152
N	 0.9779185489	-0.1693994923	-2.6119207924	-0.264382
H	 0.3992511445	-0.1595745816	 1.3073676696	 0.124511
H	 1.2395232357	 1.185178638	 0.5063447474	 0.123839
H	-0.3769526155	 1.4414181616	 1.1824767393	 0.114185
H	-1.2992832589	 0.107708591	-0.5113087189	 0.234417
H	 0.3066046464	-4.5070878651	-1.2055679404	 0.128776
H	 1.7884795344	-4.084079093	-0.3247824072	 0.128716
H	 0.2969269596	-4.4788251634	 0.5855631374	 0.119943
H	 2.1283142358	-1.2575331328	-4.0513148785	 0.128198
H	 0.9383005163	 0.755177156	-3.007853157	 0.264911
