17
gdb 31839	5.01411	1.02717	0.86023	1.622	83.98	-0.1846	-0.0284	0.1563	1320.9595	0.138312	-414.241129	-414.23273	-414.231786	-414.274038	31.672	
C	 0.0685801837	 1.4160811712	 0.163510804	-0.324203
N	-0.0303806833	 0.0066422889	-0.1461554267	-0.350864
C	-1.2274126947	-0.6772560991	-0.0639631116	 0.369145
N	-1.1466989513	-2.0165507367	-0.0180433156	-0.314026
C	-2.2807383211	-2.7006220565	 0.0081087337	-0.065887
C	-3.536764668	-2.0728816296	 0.0044974692	 0.334213
N	-4.7269735672	-2.7961820631	-0.0321613892	-0.57418
N	-3.6197895812	-0.7418873779	-0.0141363601	-0.298869
C	-2.4826050382	-0.0494527152	-0.0512545192	-0.092137
H	 1.1182876143	 1.7134245353	 0.119050549	 0.129028
H	-0.4734208684	 2.0167519004	-0.5761319303	 0.134408
H	-0.323525619	 1.6743870328	 1.1600911107	 0.116216
H	 0.758550728	-0.5702633315	 0.1024535439	 0.241666
H	-2.2013413268	-3.7858793406	 0.0384623436	 0.098047
H	-4.7028020664	-3.6886066971	 0.4394536055	 0.246432
H	-5.5226461422	-2.2370764132	 0.243240173	 0.250101
H	-2.5746183781	 1.032116682	-0.0661210598	 0.100912
