15
gdb 46201	3.28691	1.57626	1.21184	2.1893	64.84	-0.2546	-0.0096	0.2451	980.7002	0.112886	-457.706576	-457.699693	-457.698749	-457.738079	26.392	
O	-0.1799169705	 0.0528191067	-0.2579396238	-0.333098
C	-0.0843004083	 1.2101389998	 0.0008942016	 0.390905
O	-1.0539715379	 2.0546485876	 0.4815702067	-0.247304
C	-0.1370160502	 3.2036794905	 0.5079328936	-0.17566
C	 0.9768256854	 2.3060593044	-0.0262034096	 0.201513
C	 2.4269916593	 2.2258061893	 0.5023673527	-0.017378
C	 2.8281488241	 1.4313808217	-0.761637498	-0.238355
C	 1.9566099769	 2.6397241191	-1.1740332138	-0.017372
O	 2.7125268019	 3.490320262	-0.2208256142	-0.317651
H	-0.4886999206	 3.9943065098	-0.1571430755	 0.13522
H	-0.0164986174	 3.5788476124	 1.5256873842	 0.135221
H	 2.7698563017	 2.1387000185	 1.5330325216	 0.112212
H	 3.8794109045	 1.5172754239	-1.0354034788	 0.117692
H	 2.4105626189	 0.4315835493	-0.8913264661	 0.141843
H	 1.7340125522	 3.050196245	-2.1586028705	 0.112211
