20
gdb 23527	3.12637	1.20695	1.1331	1.254	83.06	-0.2375	0.0232	0.2607	1185.9994	0.172053	-403.095714	-403.087391	-403.086447	-403.128309	32.839	
C	-0.1508532238	 1.5865630692	-0.0055907368	-0.438239
C	 0.0343925281	 0.0759569795	 0.0154499562	 0.035128
C	 1.1742184554	-0.6261007208	-0.8170574621	-0.133185
C	 2.4582514377	 0.0429938769	-0.2661484734	-0.221277
C	 2.1276644964	 0.024377991	 1.2682974472	-0.222143
C	 0.7357194214	-0.6536929593	 1.2238145568	-0.12286
C	 0.9930196804	-1.7421122849	 0.2009332546	 0.486478
N	 0.8994918082	-2.9994156654	 0.2510981563	-0.315226
O	 1.1378955294	-3.5793315284	-1.0206745093	-0.402872
H	 0.7715475594	 2.1353058896	 0.1994638903	 0.120952
H	-0.5191251031	 1.9123868711	-0.9843525743	 0.120887
H	-0.8904588957	 1.8913815737	 0.7426532162	 0.120408
H	-0.9190789082	-0.4173684582	-0.1950446724	 0.087588
H	 1.0960003338	-0.797267712	-1.8879944045	 0.083729
H	 3.3517439861	-0.5371493974	-0.5077415188	 0.11139
H	 2.5988721377	 1.053460113	-0.6585582992	 0.101269
H	 2.8456336251	-0.5663320193	 1.8419906704	 0.109429
H	 2.0889716781	 1.0244218893	 1.7078938248	 0.100587
H	 0.2237929588	-0.8477234814	 2.1645770868	 0.075418
H	 1.0306455746	-4.5174012962	-0.8311193589	 0.302539
