15
gdb 132746	2.28776	1.76976	1.00401	2.1037	71.64	-0.2414	-0.0077	0.2337	1095.3879	0.111574	-469.947008	-469.939251	-469.938307	-469.979498	29.09	
C	-0.0231563183	 1.5257868697	-0.0087755641	-0.496564
C	-0.0053291453	 0.0201608087	 0.0199267979	 0.176994
C	 0.0236344686	-0.6908649087	-1.1763185282	 0.080315
F	 0.0353112745	-0.0292594479	-2.3384612964	-0.061022
C	 0.0408847899	-2.0817993547	-1.195252684	 0.186532
F	 0.068493947	-2.7084375496	-2.3727691481	-0.063529
C	 0.0295427052	-2.8016570986	-0.0112410524	-0.261117
C	 0.0006029911	-2.1079535928	 1.1959453213	-0.096528
C	-0.0165371008	-0.7161537768	 1.2078860673	-0.198759
H	 0.8595087489	 1.9249709178	-0.5195332036	 0.142014
H	-0.8972153545	 1.9035966197	-0.5496959627	 0.142014
H	-0.0454966907	 1.9322858172	 1.004627907	 0.126478
H	 0.0434611199	-3.8840874511	-0.0552407724	 0.118158
H	-0.0085510605	-2.6586358267	 2.1296745767	 0.105205
H	-0.0390677652	-0.1831161262	 2.1526203016	 0.09981
