16
gdb 701	9.20498	2.24291	2.01331	0.	60.97	-0.2473	0.0925	0.3399	665.6195	0.143702	-234.469389	-234.463258	-234.462314	-234.499031	23.14	
C	-0.2082939913	 1.3266806359	-0.2027088323	-0.269709
C	 1.2529281813	 1.1441283266	 0.1318808381	-0.269716
C	 0.3318175381	-0.0507421096	 0.0948229258	 0.030291
C	-0.0456214101	-0.7597844161	 1.3562675765	 0.030294
C	-0.9669434115	-1.954494414	 1.3192315052	-0.26971
C	 0.4942739627	-2.1373116976	 1.6536974277	-0.269717
H	-0.8447522981	 1.7901642785	 0.5442206165	 0.109036
H	-0.4778801144	 1.5686800003	-1.2249192573	 0.108307
H	 1.9830884724	 1.2612274189	-0.6614089631	 0.108307
H	 1.5964576658	 1.4851851528	 1.1032037519	 0.109036
H	 0.4459038291	-0.7099448977	-0.7630587839	 0.074448
H	-0.1595214753	-0.1006042504	 2.2141917156	 0.074448
H	-1.6970655757	-2.0715009476	 2.112569811	 0.108307
H	-1.3106004778	-2.2954483006	 0.347917618	 0.109036
H	 1.1305915731	-2.6008776583	 0.906698633	 0.109036
H	 0.7639062017	-2.3793977512	 2.6758753672	 0.108308
