20
gdb 105691	2.31958	1.15952	0.95489	4.7954	76.14	-0.2589	0.0137	0.2726	1320.2354	0.169692	-440.282941	-440.273165	-440.272221	-440.318583	34.902	
C	-1.0005581669	 0.6395851172	-0.2931780016	-0.383248
C	-0.3412086949	-0.685055286	 0.11769305	-0.273492
C	 0.6885782058	-0.5781324855	 1.2334036181	 0.338213
C	 0.188822671	-0.2344644468	 2.6229123468	-0.149777
O	-0.32325024	 1.1028294745	 2.6994887646	-0.181687
C	 0.5528860023	 2.0820452986	 3.0169125166	 0.17989
O	 0.2448064285	 3.2357259346	 3.016677507	-0.280953
C	 1.9126948421	-1.4213411374	 1.1516275294	-0.289763
N	 2.0000596435	 0.0353955712	 0.9501425278	-0.345085
H	-0.2518707905	 1.3727843419	-0.6114124211	 0.118806
H	-1.6841195312	 0.4761491238	-1.131812008	 0.11249
H	-1.562742636	 1.0837174794	 0.5298263352	 0.150132
H	-1.115361809	-1.4008681807	 0.4242143587	 0.105006
H	 0.1502429767	-1.1300686005	-0.7567905918	 0.094676
H	-0.6395673077	-0.8855628915	 2.9154495978	 0.122258
H	 1.0012671512	-0.3590888072	 3.3476861268	 0.11484
H	 1.5525912115	 1.693830897	 3.2803583205	 0.093978
H	 2.3941966582	-1.7886566702	 2.0543438846	 0.119125
H	 2.0159362721	-2.0762065323	 0.290703436	 0.118147
H	 2.0794861635	 0.2495111299	-0.0412048773	 0.236444
