23
gdb 99984	2.64138	1.08761	0.94882	2.8336	85.85	-0.266	0.0294	0.2954	1370.5015	0.20409	-384.490199	-384.479056	-384.478112	-384.525932	41.224	
C	 0.1556770963	 1.5600871694	 0.0212689339	-0.407987
C	-0.0271843422	 0.0394918362	-0.0344259112	-0.190332
C	-1.4877477894	-0.4760688515	 0.0356951275	 0.279173
C	-2.2095385576	 0.040650148	 1.2939192733	-0.440787
C	-2.2697394597	-0.055241808	-1.2215210406	-0.433337
C	-1.4126747786	-2.0399952345	 0.0755385852	-0.14599
N	-0.7123807338	-2.5350538547	 1.2659500551	-0.502833
C	-2.7520374781	-2.6561636324	-0.0619137543	 0.266767
N	-3.7875244783	-3.1692192682	-0.1167116804	-0.341497
H	 1.2176657786	 1.8103540566	-0.0646047465	 0.116946
H	-0.3656090734	 2.0739907008	-0.7923037286	 0.117211
H	-0.2005946621	 1.9810955332	 0.9662386202	 0.119517
H	 0.4194062247	-0.3354789936	-0.9657531831	 0.086351
H	 0.5359698903	-0.423202366	 0.7810846689	 0.120552
H	-2.3708583287	 1.119942327	 1.2322631283	 0.123987
H	-3.1926456777	-0.4293638512	 1.4046103642	 0.130428
H	-1.6280124907	-0.1519688104	 2.2013705655	 0.118128
H	-1.7928588846	-0.4355848058	-2.1321950303	 0.111662
H	-3.2979018271	-0.4274575366	-1.1992084924	 0.139755
H	-2.3161745822	 1.0339492018	-1.3005135616	 0.119968
H	-0.8280947167	-2.3556540583	-0.7970748083	 0.123216
H	-1.3061370814	-2.4348450821	 2.0835822916	 0.244275
H	-0.5282356275	-3.5286931497	 1.1684486938	 0.244828
