19
gdb 82633	2.02768	1.74769	1.55988	1.7109	75.06	-0.2227	0.0546	0.2773	1013.0847	0.15855	-422.970747	-422.962251	-422.961307	-423.003213	33.37	
C	-0.1180416309	 1.5424713523	-0.0469099655	-0.533576
C	-0.0018462345	 0.0573042777	 0.0500719605	 0.227462
C	 0.03639487	-1.0241989462	-1.0272080562	-0.159779
C	 1.324602362	-1.6273174614	-0.4680820829	-0.240038
C	 0.9248131427	-0.9507871718	 0.8698434766	-0.162502
C	-0.3638996686	-1.7090061198	 1.3018598768	 0.079629
O	-0.9563753936	-1.255588475	 2.508159259	-0.456932
C	-1.0119163921	-1.0911744694	 0.0724348148	 0.338865
O	-2.3519958354	-1.0958276203	-0.2417068641	-0.467829
H	 0.7893479842	 2.0025186078	-0.4559879814	 0.124576
H	-0.9515777464	 1.8106456782	-0.7055689	 0.133598
H	-0.3085459003	 2.0081123031	 0.9282893498	 0.110105
H	-0.2759108744	-0.9203786892	-2.0596195443	 0.092498
H	 1.4437018638	-2.7173537571	-0.4636842983	 0.09181
H	 2.2095358531	-1.1652445648	-0.9148411869	 0.101402
H	 1.6586884157	-0.6805114151	 1.6277277943	 0.073537
H	-0.3100284053	-2.7994447204	 1.3914386247	 0.080587
H	-0.9123540929	-0.2913789222	 2.5059485777	 0.277939
H	-2.8302687671	-0.9260528164	 0.5794411352	 0.288649
