17
gdb 32755	3.26119	1.09318	0.85293	2.961	72.61	-0.1903	0.0153	0.2056	1347.2806	0.135963	-455.163302	-455.154302	-455.153358	-455.197915	32.125	
C	 0.0161919973	 1.4693162485	 0.0025246089	-0.386757
C	-0.20765042	 0.0130037384	 0.3585094537	-0.061186
O	 1.0641001234	-0.5445125266	 0.7553194514	-0.280256
C	 1.0370742661	-1.8228795526	 1.1472833873	 0.317361
C	 1.3588286424	-2.445867817	 2.3118485855	 0.165571
N	 1.8369976409	-1.9172843488	 3.5094731909	-0.599802
N	 1.2312354398	-3.816509614	 2.1341452427	-0.300759
C	 0.850133209	-3.9519924692	 0.9046698743	 0.07431
O	 0.7166508164	-2.7997348454	 0.2197606352	-0.183105
H	 0.735497586	 1.5576173429	-0.8161583376	 0.136073
H	-0.9260919283	 1.9275209493	-0.3117762677	 0.122691
H	 0.4028301102	 2.0242014384	 0.8619203417	 0.128745
H	-0.9187747891	-0.0980169092	 1.1878704618	 0.102032
H	-0.5935455583	-0.5512389046	-0.4983956004	 0.120087
H	 1.5909888288	-0.9446874905	 3.6357859969	 0.246327
H	 1.5430411549	-2.470213986	 4.3042722579	 0.25267
H	 0.6228618805	-4.8644844434	 0.3766128575	 0.145998
