20
gdb 22534	1.84552	1.54305	1.12505	1.9588	77.88	-0.248	-0.0001	0.2479	1210.8326	0.167674	-440.224571	-440.214454	-440.21351	-440.259504	37.129	
C	-0.3444590545	 0.6147098419	 0.4384883	-0.385112
C	-0.3920598331	 0.5552425713	-1.0967822967	-0.260644
C	 0.68892305	-0.3055063309	-1.7015812931	 0.282093
N	 1.4965894358	 0.2846179924	-2.498665373	-0.16977
O	 2.4741434042	-0.5737967712	-3.0138933968	-0.390189
C	 0.7972940118	-1.7662950938	-1.3306531521	 0.367037
C	 1.9654714624	-2.1330385663	-0.4366580117	-0.469208
C	-0.4123357236	-2.6067032472	-1.334665328	-0.235125
O	 0.5332246873	-2.6849775986	-2.4005385496	-0.266097
H	-0.4655663068	-0.3773528778	 0.8849578833	 0.123017
H	 0.6075207331	 1.0282453852	 0.7856899371	 0.126662
H	-1.1486474144	 1.2501826375	 0.8207753648	 0.119775
H	-1.3730558748	 0.1745780128	-1.4096856563	 0.109598
H	-0.29046438	 1.5588495722	-1.5184108797	 0.122173
H	 2.9820953617	 0.0147691325	-3.5820417272	 0.30797
H	 1.8842276118	-1.6345317213	 0.5349587586	 0.121112
H	 1.983956035	-3.2142289291	-0.2753837203	 0.124924
H	 2.9044668766	-1.830255846	-0.9039767837	 0.150014
H	-0.4548968439	-3.4753322492	-0.6778114124	 0.109383
H	-1.3807596685	-2.1852256343	-1.5998565232	 0.112389
