16
gdb 37492	3.94788	2.02206	1.71769	1.6452	73.22	-0.2124	-0.0494	0.163	796.5542	0.126353	-400.608338	-400.602755	-400.601811	-400.637829	24.615	
C	-0.0438602591	 1.5939968909	-0.0141137649	-0.199232
C	 1.4533691244	 1.9092719932	-0.0088807804	-0.12752
C	 2.0738902778	 0.7607276588	-0.3514007502	 0.058787
C	 2.4771823815	-0.184921598	 0.7312247114	 0.008295
O	 2.7608610134	-1.4698706056	 0.1668999988	-0.277593
C	 1.3931989029	-1.519849553	-0.240697431	 0.09439
C	 0.8341986599	-0.6673010905	 0.9032092329	-0.065529
N	-0.0485954802	 0.0857202418	-0.0343879863	-0.115371
C	 1.0407490642	-0.2043339834	-1.0133684557	-0.091666
H	-0.5182996896	 2.0068510461	 0.8828523599	 0.119509
H	-0.6307829861	 1.9200246637	-0.8805317672	 0.124872
H	 1.8707641661	 2.616915767	 0.7016262764	 0.103765
H	 3.1045169328	 0.1074796905	 1.5702333661	 0.096435
H	 1.0373912369	-2.4902791191	-0.5778958675	 0.097627
H	 0.4742971066	-0.9840251075	 1.8809649469	 0.092558
H	 0.8284521584	-0.1239160349	-2.0792707691	 0.080674
