17
gdb 35614	2.28284	1.77731	1.11692	2.8905	78.21	-0.2458	-0.0002	0.2456	1074.026	0.137775	-380.869448	-380.861709	-380.860765	-380.901908	29.693	
N	-0.4459260166	-0.7694682299	-0.9864836467	-0.335476
C	-0.2649273357	 0.2539530395	-0.4795561143	 0.281069
C	-0.0222933718	 1.5495059745	 0.1417965949	-0.251293
C	-0.3475880494	 1.6052683486	 1.6664445172	-0.280135
C	 0.6847524241	 2.579196725	 2.1862889134	-0.095902
C	 1.6463713145	 2.8193090288	 1.2971463155	-0.105481
C	 1.4368323409	 2.0586561308	 0.0360978575	 0.3163
C	 2.5204314603	 1.3074425837	-0.6571605417	-0.290822
N	 1.9930015637	 2.5620509364	-1.2239526392	-0.362747
H	-0.6586485857	 2.2857115399	-0.3656155954	 0.135874
H	-1.3793169885	 1.9223733356	 1.8451234194	 0.125372
H	-0.2338211681	 0.6184046033	 2.1317446079	 0.13585
H	 0.6367043002	 2.9859698221	 3.1892641842	 0.109148
H	 2.5125473935	 3.4546364655	 1.4340145618	 0.115465
H	 3.5380788984	 1.3678952263	-0.2813600521	 0.121774
H	 2.2608382634	 0.3653647606	-1.1318701426	 0.143237
H	 1.3624846868	 2.3542151593	-1.9960776699	 0.237768
