23
gdb 60351	3.11868	0.77245	0.64493	1.1908	89.39	-0.2524	0.0404	0.2928	1804.7195	0.201431	-388.256718	-388.245306	-388.244362	-388.293981	41.137	
C	 0.068392684	 1.4880689015	-0.0919776065	-0.393822
C	 0.0233236589	-0.0385538525	 0.0455885429	 0.022307
C	 0.6278222717	-0.508886962	 1.3738461663	-0.38227
C	-1.4121037888	-0.5392387175	-0.1188755821	-0.042065
O	-1.401523546	-1.9553978288	-0.1234090522	-0.261189
C	-2.68635172	-2.5639824026	-0.0821980338	-0.033952
C	-3.3718023364	-2.5669654712	-1.458711991	-0.395904
C	-2.5210286677	-3.9274603642	 0.424666031	 0.318628
C	-2.4161674168	-5.0551341902	 0.8246981081	-0.442639
H	 1.0953966396	 1.8557406818	-0.0054985002	 0.115527
H	-0.3257096438	 1.8194576638	-1.0587671597	 0.110631
H	-0.5221379652	 1.9734501413	 0.6944209817	 0.112806
H	 0.6059289966	-0.4796257878	-0.774201452	 0.084737
H	 0.0949972821	-0.0628841165	 2.2229728342	 0.105058
H	 0.5620441976	-1.5951269931	 1.4661766151	 0.135607
H	 1.6797578341	-0.2158264714	 1.4517158563	 0.106721
H	-2.0388214663	-0.1676924459	 0.7115289679	 0.082033
H	-1.8404111531	-0.1444643071	-1.0536964482	 0.084382
H	-3.323361642	-2.0089211688	 0.627687929	 0.093948
H	-4.3427832633	-3.0657546807	-1.3965801315	 0.127728
H	-3.5326312827	-1.545001556	-1.8124233146	 0.118939
H	-2.7486599418	-3.0991831039	-2.1815439271	 0.135631
H	-2.3145969407	-6.0481460382	 1.1871305964	 0.197158
