16
gdb 66698	3.24561	1.71343	1.43094	3.1284	71.44	-0.2336	-0.0252	0.2084	929.5704	0.124942	-400.709416	-400.702603	-400.701659	-400.740402	27.429	
C	-0.1393603265	 1.5242566281	-0.0462576799	-0.508508
C	 0.1166541634	 0.0537840165	 0.034788791	 0.346566
C	 0.7744995981	-0.8225902512	-1.0687216725	-0.169307
C	-0.2957860296	-1.8264020923	-0.812697003	-0.016081
C	 1.1098316917	-2.1326691645	-0.3549532758	-0.22016
C	 1.1669982416	-1.8662938459	 1.1197314893	 0.482738
O	 1.8533256953	-2.3770764768	 1.9645800652	-0.333907
C	 0.1370836311	-0.7812777103	 1.2727142394	-0.246624
N	-0.9547175956	-0.9557016157	 0.2581690564	-0.19204
H	 0.7881112623	 2.09149912	 0.0882537062	 0.130553
H	-0.5631789523	 1.7895854274	-1.0210333196	 0.131298
H	-0.8487115708	 1.8302109834	 0.7275822912	 0.138637
H	 1.2485104423	-0.4961690913	-1.9831786498	 0.108938
H	-0.9009421662	-2.4467473541	-1.4587381844	 0.114644
H	 1.7097360089	-2.893768827	-0.8320742291	 0.117463
H	-0.1585588038	-0.4073939564	 2.2438903653	 0.115789
