18
gdb 80312	3.4509	1.1227	1.08221	4.7554	84.82	-0.2461	-0.0414	0.2046	1187.5732	0.149083	-364.836091	-364.828074	-364.82713	-364.868623	30.804	
C	-0.1035500208	 1.5551568385	 0.0469075501	-0.419479
C	 0.0501949396	 0.0549558685	-0.0527237602	 0.000573
C	 0.7154981277	-0.6610731603	-1.1969994567	-0.078003
C	 1.663455072	 0.1131596261	-2.1136984887	-0.331135
C	 2.7935577758	 0.5355461564	-1.182800077	 0.179577
C	 2.6205520681	 0.0556881233	 0.0618486397	-0.154682
C	 1.3572765507	-0.703225878	 0.1925107831	-0.100472
C	 3.8720916142	 1.3519314825	-1.6133942386	 0.201405
N	 4.7420070218	 2.0137450371	-1.9993821536	-0.339413
H	 0.7919239951	 2.091750054	-0.2742163688	 0.129585
H	-0.9384512344	 1.8952452254	-0.5757490318	 0.122968
H	-0.316286032	 1.854243039	 1.0785913956	 0.122904
H	-0.8073743909	-0.4880430961	 0.3384344508	 0.094937
H	 0.2272530834	-1.5393979163	-1.6021999634	 0.094625
H	 2.0428218595	-0.5148388452	-2.9278640855	 0.128199
H	 1.1863521841	 0.9809755768	-2.5846447134	 0.129969
H	 3.3113147766	 0.2158802669	 0.8810630194	 0.121128
H	 1.3285419294	-1.5788514686	 0.831213869	 0.097313
