17
gdb 128809	4.51413	0.94679	0.87094	2.2111	71.84	-0.2596	-0.0253	0.2343	1365.3486	0.136181	-451.300196	-451.291188	-451.290244	-451.335384	30.498	
C	 0.2334795037	 0.5911212677	 0.5488914517	-0.239965
O	-0.4485049397	 0.3161213475	-0.6604763883	-0.229459
C	-1.6030194736	-0.4844782599	-0.4979119553	-0.171012
C	-1.2890272997	-1.9336208307	-0.2734705348	 0.376941
N	-1.2425464906	-2.8405997049	-1.2474168763	-0.295501
N	-0.9014692087	-3.9339927574	-0.5817713421	 0.154281
C	-0.7261745064	-5.2291804608	-1.2087752223	-0.318693
N	-0.7427983849	-3.7429624153	 0.7229729594	-0.126087
N	-0.989236927	-2.4752850181	 0.9343872296	-0.255277
H	 1.0766763134	 1.2369677961	 0.2931276244	 0.12643
H	-0.4175276093	 1.117513206	 1.2639217747	 0.1059
H	 0.6087018625	-0.319441982	 1.0332007552	 0.131257
H	-2.2176381192	-0.1201135763	 0.338512279	 0.110337
H	-2.1744751865	-0.3899280469	-1.4243294319	 0.129099
H	 0.0614072035	-5.1699000484	-1.9625909564	 0.164807
H	-0.4480381405	-5.9334026377	-0.4259168512	 0.173684
H	-1.659620437	-5.5395442791	-1.6827123154	 0.163257
