20
gdb 122260	2.72811	0.82792	0.70059	3.1274	81.99	-0.244	0.0433	0.2873	1638.7015	0.168671	-403.078266	-403.068043	-403.067098	-403.114198	37.012	
O	 0.0323399165	 1.3793262582	 0.3436432318	-0.419918
C	 0.0412687558	 0.0180288749	-0.0556570831	-0.0745
C	-1.3627777153	-0.5365991998	 0.1446094759	-0.16536
C	-1.4717350742	-2.0162227589	-0.2407898138	-0.287652
C	-2.8775737939	-2.5810235219	-0.0712761293	 0.101364
C	-3.0319497055	-4.0073083436	 0.3486021265	-0.274682
N	-3.3471950621	-2.9311437648	 1.2947806789	-0.331776
C	-3.880734717	-1.9948346929	-0.9295714471	 0.353232
C	-4.6840018714	-1.5061362589	-1.6787768686	-0.458713
H	 0.91270404	 1.7401486917	 0.2048714721	 0.285653
H	 0.3343132697	-0.0868394208	-1.1135718749	 0.08534
H	 0.7636695368	-0.5668313331	 0.5388663404	 0.08017
H	-1.6477603713	-0.3958409215	 1.1940403329	 0.10816
H	-2.0652154818	 0.0544882894	-0.4522843008	 0.126984
H	-1.1623096034	-2.1516187044	-1.2849435499	 0.11143
H	-0.7841358026	-2.6165212006	 0.3698823262	 0.090275
H	-3.890266825	-4.574361957	 0.0020299493	 0.129406
H	-2.1223776161	-4.5873578511	 0.4857011458	 0.113072
H	-2.5753251076	-2.8047341858	 1.9467037396	 0.232108
H	-5.4069380416	-1.074130129	-2.3255292518	 0.195407
