21
gdb 58671	2.13819	1.36385	1.16834	3.4844	83.94	-0.2341	0.0323	0.2665	1224.4319	0.180619	-383.265624	-383.255349	-383.254404	-383.300372	37.577	
C	 0.0042320904	 1.4830567601	-0.2287855289	-0.420283
C	 0.1222697223	-0.0140152636	-0.0603885491	-0.044058
C	 1.4566808985	-0.700436622	-0.0668737334	-0.332765
C	 0.6510026329	-0.6470671449	 1.222291087	 0.193602
C	 1.1293441486	 0.2389673391	 2.2717478528	 0.25717
N	 1.4821028712	 0.8998030527	 3.1547181787	-0.369755
N	 0.031069175	-1.8688671697	 1.6575135657	-0.104868
C	 0.9500613696	-2.7635501545	 2.3558499431	-0.338351
C	-1.2042029374	-1.650205479	 2.4046499469	-0.338357
H	 0.8225588527	 2.0097418232	 0.2699641789	 0.139765
H	 0.0305235065	 1.7490518378	-1.2905687167	 0.125137
H	-0.9359048461	 1.8569631727	 0.1893577447	 0.128753
H	-0.6882197014	-0.5974814045	-0.4869044893	 0.108184
H	 1.5331426915	-1.6789020857	-0.5260803289	 0.131254
H	 2.3492201871	-0.0871308052	-0.1230179106	 0.132751
H	 1.2833237764	-2.3688569225	 3.3306107187	 0.11983
H	 0.4544174554	-3.7236893701	 2.5271770311	 0.122303
H	 1.8339026528	-2.9385565222	 1.7363162537	 0.123944
H	-1.8858179649	-1.030843673	 1.8150062543	 0.122645
H	-1.6878797175	-2.6142645237	 2.5874966652	 0.12257
H	-1.0408298438	-1.1566823351	 3.3777262461	 0.12053
