13
gdb 4668	7.208	1.23745	1.05613	4.6313	63.81	-0.2051	-0.0288	0.1763	1016.6798	0.096137	-398.646593	-398.639442	-398.638498	-398.677908	26.226	
O	 0.0904786454	 1.3365478575	 0.1858996054	-0.43141
C	 0.0696078618	-0.0038661155	-0.0073599326	 0.416855
C	 0.0898376913	-0.8105035072	-1.1127108523	-0.427473
C	 0.0459851191	-2.1643946116	-0.6261000956	 0.202962
C	 0.0474726015	-3.3842637693	-1.4220546546	 0.072262
O	 0.009549989	-4.5116681794	-0.9734483015	-0.292533
C	 0.0012569639	-2.1113527529	 0.7537116132	-0.148331
N	 0.0161803552	-0.7927054762	 1.1157279791	-0.291816
H	 0.1289517804	 1.7698498645	-0.6721351572	 0.312605
H	 0.1305176075	-0.4942727924	-2.1436500825	 0.103543
H	 0.0875889255	-3.2117728184	-2.5221773005	 0.055497
H	-0.0390716715	-2.9057842588	 1.4791339132	 0.152599
H	-0.007598339	-0.4294965504	 2.0539691258	 0.27524
