22
gdb 20065	4.71873	1.23429	1.05807	0.07	81.66	-0.2649	0.0852	0.3501	1189.1434	0.202528	-313.076785	-313.068592	-313.067648	-313.110759	30.944	
C	-0.1942255275	 1.4615267014	-0.0562787926	-0.275439
C	 1.2506418384	 1.0843129674	 0.1624506226	-0.275438
C	 0.202230359	 0.0082660209	 0.0254227618	 0.026558
C	-0.1982767602	-0.8392487318	 1.2094775598	 0.039441
C	-1.6001007103	-1.4712573684	 1.1059542869	-0.20417
C	-1.6142616811	-2.5764738971	 2.1852841179	-0.206432
C	-0.1208872628	-2.9667191595	 2.4109894722	-0.206429
C	 0.6958308431	-2.0706403854	 1.4535011688	-0.204178
H	-0.7383889179	 1.884699829	 0.7821539507	 0.10705
H	-0.4811492505	 1.8686139425	-1.0196309805	 0.107528
H	 1.9518054717	 1.2334397549	-0.651320464	 0.107528
H	 1.6738106381	 1.2549421591	 1.1473224572	 0.107051
H	 0.20408796	-0.5325216143	-0.9194654756	 0.073845
H	-0.1700426914	-0.2082150699	 2.1111321078	 0.057947
H	-2.406726198	-0.7424526579	 1.226974819	 0.091421
H	-1.7156290848	-1.9128929951	 0.1074106814	 0.090298
H	-2.0509103057	-2.1961796229	 3.1143038062	 0.096241
H	-2.2250638141	-3.4317570032	 1.8832178398	 0.094598
H	 0.1674549087	-2.7765735198	 3.4497659073	 0.096243
H	 0.0619733114	-4.0292599713	 2.2282249356	 0.09461
H	 0.8581146647	-2.5844959563	 0.4969001351	 0.090304
H	 1.682865119	-1.8101105522	 1.8463522026	 0.091425
