19
gdb 95664	2.94665	1.25261	0.95304	3.5406	80.28	-0.2366	-0.0548	0.1818	1250.0513	0.159698	-423.04662	-423.038103	-423.037159	-423.0801	32.092	
C	 0.5511570144	 1.6212127133	 0.0199935364	-0.407251
C	-0.1114649546	 0.2345303025	-0.0835380168	-0.045021
C	 0.4325781674	-0.5300708651	-1.2910964717	-0.095538
O	-0.1945564636	-1.7863423177	-1.4469722022	-0.237063
C	 0.5194708923	-2.8651421688	-0.9020808928	-0.192237
C	 0.7254827084	-2.893248539	 0.6165783595	 0.323198
O	 1.2044789429	-3.9019281655	 1.0997291381	-0.32263
C	 0.3475093761	-1.7665947399	 1.5002176976	-0.162242
C	-0.0001045897	-0.5020468094	 1.2217510587	-0.022241
H	 1.6262425237	 1.5305892392	 0.2083372724	 0.12716
H	 0.41530477	 2.1851545054	-0.908053373	 0.122947
H	 0.1167043702	 2.2068857841	 0.8352445512	 0.124153
H	-1.1870736636	 0.3917930021	-0.2606131156	 0.107913
H	 0.2328973785	 0.0473742433	-2.2013057642	 0.109143
H	 1.5246210881	-0.6459200669	-1.2060100839	 0.094528
H	-0.0325132567	-3.7738857318	-1.159857404	 0.141983
H	 1.5191998637	-2.9570517336	-1.3581299216	 0.119843
H	 0.3984203043	-2.0648983528	 2.5447105827	 0.108942
H	-0.2352417418	 0.1233909407	 2.0836471693	 0.104415
