21
gdb 83517	2.7831	1.71368	1.54489	1.4708	80.21	-0.2376	0.0941	0.3317	986.3393	0.185994	-387.082944	-387.075772	-387.074827	-387.113977	30.369	
C	-0.0254627656	 1.5841902145	 0.0389601792	-0.435561
C	 0.023998792	 0.0581850033	-0.0007126427	 0.013216
C	 0.9784038833	-0.591568028	-1.0360854468	-0.074658
C	 2.3360715471	-0.1245808089	-0.4576833183	-0.073608
O	 2.1289716369	-0.1305181377	 0.9702744982	-0.282252
C	 0.7761091218	-0.6019896676	 1.1712898727	 0.083934
C	 0.7925823662	-2.0913431123	 0.8336456582	-0.028922
C	-0.2917617736	-2.6914030386	-0.0272672923	-0.339234
C	 0.9199698146	-2.084047089	-0.6862394388	-0.018703
H	 0.9384182225	 2.01784084	 0.3136343957	 0.137652
H	-0.3251060965	 1.9924846076	-0.9322942288	 0.110638
H	-0.7605131887	 1.9214270778	 0.7774165049	 0.113596
H	-0.9940630746	-0.3178243863	-0.1075252127	 0.072499
H	 0.8164242246	-0.3287980525	-2.0832716623	 0.062296
H	 3.1551642486	-0.8052019226	-0.7190177571	 0.094528
H	 2.6109297573	 0.8873396392	-0.7794143047	 0.093414
H	 0.4772489578	-0.3256392698	 2.1835271421	 0.068057
H	 1.4023090204	-2.7364608248	 1.4553031506	 0.091607
H	-0.3197454341	-3.7762988737	-0.03795859	 0.110705
H	-1.2747560777	-2.2412522231	-0.101364232	 0.114456
H	 1.6173868179	-2.7435463174	-1.192034865	 0.086339
