22
gdb 63797	2.87737	1.62761	1.45199	1.6072	83.51	-0.2286	0.0791	0.3078	1031.0021	0.196024	-367.192487	-367.184536	-367.183591	-367.22416	32.949	
C	-0.1290927579	 1.5839206452	-0.0000187021	-0.446454
C	 0.0100169059	 0.0580674049	-0.0066154558	 0.320953
C	-1.3823599345	-0.5964637335	-0.0529734449	-0.431374
C	 0.8934033478	-0.4773378894	-1.1754168623	-0.290799
C	 1.6396557857	-1.646415962	-0.5454056134	-0.021658
C	 2.5637376711	-1.4013815472	 0.5919483564	-0.034564
C	 2.271671369	-0.0778376636	 1.2794785631	-0.274551
C	 0.7760448186	-0.4945682633	 1.2066883101	-0.007854
N	 1.1664497753	-1.9274693806	 0.8359067217	-0.154536
H	 0.8429541135	 2.085259072	 0.0301801569	 0.112122
H	-0.651032046	 1.9278097167	-0.8995770983	 0.114837
H	-0.7099388384	 1.922973949	 0.8650322929	 0.112034
H	-1.9178325492	-0.3061150971	-0.9634917916	 0.106702
H	-1.3046431605	-1.6871776075	-0.0333516885	 0.13583
H	-1.9893807744	-0.2866551124	 0.8049702662	 0.108668
H	 0.284413132	-0.8035550251	-2.0235163832	 0.100443
H	 1.5806089005	 0.2903869053	-1.5475907656	 0.098562
H	 1.8208166738	-2.5400342525	-1.1344713999	 0.088019
H	 3.4382525052	-2.0227269998	 0.7627170204	 0.08711
H	 2.6368139044	-0.0703121495	 2.3086383863	 0.110268
H	 2.5906368108	 0.846079592	 0.7866301472	 0.095873
H	 0.2180473273	-0.4450834513	 2.1431439245	 0.070368
