17
gdb 102269	1.92892	1.29278	0.8497	6.4358	70.04	-0.2587	0.0299	0.2886	1345.711	0.13691	-451.366735	-451.356987	-451.356043	-451.401935	34.83	
N	-0.0952649175	 1.457092329	 0.0526267929	-0.52098
C	 0.0236841861	 0.0002020166	 0.0128633103	-0.191066
C	 0.853579172	-0.4854135825	 1.2238606636	-0.09397
N	 0.2970155653	 0.0849646488	 2.4397664946	-0.343567
C	 1.1087639347	 0.0871179296	 3.5678102019	 0.451567
N	 0.6134581618	 0.8625565568	 4.6015530309	-0.562901
O	 2.1601780213	-0.5195764793	 3.6247621438	-0.377338
C	 0.8393936313	-1.9574473351	 1.2549262558	 0.314817
N	 0.8084187815	-3.1111971214	 1.2157716911	-0.329014
H	 0.7744705369	 1.8980161785	-0.2317587329	 0.241734
H	-0.8096042141	 1.7697645227	-0.5952510568	 0.245692
H	-0.9816732421	-0.4251005397	 0.0890698498	 0.136164
H	 0.4837394325	-0.4040607498	-0.8992760663	 0.120123
H	 1.9033833089	-0.1812088131	 1.102476946	 0.135615
H	-0.20712927	 0.9420298823	 2.2384577342	 0.253712
H	-0.3880632389	 0.9603169778	 4.6721258812	 0.25472
H	 1.0800005002	 0.6935317587	 5.4796859199	 0.26469
