13
gdb 20663	3.42826	2.31127	1.39229	1.4456	63.34	-0.2584	-0.0761	0.1823	822.3018	0.096876	-394.795936	-394.789226	-394.788282	-394.826895	24.491	
C	-0.0267536469	 1.5255520232	 0.0041304442	-0.482211
C	-0.0071375244	 0.0314165484	-0.0133493179	 0.127192
C	-0.0458557984	-0.7335848299	-1.1358194381	-0.027072
N	-0.0282708338	-2.1130054737	-1.1658626971	-0.216655
N	 0.0285492646	-2.7580205098	-0.0688414108	-0.032724
N	 0.0691686719	-2.0585367039	 1.0763489196	-0.272465
C	 0.0582497589	-0.667683588	 1.2612004573	 0.417089
O	 0.1003174908	-0.1792295252	 2.3737029105	-0.371682
H	 0.8662662842	 1.9120540858	 0.5068357244	 0.156797
H	-0.0764980991	 1.9374251192	-1.0059850419	 0.129291
H	-0.8827484081	 1.8881829572	 0.5832272485	 0.156793
H	-0.0951489541	-0.2798880999	-2.121028232	 0.132325
H	 0.1135112644	-2.6340388834	 1.9088894432	 0.28332
