18
gdb 34571	4.15907	1.0874	0.98939	4.6319	84.61	-0.2573	-0.0402	0.2172	1218.807	0.150179	-364.838298	-364.830769	-364.829825	-364.870575	29.15	
N	 0.0351158166	-1.18008409	-0.0990586649	-0.336454
C	-0.0117353676	-0.0236549052	-0.0425697021	 0.200065
C	-0.02598427	 1.3967056066	 0.0304472424	 0.19973
C	-1.1268741014	 2.1615627185	-0.0363814631	-0.162033
C	-0.8182396959	 3.6239690422	 0.0698251066	-0.057636
C	-1.1244688468	 4.2768765722	 1.4543803251	-0.223757
C	 0.3481092557	 4.0134082883	 1.8780982117	-0.224184
C	 0.7116042443	 3.6362147679	 0.4099597886	-0.014396
C	 1.2511696749	 2.214297073	 0.1691364598	-0.333434
H	-2.1325265499	 1.7722836105	-0.1512230888	 0.118362
H	-1.1743815593	 4.1811735234	-0.8028135634	 0.084622
H	-1.3565673159	 5.3406170181	 1.3603995152	 0.107566
H	-1.904683719	 3.8041424744	 2.0558231104	 0.10526
H	 0.8852378535	 4.8650205082	 2.3008677193	 0.106241
H	 0.4529717651	 3.1694306123	 2.5655407811	 0.108583
H	 1.2960822455	 4.4035448566	-0.0990550362	 0.075587
H	 1.8770016418	 1.8589448808	 0.9958816687	 0.12351
H	 1.8582445786	 2.1348961823	-0.7410442204	 0.12237
