18
gdb 17115	4.69668	1.48546	1.40543	0.7295	66.86	-0.2436	0.0776	0.3212	937.2978	0.155471	-384.911294	-384.904184	-384.90324	-384.942647	27.63	
O	-0.090344964	 1.398346416	-0.1539300103	-0.425035
C	-0.0049604289	-0.0048908574	 0.0620179474	-0.102057
C	-1.4141773568	-0.5720021848	 0.0232647437	 0.036989
C	-2.1197132456	-0.4259354255	-1.3664458819	-0.227076
C	-2.3240268077	-1.9280418671	-1.6461037322	 0.082078
C	-2.8916001362	-2.4769356353	-0.3180987342	-0.232109
C	-1.4456526352	-2.1191134777	 0.0838814719	 0.055915
O	-1.0235732536	-2.4906396054	-1.2676199504	-0.300157
H	 0.8036708931	 1.7439997656	-0.22946833	 0.28589
H	 0.59620335	-0.497257693	-0.7158743423	 0.101744
H	 0.4592527112	-0.2255601693	 1.0377170643	 0.078639
H	-2.0018597315	-0.1257886388	 0.8317676413	 0.076322
H	-3.0570776911	 0.1339621297	-1.3219271657	 0.099094
H	-1.470981821	 0.0448576351	-2.1074541702	 0.114136
H	-2.6755166317	-2.2459389923	-2.6276206787	 0.077304
H	-3.7261374829	-1.9594841335	 0.1628863389	 0.093578
H	-3.0498611169	-3.5551045003	-0.352936896	 0.109581
H	-0.8964111012	-2.628338196	 0.8770238145	 0.075166
