15
gdb 98753	3.1183	0.93736	0.83046	2.845	64.42	-0.269	-0.0723	0.1967	1365.2625	0.108736	-494.884759	-494.875671	-494.874727	-494.919953	31.31	
O	 0.1681922208	 1.4556171496	 0.5549665034	-0.415078
C	 0.0152775001	 0.0782278113	 0.6793990343	-0.134319
C	-1.1449911436	-0.434106083	-0.1542302267	 0.352546
O	-1.8400525733	 0.3418477514	-0.7727168513	-0.325935
C	-1.3665959808	-1.9228264354	-0.153773874	-0.042762
O	-2.6840494721	-2.3888534352	-0.3817690842	-0.213549
C	-1.7289325029	-2.6750455544	-1.3940059627	-0.050569
C	-1.9270305051	-1.9953758413	-2.7199594301	 0.132461
O	-1.4443567994	-2.43700199	-3.7312849043	-0.238423
H	-0.5645545587	 1.7506987771	-0.0085023221	 0.29956
H	 0.9285891367	-0.4584354288	 0.3687506525	 0.12765
H	-0.168807031	-0.2204542038	 1.7273237754	 0.126471
H	-0.8053474221	-2.4771075511	 0.5997214786	 0.1199
H	-1.3906315105	-3.7089547491	-1.4600904979	 0.130669
H	-2.5522374579	-1.0853623572	-2.6860639809	 0.131378
