15
gdb 80308	2.62123	1.54752	1.29457	3.8711	60.55	-0.2603	0.0083	0.2686	990.0951	0.111404	-494.911522	-494.903559	-494.902614	-494.94389	30.219	
O	 0.0024266073	 1.3533041305	-0.2076762609	-0.416065
C	-0.0343099519	-0.029928265	-0.0676420557	-0.005463
C	-0.5114152632	-0.6558969679	 1.2319814259	-0.020483
O	-1.0475495833	 0.2315079006	 2.1841119208	-0.218532
C	-2.2144943893	 0.7986295853	 1.7221355497	 0.436565
O	-2.809221075	 1.6138318375	 2.3565431972	-0.321611
C	-2.5563242191	 0.2159104561	 0.3494098606	-0.441283
C	-1.3930514856	-0.6950778672	 0.0124980121	 0.31818
O	-1.6181173766	-1.9093720523	-0.6247921285	-0.461878
H	 0.5954888309	 1.715312142	 0.460494285	 0.304188
H	 0.7294492323	-0.5943946303	-0.6029848798	 0.104144
H	-0.030164391	-1.5243897379	 1.6626829357	 0.128157
H	-3.4806229305	-0.3648278681	 0.4229940285	 0.148952
H	-2.7134381699	 1.038609987	-0.3511571367	 0.153862
H	-1.6868578652	-1.7456658602	-1.5723567239	 0.291268
