21
gdb 87161	2.77382	1.17678	1.11343	1.0455	78.51	-0.2411	0.0693	0.3104	1240.0246	0.181105	-424.192595	-424.18307	-424.182126	-424.227163	35.419	
C	 2.0352728829	 0.7995728776	-0.5150187005	-0.407667
C	 1.1065687379	-0.3599183257	-0.2333256898	-0.026719
C	 1.6347067772	-1.6459279569	 0.3820198897	-0.365664
C	 0.7324265035	-0.7332133053	 1.1726702203	 0.354309
O	 1.2890167386	 0.0550634044	 2.1945971678	-0.466073
C	-0.6763162367	-1.1717884396	 1.5041241112	 0.094015
C	-1.7980802811	-0.1095773107	 1.4463299938	-0.283839
C	-2.4384869659	-1.0545732936	 0.4116251233	-0.063487
O	-1.2977108249	-1.943800613	 0.4515787174	-0.292981
H	 2.7547360261	 0.9279063365	 0.2966612195	 0.126894
H	 2.5882618789	 0.6382478756	-1.4466394448	 0.11217
H	 1.4793089439	 1.7383675288	-0.614772127	 0.11335
H	 0.3140357053	-0.5105933239	-0.9610317059	 0.093961
H	 1.2309038637	-2.5877898651	 0.0282419627	 0.12616
H	 2.6811195187	-1.6625524353	 0.6712426444	 0.104888
H	 1.5649944347	-0.533280616	 2.9059946971	 0.283819
H	-0.6596262742	-1.7422815456	 2.4468318343	 0.061018
H	-2.3601627605	 0.0482894677	 2.367134458	 0.108727
H	-1.4700955582	 0.8525335592	 1.0504939512	 0.119322
H	-3.3533834374	-1.5611273077	 0.7431711984	 0.102259
H	-2.6018591024	-0.6477387211	-0.5927853311	 0.105538
