17
gdb 66180	3.35804	0.93114	0.85173	2.0954	65.89	-0.2626	-0.0086	0.254	1356.3321	0.133849	-496.088779	-496.079725	-496.078781	-496.123863	31.844	
O	-0.0354232234	 1.5348062431	-0.0871143468	-0.474927
C	 0.019661604	 0.1357820622	-0.0995407809	 0.352087
C	 0.7438022468	-0.3759186538	-1.3364997751	-0.148891
O	 2.0512334303	 0.2154460456	-1.3741835974	-0.201615
C	 3.1343420735	-0.5919009372	-1.3364511921	 0.173731
O	 4.2486868272	-0.1698221546	-1.3243763062	-0.263909
C	 0.41752953	-0.5934368852	 1.2131925035	-0.130589
O	-0.77374483	-1.4050927493	 1.1415555026	-0.271292
C	-1.3401236431	-0.5496639616	 0.127870407	-0.117864
H	 0.8410283713	 1.8649227871	-0.3216613742	 0.296972
H	 0.8111083898	-1.470109305	-1.3267752143	 0.127452
H	 0.2175821212	-0.0546140694	-2.2408023017	 0.13212
H	 2.8635266288	-1.6651828745	-1.3248796327	 0.088337
H	 1.3316492717	-1.1983508412	 1.2212992043	 0.101427
H	 0.4109554404	 0.0823204091	 2.0772932312	 0.112636
H	-2.0849963354	 0.1471051031	 0.5317464499	 0.118351
H	-1.7755516032	-1.1171845685	-0.702911797	 0.105975
