18
gdb 16898	4.03715	1.74287	1.35365	1.3462	72.74	-0.234	0.0181	0.252	926.8098	0.155559	-347.798646	-347.791485	-347.790541	-347.829794	28.491	
O	-0.1683419282	 1.4624253673	-0.1488049866	-0.43767
C	 0.0221795434	 0.0562745755	-0.0145297812	 0.089864
C	-1.3754597623	-0.5639988467	 0.1062826003	-0.22473
C	-1.3467995667	-2.0885719055	 0.0135677701	-0.041045
C	-1.7745376829	-2.7758828097	-1.2625784055	-0.287076
C	-0.3068123688	-2.7154948726	-0.8852116914	-0.054857
C	 0.6184842503	-1.7917595646	-1.588145787	-0.078185
C	 0.7729322008	-0.5282521361	-1.1924149717	-0.092474
H	 0.697787015	 1.8818403379	-0.156380095	 0.279472
H	 0.5882657951	-0.1540391651	 0.910150818	 0.072243
H	-1.8346165242	-0.2427186234	 1.0459382683	 0.102021
H	-1.9784646835	-0.1347626228	-0.700749006	 0.111913
H	-1.5645786202	-2.6168397339	 0.936147991	 0.082874
H	-2.2802170664	-3.7333925005	-1.1939857377	 0.107853
H	-2.1076563281	-2.1450762194	-2.0803779799	 0.115054
H	 0.1315305151	-3.6560497385	-0.5607431541	 0.088513
H	 1.1754157723	-2.1775806159	-2.4392277519	 0.08714
H	 1.4569588393	 0.1393122439	-1.7125475396	 0.07909
