14
gdb 33576	2.25919	1.66759	1.23913	3.8199	68.05	-0.2907	-0.0142	0.2765	1027.1717	0.099248	-436.640525	-436.632191	-436.631247	-436.674198	29.734	
C	 0.0972970741	-1.34086814	-0.3924023419	-0.371644
C	 0.0792236661	-0.171721371	-0.1275285207	 0.290378
C	 0.0554244517	 1.2597368527	 0.1685526	 0.142143
O	-0.3843565874	 1.4765088067	 1.4853977564	-0.250533
C	 0.2060434738	 2.7159637555	 1.8827004774	-0.12594
C	 1.5747089803	 2.663152055	 1.1981121269	-0.093589
O	 1.3496219711	 1.8287786776	 0.0534751903	-0.274769
C	-0.8538379949	 1.9687571384	-0.7927503804	 0.282426
N	-1.5546714063	 2.5430312376	-1.5090392872	-0.34065
H	 0.1146143668	-2.3783528488	-0.6228791662	 0.214827
H	-0.3965762995	 3.5608730511	 1.5259619141	 0.13188
H	 0.2498189255	 2.7296337454	 2.9721496946	 0.137509
H	 1.9269405771	 3.6426329749	 0.8646471575	 0.131448
H	 2.3356107514	 2.197260205	 1.833463559	 0.126514
