17
gdb 26280	3.56826	1.2608	1.00356	3.7615	76.88	-0.2521	-0.0499	0.2022	1176.0288	0.137463	-418.066076	-418.05803	-418.057086	-418.099289	30.068	
C	 0.0551907377	 1.4828258708	-0.3137326123	-0.389718
C	 0.0028636674	 0.0375534509	 0.2044530244	 0.075359
O	 0.5162223717	-0.0409905542	 1.5133231641	-0.445194
C	-1.4123465939	-0.5109977927	 0.132061646	 0.337492
N	-1.9946354637	-0.8074791083	 1.2967656427	-0.305327
C	-3.2414667412	-1.2827810011	 1.2483281785	 0.012369
C	-3.9103911489	-1.4658029535	 0.0471831538	-0.139669
C	-3.209215201	-1.1257448905	-1.1070584186	 0.009701
N	-1.9660765242	-0.6494321798	-1.0776290698	-0.273876
H	 1.0851414739	 1.8447421069	-0.2628482322	 0.125387
H	-0.294684531	 1.5374076778	-1.3476977763	 0.12806
H	-0.5678495222	 2.1310900263	 0.3106265214	 0.114838
H	 0.6177173953	-0.5877506719	-0.4608982541	 0.096007
H	-0.2271170818	-0.3123767919	 2.073204365	 0.287194
H	-3.7088181193	-1.5221950043	 2.2006365855	 0.126578
H	-4.9205496566	-1.8540430641	 0.0089106455	 0.117
H	-3.6607743021	-1.2414417604	-2.0901128336	 0.123799
