21
gdb 94367	2.97078	1.4131	1.26204	1.4804	81.72	-0.2298	0.0801	0.3099	1112.8522	0.182208	-387.042534	-387.034214	-387.03327	-387.075268	32.939	
C	-0.2317311662	 1.461904078	 0.0916704929	-0.388902
C	-0.022427546	-0.0469549314	-0.0170306133	-0.061412
C	 1.2168600688	-0.4614161842	-0.8698813805	-0.230861
C	 2.0228655996	-0.6705440521	 0.4436718524	-0.303363
C	 0.684800213	-0.6810492302	 1.2091929576	 0.475298
O	 0.6323577852	-0.0135407391	 2.499175763	-0.330948
C	 0.2774910111	-1.2436813655	 3.1358080572	 0.097062
C	-1.0438439293	-1.7400889023	 2.6410471726	-0.308052
C	 0.2143930498	-1.9944249671	 1.8318667982	-0.206515
H	 0.6965643554	 1.978508397	 0.357392551	 0.119237
H	-0.5818459555	 1.8692979031	-0.8627705214	 0.108066
H	-0.9694200912	 1.7030983592	 0.8620754198	 0.123481
H	-0.9646922472	-0.5346202323	-0.2879914552	 0.065719
H	 1.0591335018	-1.3922009694	-1.4200673627	 0.100615
H	 1.5979805528	 0.2922755723	-1.563006066	 0.099065
H	 2.6548312489	-1.558064445	 0.5299824268	 0.097356
H	 2.6124237194	 0.2086188429	 0.7154599274	 0.11526
H	 0.7254929497	-1.4678361409	 4.0965228371	 0.102395
H	-1.4394392195	-2.6153708127	 3.1477105787	 0.112654
H	-1.789059196	-1.0268465756	 2.2996870358	 0.11586
H	 0.5639696453	-2.9824373449	 1.5634484285	 0.097985
