22
gdb 6027	2.2857	1.7872	1.43663	2.4116	77.93	-0.2463	-0.0184	0.2279	1043.9711	0.196897	-350.228065	-350.217939	-350.216995	-350.262139	37.531	
C	 0.0267846344	 1.5144186334	-0.0489313029	-0.411297
C	-0.0569452722	-0.0208722361	-0.0145855999	 0.039851
C	 0.8892784957	-0.5718305666	 1.0635028463	-0.415676
C	-1.5157118984	-0.5445673959	 0.1134052379	 0.170527
C	-1.561470894	-2.0904613792	 0.216312504	-0.430868
C	-2.2911322647	 0.0509256254	 1.3059394433	-0.434481
C	-2.3065138725	-0.2348338388	-1.1567692718	 0.157587
O	-1.8546341783	 0.149827432	-2.2040062613	-0.263322
H	 1.0461001659	 1.8260763594	-0.2984532044	 0.111779
H	-0.6412099596	 1.9406065756	-0.80046029	 0.129396
H	-0.2159710132	 1.9557384751	 0.9239727653	 0.108573
H	 0.2965507126	-0.3814588897	-0.9881525163	 0.089293
H	 0.5707680681	-0.2844228767	 2.0721252635	 0.11171
H	 0.9699567761	-1.6615364159	 1.0343196605	 0.113085
H	 1.8956395767	-0.16661658	 0.916335906	 0.114776
H	-1.2089207513	-2.424406367	 1.1956937206	 0.12675
H	-2.5859258348	-2.460859895	 0.0954866798	 0.115352
H	-0.94115692	-2.5582481774	-0.5545392658	 0.12772
H	-2.3661452698	 1.139914697	 1.2478759765	 0.126897
H	-3.3094105235	-0.3515684405	 1.3438490983	 0.11625
H	-1.8037648339	-0.2054347695	 2.2510790952	 0.124745
H	-3.4001916032	-0.4390253694	-1.0530262448	 0.071353
