22
gdb 86669	2.34821	1.25643	1.03416	4.5106	84.22	-0.2351	0.0334	0.2685	1287.6103	0.19225	-404.375962	-404.365708	-404.364764	-404.411532	37.481	
C	-0.5877703792	 1.3882856146	-0.0416427592	-0.415118
C	 0.0775010526	 0.0206526025	-0.0721657267	-0.038162
C	 1.4308859366	-0.0952095365	-0.8338560868	-0.18614
N	 2.0223740869	-0.6627558721	 0.3717891902	-0.052658
C	 3.2665481807	-1.140583945	 0.5770022841	 0.11907
O	 4.1431816108	-1.1683005967	-0.2656884563	-0.339285
C	 0.813694955	-0.5233220031	 1.2167709841	 0.290875
C	 0.9965573758	 0.4709625876	 2.3654415599	-0.42849
C	 0.2632374071	-1.8561710528	 1.7268092029	-0.429256
H	 0.1060232878	 2.1762520052	 0.2661920583	 0.123137
H	-0.9586006456	 1.6489442672	-1.0386962763	 0.123608
H	-1.4433389221	 1.4052003053	 0.6416440259	 0.120173
H	-0.6401428217	-0.7238249584	-0.4280694613	 0.080311
H	 1.4512715873	-0.7665057146	-1.6977929816	 0.122629
H	 1.8772963254	 0.8623673892	-1.1274524544	 0.116139
H	 3.4074682608	-1.5150994585	 1.6120794056	 0.060944
H	 1.4349938766	 1.410395904	 2.0206182791	 0.124106
H	 0.0363681283	 0.6917537055	 2.8430113329	 0.121167
H	 1.6590688431	 0.0525504043	 3.1301790218	 0.121936
H	 0.9122516909	-2.2878501796	 2.4959175827	 0.12167
H	-0.727888025	-1.7108603027	 2.1705707915	 0.120653
H	 0.1727961379	-2.5791940455	 0.9112430338	 0.122692
