16
gdb 48180	5.05918	0.68101	0.63703	0.3151	72.45	-0.2341	-0.104	0.1301	1680.7624	0.120277	-437.846163	-437.836209	-437.835264	-437.882754	33.871	
O	-0.9227113201	 1.5427386481	-0.0781493874	-0.213613
C	 0.1070757808	 1.2971168083	 0.4929157253	 0.090531
C	 1.399318975	 2.0957023041	 0.2728480199	 0.279844
O	 2.3782265646	 1.8003713131	 0.9187412452	-0.277472
C	 1.37526514	 3.1976618118	-0.7796591028	-0.270389
N	 2.563393361	 4.0214404932	-0.8428802096	-0.281643
C	 2.6657644226	 4.9828304581	 0.2650939362	-0.286855
C	 3.9150053321	 5.7318339163	 0.1970397531	 0.280622
C	 4.9545493337	 6.3318691936	 0.1528423973	-0.421259
H	 0.2203692721	 0.4790583451	 1.2355418955	 0.112599
H	 1.2057413959	 2.7033034109	-1.7478359465	 0.14566
H	 0.484488051	 3.8179877863	-0.6243983982	 0.145693
H	 3.387720303	 3.4283123452	-0.8292700076	 0.234341
H	 1.8189106647	 5.6777654331	 0.1838693427	 0.135427
H	 2.5912056347	 4.5092878562	 1.2586318235	 0.126901
H	 5.8689974291	 6.8699981567	 0.1109964735	 0.199613
