20
gdb 113409	4.22147	1.01739	0.95023	2.4059	80.07	-0.2425	0.0743	0.3169	1295.2642	0.172274	-403.059173	-403.051116	-403.050172	-403.092049	31.723	
O	 0.052632776	 1.2506740008	-0.6685694815	-0.421391
C	 0.0461197867	 0.1603884666	 0.2360415261	-0.059258
C	-1.3261557584	-0.4645093936	 0.3301768203	-0.189199
N	-1.7469515337	-1.1496071844	-0.9408294617	-0.444792
C	-1.5567419113	-1.9130375217	 0.2774293914	 0.478283
C	-0.7017451013	-3.1774014197	 0.4869521861	-0.122477
C	-1.2752866009	-3.1965284275	 1.9377631077	-0.214387
C	-2.4980131197	-2.8723258276	 1.0248241908	-0.148488
C	-1.9692399187	-3.9823962119	 0.059832782	-0.223026
H	-0.3013910753	 0.9002600046	-1.4952217398	 0.290045
H	 0.7761246355	-0.6088764889	-0.0583956913	 0.087423
H	 0.3539445905	 0.5594680508	 1.2085437911	 0.105845
H	-2.0811758566	 0.1516410449	 0.8163994092	 0.090664
H	-2.7360927452	-0.9846064898	-1.1139715922	 0.231416
H	 0.3281462086	-3.3486347252	 0.1755787564	 0.080953
H	-1.294810797	-4.1721585696	 2.4294165317	 0.094181
H	-0.940913429	-2.4067259487	 2.6147959311	 0.095706
H	-3.5287240642	-2.6902270265	 1.3333366943	 0.07331
H	-2.2646599754	-3.908069958	-0.9887776243	 0.102986
H	-2.0334600203	-5.0090575947	 0.4296413528	 0.092206
