20
gdb 39127	3.35151	1.38639	1.2369	2.8476	77.48	-0.2374	0.0677	0.305	1078.4462	0.173036	-403.108428	-403.100838	-403.099894	-403.140827	29.93	
C	-0.0107785594	 1.4406645634	-0.0344294648	-0.258726
C	 1.2729417929	 0.6969631125	 0.0034205204	-0.010274
C	 1.9834971458	 0.5706171841	 1.3425809278	-0.230476
C	 0.8517027922	 0.175629365	 2.3129711383	-0.320491
C	-0.1686023645	-0.552759304	 1.4125640928	 0.295004
C	-0.1730865475	-2.1008115337	 1.465848173	-0.110458
O	-1.4850341964	-2.1203234632	 2.0631068797	-0.273171
C	-1.6188139775	-0.6926235529	 1.9217482483	-0.118395
N	-0.0141939216	-0.0319878965	 0.0455516106	-0.129637
H	-0.3065047421	 2.0187994296	 0.8374950343	 0.112226
H	-0.3780495243	 1.8352971098	-0.9768885631	 0.118943
H	 1.8557042604	 0.5887309098	-0.9066349207	 0.092014
H	 2.7367640984	-0.2225579018	 1.2781822242	 0.11
H	 2.5012431312	 1.4864866145	 1.6432735408	 0.107997
H	 1.1959246686	-0.448547283	 3.140688357	 0.111637
H	 0.3942269447	 1.0642569458	 2.7601084183	 0.107658
H	-0.1605053024	-2.5686439993	 0.4745666459	 0.105386
H	 0.5786160368	-2.5735644139	 2.1105985368	 0.092055
H	-1.8472948382	-0.2037967786	 2.877460524	 0.09407
H	-2.377977997	-0.4175106476	 1.1789484165	 0.104636
