21
gdb 106772	2.04746	1.50469	1.08833	1.8589	79.02	-0.2447	0.0724	0.317	1215.1784	0.180645	-424.196966	-424.187237	-424.186293	-424.231484	36.912	
C	 0.1061070627	 1.4542969095	-0.320797321	-0.376929
C	 0.0224786831	 0.0046971556	 0.1761699466	-0.289144
C	-1.379402709	-0.5392689859	 0.176722501	 0.260799
C	-2.0895654996	-1.0134991536	-1.0805246591	-0.395706
C	-1.9240124313	-1.96083094	 0.0734899689	 0.330246
O	-1.1940015503	-3.1341247435	-0.0200027782	-0.469763
C	-2.9857108586	-1.67933792	 1.1425500687	-0.334052
C	-2.4609525942	-0.2049638863	 1.2271136057	 0.112781
O	-1.9804562255	 0.1982756233	 2.4897673203	-0.438088
H	 1.1389377596	 1.8161326887	-0.30700272	 0.109411
H	-0.2700764829	 1.5417365433	-1.34534119	 0.114513
H	-0.4899706544	 2.1173737004	 0.3140450797	 0.128399
H	 0.6547574846	-0.6442107602	-0.4416139825	 0.104642
H	 0.4312623188	-0.0481658675	 1.1931659185	 0.089708
H	-3.068194263	-0.6246385342	-1.3585723779	 0.099956
H	-1.4232400086	-1.2029503634	-1.9175196064	 0.111723
H	-1.628505154	-3.715666254	-0.6534965153	 0.285216
H	-4.0348535695	-1.840819937	 0.8704703319	 0.090415
H	-2.7763572717	-2.2031390463	 2.0798811593	 0.102006
H	-3.1769790644	 0.5675252291	 0.9289026698	 0.083617
H	-1.3715746817	-0.4776620879	 2.8080624101	 0.280251
