23
gdb 92201	2.89464	1.59407	1.32457	0.2414	87.4	-0.2624	0.075	0.3373	1082.9973	0.208984	-351.149689	-351.142064	-351.14112	-351.181451	31.894	
C	-0.3024296008	 1.5519832868	-0.0013687552	-0.406444
C	 0.0234826889	 0.0581560257	 0.0020440725	 0.045808
C	 0.8507638079	-0.4225149623	-1.2188590563	-0.244141
C	 1.6815741139	-1.6408013528	-0.7431366303	-0.012403
C	 3.1899239825	-1.3574341938	-0.4526249013	-0.234209
C	 2.8843050788	-1.2316201976	 1.0554636214	-0.012629
C	 2.2443322401	 0.1228668167	 1.4763039698	-0.251445
C	 0.8066560583	-0.4486786387	 1.2211951252	-0.013989
C	 1.4441161149	-1.7961909531	 0.8009283027	-0.048003
H	 0.6101843443	 2.1583816912	 0.0178165589	 0.114157
H	-0.8644771843	 1.8329503987	-0.8985823475	 0.110646
H	-0.9065770263	 1.830806813	 0.8688527565	 0.108488
H	-0.9265193481	-0.4963330667	-0.0013563161	 0.066272
H	 0.199308966	-0.6707629273	-2.0624882321	 0.091895
H	 1.5131855367	 0.3785206768	-1.5689745092	 0.091473
H	 1.5028991655	-2.5281626102	-1.3528009599	 0.062748
H	 3.8116219051	-2.2329356961	-0.66239565	 0.093649
H	 3.6375600477	-0.4898771216	-0.9511475776	 0.085023
H	 3.5982574633	-1.6675732718	 1.7555518019	 0.056708
H	 2.4146083461	 0.3652883733	 2.5279759919	 0.09783
H	 2.5421341428	 0.9920212262	 0.8809205677	 0.090096
H	 0.1932561777	-0.4646337579	 2.1258643831	 0.057141
H	 1.0671053991	-2.7424539186	 1.188592834	 0.051329
