23
gdb 59766	2.54057	1.24874	0.96284	2.1114	81.16	-0.2393	0.0686	0.3079	1312.919	0.205461	-425.433382	-425.423451	-425.422507	-425.46811	37.216	
C	-0.1648044503	 1.6690862986	-0.177331161	-0.414485
C	-0.1638723679	 0.1433631984	-0.0625534949	 0.101541
O	-1.4651534885	-0.3878733061	-0.3127471102	-0.439502
C	 0.7718466243	-0.5182697992	-1.0712019857	 0.01241
C	 2.2635095244	-0.159225493	-0.8752142581	-0.087538
O	 3.0239377626	-1.322862845	-1.1902255611	-0.264073
C	 2.1533074869	-2.3048577023	-1.7439582866	-0.082643
C	 0.7928419356	-2.0702634079	-1.0777097667	-0.014575
C	 0.7162956356	-2.7157812426	 0.3108490738	-0.40069
H	 0.8262415015	 2.087130005	 0.0263631789	 0.12517
H	-0.4749330017	 1.9768447585	-1.1811061158	 0.125145
H	-0.8605513925	 2.1111758076	 0.5455822484	 0.10459
H	 0.1633633374	-0.1325596816	 0.9532855578	 0.068241
H	-2.0840101908	 0.0506216317	 0.2798940664	 0.280458
H	 0.454298073	-0.1892968569	-2.0685026934	 0.078442
H	 2.5692809598	 0.6763742575	-1.5190589368	 0.094836
H	 2.4844345513	 0.1245338324	 0.1634064889	 0.094412
H	 2.0815332381	-2.1887671803	-2.8382001702	 0.08095
H	 2.5828673458	-3.2891674647	-1.532421906	 0.100951
H	-0.022207135	-2.4539659001	-1.6969765314	 0.081806
H	 1.5327494081	-2.376915566	 0.9570615489	 0.121167
H	-0.2349261193	-2.4851695138	 0.7964699696	 0.125918
H	 0.7946870314	-3.8046806399	 0.2267372152	 0.107472
