13
gdb 33557	2.22012	1.67552	1.22575	4.0668	68.48	-0.286	-0.016	0.27	1012.2457	0.088685	-415.579868	-415.571889	-415.570945	-415.613175	28.498	
C	 0.0961144008	-1.1414817409	 0.0586823649	-0.425593
C	 0.0428089003	 0.0557651429	 0.0007816442	 0.331236
C	-0.0324009666	 1.516660227	-0.0228730983	-0.072285
C	-0.6184058883	 2.1056660089	 1.3191671593	-0.146833
O	 0.4367129082	 2.9536892943	 1.8105570189	-0.206307
C	 1.4415336286	 2.8551510892	 0.9195249952	 0.136797
N	 1.3280011535	 2.1228548001	-0.111124047	-0.267503
C	-0.8327755568	 1.9591622589	-1.1828997139	 0.294105
N	-1.4830294589	 2.3270590475	-2.0632834269	-0.332882
H	 0.1492728069	-2.2023087044	 0.0928649618	 0.215985
H	-1.5117366985	 2.7105719603	 1.1594404912	 0.156829
H	-0.813742098	 1.322314771	 2.0519291646	 0.151299
H	 2.3204940988	 3.4407443753	 1.1641286961	 0.165152
