18
gdb 91179	2.27992	1.76027	1.5489	1.2391	70.5	-0.2532	0.0105	0.2638	971.114	0.148151	-439.092329	-439.084364	-439.083419	-439.124653	30.981	
C	-0.3943562949	 1.3493175807	-0.1179861871	-0.473353
C	 0.0892946794	-0.0779834758	-0.0359703831	 0.352328
O	-1.0488240874	-0.9849979946	-0.1728674236	-0.278054
C	-1.0514190104	-1.7530737545	 0.9559536963	 0.094059
N	-0.1084314549	-1.6508367642	 1.7943804789	-0.249288
C	 0.8153180766	-0.6645911824	 1.2183412743	-0.055522
C	 1.9065430885	-1.2825557895	 0.2950180864	-0.271219
C	 1.267544575	-0.5565842306	-0.9355997525	 0.101871
O	 0.9404943601	-1.2947343991	-2.0778593678	-0.434796
H	 0.4436849419	 2.0393378892	 0.0209775035	 0.123969
H	-0.8441081773	 1.5505191097	-1.0954654268	 0.137688
H	-1.1408797699	 1.5539210704	 0.6557591058	 0.129821
H	-1.9044749118	-2.4177311909	 1.0371655158	 0.143471
H	 1.1674580325	 0.0379870567	 1.9753015719	 0.082656
H	 2.9398985386	-1.0078834698	 0.5164255641	 0.107418
H	 1.8322111026	-2.370865827	 0.2383504916	 0.111736
H	 1.8775629654	 0.289239592	-1.2681949105	 0.089937
H	 0.1407199561	-1.7928060803	-1.8671204571	 0.287281
