19
gdb 83139	2.0108	1.76347	1.41314	2.1214	75.65	-0.2402	-0.0215	0.2187	1050.7051	0.157826	-423.038238	-423.029226	-423.028282	-423.071858	33.231	
C	 0.071318603	 1.5448280863	-0.0965739098	-0.423448
C	 0.1106523278	 0.0369590829	 0.0163501345	-0.080592
C	 1.3500727097	-0.7755541818	-0.1820040522	 0.041541
O	 2.575941033	-0.0749079721	-0.1846227891	-0.263077
C	 2.8857083698	 0.3742621173	 1.1259710896	-0.189441
C	 1.7195128036	-0.0228176819	 2.0366126181	 0.321465
O	 1.6766741575	 0.1426698752	 3.2303308853	-0.321512
C	 0.7205271613	-0.7545975992	 1.1945384452	 0.145081
C	-0.0581631519	-1.8666704707	 1.8540652354	-0.477865
H	 1.0433596726	 2.0022724014	 0.0969703013	 0.133711
H	-0.2234713722	 1.8339398257	-1.1108483856	 0.126854
H	-0.6550068379	 1.9766855749	 0.5990738761	 0.128708
H	-0.7959632246	-0.4526181491	-0.3346446499	 0.096239
H	 1.3677836772	-1.6564339111	-0.8157998705	 0.106495
H	 3.8035258969	-0.1091526581	 1.487560681	 0.135682
H	 3.0481118479	 1.4589069782	 1.1419953146	 0.133791
H	-0.6665052083	-1.4684254494	 2.6719164398	 0.141718
H	-0.7235583078	-2.3597422548	 1.1396893614	 0.11651
H	 0.6093383624	-2.6239861136	 2.2778140649	 0.128141
