21
gdb 77701	2.91218	1.34705	1.10115	1.5471	83.36	-0.2133	0.0787	0.292	1196.9107	0.18078	-387.045546	-387.03668	-387.035736	-387.079025	34.75	
C	-0.3076475086	 1.3762423844	-0.0463375787	-0.404837
C	-0.0968609067	-0.1306877371	-0.0159770351	-0.224677
C	 1.0729620087	-0.7067341295	-0.8200468728	 0.462276
C	 1.101062997	-1.4187272233	-2.1283693771	-0.337902
C	 1.8674800634	-0.1135613967	-1.9356042714	-0.33522
O	 1.7093594895	-1.2515988928	 0.3412537127	-0.333229
C	 0.6689657242	-0.7231266203	 1.1711914462	 0.462276
C	 0.9640216575	-0.1502216596	 2.5174092767	-0.33522
C	 0.1872676877	-1.4558066975	 2.3755912897	-0.337902
H	 0.6276118202	 1.9093411861	 0.1478020379	 0.126415
H	-0.6878372155	 1.6992236245	-1.0214943932	 0.115513
H	-1.0388363828	 1.6849819566	 0.708536324	 0.115513
H	-1.0379028193	-0.6551703646	-0.2112195883	 0.082957
H	 1.6804781171	-2.3344193184	-2.1786922135	 0.123512
H	 0.2078938188	-1.4107435319	-2.7454828951	 0.111754
H	 1.4991733842	 0.7829783172	-2.424082159	 0.112865
H	 2.9474537311	-0.1770803938	-1.8564994161	 0.123887
H	 1.9896372562	-0.2159457062	 2.8644371399	 0.123887
H	 0.4315960946	 0.7396581994	 2.837847815	 0.112865
H	-0.8758004035	-1.4547163657	 2.595884314	 0.111754
H	 0.7041971062	-2.3740345207	 2.6332497242	 0.123512
