18
gdb 128303	3.43745	1.04724	0.83885	5.2789	76.38	-0.1908	0.0437	0.2345	1386.5386	0.149185	-431.451762	-431.442296	-431.441351	-431.487212	33.141	
C	 0.1271568166	 1.29237471	 0.2411243689	-0.334247
N	-0.0304155355	-0.0183387549	-0.3889917771	-0.385635
C	-1.2136566093	-0.707844285	-0.1768707587	 0.431587
N	-1.3257636708	-1.9542832017	 0.1857235541	-0.301514
N	-2.6912011056	-2.2628478897	 0.1935245953	-0.301301
C	-3.3323564498	-1.1867120518	-0.1647862664	 0.431179
N	-4.6993880917	-1.07333481	-0.3625352104	-0.385661
C	-5.398735414	 0.0411205379	 0.2770562034	-0.334223
N	-2.4544682772	-0.1499434728	-0.3967247588	-0.359175
H	 1.1211331994	 1.6771787314	 0.0022779888	 0.135778
H	-0.6000862337	 1.9991583475	-0.1708024999	 0.120925
H	 0.0070915686	 1.2752691561	 1.3344429434	 0.124441
H	 0.7396098597	-0.6422583104	-0.180717088	 0.253663
H	-5.1235516919	-1.9680852947	-0.150051958	 0.253617
H	-6.4639187696	-0.037967563	 0.0484628626	 0.13571
H	-5.2721811747	 0.0747132904	 1.3692521254	 0.124459
H	-5.0496618258	 0.9927045293	-0.1361054947	 0.120919
H	-2.6546227346	 0.7237500915	-0.85185573	 0.269477
