16
gdb 66280	2.05224	1.7076	1.42476	5.7794	70.3	-0.253	-0.0014	0.2516	1002.6787	0.125555	-434.094223	-434.085883	-434.084939	-434.127063	31.303	
O	 0.3142835157	 1.4100673228	 0.3328557148	-0.457669
C	 0.0135583577	 0.0859454986	 0.0113098346	 0.224997
C	-1.4856950037	-0.1688799292	-0.2464768167	-0.256158
C	-1.4768215401	-1.3616363354	-1.222479569	-0.185865
N	-0.2270713386	-1.1586861925	-1.9516781617	-0.3265
C	 0.6503615298	-0.3217385188	-1.3327050141	 0.3561
N	 1.7762049111	 0.1758995679	-1.6509638704	-0.572838
C	 0.5101880592	-0.8424819617	 1.0603778179	 0.25624
N	 0.8698925776	-1.5760250867	 1.877896498	-0.340617
H	 1.1699358525	 1.5817780108	-0.0981936428	 0.300558
H	-2.0556636572	-0.3627984401	 0.6618732325	 0.136165
H	-1.8792893241	 0.7267971437	-0.7338802607	 0.134589
H	-1.4815137244	-2.3191558636	-0.6856792952	 0.133225
H	-2.3346608044	-1.3458683817	-1.9004480745	 0.12505
H	 0.0099173428	-1.6759676387	-2.7817190506	 0.254647
H	 2.113670176	-0.1137703656	-2.5673515419	 0.218076
