17
gdb 47455	3.38357	1.1186	0.89798	6.2775	73.6	-0.2711	0.0125	0.2836	1258.9265	0.137635	-418.045229	-418.036955	-418.036011	-418.078867	30.122	
N	 0.2329133026	 1.1449007725	 0.5389195433	-0.526392
C	 0.131342442	-0.0246942379	 0.0814174816	 0.419941
O	 1.1422723209	-0.7395719687	-0.494267418	-0.238184
C	 0.6983310379	-2.0716275692	-0.8115820224	-0.092282
C	-0.5518210952	-2.2939479215	 0.0467414723	-0.26126
C	-1.1295364716	-0.8715924176	 0.1131827674	-0.080704
C	-2.0379286072	-0.5875573293	 1.3214778547	-0.355972
C	-2.8535822007	 0.616121957	 1.1688269256	 0.284012
N	-3.5440854798	 1.5331017584	 1.0407898302	-0.309458
H	 1.1764397938	 1.5134982502	 0.4122159935	 0.229367
H	 0.4711854915	-2.125379625	-1.8834065198	 0.120104
H	 1.5177268318	-2.7590835356	-0.591776857	 0.128318
H	-1.2376686988	-3.0254607648	-0.3852607828	 0.121237
H	-0.2689380165	-2.6365588357	 1.0485371983	 0.12108
H	-1.6897895391	-0.6706048385	-0.8086981302	 0.127654
H	-2.720324277	-1.4322407429	 1.4711322257	 0.149934
H	-1.4308518648	-0.4918203513	 2.2273124276	 0.162605
