16
gdb 14340	4.61977	1.83005	1.553	1.4461	65.04	-0.2184	0.0577	0.2761	839.6016	0.133315	-379.937441	-379.930768	-379.929824	-379.968323	26.109	
N	-0.0544571888	 1.3778995165	 0.0097014552	-0.573126
C	-0.0930823972	 0.0107003819	-0.0169370219	 0.458331
N	-1.1181089692	-0.7280089015	 0.1682170777	-0.347933
C	-0.6729069385	-2.1029527592	-0.038449256	-0.004611
C	-0.9902298542	-2.7006357264	-1.440446772	-0.221597
C	 0.4817806914	-2.4269938631	-1.8850887606	-0.244518
C	 0.8290746722	-1.9671166994	-0.4483880408	 0.085505
O	 1.1117127872	-0.5623436015	-0.3161840185	-0.261782
H	 0.8455313497	 1.7773428763	 0.2266559061	 0.262242
H	-0.8341726573	 1.8001825867	 0.4891135676	 0.267581
H	-0.9344344809	-2.7320999204	 0.8174139417	 0.070824
H	-1.2479435302	-3.7627129859	-1.4150214353	 0.098279
H	-1.7655960421	-2.1615640073	-1.9875798254	 0.110226
H	 1.038273667	-3.2997332832	-2.2347530444	 0.103314
H	 0.5996754092	-1.6250647248	-2.6173003101	 0.114343
H	 1.6042771618	-2.5222440686	 0.0814837868	 0.082921
