21
gdb 101115	3.38528	1.03315	0.90487	1.5366	78.21	-0.2467	0.0684	0.315	1354.1074	0.180996	-424.188076	-424.178511	-424.177567	-424.222733	35.596	
C	 0.1511058794	 1.4537213836	 0.2317409187	-0.416758
C	-0.0176933195	-0.0630007425	 0.0887808201	-0.120498
C	-1.4987257734	-0.4654535739	-0.0681030945	-0.07282
O	-2.2913564509	-0.1284923856	 1.0589373617	-0.424221
C	 0.7716614021	-0.6153442511	-1.0656124972	 0.446747
C	 1.107443442	-2.0898047692	-1.3763934411	-0.298557
C	 2.3909710439	-1.5932950741	-2.1295726515	-0.239312
C	 1.9737202319	-0.1573021355	-1.7906996484	-0.057247
O	 0.6646832339	 0.04091132	-2.3444425596	-0.295119
H	 1.19633784	 1.7192495901	 0.4153421113	 0.117934
H	-0.172108835	 1.965935795	-0.6792707947	 0.133691
H	-0.4316102347	 1.8288051229	 1.0784054225	 0.106507
H	 0.3483231632	-0.5493988798	 1.0032269227	 0.084501
H	-1.9000003278	-0.0229835601	-0.9923080941	 0.10491
H	-1.5739382147	-1.5532979605	-0.1686389096	 0.111821
H	-2.4442579217	 0.8204936029	 1.0424871977	 0.285431
H	 1.3447324066	-2.6758565557	-0.4848787002	 0.106825
H	 0.3610566402	-2.6185927871	-1.9734880169	 0.109531
H	 3.3140682232	-1.9041070174	-1.6345671716	 0.105548
H	 2.4558381837	-1.8154573086	-3.1972228718	 0.111685
H	 2.5906084777	 0.7257812665	-1.6657685736	 0.099402
