17
gdb 52888	2.03593	1.21247	0.85907	1.5934	85.79	-0.2318	0.0264	0.2581	1387.5655	0.131609	-384.612318	-384.602049	-384.601104	-384.648225	36.524	
C	-0.1488118129	 1.41704738	 0.0617439072	-0.504239
C	-0.0746468111	-0.0371544508	 0.0420990256	 0.111157
C	 0.0348684389	-1.2386375051	 0.0320467997	-0.046163
C	 0.0743151192	-2.677432094	 0.0021319346	-0.061086
C	-0.4548048988	-3.4234701556	 1.2514748943	-0.339368
C	-1.3138009888	-3.3646133049	 0.0342554907	 0.116262
O	-2.4607423884	-2.5927081832	-0.0098117877	-0.421986
C	 1.1239155345	-3.2948173774	-0.7624217859	 0.246964
C	 1.9907073462	-3.8366537133	-1.3956749818	-0.435144
H	 0.8531527211	 1.8560260184	 0.1186928273	 0.158078
H	-0.6330618264	 1.8077265942	-0.83972572	 0.153354
H	-0.7160733292	 1.774195893	 0.9280830829	 0.152484
H	 0.0443570067	-4.3531396955	 1.4986406969	 0.133667
H	-0.730408873	-2.7956992911	 2.0907819964	 0.131697
H	-1.3986064083	-4.2606124508	-0.5721225969	 0.123693
H	-2.193273618	-1.6620395286	-0.0115723437	 0.287246
H	 2.759499728	-4.3037192355	-1.9594855294	 0.193384
