18
gdb 117522	2.41946	1.14935	0.81179	0.9095	73.47	-0.2342	0.0102	0.2443	1388.5052	0.147034	-435.300719	-435.290486	-435.289542	-435.33724	35.701	
C	-0.6639341934	 0.8037517747	 0.0492589759	-0.332677
N	 0.7127261425	 0.3194369025	-0.0122448218	-0.284707
C	 1.0625931999	-0.4198226683	-1.2131622686	-0.176542
C	 0.8565743575	-1.9519626541	-1.050530669	-0.254628
C	-0.5468711357	-2.3518956492	-1.0142339356	 0.298967
N	-1.6471345176	-2.7103490594	-1.0318506804	-0.349766
C	 1.6709036917	-2.7104564786	-2.1369711033	 0.438598
N	 1.044358414	-3.7400468199	-2.7525787857	-0.540313
O	 2.8151021804	-2.37782197	-2.3691071749	-0.360768
H	-0.9611495234	 1.4094362264	-0.8246871118	 0.099873
H	-1.358867504	-0.037041561	 0.1213717607	 0.151529
H	-0.7895359802	 1.4132640581	 0.9484994492	 0.121848
H	 1.3491887094	 1.0993454998	 0.0914169955	 0.227369
H	 0.5148945553	-0.0797626617	-2.1081539525	 0.099423
H	 2.1292415563	-0.3054090612	-1.4149367508	 0.14226
H	 1.3089438836	-2.2244234776	-0.0896572372	 0.163803
H	 0.082094711	-3.9723886149	-2.5720865687	 0.28601
H	 1.5543225027	-4.2517438254	-3.4539479209	 0.269721
