16
gdb 68772	2.53652	1.77045	1.2829	1.0653	66.25	-0.2497	0.0107	0.2604	981.3363	0.123541	-475.016221	-475.007941	-475.006996	-475.048732	31.523	
O	 0.0596332302	 1.3408200306	 0.0873783053	-0.470141
C	 0.0532075006	-0.0433755312	 0.0500113917	 0.313949
C	-0.294314059	-0.8596750052	 1.2712163986	-0.388034
C	-1.2226218116	-0.8504227228	 0.0715289284	 0.267056
O	-2.4683644109	-0.2554731961	 0.155979999	-0.475572
C	-1.0352124578	-1.9174019676	-0.9400470161	 0.368155
N	-1.9897703261	-2.6159752958	-1.3841207731	-0.576388
O	 0.2665941813	-1.9625200422	-1.3334277066	-0.247814
C	 0.9517146529	-0.7382991418	-0.9607992344	-0.145297
H	-0.821649809	 1.6409063922	-0.1706827412	 0.301016
H	 0.2755647323	-1.7502438536	 1.5191433369	 0.124592
H	-0.6698495934	-0.2856142952	 2.1109781981	 0.137577
H	-3.060340234	-0.8277662146	-0.3551939352	 0.305233
H	-1.6949013829	-3.233387958	-2.1401504783	 0.232573
H	 1.0767699301	-0.1127930954	-1.8511301894	 0.125746
H	 1.9339173173	-1.0204449831	-0.5723270637	 0.12735
