12
gdb 42352	7.77805	0.59363	0.5534	6.5845	85.87	-0.284	-0.1005	0.1835	1817.9565	0.074261	-398.314558	-398.305448	-398.304504	-398.349805	30.885	
O	-0.0409806856	-0.1487354605	 0.0019835417	-0.242216
C	-0.0549993366	 1.0581761065	 0.0059151837	 0.137904
C	 1.2210212277	 1.9160966442	-0.0004805624	-0.440772
C	 2.4469824454	 1.1280394208	-0.0137189728	 0.270428
N	 3.4332859727	 0.5286574943	-0.0242908887	-0.288211
C	-1.2758824852	 1.8290530394	 0.0168822634	 0.346988
C	-2.3041263048	 2.4728120184	 0.0259589407	-0.128721
C	-3.4545697058	 3.1920081629	 0.0363530709	 0.289096
C	-4.4781083335	 3.832626313	 0.0448274073	-0.530627
H	 1.1922419832	 2.5802831894	-0.8728922034	 0.186076
H	 1.206036481	 2.5721315137	 0.8784582241	 0.186133
H	-5.3801901285	 4.3947229379	 0.0529503855	 0.213922
