13
gdb 23659	3.85207	1.81724	1.23601	3.4371	64.34	-0.2188	-0.0196	0.1992	885.1596	0.097218	-402.802117	-402.795701	-402.794756	-402.832486	25.01	
N	-0.0103895047	 1.4057242084	 0.1567166788	-0.591179
C	 0.0210547536	 0.0208093566	 0.0523980296	 0.304703
C	-1.1670282994	-0.7317377439	 0.0283546792	-0.054354
N	-1.203042737	-2.0585368515	-0.0130187239	-0.247131
C	-0.0518462397	-2.7326450324	-0.034962895	-0.126595
C	 1.1672416603	-2.0676220685	-0.0171526556	 0.264648
F	 2.3029434004	-2.7705297051	-0.04495856	-0.078009
C	 1.227440123	-0.6862130417	 0.0259064095	-0.296474
H	 0.8032614796	 1.8897193979	-0.1924161742	 0.253074
H	-0.8692810424	 1.8402160109	-0.1468522055	 0.254737
H	-2.1263584458	-0.2173252653	 0.0459589787	 0.09478
H	-0.0881447839	-3.8167219028	-0.06962115	 0.115255
H	 2.1881417061	-0.1833530726	 0.0424622887	 0.106544
