17
gdb 102044	2.46706	1.11281	0.80854	2.0918	66.53	-0.2548	-0.0262	0.2286	1383.5942	0.132172	-496.127518	-496.117063	-496.116119	-496.165712	34.536	
C	-0.2414984324	 1.345340118	 0.1730359459	-0.246062
O	-0.228451059	-0.0818797336	 0.3403303844	-0.225877
C	 0.8354326548	-0.5835044286	 0.9907884074	 0.453139
O	 1.7345667366	 0.0850310593	 1.4319081309	-0.361109
C	 0.7582639316	-2.1034793411	 1.0920485568	-0.265135
C	 1.2617107261	-2.5552156421	 2.4805819739	-0.073172
O	 1.2009083762	-3.9571931192	 2.6386560582	-0.410855
C	-0.640051079	-2.6435565064	 0.8288919472	 0.186808
O	-0.9196471129	-3.3726118086	-0.0837392067	-0.247881
H	 0.6263690936	 1.6681809834	-0.4064723247	 0.148092
H	-1.1647022959	 1.5700964766	-0.3597384712	 0.143829
H	-0.2244704683	 1.843622162	 1.1450078254	 0.146876
H	 1.4158642301	-2.5118341397	 0.313563163	 0.124349
H	 2.2669553615	-2.1471994493	 2.6397120747	 0.127488
H	 0.6137323739	-2.1390383331	 3.2597542882	 0.124704
H	 1.807884388	-4.3630040852	 2.0108059229	 0.290941
H	-1.3998586049	-2.3254481323	 1.5766475538	 0.083866
