18
gdb 62169	2.26734	1.00196	0.79211	6.2256	72.19	-0.2718	0.0083	0.2802	1462.3123	0.144851	-476.239704	-476.229656	-476.228712	-476.276177	34.137	
C	-0.0501990774	 1.6618245401	 0.0696090879	-0.393779
C	-0.0916044245	 0.1371442064	 0.0963312498	 0.106106
C	-1.4834660021	-0.4280995672	 0.3693801456	-0.102283
O	-2.4551047957	 0.1012405636	-0.5300694411	-0.184117
C	-2.7306370111	-0.6088328193	-1.6511430331	 0.183292
O	-3.4925334662	-0.2134238277	-2.4780938851	-0.270214
O	 0.3107505244	-0.4068660877	-1.1682547202	-0.200443
C	 1.6335034116	-0.549881683	-1.3921259075	 0.128341
N	 2.042862684	-0.9496678397	-2.5151954276	-0.43467
H	 0.9635831968	 2.0146566614	-0.1384435419	 0.124649
H	-0.7203007901	 2.0436790157	-0.7030377757	 0.160912
H	-0.3621463354	 2.0689423455	 1.0364960572	 0.124766
H	 0.5741392834	-0.2486501785	 0.882886112	 0.088443
H	-1.4528008477	-1.5219855899	 0.3026886532	 0.124114
H	-1.8083885326	-0.1471873515	 1.3746534323	 0.128706
H	-2.1911062316	-1.5715937177	-1.6932557093	 0.095587
H	 2.2531049716	-0.304018516	-0.5180228239	 0.087733
H	 3.0578266127	-1.0243549046	-2.5115112126	 0.232857
