16
gdb 126872	4.04991	1.06032	0.93305	3.9087	79.48	-0.2338	-0.0688	0.165	1272.612	0.124913	-430.212093	-430.203913	-430.202969	-430.246026	29.632	
C	-0.2213095043	 1.520254783	 0.1799224039	-0.361159
C	 0.0586467863	 0.0177260731	 0.0660398755	-0.141921
N	 0.7110461371	-0.4588732028	 1.2749557704	-0.266622
C	 0.1625754618	-1.3189578338	 2.0241159603	 0.399364
N	 0.8184672385	-1.7841315644	 3.1749664873	-0.259996
C	 0.0462123787	-2.2367786528	 4.0867870344	 0.097273
N	-1.3175747139	-2.3037943315	 3.927651526	-0.242817
N	-1.8306748255	-2.3676300991	 2.6361208223	-0.043069
N	-1.1180345051	-1.9196123189	 1.7175833756	-0.191612
H	 0.6951244749	 2.0656550013	 0.4214539426	 0.128252
H	-0.6218723346	 1.9049972633	-0.763040964	 0.111134
H	-0.9530746785	 1.7207526905	 0.9689726311	 0.114636
H	-0.8634107674	-0.5229717998	-0.1745027382	 0.118165
H	 0.7661994403	-0.1466535649	-0.7567649263	 0.109796
H	 0.4429529122	-2.6209921657	 5.0256918786	 0.147318
H	-1.8932909207	-2.8084434776	 4.5852738405	 0.281259
