15
gdb 12257	3.47312	1.54307	1.20878	2.7163	58.	-0.2506	0.0185	0.2691	972.1512	0.117956	-436.940304	-436.931896	-436.930951	-436.973552	29.515	
O	-0.0924404021	 1.3512430704	-0.3390492199	-0.431967
C	 0.018515837	-0.004812674	 0.073257368	-0.071989
C	-1.3936554841	-0.5552278581	 0.1237810864	 0.019944
N	-2.0603313579	-0.6321100685	-1.1874889703	-0.323296
C	-2.0493702467	-1.9983580165	-1.2702150468	 0.389739
O	-2.2857495995	-2.7929882264	-2.1428607266	-0.369496
C	-1.5233532384	-2.1116784677	 0.1856296311	-0.035879
O	-0.3240621817	-2.8279662503	 0.3383205734	-0.430515
H	 0.7941206449	 1.7111753145	-0.4334693014	 0.292722
H	 0.6192220863	-0.597462961	-0.6288199739	 0.099302
H	 0.4780708497	-0.0956488809	 1.0689404643	 0.101961
H	-1.9826310423	-0.0099838125	 0.8678258663	 0.094143
H	-2.1780500648	 0.0802059874	-1.8938339659	 0.260167
H	-2.2874467019	-2.4454955152	 0.8992008738	 0.101343
H	-0.3412527684	-3.5465213411	-0.3049536085	 0.303821
