21
gdb 70836	2.27977	1.92189	1.37677	1.825	81.96	-0.2182	0.0804	0.2987	1047.0009	0.182232	-387.060692	-387.052307	-387.051362	-387.093012	33.367	
C	 0.0799090286	 1.4477958209	-0.1585042798	-0.523816
C	-0.005508995	-0.0372480631	 0.0090236652	 0.425095
O	 0.5869773167	-0.8949805862	-1.0347706182	-0.38818
C	 0.0337123075	-1.8350755364	-0.0416080496	 0.425095
C	 0.1835407802	-3.3032083777	-0.2923161555	-0.523816
C	 0.5747215737	-0.9561778423	 1.128753086	-0.109381
C	-0.3943503737	-1.0104200374	 2.3045578994	-0.250567
C	-1.7570021153	-1.0185795993	 1.5377637652	-0.250567
C	-1.2553841304	-0.9671025174	 0.0989129614	-0.109382
H	 1.1246816911	 1.7700812298	-0.2086636876	 0.131569
H	-0.4224882884	 1.7608927529	-1.0791023207	 0.131566
H	-0.3977332594	 1.9568299554	 0.6851119207	 0.123054
H	 1.2412996103	-3.5763977458	-0.3590055622	 0.131566
H	-0.2706611984	-3.8792257553	 0.5206110288	 0.123054
H	-0.3056628923	-3.5855436404	-1.2298129801	 0.13157
H	 1.6515176978	-0.9375327248	 1.3007751179	 0.066605
H	-0.2531981261	-1.9058712446	 2.9182021547	 0.099982
H	-0.2916163772	-0.1455630451	 2.967722273	 0.099982
H	-2.3465950412	-1.9184333544	 1.7401555213	 0.099982
H	-2.3850510523	-0.1581281738	 1.7897444766	 0.099982
H	-1.9614073765	-0.9590946551	-0.7322885965	 0.066605
