17
gdb 45706	3.06128	1.58308	1.09835	3.4237	74.12	-0.2262	-0.0208	0.2054	1066.0285	0.138877	-418.046918	-418.039575	-418.03863	-418.078877	28.338	
O	-0.1941865544	-0.0119566421	-0.0012462337	-0.29877
C	-0.0804174766	 1.1826215392	 0.0038599311	 0.355967
C	-1.2144227245	 2.240675124	-0.0462035429	-0.269009
N	-0.6611158957	 3.4698473677	 0.5376358335	-0.34031
C	 0.6057887113	 3.3047539134	 0.6028540484	 0.417227
N	 1.5828180897	 4.0517549482	 1.1956717534	-0.3618
C	 2.7769515875	 3.2285183284	 1.4583734709	-0.166188
C	 2.3482195319	 1.7747413226	 1.0957716784	-0.249261
C	 1.2029176046	 2.016882205	 0.1016576504	-0.195991
H	-1.5384608672	 2.3813328811	-1.0885266477	 0.124892
H	-2.0912420757	 1.8920826403	 0.5104666373	 0.130883
H	 1.3241620871	 4.791969051	 1.8290668453	 0.251512
H	 3.617332086	 3.5596416827	 0.835197867	 0.115131
H	 3.0880669429	 3.3152535408	 2.5038125344	 0.118061
H	 3.1739646824	 1.1887979673	 0.6900475694	 0.119188
H	 1.9718166678	 1.2580415251	 1.9839370272	 0.125095
H	 1.5884043429	 2.1381187653	-0.9210128124	 0.123372
