15
gdb 44242	3.01769	1.55165	1.25678	1.7118	66.93	-0.2386	-0.0456	0.193	984.0159	0.113634	-453.941123	-453.933824	-453.93288	-453.973237	27.65	
N	 0.1061419351	 0.8370301474	 0.8426929553	-0.532349
C	 0.0302266068	-0.1889141522	 0.1147286832	 0.342494
N	 0.9121365355	-0.9683328476	-0.6462302097	-0.327014
C	-0.0607573895	-2.0541834048	-0.869804296	-0.134533
C	-1.1439789972	-1.1312765294	-0.2400900254	 0.033088
O	-1.7599168209	-1.8087322815	 0.833130339	-0.248506
C	-0.8560011886	-2.776933946	 1.3418713655	-0.198407
C	 0.0644663131	-3.168561729	 0.1774708495	 0.377064
O	 0.771220218	-4.1389469394	 0.1185408307	-0.296358
H	 1.0638692503	 1.1845518149	 0.9242094449	 0.216605
H	 1.904026557	-1.0922708095	-0.487733092	 0.251202
H	-0.1379238487	-2.4147875821	-1.8962495457	 0.110697
H	-1.9172155826	-0.7087609091	-0.880351461	 0.120549
H	-0.2497257685	-2.3780284278	 2.1705043274	 0.137983
H	-1.4195303198	-3.6370403239	 1.7115446443	 0.147484
