20
gdb 31510	3.07919	1.0856	0.85361	1.3242	85.22	-0.1793	0.0334	0.2128	1416.0764	0.170339	-403.19099	-403.181084	-403.18014	-403.22612	35.946	
C	-0.2856717024	 1.5524015968	-0.2133163243	-0.369785
C	 0.1361038383	 0.0871564688	-0.0069480625	-0.293857
C	 0.9231219166	-0.468078129	-1.1439886921	 0.37217
C	 2.1933998092	-0.9397629064	-1.257039904	-0.340917
C	 2.367804376	-1.3339670139	-2.6288984033	 0.139056
N	 3.5699831584	-1.8065638768	-3.1865670585	-0.609599
C	 1.1843168459	-1.073105592	-3.2569017372	 0.29147
C	 0.7059370943	-1.2289633745	-4.6544981512	-0.500448
O	 0.2976248858	-0.5344286748	-2.3501876128	-0.228259
H	 0.5905910663	 2.1998572076	-0.3150711291	 0.120729
H	-0.8871026705	 1.6560658086	-1.1204683799	 0.131017
H	-0.8796813292	 1.9086426487	 0.6339360231	 0.10921
H	 0.7428348144	-0.0062364317	 0.8995277176	 0.109702
H	-0.7614218509	-0.5255332983	 0.1524410554	 0.112307
H	 2.9281224099	-0.9990769849	-0.4682183562	 0.096369
H	 4.0297833082	-2.4797178759	-2.5853561393	 0.241076
H	 3.4366034217	-2.2265277529	-4.0981836133	 0.236104
H	 1.4033195657	-1.847781623	-5.2277713474	 0.117519
H	-0.2749324577	-1.7168737408	-4.687648561	 0.13355
H	 0.61228977	-0.2696525157	-5.1802122638	 0.132588
