21
gdb 65925	2.60172	1.45005	1.17746	1.2161	77.46	-0.2437	0.0714	0.3151	1141.2953	0.182182	-424.19475	-424.185842	-424.184897	-424.228484	33.903	
O	-0.3102182755	 1.5752587266	 0.1471558305	-0.48637
C	 0.0003590937	 0.2023551396	 0.0173237724	 0.374411
C	 0.9576514832	-0.2275072783	-1.1357735682	-0.278124
C	 1.6925884985	-1.1654086674	-0.1418927469	-0.204188
C	 1.0021457821	-0.4255218087	 1.0348787542	-0.277823
C	-1.3604389563	-0.4828963237	 0.0198384587	 0.138565
C	-2.2740310454	-0.2993110081	-1.2094971798	-0.2908
C	-2.2189107545	-1.8363614159	-1.2996488245	-0.064076
O	-1.2837820966	-1.9109797138	-0.1993392102	-0.297804
H	 0.5160402882	 2.067714408	 0.172639064	 0.27681
H	 0.5119731502	-0.6777992783	-2.0262540445	 0.099322
H	 1.5783291149	 0.618252956	-1.4510380039	 0.086184
H	 1.3439823021	-2.1943821502	-0.229379527	 0.125385
H	 2.7841201737	-1.1492157409	-0.163122934	 0.090769
H	 1.6385008263	 0.3480325601	 1.4783292077	 0.086689
H	 0.5774601364	-1.0309262337	 1.8397125031	 0.108449
H	-1.8511076169	-0.2562635582	 0.9764792522	 0.079382
H	-3.2529365134	 0.1382693714	-1.0133212948	 0.112221
H	-1.8041067896	 0.2303145127	-2.039515259	 0.116135
H	-3.1575275473	-2.3541859413	-1.0656513697	 0.10132
H	-1.8005278736	-2.2618090558	-2.2194670102	 0.103546
