25
gdb 91418	2.39393	1.58681	1.23154	0.1412	91.15	-0.2702	0.0758	0.346	1171.5592	0.232058	-352.363331	-352.354829	-352.353884	-352.395687	35.386	
C	 0.3241998646	 1.3231133652	-0.535479682	-0.419233
C	 0.2413605982	-0.1632556048	-0.1764620557	 0.042199
C	 0.8599502467	-1.0578568435	-1.2806958636	-0.208714
C	 1.1509116694	-2.4767649513	-0.7624378614	-0.006396
C	 0.1772031145	-2.8581318445	 0.3932712598	-0.24508
C	 1.1175453733	-2.0262180452	 1.3152678911	-0.004629
C	 2.2567630889	-2.3924374275	 0.3203451869	-0.214491
C	 0.7756694078	-0.5206389435	 1.2500035194	 0.018796
C	 1.9478842562	 0.3384735844	 1.7483031307	-0.399516
H	 1.3610213946	 1.6683135042	-0.6044656155	 0.115193
H	-0.1487035555	 1.5086408226	-1.5062549749	 0.107134
H	-0.1874670375	 1.9472036919	 0.2054894313	 0.108102
H	-0.8256019793	-0.4143107594	-0.1553748318	 0.077135
H	 0.1693932575	-1.0880228026	-2.1326216936	 0.087572
H	 1.7933463925	-0.6191459267	-1.6593344188	 0.088466
H	 1.2860703341	-3.1879312222	-1.581554735	 0.053229
H	-0.8771547238	-2.5775436982	 0.3184227007	 0.087242
H	 0.2426103132	-3.9248820377	 0.6247095568	 0.09065
H	 1.2335053904	-2.3492236384	 2.3540392472	 0.052584
H	 2.6806421779	-3.374337878	 0.5498068725	 0.088552
H	 3.0728484283	-1.6823966661	 0.1608081856	 0.084488
H	-0.0568281624	-0.3476728359	 1.9468302585	 0.062904
H	 2.8041311322	 0.3161850984	 1.0671300385	 0.115342
H	 1.6547242458	 1.3846995648	 1.8722712476	 0.111692
H	 2.2957323723	-0.023783366	 2.7222122157	 0.10678
