19
gdb 83635	2.32409	1.64626	1.39684	1.3587	70.12	-0.2376	0.0544	0.292	1021.8829	0.158452	-460.122931	-460.114438	-460.113494	-460.155723	33.257	
C	-0.4921678738	 1.5365426357	-0.1346472822	-0.447819
C	-0.0931316812	 0.0780335633	-0.0011244085	 0.339927
O	-1.2154315723	-0.7862580769	-0.1270783246	-0.479352
C	 1.1125445878	-0.4271517095	-0.8991406193	 0.07327
O	 1.84195343	 0.5036074584	-1.6437850216	-0.432202
C	 1.8261565781	-0.9308795825	 0.3829796137	 0.061381
O	 2.7200722132	 0.100072961	 0.8743781844	-0.3089
C	 1.7251651635	 0.5516334798	 1.8360194905	-0.101339
C	 0.6651617955	-0.4033828688	 1.2707023496	-0.103636
H	 0.3729360867	 2.2030889994	-0.1020084941	 0.120422
H	-0.9785877719	 1.7022215951	-1.1030149396	 0.115358
H	-1.1941225469	 1.8195175515	 0.6559618212	 0.120576
H	-1.598801269	-0.643274982	-1.0002914593	 0.276164
H	 0.7735713933	-1.2314507676	-1.5606958191	 0.080621
H	 2.4945286153	 0.8690487838	-1.0263097043	 0.291071
H	 2.2774610486	-1.9243038947	 0.4122837964	 0.080767
H	 2.0419118651	 0.3071084834	 2.8565445686	 0.11234
H	 1.5384671947	 1.6282724403	 1.7680806503	 0.110126
H	 0.0796237133	-1.0060980497	 1.961019438	 0.091224
