17
gdb 6066	5.16998	0.91466	0.82218	2.3498	65.93	-0.2449	-0.0089	0.2359	1370.296	0.139339	-401.063276	-401.05361	-401.052666	-401.099384	32.851	
C	-0.0449852879	 1.5033233834	 0.0539529365	-0.47348
C	 0.0468813614	 0.0046392221	-0.1684986294	 0.378685
O	 1.0683462951	-0.5234469548	-0.5477659178	-0.298258
C	-1.224747253	-0.7865204817	 0.0994174839	-0.29755
C	-1.0191545912	-2.2971615602	 0.0843789953	-0.316318
C	-2.3088177649	-3.0485526841	-0.2361357562	 0.409412
N	-2.3212263081	-4.3547988637	 0.163282666	-0.522792
O	-3.2531855294	-2.5358499997	-0.8068100985	-0.359639
H	 0.8639147911	 1.9897817426	-0.3017288805	 0.141907
H	-0.9202110987	 1.9203087366	-0.4554852706	 0.139728
H	-0.1720912642	 1.7110294072	 1.1230306802	 0.140766
H	-1.6722100688	-0.4446628931	 1.0406108504	 0.117072
H	-1.9600889034	-0.5258396951	-0.6737336175	 0.158435
H	-0.2784189177	-2.5406329064	-0.6870513125	 0.153077
H	-0.5952619505	-2.6528360354	 1.0296104927	 0.109875
H	-1.495247723	-4.8068784628	 0.5152429206	 0.258757
H	-3.0890738069	-4.931524135	-0.1404182824	 0.260323
