15
gdb 24270	4.10352	1.6448	1.28468	4.6072	70.45	-0.1904	0.0246	0.215	934.1895	0.11636	-416.809859	-416.803623	-416.802679	-416.840312	25.467	
C	-0.0107592022	 1.474565797	 0.1116377661	-0.319976
C	 1.2918811967	 0.7321109915	 0.0438454221	 0.095279
O	 1.9974387873	 0.4131935747	 1.238899453	-0.264941
C	 1.1622324444	-0.4360419881	 1.9092945454	 0.367472
C	 0.0329565682	-0.7762127337	 1.227313736	 0.231891
N	-0.6512195288	-1.5971505678	 2.0987648091	-0.380276
C	 0.1308127257	-1.6983305725	 3.2223451422	-0.011932
N	 1.2461619138	-0.9841475458	 3.1416780389	-0.347295
C	-0.040077853	-0.0455929178	-0.0473050439	-0.229315
H	-0.3331933669	 1.8923719482	 1.0585357229	 0.129648
H	-0.2536876619	 2.069780012	-0.7626709956	 0.118392
H	 1.9621107115	 0.8698989263	-0.7946745	 0.111807
H	-1.5306182675	-2.0611169308	 1.9486354085	 0.268134
H	-0.1524710328	-2.3195053319	 4.0579167543	 0.131615
H	-0.3908306344	-0.4928907813	-0.9709588089	 0.099497
