21
gdb 76695	2.81571	1.10877	0.92159	0.8948	84.09	-0.2365	0.0307	0.2672	1352.399	0.179294	-387.029386	-387.018944	-387.018	-387.065185	37.856	
C	 1.2209234315	 1.9536526035	-0.3063316884	-0.403374
C	 0.6290203088	 0.6121869148	 0.0670648071	-0.047681
C	 0.4882365789	-0.5162501743	-0.9486944114	-0.071549
C	 0.9321630351	-0.3781788361	-2.3900951019	-0.400536
C	 1.4874272309	-0.631152337	 0.1676478224	 0.109407
O	 2.8394341231	-0.581399726	-0.2000117346	-0.235064
C	 3.7422655035	-0.6192716649	 0.8908233983	-0.228312
C	 3.739944276	 0.5683559451	 1.7485125283	 0.324398
C	 3.7600597649	 1.5325656338	 2.4658872575	-0.466764
H	 2.1324101514	 1.8413651395	-0.8964993279	 0.128101
H	 0.5090391888	 2.5526917676	-0.8851881925	 0.107873
H	 1.4870723463	 2.5171670894	 0.5927729993	 0.120194
H	-0.1740976704	 0.6720541068	 0.798082039	 0.077934
H	-0.3976864156	-1.1347336449	-0.8254652879	 0.081316
H	 1.8836552126	 0.1482416917	-2.4773000683	 0.132891
H	 1.0638945674	-1.3653614449	-2.8460363595	 0.115534
H	 0.1847495874	 0.1634656566	-2.9799540017	 0.112533
H	 1.2885249457	-1.3393438284	 0.9728099124	 0.079748
H	 3.5480158179	-1.50906075	 1.5116606821	 0.121484
H	 4.7343333644	-0.7464391175	 0.4446793591	 0.139524
H	 3.7781146414	 2.3857855352	 3.0981252487	 0.202344
