20
gdb 58362	1.74192	1.55987	1.0059	3.9053	75.93	-0.2489	-0.0275	0.2214	1258.2362	0.168182	-440.255962	-440.246028	-440.245084	-440.291394	35.826	
C	-0.0434720736	 1.4269282173	-0.4008816307	-0.412952
C	-0.0746560342	-0.0342244204	 0.050785156	 0.14484
O	 0.6153097612	-0.2197944414	 1.2769141432	-0.448307
C	-1.5073278511	-0.6081110591	 0.1887525779	-0.087559
C	-1.3958004971	-2.1110413588	 0.4350554017	 0.177511
O	-1.1659130415	-2.9036984217	-0.4397070461	-0.259377
N	-2.1653124015	 0.0172019332	 1.3340860109	-0.09302
C	-3.1110740643	 1.0988012933	 1.0682571443	-0.21697
C	-3.5984054582	-0.238296857	 1.4958071552	-0.232233
H	 0.9957002114	 1.7577923778	-0.4766359168	 0.129947
H	-0.5195259366	 1.552637701	-1.3794529207	 0.110182
H	-0.5519256579	 2.0755966731	 0.3189032521	 0.120518
H	 0.4465806777	-0.6507555058	-0.689869473	 0.106114
H	 0.0042995108	 0.077378877	 1.9655578147	 0.284551
H	-2.0549735442	-0.4673873517	-0.7578784064	 0.082442
H	-1.5324181767	-2.4229740379	 1.4928350396	 0.091045
H	-3.0904584126	 1.9261204118	 1.7713115251	 0.126659
H	-3.2756578107	 1.3851048074	 0.0316890445	 0.123585
H	-4.092126377	-0.8516112786	 0.744365351	 0.125413
H	-3.9354093738	-0.4030971995	 2.5145039574	 0.127608
