15
gdb 97428	3.16655	0.62975	0.54011	4.0723	83.69	-0.2694	-0.0621	0.2072	1940.3579	0.110454	-416.777401	-416.767779	-416.766835	-416.813721	32.175	
C	-0.6193153305	 0.4179388283	 0.2567112258	-0.318546
N	 0.6668355253	-0.1606425374	-0.0727069945	-0.191399
C	 0.7214458963	-0.9489907965	-1.0441329123	 0.135987
O	 1.9137241777	-1.4960753507	-1.4093541411	-0.18828
C	 1.8616133488	-2.4456229959	-2.4643943625	-0.260419
C	 1.3591676021	-3.7493097913	-2.0359249199	 0.157025
C	 0.9393290398	-4.8212286658	-1.6720313514	-0.014867
C	 0.4627734524	-6.035105621	-1.2662286573	 0.223956
N	 0.0553833326	-7.0676344259	-0.9248440776	-0.326841
H	-0.5516439694	 1.5099720842	 0.2031609244	 0.135146
H	-1.4411831036	 0.0871467036	-0.3982508639	 0.101288
H	-0.8768885238	 0.164571681	 1.2906948644	 0.137404
H	-0.129416661	-1.2538687346	-1.6726299825	 0.084928
H	 1.2532025039	-2.0751679507	-3.3018628351	 0.152698
H	 2.8895207393	-2.5463697474	-2.8251534363	 0.171922
