18
gdb 120365	3.09794	1.22213	0.91655	4.4933	75.25	-0.2324	-0.011	0.2215	1251.8019	0.148306	-435.270098	-435.261152	-435.260208	-435.304795	32.068	
C	-0.773626839	 0.8068337391	-0.9711355884	-0.247028
O	-0.0165027711	 0.2240079224	 0.076027666	-0.231822
C	-0.7441112911	-0.5606157178	 0.9851904754	-0.080295
C	-0.9113600784	-2.04367055	 0.5533293503	-0.057216
N	-0.8356335642	-2.9315923558	 1.7307468168	-0.244419
C	-1.8742421408	-3.6685959826	 1.6912528	 0.056763
N	-2.7241719581	-3.4587642577	 0.613283355	-0.340712
C	-2.2222115683	-2.4068190913	-0.1545545215	 0.370029
N	-2.7069648021	-1.8577278455	-1.1926949151	-0.536618
H	-0.0812623488	 1.4285170587	-1.5447926208	 0.115501
H	-1.2314145656	 0.0546746251	-1.6228679708	 0.148792
H	-1.5750170836	 1.4471295686	-0.5705006963	 0.096569
H	-0.1639760282	-0.5813930435	 1.9120455905	 0.124147
H	-1.7273609499	-0.1161444427	 1.2008938876	 0.090623
H	-0.0651865898	-2.2650273268	-0.1083026173	 0.132359
H	-2.11682111	-4.4310747488	 2.4248235996	 0.137077
H	-3.6240886838	-3.8900045824	 0.482362389	 0.257961
H	-3.5900451673	-2.2823198689	-1.4792379902	 0.208289
