23
gdb 93147	2.39162	1.41708	0.97695	0.2433	92.43	-0.224	0.0061	0.2301	1289.9505	0.207621	-351.163178	-351.154368	-351.153424	-351.196152	35.233	
C	 0.1842065959	 1.6678571974	 0.0095187436	-0.395607
C	-0.0598120479	 0.1502063522	 0.0033566647	 0.048771
C	 0.5223271396	-0.4530098542	-1.3082930553	-0.24748
C	-0.0448057952	-1.7729170509	-1.7795806881	-0.052161
C	 0.2028354136	-2.9734571841	-1.2568991112	-0.03824
C	 1.0488954504	-3.2079636075	-0.0243280811	-0.313097
C	 0.2239829368	-2.9869371792	 1.224955373	-0.03824
C	-0.014606529	-1.7921678291	 1.7647888504	-0.052161
C	 0.5445328874	-0.4671657701	 1.2982701231	-0.24748
H	 1.2580090227	 1.8922997431	 0.001590522	 0.112435
H	-0.2601476145	 2.1464407875	-0.8692901008	 0.10952
H	-0.2450687172	 2.1368288235	 0.9009142643	 0.10952
H	-1.1428700932	-0.0232090465	 0.0116412085	 0.077108
H	 0.3677589415	 0.2806648909	-2.106984639	 0.092915
H	 1.6119071999	-0.5317930786	-1.1884673861	 0.101989
H	-0.7208348465	-1.7179859274	-2.6305065426	 0.081799
H	-0.2812021425	-3.8465170603	-1.6887705524	 0.08431
H	 1.4582703948	-4.2229983914	-0.0333294461	 0.097519
H	 1.9020209243	-2.5182916042	-0.0278513024	 0.107567
H	-0.2527041911	-3.8646814323	 1.6555052837	 0.08431
H	-0.6760320076	-1.7465459515	 2.627657628	 0.081799
H	 1.6319066335	-0.5445388742	 1.1590522314	 0.101989
H	 0.4036587844	 0.2577760869	 2.1074004322	 0.092916
