15
gdb 28027	4.12861	0.93172	0.81268	3.4388	72.9	-0.1996	0.0178	0.2173	1353.373	0.113432	-416.848208	-416.839862	-416.838918	-416.881983	30.39	
N	 0.0084261804	 1.3797164239	 0.0682203146	-0.592913
C	-0.0782619752	-0.0005516386	 0.0202953232	 0.408828
C	-1.1074551131	-0.874262641	-0.1713805699	-0.382843
C	-0.535757933	-2.1850467747	-0.0052501423	 0.28944
C	-1.2516726065	-3.5048246135	-0.0921581888	-0.460811
C	-1.8984141122	-3.7246135586	-1.3903864868	 0.267447
N	-2.4158929415	-3.8915958322	-2.4097450991	-0.311549
C	 0.7786009317	-2.0040743744	 0.2674032459	-0.132565
O	 1.0721545142	-0.6623997516	 0.290556348	-0.174798
H	 0.9169453263	 1.728079816	-0.2094583892	 0.259978
H	-0.7304455044	 1.8411561623	-0.4432891124	 0.2612
H	-2.129446316	-0.6319169925	-0.4139291188	 0.111708
H	-0.5518072634	-4.3274782031	 0.0887478325	 0.157566
H	-2.0265201544	-3.5786269447	 0.681798555	 0.162006
H	 1.603090677	-2.6688986174	 0.4593721881	 0.137304
