23
gdb 79137	2.25231	1.8333	1.38524	0.2431	87.72	-0.248	0.0821	0.3302	1075.016	0.208134	-351.142356	-351.134275	-351.133331	-351.174243	33.513	
C	-0.1542364797	 1.5781428713	-0.0443440633	-0.423339
C	 0.0376942764	 0.0632647986	-0.0577165872	 0.042996
C	 0.6284833289	-0.6410586527	-1.2811125928	-0.08238
C	 2.1503510583	-0.7046134824	-1.2386583705	-0.032957
C	 2.9408362848	 0.2697381908	-0.3659131834	-0.262438
C	 2.4359572953	-0.0345406146	 1.0732445473	 0.069764
C	 2.4635815014	 1.1414320671	 2.0510105317	-0.421459
C	 1.0782585717	-0.726154381	 0.8326630233	-0.088496
C	 1.3376932398	-1.6472542003	-0.3934174194	-0.089927
H	 0.7518138906	 2.1273295758	-0.3092500066	 0.119258
H	-0.9247264044	 1.8556148096	-0.7737701688	 0.108049
H	-0.4926500478	 1.9321924316	 0.9358277042	 0.111764
H	-0.9375011761	-0.3977780792	 0.1417594829	 0.070861
H	 0.1017155453	-0.8238416872	-2.2121518847	 0.072329
H	 2.6062796371	-1.0912313636	-2.1441454892	 0.07679
H	 4.0179543148	 0.0931690421	-0.4572417369	 0.091649
H	 2.7715518399	 1.3154407452	-0.6456280815	 0.096023
H	 3.0904309136	-0.8167530876	 1.4842517822	 0.069975
H	 1.8586120222	 1.9834234108	 1.7065489461	 0.118678
H	 2.0888507056	 0.842378236	 3.036260753	 0.107723
H	 3.4878094979	 1.5060291448	 2.1873078569	 0.109918
H	 0.6567758287	-1.1748099068	 1.7340748974	 0.056567
H	 1.3574477158	-2.7283324082	-0.4287421609	 0.078653
