19
gdb 31241	2.38854	1.31257	0.92267	2.5748	80.03	-0.1932	0.0216	0.2148	1316.7151	0.159721	-419.23875	-419.229389	-419.228445	-419.273878	33.345	
C	 0.2797509129	 1.6724251794	 0.1449843171	-0.363423
C	-0.1103226983	 0.205774099	-0.0968456404	-0.301696
C	 0.5650523347	-0.3890504999	-1.2913046235	 0.176831
C	 0.0309994795	-0.9751983153	-2.4010467757	 0.302091
N	-1.2437122356	-1.3250228288	-2.8049536783	-0.39273
C	-1.6399811513	-1.0141816929	-4.1795366291	-0.33346
O	 1.0557002955	-1.3567938113	-3.2232270344	-0.176026
C	 2.1800663607	-0.9758874902	-2.5540394166	 0.05154
N	 1.9581382174	-0.4169561422	-1.4169946619	-0.302452
H	 1.3640552764	 1.761483135	 0.2498790266	 0.141718
H	-0.0281609702	 2.3040612052	-0.694439046	 0.111082
H	-0.1896957318	 2.0583027979	 1.0552293084	 0.105961
H	 0.1372134819	-0.382302101	 0.7968063081	 0.116187
H	-1.1984529624	 0.1268618277	-0.2178813063	 0.08285
H	-1.9297154902	-1.030883916	-2.1237600978	 0.243895
H	-1.6339229262	 0.0628154532	-4.405470766	 0.115055
H	-0.958565952	-1.5138821117	-4.8706832445	 0.152189
H	-2.6453369743	-1.4056255939	-4.3507794457	 0.127632
H	 3.1195850933	-1.1681246444	-3.0464849042	 0.142757
