14
gdb 66758	2.96334	2.06787	1.53003	2.2516	63.82	-0.2333	-0.0307	0.2026	836.0567	0.101163	-436.595608	-436.589109	-436.588165	-436.626334	25.973	
O	 0.1072772102	 1.3822975197	 0.0868177434	-0.473053
C	 0.0306296651	 0.0194342006	 0.0258561516	 0.273039
C	 0.4607121837	-0.807410823	 1.2418603571	-0.086428
C	-0.8442025732	-1.4703157192	 1.440789982	-0.048318
C	-1.3020839987	-0.9297286645	 0.058871439	-0.153081
C	-0.3461584809	-1.9712996681	-0.6126808717	-0.150177
N	 0.2436478269	-2.2346870939	 0.7600093179	-0.146426
C	 0.4244143082	-0.7887246001	-1.2120839992	 0.382462
O	 0.8205985913	-0.464764427	-2.2957466036	-0.329047
H	 0.1472739729	 1.7144991009	-0.8199159066	 0.302419
H	 1.2856554615	-0.6238489247	 1.9183029051	 0.114517
H	-1.3579382834	-1.8259499348	 2.3248434841	 0.111092
H	-2.2728788183	-0.611158711	-0.3066361915	 0.098868
H	-0.6288799951	-2.859551735	-1.1689243777	 0.104134
