22
gdb 61557	3.6021	0.8318	0.76636	1.6709	83.35	-0.2287	-0.0096	0.2191	1583.4757	0.191628	-404.338784	-404.328299	-404.327355	-404.375343	37.408	
C	-0.0021089644	 1.5200079717	-0.0472807114	-0.400276
C	 0.0564918656	-0.021462448	-0.0197372194	-0.0845
C	 0.7374809881	-0.6125263185	-1.2622871802	-0.14393
N	-0.0142674868	-0.3101625746	-2.4776359938	-0.075395
C	 0.4859857851	 0.7795692049	-3.3136860324	-0.220378
C	 0.6557041498	-0.637047036	-3.7320577523	-0.22155
C	 0.7866942962	-0.4651476324	 1.2489620286	 0.385758
C	-0.055720681	-0.6086669578	 2.5041322238	-0.480256
O	 1.9772162601	-0.6869565427	 1.2530829209	-0.311504
H	 1.0058531267	 1.9433216433	-0.1091139747	 0.127614
H	-0.5772821626	 1.8608134024	-0.910891981	 0.138604
H	-0.4807735291	 1.9206618541	 0.8518508192	 0.11558
H	-0.9736800356	-0.3964798112	 0.0198273299	 0.087521
H	 1.7817956498	-0.2640773175	-1.3094283518	 0.102815
H	 0.7751504167	-1.703055551	-1.1582213658	 0.104738
H	-0.2694001136	 1.4072665123	-3.7781966138	 0.114986
H	 1.3780831722	 1.308426859	-2.982058473	 0.112628
H	 1.6612374826	-1.0518289259	-3.6788548705	 0.111817
H	 0.0261808245	-1.0658726733	-4.5066277065	 0.115407
H	-0.7186952	 0.2513862424	 2.6423164774	 0.135646
H	-0.7002389236	-1.4906866774	 2.4038865079	 0.144051
H	 0.5877132696	-0.7332449538	 3.3759880288	 0.140624
