13
gdb 9458	2.93785	1.81049	1.66645	2.5121	61.09	-0.2446	0.0026	0.2472	836.6104	0.093604	-398.572233	-398.564276	-398.563332	-398.604468	28.651	
O	-0.0394996739	 1.4208380586	 0.1034258941	-0.44733
C	 0.0207835124	 0.0120850373	 0.0749323421	 0.089566
C	-1.4088120558	-0.6046516984	-0.0518343747	-0.18841
N	-1.0023019745	-1.1274162589	-1.3609747636	-0.323052
C	 0.2457428903	-0.5693261982	-1.3780133017	 0.373694
O	 1.1254648668	-0.505357888	-2.1899506773	-0.354604
C	 0.8805331588	-0.5512681607	 1.1022014317	 0.300948
C	 1.6222821555	-1.0074313104	 1.9309248975	-0.477094
H	 0.8480350846	 1.7501043974	-0.0832807868	 0.29882
H	-1.657157891	-1.3713268622	 0.6849885029	 0.128998
H	-2.1811834819	 0.1677863129	-0.0904464343	 0.133105
H	-1.5336002241	-1.5744213325	-2.0933968287	 0.258423
H	 2.2761200828	-1.4102432569	 2.6649450287	 0.206935
