15
gdb 123923	3.58942	1.62466	1.15305	5.9811	67.76	-0.2168	-0.012	0.2047	990.5813	0.116604	-450.087223	-450.080551	-450.079607	-450.11816	26.488	
C	-0.0026396943	 1.430526667	-0.0297442453	-0.166053
C	 1.4117671713	 2.0221825045	 0.0570409746	-0.166052
N	 2.0744843056	 1.5461763921	 1.2729999756	-0.400907
C	 1.9531176008	 0.1937521796	 1.4960685161	 0.37393
N	 2.6483264223	-0.5730205595	 2.2844325935	-0.217252
O	 2.0562026652	-1.8228783375	 2.1814521826	-0.179115
N	 0.9817088324	-1.8060592994	 1.3047892351	-0.217251
C	 0.9177907589	-0.5794684268	 0.8756479696	 0.373928
N	 0.0727192834	-0.0315310654	-0.0619877083	-0.400907
H	-0.5970199353	 1.8002927321	 0.8190942474	 0.12015
H	-0.4756096421	 1.7741567502	-0.9534835321	 0.122603
H	 1.9671741652	 1.7547531805	-0.8543019746	 0.12015
H	 1.3388833863	 3.1118756783	 0.1053462082	 0.122603
H	 2.9778763263	 1.9463648195	 1.4803195201	 0.257087
H	-0.7953104859	-0.5245699353	-0.2126078827	 0.257087
