25
gdb 109306	2.08756	1.39785	1.10172	0.1498	94.65	-0.224	0.0308	0.2548	1304.289	0.22851	-352.386676	-352.376464	-352.37552	-352.421348	39.284	
C	 0.3027501538	 1.7766966978	-0.0220417016	-0.369539
C	 0.0003672735	 0.2674123266	-0.0918950282	-0.294485
C	 0.6746686603	-0.4348373073	-1.2424848173	 0.316081
C	 1.8761239044	-1.0158099959	-1.2005829484	-0.177487
C	 2.2669941256	-1.6612302196	-2.5055684601	-0.258781
C	 1.2143935068	-1.0951428939	-3.4866863641	-0.241543
C	 0.0111371812	-0.6361663348	-2.6118314395	 0.213383
C	-1.0478084935	-1.7562387214	-2.5032339654	-0.419632
C	-0.6503334975	 0.6282277043	-3.1812486988	-0.435011
H	 1.3790912694	 1.9488680143	 0.0744861277	 0.118306
H	-0.0381608629	 2.299285931	-0.9197454412	 0.120726
H	-0.1942335679	 2.231990619	 0.8409490965	 0.108183
H	 0.3206326962	-0.1954232927	 0.8486972108	 0.10231
H	-1.0860028933	 0.1237873461	-0.1490967685	 0.097437
H	 2.5015429999	-1.066371536	-0.3138619432	 0.077918
H	 3.2927238477	-1.4261614079	-2.8127238036	 0.097724
H	 2.2173430434	-2.7573355585	-2.4316083318	 0.100972
H	 1.6341495846	-0.2234725812	-4.0004318936	 0.093936
H	 0.9159781555	-1.8113189366	-4.258394007	 0.088239
H	-0.595027007	-2.6967140076	-2.1738824489	 0.11378
H	-1.8346925963	-1.4966420305	-1.7865301216	 0.109956
H	-1.5287910201	-1.9295831268	-3.4727089125	 0.107251
H	-1.0445686335	 0.4338397132	-4.1854504535	 0.108635
H	-1.4898269084	 0.9615892512	-2.5613136503	 0.109445
H	 0.0650945881	 1.4531605771	-3.2575512658	 0.112197
