20
gdb 95986	2.7772	1.23322	1.11126	2.9486	74.49	-0.2452	0.0246	0.2698	1187.8502	0.171406	-440.330539	-440.320969	-440.320025	-440.365577	34.633	
C	 0.4691909636	 1.3611617565	-0.606570476	-0.400012
C	-0.0379766286	 0.1427396735	 0.1676705019	 0.105613
O	-0.3551238854	-0.9417539835	-0.6949977935	-0.258428
C	 0.8249127324	-1.7112546859	-0.9250646032	-0.08304
C	 1.7779798482	-1.4463119236	 0.2644572345	-0.262627
C	 0.9863610252	-0.4798102779	 1.1639972583	-0.101994
C	 1.8643333531	 0.5502269478	 1.8675643205	 0.401358
N	 1.3437837172	 1.0391172287	 3.0318300925	-0.527336
O	 2.9218152354	 0.9477925134	 1.4152361763	-0.366392
H	 1.4420333526	 1.1759621713	-1.0693683955	 0.133227
H	-0.2513780784	 1.6103714408	-1.3902338792	 0.119148
H	 0.5775833368	 2.2265471101	 0.0539645284	 0.121597
H	-0.9699812053	 0.4058924679	 0.6802520863	 0.077139
H	 0.5186261512	-2.7590174035	-1.0028738037	 0.104822
H	 1.2915976363	-1.4267949004	-1.8781099127	 0.09878
H	 2.0426986773	-2.364084056	 0.7940726892	 0.10588
H	 2.7044894879	-0.9632698441	-0.0512667931	 0.138967
H	 0.4124954555	-1.0431718133	 1.9074991746	 0.074193
H	 0.5178016419	 0.6535733782	 3.4540743914	 0.258351
H	 1.8843294034	 1.7125120702	 3.5499301228	 0.260756
