19
gdb 105643	2.03622	1.54809	1.1689	4.5901	75.88	-0.2301	0.0257	0.2558	1148.4636	0.158334	-419.191448	-419.181768	-419.180824	-419.225804	35.309	
C	 0.065459097	 1.4470545847	-0.1789684946	-0.337724
N	-0.0567920923	 0.0332281978	 0.1558470428	-0.343284
C	-1.3723923346	-0.5253224351	-0.0162978455	 0.155551
C	-2.1205600318	-0.5362323206	-1.4124846562	-0.264066
C	-2.5567758064	-1.9936116149	-1.1169243848	-0.257823
C	-1.4318563412	-2.0958193123	-0.0544437053	 0.080172
O	-0.2035731408	-2.5456743121	-0.5915843637	-0.443293
C	-2.2758592606	-0.0121689572	 1.0242762628	 0.293596
N	-3.0075704876	 0.3898396463	 1.82381741	-0.351184
H	 1.1056178732	 1.7541916637	-0.0436528045	 0.126179
H	-0.2368964691	 1.696630671	-1.2100593216	 0.101703
H	-0.5498034837	 2.0415047497	 0.5043663611	 0.144006
H	 0.597138438	-0.5364770234	-0.3680824392	 0.242576
H	-2.8988812223	 0.2094022136	-1.5763578777	 0.118793
H	-1.3840900635	-0.4850389381	-2.2170870477	 0.116944
H	-3.5486650189	-2.0466266984	-0.6616403748	 0.127391
H	-2.4995253736	-2.7120894812	-1.9374183288	 0.10255
H	-1.6608211511	-2.5937774678	 0.8940041605	 0.092696
H	-0.2709312706	-3.4921676557	-0.7495078528	 0.295218
