20
gdb 75505	2.67547	1.57048	1.08009	1.6108	80.85	-0.2285	0.0285	0.257	1155.2186	0.171856	-403.148686	-403.140393	-403.139449	-403.181401	32.292	
C	 0.3475139053	 1.4590659949	 0.1487696832	-0.435514
C	-0.0131360704	 0.0119127195	-0.0525130505	 0.378752
N	 0.1664009471	-0.5540892542	-1.1648188176	-0.284757
C	-0.025410842	-1.9579738381	-1.4818528301	-0.140507
C	-0.0399368551	-2.9538806907	-0.3140889701	-0.246226
C	-1.3005592622	-2.7842378093	 0.5048609336	-0.027148
C	-1.2644227171	-2.6785188412	 2.0139976622	-0.32765
C	-1.5021421544	-1.4581778265	 1.1727563515	 0.108022
O	-0.4712469357	-0.5012497066	 1.1506097249	-0.271326
H	 0.8071761057	 1.8588210714	-0.7538236752	 0.137832
H	-0.5447994457	 2.041822357	 0.4016050703	 0.129989
H	 1.0390998409	 1.5563453796	 0.992126106	 0.136016
H	-0.9575271369	-2.0549679964	-2.0582609812	 0.105775
H	 0.7770676649	-2.2272866871	-2.1803485489	 0.10537
H	 0.0298256659	-3.9771664591	-0.7023333749	 0.097495
H	 0.8487287718	-2.794937457	 0.3064393535	 0.108673
H	-2.1916230383	-3.2264887432	 0.066147363	 0.08961
H	-2.0905026755	-3.0740944296	 2.5941279875	 0.114959
H	-0.2937524094	-2.7496431526	 2.4927415689	 0.125319
H	-2.4903715789	-1.0039450508	 1.1756103937	 0.095318
