16
gdb 22654	4.92946	0.85677	0.78868	1.8872	78.71	-0.2309	-0.0516	0.1792	1394.3954	0.12337	-437.867038	-437.858576	-437.857632	-437.901366	30.603	
O	-0.1244496776	 1.3477952969	 0.1340614454	-0.39404
N	 0.0184566049	-0.0479998011	 0.0739187016	-0.228241
C	-1.1153593495	-0.6330965481	 0.0030050666	 0.380328
C	-1.2282236437	-2.1478488438	-0.0761029764	-0.340144
C	-2.7553784613	-2.4348848907	-0.0139803038	-0.121657
C	-3.1553978999	-3.1266166921	 1.2851352696	 0.155225
O	-3.9319694349	-4.0398948185	 1.3652788155	-0.242308
C	-3.3771883585	-1.0524200407	-0.0587795369	-0.094573
C	-2.4648211251	-0.0720369414	-0.0229945728	-0.141159
H	 0.7906084242	 1.6432101628	 0.1824708734	 0.308848
H	-0.8060406349	-2.5225360743	-1.0124145815	 0.139614
H	-0.6758882174	-2.6306563853	 0.7360187986	 0.131617
H	-3.1115960621	-3.0669290227	-0.8332166931	 0.106674
H	-2.6684267475	-2.6921481995	 2.1895370651	 0.083729
H	-4.4519698039	-0.9152639895	-0.0877983323	 0.12472
H	-2.6605410027	 0.9905062981	-0.0254428189	 0.131369
