17
gdb 90379	2.29967	1.56889	1.34732	4.0733	73.27	-0.2536	0.0136	0.2673	1038.978	0.13499	-417.971575	-417.962804	-417.96186	-418.004735	32.411	
C	 0.0149014166	 1.5203938653	 0.0356774218	-0.503761
C	-0.0243556678	 0.0242851345	-0.0576524422	 0.336953
C	-0.8827500454	-0.7988296932	 0.8392479039	-0.213298
C	-1.7081284778	-1.9100822215	 0.4331237787	 0.328308
N	-2.3844830513	-2.8126508287	 0.1778206736	-0.351926
N	 0.5937154432	-0.9084420068	 0.9779144102	-0.175856
C	 1.0427032657	-1.808992791	-0.1475909112	-0.221531
C	 0.5330199154	-0.796384405	-1.2143861088	 0.037584
O	-0.428576236	-1.1648808687	-2.1670802979	-0.420544
H	 0.9989483813	 1.901917203	-0.2549558786	 0.131129
H	-0.7327955943	 1.9625983382	-0.6316354867	 0.14367
H	-0.1923854063	 1.8568851491	 1.0551567872	 0.135797
H	-1.3121617769	-0.2495097787	 1.6730713651	 0.139262
H	 2.1274643113	-1.9198472238	-0.1151114942	 0.117709
H	 0.566324263	-2.7925438558	-0.1459517166	 0.137516
H	 1.376255695	-0.2666872731	-1.6791909975	 0.086143
H	-0.0217677558	-1.7505359737	-2.8139688968	 0.292844
