18
gdb 112173	2.49821	1.21374	1.00716	3.3862	69.07	-0.2411	0.0263	0.2675	1228.9415	0.145287	-476.234485	-476.224559	-476.223615	-476.269223	35.738	
C	-0.0797517397	 1.6400992373	 0.1643766819	-0.450114
C	-0.0299761244	 0.1286063312	 0.0014331941	 0.197802
O	-1.3131423339	-0.4537493804	 0.1311920666	-0.474286
C	 0.7248494823	-0.4804147951	-1.2293599449	 0.057518
C	 1.3151320446	 0.4194376673	-2.2955410582	-0.100226
O	 2.0909382893	-0.4183277139	-3.1417646786	-0.426535
N	 1.7017311175	-1.022476822	-0.2711090296	-0.347563
C	 1.0412666498	-0.6154201114	 0.855369257	 0.401846
O	 1.1944701289	-0.8041419837	 2.0346647631	-0.379675
H	 0.9027071499	 2.1012693092	 0.0289778859	 0.124196
H	-0.7835796276	 2.0785101359	-0.5493562951	 0.127833
H	-0.421953356	 1.8825334465	 1.1757437344	 0.12969
H	-1.5122851912	-0.4938838002	 1.0744543325	 0.293294
H	 0.1185562788	-1.2592581647	-1.7023538065	 0.107898
H	 0.4996909179	 0.912181121	-2.8482160662	 0.098095
H	 1.9359595655	 1.1995414937	-1.832307552	 0.090731
H	 2.5184808722	 0.1313456746	-3.804936717	 0.292199
H	 2.4433057462	-1.6942333955	-0.4060148973	 0.257296
