21
gdb 108223	2.05024	1.33876	1.21229	0.7571	79.48	-0.2402	0.0704	0.3106	1204.4935	0.180752	-424.190362	-424.18043	-424.179486	-424.224923	36.995	
C	-0.0227874562	 1.5465741528	 0.0956754506	-0.423249
C	 0.1281858706	 0.0402375741	 0.1172512465	-0.111914
C	 1.3724790724	-0.7414954666	-0.1992004161	 0.314178
O	 1.3843449148	-1.7812404882	-1.1189532526	-0.465379
C	 2.644790895	-0.0487550481	 0.3012467818	-0.290678
C	 2.0386443397	-0.0416091309	 1.7439816795	-0.285296
C	 0.7937199223	-0.7713985861	 1.219389149	 0.305157
C	 0.0604776068	-1.8629846694	 1.927124366	-0.200128
O	-0.8555875321	-1.2777468373	 2.8513244072	-0.424129
H	 0.8806172578	 2.0613442917	 0.4328496086	 0.120284
H	-0.2441570506	 1.9040006022	-0.9165338961	 0.10942
H	-0.8448678537	 1.8612587123	 0.7470605829	 0.12769
H	-0.7517118369	-0.4878911626	-0.2491279141	 0.084761
H	 1.1168040753	-1.433421935	-1.9761015728	 0.284547
H	 3.5094017537	-0.7117411338	 0.2256896859	 0.108397
H	 2.900723596	 0.9161471734	-0.1494219269	 0.089785
H	 2.6170076398	-0.6533111382	 2.4410074859	 0.100438
H	 1.8714636019	 0.9374314011	 2.2014134609	 0.100477
H	-0.4644832822	-2.4847010374	 1.1843793358	 0.090484
H	 0.7781014317	-2.5155849365	 2.4505963657	 0.08218
H	-1.2695995762	-1.9906414677	 3.3476095224	 0.282975
