20
gdb 61278	2.10623	1.14469	0.85793	1.1744	82.06	-0.2562	0.0325	0.2887	1430.577	0.167346	-403.135399	-403.124714	-403.123769	-403.171836	38.136	
C	 0.0188547412	 1.5407350959	-0.0183197433	-0.411342
C	-0.0282033596	 0.0169227884	-0.0121491943	 0.148493
C	 0.7377791783	-0.59710362	-1.1946119259	-0.366049
C	 0.6181224959	-2.0475500342	-1.2737667496	 0.306405
C	 0.5044264974	-3.2419144902	-1.3402665593	-0.443074
O	 0.6068765879	-0.4984004289	 1.1744266275	-0.25049
C	-0.1314851237	-0.6006422573	 2.2991935553	 0.402767
C	 0.6921840927	-1.2311343194	 3.3933120845	-0.46127
N	-1.3370405686	-0.2029755027	 2.3464726449	-0.523683
H	 1.0532143109	 1.8970931481	 0.0270454174	 0.116631
H	-0.44266919	 1.9318135623	-0.9306601927	 0.116024
H	-0.5315316977	 1.9313522975	 0.8392132892	 0.145826
H	-1.066221525	-0.3244393816	-0.0178458008	 0.121698
H	 0.3609718194	-0.1441575627	-2.1197770424	 0.130886
H	 1.794506848	-0.3127445974	-1.1136804782	 0.134399
H	 0.4083862927	-4.2973651364	-1.4015212937	 0.193322
H	 0.1193273947	-1.311811231	 4.318429056	 0.1245
H	 1.0229070152	-2.2272470888	 3.0842687989	 0.15117
H	 1.5912069788	-0.6354126596	 3.5783413592	 0.144891
H	-1.7333551786	-0.3755487321	 3.2669805373	 0.218897
