23
gdb 120938	3.21848	0.92166	0.83496	0.9235	86.99	-0.2434	0.0872	0.3306	1519.1961	0.204661	-388.255457	-388.245619	-388.244675	-388.290479	36.509	
C	-0.0916252486	 1.385254457	 0.0167599172	-0.22332
O	-0.1189319623	-0.017101731	-0.0759147707	-0.231913
C	 0.7450666809	-0.5208313104	-1.0748897817	-0.074829
C	 0.612143747	-2.0318917236	-1.1012736678	-0.053094
C	-0.714502676	-2.6746650088	-1.6263293619	-0.240228
C	 0.1035559586	-3.4901079686	-2.634236429	-0.092239
C	 0.8627269138	-2.5600988909	-3.5390627313	-0.330368
C	 1.4038479773	-2.8285453248	-2.1570912608	 0.347006
C	 2.7646570618	-3.4209541034	-1.9198005321	-0.49806
H	 0.9125187677	 1.7602711522	 0.2737153577	 0.10043
H	-0.4017391333	 1.8653122356	-0.9256940029	 0.100626
H	-0.7887349912	 1.6773584886	 0.806323481	 0.124469
H	 0.4861107263	-0.0838912618	-2.054100069	 0.080805
H	 1.7897661784	-0.2315744424	-0.8607837907	 0.080263
H	 0.8364396214	-2.4093159291	-0.098289824	 0.076806
H	-1.2160233021	-3.2769922109	-0.8666806827	 0.102758
H	-1.4458842508	-1.983085033	-2.058512524	 0.094623
H	-0.0690060059	-4.5274319206	-2.897170033	 0.080759
H	 1.4192711852	-3.039103562	-4.3391520565	 0.105604
H	 0.4397738973	-1.5971485685	-3.8170322068	 0.101459
H	 3.5436300643	-2.6485076882	-1.9011578317	 0.11733
H	 2.8062761594	-3.954207661	-0.9627316459	 0.114996
H	 3.0291310308	-4.1317994143	-2.7098993231	 0.116116
