17
gdb 26696	2.28677	1.56567	0.93945	0.3979	72.39	-0.1583	0.0553	0.2135	1198.9083	0.134655	-455.165414	-455.155364	-455.15442	-455.199694	36.364	
C	 0.0909312723	 1.5403474269	-0.0120572079	-0.528397
C	 0.0507679129	 0.0436439255	 0.0004600777	 0.091852
C	 0.0511279083	-0.8085221871	-1.0766930534	 0.296721
O	 0.0243029791	-0.592592799	-2.4206717805	-0.43965
N	 0.1044033681	-2.105018835	-0.6478909089	-0.361384
C	 0.0685212067	-2.0999607562	 0.7488954771	 0.218955
O	 0.0504917141	-3.2685716189	 1.4600589239	-0.441659
C	 0.0571491689	-0.8010707285	 1.1715502884	 0.090729
N	 0.1628657598	-0.3419436676	 2.5033457024	-0.616499
H	 0.8330244156	 1.9201672974	 0.6998358945	 0.137618
H	 0.3701185121	 1.9310132264	-0.9982702334	 0.099696
H	-0.8714141952	 2.0010457272	 0.2513863069	 0.117138
H	-0.1330098152	 0.3449271459	-2.5681617837	 0.302362
H	-0.1217241894	-2.9001702989	-1.2203717883	 0.260937
H	 0.9564306027	-3.566663086	 1.6111249452	 0.297465
H	 0.0171189771	-1.1094485219	 3.1503163079	 0.237464
H	-0.5295249378	 0.3705545898	 2.7093856622	 0.236653
