18
gdb 2331	5.83913	1.53565	1.34776	1.9839	64.6	-0.2281	0.0871	0.3152	932.8083	0.159357	-326.940002	-326.931886	-326.930942	-326.972857	29.17	
C	 0.0441488643	 1.5170562506	-0.2460379205	-0.412108
C	 0.0899393695	 0.0261850258	 0.0073930802	 0.032737
C	 1.3747857548	-0.7246702762	-0.0036806514	-0.256017
N	 0.6252618188	-0.5530509008	 1.2432750444	-0.105461
C	 1.1959039893	 0.3199473435	 2.2685220579	-0.136939
C	 1.7826198826	-0.5443487445	 3.3840346072	-0.057449
O	 2.7835106217	-1.4266761646	 2.9073803336	-0.422723
H	 0.9734107865	 2.0167967678	 0.0373793025	 0.122461
H	-0.1247837026	 1.7075417067	-1.3111184851	 0.12377
H	-0.7773447859	 1.9870973572	 0.3062919338	 0.123308
H	-0.7978556591	-0.5008542266	-0.3411301581	 0.089562
H	 1.4293698295	-1.7366136999	-0.3983914135	 0.110339
H	 2.2883056326	-0.1436109862	-0.1241943141	 0.114207
H	 1.9809666861	 0.9860377579	 1.8775371853	 0.090932
H	 0.3983406107	 0.948218013	 2.6846751111	 0.097837
H	 2.2608951445	 0.0935245908	 4.1351430091	 0.101708
H	 0.9681115345	-1.0966130108	 3.8766101924	 0.09146
H	 2.3449132221	-2.0198164336	 2.2880524354	 0.292375
