19
gdb 84779	2.19979	1.58144	1.25736	2.1286	76.4	-0.2505	-0.0231	0.2273	1085.5562	0.157981	-423.045959	-423.03695	-423.036006	-423.079746	33.885	
C	-0.3458778421	 1.7298943004	 0.3317956218	-0.439822
C	 0.0298737871	 0.2553105274	 0.1276237539	 0.14621
C	 0.9569102826	-0.0161284994	-1.0805804573	-0.313854
C	 1.9064403026	-1.0708127368	-0.573082163	-0.052755
C	 1.7853122247	-1.2860929173	 0.7364708703	-0.113126
C	 0.7867759499	-0.3545620212	 1.3755317932	 0.051732
O	 1.4174585622	 0.6049869009	 2.2183410934	-0.426812
C	-1.2714032716	-0.5284447256	-0.012646087	 0.143927
O	-1.59369147	-1.2155291045	-0.9460510249	-0.252162
H	 0.5400484655	 2.3186763736	 0.5781407504	 0.120509
H	-0.8011008145	 2.1425682928	-0.5740583802	 0.122583
H	-1.0539662755	 1.8519791732	 1.1579489685	 0.124988
H	 0.3744622138	-0.3673984021	-1.9379897313	 0.136488
H	 1.4931416867	 0.886236108	-1.4018457919	 0.101433
H	 2.602291261	-1.5855580419	-1.2272158733	 0.10385
H	 2.3672028567	-1.9847730734	 1.3266451293	 0.102246
H	 0.0818419452	-0.8657665766	 2.0422217344	 0.085685
H	 2.224185852	 0.8895680282	 1.7741354445	 0.278363
H	-1.9484111761	-0.4086100456	 0.8661392191	 0.080519
