17
gdb 36653	4.23197	0.93345	0.89122	1.6684	74.5	-0.2336	0.0314	0.265	1331.4871	0.133932	-421.718323	-421.709839	-421.708895	-421.752331	31.157	
C	 0.076386265	-1.1007701676	 0.0148405205	-0.419634
C	 0.2764262807	 0.0657257202	-0.1878683247	 0.279956
C	 0.5007771109	 1.4766789757	-0.4678024333	-0.20656
O	 1.2157516139	 2.0711323206	 0.613465423	-0.251727
C	 1.4151395824	 3.4347948325	 0.440394764	 0.110791
C	 2.7448595735	 4.0337096749	 0.7988004198	-0.191081
C	 3.8453998493	 3.0932751977	 0.3118967312	-0.081057
O	 3.2895915277	 3.0601037414	-1.0334119623	-0.281708
C	 2.280514953	 3.9904949371	-0.6553505811	 0.038996
H	-0.096102419	-2.1322816429	 0.199129739	 0.20017
H	 1.0755565719	 1.592158275	-1.3971714015	 0.144401
H	-0.4673853776	 1.983016623	-0.6103680249	 0.116944
H	 0.5578128621	 4.0641663907	 0.690724504	 0.092291
H	 2.8670445478	 4.8505762352	 1.4969001313	 0.104567
H	 4.837436101	 3.5554475274	 0.297608414	 0.111038
H	 3.8871325848	 2.0998819214	 0.7669428343	 0.126393
H	 1.9948055725	 4.7531432676	-1.3719353132	 0.106218
