11
gdb 130823	4.54695	1.05713	0.85772	2.4621	60.36	-0.2656	-0.1182	0.1475	1191.0854	0.06348	-488.662447	-488.654797	-488.653853	-488.695751	25.825	
O	-0.0681900516	 0.0214460057	 0.0025162875	-0.203487
C	-0.0247491278	 1.2197315066	 0.0083729422	 0.080711
C	 1.3338048493	 1.9629556171	-0.0020786023	 0.20133
O	 2.3786878442	 1.3537850987	-0.0160761227	-0.280416
C	 1.2926667671	 3.4313173153	 0.0060726414	 0.155978
C	 2.334781263	 4.3234337084	-0.0001080393	 0.016472
O	 1.8764466371	 5.5478905697	 0.0108844721	-0.159945
N	 0.394750154	 5.4165962738	 0.0259506456	 0.009015
N	 0.144211226	 4.2012269365	 0.0221061586	-0.153089
H	-0.9310057036	 1.8561327536	 0.0212059534	 0.125234
H	 3.4026029323	 4.1699915145	-0.0120892264	 0.208196
