19
gdb 46285	3.01884	1.3214	1.21565	2.5502	80.51	-0.2366	-0.0186	0.218	1111.0848	0.159605	-385.912781	-385.904697	-385.903753	-385.946351	30.822	
O	-0.4976967564	 0.2087077026	-0.5757170774	-0.306896
C	-0.2563587764	 1.2929629376	-0.1270323863	 0.351639
C	-1.0731230717	 2.342859352	 0.6400510484	-0.341648
C	 0.0978589217	 3.3434170819	 0.3949562448	-0.297004
C	 0.9908358548	 2.1934254347	-0.1853044515	 0.243887
C	 2.1560509623	 1.7286291333	 0.7427184914	-0.325656
C	 3.3972664324	 2.1176576412	-0.0228102774	-0.060045
C	 3.122916508	 2.4800825503	-1.2729538492	-0.059269
C	 1.6464287071	 2.4039121049	-1.5742241724	-0.335278
H	-2.0504992665	 2.5849258471	 0.2145131757	 0.129436
H	-1.2160259451	 2.0656593242	 1.6897511277	 0.132369
H	-0.1462062055	 4.1044300453	-0.3499776896	 0.108342
H	 0.4908706432	 3.83805079	 1.2851092647	 0.106327
H	 2.0949400287	 2.1914525819	 1.7347658959	 0.10569
H	 2.1266234129	 0.6416298342	 0.9029299877	 0.124548
H	 4.388150482	 2.0542958796	 0.4131227253	 0.094964
H	 3.8548247801	 2.7629140659	-2.0213979187	 0.095176
H	 1.4238666311	 1.5554407376	-2.2367028947	 0.128247
H	 1.2595100274	 3.2998897756	-2.0738623844	 0.10517
