14
gdb 872	6.57421	2.07019	1.59473	0.3173	60.48	-0.171	0.0618	0.2327	748.8092	0.115679	-320.781098	-320.773963	-320.773018	-320.812029	26.191	
N	 0.1628514915	 1.4085223342	-0.0709405678	-0.611794
C	-0.0126848558	 0.0062824301	-0.0453411789	 0.258708
C	-1.1079847571	-0.813807547	-0.1929723384	-0.198739
C	-0.6445430301	-2.1639895272	-0.145078506	-0.198779
C	 0.7170917282	-2.1285233385	 0.0517128064	 0.258784
N	 1.6989167975	-3.1277602589	 0.2396552267	-0.61178
N	 1.0892946886	-0.804463647	 0.1065362376	-0.26857
H	-0.5834493999	 1.8491098605	-0.5954094701	 0.242722
H	 0.1542386434	 1.8137742611	 0.8614980138	 0.2398
H	-2.1277401894	-0.4827371835	-0.3212873258	 0.07654
H	-1.2418414357	-3.0581500014	-0.2434893491	 0.076537
H	 1.2767363567	-3.9754383453	 0.5993111568	 0.242725
H	 2.1696719261	-3.3716595206	-0.627905946	 0.239799
H	 2.030895496	-0.4765711464	 0.2386202109	 0.254048
