19
gdb 107787	2.59244	1.67281	1.32676	2.1328	73.81	-0.2338	0.0608	0.2946	1026.5006	0.158647	-422.957559	-422.949344	-422.9484	-422.990173	32.088	
C	-0.0522049177	 1.5644705796	 0.0594344568	-0.423868
C	 0.0345563535	 0.0486363145	-0.0227023375	-0.000158
C	 0.8357398563	-0.6340720683	-1.1366579193	-0.138423
C	 2.2695676976	-0.7211427713	-0.58571302	 0.096893
O	 2.2981504206	-0.0723243633	 0.6859092753	-0.343129
C	 0.9998244015	-0.7156774335	 0.9395550695	 0.396921
C	 0.7572202413	-0.924197706	 2.4053306061	-0.195796
O	 0.7632866988	 0.3146688876	 3.0955872509	-0.414879
C	 1.2763413137	-1.7615363331	-0.2073544304	-0.223438
H	 0.9467462299	 2.0056793521	 0.0213643125	 0.125163
H	-0.6385622788	 1.9674117073	-0.7735416906	 0.106531
H	-0.5280273518	 1.8746378112	 0.9945406112	 0.127816
H	-0.9555417923	-0.4162363691	 0.0435386623	 0.075259
H	 0.6150333288	-0.6923751576	-2.1952522508	 0.089019
H	 3.1712694419	-0.749690251	-1.1825638642	 0.109673
H	-0.2291871103	-1.3731277077	 2.5629949201	 0.113012
H	 1.5131267664	-1.6163653965	 2.8076203309	 0.098256
H	 1.5933204649	 0.7506192913	 2.8689559545	 0.299858
H	 1.2438872957	-2.8395430864	-0.2763714971	 0.101289
