20
gdb 60935	3.01386	1.14781	0.9806	3.9145	80.17	-0.2342	-0.0192	0.2151	1269.9201	0.170525	-403.071824	-403.063118	-403.062174	-403.106281	32.251	
C	 0.7318650828	-0.0375858182	 1.3464467232	-0.413428
C	-0.0429510627	 0.121308796	 0.0211636524	-0.135132
C	-0.3509089537	 1.5958311237	-0.1904514024	 0.186241
O	-1.4295443092	 2.1003047286	-0.022081567	-0.251603
C	 0.7989375278	-0.398959371	-1.1392294063	 0.082094
C	 0.8179763874	-1.8790697489	-1.60304672	-0.085179
C	-0.5668412146	-1.5828434195	-2.2178632448	-0.178021
N	 0.2194917194	-0.3039633943	-2.5736850213	-0.157927
C	 1.3513745474	-1.2879243489	-2.926509696	-0.167533
H	 1.0072214084	-1.0844528935	 1.506136799	 0.128726
H	 1.6543921759	 0.5538821645	 1.3399975523	 0.123939
H	 0.1236602792	 0.2906554784	 2.1934125923	 0.136215
H	-1.0032381484	-0.3914188661	 0.1075421504	 0.097459
H	 0.5317717357	 2.2086975276	-0.4904069704	 0.07251
H	 1.7864481466	 0.0788444652	-1.0981115016	 0.071557
H	 1.1587473116	-2.767410054	-1.0589966962	 0.066723
H	-0.8627744906	-2.1588098676	-3.0984091552	 0.104527
H	-1.4231571963	-1.4188900681	-1.5639969247	 0.112186
H	 2.3446773034	-0.8305149396	-2.9284561081	 0.102001
H	 1.1652065397	-1.8456991942	-3.8474976156	 0.104645
