23
gdb 113146	3.15965	0.74254	0.6785	0.1731	97.6	-0.2217	0.0636	0.2853	1823.6104	0.202883	-351.132965	-351.121609	-351.120665	-351.171308	40.149	
C	-0.0329784664	 1.5432739095	-0.3007478673	-0.371316
C	-0.0188729553	 0.0993103049	 0.2174120613	-0.207789
C	-1.3877059501	-0.54582897	 0.1403562116	-0.004685
C	-1.8700590106	-1.2389298138	-1.1049302165	-0.318144
C	-1.6089202293	-2.0591811264	 0.1550226821	 0.126834
C	-0.4281020553	-3.0213424142	 0.1720686397	-0.459489
C	-2.7603580264	-2.5303430655	 0.8846026802	 0.008596
C	-3.7078308222	-2.9422730759	 1.5060335839	 0.081977
C	-4.856175726	-3.4358136047	 2.2533259617	-0.500062
H	 0.9606957179	 1.9973316387	-0.2351135867	 0.109971
H	-0.354717162	 1.5821060223	-1.346714217	 0.11854
H	-0.7230514259	 2.1645849057	 0.2804764244	 0.115286
H	 0.7082555433	-0.482006498	-0.3596207973	 0.095683
H	 0.334258497	 0.0878535014	 1.2568246404	 0.100171
H	-2.1541275853	 0.0037949546	 0.6812465008	 0.088879
H	-2.8974085335	-1.1037247092	-1.4218175867	 0.11587
H	-1.1597565528	-1.3668852904	-1.9168092114	 0.107266
H	 0.4030243741	-2.654209328	-0.4347173045	 0.11262
H	-0.0638306357	-3.1775966375	 1.1925817247	 0.122865
H	-0.7298784651	-3.9947257053	-0.2270311213	 0.12427
H	-4.6393514498	-4.404158001	 2.7184135049	 0.145397
H	-5.1429503404	-2.74429656	 3.0539075253	 0.143483
H	-5.7298396703	-3.5714293676	 1.6054951978	 0.143777
