15
gdb 124246	2.78175	1.54048	0.99822	2.7154	72.58	-0.2206	-0.0561	0.1645	1114.5489	0.113182	-450.153784	-450.145382	-450.144438	-450.186932	30.691	
C	-0.0254706876	 1.5326922627	 0.0362963158	-0.507809
C	-0.0409292286	 0.0151954952	 0.0649610757	 0.325994
O	-0.0532532704	-0.6090877791	 1.1199677871	-0.351491
C	-0.0352202354	-0.7009032868	-1.1922100561	 0.187198
C	-0.0351502578	-2.0810833045	-1.4071641784	 0.320558
N	-0.1287082705	-3.0642966978	-0.4776357224	-0.590169
N	 0.0285268621	-2.3222446634	-2.7468393806	-0.265601
N	 0.0604188529	-1.1728080911	-3.3780513142	-0.097683
N	 0.0212405199	-0.2037225183	-2.473344199	-0.279547
H	 0.8627433545	 1.9045691745	-0.4878203513	 0.13798
H	-0.9070902588	 1.9205419772	-0.4873836433	 0.140148
H	-0.0217506423	 1.9094033187	 1.0594511063	 0.153746
H	 0.0344058329	-2.7751665996	 0.4756622473	 0.278847
H	 0.1634273619	-3.9865675434	-0.7560984347	 0.265601
H	 0.035214257	 0.7547712156	-2.7824399523	 0.282229
