14
gdb 3298	5.86396	2.24736	1.9606	1.6288	62.71	-0.2358	0.0288	0.2647	676.5342	0.113597	-287.353313	-287.347094	-287.34615	-287.383122	23.853	
C	-0.0444294334	-1.2588623897	-0.1238579232	-0.473164
C	-0.0191643452	-0.0588340962	-0.0457584494	 0.363331
C	 0.0120536899	 1.3859708572	 0.069225819	-0.14162
C	-0.2478308608	 2.0328373508	 1.46909876	-0.26512
C	 1.1557164457	 2.6154059945	 1.356665421	-0.008776
C	 2.1593670895	 1.5623257901	 1.1202857248	-0.236137
N	 1.381429476	 2.0464735943	-0.0370970537	-0.134589
H	-0.069890503	-2.3173671982	-0.2066188477	 0.201602
H	-0.6238179458	 1.8318062287	-0.6996889017	 0.115678
H	-1.0422033727	 2.7795505549	 1.4311513397	 0.117231
H	-0.4308991744	 1.3542370847	 2.3056577189	 0.114622
H	 1.4284499121	 3.6382088767	 1.5946373811	 0.097732
H	 3.2011900895	 1.8622404942	 1.0678615921	 0.123531
H	 1.9923003227	 0.5505212879	 1.4815324392	 0.12568
