19
gdb 96225	2.39452	1.58243	1.06235	3.1379	79.83	-0.2348	-0.0531	0.1817	1158.9706	0.159582	-423.050987	-423.0425	-423.041556	-423.08443	32.118	
C	 0.3374378804	 1.5333356166	 0.0069393731	-0.397253
C	-0.0376992789	 0.0564338348	-0.1039825912	 0.023389
O	 0.7974735202	-0.5145687663	-1.0883814859	-0.250746
C	 0.5354584575	-1.8704610771	-1.3898267529	-0.09546
C	 1.4996014697	-2.7870816921	-0.6466293738	-0.255804
C	 1.4804830834	-2.6612420883	 0.8450495351	-0.035916
C	 0.8704238783	-1.7588177421	 1.6256818376	-0.132606
C	 0.0133035259	-0.59509243	 1.2928353929	 0.321112
O	-0.6710426406	-0.1006223442	 2.1705241535	-0.33479
H	 1.3883996986	 1.6352716776	 0.2936776905	 0.1255
H	 0.1934877011	 2.0253317077	-0.9578133048	 0.12177
H	-0.2859618862	 2.013289796	 0.7623414086	 0.143556
H	-1.0923832938	-0.0209232858	-0.4192108929	 0.095967
H	-0.5057402035	-2.1303986387	-1.146893549	 0.099644
H	 0.6640087768	-1.9980535667	-2.4707488713	 0.108996
H	 1.2972124787	-3.832687845	-0.918951489	 0.113191
H	 2.5235492456	-2.5882790493	-0.9954734689	 0.132281
H	 2.0442731834	-3.4381666936	 1.3604589509	 0.107623
H	 0.9423698633	-1.8823946937	 2.7035895374	 0.109546
