23
gdb 95837	2.69838	1.1227	0.85561	2.6672	81.25	-0.2594	0.0712	0.3306	1387.9374	0.20726	-425.437241	-425.427904	-425.42696	-425.471045	36.569	
O	-0.2021326992	 1.5024054545	 0.1707090604	-0.442603
C	 0.0112673294	 0.097758824	 0.0334950656	 0.139867
C	 0.8901588912	-0.4539425857	 1.169052162	-0.21028
C	 1.6063820415	-1.7660801465	 0.8086849843	-0.214365
C	 0.7289284868	-3.0238207315	 0.7325198164	-0.207863
C	-0.4911058344	-2.9511741953	-0.1970430748	 0.142799
O	-1.1234410482	-4.2292089488	-0.2694537477	-0.442988
C	-1.5676743187	-1.9867710864	 0.3140412013	-0.203409
C	-1.3990340838	-0.5058916349	-0.060811948	-0.203489
H	 0.6545678705	 1.9386527369	 0.1237928539	 0.275592
H	 0.5456926236	-0.0968168051	-0.9121387206	 0.058096
H	 1.6575210164	 0.3014423205	 1.3841269612	 0.079999
H	 0.304150789	-0.560833291	 2.0903858339	 0.100749
H	 2.119301829	-1.624957545	-0.1532883569	 0.093793
H	 2.3979612568	-1.9524882084	 1.5434366065	 0.097156
H	 1.3648522765	-3.8598757371	 0.4073555732	 0.077296
H	 0.3627350277	-3.2879457384	 1.7330908829	 0.103606
H	-0.1678401538	-2.6402338395	-1.2064154094	 0.057092
H	-0.4505817155	-4.8807889627	-0.4917026417	 0.275563
H	-2.5256354416	-2.3350133507	-0.0837858607	 0.110405
H	-1.6347634642	-2.0985914185	 1.4027561351	 0.097494
H	-2.0373741822	 0.0941431098	 0.5970851298	 0.112767
H	-1.7686886668	-0.3359378402	-1.0780193366	 0.102724
