19
gdb 85528	2.46163	1.65641	1.11727	4.0115	75.84	-0.2304	0.0591	0.2895	1109.9453	0.162031	-419.250636	-419.242559	-419.241615	-419.283096	31.823	
C	-0.384017614	 1.5273499312	 0.0549702158	-0.395795
C	 0.0674694691	 0.0658364528	 0.0119326394	 0.034817
N	 0.8352539947	-0.1720392284	-1.2065111983	-0.354015
C	 1.6622532019	-1.2554724751	-1.4309767566	 0.416787
O	 2.0258905232	-1.5816365428	-2.5472778854	-0.413453
N	 2.0688626938	-1.9243614193	-0.2918516171	-0.344051
C	 1.9395777036	-1.379326557	 1.0298704658	 0.00775
C	 2.3595504465	 0.0461654164	 1.3341744943	-0.314881
C	 0.8950749047	-0.3257717056	 1.2238870915	-0.022346
H	 0.480728335	 2.1966551537	 0.0753621658	 0.129732
H	-0.9932170185	 1.7751331969	-0.8212681965	 0.115268
H	-0.9913714622	 1.7128890965	 0.9458565581	 0.120324
H	-0.8332215139	-0.5714827517	 0.0237828912	 0.082793
H	 0.4498070347	 0.1885093452	-2.0666126102	 0.245863
H	 2.859259822	-2.5251694698	-0.4728550693	 0.249213
H	 2.0680165251	-2.1293117512	 1.8029601404	 0.103088
H	 2.7561445658	 0.272099231	 2.3179084388	 0.113766
H	 2.7993630099	 0.6131542678	 0.5211622304	 0.132389
H	 0.3222837886	-0.3596816809	 2.1452870518	 0.092754
