18
gdb 51197	3.82517	1.19561	1.06592	3.3937	78.91	-0.2594	0.0202	0.2796	1164.0153	0.147913	-401.868826	-401.861186	-401.860242	-401.90176	29.25	
N	-0.1438675577	 1.2402100905	 0.0127410873	-0.44187
C	-0.0624442252	-0.0156522125	-0.0674903333	 0.104181
O	-1.1591614963	-0.7752841386	 0.1541747538	-0.242965
C	-0.983337571	-2.1586593208	 0.1149404539	 0.447215
C	-0.2622306713	-3.0721702408	 1.1207840136	-0.322378
C	-0.8833730483	-4.0148377125	 0.0653001225	-0.052335
C	-2.1755079462	-3.1355317989	-0.0853587105	-0.091642
C	-2.0559008032	-3.092011933	-1.6230366187	-0.270103
C	-0.5948433395	-3.0414258739	-1.1290275304	-0.103861
H	 0.7613847066	 1.6590330086	-0.1911905463	 0.229896
H	 0.8320333451	-0.6009945368	-0.3144412425	 0.089362
H	 0.8306422132	-3.0202645891	 1.1527517188	 0.095965
H	-0.6831652773	-3.1169127304	 2.1294921906	 0.105752
H	-0.8457892511	-5.1001117207	 0.0155366365	 0.088335
H	-3.06136552	-3.1877009652	 0.5481160319	 0.082998
H	-2.357891151	-3.9938005574	-2.1634570429	 0.095802
H	-2.4394384268	-2.1962864193	-2.1184325054	 0.110893
H	 0.33452739	-2.9898519793	-1.698239469	 0.074755
