17
gdb 48660	2.21724	1.5789	1.14437	3.6024	76.41	-0.2519	-0.0586	0.1933	1097.054	0.134473	-421.825584	-421.817162	-421.816218	-421.858894	30.807	
O	-0.2361928305	 0.2105287146	-0.1486586521	-0.265945
C	-0.0253903506	 1.400378706	-0.1992558964	 0.062084
C	 1.3109138582	 1.9905733908	-0.0214143096	 0.2227
C	 1.5157388418	 3.4215233302	 0.3705980302	-0.371357
C	 1.9822569053	 3.0603685373	-1.0038890255	 0.20238
C	 3.2754366151	 2.2381568973	-0.9693310491	-0.300674
C	 2.6223650139	 1.2065392304	 0.0044832251	-0.29096
C	 1.3292189029	 3.6222987793	-2.2017879972	 0.065348
O	 0.2600707127	 4.1885781881	-2.1999428288	-0.268917
H	-0.8368157302	 2.1323662624	-0.3947577932	 0.098396
H	 0.6216126913	 4.0371868806	 0.3820031035	 0.154774
H	 2.2519540039	 3.6507223126	 1.1369116667	 0.127596
H	 3.5157903509	 1.7989779503	-1.9404917114	 0.120623
H	 4.1551631934	 2.7728922623	-0.5993093327	 0.111995
H	 3.083653423	 1.1122334091	 0.9913082911	 0.113287
H	 2.5093493766	 0.212947786	-0.4295418997	 0.138237
H	 1.9005334325	 3.4732586625	-3.1452418012	 0.080433
