18
gdb 51475	3.32221	1.08603	1.02781	3.4311	72.42	-0.2384	-0.0225	0.2159	1215.3156	0.147389	-439.056386	-439.048182	-439.047237	-439.090283	29.906	
O	-0.3317181669	 0.3095435889	 0.5800310858	-0.2402
C	 0.0994739236	 1.015299002	-0.2935232325	 0.159392
C	 1.4927293724	 1.6235191675	-0.2873976824	-0.248465
N	 1.5113047043	 2.8115188121	-1.1300343672	-0.10938
C	 1.3265618999	 4.1564104723	-0.5960385679	-0.055276
C	 1.5815935731	 4.4051128851	 0.8788187076	-0.111795
O	 2.8401992327	 3.8038555384	 1.1734390931	-0.250844
C	 3.6214954656	 3.742514553	-0.0167708298	-0.105624
C	 2.6376315372	 3.7302921358	-1.1724728096	-0.051731
H	-0.496250814	 1.2692880912	-1.1988892341	 0.085951
H	 1.8251287099	 1.7607778115	 0.7481363075	 0.146959
H	 2.1584806272	 0.8785400237	-0.7474517741	 0.133316
H	 0.6177253051	 4.7924495555	-1.1182834762	 0.101723
H	 1.5967289664	 5.4906740336	 1.0658462415	 0.104331
H	 0.8405033178	 3.9550920973	 1.5489282607	 0.122427
H	 4.2822301433	 4.6189671127	-0.1136870933	 0.102409
H	 4.2506788963	 2.8481001229	 0.0513493445	 0.116003
H	 2.9870610961	 4.0255294764	-2.1581101037	 0.100803
