18
gdb 119527	4.3296	1.03747	0.95381	2.5229	72.21	-0.2425	0.0167	0.2592	1270.8385	0.147631	-439.06489	-439.056561	-439.055616	-439.09842	30.572	
C	-0.6268713198	 1.3564383242	-0.5042634621	-0.223572
O	-0.8796251709	-0.027046525	-0.5904699126	-0.237994
C	-0.4924633547	-0.7298217955	 0.5664648752	-0.159175
C	-0.7874038401	-2.1875623175	 0.3379118644	 0.380438
C	-0.6248966911	-2.8952436234	-0.9723769397	-0.345852
C	-1.9992157747	-2.8166085554	-0.3277702347	-0.054552
N	-2.3706129689	-3.9360394815	 0.5123597099	-0.255403
C	-1.5199710943	-3.9519823365	 1.456128415	 0.088512
O	-0.5632927838	-2.9826500265	 1.4998990272	-0.257607
H	-0.9539526651	 1.8052628127	-1.4447896661	 0.132284
H	-1.18233519	 1.8203022904	 0.3252349087	 0.110396
H	 0.4445922876	 1.5653231351	-0.3614373848	 0.109644
H	 0.582196304	-0.5852443481	 0.7727621948	 0.09993
H	-1.0467448844	-0.3764157783	 1.4520644682	 0.1005
H	-0.4667035377	-2.247607723	-1.8261492011	 0.137407
H	-0.1219385988	-3.856286715	-0.9972486937	 0.119681
H	-2.7984386698	-2.2692889647	-0.8104606622	 0.112704
H	-1.4692160877	-4.673463412	 2.2621803933	 0.142662
