15
gdb 74256	3.24541	1.36075	1.09665	6.7713	71.2	-0.249	0.0042	0.2532	1076.6535	0.115212	-412.983469	-412.975971	-412.975027	-413.015458	28.824	
N	 0.0473316399	 1.3376773453	 0.1482159459	-0.580235
C	 0.0075264972	-0.0204397145	 0.0102556159	 0.439025
N	-1.0807070609	-0.6902282794	-0.119899442	-0.296869
C	-0.7517677387	-2.1250442339	-0.068237824	-0.123496
C	-1.3343407925	-2.8566331383	-1.2024145197	 0.305679
N	-1.7880867993	-3.4692653591	-2.0699432739	-0.333417
C	 0.7807193287	-2.2335903422	-0.0197913447	-0.053218
N	 1.4240282487	-1.6136993474	-1.1859595761	-0.312018
C	 1.2662690619	-0.8370451675	 0.072724309	-0.166967
H	 0.8723212523	 1.8104238553	-0.1858316537	 0.261941
H	-0.8215130311	 1.8127369238	-0.051396154	 0.267587
H	-1.1789138478	-2.5583109715	 0.8470536749	 0.127351
H	 1.2571413607	-3.0629193588	 0.489390762	 0.11146
H	 2.3830410659	-1.9505547272	-1.2478386103	 0.242782
H	 2.133389115	-0.5254801347	 0.6440549005	 0.110395
