18
gdb 72448	2.51584	2.19744	1.5783	2.4064	69.94	-0.238	0.0756	0.3136	899.1186	0.149508	-439.061174	-439.054252	-439.053307	-439.092029	28.698	
C	 0.0416091914	 1.4747786288	 0.0219504669	-0.488264
C	-0.0324726502	-0.0255869618	 0.0251219009	 0.516091
O	 0.6446594428	-0.5875768544	-1.1184518947	-0.310987
C	 1.0454231753	-1.9026962567	-0.6969329332	-0.0874
C	 0.4625371284	-1.9682498519	 0.7376805938	 0.006937
O	 0.6386317883	-0.6045067999	 1.1283521222	-0.261714
C	-1.056374756	-2.0745799113	 0.5567454212	-0.050301
N	-1.8182166022	-1.13854656	 1.4090359305	-0.340299
C	-1.4035130129	-0.7272201669	 0.0517171848	-0.119686
H	 1.0844993123	 1.7971623858	 0.0571436495	 0.136224
H	-0.419073185	 1.8682847089	-0.8876106645	 0.128364
H	-0.4903953088	 1.8704808158	 0.8902603998	 0.14163
H	 0.6286822061	-2.6616457056	-1.368665465	 0.099812
H	 2.1385999544	-1.9741423884	-0.6989671399	 0.107924
H	 0.9537715543	-2.6370931795	 1.4423564038	 0.093249
H	-1.5077703328	-2.9845190499	 0.1787221195	 0.097357
H	-2.7987461868	-1.410806734	 1.370687897	 0.232954
H	-2.1246279486	-0.547619259	-0.7363122427	 0.098109
