15
gdb 3194	4.1794	3.52613	3.10156	1.6125	59.47	-0.2435	0.0133	0.2568	551.6013	0.128454	-308.516376	-308.51133	-308.510385	-308.544821	20.954	
C	-0.0223633201	 1.5608562908	 0.0214803989	-0.210875
C	 1.4971944875	 1.9006776994	 0.0096353343	-0.210882
C	 2.1139951364	 0.4620422101	-0.016451961	 0.023658
O	 1.1692042771	-0.2300575464	-0.8422473388	-0.246246
C	 0.032071119	-0.0035449481	-0.0001124264	 0.023668
C	 0.5516631681	-0.4453947269	 1.3639454203	-0.074743
C	 1.8525919342	-0.1545668887	 1.3536938251	-0.074723
H	-0.5525743653	 1.9520140733	 0.8924012992	 0.099263
H	-0.5174282212	 1.9304345409	-0.879413204	 0.105601
H	 1.7742249344	 2.4429728991	-0.8972577491	 0.105599
H	 1.823177179	 2.4832711734	 0.8738998817	 0.099266
H	 3.1192720445	 0.380425276	-0.4277169274	 0.078149
H	-0.8487069119	-0.5069801957	-0.3965533766	 0.078151
H	-0.0579210254	-0.8064732473	 2.1811302938	 0.102058
H	 2.5700859038	-0.21894602	 2.1604274201	 0.102057
