23
gdb 114202	2.69624	1.13707	0.96857	1.4121	85.96	-0.248	0.0737	0.3217	1358.028	0.205168	-388.270196	-388.260544	-388.2596	-388.304606	37.095	
C	 0.2369262257	 1.2751790642	-0.5183643589	-0.385831
C	-0.0695576522	-0.2076091411	-0.286899447	-0.191808
C	-1.4579184751	-0.4460429064	 0.3076624278	-0.01306
C	-2.6370890566	-0.3229264181	-0.7111223099	-0.329228
C	-2.723623346	-1.8540888248	-0.7495114484	 0.342842
C	-3.8498526559	-2.7418974371	-1.1751747435	-0.337081
C	-2.5626851904	-2.7220810072	-1.9679581816	-0.325022
C	-1.8364483113	-1.9564316674	 0.4999860844	 0.053299
O	-0.8259505135	-2.9334647608	 0.5527822168	-0.426732
H	 1.2323748233	 1.4122615591	-0.9521111128	 0.111791
H	-0.4885563607	 1.7324294562	-1.1996290749	 0.117971
H	 0.2026422823	 1.8335960783	 0.4235164171	 0.116519
H	 0.0226736994	-0.7462508805	-1.2411022663	 0.086976
H	 0.6825115033	-0.638709873	 0.3852759596	 0.106085
H	-1.5695995015	 0.1581643697	 1.2138911111	 0.062739
H	-3.5277364872	 0.1474411712	-0.2839354871	 0.099948
H	-2.4038839854	 0.1759130976	-1.6569679488	 0.096617
H	-4.0604097343	-3.6216493781	-0.5746754821	 0.115799
H	-4.7277825698	-2.2788763094	-1.614956878	 0.110104
H	-2.5634934373	-2.2448814382	-2.9429254488	 0.110061
H	-1.9156454584	-3.5911377458	-1.8907741397	 0.111471
H	-2.427753786	-2.1055009126	 1.4093330811	 0.085863
H	-0.3096163024	-2.8652441057	-0.2575005502	 0.280678
