18
gdb 7278	4.01784	1.13432	0.94382	0.8149	70.09	-0.2494	0.0499	0.2993	1227.4659	0.149857	-384.903244	-384.893385	-384.892441	-384.937794	35.611	
C	 0.0358911646	 1.5525603493	 0.0167435349	-0.411403
C	-0.0027837685	 0.02755729	 0.036559451	 0.113163
O	 0.7138762693	-0.5068377565	 1.1473273713	-0.426399
C	-1.4476992706	-0.5159715781	 0.0012786694	 0.113386
O	-2.1618944575	 0.0020031179	-1.1097500371	-0.421153
C	-1.4619642589	-2.0572557425	 0.037604596	-0.395316
C	-2.8010103744	-2.6230279367	 0.1207581558	 0.310941
C	-3.9089852728	-3.082232643	 0.1962954008	-0.439764
H	 1.0696119836	 1.907351011	-0.0062111423	 0.121795
H	-0.5010595188	 1.9403467574	-0.8511014546	 0.137078
H	-0.4483824671	 1.9592346448	 0.9144815239	 0.106621
H	 0.5247862385	-0.3609667393	-0.8464968626	 0.078989
H	 0.413903219	-0.0445607295	 1.9381471957	 0.281587
H	-1.982330071	-0.139456672	 0.8836397869	 0.089829
H	-1.8660065475	-0.4633846846	-1.9001189064	 0.282577
H	-0.9528531585	-2.4328735728	-0.8633840855	 0.115094
H	-0.8496390596	-2.3841117807	 0.8842412593	 0.149854
H	-4.8872556399	-3.4894125148	 0.2605476334	 0.193121
