20
gdb 116962	3.4194	0.70935	0.66273	1.1678	84.03	-0.2384	0.0321	0.2706	1760.8491	0.169185	-403.065954	-403.055809	-403.054865	-403.103121	35.227	
C	 0.9686554555	-0.2583711477	 0.5573445521	-0.235025
O	 0.0816314551	 0.0474382164	-0.497600047	-0.213516
C	 0.3663380438	-0.649440447	-1.6942690368	-0.218612
C	 0.1438459262	-2.0969365189	-1.6190617483	 0.064794
C	-0.0650297135	-3.2832284755	-1.5530078137	 0.042151
C	-0.2952853436	-4.7300770401	-1.4833594254	-0.282396
N	 0.8825665074	-5.6019316005	-1.3901249198	-0.072934
C	 2.0899965932	-5.222912165	-2.1146577504	-0.217699
C	 2.036018692	-5.1394746321	-0.6278241948	-0.218785
H	 0.9145440466	-1.3180345779	 0.8427582135	 0.117495
H	 2.0108329774	-0.0210826068	 0.2904253554	 0.102399
H	 0.6724518707	 0.3567203912	 1.4099436079	 0.13048
H	-0.2919963668	-0.2142933471	-2.4540646664	 0.139438
H	 1.4047992406	-0.4584854147	-2.0149156711	 0.114867
H	-0.9305431237	-4.9494115054	-0.6162686731	 0.139583
H	-0.8612665851	-5.0460385345	-2.3684020675	 0.138515
H	 2.6106138929	-6.0386762063	-2.6080513585	 0.115808
H	 2.0898927871	-4.277970912	-2.6536431773	 0.119234
H	 2.000823004	-4.1399622212	-0.2000983804	 0.118489
H	 2.5165099003	-5.8925743651	-0.0098814582	 0.115715
