17
gdb 50367	4.07158	1.10199	0.94064	1.6246	76.4	-0.242	-0.0352	0.2068	1217.202	0.135732	-421.800074	-421.792294	-421.79135	-421.833055	28.927	
O	-0.0911257536	-0.0054933965	 0.0371633309	-0.246707
C	 0.0844186597	 1.1618681457	 0.2692518399	 0.167988
C	 1.3705559097	 1.9076902044	 0.0248869436	-0.174327
C	 1.2700723177	 3.2285595651	-0.8528443155	-0.288688
C	 2.246345264	 3.9259259004	 0.1663827016	 0.100203
O	 1.9693835108	 5.1566882345	 0.7982808521	-0.278487
C	 1.7152536691	 4.8813557714	 2.191313908	-0.107381
C	 1.4416033262	 3.3848154778	 2.2689612746	-0.234541
C	 1.8387413149	 2.8538792556	 1.11842051	 0.203218
H	-0.7271928424	 1.8015771223	 0.6878205547	 0.075729
H	 2.1310760565	 1.2201244431	-0.3515798058	 0.107961
H	 1.5892631137	 3.141102715	-1.893058971	 0.118953
H	 0.2701741354	 3.6649075084	-0.7925033312	 0.125507
H	 3.2806248105	 3.9012916538	-0.2036387175	 0.087367
H	 2.5740674453	 5.2061029533	 2.7996337088	 0.110881
H	 0.8434176455	 5.4650680835	 2.513298099	 0.117576
H	 0.8943373469	 2.9249008225	 3.0815182479	 0.114748
