20
gdb 83385	2.69747	1.7265	1.55535	1.875	78.66	-0.2097	0.0727	0.2824	970.5841	0.173073	-403.08054	-403.073152	-403.072208	-403.111733	30.842	
O	-0.0736301559	 1.5257746192	-0.0523126995	-0.448338
C	-0.0368850391	 0.1193818418	 0.0193863225	 0.111199
C	 0.0497608651	-0.6064915814	 1.3802201554	-0.071891
C	-1.078487736	 0.1221906799	 2.1698125476	-0.18594
C	-2.2162032105	 0.1542824758	 1.0699074177	-0.293179
C	-1.4217477758	-0.610378752	 0.0174880149	 0.318639
C	-1.6644793334	-1.5736512989	-1.1523721122	-0.341781
C	-0.5599264018	-2.4542167611	-0.4785854426	-0.188271
N	-0.7927329867	-1.7250367277	 0.8252805557	-0.143389
H	 0.8291556155	 1.8559413087	-0.0910683239	 0.283429
H	 0.6453067978	-0.2919566254	-0.728674686	 0.066674
H	 0.9786419017	-0.8228625555	 1.9128778765	 0.056968
H	-1.3713009644	-0.4499580494	 3.0512830193	 0.102593
H	-0.7704644444	 1.1255728754	 2.4685930806	 0.100111
H	-3.1085166227	-0.3926400998	 1.3799940254	 0.098765
H	-2.4855686275	 1.170752767	 0.7789631717	 0.109518
H	-2.6472790936	-2.0500554759	-1.1197678586	 0.114343
H	-1.4748629544	-1.1950857365	-2.1587608845	 0.103393
H	-0.781323446	-3.5189411851	-0.3739115985	 0.106037
H	 0.4305811322	-2.3536376889	-0.9354529716	 0.101119
