19
gdb 109024	4.08256	0.99573	0.88771	2.1438	77.67	-0.2143	0.0245	0.2388	1326.2068	0.158452	-423.012497	-423.003699	-423.002754	-423.045886	33.754	
O	 0.0081942148	 1.405861393	 0.0095703744	-0.413859
C	-0.0269359561	-0.0095273575	-0.0262340696	-0.171306
C	-1.4425402466	-0.4824558383	 0.0376471853	 0.284787
C	-2.5455668578	 0.2750228335	 0.0553821848	-0.158147
C	-3.7860902528	-0.5482618896	 0.0674367564	-0.166279
C	-3.993100673	-1.4465811773	-1.1526280882	-0.303695
C	-3.3072390007	-1.9946486438	 0.0555271425	 0.416537
O	-3.9708145326	-3.0279250689	 0.7159625174	-0.469716
C	-1.7761642263	-1.9612477978	 0.0953251154	-0.397805
H	 0.9245409038	 1.6840764354	-0.0713179874	 0.289212
H	 0.4494925195	-0.398377979	-0.9443452252	 0.093893
H	 0.5392971462	-0.4469681188	 0.8168607637	 0.090199
H	-2.5410638111	 1.3571616648	 0.0336180051	 0.108905
H	-4.663019144	-0.2383436981	 0.6252739783	 0.086355
H	-5.0000433703	-1.816714371	-1.3131294841	 0.117899
H	-3.4214070009	-1.2352007386	-2.0507420546	 0.108582
H	-3.7955901656	-2.937775233	 1.6594787043	 0.278223
H	-1.3297668587	-2.5341356254	-0.7273013523	 0.112493
H	-1.4060539278	-2.4219640396	 1.0246636138	 0.093723
