19
gdb 60637	2.29387	1.40251	1.13491	1.7771	70.97	-0.2494	-0.0289	0.2205	1158.6787	0.157474	-460.161052	-460.151694	-460.15075	-460.195845	33.764	
C	-0.7892717335	 0.7137705879	 0.4610102851	-0.489739
C	-0.0837357081	-0.4995475329	-0.0814722822	 0.372378
O	 0.2635984685	-1.4352618944	 0.6122802326	-0.332665
C	 0.2326972158	-0.5523682037	-1.5799049403	-0.003708
O	 1.1767138782	-1.5616070946	-1.8330450448	-0.431945
C	-1.0057537243	-0.8535281335	-2.4497579999	 0.132222
C	-1.9083473962	-2.0439268448	-2.0642375566	-0.295061
C	-3.0399679813	-0.9965508014	-2.0733898802	-0.069281
O	-2.0994660553	 0.082258532	-2.3032279542	-0.295099
H	-0.0870352397	 1.5568660704	 0.4627135685	 0.149807
H	-1.6157783422	 0.9915631622	-0.198750004	 0.172383
H	-1.1279987157	 0.5317163665	 1.4818176788	 0.140674
H	 0.6318850469	 0.427000181	-1.8854951657	 0.092932
H	 1.2223861532	-2.0674710966	-1.0042915157	 0.294005
H	-0.6538687697	-0.8874327794	-3.488179892	 0.096678
H	-1.9819200998	-2.8434662808	-2.8009422417	 0.118475
H	-1.6908868106	-2.4755564449	-1.0859419718	 0.127858
H	-3.7515189021	-1.0871700543	-2.902407826	 0.111152
H	-3.5960002742	-0.8594881085	-1.13935425	 0.108933
