19
gdb 85614	2.19349	1.65855	1.04212	4.2134	77.58	-0.2569	-0.0026	0.2543	1173.5436	0.159995	-423.071437	-423.06306	-423.062116	-423.104486	32.015	
C	-1.0301770996	 1.0451697101	 0.0195189881	-0.405988
C	 0.3168283156	 0.3353214377	-0.0586192616	 0.073955
O	 1.0375356252	 1.0105184494	-1.1152669762	-0.22804
C	 2.2185279214	 0.5482505547	-1.5910228031	 0.411662
O	 2.745310747	 1.1284778604	-2.502062493	-0.323878
C	 2.8281752538	-0.666911575	-0.9119482753	-0.347409
C	 3.3598519656	-0.3418162767	 0.4955064737	-0.255905
C	 2.3260393239	 0.0939306698	 1.4955470111	-0.060672
C	 1.0420707818	 0.3672605015	 1.2709445339	-0.049929
H	-0.8926336589	 2.0881070896	 0.3192079221	 0.136694
H	-1.5265668732	 1.0260543316	-0.9530591378	 0.131865
H	-1.6736756983	 0.5517765741	 0.7538108261	 0.120154
H	 0.1429541778	-0.7024852136	-0.3732325295	 0.098807
H	 2.1026192741	-1.4848762148	-0.8528623435	 0.122507
H	 3.6490015163	-0.9941666314	-1.5515184091	 0.130095
H	 3.8722316076	-1.2301461977	 0.8876721405	 0.118482
H	 4.1389299805	 0.4298886292	 0.4210801105	 0.134044
H	 2.6949350466	 0.1960287379	 2.5145274438	 0.097808
H	 0.4233872629	 0.6603803133	 2.1156915192	 0.095748
