18
gdb 41291	2.96921	2.05713	1.83871	1.3893	74.38	-0.24	0.0638	0.3038	837.3736	0.150718	-401.831916	-401.825869	-401.824925	-401.861824	26.448	
C	 0.0717342626	 1.5494929965	-0.1297474606	-0.196665
O	 1.5333548887	 1.5475055687	 0.0091142722	-0.346302
C	 1.4988419094	 0.2350286649	 0.5898821901	 0.383569
C	 1.7160033851	-0.3097109122	 1.9830437275	-0.249239
N	 1.0025046245	-1.5436466915	 1.4327159909	-0.15343
C	-0.3920141873	-0.9551250771	 1.2366405116	-0.241115
C	 0.024297277	 0.0373053179	 0.1530642231	 0.180354
C	 0.519924149	-0.9332476375	-0.9668124693	-0.28263
C	 1.6384260991	-1.2104928956	 0.0295564035	-0.04703
H	-0.3923711335	 2.1845015904	 0.6346776081	 0.108921
H	-0.2314310191	 1.8816380287	-1.1268243649	 0.113099
H	 2.7579649701	-0.5587066898	 2.2006330999	 0.112043
H	 1.2444965168	 0.1487205406	 2.8572212054	 0.104525
H	-1.0937814766	-1.7261048084	 0.9113637675	 0.105582
H	-0.7435380651	-0.525149116	 2.1761412125	 0.109113
H	-0.1434735037	-1.7422835264	-1.283746277	 0.100048
H	 0.9083839567	-0.3973657516	-1.8357421977	 0.118786
H	 2.5465065564	-1.7873040816	-0.1441955127	 0.080371
