23
gdb 114316	2.20537	1.27468	1.12368	1.3561	86.	-0.2379	0.0772	0.3151	1285.0364	0.204641	-388.268305	-388.258391	-388.257447	-388.302583	37.779	
C	-0.0310775511	 1.6202398137	 0.0087064667	-0.37905
C	 0.0090154372	 0.1015468837	 0.2104803187	-0.205174
C	-1.350866529	-0.5563697532	-0.017688364	 0.000758
C	-1.9571969766	-0.6519367748	-1.4570094615	-0.251038
C	-2.1958210272	-2.1514505007	-1.2467319853	-0.17422
C	-0.8940482589	-2.8442495453	-0.9760177901	 0.056215
O	 0.3222385458	-2.4541184761	-1.5576335928	-0.418806
C	-1.5112208821	-2.0810942622	 0.1512695093	 0.285915
C	-1.8773867306	-2.7310934003	 1.4574625756	-0.496501
H	 0.9523858315	 2.0708660514	 0.175742028	 0.10819
H	-0.3434452084	 1.8775365282	-1.009683393	 0.114092
H	-0.7369179871	 2.096917063	 0.6991018862	 0.106803
H	 0.7448709818	-0.3505670026	-0.4595492296	 0.121839
H	 0.3414883259	-0.1202461293	 1.2337858618	 0.086102
H	-2.0902084033	-0.0701615664	 0.6320377204	 0.062962
H	-2.8749861268	-0.0738918573	-1.5785217068	 0.097105
H	-1.2748642713	-0.4037972602	-2.2762610789	 0.089038
H	-3.0822691612	-2.6975848602	-1.5516651944	 0.078593
H	-0.9896267453	-3.9251501416	-0.8542945565	 0.080618
H	 0.2760679568	-2.6542087064	-2.4988914319	 0.283907
H	-1.0443825821	-2.683703426	 2.1698822351	 0.123273
H	-2.7371019767	-2.2339025744	 1.9215967878	 0.11447
H	-2.1346225914	-3.787067863	 1.3240926752	 0.114908
