19
gdb 126537	3.27168	0.99781	0.81097	1.8538	78.11	-0.2142	0.0312	0.2454	1437.3548	0.160254	-419.240269	-419.231065	-419.23012	-419.274907	33.776	
C	-0.011181695	 1.6243485479	 0.0514448904	-0.379113
C	 0.000693663	 0.0942523452	 0.0619895395	-0.156476
C	-1.4060356887	-0.5142664511	-0.0948976508	-0.319161
C	-1.4171950527	-2.0121983851	-0.0607231693	 0.137145
C	-1.6443158734	-2.9121606008	-1.0836072993	-0.117814
N	-1.5306642624	-4.1567487666	-0.5639408982	-0.201043
N	-1.2388434065	-4.1458627568	 0.7616323815	-0.333741
C	-1.1721072113	-2.8564157169	 1.0518449037	 0.353753
O	-0.8971735347	-2.4191026868	 2.3019198377	-0.432201
H	 0.9985466508	 2.0319524917	 0.1621279427	 0.110165
H	-0.4258095994	 2.0128325363	-0.8859938612	 0.109449
H	-0.6215735668	 2.0211556807	 0.870459573	 0.114601
H	 0.6426081349	-0.2812344208	-0.7444712338	 0.092729
H	 0.4381615915	-0.2697877419	 0.9985998051	 0.115095
H	-2.0471057811	-0.1240509846	 0.7066305137	 0.108785
H	-1.8488621463	-0.1679104482	-1.0368284102	 0.09322
H	-1.878858127	-2.7511367441	-2.1248421901	 0.129911
H	-1.6450964107	-5.0388295271	-1.0295179027	 0.27289
H	-0.7818769041	-3.2007356011	 2.8565536083	 0.301805
