16
gdb 125613	5.83811	0.89599	0.78632	3.5192	76.06	-0.2477	0.0125	0.2602	1398.0995	0.125406	-396.974967	-396.966331	-396.965386	-397.010152	30.403	
C	-0.3551687657	 1.486148782	-0.2879485895	-0.489874
C	-0.0225972974	 0.0672404735	 0.0498864565	 0.359846
N	 0.6232562534	-0.704424033	-0.8234178064	-0.284109
N	 0.7509517455	-1.8937191161	-0.2029266606	-0.253572
C	 0.2134175523	-1.9044064364	 1.0406939798	 0.411722
C	 0.2140378806	-3.1229546187	 1.9258150919	-0.460366
C	 1.0657725574	-4.192669723	 1.4062993819	 0.268585
N	 1.7371644406	-5.0193967939	 0.9585657099	-0.304869
C	-0.3035727519	-0.6422570653	 1.2437838219	-0.395334
H	 0.102878265	 2.1839041066	 0.4214153378	 0.12972
H	 0.0096300962	 1.7232658647	-1.2893114723	 0.143323
H	-1.436288484	 1.6608055077	-0.2633629236	 0.129368
H	 1.2347645822	-2.6478537872	-0.6642621118	 0.287185
H	 0.5583450031	-2.8593899288	 2.9322780739	 0.177835
H	-0.8020435706	-3.5212080793	 2.0411326906	 0.178052
H	-0.8107755567	-0.2828998428	 2.1253670901	 0.102488
