14
gdb 48490	2.50303	1.53229	1.22285	5.8247	62.39	-0.2812	-0.0614	0.2198	1027.7983	0.099237	-473.822841	-473.814457	-473.813513	-473.856898	28.755	
O	-0.6296975552	 0.7215664914	 0.6498537763	-0.213592
C	 0.2305816557	 0.8861830257	-0.1620889874	 0.155737
C	 1.3726613581	 1.9188559132	-0.0379704124	 0.201738
O	 2.5886859579	 1.2023936417	-0.0180454796	-0.28442
C	 3.4813470578	 1.8014809757	-0.9731620698	-0.096628
C	 2.7295654843	 3.0533165174	-1.4366927467	-0.124305
O	 1.3614807758	 2.7003179609	-1.1971833331	-0.261184
C	 1.2548622912	 2.7574093926	 1.1854431119	 0.2977
N	 1.189622963	 3.434802733	 2.1177219074	-0.327923
H	 0.3243676846	 0.3033953825	-1.1008328602	 0.110349
H	 4.4311174121	 2.0287431848	-0.4825479473	 0.136744
H	 3.6519780705	 1.0919068811	-1.7891114931	 0.128281
H	 3.0016100959	 3.9367076654	-0.8467359908	 0.137075
H	 2.8371122183	 3.2720289845	-2.4994390252	 0.140428
