16
gdb 76066	2.24611	1.41944	1.20143	6.0418	71.01	-0.2652	-0.0479	0.2173	1109.2378	0.122372	-437.903953	-437.895022	-437.894078	-437.938027	32.176	
C	-0.1928990983	 1.4599433186	 0.0148791781	-0.485874
C	 0.0902108242	-0.0227834152	 0.0571465805	 0.423919
O	 0.3537254992	-0.5989378894	 1.0998896867	-0.341658
C	 0.0605934103	-0.7522991022	-1.2410326027	-0.221371
C	 0.8876504484	-2.0340884711	-1.3512267687	 0.135575
O	 1.669701492	-2.4715992024	-0.3185450108	-0.404854
C	-0.6225395856	-2.1428567204	-1.3291420833	-0.254585
C	-1.2999295901	-2.704078526	-0.1969301801	 0.315298
N	-1.8631517996	-3.1878738726	 0.689626459	-0.332476
H	 0.5177906004	 1.9617334495	-0.6518330661	 0.149227
H	-1.1942560384	 1.6393284206	-0.3929335204	 0.152567
H	-0.1202879041	 1.8810652001	 1.017676232	 0.155019
H	-0.0520892174	-0.1421501125	-2.1300823215	 0.111391
H	 1.3546374505	-2.2203158622	-2.3131627297	 0.132198
H	 1.3240171821	-2.0754745051	 0.5039398405	 0.319812
H	-1.1158703737	-2.3350394997	-2.2764172135	 0.14581
