21
gdb 66847	2.49739	2.0033	1.77515	0.2677	84.45	-0.2342	0.0948	0.329	931.8689	0.185422	-349.928395	-349.921468	-349.920524	-349.959066	29.925	
C	-0.0274581354	 1.5215038883	 0.0050060696	-0.522133
C	 0.0222700223	 0.0162049714	-0.0219022931	 0.380751
C	 0.658828959	-0.7486870811	-1.2136805359	-0.145301
C	 0.9363163069	-2.0917434345	-0.6097451786	-0.045083
C	 1.2547005043	-1.9570603834	 0.8699997778	-0.229025
C	 0.357682332	-0.7920328794	 1.3139985276	-0.091516
C	-1.1267093669	-1.2548311793	 1.3833717582	-0.23989
C	-1.2504898576	-0.8887608707	-0.1087688556	-0.072054
C	-0.4691133879	-1.7745990799	-1.1040581756	-0.085219
H	 0.975411861	 1.9505979748	 0.122563879	 0.114655
H	-0.4517377952	 1.9211522579	-0.923253918	 0.115403
H	-0.6424257299	 1.8866891862	 0.8354163568	 0.114499
H	 1.1513206677	-0.3270436427	-2.0816258194	 0.076476
H	 1.4755169654	-2.8203658714	-1.207219544	 0.077881
H	 1.0525325726	-2.8662987846	 1.4477982299	 0.092691
H	 2.3180335941	-1.7162558606	 0.9947170567	 0.089451
H	 0.7484446754	-0.2333724091	 2.1670151328	 0.056696
H	-1.3102362091	-2.2910090052	 1.6854252048	 0.086087
H	-1.7377240771	-0.5923348626	 2.0041997381	 0.091378
H	-2.1918117131	-0.5026744902	-0.5063044596	 0.056916
H	-0.9165558684	-2.3738964338	-1.8887260117	 0.077337
