14
gdb 15490	3.56998	1.99334	1.28927	1.5243	67.73	-0.2273	-0.0216	0.2057	888.2401	0.108691	-378.77238	-378.765569	-378.764625	-378.803459	25.348	
N	-0.0017507247	 1.3306608506	 0.0064348111	-0.462804
C	-0.0097410408	 0.0598338579	 0.0024994119	 0.085882
N	-1.1997404948	-0.6493810742	 0.0094018959	-0.101091
C	-2.4979476375	-0.0931492024	 0.0212331627	 0.005789
C	-3.4293980123	-1.0480088609	 0.0254260428	-0.153916
C	-2.7611957341	-2.3969160143	 0.015978751	-0.399801
C	-1.2683283563	-2.054623535	 0.0054697799	 0.425614
O	-0.3165841159	-2.7954381741	-0.004218105	-0.358717
H	 0.9557891583	 1.6763472079	 0.000062634	 0.234831
H	 0.8505790435	-0.6134543047	-0.0063533572	 0.135883
H	-2.5830630594	 0.9820647053	 0.0253051719	 0.162923
H	-4.4963039632	-0.8855254006	 0.0342111969	 0.118953
H	-2.9887129229	-3.0125024381	 0.8941067244	 0.153229
H	-3.0023445497	-3.0069418174	-0.8623922005	 0.153226
