16
gdb 50488	3.7534	0.99777	0.79604	3.6057	89.47	-0.2078	-0.0326	0.1752	1364.955	0.124099	-400.758623	-400.74998	-400.749036	-400.794274	30.8	
O	-0.126139074	-0.01690864	 0.0165996262	-0.321448
C	-0.0323291315	 1.1914539937	 0.0200380997	 0.145081
N	 1.1491284075	 1.8811020941	 0.0045964328	-0.061959
C	 1.2742025407	 3.3524925646	 0.0014680735	-0.183585
C	 2.8070963445	 3.6025264134	 0.0087333668	-0.347762
C	 3.4002390164	 2.1972743808	-0.0229999615	 0.095789
C	 2.4074697769	 1.2898874645	-0.0199563546	-0.086143
C	 4.7842085172	 1.9451042836	-0.0445925686	 0.23845
C	 5.9794703743	 1.7842533275	-0.0628030185	-0.439074
H	-0.9040758142	 1.8731903478	 0.036801892	 0.079361
H	 0.7949356189	 3.7692152106	-0.8892061276	 0.131682
H	 0.7816613958	 3.7759564245	 0.8811791137	 0.131779
H	 3.1279410019	 4.1923212411	-0.8553423849	 0.130743
H	 3.1277366505	 4.1482049288	 0.9018740772	 0.130636
H	 2.4641812231	 0.2124922517	-0.0323629156	 0.162627
H	 7.028548872	 1.6230495335	-0.0788174805	 0.193823
