13
gdb 823	7.63332	1.89883	1.67376	2.0903	58.33	-0.2319	0.0083	0.2402	722.119	0.101982	-340.536374	-340.530232	-340.529288	-340.56622	23.232	
O	-0.1408469395	 1.3158563293	-0.0418624262	-0.391441
N	 0.0223073892	-0.0801404118	 0.0390035674	-0.263882
C	-1.0935373798	-0.6705801473	-0.0416257589	 0.488899
C	-2.5704524468	-0.2618089916	-0.0627814149	-0.317966
C	-2.8871085988	-1.7610435406	 0.1121502441	-0.04243
N	-2.3255761994	-2.4368633107	-1.0703570344	-0.326301
C	-1.429100847	-2.117376078	 0.0919362973	-0.161624
H	 0.7661574738	 1.629488523	 0.0399856701	 0.307238
H	-2.822593429	 0.3564710649	 0.8031340278	 0.129533
H	-2.9483228769	 0.201914638	-0.9762894344	 0.131432
H	-3.6861920057	-2.2005044663	 0.6942295545	 0.105392
H	-2.5465009449	-3.4300981282	-0.9847327207	 0.233513
H	-0.8749655852	-2.8959929507	 0.5983154984	 0.107635
