16
gdb 832	6.81068	1.91942	1.52577	1.7549	68.34	-0.1894	0.0527	0.2421	823.6177	0.137355	-288.690999	-288.683565	-288.682621	-288.722372	26.956	
C	 0.0039338263	 1.5166545011	 0.070724027	-0.501459
C	 0.0112884114	 0.0273973715	-0.038296815	 0.327913
C	 0.0091291249	-0.8003852008	-1.1385627818	-0.317906
C	 0.019136298	-2.1560547494	-0.6865019961	 0.294463
C	 0.0207622843	-3.391092862	-1.5362454981	-0.499323
C	 0.0271451182	-2.1071270753	 0.6877120654	-0.184
N	 0.022631217	-0.7850426741	 1.0706413565	-0.295695
H	 0.8887397868	 1.9002743631	 0.5948196503	 0.123248
H	-0.0047788635	 1.9609143898	-0.9271926173	 0.136309
H	-0.8782803509	 1.8907622021	 0.6059635987	 0.123202
H	 0.001340899	-0.4685166366	-2.1669912434	 0.080103
H	 0.8972500461	-3.4327568007	-2.1941077335	 0.120178
H	 0.0301310972	-4.2948880993	-0.919424923	 0.114126
H	-0.8637891448	-3.4430869078	-2.1824856974	 0.12018
H	 0.0360223802	-2.9000254929	 1.4192101739	 0.106533
H	 0.0250664501	-0.4593876887	 2.0212399039	 0.252127
