19
gdb 86969	2.43618	1.43502	1.18441	1.0638	82.37	-0.2454	0.0192	0.2645	1145.2194	0.158513	-385.863541	-385.854824	-385.85388	-385.896717	33.585	
C	 0.068798505	 1.574290973	-0.0496443948	-0.397207
C	 0.019443426	 0.0531363803	 0.073089911	 0.095497
O	 0.555528042	-0.463278761	-1.1450643996	-0.268441
C	 0.8553643901	-1.8539208732	-1.1207826484	-0.069098
C	 1.9594959301	-2.1458263425	-0.0843388902	-0.266428
C	 1.6612743239	-1.4349073612	 1.2077549386	-0.07897
C	 0.7680761432	-0.4519986139	 1.2781374602	-0.046774
C	-0.340626447	-2.6797586813	-0.9005018658	 0.35145
C	-1.3204485407	-3.3548320939	-0.7293946226	-0.496242
H	 1.1046049835	 1.9183835074	-0.119132842	 0.124886
H	-0.4667585584	 1.894284069	-0.9472784579	 0.125938
H	-0.3991334319	 2.0425922245	 0.8215165052	 0.113373
H	-1.0361468032	-0.2589873069	 0.1583099572	 0.087603
H	 1.2350210183	-2.0678677064	-2.1260252488	 0.112986
H	 2.0395777873	-3.2267933568	 0.0756614368	 0.116734
H	 2.9241337541	-1.8157116676	-0.491626906	 0.115132
H	 2.1967548507	-1.7593929416	 2.0958386472	 0.091208
H	 0.5353040025	 0.0284505648	 2.2249517872	 0.089102
H	-2.1856876155	-3.9529811229	-0.5823096574	 0.199253
