17
gdb 90361	2.4152	1.55659	1.31853	5.2121	68.35	-0.2661	0.0126	0.2787	1036.8334	0.134764	-458.97466	-458.966285	-458.96534	-459.007635	31.43	
C	 0.1329447603	 1.622705174	-0.0654928534	-0.485752
C	 0.1293382723	 0.1275186676	 0.082265338	 0.43227
O	-1.2007225686	-0.3789233139	 0.4492835195	-0.275195
C	-0.7083031638	-1.0511076994	 1.5447115885	 0.454526
O	-1.3258222909	-1.6595676241	 2.3580420712	-0.330547
C	 0.7441229954	-0.7230108468	 1.2354965111	-0.289641
C	 1.3109458463	-1.7304289473	 0.1806645962	-0.289353
C	 0.811958378	-0.7881462809	-0.9625236797	 0.086307
O	-0.0629583244	-1.2829723427	-1.9361610397	-0.422204
H	 1.1471313383	 1.9902128895	-0.248305683	 0.123467
H	-0.4972006142	 1.9175015863	-0.9110086854	 0.147628
H	-0.2564723176	 2.104004809	 0.8360826564	 0.134867
H	 1.3891591038	-0.3553622934	 2.0297442071	 0.105821
H	 2.3942521266	-1.8555923636	 0.2207092266	 0.112595
H	 0.8345806444	-2.7124556479	 0.1991493165	 0.129679
H	 1.6610533296	-0.2499391509	-1.4104123333	 0.074598
H	 0.4395758045	-1.8197251355	-2.5572446866	 0.290932
