16
gdb 83107	2.651	1.79898	1.30634	1.1891	70.72	-0.243	-0.0105	0.2326	966.4178	0.126309	-434.052498	-434.044957	-434.044013	-434.0849	28.304	
O	-0.1164986278	 1.5077217643	-0.298828766	-0.419614
C	 0.0309544174	 0.1338139065	-0.0388294352	 0.031885
C	-1.3064528924	-0.6673355681	-0.0540514391	-0.024107
C	-2.5995996483	-0.0390763317	-0.6181860739	-0.191688
N	-2.7894948855	-0.6389506663	-1.957532558	-0.200254
C	-1.7744070865	-1.3493711584	-2.2255783704	 0.015397
N	-0.7841461448	-1.4740941985	-1.2094076098	-0.139702
C	 0.4202140242	-0.6955642214	-1.2641349933	 0.330951
N	 1.4082136989	-0.6078494579	-2.0364110228	-0.528526
H	 0.6365041765	 1.7774490188	-0.8380622105	 0.304049
H	 0.651105371	-0.046521635	 0.8492369681	 0.09385
H	-1.472746109	-1.2756494013	 0.8364295095	 0.095917
H	-3.467670917	-0.2570889944	 0.0084529414	 0.121709
H	-2.5251286008	 1.0474319806	-0.7267972425	 0.143528
H	-1.6295173918	-1.8616635153	-3.1711654135	 0.136666
H	 1.3563800359	-1.2569123419	-2.8232111841	 0.229938
