16
gdb 34314	3.42078	1.44772	1.29507	1.907	67.78	-0.2733	0.0161	0.2894	979.4127	0.127098	-437.902762	-437.895868	-437.894924	-437.934079	26.998	
N	-0.0495311091	-1.096040195	-0.0110378669	-0.331056
C	-0.0204716341	 0.0593783034	-0.0004458904	 0.176712
C	-0.0026343517	 1.5060735435	 0.0129645138	 0.096284
C	-0.6321332345	 2.1695001869	 1.2693715365	-0.099593
O	-0.1502247107	 3.5210604374	 1.1961556267	-0.261499
C	 0.6462505345	 3.5828123326	 0.0253851119	 0.18938
C	 1.3679905238	 2.2334408911	 0.0050011438	-0.280381
O	-0.1752267966	 3.5428034075	-1.1289362892	-0.261494
C	-0.6589344283	 2.1927741304	-1.2169639927	-0.099585
H	-1.7262716879	 2.1549650445	 1.2363951588	 0.125628
H	-0.292538034	 1.696442431	 2.197506967	 0.124398
H	 1.2157860862	 4.5093366959	 0.0279242188	 0.107955
H	 1.966334831	 2.0413841845	 0.8961500008	 0.13161
H	 1.946965674	 2.0582071405	-0.9022629545	 0.131612
H	-0.3395724183	 1.7371934326	-2.1608895144	 0.124402
H	-1.7521104943	 2.1774393932	-1.1606444199	 0.125627
