20
gdb 69972	2.47602	1.83586	1.3515	3.2885	78.28	-0.223	0.067	0.2899	1026.4218	0.170588	-403.076976	-403.068744	-403.0678	-403.109077	32.802	
C	-0.0423906038	 1.5659724003	 0.1178881482	-0.515384
C	 0.1051654223	 0.0780122371	 0.0218334811	 0.27571
N	-0.8392147935	-0.8366300988	 0.6948479254	-0.36111
C	 0.6108557323	-0.9429760411	 0.9971247237	-0.136369
C	 1.2537678519	-1.7580520315	-0.1497478469	 0.083818
O	 0.4711599051	-2.8166877832	-0.7229757883	-0.290724
C	-0.0980291951	-1.9180454328	-1.7108767354	-0.126132
C	 0.7306276116	-0.7213827587	-1.1712322609	 0.249224
C	 1.63717864	 0.0361938352	-2.1132279122	-0.501169
H	 0.8594239568	 2.085275867	-0.2208308851	 0.127195
H	-0.8809145103	 1.9222573839	-0.4928972362	 0.129257
H	-0.2326591787	 1.8695146205	 1.1533790211	 0.118863
H	-1.2599053072	-0.319204285	 1.4667598286	 0.224804
H	 0.9658549703	-0.8313552996	 2.0157419562	 0.087
H	 2.3119149114	-2.0070948674	-0.0253592614	 0.070374
H	 0.1776610485	-2.2275928315	-2.727183537	 0.087396
H	-1.1839468834	-1.8425848182	-1.6152850349	 0.114663
H	 1.0670138569	 0.708341812	-2.7657756492	 0.12029
H	 2.3649000834	 0.6457802071	-1.5659500651	 0.117985
H	 2.1971727914	-0.6537817456	-2.7526393916	 0.124308
