21
gdb 111527	3.2012	1.23186	1.11249	1.1688	83.45	-0.2381	0.0908	0.329	1209.5477	0.182037	-387.029807	-387.02113	-387.020186	-387.063167	33.462	
C	-0.4023293451	 1.0494693157	 0.0973736333	-0.23447
O	 0.5073810384	 0.0007510692	-0.1641380402	-0.236551
C	 0.9526812095	-0.6245562407	 0.9979737008	 0.137607
C	 0.165168924	-1.6951228595	 1.6997859516	-0.116607
C	-0.6195874687	-2.5505527221	 0.6901119475	-0.321284
C	 0.7032664543	-2.8591478228	-0.0363054235	 0.421602
C	 1.1251716255	-4.2024728038	-0.5521140171	-0.348959
C	 0.9522483143	-3.0352848921	-1.5017729213	-0.306302
C	 1.4887733058	-2.0133948881	 0.9465479083	-0.218583
H	 0.0607670027	 1.8471385256	 0.6990025323	 0.10323
H	-0.7024152803	 1.4654277933	-0.8673354983	 0.125449
H	-1.295223355	 0.6916230128	 0.6300735734	 0.109734
H	 1.4913443127	 0.0424692881	 1.6761479627	 0.079973
H	-0.0193269639	-1.6686516422	 2.7672636519	 0.083311
H	-1.0637645995	-3.4378025344	 1.1485932454	 0.101957
H	-1.3848658655	-2.0232770307	 0.1120900847	 0.099681
H	 2.1341161859	-4.5405507188	-0.3355925106	 0.108006
H	 0.3862471227	-4.9977714422	-0.5737430651	 0.107039
H	 0.0923652925	-3.0398627907	-2.1638523524	 0.10818
H	 1.840584633	-2.5829459766	-1.9297675134	 0.112238
H	 2.4665398769	-2.2659315899	 1.3425584601	 0.084748
