20
gdb 83006	2.58712	1.77614	1.54298	2.2248	77.17	-0.2164	0.063	0.2794	970.2917	0.173158	-403.097585	-403.090065	-403.089121	-403.129323	30.025	
C	-0.1970484026	 1.5592472129	-0.1738815975	-0.307817
N	 0.0772314417	 0.1451366469	 0.0277596461	-0.080064
C	 1.3331144089	-0.5003907792	-0.2846709669	-0.03473
C	 2.6279077988	 0.3154661277	-0.3864458108	-0.276346
C	 2.9837769767	 0.7807828291	 1.0473192006	-0.068505
C	 2.6386090452	 2.2088907544	 1.5171520399	-0.092833
O	 1.4856246076	 1.742842759	 2.2507688818	-0.291828
C	 1.8104244039	 0.3559208269	 1.9643348103	 0.118658
C	 0.8134008066	-0.4383857252	 1.1342702629	-0.067428
H	 0.6833591035	 2.2063496126	-0.255421455	 0.103156
H	-0.7696188342	 1.6580521696	-1.1030331809	 0.112938
H	-0.8088676745	 1.9289505393	 0.6510045108	 0.137278
H	 1.2573982967	-1.3981013346	-0.8955197578	 0.08723
H	 3.4177257615	-0.3236036814	-0.7920348075	 0.106727
H	 2.5282124579	 1.159472257	-1.0793212145	 0.109251
H	 3.9768698321	 0.4413079083	 1.3453368308	 0.081614
H	 3.3832185531	 2.6569323629	 2.187024975	 0.10044
H	 2.3760960519	 2.9419537447	 0.7444544289	 0.1031
H	 2.0616961502	-0.1818729627	 2.8862549753	 0.074229
H	 0.3178199752	-1.2791079881	 1.6152835686	 0.084932
