16
gdb 12876	2.72546	2.33592	1.81028	2.7453	64.91	-0.2321	0.0023	0.2344	796.7003	0.130475	-383.723966	-383.716817	-383.715873	-383.754724	28.464	
O	 0.0455398817	 1.3816030113	 0.1264279334	-0.426067
C	-0.0302671683	-0.0014510427	-0.0110099501	 0.097927
C	-1.3461167097	-0.7575246519	-0.0380871794	-0.185724
C	-2.6016728089	 0.0436992406	-0.3684538527	-0.279233
C	-2.3496364892	 0.5653557	-1.7695049942	-0.085377
C	-1.1804235287	 0.1424943515	-2.2623029761	-0.191442
C	-0.4303922842	-0.6977303036	-1.2801327341	 0.318362
O	 0.3747131125	-1.7415351668	-1.726804215	-0.464117
H	-0.4024325131	 1.7757658415	-0.632874953	 0.283556
H	 0.769593993	-0.4893576426	 0.5371326671	 0.115255
H	-1.4192827548	-1.6615909532	 0.5553550665	 0.090051
H	-3.5127832439	-0.5654671712	-0.3230262353	 0.112087
H	-2.744223794	 0.871053423	 0.3398814144	 0.125797
H	-3.0413827398	 1.2296488846	-2.2757654504	 0.102894
H	-0.7710665024	 0.3793093581	-3.2380821043	 0.1053
H	-0.1944803703	-2.3957288086	-2.1489226168	 0.28073
