23
gdb 104883	2.32114	1.41028	1.12137	0.5029	81.08	-0.2563	0.0814	0.3377	1236.9776	0.205239	-425.441536	-425.431626	-425.430681	-425.476461	36.773	
C	 0.320751826	-0.8394065435	 0.981177248	-0.385539
C	-0.1705763072	-0.2567502593	-0.3456678893	-0.256065
C	 0.829814129	-0.4084228812	-1.4960917943	 0.503931
C	 1.090387577	-1.8635579747	-1.9667003599	-0.283479
C	 0.8285188368	-1.8285681564	-3.4892419617	-0.215648
C	 0.8233360934	-0.3258695961	-3.7913329913	-0.092481
O	 0.2796852379	 0.2678584511	-2.6147122012	-0.278991
O	 2.1155594226	 0.1152883647	-1.178089799	-0.288622
C	 2.167344825	 1.5058557106	-0.9088353137	-0.255462
H	 0.5046271168	-1.9162146418	 0.904993695	 0.117347
H	 1.2561416731	-0.3704596537	 1.2979813387	 0.129072
H	-0.4228235874	-0.6862789199	 1.7688932042	 0.111252
H	-1.1016685466	-0.7411400068	-0.6585638758	 0.101711
H	-0.4085685813	 0.8062375986	-0.2306289581	 0.105521
H	 2.1217858172	-2.1285138435	-1.7302837	 0.120998
H	 0.4324317663	-2.5703881421	-1.4570178621	 0.104194
H	 1.5805536974	-2.3725974891	-4.0656365732	 0.102837
H	-0.1495420747	-2.2589678983	-3.7233287855	 0.106271
H	 1.8412937272	 0.045341328	-3.9750381625	 0.099101
H	 0.1881933997	-0.0385757116	-4.6327761798	 0.103259
H	 1.637275038	 2.0814898886	-1.6751392517	 0.125678
H	 1.7491789156	 1.7553099345	 0.0763460484	 0.104756
H	 3.2241681683	 1.7843117819	-0.9150022952	 0.120361
