15
gdb 35410	3.11973	1.65715	1.3696	6.2373	68.13	-0.247	0.0147	0.2618	931.4594	0.113564	-416.72841	-416.721514	-416.72057	-416.759832	26.911	
N	-0.2103850464	-1.1827165783	-0.2550222681	-0.334927
C	-0.0999359217	-0.0456304647	-0.081704524	 0.328159
C	 0.0158563913	 1.4068989588	 0.0585898913	-0.157394
N	-0.1644162344	 1.9398071281	 1.4380742093	-0.294237
C	 1.1030951635	 2.7018464826	 1.3524348902	-0.061407
C	 2.3388464194	 1.9639518561	 1.953693124	 0.034729
O	 2.1451342978	 0.5698401738	 1.7326145778	-0.206522
C	 2.6337580175	 1.3413059485	 0.6420587902	 0.014586
C	 1.437548396	 2.0630128238	-0.0223718114	-0.089342
H	-0.6552764701	 1.865192055	-0.6778561764	 0.119735
H	-0.994749099	 2.5093823311	 1.5431005057	 0.231473
H	 1.0637572202	 3.7816255321	 1.501347102	 0.0862
H	 2.9849762959	 2.250485988	 2.7756896558	 0.11356
H	 3.5642317985	 1.0275455224	 0.1844019515	 0.117965
H	 1.6627338014	 2.6563294027	-0.9060025881	 0.097421
