17
gdb 107520	2.18732	1.5593	1.10586	4.3183	73.11	-0.2374	-0.002	0.2354	1128.0918	0.13537	-417.956271	-417.947671	-417.946727	-417.989792	31.595	
C	 0.1415881873	 1.4117804513	 0.2801065269	-0.336609
N	 0.0033059083	 0.0198944077	-0.1523957272	-0.375019
C	-1.2962488641	-0.5097504392	-0.1034384125	 0.280553
C	-1.9198797312	-0.997635825	 1.191126669	-0.325246
C	-1.7923141335	-1.9331108783	 0.0313717784	 0.035005
O	-2.8723159647	-1.7337910393	-0.8939469255	-0.284892
C	-2.4325267279	-0.3804723095	-1.1593357386	-0.075596
C	-3.4729726751	 0.6253128831	-0.9488379117	 0.284203
N	-4.2711179066	 1.4413304194	-0.7651124245	-0.326459
H	 1.1984927437	 1.6903985308	 0.2555286021	 0.125371
H	-0.4219813463	 2.1332401844	-0.3314363107	 0.117607
H	-0.2090457683	 1.5010140638	 1.3124108634	 0.138343
H	 0.4387897915	-0.1307214227	-1.0552798716	 0.226259
H	-1.1864784896	-1.1401658352	 1.9777562665	 0.132622
H	-2.9021680154	-0.6616635551	 1.5091784354	 0.1389
H	-1.2907298085	-2.8922079762	 0.0223592823	 0.122393
H	-2.0438707996	-0.3005602502	-2.1821976319	 0.122565
