21
gdb 59259	2.54986	1.27604	1.05663	1.6596	79.1	-0.2288	0.0764	0.3052	1249.984	0.18046	-424.186036	-424.176375	-424.17543	-424.22049	36.212	
C	 0.160422358	 1.3315448381	-0.3856016439	-0.399116
C	 0.0715423143	-0.0920851534	 0.1682240294	 0.088724
O	 0.4358200996	-0.1324123776	 1.5502851866	-0.442939
C	-1.3326039749	-0.6453986376	 0.1059627945	-0.039587
C	-2.0356765313	-1.1305288469	-1.1517994392	-0.21926
C	-1.0790098492	-1.9507917348	-2.005637631	-0.098284
O	-0.6808388282	-2.7557028169	-0.8663965706	-0.318511
C	-1.6607454331	-2.0999364251	-0.0385097682	 0.437958
C	-2.4227100523	-2.9546736158	 0.9193236784	-0.488191
H	 1.184446571	 1.7161833409	-0.3113322608	 0.101681
H	-0.1312005068	 1.3612024759	-1.4404580652	 0.11686
H	-0.4966951835	 2.0025729424	 0.1768953534	 0.120101
H	 0.7341603247	-0.7526085443	-0.4082083208	 0.080954
H	 1.34155448	 0.1845440369	 1.6241178261	 0.27851
H	-2.0177971455	-0.1296451199	 0.7769474489	 0.091358
H	-2.9997569694	-0.7547022566	-1.4687272872	 0.09465
H	-1.5918496319	-2.5703266467	-2.7505222832	 0.107213
H	-0.2293931706	-1.44337444	-2.4782303718	 0.100962
H	-1.749981474	-3.3575135541	 1.6846135665	 0.139078
H	-3.1942288047	-2.3676693643	 1.4256325533	 0.123763
H	-2.8990130122	-3.79543436	 0.4052810748	 0.124076
