16
gdb 20276	5.34839	2.077	1.98569	2.119	66.29	-0.2293	0.0881	0.3173	718.3373	0.132858	-346.517376	-346.51206	-346.511116	-346.546397	23.056	
C	-0.015281803	 1.5226224349	 0.0532606819	-0.296071
C	 1.3123637075	 0.8013840878	 0.0112092805	-0.065894
C	 0.0134924183	 0.0117680272	 0.0203671108	-0.065893
C	 0.0680960855	-0.660036548	-1.3389092658	-0.041522
C	 0.7064070336	 0.307275292	-2.3798712896	 0.031539
O	 1.3754332303	-0.8012626112	-3.0716114758	-0.318308
C	 1.5524457723	-1.0759065718	-1.6458524982	 0.052276
C	 1.8696183103	 0.4351455534	-1.3516079706	-0.041522
H	-0.2868154767	 1.9802397633	 0.9990951946	 0.11288
H	-0.3581752687	 2.0765973623	-0.8145373686	 0.113904
H	 1.9700218211	 0.8377406765	 0.8715113476	 0.089635
H	-0.3126143076	-0.5499368719	 0.8876030054	 0.089635
H	-0.7340580319	-1.3168151523	-1.6725984082	 0.078552
H	 0.2365560807	 1.0729923364	-2.9977867429	 0.092148
H	 2.101344895	-1.9755392888	-1.3626746279	 0.090088
H	 2.8184219035	 0.8428108203	-1.6976404633	 0.078552
