14
gdb 42762	2.72566	1.59012	1.28731	3.8811	67.09	-0.2558	-0.0486	0.2073	971.0302	0.101503	-436.677366	-436.670183	-436.669239	-436.709121	27.051	
O	-0.0013748092	-0.011178237	 0.0263075791	-0.279992
C	-0.0420693768	 1.1719121279	-0.0199807829	 0.429699
C	-1.0652222424	 2.3268926198	 0.0517417471	-0.029995
C	-0.039344	 2.9921297902	 1.0102040778	-0.284543
C	 1.0089398853	 2.3527322912	 0.0259147751	 0.015918
C	 0.6035129313	 3.0531874115	-1.2919080288	-0.112078
O	-0.8419275474	 3.0000136927	-1.1920294779	-0.271422
C	 2.4005201726	 2.1833480255	 0.3298194012	 0.178321
N	 3.5209166829	 2.0362901506	 0.5752383315	-0.328532
H	-2.1256653838	 2.2132739454	 0.2541439095	 0.122529
H	-0.0616150516	 4.0822909525	 1.038421098	 0.139844
H	-0.006215257	 2.5560131364	 2.0093232431	 0.147384
H	 0.9384239744	 4.0939426459	-1.3418427389	 0.132829
H	 0.9469474016	 2.5133131373	-2.1796631337	 0.140037
