19
gdb 113330	2.15309	1.23833	0.91687	4.1009	77.96	-0.2483	0.0186	0.267	1329.405	0.157718	-419.182017	-419.172143	-419.171199	-419.216952	35.592	
C	 0.5098290719	 1.2874164892	 0.2954233834	-0.379798
C	-0.1352415442	-0.0500243646	-0.057272011	-0.140597
N	 0.5014524701	-0.5975285404	-1.2610882596	-0.102355
C	 1.6604975204	-1.4536283109	-1.1088250056	-0.277549
C	 0.3472904277	-2.0261803901	-1.5644557868	 0.119134
C	-0.4452900434	-2.9933950527	-0.6652329176	-0.162628
O	 0.0648026121	-3.1340119811	 0.644576777	-0.398187
C	 0.1546741262	-2.3062355561	-2.9753385715	 0.264002
N	-0.0114431111	-2.5707969322	-4.0886185802	-0.338532
H	 1.5684864864	 1.1588609931	 0.5438857104	 0.119252
H	 0.4408889992	 1.9835198662	-0.5447862412	 0.1326
H	 0.012503099	 1.732684342	 1.1621327484	 0.118253
H	-0.0800293578	-0.7393310585	 0.7954233409	 0.123313
H	-1.1946231686	 0.1000816572	-0.2946797644	 0.111668
H	 2.4657206981	-1.3110673881	-1.8239245945	 0.134815
H	 1.9651455382	-1.7271401245	-0.1002610993	 0.119293
H	-1.4688397177	-2.6205023233	-0.5551681153	 0.139737
H	-0.5081680258	-3.9599893841	-1.1816574072	 0.124666
H	 0.8516808193	-3.6871137411	 0.6035857439	 0.292914
