19
gdb 19687	5.10024	1.51104	1.37167	1.8331	74.05	-0.2338	0.0828	0.3166	969.3527	0.166743	-327.859748	-327.852636	-327.851692	-327.891038	27.894	
C	 0.0096150672	 1.5772130084	-0.0258097713	-0.384065
C	 0.1200496955	 0.0489120351	-0.0026941651	-0.195229
C	 0.6761095905	-0.5377048512	-1.2992220433	 0.015923
C	 0.6385378038	-2.067716832	-1.3336429637	-0.045283
C	-0.6774552915	-2.0867144527	-2.0130251253	-0.050465
C	-0.340875203	-0.6157157742	-2.4789775404	-0.086764
C	 0.485997842	-1.2981985302	-3.578927901	-0.155354
N	 0.5272809642	-2.5539366303	-2.7556213077	-0.158767
H	 0.9878739195	 2.0417780397	-0.1915293111	 0.115937
H	-0.6579213203	 1.9205282991	-0.8232004753	 0.116147
H	-0.3829342828	 1.9587996379	 0.9217550091	 0.113729
H	 0.7681525561	-0.2532395267	 0.8306338471	 0.095338
H	-0.8630814028	-0.3949236524	 0.2013120949	 0.097837
H	 1.6361337763	-0.0623364171	-1.5437269297	 0.060939
H	 1.05593497	-2.7707993806	-0.6236111708	 0.093551
H	-1.580235412	-2.6691026848	-1.8864316394	 0.094643
H	-1.0336529404	 0.200295303	-2.6782619461	 0.071605
H	-0.0788265489	-1.5075770808	-4.4910231283	 0.105938
H	 1.4627652267	-0.8699825802	-3.8356882426	 0.09434
