19
gdb 30687	3.99006	0.94993	0.87861	4.7792	77.78	-0.2267	0.0235	0.2502	1382.7334	0.160516	-419.250638	-419.241686	-419.240742	-419.285078	33.143	
C	 0.0014457799	 1.5725978605	 0.0042080563	-0.384804
C	-0.056898403	 0.0581090479	 0.2084699771	-0.169855
C	-1.456838203	-0.5235617324	-0.0724815222	 0.013145
O	-1.8868092716	-0.2052967631	-1.3892921263	-0.439215
C	-1.484928547	-2.0143956586	 0.1260661274	 0.303087
C	-1.8299155708	-2.7746374613	 1.2113563744	-0.206895
N	-1.6366852693	-4.0838674986	 0.8190342484	-0.237209
C	-1.1985084369	-4.0606582512	-0.468313383	 0.014907
N	-1.0929538339	-2.8309458546	-0.9152717509	-0.325846
H	 1.0148613012	 1.9552074942	 0.1597940158	 0.103487
H	-0.3155820585	 1.8300256835	-1.0093229567	 0.134132
H	-0.6628515681	 2.0927445187	 0.7043156262	 0.105829
H	 0.6573729524	-0.4445791062	-0.4556866641	 0.100766
H	 0.2311371499	-0.2041744298	 1.2347088958	 0.084128
H	-2.1743247942	-0.0519336887	 0.6125977221	 0.076096
H	-1.573225098	-0.9310815386	-1.9460066261	 0.290777
H	-2.1876521376	-2.5211187921	 2.1951412847	 0.133024
H	-1.8075094573	-4.9031949973	 1.3774829107	 0.269462
H	-0.9792775241	-4.9610551722	-1.0223110597	 0.134982
