14
gdb 34443	3.09805	1.75266	1.28429	3.3307	65.37	-0.2657	0.0053	0.271	924.3891	0.101783	-436.62045	-436.613923	-436.612979	-436.651409	25.554	
N	-0.0095484162	-1.1347171712	 0.0363882223	-0.322295
C	-0.0072948508	 0.0212383694	 0.0366181819	 0.184336
C	-0.0255012461	 1.4605333881	 0.0584215399	 0.157379
C	-0.9115500376	 2.194117483	 1.0648652991	-0.148879
O	-0.6256204292	 3.5689597125	 0.7414839081	-0.267658
C	 0.2955470796	 3.4679729506	-0.3043033717	 0.092122
C	 1.3021670597	 2.2982532555	-0.083888239	-0.013735
O	 1.3645441415	 2.0489757076	-1.5190546747	-0.300762
C	-0.0510830915	 2.2992772754	-1.2759585726	-0.013713
H	-1.9773681408	 1.9863397007	 0.9247822732	 0.134462
H	-0.6383481698	 1.985314963	 2.1043478613	 0.13445
H	 0.6264837417	 4.4325245026	-0.6791516207	 0.124311
H	 2.2148976082	 2.2231011466	 0.5044349405	 0.119986
H	-0.7498956188	 2.2253553262	-2.1072509176	 0.119997
