22
gdb 76910	2.36563	1.25172	1.08007	2.6878	83.82	-0.2228	0.0823	0.3051	1272.8502	0.192169	-404.301161	-404.291214	-404.29027	-404.335802	37.415	
C	-0.0985157799	 1.5147102332	 0.0707038729	-0.443555
C	-0.0038924392	 0.004713326	 0.0025677942	 0.249453
C	-1.2216607747	-0.6829266055	-0.5849914962	-0.450617
C	 1.3446930577	-0.6380156039	-0.2701609363	 0.074571
O	 2.495408771	 0.1379906472	-0.3879493221	-0.43737
C	 0.72054466	-0.7654390565	 1.1037830168	-0.076239
N	 1.4171849841	-0.0299807431	 2.1264281273	-0.084354
C	 0.7454978035	 0.1565028681	 3.4107185702	-0.217343
C	 1.8906920403	-0.7859903005	 3.2841838728	-0.225287
H	 0.8281473468	 1.9653694122	 0.4267753427	 0.123388
H	-0.3077022762	 1.9233104179	-0.9244543602	 0.114951
H	-0.910601299	 1.8304013463	 0.7359941479	 0.106618
H	-1.420483485	-0.3215278453	-1.6006879682	 0.118175
H	-1.0860577959	-1.7682792508	-0.6410564016	 0.11016
H	-2.1171284121	-0.4918041328	 0.0190883566	 0.111564
H	 1.3730489653	-1.5097690175	-0.9191660944	 0.089722
H	 2.6750017823	 0.4718712028	 0.5041563928	 0.288697
H	 0.2894654501	-1.7224361976	 1.4080625375	 0.067769
H	 0.8799198977	 1.1276793296	 3.8780355245	 0.121824
H	-0.2468609933	-0.2739198593	 3.5244787371	 0.117569
H	 1.6708691581	-1.851276853	 3.3126606467	 0.118426
H	 2.8726163385	-0.5127671074	 3.6590386089	 0.121881
