19
gdb 62190	4.7495	0.62258	0.56964	1.1477	85.07	-0.2582	0.0343	0.2925	1906.1385	0.154513	-385.811265	-385.800539	-385.799595	-385.84834	37.924	
C	 0.0225733761	 1.5178111778	 0.0846122945	-0.397014
C	 0.0043810309	-0.0158538024	-0.0173891699	-0.036664
O	-1.3177476453	-0.5435265538	 0.0468981449	-0.255139
C	-1.869319387	-0.5977810841	 1.3457665461	-0.052057
C	-3.1906972191	-1.3680902277	 1.2395067404	-0.349975
C	-3.8651013981	-1.4806538769	 2.5254113215	 0.285638
C	-4.3977418798	-1.5580395927	 3.5999223136	-0.447457
C	 0.6032631021	-0.4676335756	-1.2736243434	 0.318044
C	 1.1187860464	-0.8096331067	-2.3029732008	-0.438872
H	 1.0474663548	 1.8888941774	 0.0001172041	 0.130404
H	-0.5752742287	 1.9501751559	-0.7214086772	 0.137011
H	-0.3831605769	 1.8472491685	 1.0449457418	 0.120932
H	 0.5948447263	-0.4331338739	 0.8159991072	 0.097399
H	-1.1872043437	-1.1140829187	 2.0393501724	 0.101873
H	-2.0595696634	 0.4055463749	 1.7533380174	 0.104666
H	-3.8347381005	-0.8569684602	 0.5142739744	 0.142673
H	-2.9840758309	-2.3620275898	 0.8261568692	 0.142697
H	-4.880624501	-1.6350601429	 4.5423173822	 0.196686
H	 1.5693002679	-1.1236979891	-3.2119877485	 0.199157
