18
gdb 90388	2.12213	1.55517	1.31728	5.5824	76.94	-0.2294	0.0341	0.2635	1077.1395	0.148113	-398.091053	-398.082268	-398.081324	-398.124085	33.417	
C	-0.2656473221	 1.518143152	-0.0503962383	-0.413149
C	 0.0585522286	 0.0357555795	-0.0060789743	-0.012888
N	 1.2111940884	-0.4373128171	-0.8552908375	-0.332791
C	 1.7107584334	-1.241319734	 0.2680827181	-0.061522
C	 2.195944836	-0.3036785988	 1.3505574227	-0.206321
C	 2.8079748218	 0.9709726649	 1.0862125622	 0.319455
N	 3.3253862272	 1.990555097	 0.9095018184	-0.359281
C	 0.7074826817	-0.6284454303	 1.230518095	 0.246707
N	 0.0622047146	-1.1819745944	 2.3678172201	-0.596125
H	 0.6198127676	 2.1273012634	 0.1376164082	 0.161622
H	-0.6660214327	 1.7934323976	-1.0316474389	 0.120348
H	-1.0278553558	 1.7592636859	 0.6994728167	 0.109192
H	-0.8431675316	-0.5506547921	-0.2356649777	 0.072142
H	 0.8983163499	-1.0179558099	-1.6255586917	 0.227287
H	 2.1007592271	-2.2462590751	 0.1612560585	 0.111354
H	 2.6217192376	-0.824441677	 2.2034919463	 0.139536
H	-0.1845063632	-0.4634118693	 3.0424426302	 0.240401
H	-0.7905728585	-1.6678368623	 2.1076487119	 0.234033
