20
gdb 110453	2.61736	1.59555	1.22037	1.5362	78.12	-0.2451	0.0631	0.3082	1095.2651	0.171328	-403.080111	-403.071759	-403.070815	-403.113107	31.812	
C	 0.097038691	 1.3637837909	-0.0623280373	-0.245565
O	-0.2191221521	-0.0025104006	 0.1037246568	-0.248388
C	 0.549162353	-0.6371917272	 1.0901401831	 0.182458
C	 0.2115144829	-2.0608879159	 1.4460689067	-0.11767
C	 1.03827268	-2.9904777223	 0.6184437317	-0.053675
C	 1.9079469489	-2.197369063	-0.3455301003	 0.042146
C	 1.4497868163	-1.8305630382	-1.7515321562	-0.435656
C	 1.9761613257	-1.182433144	 0.8210023111	-0.102395
N	 1.6499931195	-2.3389718835	 1.8258715444	-0.168077
H	 1.1231529182	 1.5091736625	-0.430944111	 0.110053
H	-0.6005834089	 1.7717276905	-0.7971085691	 0.130385
H	-0.0133553118	 1.9202993735	 0.8811561385	 0.109836
H	 0.5708305724	-0.0278957745	 2.0066555771	 0.081741
H	-0.6073775294	-2.4098188718	 2.0641950913	 0.096223
H	 0.8328704625	-4.0557524877	 0.6092504054	 0.092667
H	 2.882414735	-2.6985437252	-0.3870356093	 0.084878
H	 0.4594975189	-1.3750118896	-1.7445302545	 0.143396
H	 2.1488858377	-1.1249562599	-2.2149092242	 0.109281
H	 1.4221054529	-2.7238076477	-2.3854794564	 0.111308
H	 2.8583711873	-0.5665058062	 0.9863072123	 0.077056
