12
gdb 46179	1.88257	1.68486	1.32921	3.8301	67.29	-0.2821	-0.0696	0.2125	1011.2845	0.074162	-435.43556	-435.427208	-435.426264	-435.469011	29.344	
O	-0.0379272618	 0.0304148913	-0.3018907141	-0.226509
C	-0.056769893	 1.1874709496	-0.0665819327	 0.315777
C	-1.0617240427	 2.2440401569	 0.3766534067	-0.188426
O	-0.0232028594	 3.2476679729	 0.3826388325	-0.287886
C	 1.0325773311	 2.3556985858	-0.0530896021	-0.0357
C	 2.1004386985	 2.1833620527	 0.9095513076	 0.311754
C	 2.9599076277	 1.9968957962	 1.7270886372	-0.396549
C	 1.5225582601	 2.7029203736	-1.3901479631	 0.285185
N	 1.8718414682	 2.951835115	-2.4629941039	-0.31846
H	-1.8543789573	 2.4544346816	-0.3509242623	 0.159948
H	-1.5003381237	 2.0801966863	 1.3676208491	 0.157956
H	 3.7304022324	 1.8450023282	 2.4435235051	 0.222909
