12
gdb 23749	3.39202	2.43241	1.41768	1.9012	60.65	-0.2267	-0.0384	0.1883	783.4912	0.085729	-418.864429	-418.858219	-418.857275	-418.894622	23.883	
N	-0.0309325186	 1.3837091974	 0.1562354674	-0.567316
C	-0.0254086741	 0.0172336517	 0.0575577712	 0.269453
N	-1.1730766926	-0.6494856939	 0.0398360665	-0.311607
C	-1.1008447178	-1.9894731223	 0.0007772347	-0.024237
C	 0.1029606513	-2.6673287219	-0.0306031125	-0.049872
N	 1.2728747142	-1.9944121948	-0.0281714617	-0.283054
C	 1.1928029384	-0.7037266534	 0.0159437429	 0.283069
F	 2.3266648456	 0.0085718657	 0.0104391482	-0.080798
H	 0.8035645809	 1.8684714261	-0.1300107976	 0.266639
H	-0.9077634068	 1.8304105829	-0.0626318698	 0.26421
H	-2.0452483989	-2.5254124231	-0.0101225693	 0.115633
H	 0.1551059385	-3.7497658846	-0.0636899401	 0.117881
