16
gdb 32013	2.88037	1.33263	0.96584	3.5722	76.71	-0.2464	-0.0777	0.1687	1200.9124	0.124448	-437.940858	-437.932778	-437.931834	-437.974152	29.502	
C	 0.1009830498	 1.571755026	-0.0541122277	-0.380985
C	-0.0486742011	 0.0443807433	 0.0591273752	-0.276445
C	 0.5946339197	-0.5150274036	 1.2875917203	 0.388715
C	-0.0275904823	-1.1503899689	 2.3078717678	-0.15103
N	 0.6569993288	-1.6256567866	 3.4027745448	-0.200808
C	 1.9351321528	-1.4474516196	 3.4405852255	-0.109459
C	 2.7095202858	-0.7714835294	 2.3965393802	 0.378921
O	 3.8922196152	-0.5753378822	 2.3791473384	-0.32578
O	 1.934386542	-0.3263458302	 1.3223982843	-0.244291
H	 1.1554625014	 1.8581240071	-0.0569458731	 0.146337
H	-0.3546453202	 1.9283649187	-0.9815651356	 0.125794
H	-0.3887322781	 2.0765408837	 0.78389887	 0.128002
H	-1.1050444353	-0.2393881626	 0.0654377633	 0.122524
H	 0.409932634	-0.4311705215	-0.8169461088	 0.133433
H	-1.0984399167	-1.307175257	 2.2907760797	 0.122019
H	 2.504704754	-1.8113880372	 4.2916664756	 0.143054
