14
gdb 3233	5.53508	2.68277	2.34024	3.3066	56.68	-0.2193	0.0611	0.2803	613.7265	0.112613	-324.473847	-324.467877	-324.466933	-324.503185	23.424	
C	-0.0875403415	 1.5251224647	 0.0575468119	-0.507274
C	 0.1295241127	 0.0502044683	 0.0158621428	 0.440469
O	-0.7973249764	-0.822853027	 0.663821098	-0.255244
C	 0.5901747525	-0.9432294942	 0.989095658	-0.054174
C	 1.3124249058	-1.7509901633	-0.148202974	-0.090633
N	 0.2907520344	-2.1360855923	-1.1509356269	-0.309564
C	 0.8427939453	-0.7606758254	-1.1407273583	-0.146902
H	 0.8284281434	 2.0603637059	-0.2146215055	 0.124335
H	-0.8726288039	 1.8220259039	-0.6472893478	 0.13474
H	-0.3912724058	 1.8368303215	 1.0603382082	 0.13641
H	 0.8815515707	-0.8628567881	 2.0298382358	 0.104354
H	 2.2634328712	-2.2593692593	-0.0641406326	 0.097668
H	 0.7889781421	-2.6382723733	-1.8873235944	 0.230446
H	 1.3509655494	-0.3335786112	-1.9955692951	 0.09537
