23
gdb 87393	1.89171	1.57443	1.10112	1.5487	85.95	-0.2489	0.0732	0.3221	1246.1145	0.204772	-388.271188	-388.261454	-388.26051	-388.305265	37.767	
C	-0.5542506566	 1.3964417571	 0.2339548069	-0.408479
C	-0.1680830819	-0.0669052986	 0.2345738724	-0.052819
C	 1.2173166365	-0.5011171763	-0.1870929259	-0.364021
C	 0.7673615665	-0.7164155421	 1.2271187305	 0.283696
C	 1.3585041113	-0.2106421191	 2.5635583529	-0.042974
C	 1.0884982056	 1.1894938282	 3.0980273891	-0.409964
C	 0.6423697456	-1.4022750999	 3.2671664235	-0.278077
C	 0.4493055165	-2.074363776	 1.8833624314	 0.094452
O	-0.7626453556	-2.7242934544	 1.5863546797	-0.43009
H	 0.2901201659	 2.0391658014	 0.4965166431	 0.117559
H	-0.897780037	 1.6959358745	-0.7626552667	 0.116039
H	-1.3654194735	 1.6081238052	 0.9396485638	 0.110897
H	-0.9651236771	-0.731695689	-0.0954304143	 0.084877
H	 1.3260564222	-1.3685959794	-0.8317791989	 0.110111
H	 1.9455671904	 0.2852186152	-0.3697653594	 0.103224
H	 2.4416025639	-0.3857665708	 2.5569130619	 0.074946
H	 0.0173344018	 1.4127513013	 3.1193433764	 0.112819
H	 1.4676437262	 1.2797074801	 4.1223695548	 0.112996
H	 1.5822258073	 1.9615247825	 2.498555904	 0.114641
H	 1.18837494	-1.9544710587	 4.0356584844	 0.097943
H	-0.3240929695	-1.0880481975	 3.6795592914	 0.087719
H	 1.2301233504	-2.8140329154	 1.6767781921	 0.088599
H	-1.4780531089	-2.1088943782	 1.7808791467	 0.275908
