16
gdb 4978	3.34688	2.21438	1.33853	1.33	76.24	-0.1861	0.0194	0.2056	886.5496	0.134292	-342.853086	-342.84613	-342.845186	-342.883658	28.141	
N	 0.0404869014	 1.4188812006	 0.0765785307	-0.607163
C	 0.0022116143	 0.0117187263	 0.0169385798	 0.260472
C	-1.1861451481	-0.7142982723	 0.0516776238	-0.181416
C	-1.1757709673	-2.1081898154	 0.0274436222	-0.121152
C	 0.0348577475	-2.7879248394	-0.0449871336	-0.121145
C	 1.2305068007	-2.0712392828	-0.0652771863	-0.181419
C	 1.2318708897	-0.6787568711	-0.0265675275	 0.260489
N	 2.4135836241	 0.0864668769	-0.0821364779	-0.607159
H	 0.709937796	 1.8085507778	-0.5790208627	 0.248742
H	-0.8667888408	 1.8424484358	-0.0681731722	 0.240149
H	-2.1297333156	-0.1762654343	 0.0894048423	 0.075401
H	-2.1128226377	-2.6535467591	 0.052224172	 0.084953
H	 0.0569453215	-3.8718218357	-0.0728157897	 0.084953
H	 2.181093809	-2.5968086903	-0.1029841545	 0.075401
H	 3.2472351484	-0.4681578084	 0.0625195334	 0.240151
H	 2.3967569667	 0.8591553815	 0.5754983504	 0.248743
