23
gdb 96117	2.18079	1.71699	1.16686	1.6995	84.74	-0.2535	0.0823	0.3358	1170.9592	0.20658	-388.30831	-388.299317	-388.298373	-388.34142	35.55	
C	-0.1119018297	 1.508327284	 0.0336587334	-0.411404
C	 0.0009947413	-0.0239842891	 0.0085501951	-0.027792
C	 0.6879429228	-0.4973988247	-1.2849515522	-0.201038
C	 0.916448302	-2.0106838109	-1.2897150716	-0.215914
C	 1.882565902	-2.4368996371	-0.1739013681	-0.225919
C	 1.6273677571	-1.711429981	 1.1340879418	-0.010497
O	 2.1403254946	-0.3725540403	 1.2398673489	-0.299665
C	 0.7137744201	-0.5553754782	 1.2522131939	 0.406218
C	 0.0562469822	-0.2756467994	 2.5871763877	-0.473375
H	 0.8804966376	 1.9625415027	 0.1222742484	 0.130251
H	-0.5684350411	 1.8726233912	-0.8923202215	 0.109724
H	-0.7247822672	 1.8666467946	 0.8654667085	 0.111813
H	-1.014952706	-0.4468208508	 0.0244686383	 0.068585
H	 0.0688043395	-0.2029679686	-2.1398409599	 0.088485
H	 1.6475991167	 0.0226813505	-1.3916094259	 0.108313
H	-0.0483249231	-2.5165927144	-1.1488899737	 0.09253
H	 1.3003356975	-2.3404467597	-2.261066777	 0.092957
H	 1.8131140096	-3.5171385414	-0.003899751	 0.095762
H	 2.9191401224	-2.2342304819	-0.4708526391	 0.113913
H	 1.7967205642	-2.3013986853	 2.0368364158	 0.079327
H	-0.001134793	 0.7990648348	 2.7838032403	 0.127891
H	-0.9631207608	-0.6768268304	 2.6102434237	 0.116275
H	 0.6276863014	-0.7338972446	 3.3982356242	 0.123559
