16
gdb 30078	3.41918	1.19921	0.89284	2.3	75.13	-0.2139	0.0064	0.2203	1250.3018	0.125204	-434.100341	-434.091691	-434.090747	-434.135146	29.907	
C	-0.0039729419	 1.433174836	 0.1139258321	-0.356739
N	 0.0102080611	-0.0154966191	 0.0339932881	-0.093634
C	 0.0307539605	-0.7962676794	-1.1152521193	-0.130823
C	 0.0398565698	-2.0906889252	-0.685342212	-0.096856
N	 0.0259724921	-2.1479645236	 0.6972301576	-0.372095
C	 0.0088721211	-0.8966468765	 1.067994177	 0.503292
O	-0.0096206303	-0.3967462447	 2.3276072076	-0.231575
C	-0.0106681241	-1.2861992498	 3.3683216475	 0.111367
N	-0.0267592691	-0.8214533321	 4.5372642181	-0.434458
H	 0.8878049435	 1.8535986523	-0.3602779062	 0.145114
H	-0.893054977	 1.8372454898	-0.3791844612	 0.14509
H	-0.0178271222	 1.7237188799	 1.1639501925	 0.174836
H	 0.0359345475	-0.3493964015	-2.0952102365	 0.129626
H	 0.055537061	-2.9916365382	-1.2783678848	 0.114589
H	 0.0030571066	-2.3242197486	 3.0335247112	 0.153862
H	-0.0257178584	-1.5866907393	 5.2091845883	 0.238404
