18
gdb 14441	4.13738	2.06999	1.80557	1.554	70.56	-0.2189	0.0901	0.309	808.6109	0.155317	-347.783392	-347.776729	-347.775785	-347.813755	26.961	
C	-0.0120403371	 1.4681762965	-0.0472968509	-0.498871
C	-0.0331976696	-0.0227335768	 0.018161634	 0.480893
O	 0.8330910678	-0.7392860727	-0.8747118367	-0.346523
C	-0.0803857347	-1.8875331084	-0.8131341043	 0.096473
C	 0.5122960884	-2.8957896947	 0.1649122067	-0.206141
C	 0.6153595809	-2.0743711215	 1.4825888553	-0.227559
C	-0.3058515115	-0.8749593015	 1.2476270672	-0.11904
C	-1.1159682386	-1.0580888504	-0.0275607181	-0.214532
H	 0.9695914077	 1.8534036202	 0.2507522552	 0.13002
H	-0.220258097	 1.8163140959	-1.0640026431	 0.127843
H	-0.7620448096	 1.8911363889	 0.6275116844	 0.121829
H	-0.3304707951	-2.252595633	-1.8108287344	 0.075645
H	-0.1643120498	-3.7513566642	 0.2775115653	 0.095814
H	 1.480434795	-3.2704996481	-0.1789457981	 0.105943
H	 0.2902051566	-2.6554129511	 2.3503447212	 0.096604
H	 1.6450151962	-1.7554995612	 1.6692271517	 0.109005
H	-0.7727228168	-0.371875594	 2.0878015625	 0.081981
H	-2.1891659327	-1.0055532739	-0.1482227481	 0.090617
