14
gdb 42233	3.65703	1.06266	0.83943	3.4143	70.88	-0.2653	-0.0635	0.2019	1259.7258	0.099952	-432.866681	-432.858399	-432.857455	-432.900435	29.172	
N	-0.0634015343	 1.3334117954	-0.0762195958	-0.505034
C	 0.0759189753	 0.0638020868	-0.1116667764	 0.254352
C	-1.1261410956	-0.7576121634	-0.1309346505	 0.305524
N	-2.056043204	-1.4432796644	-0.1337801018	-0.324013
N	 1.2317633073	-0.6715016647	-0.1674214825	-0.118841
C	 2.5743301439	-0.1928962884	 0.1927645728	-0.316955
C	 2.9125272505	-1.6631964571	 0.5279658645	 0.396155
O	 3.8936714342	-2.2362142194	 0.8772153355	-0.253986
C	 1.4582927782	-2.0794782205	 0.2223511143	-0.301992
H	 0.8415226755	 1.8074057641	-0.0695429752	 0.22948
H	 3.1476590486	 0.2529326124	-0.6273108721	 0.157288
H	 2.5978139143	 0.479167624	 1.0621556363	 0.150961
H	 0.8932295854	-2.4144949932	 1.1005190318	 0.163818
H	 1.3345517708	-2.8065034719	-0.5864980607	 0.163243
