14
gdb 16215	3.17436	2.27662	1.49675	2.1027	57.91	-0.2455	-0.0456	0.1999	812.4807	0.106708	-419.661676	-419.654827	-419.653882	-419.692987	25.056	
O	 0.0743605208	 0.0343670653	-0.1815163311	-0.299097
C	 0.0209959913	 1.223232732	-0.0177300914	 0.310904
C	-1.2174981239	 2.1060463522	 0.107664087	-0.190507
O	-0.7504846822	 3.3578783485	 0.5885144324	-0.253085
C	 0.5829685576	 3.5619961717	 0.1181894073	-0.182117
C	 1.1970882584	 2.1756452109	 0.0951832384	 0.310313
C	 2.4576665455	 1.7528662559	 0.726031209	-0.225421
O	 2.3505910564	 1.8992673715	-0.687146177	-0.255166
H	-1.6982467616	 2.1948571802	-0.8814977475	 0.127645
H	-1.9483165171	 1.6984936529	 0.8106721174	 0.146046
H	 0.5910109831	 3.9896541649	-0.8969276711	 0.115641
H	 1.0729148503	 4.2616945799	 0.7983236543	 0.126994
H	 3.0647663968	 2.499995443	 1.2353008583	 0.126892
H	 2.5502144347	 0.7272747912	 1.0785935042	 0.140959
