17
gdb 100482	4.58684	0.59905	0.5658	2.6028	76.03	-0.258	0.0072	0.2652	1913.5253	0.133769	-458.892287	-458.882574	-458.88163	-458.928852	33.949	
O	 0.0612295383	 1.208032312	-0.9190031136	-0.416344
C	 0.0042068605	-0.1717813048	-0.6511930213	-0.054717
C	-1.0520138892	-0.4561900049	 0.4347925994	-0.078671
O	-2.2952851139	 0.1426994564	 0.0444496297	-0.427852
C	-1.1790728884	-1.8823984129	 0.7135732667	 0.076576
C	-1.2822343091	-3.0721068317	 0.8794413112	 0.106345
C	-1.3839251975	-4.4840404031	 1.1288132008	-0.120407
C	-2.5163195885	-5.2843432718	 0.6207853363	-0.158672
O	-1.2381991621	-5.3706436793	 0.0067386621	-0.212208
H	-0.8585261203	 1.4965204892	-0.987984162	 0.287565
H	-0.2470406867	-0.7614487782	-1.5492158516	 0.087831
H	 0.9927280304	-0.4908441069	-0.3074903127	 0.120806
H	-0.757704374	 0.0820061288	 1.3431810658	 0.128675
H	-2.7150858478	-0.452412014	-0.5878993819	 0.289147
H	-0.884951638	-4.8329915185	 2.0321695251	 0.123595
H	-2.8352158809	-6.1622071648	 1.1811107171	 0.124506
H	-3.2888552827	-4.7906563356	 0.0344423288	 0.123824
