21
gdb 102430	1.81585	0.92317	0.63877	3.7992	91.09	-0.2628	-0.058	0.2048	1777.7449	0.179283	-387.083302	-387.07208	-387.071136	-387.121794	38.134	
C	-1.5231523805	-0.227895544	 0.0101268203	-0.390517
C	-0.0015644284	-0.0850396875	 0.0673306456	-0.177541
C	 0.7294409641	-0.6020369049	-1.1960752148	-0.145916
C	 2.245492138	-0.2908870094	-1.1477025548	-0.176835
C	 2.9951523245	-0.646964241	-2.4322725118	-0.394219
C	 0.4866082787	-2.0262436584	-1.4053885496	 0.164018
C	 0.3124708563	-3.2123644984	-1.5658731629	-0.030656
C	 0.0698531783	-4.6183516857	-1.7526043921	 0.018369
O	 0.8689841776	-5.3985776443	-2.2192745371	-0.231561
H	-1.9422269578	 0.3310653792	-0.8339250017	 0.116078
H	-1.818733212	-1.2750054222	-0.103452875	 0.128508
H	-1.9844206454	 0.1556101681	 0.9249381712	 0.11821
H	 0.2679862885	 0.9700909226	 0.1933323932	 0.101765
H	 0.3936817358	-0.6152156917	 0.9418544685	 0.109271
H	 0.306230538	-0.0749460147	-2.0655745373	 0.112749
H	 2.3544600672	 0.7795804006	-0.9366687011	 0.099798
H	 2.6843951558	-0.8243868589	-0.2963309385	 0.109808
H	 2.9124611825	-1.7143395632	-2.6561934694	 0.14143
H	 2.5975027069	-0.0924035245	-3.2896377386	 0.114102
H	 4.0574935449	-0.4021809357	-2.3417914868	 0.117558
H	-0.937137863	-4.9521353362	-1.4278160673	 0.09558
