16
gdb 15972	3.28551	1.78639	1.36216	1.1688	65.58	-0.2521	-0.0287	0.2234	914.0884	0.129124	-383.714421	-383.706854	-383.70591	-383.746961	27.434	
O	-0.5024854642	 0.5626260196	-0.2991712861	-0.241518
C	 0.5639333523	 0.711255021	 0.2435300673	 0.130496
C	 1.4291080004	 1.9338232988	 0.1072597204	-0.161666
C	 0.9399619666	 3.0847278756	-0.8114289295	-0.24042
C	 1.2240453909	 4.1143424099	 0.3224807188	-0.314083
C	 1.3828094721	 2.940728213	 1.2899905501	 0.434803
C	 0.8367690815	 2.75917215	 2.6369015402	-0.259601
O	 2.2464626018	 2.9125353556	 2.3999868782	-0.259867
H	 0.9685909489	-0.0696652785	 0.9273968175	 0.082252
H	 2.4669272803	 1.6307531337	-0.0718656917	 0.104566
H	 1.4904479626	 3.2226068376	-1.7422729836	 0.111698
H	-0.1216946525	 2.9714412142	-1.0362652772	 0.134182
H	 2.1720721134	 4.6428748844	 0.1884092546	 0.121055
H	 0.4420992205	 4.8421777236	 0.550482924	 0.113774
H	 0.3544334423	 3.5970185473	 3.1381213045	 0.122474
H	 0.5266047531	 1.7730272542	 2.9794738924	 0.121854
