17
gdb 25563	6.092	0.70263	0.66432	2.6397	76.91	-0.222	-0.0246	0.1974	1630.4597	0.135382	-421.866251	-421.857708	-421.856764	-421.901259	30.133	
O	-0.2744678561	 0.0826950825	 0.1699088145	-0.234181
C	-0.083768735	 1.2628821596	 0.0313394845	 0.156746
C	 1.2737049938	 1.9218656948	-0.0415604868	-0.267886
C	 1.4227636537	 2.7914140668	-1.3120836022	-0.332889
C	 2.6880748962	 3.5756286501	-1.3358035271	 0.379787
C	 3.7777408384	 3.5780853375	-2.150553301	-0.276301
C	 4.6725288004	 4.5741646516	-1.6357591653	-0.167044
C	 4.0594409086	 5.0995309451	-0.5458667388	-0.019894
O	 2.8505932839	 4.5044405647	-0.3473252873	-0.182585
H	-0.9404077436	 1.9736762876	-0.0575841687	 0.070745
H	 1.3756428415	 2.5738519487	 0.8364498553	 0.137031
H	 2.049025644	 1.1533625212	 0.0102740341	 0.128352
H	 1.3972688819	 2.1566396713	-2.2029654239	 0.129323
H	 0.5627413792	 3.4715031468	-1.3820710488	 0.122774
H	 3.9266071461	 2.9490141388	-3.0143654978	 0.10972
H	 5.6369641772	 4.8551781838	-2.028490088	 0.112985
H	 4.3260357398	 5.8634626291	 0.1654784373	 0.13332
