20
gdb 92019	2.8006	1.64558	1.2375	1.1968	77.61	-0.2278	0.0682	0.296	1059.432	0.172536	-403.112169	-403.10448	-403.103536	-403.144027	31.064	
C	 0.1315398219	 1.5674229424	-0.0089734136	-0.386845
C	-0.0015682618	 0.0448674647	-0.0112301307	 0.058769
C	 0.4143699124	-0.5511702084	-1.3795732717	-0.256436
C	 0.5280300413	-2.0644301764	-1.354787033	 0.019404
O	 1.8444415522	-2.5996886329	-1.1751194717	-0.252522
C	 0.9154269855	-2.7230669937	-0.0925679428	 0.047588
C	 1.129706157	-1.8935454815	 1.1417967267	-0.04301
C	 2.114308483	-0.7724195231	 1.1226495844	-0.261227
N	 0.6837873167	-0.4920707746	 1.1697805748	-0.096851
H	 1.1775841061	 1.8633450466	-0.1451366545	 0.117169
H	-0.4528482929	 2.0100031348	-0.8219649596	 0.110905
H	-0.2181200818	 1.981335052	 0.9400504114	 0.125596
H	-1.0592736064	-0.2100789145	 0.1434497687	 0.081243
H	-0.3290541474	-0.2451858772	-2.1228197292	 0.104428
H	 1.372171959	-0.1318220474	-1.7078897273	 0.117589
H	-0.076511672	-2.6204203129	-2.0701973747	 0.094401
H	 0.5859089958	-3.7444811183	 0.0920796752	 0.08979
H	 0.9548335502	-2.4263482291	 2.073742572	 0.08673
H	 2.666889295	-0.5227269196	 2.0244371281	 0.114139
H	 2.6623280662	-0.6335837708	 0.1950239774	 0.12914
