18
gdb 78329	2.95535	1.4932	1.26375	1.5371	72.08	-0.2213	0.0564	0.2778	1052.9457	0.14648	-438.988691	-438.980816	-438.979872	-439.020529	31.319	
C	-0.141884183	 1.3065275341	-0.0236948011	-0.320136
N	 0.0986839575	-0.1293976244	 0.0982952158	-0.092686
C	 1.4991859803	-0.5046734959	-0.1589762758	-0.05064
C	 0.9462061071	-0.4882006326	 1.2369435272	-0.091095
C	 1.0067607404	-2.0324422056	 1.3152239627	 0.339839
O	 1.6356254706	-2.4713369541	 2.4729328884	-0.477614
C	-0.1626220893	-2.8313842464	 0.6805938892	-0.142023
O	 0.4704654732	-2.7906798426	-0.623541155	-0.284542
C	 1.5978090712	-2.0538589802	-0.1224580196	 0.00374
H	 0.7054187413	 1.9327021927	 0.3024687007	 0.100136
H	-0.3604827724	 1.5410207411	-1.0697273076	 0.130099
H	-1.0158406135	 1.5724594717	 0.5785653241	 0.127197
H	 2.1648612906	 0.1925404086	-0.6546252333	 0.092008
H	 1.1199971729	 0.1952155531	 2.0594889061	 0.097323
H	 1.8138018086	-3.4144056645	 2.3872261819	 0.286846
H	-0.2367328368	-3.8620887803	 1.0564490899	 0.082898
H	-1.1457106106	-2.3547140236	 0.6784185182	 0.119998
H	 2.5696060518	-2.4799295012	-0.3863022819	 0.078654
