16
gdb 43248	3.62003	1.69118	1.38497	4.3388	75.93	-0.2348	-0.0571	0.1777	913.4662	0.126305	-400.692282	-400.685924	-400.68498	-400.722816	26.36	
O	-0.0548116891	-0.0003293204	 0.1860052413	-0.334176
C	-0.0481834295	 1.1838253729	-0.0484955733	 0.389526
C	-1.2293166062	 2.1075399014	-0.1495415182	-0.259758
C	-0.7429140533	 3.3250370458	-0.4381848638	 0.188689
N	-0.7295286327	 4.5620682471	 0.3317269796	-0.362199
C	 0.7878876262	 4.3296244065	 0.3533406373	-0.015463
C	 1.2639597626	 3.0989334046	 1.2110661715	-0.233127
C	 1.1879454132	 2.1112031659	-0.0451731263	-0.161618
C	 0.7156087531	 3.3486460655	-0.8314637936	-0.087671
H	-2.1777222688	 1.8678491735	 0.3129165226	 0.123091
H	-0.9002977921	 5.3938573359	-0.2347824854	 0.235603
H	 1.3812829197	 5.2430709394	 0.4069710235	 0.087785
H	 2.2979662132	 3.235586242	 1.5334221172	 0.12252
H	 0.6525422418	 2.8390864972	 2.0762335885	 0.129784
H	 2.1210334128	 1.6057678511	-0.2908724706	 0.085756
H	 1.0003919792	 3.5771298817	-1.8585346102	 0.091257
