22
gdb 121738	5.98177	0.52981	0.51112	2.1899	81.16	-0.2425	0.0352	0.2777	2213.5626	0.192279	-441.521001	-441.509534	-441.50859	-441.56049	39.051	
C	 0.2011757195	 1.4076066589	-0.1695910766	-0.377206
C	 0.2576332419	-0.1049126696	 0.058044932	-0.167806
C	 0.2697685713	-0.4678636347	 1.5482031396	-0.147981
N	 0.3086808284	-1.9000641993	 1.7928559519	-0.323183
C	 1.4457531561	-2.5573119685	 2.1660728789	 0.413744
O	 2.4960781093	-1.9825995375	 2.4020890396	-0.382519
C	 1.3066526215	-4.073188469	 2.2573274044	-0.306432
C	 2.2701849618	-4.6683887933	 3.2758879053	-0.065371
O	 2.1295493532	-6.0807508256	 3.2136864472	-0.426253
H	 1.0672905106	 1.9067580841	 0.2780755411	 0.123873
H	 0.1930514478	 1.6477162942	-1.2367312235	 0.11673
H	-0.6994883532	 1.8444323583	 0.2764282555	 0.114217
H	-0.6022565723	-0.5862969217	-0.426669475	 0.088201
H	 1.1549870717	-0.5250070005	-0.4106145897	 0.11406
H	 1.1575780172	-0.0523184291	 2.0309917253	 0.146898
H	-0.6119503752	-0.0430663504	 2.0450112084	 0.100189
H	-0.5086600259	-2.446231945	 1.5738031612	 0.241639
H	 0.2788042323	-4.3654580308	 2.4991483536	 0.106885
H	 1.5331455796	-4.5018906504	 1.2728040473	 0.135747
H	 3.2890157457	-4.341527636	 3.0342687214	 0.11563
H	 2.0334311364	-4.2849141451	 4.2804470541	 0.092308
H	 2.7733729821	-6.4690566891	 3.8128429179	 0.28663
