14
gdb 49832	1.94694	1.76032	1.11436	3.1905	69.31	-0.2657	-0.0442	0.2216	1077.4605	0.098266	-436.64307	-436.634626	-436.633681	-436.676924	30.011	
N	-0.1054116666	 1.247853714	-0.5088255967	-0.529778
C	-0.0350126962	 0.0705915958	-0.1036738673	 0.457492
O	 1.0359572467	-0.6945133258	 0.3115807254	-0.23647
C	 0.192341388	-1.8247194792	 0.6267258044	 0.018561
C	 0.1793081372	-2.1790687715	 2.099257227	 0.146441
O	 0.8042297442	-1.5969838889	 2.9411720096	-0.220034
C	-1.0631163989	-1.0486485716	 0.0928069695	-0.360105
C	-2.1759059169	-0.8150844445	 0.9872057966	 0.346744
C	-3.0958534943	-0.6346208323	 1.737872699	-0.438012
H	 0.8069720354	 1.7061572733	-0.5132119302	 0.241365
H	 0.4611566284	-2.7061020257	 0.0332402916	 0.12118
H	-0.4723124416	-3.0503182147	 2.3325737819	 0.092537
H	-1.4078268978	-1.4405274311	-0.8686662621	 0.14689
H	-3.9057817277	-0.4581372378	 2.4023786915	 0.213188
