17
gdb 50701	2.97488	1.40828	1.09343	3.1507	67.9	-0.2507	-0.0303	0.2203	1092.8781	0.135983	-458.948677	-458.94088	-458.939935	-458.981508	28.959	
O	-0.5816600502	 0.7859648355	-0.6467416325	-0.238961
C	 0.1545106351	 1.0422214473	 0.2703366258	 0.157936
C	 1.3554099012	 1.9636774202	 0.1690081657	-0.138151
C	 1.4302152835	 2.6880323142	-1.182826727	-0.100815
O	 2.5176665653	 3.5958799603	-1.1950125842	-0.251721
C	 2.3220850475	 4.7052786482	-0.3383089832	-0.10406
C	 1.8549285244	 4.3253686894	 1.0571505405	 0.020698
O	 0.4542611029	 4.044684412	 1.2084442549	-0.250591
C	 1.3771086332	 2.9597421606	 1.3158166063	 0.034545
H	-0.0044319141	 0.593905306	 1.2785851904	 0.082481
H	 2.2465268417	 1.3268146693	 0.2901995369	 0.112964
H	 1.6050980282	 1.9740910435	-1.9891905756	 0.12536
H	 0.4793513502	 3.2007962151	-1.3799284872	 0.120937
H	 3.2895747178	 5.2127605138	-0.276642242	 0.115708
H	 1.5927407073	 5.4093824054	-0.77126312	 0.110383
H	 2.2775054889	 4.9022352815	 1.8792323961	 0.104345
H	 1.4724048772	 2.5414175778	 2.3186756952	 0.098941
