15
gdb 84304	2.14862	1.84978	1.08067	4.4721	73.82	-0.2399	-0.0595	0.1803	1069.1898	0.110866	-420.609597	-420.601072	-420.600128	-420.643432	31.224	
O	 0.0542369813	 1.4897224629	 0.2766947813	-0.411433
C	 0.0224213912	 0.0893660339	 0.05004427	 0.069356
C	 0.7105915759	-0.6682444918	 1.1708018625	-0.086751
C	-0.1300251068	-1.3633041408	 1.9396986837	-0.167149
C	-1.5212424473	-1.2298857527	 1.4471432324	 0.37941
O	-2.5205789784	-1.6793994966	 1.9425783711	-0.309561
C	-1.4434643493	-0.4246091202	 0.1113309694	-0.357415
C	-2.4832304378	 0.5735583315	-0.0361913694	 0.385238
C	-3.373071886	 1.3704515408	-0.1567979281	-0.454812
H	 0.966694539	 1.7867539692	 0.1973434511	 0.287972
H	 0.4728906245	-0.1487325305	-0.9242414437	 0.085614
H	 1.7830621546	-0.589930754	 1.3212222975	 0.11765
H	 0.110802325	-1.9448113209	 2.8205621627	 0.12775
H	-1.5676325454	-1.1828972494	-0.6744175999	 0.137796
H	-4.1523792904	 2.0845685387	-0.2558800404	 0.196336
