19
gdb 90463	2.71028	1.38208	1.201	1.4741	81.14	-0.2241	0.0466	0.2707	1128.0231	0.158748	-385.850881	-385.842372	-385.841428	-385.883976	32.937	
C	-0.6590963666	 1.1017567545	 0.0409689567	-0.406147
C	 0.2943386464	-0.0822120314	 0.0073462972	 0.14503
C	 1.1826172012	-0.1713104487	-1.2637127075	-0.2716
C	 2.5719899599	-0.4827899273	-0.7386900216	-0.103295
C	 2.4808217947	-0.3302854274	 0.7437276901	 0.10148
O	 1.1954608383	 0.0223887012	 1.1319370502	-0.271708
C	 2.7460259549	-1.7207043227	 0.1558660258	-0.279079
C	 1.7994009829	-2.7919475988	 0.2009894746	 0.349338
C	 1.0248977286	-3.7129702084	 0.2353725315	-0.456036
H	-0.1106982982	 2.0422591941	-0.0729025544	 0.118188
H	-1.3922817042	 1.0242991788	-0.7685400894	 0.114989
H	-1.1999998637	 1.1309902667	 0.9909028993	 0.127783
H	-0.2691104249	-1.0139564875	 0.1199610205	 0.098067
H	 0.8020089944	-0.9267895171	-1.9567159732	 0.117317
H	 1.2062828382	 0.7886690147	-1.7906506757	 0.104431
H	 3.4341323647	-0.1539431594	-1.3066432547	 0.096474
H	 3.2448939865	 0.1248232134	 1.3639646247	 0.107164
H	 3.7817420116	-2.0376707617	 0.2538304781	 0.11361
H	 0.3386780254	-4.521803133	 0.2805018178	 0.193993
