19
gdb 88881	3.44022	1.2118	1.03155	2.7744	71.62	-0.2307	0.0783	0.309	1190.9627	0.15988	-460.139362	-460.130981	-460.130037	-460.173213	31.321	
O	-0.4110927336	 0.6613873469	 1.6127730681	-0.434569
C	-0.0353807285	 0.1329777619	 0.3821283429	 0.145287
C	-0.5749656249	-1.1691909537	-0.1461622043	-0.331212
C	-0.9382744307	 0.136505816	-0.8329522206	-0.11531
C	-2.3432285241	 0.6655926345	-0.7588478699	 0.215164
O	-3.1805221249	 0.0094809589	-1.6807729759	-0.245326
C	-4.4938456731	 0.1871657065	-1.1775301732	-0.109983
C	-4.2974190626	 0.0684089188	 0.3429071246	-0.094064
O	-2.9309155866	 0.4399372961	 0.5302541221	-0.286663
H	-1.3736285597	 0.5961339715	 1.6775928979	 0.29551
H	 1.0127582869	 0.3478497025	 0.1982864206	 0.103538
H	 0.0861105953	-1.8593895385	-0.6586961191	 0.109808
H	-1.3605498875	-1.6383280258	 0.4363898671	 0.118124
H	-0.4743439955	 0.3509334227	-1.7912549973	 0.098016
H	-2.3610097306	 1.7538197917	-0.9523300886	 0.073601
H	-4.8904669846	 1.1771107371	-1.449217417	 0.103667
H	-5.1380606962	-0.5852239998	-1.601416167	 0.124572
H	-4.9488653928	 0.740854371	 0.9104463463	 0.114337
H	-4.4437038765	-0.9577697782	 0.6984368934	 0.115504
