15
gdb 12977	2.80144	2.73893	1.63998	3.7115	66.57	-0.2328	-0.0573	0.1755	791.9268	0.119474	-362.664928	-362.657993	-362.657048	-362.695793	26.459	
C	-0.0402188717	 1.5320585985	 0.0155566158	-0.490323
C	 0.1141993181	 0.038331446	 0.0270452139	 0.190132
N	-0.7702647937	-0.8319031732	 0.8598110531	-0.354295
C	 0.7040544986	-0.7861711727	 1.1031626102	-0.147016
C	 1.395670364	-1.9387688754	 0.4428093321	-0.031658
C	 1.2347519139	-1.9002831624	-0.8870103506	-0.194915
C	 0.4710253339	-0.6815714237	-1.2761971224	 0.387903
O	 0.2066306933	-0.2943866303	-2.3894680117	-0.332102
H	 0.8744313981	 2.0172256942	-0.3394354049	 0.135943
H	-0.8496912513	 1.8229016949	-0.66083606	 0.148719
H	-0.2640966225	 1.9151522233	 1.0163311811	 0.112078
H	-1.231163324	-0.2260487208	 1.5417190247	 0.229814
H	 1.072201856	-0.3637985989	 2.0312660472	 0.101833
H	 1.9073980315	-2.715306133	 0.9993127161	 0.122548
H	 1.576881746	-2.6272586063	-1.6116684646	 0.121339
