16
gdb 74188	2.45546	1.67286	1.08612	5.0973	74.88	-0.2233	-0.0352	0.1881	1075.941	0.12541	-437.906766	-437.899113	-437.898169	-437.938952	29.784	
N	 0.1002183169	 1.3543455534	 0.2244374755	-0.578755
C	-0.0127749016	 0.0018280262	 0.0327487661	 0.420462
C	-1.1941640964	-0.6599884789	-0.0434972886	-0.31091
C	-1.2990814873	-2.1074487708	-0.1339133609	 0.383239
O	-2.3624335385	-2.6763782432	-0.3145466214	-0.363552
C	-0.0248593178	-2.9434594549	 0.0627451617	-0.369594
C	 1.278174724	-2.1986870298	-0.0586706707	 0.050545
O	 1.5090041417	-1.4685932884	-1.2643866942	-0.247247
C	 1.2840134206	-0.7279821219	-0.0546746019	-0.069474
H	 0.9393811652	 1.8078947957	-0.1015018744	 0.263023
H	-0.7365702707	 1.9100768473	 0.1345538215	 0.264649
H	-2.1347829979	-0.117525624	-0.0582606365	 0.087002
H	-0.085049392	-3.3858031009	 1.0656615173	 0.133272
H	-0.0590109848	-3.7800451543	-0.642166175	 0.142185
H	 2.1636252392	-2.7084355825	 0.3220540723	 0.100095
H	 2.1567857896	-0.1922009732	 0.3183760893	 0.095059
