12
gdb 11689	5.78731	1.42064	1.3024	2.6988	63.12	-0.2511	-0.0418	0.2093	895.6748	0.081275	-381.273553	-381.266673	-381.265729	-381.304678	25.724	
O	 0.0605472868	 0.005903486	-0.0144501177	-0.28677
C	 0.016625337	 1.1956358518	 0.0498432244	 0.429928
C	-1.1461176858	 2.231876111	 0.1164251374	-0.423194
C	-0.0678255855	 3.3124072848	-0.1055678674	 0.27507
O	 0.8263995849	 3.1910540722	 1.0060634108	-0.26643
C	 1.049438509	 2.3108237299	-0.10835418	-0.1742
C	-0.1831400976	 4.5442384334	-0.8037206632	 0.173874
C	-0.3289872564	 5.5802461799	-1.3955523061	-0.357383
H	-1.8328255086	 2.0921299293	-0.7227602388	 0.147999
H	-1.6999526517	 2.317818395	 1.0525080346	 0.144489
H	 2.0235198106	 2.32999852	-0.5828843532	 0.135352
H	-0.4458601427	 6.4984654366	-1.9169630408	 0.201263
