19
gdb 80585	3.48432	1.10286	1.03215	3.3113	75.86	-0.2332	0.0356	0.2688	1232.3815	0.159774	-419.200143	-419.191381	-419.190437	-419.23397	33.173	
C	-0.0895666761	 1.6853526429	-0.4423155675	-0.424506
C	 0.305821634	 0.3917112065	 0.2307650818	 0.028079
C	 0.6640840681	-0.875843344	-0.44464417	-0.045157
C	 1.4273667729	-0.6675389726	-1.751459879	-0.262536
C	 2.4208720967	 0.187180477	-0.9278040781	-0.042606
N	 1.6973880002	-0.0954929949	 0.3662949083	-0.180486
C	 3.8534456648	-0.3391614292	-0.9303856587	 0.368496
N	 4.3381911613	-0.6230136313	 0.3035647246	-0.519445
O	 4.4792485505	-0.4528141301	-1.968086886	-0.377508
H	 0.3006321168	 1.7839273575	-1.4571099177	 0.130557
H	-1.1810417811	 1.7445497279	-0.5025523731	 0.127016
H	 0.2579015372	 2.5451948803	 0.1406079864	 0.130692
H	-0.207782169	 0.2385354162	 1.1789291599	 0.098843
H	 0.2842218496	-1.832673404	-0.0987939424	 0.095738
H	 1.8926749804	-1.575900182	-2.1350994266	 0.13202
H	 0.8880960214	-0.1809201298	-2.5681712045	 0.109269
H	 2.4700574132	 1.2510929335	-1.1810620335	 0.104318
H	 3.7033519653	-0.6098525312	 1.0872821424	 0.270083
H	 5.2615203537	-1.0138025527	 0.3873405338	 0.257131
