21
gdb 64143	3.42618	0.9641	0.93346	2.2942	79.93	-0.2511	-0.0231	0.228	1362.9761	0.180797	-424.253525	-424.24394	-424.242996	-424.288416	35.425	
C	 0.0062747886	 1.3845915267	 0.2942600445	-0.421011
C	-0.0659358665	-0.1044733242	-0.0777841651	 0.378097
C	-1.513643678	-0.5668220378	-0.211769268	-0.427117
C	 0.7960167081	-0.4289050606	-1.3172512494	-0.272968
C	 2.2185250651	-0.607619896	-0.7404257062	-0.093659
C	 1.9372698901	-0.9613637404	 0.7522626667	-0.113489
O	 0.5358554113	-0.9042287554	 0.9503773841	-0.278751
C	 2.974910297	-1.7115207191	-1.4395256818	 0.151831
O	 4.0348530306	-1.5892223032	-1.9950515893	-0.251154
H	 1.0415852021	 1.7285749651	 0.3808126907	 0.116396
H	-0.4898800409	 2.0005666319	-0.4625138092	 0.116058
H	-0.4878104639	 1.5527897354	 1.2552353461	 0.125454
H	-2.0143178175	-0.0385763053	-1.0289069755	 0.115872
H	-1.5520141096	-1.6409670145	-0.4122552624	 0.120283
H	-2.0662141715	-0.3706052047	 0.7115875927	 0.125197
H	 0.4462897657	-1.3681358221	-1.7618197907	 0.104011
H	 0.7550011852	 0.3434162293	-2.0884067231	 0.115263
H	 2.8078715257	 0.3073026061	-0.8258009709	 0.096865
H	 2.268899002	-1.9736295442	 1.0152110005	 0.110578
H	 2.4661818831	-0.2582588884	 1.4092947706	 0.10784
H	 2.4546571232	-2.6996416984	-1.3977549242	 0.074405
