18
gdb 63880	2.55665	1.46385	1.23024	5.0271	73.04	-0.2416	-0.0354	0.2062	1082.6794	0.145088	-439.043931	-439.034984	-439.03404	-439.077203	33.606	
C	-0.0611496863	 1.6079843817	-0.2195349953	-0.459137
C	 0.0323378334	 0.1017108858	-0.0203929735	 0.310671
O	-1.2474527505	-0.5030871536	-0.1338280537	-0.468813
C	 1.1303357396	-0.6974003163	-0.7840978032	-0.214634
N	 1.6611472541	-1.3210265132	 0.4828759517	-0.139921
C	 2.1333214045	-0.2132856511	 1.302527426	-0.282681
C	 0.6651978911	-0.4361180769	 1.2684826575	 0.205381
C	-0.0671508425	-0.9739038045	 2.443074927	 0.076504
O	 0.4828254115	-1.4983696608	 3.3824911653	-0.26395
H	 0.9038608752	 2.1005996457	-0.0741984676	 0.123692
H	-0.3963709766	 1.8380575486	-1.2387957846	 0.113563
H	-0.7825763493	 2.03811476	 0.4818950206	 0.132626
H	-1.6322312383	-0.2392982545	-0.9765182378	 0.282995
H	 0.7021557835	-1.4666390097	-1.4283889415	 0.11853
H	 1.885424008	-0.1228869811	-1.3318215032	 0.102816
H	 2.6227743251	-0.5385664462	 2.215012195	 0.151933
H	 2.557860475	 0.6679876479	 0.8252600625	 0.113782
H	-1.1678825274	-0.8601767519	 2.399217475	 0.096644
