17
gdb 7987	3.51952	1.68349	1.23808	3.9335	64.97	-0.2492	0.0259	0.275	979.1746	0.143141	-401.051579	-401.04375	-401.042806	-401.083671	29.532	
C	-0.0341170351	 1.5495116689	-0.0095565019	-0.401005
C	 0.0636516317	 0.0274132538	-0.0173483741	 0.047825
C	 0.8212371458	-0.5581425965	-1.2349257766	-0.243617
C	 1.4506211676	-1.8433742035	-0.6903241238	 0.047262
O	 2.6436002833	-2.2208628439	-1.3245369298	-0.44224
C	 1.696022976	-1.501829057	 0.7847472238	 0.38555
O	 2.5210036091	-2.0504257485	 1.4888670344	-0.401105
N	 0.8530954684	-0.4869557971	 1.1039322263	-0.320197
H	 0.9621522357	 2.0017163004	-0.0360554208	 0.129348
H	-0.5950108284	 1.8948892375	-0.8834666123	 0.128865
H	-0.5549568881	 1.911782211	 0.8833048816	 0.118378
H	-0.9532084697	-0.3914983647	 0.0207939967	 0.086943
H	 0.1670400475	-0.7115291118	-2.0951566756	 0.111207
H	 1.6305507637	 0.1188532814	-1.5289764373	 0.120121
H	 0.7134437401	-2.6659829141	-0.7163734464	 0.087522
H	 3.2054152488	-2.5731474579	-0.6176221283	 0.29268
H	 0.7864444537	-0.126822688	 2.0433442442	 0.252465
