21
gdb 91430	2.85946	1.46987	1.17712	1.3156	82.79	-0.2352	0.016	0.2512	1115.2432	0.185184	-387.079914	-387.072084	-387.071139	-387.111816	32.156	
O	-0.2566920054	 1.4822715264	-0.3535655853	-0.439938
C	-0.0153613338	 0.1020788991	-0.0736994247	 0.066773
C	-1.4092472153	-0.5057025374	 0.1632596179	-0.197405
C	-1.5007548217	-2.0382959123	 0.2593706609	-0.013086
C	-0.1774481388	-2.7609426221	 0.6535883136	-0.2349
C	 0.1250131094	-2.9433759964	-0.8652674723	-0.04792
C	-1.4094033088	-2.7676964583	-1.1117760093	-0.214782
C	 0.919837079	-1.8220430238	-1.4799729975	-0.072527
C	 0.8251096734	-0.5289684545	-1.1668868622	-0.081083
H	 0.5915276815	 1.936639524	-0.3601047806	 0.279043
H	 0.5499630829	 0.024766453	 0.8712190877	 0.078361
H	-1.7907938935	-0.0533589038	 1.0851015036	 0.099832
H	-2.0605694435	-0.1519328371	-0.644779977	 0.110189
H	-2.3751271891	-2.2977922874	 0.8624291173	 0.064887
H	 0.5571821943	-2.223233486	 1.2573295128	 0.09721
H	-0.3794166483	-3.7248048497	 1.1289476829	 0.094175
H	 0.5500497395	-3.9070583658	-1.1553979893	 0.060661
H	-1.9343326986	-3.7275877153	-1.0925316398	 0.092225
H	-1.7064179596	-2.2106210359	-2.0037209163	 0.096656
H	 1.5988091522	-2.102600444	-2.2822782988	 0.084521
H	 1.439310274	 0.1842231974	-1.7151299335	 0.077108
