15
gdb 130211	2.52302	1.84862	1.07056	1.4444	77.53	-0.1827	-0.0313	0.1515	1046.0456	0.115998	-446.300727	-446.292836	-446.291891	-446.332632	31.056	
N	-0.011293108	 1.3167762308	-0.2900625741	-0.574149
C	 0.0276785934	-0.0608488997	-0.0854808634	 0.325963
N	-1.1055979239	-0.7183649418	-0.0787362008	-0.288908
N	-1.0324549196	-2.037565235	 0.0373751428	-0.105533
N	 0.0565424283	-2.7880310935	 0.2381185689	-0.313552
C	 1.1975328803	-2.1459820923	 0.2810067722	 0.405504
N	 2.3549065334	-2.8229333955	 0.5368857769	-0.557663
C	 1.3178290057	-0.7075255849	 0.059589948	 0.168742
N	 2.4983144088	-0.1765209184	 0.012073042	-0.590985
H	 0.601260739	 1.8309818294	 0.3317522382	 0.249638
H	-0.9561264369	 1.677450465	-0.2510568625	 0.253716
H	-1.9083912773	-2.5305018113	 0.0322515115	 0.287166
H	 2.3495543784	-3.8181842951	 0.384643612	 0.255125
H	 3.1865409412	-2.3091980564	 0.2804548016	 0.274865
H	 2.4501879372	 0.8132383787	-0.2270937432	 0.210072
