20
gdb 63439	4.0706	0.80923	0.76048	3.158	77.85	-0.247	0.0317	0.2787	1530.6628	0.16956	-440.305877	-440.296248	-440.295304	-440.340955	35.836	
C	-0.2445606784	 1.5468014708	-0.1242378809	-0.453247
C	-0.071149874	 0.0333310233	-0.059742077	 0.424992
O	-1.2870919204	-0.6359303431	-0.336701775	-0.476009
C	 1.1928138555	-0.4890005457	-0.8170553589	-0.311416
C	 1.9348527624	-0.5372885751	 0.5459109136	 0.07463
C	 0.5590394647	-0.4772595846	 1.2609175952	-0.291089
N	 2.8068222645	-1.6522690961	 0.8234617525	-0.286939
C	 4.1115477937	-1.5173870099	 1.187568014	 0.150974
O	 4.6984745601	-0.4647991058	 1.3237112066	-0.323607
H	 0.6807235584	 2.070001867	 0.1368185809	 0.128594
H	-0.5234490985	 1.8619782341	-1.1377948803	 0.108247
H	-1.0305640762	 1.8685723968	 0.5658935916	 0.126945
H	-1.6653188974	-0.2555393388	-1.1370680148	 0.274305
H	 0.9995320562	-1.4947888321	-1.2016892769	 0.098222
H	 1.6228146857	 0.1288893969	-1.6096140159	 0.101899
H	 2.5307588037	 0.3587091198	 0.720185739	 0.123732
H	 0.4685383784	 0.1474340997	 2.1524976867	 0.107498
H	 0.1782073515	-1.4788180713	 1.4811194353	 0.105839
H	 2.4334062191	-2.585576245	 0.7419228181	 0.244181
H	 4.592978101	-2.5022873809	 1.3513743461	 0.07225
