21
gdb 78462	3.32447	1.43433	1.41011	0.1434	85.68	-0.2348	0.0202	0.255	1054.0235	0.185686	-349.941488	-349.934378	-349.933434	-349.97245	30.477	
C	 0.0563360897	 1.5918893567	 0.0515303445	-0.427163
C	 0.0012748442	 0.0789672604	 0.0115598197	-0.013866
C	 1.2702789065	-0.6871108721	-0.2693566946	-0.045826
C	 0.6620925115	-0.7016884833	 1.120638194	-0.045823
C	 0.3502570064	-2.2179746531	 1.3685641427	-0.080913
C	 1.5993935606	-2.8414669925	 0.6801814226	-0.190223
C	 1.2524064431	-2.1963516283	-0.6932745611	-0.080912
C	-0.187400872	-2.6692709573	-0.8299004028	-0.081178
C	-0.7235830285	-2.6821180958	 0.3955262831	-0.08118
H	 1.0036666783	 1.9488926032	 0.469669901	 0.111205
H	-0.0429003774	 2.0170740296	-0.953490263	 0.114986
H	-0.7522683648	 2.0000460816	 0.6681863464	 0.114987
H	-0.9199589363	-0.3247408523	-0.3957584937	 0.081715
H	 2.1752070828	-0.1295976286	-0.4871498278	 0.077762
H	 1.1119905579	-0.1550810724	 1.9428073923	 0.077762
H	 0.183082152	-2.4619469692	 2.4178745621	 0.055117
H	 2.5445877849	-2.4790238332	 1.0975482012	 0.085224
H	 1.5879026701	-3.9355520047	 0.6636793673	 0.088152
H	 1.9114557083	-2.420520685	-1.5322767393	 0.055117
H	-0.6908108913	-2.8573748922	-1.7701045135	 0.092528
H	-1.7542763761	-2.8828562816	 0.6604109288	 0.092529
