17
gdb 123909	3.51031	1.5787	1.13002	3.53	74.22	-0.1893	0.0355	0.2248	1037.1106	0.141765	-414.196001	-414.189023	-414.188079	-414.227214	28.071	
C	-0.0246371897	 1.4406130671	 0.0651176775	-0.17404
C	 1.434463737	 1.9554614598	-0.0054680538	-0.172018
N	 2.2751273506	 1.4785839758	 1.0963903946	-0.405791
C	 1.9845009508	 0.1318452333	 1.4161333614	 0.164858
C	 0.9162349063	-0.5583051066	 0.8734466882	 0.365569
N	 1.001636271	-1.8310721433	 1.3410386381	-0.302044
N	 2.0676443217	-2.0149481589	 2.1562359591	-0.232915
C	 2.6635527572	-0.8258891476	 2.203519641	-0.101695
N	-0.1092655357	-0.029439567	 0.0808287083	-0.40652
H	-0.4967763252	 1.8185360389	 0.9802920495	 0.114507
H	-0.6044572663	 1.812963319	-0.7837450179	 0.106796
H	 1.8782877836	 1.6151907984	-0.9507910374	 0.108049
H	 1.4476385787	 3.0491388252	-0.0137121115	 0.104635
H	 2.2047935348	 2.0866744764	 1.9044283219	 0.228577
H	 0.383796668	-2.6012857234	 1.1529640864	 0.265069
H	 3.5570186914	-0.6962322865	 2.7968390595	 0.103046
H	-0.1161306142	-0.4112954706	-0.8593453747	 0.233916
