21
gdb 105241	1.7969	1.52541	1.0409	2.8849	78.8	-0.257	0.0698	0.3268	1259.9623	0.180637	-424.183907	-424.174002	-424.173058	-424.218832	36.306	
C	 2.2224038375	 0.0313076466	-0.9514495781	-0.422607
C	 1.2443217779	-0.8568077633	-0.2117398454	-0.048776
C	 1.6794720586	-1.7622581507	 0.9139597307	-0.32395
C	 0.7579931714	-0.5948776794	 1.1981279668	 0.305714
C	 1.2911908785	 0.5635613387	 2.0086028466	-0.157645
O	 1.2333795769	 0.1984822411	 3.3852865359	-0.423102
C	-0.6790845847	-0.9101682892	 1.5179765659	 0.01646
C	-1.7971720826	-0.4303652676	 0.6931910066	-0.186387
O	-1.3720492814	-1.7958013946	 0.6370063525	-0.238105
H	 3.036596261	 0.3803274845	-0.3100014751	 0.115596
H	 2.6796042798	-0.5199984041	-1.7804827687	 0.121296
H	 1.7290738796	 0.913287045	-1.3758789806	 0.114302
H	 0.4734489001	-1.2887492943	-0.8440649674	 0.104027
H	 1.2612417533	-2.7617476288	 0.958409892	 0.122256
H	 2.7025787316	-1.6823339619	 1.2683180466	 0.108538
H	 2.3225843521	 0.7963225406	 1.7102472916	 0.085772
H	 0.6819094484	 1.4624921594	 1.819125885	 0.085839
H	 1.4599161602	 0.9723538331	 3.909418379	 0.287087
H	-0.8712208626	-1.095357574	 2.5739695786	 0.108882
H	-2.7765751869	-0.2670228255	 1.1401820061	 0.11476
H	-1.5865951386	 0.1554149743	-0.2005542185	 0.110044
