19
gdb 108395	2.31574	1.36626	1.08219	1.2551	81.96	-0.2459	0.0442	0.2901	1191.7866	0.15823	-385.822961	-385.813987	-385.813043	-385.856632	34.19	
O	 0.0893526347	 1.3791776611	-0.1770560986	-0.412766
C	 0.0449392029	-0.0118604933	 0.1096728913	-0.172373
C	-1.3548125044	-0.548979036	 0.1364900031	 0.311194
C	-2.4121590099	-0.2270467367	 1.2036552755	-0.286353
C	-2.934534	-1.6984513046	 1.1039719711	-0.233764
C	-1.876913272	-1.978203165	 0.0311917717	-0.126042
C	-2.0389964753	-1.026358237	-1.1428229114	-0.277375
C	-3.3069355931	-0.5342761103	-1.6002079853	 0.341171
C	-4.3682272054	-0.1133952681	-1.9813206253	-0.458287
H	-0.3997581337	 1.5201137365	-0.9949340014	 0.285465
H	 0.6525666417	-0.5933052796	-0.6040391542	 0.084119
H	 0.5117316361	-0.1203317187	 1.095578738	 0.10977
H	-1.9614918184	-0.0073914501	 2.1740316178	 0.106397
H	-3.1206681888	 0.5655382027	 0.9523084597	 0.112657
H	-2.7621906306	-2.2646679843	 2.0212684471	 0.105372
H	-3.9734067182	-1.8318845213	 0.7914218185	 0.113398
H	-1.3230704102	-2.9011872098	-0.0990708762	 0.091666
H	-1.3266966021	-1.232050444	-1.939707376	 0.109996
H	-5.3034842533	 0.2554259487	-2.3226636856	 0.195754
