16
gdb 77444	2.42192	1.55898	1.24001	3.4464	65.79	-0.2488	0.0012	0.25	1042.1083	0.123015	-475.014851	-475.006231	-475.005287	-475.047701	32.382	
C	 0.085643616	 1.5140822176	-0.0420974565	-0.494833
C	 0.0358105392	 0.0311985853	 0.068137136	 0.371349
O	 0.5187273565	-0.7751585561	-1.0495045297	-0.294214
C	 1.1891481104	-1.6398817467	-0.1869971915	 0.431471
O	 1.9264885901	-2.5262960092	-0.4754178179	-0.338069
C	 0.6444837843	-0.9776114849	 1.0437969555	-0.032933
N	 1.1369061098	-0.8234288493	 2.3621246796	-0.620062
C	-0.9019420837	-0.82260418	 0.8448112105	 0.043278
O	-1.5316367453	-0.2686388669	 1.9418298766	-0.426694
H	 1.1087064561	 1.8784908222	-0.1733692011	 0.131967
H	-0.5105139062	 1.8458847956	-0.8983837447	 0.148174
H	-0.3433136834	 1.9556626769	 0.8607869043	 0.145947
H	 1.2637395787	-1.7224435997	 2.8173034326	 0.260231
H	 2.0197703044	-0.3254334924	 2.3960598089	 0.256136
H	-1.4718316314	-1.6004143805	 0.3410620924	 0.121365
H	-0.8538078556	-0.200698872	 2.6373522752	 0.296886
