21
gdb 81431	3.24067	1.39842	1.32626	1.7459	81.4	-0.2445	0.0929	0.3374	1091.6431	0.18325	-387.053555	-387.04561	-387.044666	-387.085345	32.547	
C	-0.1395942411	 1.5476724393	 0.0121433827	-0.442433
C	-0.0078275521	 0.0297388063	 0.0294877682	 0.066034
C	 1.0715236121	-0.6080799546	-0.9022230883	-0.090765
C	 2.1135803565	-0.2713487535	 0.221720434	-0.235067
C	 0.885797464	-0.6022235215	 1.1415956239	-0.12565
C	 0.7773075863	-2.1259282973	 0.8477388945	 0.426483
C	 1.2876867765	-3.1511112897	 1.8150601086	-0.490576
O	-0.3365007693	-2.5080992599	 0.0134358248	-0.300436
C	 0.9001317698	-2.1184943355	-0.6119425334	-0.026972
H	 0.8126336718	 2.0778694865	 0.0999098997	 0.113855
H	-0.6140857928	 1.8755870379	-0.9195146748	 0.116399
H	-0.778404034	 1.8808955893	 0.8377493713	 0.116252
H	-0.9960778625	-0.4204952811	-0.0587417327	 0.094438
H	 1.2032073659	-0.2958682757	-1.9388431844	 0.059003
H	 2.9911782791	-0.920659959	 0.3018251418	 0.09058
H	 2.4281900974	 0.7723996788	 0.2469904262	 0.099962
H	 0.8317764197	-0.2836330894	 2.183858216	 0.055108
H	 0.6361161005	-3.215670523	 2.6939067194	 0.127056
H	 1.3265106717	-4.1385633274	 1.3478717835	 0.128952
H	 2.2917217605	-2.8874275106	 2.164616562	 0.123077
H	 1.3949237699	-2.8815196899	-1.2049702231	 0.094702
