22
gdb 87217	3.15934	0.95012	0.94355	1.0337	83.29	-0.2228	0.088	0.3108	1407.1279	0.192085	-404.297347	-404.287404	-404.28646	-404.332662	36.642	
C	-0.2605100578	 1.4497016503	 0.2428173159	-0.315244
N	-0.0226778582	 0.0144284167	 0.2423820849	-0.107472
C	 1.2724671555	-0.4635302784	-0.2321930576	-0.304472
C	 0.8991385259	-0.6008545386	 1.2080754983	 0.329351
C	 1.6343402204	 0.2270412579	 2.2476149401	-0.463082
C	 0.3981748797	-1.9525887349	 1.7073188026	-0.279764
C	-0.7383009516	-1.8206046081	 2.693208272	 0.103769
C	-0.9659874534	-2.7904708041	 3.7701662144	-0.183064
O	-0.3973414802	-1.5106399835	 4.0521206548	-0.237595
H	 0.6376706062	 2.0676953912	 0.3940189507	 0.10062
H	-0.6974199762	 1.7295007553	-0.721545636	 0.122776
H	-0.9837413081	 1.7006438408	 1.0255645572	 0.123123
H	 1.2541714904	-1.3211471145	-0.9017724394	 0.105449
H	 2.0281804395	 0.2829220041	-0.477580041	 0.100552
H	 1.9975918361	 1.1738510352	 1.8431757481	 0.11273
H	 0.996508883	 0.4352040431	 3.1112762701	 0.146429
H	 2.5036081233	-0.3287895239	 2.6149418425	 0.1208
H	 0.0411685837	-2.5341276275	 0.8498765678	 0.104696
H	 1.21901749	-2.5109385036	 2.1734596775	 0.096402
H	-1.5985857384	-1.2641949113	 2.3190004197	 0.101079
H	-1.9721254418	-2.9513837198	 4.1551931759	 0.112447
H	-0.2884159079	-3.6367162964	 3.8813294513	 0.110472
