18
gdb 108885	3.17004	1.0584	0.85917	1.262	79.35	-0.2514	0.0204	0.2718	1373.0135	0.14656	-401.938006	-401.928746	-401.927802	-401.973388	33.04	
C	 0.1395567073	 1.5292330824	 0.0779718752	-0.370675
C	-0.0124709557	 0.0298878133	-0.1738173612	-0.284805
C	-1.4266505517	-0.451384324	-0.0972083779	 0.430095
N	-2.4553808854	 0.2541334854	 0.1463840089	-0.309186
C	-3.6173254236	-0.661466824	 0.1076340875	-0.171793
C	-2.9857864188	-2.0643168038	-0.1753543826	-0.124865
O	-1.5818197349	-1.7867412595	-0.322246335	-0.256357
C	-4.3982958102	-0.6225014152	 1.3402350376	 0.34269
C	-5.0481436211	-0.6256683301	 2.3507447545	-0.465562
H	 1.1917727982	 1.8197351082	 0.0125988687	 0.110126
H	-0.4276802229	 2.1080888669	-0.6547717141	 0.133735
H	-0.2360140104	 1.7986087233	 1.06787325	 0.137027
H	 0.3804918896	-0.2483571335	-1.1598775	 0.128994
H	 0.5741840378	-0.5541997515	 0.5464702252	 0.130647
H	-4.2664685008	-0.3558315172	-0.7225601004	 0.117244
H	-3.1242792656	-2.7607847634	 0.6546198296	 0.130047
H	-3.3514330269	-2.5186894308	-1.0992642426	 0.122293
H	-5.6210001252	-0.6126790565	 3.2448290565	 0.200345
