20
gdb 23544	2.12235	1.5518	0.99213	1.1172	83.15	-0.2304	0.0142	0.2446	1235.0555	0.170139	-403.080616	-403.071548	-403.070604	-403.114472	34.459	
C	-0.0404335324	 1.5622412169	 0.2150669142	-0.384784
C	 0.0614697705	 0.0369041012	 0.1181958099	-0.190087
C	 0.621764859	-0.4819242645	-1.2102187975	-0.088118
C	 0.8813717185	-2.0008228248	-1.3456266168	-0.06946
C	-0.3987057462	-2.7722261635	-1.3235943658	-0.284524
C	-0.0050263257	-2.0714910168	-2.6089874256	-0.138662
C	-0.2366268855	-0.6095297856	-2.4862060247	 0.425222
N	-0.7711067784	 0.1669502624	-3.33394525	-0.27089
O	-0.6925392333	 1.5183550834	-2.9303760519	-0.390481
H	 0.9423192658	 2.0296221821	 0.085715065	 0.108321
H	-0.6988497697	 1.9629385967	-0.5578687698	 0.144107
H	-0.4245710151	 1.86202722	 1.195267549	 0.103669
H	 0.7195151795	-0.3353149943	 0.9150898721	 0.0973
H	-0.921445069	-0.4100471941	 0.3057854916	 0.096336
H	 1.5234459581	 0.0858379209	-1.4730306187	 0.098297
H	 1.8435871047	-2.473089058	-1.1938640762	 0.096129
H	-0.2917932195	-3.8519219658	-1.3588094987	 0.119023
H	-1.2557378132	-2.4321060524	-0.7507179881	 0.120181
H	 0.1433542918	-2.6110856891	-3.5350530139	 0.103835
H	-1.1249234198	 1.9696069955	-3.662756624	 0.304585
