21
gdb 93017	2.23359	1.81479	1.20164	1.0609	83.55	-0.2239	0.0205	0.2444	1100.3618	0.183468	-387.095809	-387.08725	-387.086306	-387.128287	34.329	
C	 0.0468313701	 1.5013282483	-0.0344916551	-0.471075
C	-0.0207201124	-0.0127039754	 0.0048594848	 0.358237
C	-0.8555211761	-0.6525982367	 1.0791954605	-0.322651
C	 0.6667514272	-0.7321656648	 1.1511137261	-0.121524
C	 1.3339606235	-2.0265879645	 0.8739280469	-0.040144
C	 1.1287431247	-2.7127279438	-0.251502135	-0.092487
C	 0.2004832206	-2.205383207	-1.3243508113	-0.313589
C	 0.0983722464	-0.6689140299	-1.359531411	 0.061127
O	-1.0261786825	-0.249728958	-2.1327349834	-0.440141
H	 0.9890839464	 1.8428199411	-0.4798225435	 0.109684
H	-0.7737042967	 1.9058072098	-0.6339358476	 0.135275
H	-0.0204701753	 1.9255348622	 0.9721117349	 0.106614
H	-1.364188908	 0.0036700162	 1.7776834386	 0.108105
H	-1.386337338	-1.5729885838	 0.8651034617	 0.118001
H	 1.1425807783	-0.1039547919	 1.8980138481	 0.079048
H	 1.9974083532	-2.4179867402	 1.6404262528	 0.08603
H	 1.611683936	-3.6727754596	-0.4074930933	 0.085363
H	 0.5248372087	-2.5604324874	-2.3109991707	 0.090758
H	-0.8127319245	-2.6068441498	-1.1836969882	 0.120159
H	 1.0251496159	-0.2791140629	-1.8140535336	 0.063786
H	-0.9008845174	-0.5683374715	-3.0323465118	 0.279422
