16
gdb 45015	2.70295	1.69817	1.12094	1.8205	72.04	-0.2427	-0.0144	0.2283	1039.6881	0.12704	-434.091934	-434.084646	-434.083701	-434.123885	28.289	
N	 0.0262420967	 0.8068449826	 1.038671732	-0.511391
C	 0.0604415984	-0.0606837485	 0.1107652275	 0.372899
N	 1.2072399313	-0.4808474908	-0.5926207192	-0.361287
C	 1.4212763258	-1.7566232524	-1.0907487965	 0.403347
O	 2.4602158977	-2.0705002523	-1.6237163362	-0.344538
C	 0.263323219	-2.7165790394	-0.8303722263	-0.367149
C	-1.0781813482	-2.0061758868	-0.8831375549	-0.02056
C	-1.8375718056	-1.6603194535	 0.3602747345	-0.241562
N	-1.1146676253	-0.6386996676	-0.3817865416	-0.073636
H	 0.9626302054	 1.1330763659	 1.2732001127	 0.214159
H	 2.0188452893	 0.121404177	-0.5882157207	 0.259369
H	 0.327462213	-3.524086147	-1.5603043196	 0.146153
H	 0.4385758329	-3.1583279507	 0.1582024995	 0.142339
H	-1.6395412908	-2.1428642409	-1.8044579239	 0.114516
H	-2.919757381	-1.5759224484	 0.3361365177	 0.134465
H	-1.4197731084	-1.9740775572	 1.3138084749	 0.132877
