21
gdb 63142	2.30365	1.98035	1.55054	1.3486	76.5	-0.2424	0.0819	0.3243	979.4259	0.183824	-424.230112	-424.222082	-424.221138	-424.261914	32.581	
C	-0.0465415687	 1.5240857048	 0.0359018082	-0.467336
C	 0.0075667047	-0.007545153	 0.0059336093	 0.307328
C	-1.4005754933	-0.5752543872	-0.2051128884	-0.467306
C	 1.0610400263	-0.6209911622	-0.9555791716	 0.044734
C	 2.3706424327	-0.0666107147	-0.3843327225	-0.100297
O	 2.1158368751	-0.0550126454	 1.0388309341	-0.284353
C	 0.8007671048	-0.611532466	 1.1961524761	 0.044754
C	 0.8906986808	-2.0887878511	 0.7982340096	-0.100317
O	 1.0267071777	-2.0220100258	-0.6396557973	-0.284344
H	 0.8836981893	 1.96545165	 0.3957743686	 0.13813
H	-0.2630811951	 1.9260445721	-0.9603204719	 0.112702
H	-0.8510337836	 1.8578239891	 0.7002109905	 0.115067
H	-1.8957726931	-0.0523044256	-1.0304609508	 0.115063
H	-1.3874677845	-1.6384977644	-0.4480372993	 0.138145
H	-2.0184620158	-0.4270891922	 0.6877377568	 0.112701
H	 0.9121053779	-0.4983454642	-2.0287620772	 0.078955
H	 3.2111434413	-0.7301751099	-0.6130008369	 0.109462
H	 2.6084164113	 0.9474009919	-0.7281099531	 0.099247
H	 0.4494336373	-0.4043039866	 2.2073738912	 0.07896
H	 1.7737503068	-2.5617830957	 1.2404366558	 0.109454
H	-0.000070522	-2.6722133536	 1.0610828489	 0.099249
