20
gdb 33159	3.02438	1.06107	0.84367	1.9776	82.45	-0.193	0.0462	0.2392	1387.9141	0.171159	-403.181106	-403.171612	-403.170668	-403.215967	34.573	
C	 0.0273990745	 1.5174033936	 0.0147628484	-0.506227
C	 0.0025036455	 0.024729758	-0.039602075	 0.289992
C	-0.02978407	-0.8187327807	-1.1290670908	-0.232495
C	-0.0249151592	-2.1571873521	-0.6495703401	-0.166327
C	 0.0106831828	-2.0925868466	 0.7210285183	-0.110708
N	 0.0314697754	-0.7661228355	 1.0942807152	-0.029416
C	-0.0068419552	-0.302621647	 2.4659170376	-0.172803
C	-1.4342651818	-0.1592699512	 2.9992607344	-0.071219
O	-1.3263846382	 0.28555983	 4.3393782126	-0.414524
H	 0.9258277531	 1.9060276993	 0.5112708638	 0.128313
H	 0.0200974114	 1.9145882548	-1.0029054561	 0.133703
H	-0.8387793289	 1.9419095145	 0.538380329	 0.123938
H	-0.0424757697	-0.4994176923	-2.1606490626	 0.085786
H	-0.0333434674	-3.0598439785	-1.2410287544	 0.089909
H	 0.0324094336	-2.8684996149	 1.4704115774	 0.108676
H	 0.539252465	-1.00998474	 3.0968022183	 0.126358
H	 0.5037163833	 0.660773678	 2.5438170275	 0.127451
H	-1.9911423888	 0.5543497734	 2.3727983327	 0.098279
H	-1.945680843	-1.1311976925	 2.9260540518	 0.098733
H	-2.2115956223	 0.3721244896	 4.7038223721	 0.292582
