22
gdb 89735	2.39961	1.418	1.20404	1.7026	82.47	-0.2351	0.0738	0.3089	1176.1014	0.19246	-404.318291	-404.308458	-404.307513	-404.352225	37.785	
C	-0.8644503724	 1.0958252024	-0.1156543362	-0.42566
C	 0.1536552306	-0.0331358392	-0.0710899397	 0.005072
C	 1.5496112329	 0.1698572993	-0.7362857715	-0.357353
C	 2.1532329724	-0.6107210167	 0.4329338669	 0.339813
C	 2.9767274758	-1.8326626803	 0.3625673711	-0.298029
N	 3.5069764744	-0.5918643662	 0.9743632708	-0.381377
C	 0.881430257	-0.4217428339	 1.2692092553	 0.325887
C	 1.0120112476	 0.6924166443	 2.300765363	-0.454409
O	 0.4463188518	-1.6266280537	 1.8728246688	-0.477064
H	-0.4447211841	 2.0387868981	 0.2501105866	 0.113216
H	-1.2122743657	 1.2666072104	-1.1404409911	 0.116375
H	-1.7455149457	 0.863807793	 0.4936983385	 0.112068
H	-0.2916131767	-0.956884262	-0.4535980708	 0.082405
H	 1.6916815192	-0.2340790025	-1.741722246	 0.101542
H	 1.8538442133	 1.2232299111	-0.7343688961	 0.097799
H	 2.7917736986	-2.6400505417	 1.0638112924	 0.132445
H	 3.3557155458	-2.1386732135	-0.609894834	 0.105091
H	 4.1340147723	-0.123519935	 0.3235634343	 0.226071
H	 1.3806524061	 1.6196053748	 1.8528474781	 0.118789
H	 0.0444875959	 0.9125208674	 2.7691366557	 0.102097
H	 1.7236459971	 0.3895940106	 3.0733168729	 0.139739
H	-0.1819479362	-1.4087956068	 2.5685849512	 0.275485
