20
gdb 79471	2.72226	1.80627	1.47104	1.2633	77.77	-0.2115	0.075	0.2864	982.1936	0.171592	-403.0874	-403.079787	-403.078843	-403.118824	31.278	
C	 0.0609164975	 1.4660068934	-0.1857534386	-0.333338
N	 0.0401541325	 0.0150031198	-0.0329949748	-0.127672
C	-1.2212186624	-0.4617712842	 0.5726129949	-0.038628
C	-0.9968346819	-1.9688626493	 1.0064653082	 0.044848
C	 0.5400013603	-2.0168849943	 0.9582124265	-0.232644
C	 0.6800962996	-0.5059710683	 1.2425045522	 0.289893
C	 1.9971918114	 0.0574627625	 1.7020520897	-0.522058
C	-0.7289967023	-0.3225052392	 2.0219736755	 0.047626
O	-1.2239245841	-1.6077559322	 2.4041405182	-0.29837
H	 1.0739740082	 1.792915427	-0.4381802694	 0.122034
H	-0.5936602195	 1.7429863182	-1.0187329035	 0.120667
H	-0.2691538968	 2.0345640646	 0.7020801246	 0.094417
H	-2.1806443359	-0.1371092602	 0.1722438982	 0.079067
H	-1.5993971617	-2.8073383393	 0.6625513867	 0.083572
H	 0.9257515709	-2.6701543119	 1.743576862	 0.101506
H	 0.9647993499	-2.2707723446	-0.0139125489	 0.106101
H	 2.7798074961	-0.1134576615	 0.9542552722	 0.128381
H	 1.9399653571	 1.1338789642	 1.8919268722	 0.120079
H	 2.3082574921	-0.4300747778	 2.6314798779	 0.128123
H	-0.8925837009	 0.4777092031	 2.7421698364	 0.086395
