15
gdb 81284	2.86024	1.6229	1.29491	4.6816	67.28	-0.2345	-0.0623	0.1722	968.5433	0.113016	-457.749342	-457.742177	-457.741232	-457.780787	27.912	
O	-0.0353596554	 1.3879164694	-0.0549893523	-0.433074
C	 0.0533724188	-0.0039227286	 0.0004640373	 0.133285
C	 0.0988715299	-0.6264430839	 1.4447497341	-0.024
O	-1.3498322514	-0.5293615744	 1.5055808663	-0.285315
C	-1.3659005861	-0.6268726791	 0.0565257751	-0.059774
C	-1.2874634091	-2.1124115369	-0.3263710251	 0.40432
O	-1.9512876691	-2.6204927907	-1.2016892218	-0.331577
C	-0.248366751	-2.8211081001	 0.4692772347	-0.180573
C	 0.4757136345	-2.0821972229	 1.3245910831	-0.046008
H	 0.8540774432	 1.7531817599	-0.0987279578	 0.292371
H	 0.7633598447	-0.4140766033	-0.727292927	 0.091192
H	 0.5966122863	-0.0791311075	 2.24750136	 0.089479
H	-2.193525336	-0.0997991175	-0.4192713609	 0.108943
H	-0.0983290487	-3.8808753373	 0.2958621685	 0.121881
H	 1.3107480094	-2.4837478272	 1.8898943756	 0.118847
