16
gdb 66677	4.12486	1.22732	1.16203	3.2551	75.58	-0.2315	-0.0257	0.2058	1087.7902	0.122608	-400.643215	-400.635587	-400.634642	-400.675407	28.888	
C	 0.0172630837	 1.5081161904	 0.0370525343	-0.523323
C	-0.0543733557	 0.0247944152	-0.0657091188	 0.367524
C	 0.5502221884	-0.9845227803	-1.0842426748	-0.229592
C	 0.8167867682	-1.8930231025	 0.0569551477	-0.062606
N	 0.2645727425	-0.9080174079	 1.0788127945	-0.211905
C	-1.0719584565	-0.9712667073	 0.3688470937	-0.197729
C	-0.5445392511	-2.0092774157	-0.6338803747	 0.308715
C	-1.1124523452	-3.096789843	-1.409348553	 0.007188
O	-2.2830712085	-3.4070513213	-1.4116985272	-0.278878
H	 1.05616613	 1.854711691	 0.021588481	 0.133281
H	-0.518430696	 1.9866338319	-0.7898021558	 0.131661
H	-0.4366124898	 1.8356888622	 0.9771946159	 0.142961
H	 0.9966210578	-0.8982128763	-2.0652443871	 0.115577
H	 1.5681839333	-2.6481503334	 0.2502097477	 0.118968
H	-2.0151162182	-0.8642743768	 0.8890800835	 0.113681
H	-0.3608969029	-3.6476730661	-2.0226286869	 0.064477
