21
gdb 122093	2.9396	0.68225	0.57158	4.006	80.69	-0.2441	0.03	0.2741	1915.5464	0.181157	-420.40157	-420.390536	-420.389592	-420.438892	38.046	
C	-0.2202346951	 1.5486206864	-0.1007434684	-0.329405
N	 0.0953555974	 0.1322493313	 0.0635642597	-0.287096
C	 0.7538249067	-0.4708937841	-1.0906168005	-0.114322
C	 1.2392060499	-1.9023102497	-0.7787701027	-0.207533
C	 2.3730452056	-1.9501472895	 0.2499794091	-0.192158
C	 2.9213954698	-3.3603913542	 0.4376561715	-0.078378
O	 3.9385114969	-3.2967480699	 1.4234054481	-0.420521
C	-0.188386877	-0.5087239874	-2.2256700549	 0.306306
N	-0.9068040838	-0.5440856625	-3.1298224491	-0.331517
H	 0.6506995378	 2.1743846587	-0.3632393931	 0.100266
H	-0.9688299855	 1.6675855297	-0.8899511618	 0.150664
H	-0.6504793031	 1.9284044432	 0.8293933771	 0.126977
H	 0.6964293688	 0.0092849957	 0.8698537543	 0.229864
H	 1.6244719773	 0.120466866	-1.4383176015	 0.100504
H	 0.379213356	-2.4859226067	-0.433015703	 0.128042
H	 1.578543917	-2.35386359	-1.7175333346	 0.120344
H	 3.1971456998	-1.295773532	-0.0602677458	 0.112146
H	 2.0378711601	-1.5958154483	 1.2320138863	 0.113784
H	 2.1068987521	-4.0369799529	 0.7436838157	 0.092055
H	 3.3136381712	-3.7359289482	-0.5215101675	 0.090835
H	 4.2901320982	-4.1822403456	 1.5533220712	 0.289143
