16
gdb 9313	6.20521	0.88158	0.78317	2.0815	69.67	-0.2774	-0.0394	0.2379	1425.1823	0.127698	-383.738228	-383.729098	-383.728153	-383.773038	31.225	
C	-0.0606327486	 1.4566240968	-0.0645373641	-0.385157
C	 0.0267425706	-0.0689118654	 0.0346296514	-0.192525
C	 0.7688236016	-0.5101692703	 1.284611681	-0.046561
O	 0.800543725	-1.9537099429	 1.290503763	-0.234115
C	 1.4214317662	-2.513900756	 2.3405948121	 0.294678
O	 1.9357624835	-1.9054059009	 3.2458211751	-0.353794
C	 1.3935605992	-3.9588906505	 2.2452610484	 0.223919
C	 1.4009088498	-5.1600005782	 2.2195117974	-0.36028
H	 0.9346455751	 1.9125875082	-0.1005750032	 0.121986
H	-0.5968322151	 1.7570570282	-0.9687536077	 0.122435
H	-0.5902670951	 1.8834238545	 0.7940108123	 0.122006
H	-0.9777996286	-0.5066217804	 0.0454477429	 0.11302
H	 0.5379546032	-0.4776231337	-0.8442539144	 0.113035
H	 1.7971823217	-0.1334420208	 1.3053829918	 0.124642
H	 0.2751930358	-0.1630981273	 2.1987399846	 0.124838
H	 1.4078532256	-6.2225908914	 2.1959456293	 0.211873
