19
gdb 81825	2.11797	1.69091	1.15191	5.4604	80.09	-0.2419	0.0311	0.273	1131.3589	0.159021	-382.052228	-382.043283	-382.042339	-382.0856	33.605	
C	-0.1009982829	 1.5957878836	-0.1523201878	-0.412245
C	 0.0093564702	 0.0823396464	-0.0691025449	 0.009064
C	 0.7080871724	-0.6602446587	-1.2172054634	-0.118958
N	 2.1102054226	-0.1738058528	-1.2308117768	-0.358395
C	 1.7235988807	-1.2650221687	-0.3120873458	 0.340879
C	 2.4125572079	-2.5927386989	-0.2940764454	-0.511986
C	 1.0859240616	-0.5635389669	 0.9108945894	-0.232821
C	 1.935995393	 0.3158660846	 1.6975004136	 0.302109
N	 2.6048557934	 1.0099525302	 2.3361657984	-0.344068
H	 0.8636769012	 2.0370663214	-0.4115213911	 0.155085
H	-0.8308123883	 1.8808839237	-0.9176885474	 0.112935
H	-0.4299749717	 2.0208163879	 0.8009907535	 0.12606
H	-0.962709465	-0.3691901017	 0.1475645885	 0.084866
H	 0.2524370414	-1.0648764712	-2.1131996994	 0.098538
H	 2.5788423029	-0.6029097146	-2.028066433	 0.231258
H	 2.5611327615	-2.9675373598	-1.3124057106	 0.124078
H	 3.3954997731	-2.5190048279	 0.1849019013	 0.145196
H	 1.8259066239	-3.3363550285	 0.2556363277	 0.128978
H	 0.6092497121	-1.285716008	 1.5789744833	 0.119426
