15
gdb 29246	3.26802	1.41165	0.9873	2.4352	74.47	-0.1922	-0.027	0.1652	1118.8504	0.115824	-450.194308	-450.186395	-450.185451	-450.22659	30.44	
N	 0.0172988882	 1.4431274819	 0.2146123173	-0.593556
C	-0.0418130517	 0.0599178128	 0.0009351799	 0.119177
C	-1.164668028	-0.6800000164	-0.127527672	-0.044091
N	-1.1231409545	-2.0362427979	-0.3835064491	-0.341889
C	 0.0354803168	-2.7631359973	-0.562238346	 0.463392
N	-0.028133153	-4.0154198448	-0.80899791	-0.580241
N	 1.1783537743	-1.9735428811	-0.4380180748	-0.429437
C	 1.2524512884	-0.6136319972	-0.1487916471	 0.418146
O	 2.3282910273	-0.0506096104	-0.0316110211	-0.391644
H	 0.9702978892	 1.7073269551	 0.4400583537	 0.261862
H	-0.627883556	 1.7865964747	 0.9129406598	 0.24489
H	-2.1579469563	-0.2587891084	-0.0333330957	 0.128003
H	-1.9723290187	-2.569957073	-0.4670218208	 0.273392
H	 0.8938921065	-4.4286787967	-0.9182066181	 0.211211
H	 2.0733157975	-2.4309196413	-0.5374035857	 0.260786
