20
gdb 57113	2.97088	1.0745	0.83276	3.5656	78.81	-0.296	0.0129	0.3089	1378.8266	0.17185	-403.175503	-403.166176	-403.165232	-403.211257	33.749	
O	-0.0050932811	 1.457588315	 0.0037641215	-0.412725
C	 0.0671068882	 0.0427695472	-0.0264205679	-0.038251
C	 0.7865000186	-0.4173257555	-1.2352350679	 0.262563
N	 1.3826261559	-0.7577862679	-2.1650385707	-0.325439
C	 0.6830037396	-0.5623024714	 1.2427663189	 0.022047
C	-0.0534725786	-0.157288283	 2.5303106371	-0.210878
C	 0.4867967947	-1.1566958934	 3.5648751459	-0.21112
C	 0.6369480795	-2.4903986789	 2.7880423867	-0.207908
C	 0.6661246906	-2.1080695207	 1.2794537592	-0.226694
H	 0.8944946281	 1.8036261573	 0.0336462559	 0.293052
H	-0.9730747998	-0.2949450508	-0.1092216468	 0.13603
H	 1.72412227	-0.2138535229	 1.3068656104	 0.077387
H	 0.1034772428	 0.8880819785	 2.8046489939	 0.105249
H	-1.1340474675	-0.2977925333	 2.3907362915	 0.098955
H	 1.4654302558	-0.8168212059	 3.9230197397	 0.101307
H	-0.1582499648	-1.2475769209	 4.4427303063	 0.100281
H	 1.5410748031	-3.0269281433	 3.0871416827	 0.10523
H	-0.2037047551	-3.1590513867	 2.9937231644	 0.105753
H	-0.2371022756	-2.4759257333	 0.7781879232	 0.104349
H	 1.5155550957	-2.5406375902	 0.7463913658	 0.120813
