20
gdb 122699	5.85261	0.56055	0.54356	2.2884	80.31	-0.2479	0.0302	0.2781	2042.9833	0.170042	-440.271481	-440.261561	-440.260616	-440.308361	34.369	
O	-0.0901720133	 1.4881530117	 0.4344012818	-0.421456
C	-0.0117260186	 0.0900137255	 0.1971742839	-0.072665
C	-1.4320118685	-0.4513695096	 0.1112327678	-0.153076
C	-1.4706492863	-1.9587296734	-0.156068815	-0.181644
N	-2.8492884425	-2.4386636894	-0.1331518199	-0.325035
C	-3.2878585518	-3.0978397451	-1.0989584971	 0.4617
C	-4.6164476111	-3.7354698445	-1.4486111081	-0.373287
C	-3.8856025435	-4.1539346051	-2.7404936671	-0.076481
O	-2.6655651129	-3.5035474826	-2.2749612123	-0.262828
H	 0.8055798587	 1.8336501949	 0.486022781	 0.283702
H	 0.5287601561	-0.1240808003	-0.7399395498	 0.082971
H	 0.5333397414	-0.4210965279	 1.0084533394	 0.082198
H	-1.9593609764	-0.233896446	 1.0458781981	 0.1148
H	-1.9658768918	 0.0791199309	-0.6853363534	 0.105765
H	-0.9600948882	-2.1905556579	-1.1008423189	 0.10865
H	-0.9252916476	-2.4799875512	 0.6425579247	 0.104563
H	-4.9217169828	-4.5478386052	-0.7870483352	 0.138437
H	-5.4437660337	-3.0342241479	-1.5687117581	 0.139038
H	-3.7268754252	-5.2256768255	-2.8831793585	 0.12212
H	-4.242546922	-3.6985744111	-3.6676089631	 0.122528
