16
gdb 128688	3.26988	1.25707	0.91764	0.9299	67.85	-0.2077	0.0552	0.2629	1218.0403	0.125358	-471.206758	-471.197766	-471.196821	-471.240289	32.569	
C	-0.0594239171	 1.3751968179	 0.0960143709	-0.233963
O	-0.021477677	-0.0477449158	 0.0406161745	-0.272594
C	-1.2187779809	-0.6594832391	 0.0112019654	 0.41907
N	-2.3698710263	-0.0079812406	 0.0312564134	-0.346142
N	-3.3121646807	-1.0111203869	-0.0123281154	-0.310387
C	-2.7481160071	-2.2310688782	-0.0572491994	 0.484288
O	-3.4763272481	-3.3570193995	-0.1045894526	-0.430542
C	-1.37736068	-2.0709236886	-0.0445700434	-0.127194
N	-0.4732813447	-3.1667677731	-0.0831544458	-0.6418
H	 0.9808958762	 1.703713705	 0.1137816073	 0.122606
H	-0.5722628529	 1.7880109511	-0.7789871003	 0.132254
H	-0.5806907129	 1.7186945852	 0.995643654	 0.132259
H	-4.2888348695	-0.7795162644	-0.0075225204	 0.274533
H	-2.8263952957	-4.0763599904	-0.1298311348	 0.309341
H	 0.1307023001	-3.1831914376	 0.7334747828	 0.244132
H	 0.1388134066	-3.1192308549	-0.892488966	 0.244139
