22
gdb 101589	3.09304	0.78181	0.72562	3.62	80.17	-0.2303	-0.0264	0.2039	1671.034	0.191113	-441.483499	-441.472564	-441.47162	-441.52049	38.721	
C	-0.7438632075	 0.935292025	-0.1135689726	-0.396569
C	 0.1938969142	-0.2603527775	 0.0478688048	-0.107116
N	 0.8228126354	-0.6772363269	-1.2080416742	-0.066486
C	 1.738499358	 0.3255573844	-1.7424058645	-0.331674
C	 1.4815794572	-1.9692630817	-1.0965255219	-0.250892
C	 1.6251686345	-2.6863853764	-2.432849104	 0.343112
O	 2.5678019589	-3.4104050012	-2.6745213402	-0.321593
C	 0.5088748535	-2.5475261048	-3.4584285351	-0.124572
O	 0.7551341595	-3.3468007786	-4.5779236481	-0.424122
H	-0.206410847	 1.8566054994	-0.3545178859	 0.123123
H	-1.4731052692	 0.7454130033	-0.9067222239	 0.127165
H	-1.2852242773	 1.1102062981	 0.8210077501	 0.119801
H	 0.9518025852	-0.0347546423	 0.8234423108	 0.08151
H	-0.3859978037	-1.1135653397	 0.4170070273	 0.10246
H	 2.5657517566	 0.5591439407	-1.046321647	 0.100868
H	 2.1817670881	-0.0337666485	-2.676035824	 0.127457
H	 1.2056442396	 1.2517346334	-1.9668142659	 0.128992
H	 2.4775177784	-1.9314052668	-0.6212265203	 0.109105
H	 0.859848411	-2.6274729879	-0.474518879	 0.128034
H	-0.4403266418	-2.8169335011	-2.9654151437	 0.113193
H	 0.4076140436	-1.4875174787	-3.7321249621	 0.126878
H	 1.5976602228	-3.7908082922	-4.3893652104	 0.291325
