14
gdb 82270	3.29636	1.40147	1.08894	4.6752	68.99	-0.2761	-0.0703	0.2058	1046.6511	0.101612	-436.677096	-436.669723	-436.668779	-436.709139	27.739	
O	 0.0917252246	 1.3855388988	 0.1211613888	-0.414225
C	 0.0566829068	-0.0188323483	 0.0424167691	 0.02131
C	-1.3654055905	-0.5828234368	-0.0464992498	-0.008673
O	-2.0804799778	-0.0214364659	-1.1529842581	-0.258695
C	-1.49164748	-1.341317298	-1.2947324253	 0.006193
C	-0.1606663813	-1.2997351647	-1.9713975244	-0.174482
C	 0.6975196184	-0.5641961898	-1.2487052432	 0.1312
C	 2.0251101632	-0.2217864528	-1.6165706118	 0.234321
N	 3.1163302996	 0.0563405199	-1.8876799224	-0.32701
H	-0.5050656397	 1.7117990662	-0.5660583451	 0.297384
H	 0.5836545379	-0.3902791292	 0.9271179847	 0.116281
H	-1.9472404238	-0.778147821	 0.848605498	 0.118047
H	-2.197786989	-2.149313089	-1.4497232792	 0.119783
H	 0.0520643917	-1.7655457395	-2.9249766714	 0.138566
