20
gdb 110119	1.76868	1.43722	1.02865	4.0574	81.5	-0.2078	0.0237	0.2315	1282.9812	0.170003	-399.298303	-399.287911	-399.286967	-399.335069	36.546	
C	-0.0450710222	 0.9263182794	-0.9141185526	-0.325233
N	-0.2503811363	 0.0944259609	 0.2638609892	-0.28721
C	-1.4675163115	-0.6481107744	 0.2823843122	 0.012157
C	-1.6718021914	-2.0503968346	-0.2902107657	 0.012839
N	-0.6787654252	-2.8436426549	-0.9366805628	-0.286867
C	-0.5761719647	-2.6599965254	-2.3781403707	-0.325265
C	-1.5973503348	-1.8470321622	 1.2249603823	-0.278235
C	-0.414552403	-2.2945099217	 1.8994687564	 0.294932
N	 0.5714698866	-2.6416034034	 2.3989049301	-0.353843
H	 0.8975058021	 1.4697499744	-0.806027259	 0.127519
H	-0.0226427696	 0.378504935	-1.8703176097	 0.110247
H	-0.8490643498	 1.6684722359	-0.9778844415	 0.125617
H	 0.5561651003	-0.4829895371	 0.4659625971	 0.232769
H	-2.3444540759	-0.0030751463	 0.2647358603	 0.103892
H	-2.6738144624	-2.2642233037	-0.6583639733	 0.103951
H	 0.2228653857	-2.7773104491	-0.4811515237	 0.232494
H	 0.1900622536	-3.3348718641	-2.7691079904	 0.127527
H	-1.5283308674	-2.9340914521	-2.8466629174	 0.125685
H	-0.3319029206	-1.6340156564	-2.6986238194	 0.110067
H	-2.5079064736	-1.9508104002	 1.8040257787	 0.136959
