18
gdb 19184	3.16795	2.10548	1.6925	1.2783	72.16	-0.2247	0.0158	0.2405	845.9381	0.154543	-347.768905	-347.761767	-347.760822	-347.799606	28.937	
C	-0.1153072421	 1.6560660504	 0.0013390864	-0.435705
C	 0.0180514198	 0.144343242	 0.0025445017	 0.065553
C	 1.1728261373	-0.5850867977	-0.7789870868	-0.141246
C	 2.4193664483	-0.0459003291	-0.0869004384	-0.090424
C	 2.0934489154	-0.074153752	 1.2121728205	-0.093364
C	 0.6697710943	-0.6288162321	 1.2101756538	-0.105268
C	 0.8854427363	-1.8075468262	 0.196975349	 0.159534
O	-0.2813498097	-2.5563833221	-0.025748426	-0.44115
H	 0.8256696667	 2.1497203497	 0.2576008366	 0.116859
H	-0.43053119	 2.015001608	-0.9850582165	 0.109886
H	-0.8757540766	 1.9766382194	 0.7224201912	 0.111378
H	-0.937799736	-0.3213688137	-0.2493607049	 0.08967
H	 1.1691299387	-0.6926907382	-1.86468814	 0.051014
H	 3.3478197249	 0.2412419148	-0.5603248901	 0.09637
H	 2.6807685352	 0.1878568099	 2.0807406825	 0.097443
H	 0.1530432109	-0.7817183943	 2.1575515602	 0.061068
H	 1.7516889582	-2.4499501112	 0.3989304989	 0.063786
H	-0.0909396716	-3.2166300677	-0.6992944683	 0.284597
