17
gdb 4833	4.59854	1.39125	1.14477	1.7932	71.71	-0.224	0.0126	0.2366	1078.0571	0.142339	-363.917206	-363.90907	-363.908125	-363.950241	28.92	
C	 0.2710701666	 1.5046979898	-0.1015350768	-0.373012
C	-0.0673381392	 0.0170329667	 0.09837332	-0.299548
C	 0.5432345399	-0.5717098491	 1.3198025252	 0.336273
C	 0.0730935644	-1.1157790816	 2.4674134504	-0.209415
N	 1.136414821	-1.5007861741	 3.2780765272	-0.29901
C	 2.1920350016	-1.178639847	 2.6012305057	 0.378425
C	 3.6203408593	-1.3540991389	 2.9711593387	-0.488353
O	 1.9168419334	-0.6070935282	 1.3968016621	-0.212233
H	 1.3523325252	 1.6494144967	-0.1763135801	 0.13153
H	-0.188364173	 1.8848201598	-1.018667839	 0.115595
H	-0.0921054025	 2.1038805112	 0.7387294207	 0.124192
H	-1.1515063887	-0.1166280551	 0.1724573755	 0.118671
H	 0.2574278518	-0.5499010683	-0.7839499286	 0.118771
H	-0.9523083966	-1.2612068634	 2.7692616017	 0.116231
H	 4.1421288118	-1.9878853778	 2.2463610535	 0.142993
H	 4.1424620835	-0.3919605131	 3.0022897578	 0.142713
H	 3.6744737114	-1.8202243877	 3.9551799057	 0.156176
