17
gdb 17366	4.22962	1.65704	1.33734	3.7545	69.77	-0.2275	0.0311	0.2586	940.6876	0.141867	-363.855233	-363.847439	-363.846495	-363.887893	28.377	
C	-0.0801856082	 1.4206371759	-0.1352224932	-0.487987
C	-0.0089514672	-0.093563397	-0.0128147081	 0.365334
O	 1.0253914854	-0.7265157517	-0.1215367015	-0.364154
N	-1.1975632043	-0.7073245653	 0.269158843	-0.070126
C	-2.6086111474	-0.302601528	 0.1010170609	-0.193325
C	-2.9725255155	-1.7882544206	-0.0438537744	-0.088094
C	-2.162476581	-2.4243203655	-1.1487459663	-0.278872
C	-1.4996922223	-2.1242505868	 0.1642940756	 0.005756
H	 0.9253815814	 1.8256154587	-0.021470524	 0.148085
H	-0.4564472102	 1.7006584125	-1.1258386032	 0.13836
H	-0.7457752872	 1.8642377581	 0.6108699944	 0.129723
H	-3.0186697725	 0.1650018233	 1.0028106757	 0.119071
H	-2.8115810705	 0.3386506841	-0.7647068327	 0.113486
H	-3.8442074881	-2.2539470111	 0.3927687396	 0.104944
H	-2.3826242525	-3.4722005747	-1.3273653044	 0.122305
H	-1.8897996191	-1.8593236919	-2.036124575	 0.116844
H	-1.0099513407	-2.85448909	 0.7942968034	 0.118649
