22
gdb 121886	3.75922	0.672	0.64829	2.7914	80.53	-0.241	0.0332	0.2742	1840.849	0.191378	-441.521403	-441.509797	-441.508853	-441.56023	39.704	
C	-0.1180721341	 1.4910863348	 0.0807625174	-0.385269
C	-0.0834047474	-0.0270452848	 0.1306475607	-0.028908
O	-1.4036044594	-0.5131876847	-0.003855638	-0.251396
C	-1.483690862	-1.9214174146	 0.0177064438	-0.047353
C	-2.9447343334	-2.3269754746	-0.2001760506	-0.110845
C	-3.461798539	-1.8490863774	-1.5674641277	-0.3871
C	-3.0455748698	-3.8505679075	-0.1154730225	 0.408518
N	-3.995885976	-4.3307875545	 0.7377126439	-0.526391
O	-2.3287449253	-4.5846954041	-0.7707643164	-0.376822
H	 0.8917135585	 1.89946202	 0.1836111442	 0.114846
H	-0.5363026421	 1.8340834561	-0.8698936337	 0.12586
H	-0.7374892306	 1.8878921206	 0.8902349009	 0.1245
H	 0.5524329849	-0.4276617141	-0.6766527949	 0.08888
H	 0.3534168438	-0.3732209666	 1.0830112268	 0.084858
H	-0.8610117614	-2.3701069199	-0.7706233708	 0.111644
H	-1.1189357799	-2.3117273298	 0.9831527402	 0.085613
H	-3.5426886241	-1.8632150634	 0.5939074414	 0.071929
H	-2.9262056925	-2.3668284797	-2.3685485938	 0.13657
H	-4.530202989	-2.0563600194	-1.6826793035	 0.108944
H	-3.299381152	-0.7745545037	-1.6702971692	 0.133448
H	-4.615772853	-3.7277712097	 1.2480474085	 0.258972
H	-4.1353329461	-5.3271132731	 0.7856953432	 0.259501
