20
gdb 55466	3.2944	1.04721	0.9535	2.9209	75.58	-0.2387	0.0287	0.2674	1301.115	0.172657	-440.332195	-440.323148	-440.322204	-440.366868	33.469	
N	 0.1440141088	 1.1334840017	-0.6290499547	-0.527437
C	 0.0633879554	-0.0213882927	 0.0930632558	 0.399172
O	 0.9996004481	-0.4482304796	 0.7443655712	-0.373876
C	-1.2909072974	-0.7243735408	 0.0620016468	-0.103314
C	-1.1264716067	-2.217079615	-0.2815936351	-0.199258
C	-2.4518022697	-2.9658810853	-0.089552955	-0.217918
C	-3.0295596803	-2.677938505	 1.29669779	-0.066123
O	-3.1848325497	-1.2838832889	 1.5144657327	-0.248142
C	-1.952952473	-0.5949413731	 1.4513663451	-0.076864
H	 1.0179464317	 1.6340612253	-0.6351495749	 0.260373
H	-0.6136631457	 1.4701050031	-1.1955219752	 0.259313
H	-1.9549903369	-0.2504373372	-0.6719470354	 0.065016
H	-0.760240347	-2.3333365511	-1.3075136272	 0.095961
H	-0.3551714163	-2.6282789996	 0.3793327803	 0.126051
H	-3.177636263	-2.6466198201	-0.8478797164	 0.099988
H	-2.3054058674	-4.0448660607	-0.2136425964	 0.097131
H	-4.0245482256	-3.1166822688	 1.4144156346	 0.104096
H	-2.373736278	-3.1077412169	 2.0736007537	 0.089124
H	-1.2496775908	-0.974527103	 2.2094266398	 0.110574
H	-2.1740319268	 0.4513808377	 1.6828631006	 0.106132
