16
gdb 80778	1.97765	1.79939	1.16744	5.1736	75.45	-0.264	-0.0146	0.2494	1076.5248	0.124272	-400.730625	-400.722583	-400.721639	-400.76325	30.095	
C	-0.149423672	 1.5562670732	 0.0068976917	-0.447575
C	 0.0272427102	 0.0459403856	 0.014811164	 0.000735
C	 1.2168073425	-0.6383560914	-0.7667800525	-0.199696
C	 2.1662375156	-0.1698731661	 0.3900003954	-0.278294
C	 0.8809752533	-0.6515699436	 1.1529057689	 0.073541
C	 0.631637088	-0.6415594672	 2.5627761826	 0.163224
N	 0.419343989	-0.6370521839	 3.7000469828	-0.345841
C	 0.9373656278	-1.8398302953	 0.1388997554	 0.432609
O	 0.8246774913	-3.0194370435	 0.1173921604	-0.298484
H	 0.7775160789	 2.1155647912	 0.1457105179	 0.1313
H	-0.5876179745	 1.868633156	-0.9462533044	 0.135418
H	-0.8406021744	 1.8524699208	 0.8019888841	 0.146337
H	-0.9400431034	-0.4381268732	-0.1461176007	 0.108908
H	 1.409144678	-0.6171009611	-1.83582764	 0.111015
H	 3.0768823834	-0.746001689	 0.5565562384	 0.135897
H	 2.3572488861	 0.8995406074	 0.4395110661	 0.130908
