24
gdb 7195	2.66915	1.05241	0.80284	0.9629	83.21	-0.2458	0.0875	0.3333	1543.3559	0.220822	-351.41677	-351.405922	-351.404978	-351.453327	38.292	
C	 0.0455816069	 1.5738867292	 0.0641089508	-0.380947
C	 0.0056233857	 0.0448233714	 0.0049259777	-0.167015
C	 0.7055372981	-0.5242440815	-1.2327401755	-0.168184
C	 0.7190726662	-2.0536168886	-1.2830570264	 0.142662
C	 1.3194216047	-2.5807530348	-2.5898083411	-0.403395
O	 1.460421375	-2.4964753786	-0.1503659601	-0.255986
C	 1.214803919	-3.8269479817	 0.2558788816	-0.034187
C	 1.9892893075	-4.0850827017	 1.5385587449	-0.38255
H	 1.077557012	 1.9418205009	 0.0880330433	 0.113452
H	-0.4419427111	 2.020623461	-0.8101236781	 0.109173
H	-0.4621336058	 1.95294535	 0.9567644279	 0.108931
H	 0.4781056822	-0.3781749161	 0.8972290974	 0.11148
H	-1.0388250987	-0.2956021945	 0.0173365499	 0.086031
H	 0.2195769864	-0.1495828912	-2.1428874447	 0.087275
H	 1.7452653068	-0.1719285668	-1.2646870026	 0.098597
H	-0.3190076273	-2.420355928	-1.1929984918	 0.057825
H	 1.3343348474	-3.6741128519	-2.6152087087	 0.113968
H	 0.7332152065	-2.2375845463	-3.448354923	 0.112169
H	 2.3470669302	-2.2217496618	-2.7062318942	 0.120748
H	 0.1344634353	-3.9791183078	 0.4203280185	 0.082915
H	 1.5248945649	-4.5444365511	-0.5205044122	 0.085727
H	 1.8224458051	-5.1089896558	 1.8866679668	 0.111743
H	 3.061357198	-3.9451690289	 1.3728635914	 0.12541
H	 1.672441135	-3.3935295355	 2.3245049583	 0.124159
