16
gdb 51525	5.54258	0.72434	0.68279	3.7722	70.74	-0.261	-0.0382	0.2228	1566.3118	0.122653	-437.881558	-437.872651	-437.871707	-437.917081	30.446	
O	-0.3727163141	 0.4291023575	 0.8261868348	-0.230841
C	 0.2006657345	 0.8394748123	-0.1491785209	 0.153794
C	 1.4053678864	 1.7626684291	-0.1026250844	-0.297961
C	 1.2024866968	 3.0152539981	-0.9461672693	 0.140663
C	 2.4329410962	 3.9005370766	-1.2415823474	-0.320301
C	 2.1153703694	 3.5952843027	-2.7292475278	 0.00195
O	 1.0468186161	 2.7043517165	-2.3609593074	-0.291348
C	 1.6517001197	 4.7350216214	-3.5279120376	 0.276349
N	 1.2994549847	 5.6421825946	-4.1509028224	-0.309817
H	-0.1238540255	 0.5587141409	-1.1739945586	 0.1036
H	 1.6016680999	 2.0316677583	 0.9400370404	 0.130372
H	 2.2710949256	 1.2118846371	-0.4955691858	 0.123581
H	 0.3336420079	 3.580662557	-0.5874360376	 0.1102
H	 2.3600520981	 4.9458615652	-0.9454392697	 0.144605
H	 3.3834213748	 3.4844198766	-0.9055876558	 0.130213
H	 2.9017914996	 3.074595636	-3.2866203906	 0.134942
