15
gdb 132558	3.10773	1.4027	0.97274	1.22	72.44	-0.2201	-0.0326	0.1875	1131.5458	0.113057	-458.163763	-458.1557	-458.154756	-458.196631	30.036	
C	-0.0268812626	 1.5021950917	-0.0095340905	-0.487737
C	-0.0151370947	 0.0009198524	-0.0106653443	 0.203214
N	-0.0611846554	-0.6445672333	-1.1758201318	-0.353947
C	-0.0492196468	-1.9885225075	-1.1382745378	 0.424673
N	-0.1549984833	-2.6357217531	-2.3400024779	-0.556107
N	 0.0240897888	-2.7569194529	-0.040399725	-0.311994
C	 0.0696311566	-2.1033746538	 1.1193603821	-0.093272
C	 0.0462221084	-0.7233434926	 1.1790914471	 0.177835
F	 0.0933004549	-0.082739049	 2.3567443453	-0.079471
H	 0.860346644	 1.8992139956	 0.4947687904	 0.142944
H	-0.0560286686	 1.8689182078	-1.03575735	 0.141697
H	-0.8967098294	 1.8834583274	 0.5359939626	 0.144346
H	 0.0537823106	-2.0915630309	-3.1602328388	 0.261221
H	 0.1108913103	-3.6062595595	-2.3478977263	 0.261895
H	 0.1301475972	-2.6914621224	 2.0321566948	 0.124704
