15
gdb 42807	2.81093	1.49286	1.23502	4.6297	69.51	-0.2601	-0.0242	0.236	1010.329	0.114879	-416.803787	-416.796679	-416.795734	-416.835641	27.12	
O	-0.0634563258	-0.0228797825	-0.2722549113	-0.310912
C	-0.0505787947	 1.1367693176	 0.0046590822	 0.425441
C	-1.0627020233	 2.3059325302	 0.0309050735	-0.124006
C	-0.8218105173	 2.9586298153	 1.3974607609	-0.22799
C	 0.7591904677	 2.9659729612	 1.3890065181	-0.127718
C	 1.3718818499	 2.2699263828	 2.5133026827	 0.263859
N	 1.8564823788	 1.7199439623	 3.4068411456	-0.316498
C	 0.9950845186	 2.2808283139	 0.0211899475	-0.143867
N	-0.024009311	 3.0298617076	-0.8086328009	-0.321058
H	-2.0790719393	 2.2310683401	-0.3487167509	 0.105874
H	-1.2178768637	 3.9740131479	 1.4366962396	 0.132009
H	-1.2345765018	 2.3761842509	 2.222617179	 0.141714
H	 1.1402938463	 3.9894758299	 1.35622962	 0.142311
H	 2.0140857437	 2.1886318936	-0.3464959523	 0.114539
H	-0.0264991882	 2.6411320991	-1.7520711336	 0.2463
