14
gdb 15210	2.51467	2.00523	1.53612	1.0131	69.75	-0.2414	0.0225	0.2639	875.6276	0.103602	-345.313538	-345.305019	-345.304075	-345.346692	30.895	
O	 0.1030731826	 1.3703752072	-0.0520358618	-0.409719
C	-0.0173865669	-0.0016458802	 0.0033789816	 0.130786
C	-0.4699020854	-0.7061382187	 1.2692825159	-0.282516
C	-0.8237563692	 0.0935887252	 2.3992555163	 0.316889
C	-1.1009745104	 0.8095228783	 3.3261362033	-0.434719
C	-1.3724104213	-0.6907805657	 0.0000728031	-0.285949
C	-2.5664480579	 0.0930871125	-0.0235227813	 0.334633
C	-3.5608651646	 0.7690535136	-0.0552682915	-0.440558
H	-0.4826057798	 1.7591482506	 0.610657026	 0.295852
H	 0.7711981306	-0.4770394444	-0.5699178415	 0.123795
H	-0.0106568767	-1.6642433548	 1.4922627976	 0.124657
H	-1.3582902356	 1.4179537278	 4.1575580751	 0.203616
H	-1.4251015172	-1.643001768	-0.5197802331	 0.123352
H	-4.4451171281	 1.3560694567	-0.0821396996	 0.199881
