18
gdb 88337	4.27961	0.7984	0.757	2.0017	76.94	-0.2388	-0.047	0.1918	1520.438	0.144625	-439.073285	-439.063708	-439.062764	-439.109305	33.464	
C	-0.7825001677	 0.9337115855	 0.0549194794	-0.328384
N	 0.1381561702	-0.2009231187	 0.027962589	-0.078
C	 1.4881072423	 0.0125608373	-0.4169989868	-0.230846
C	 1.221535558	-0.3146727737	 1.0292279452	-0.112431
C	 1.4748750731	 0.7504262584	 2.0466900942	 0.371097
O	 1.4403758992	 1.9389363082	 1.7925025763	-0.335421
C	 1.789384514	 0.2859145572	 3.4682646629	-0.385984
C	 3.0261117935	 0.9865414919	 4.0176086761	 0.163108
O	 3.8610192892	 0.4372733827	 4.684670706	-0.232284
H	-0.3144652453	 1.8901054646	 0.311856637	 0.147353
H	-1.2344568851	 1.0093381689	-0.9386580296	 0.128768
H	-1.5801949726	 0.7235705077	 0.7739806784	 0.123267
H	 1.9177466342	-0.7582892716	-1.0517972357	 0.125646
H	 1.8143025735	 1.0324771117	-0.6137946561	 0.136437
H	 1.3745022498	-1.3329630446	 1.3749722118	 0.100489
H	 0.9440675974	 0.6059974578	 4.0943868782	 0.162054
H	 1.9011821654	-0.7947838691	 3.5701480514	 0.133815
H	 3.090193071	 2.0605762558	 3.7486799124	 0.111316
