18
gdb 93973	2.98215	1.1887	0.88367	4.1879	79.51	-0.2157	-0.0338	0.1819	1272.9715	0.148063	-439.120747	-439.1119	-439.110956	-439.154159	33.4	
N	 0.0569007405	 1.3754118722	 0.0612644765	-0.587619
C	-0.0460439417	 0.0242851328	 0.0229844969	 0.230698
C	-1.1242509345	-0.8098567456	 0.0033472209	 0.138371
C	-0.6769050921	-2.2591676125	 0.0185874576	-0.309736
C	 0.8187610933	-2.1737674197	-0.3636101217	-0.257953
C	 1.2530995259	-0.7673400093	 0.0829407584	 0.079927
O	 2.311747326	-0.1661744951	-0.6489750638	-0.435491
C	-2.5110360517	-0.4182173442	-0.018616717	 0.052265
O	-3.4549595817	-1.188665387	-0.0251340407	-0.30257
H	 0.9586998458	 1.7495546845	-0.1947350777	 0.264953
H	-0.7426828721	 1.9540628279	-0.13414071	 0.265143
H	-0.8039604946	-2.7057718052	 1.0134057999	 0.112457
H	-1.2598201461	-2.8759462695	-0.6707556362	 0.121312
H	 1.4358364515	-2.963729009	 0.0699010455	 0.109366
H	 0.9228378976	-2.2342280882	-1.4552244217	 0.09575
H	 1.6100460612	-0.7741620887	 1.1216294166	 0.115981
H	 2.132884951	-0.3037610832	-1.5867299822	 0.282417
H	-2.6943867786	 0.6843975298	-0.0402019214	 0.024729
