21
gdb 68826	2.70308	1.4202	1.2189	1.0515	83.89	-0.2292	0.0734	0.3026	1144.2091	0.181152	-387.049718	-387.040654	-387.03971	-387.082821	35.595	
C	-0.0564049698	 1.585144628	 0.0179291637	-0.494659
C	-0.0565833235	 0.0850975922	 0.0394015984	 0.300615
C	 1.1485303199	-0.7459525198	-0.3642545241	-0.403202
C	 0.5835437366	-0.8943781912	 1.022961899	 0.284943
O	 1.3109541903	-0.613167759	 2.1678549582	-0.460212
C	-0.6621428547	-1.7568024869	 0.9974223281	 0.338186
C	-0.7677361975	-3.2473956385	 1.141576495	-0.340309
C	-1.3177257741	-2.3277721835	 2.2136663968	-0.329205
C	-1.3141931798	-0.8036186557	-0.0287583978	-0.37913
H	 0.9099616454	 1.9809563941	 0.3462008221	 0.122805
H	-0.2516706941	 1.9734402379	-0.9890953509	 0.11661
H	-0.8256997071	 1.9903864461	 0.6850789085	 0.118045
H	 1.0661704316	-1.5468091956	-1.0968309179	 0.10187
H	 2.0768168546	-0.1826434101	-0.4098681255	 0.105142
H	 2.1162108824	-1.1408281989	 2.1548421392	 0.286812
H	-1.4771830583	-3.7750280355	 0.5118842835	 0.108931
H	 0.1338425904	-3.8110116805	 1.3630545788	 0.102586
H	-0.7734664259	-2.2532254541	 3.1495597559	 0.118942
H	-2.3954168035	-2.239349004	 2.3102048808	 0.107522
H	-2.2069461788	-0.3076374009	 0.3644552054	 0.101529
H	-1.5448986741	-1.2262435341	-1.0130092071	 0.092178
