21
gdb 97659	2.77118	0.82883	0.71184	1.8718	90.03	-0.2343	0.043	0.2773	1699.1359	0.179483	-387.05725	-387.046392	-387.045448	-387.094971	38.771	
C	 0.1095212162	 1.4327706927	 0.1711493238	-0.363145
C	-0.1116480653	-0.063219518	-0.1195389176	-0.319601
C	 0.616511725	-0.529364766	-1.2967254095	 0.09835
C	 1.2459774389	-0.8563016967	-2.2747891246	-0.028792
C	 1.9496396519	-1.3253742098	-3.4386832106	 0.111935
C	 1.6707764702	-0.5831448117	-4.735640391	-0.458847
C	 3.3446181122	-1.9243901168	-3.2191225864	-0.347488
C	 2.1787232771	-2.8339944714	-3.4822837311	 0.114658
O	 1.6779218459	-3.6544178505	-2.4790103532	-0.430664
H	 1.1681811169	 1.6417721057	 0.3463194071	 0.129753
H	-0.220188419	 2.0451176227	-0.6724261553	 0.129085
H	-0.4546992487	 1.735157487	 1.058334794	 0.115972
H	 0.1958310717	-0.6539042265	 0.7529378543	 0.130878
H	-1.184294999	-0.2564383406	-0.2499689699	 0.129824
H	 2.0042774518	 0.4576895333	-4.6703336773	 0.125571
H	 2.1995172543	-1.0543957119	-5.5696960109	 0.115949
H	 0.6008420841	-0.583334229	-4.9660605072	 0.126868
H	 4.0800266336	-1.7664915676	-4.0015581016	 0.112436
H	 3.7334700881	-1.9102709373	-2.2077091491	 0.123359
H	 2.1088766359	-3.3003595119	-4.4620728114	 0.099625
H	 1.1425536381	-3.1021058957	-1.8921829826	 0.284272
