19
gdb 74582	3.967	1.313	1.18051	1.1271	80.48	-0.2038	0.0228	0.2266	1098.4744	0.159576	-385.864899	-385.857066	-385.856122	-385.896659	31.724	
C	 0.0291054347	 1.5073147911	 0.0786767572	-0.499315
C	 0.0611765104	 0.0173471472	-0.0196083233	 0.323354
C	-0.0905263942	-0.75730221	-1.1012969177	-0.193047
C	-0.0621017073	-2.1943300019	-0.7043058605	-0.148572
C	 0.5415500398	-2.2900639797	 0.6805110025	-0.131701
C	 0.0924158205	-0.8851498499	 1.2056555439	-0.146339
C	-1.3568138582	-1.4922947784	 1.3831838458	-0.301135
C	-0.9029458593	-2.663017077	 0.5166838898	 0.388767
O	-1.4328591519	-3.9393169319	 0.5595716694	-0.463757
H	 0.929265438	 1.8928724578	 0.5750249244	 0.122629
H	-0.0415180748	 1.9746118434	-0.9075103431	 0.122285
H	-0.82451859	 1.8532210448	 0.6771707026	 0.124406
H	-0.2564502113	-0.4130207277	-2.1152912744	 0.08661
H	 0.1441948803	-2.9860902623	-1.415802848	 0.082211
H	 1.4075755085	-2.8752564613	 0.9636968894	 0.0911
H	 0.554493226	-0.4755907611	 2.1036918895	 0.065647
H	-1.5109763662	-1.8403279329	 2.4074610029	 0.108162
H	-2.2049396582	-0.8764132316	 1.0631360569	 0.083831
H	-2.1769597467	-3.9794068488	-0.0513896273	 0.284864
