13
gdb 5436	3.50554	1.98554	1.2777	7.4378	66.91	-0.2424	-0.0139	0.2285	883.0334	0.097625	-357.708037	-357.701001	-357.700057	-357.739484	25.198	
C	-0.0035348312	 1.5217142964	 0.0837641032	-0.517276
C	 0.0138582206	 0.0362623839	-0.0121660937	 0.242495
C	-0.0028751335	-0.8186507049	-1.0975939184	 0.119768
N	 0.0256195469	-2.1422954244	-0.6954583551	-0.304158
C	 0.0585898371	-2.0939365546	 0.6089787935	 0.007892
N	 0.0534101116	-0.8040992382	 1.0717609303	-0.291292
C	-0.0436325023	-0.4250270666	-2.4609144686	 0.216817
N	-0.0770945918	-0.0613961547	-3.5600738523	-0.35238
H	 0.8906999087	 1.9069541303	 0.5869950067	 0.14342
H	-0.0368464994	 1.95102447	-0.9195088835	 0.171801
H	-0.8788609563	 1.8830834341	 0.6355842216	 0.14335
H	 0.0872784196	-2.9439590323	 1.2739344947	 0.144784
H	 0.07463456	-0.515590689	 2.0365768415	 0.274779
