16
gdb 113634	3.69518	0.86104	0.81795	3.2226	72.77	-0.2766	-0.0879	0.1887	1403.1106	0.122634	-437.88407	-437.874724	-437.87378	-437.919347	32.406	
O	-0.1713326596	 1.4231735301	-0.3309934032	-0.421459
C	 0.0083077006	 0.0903181799	 0.1293207398	-0.117236
C	-1.3528147862	-0.5595918512	 0.0867717202	 0.019885
C	-1.8684592583	-1.204047337	-1.1467166858	-0.274699
C	-1.5331020939	-2.0875227087	 0.0528174215	-0.160921
C	-0.3665684179	-2.988866891	-0.042835336	 0.304173
O	 0.5990636075	-2.8404577986	-0.7580569411	-0.30105
C	-0.4410826623	-4.1759722303	 0.8401748433	 0.221794
N	-0.5013772955	-5.1015364107	 1.5307930916	-0.30127
H	 0.68951589	 1.8521052665	-0.3402182747	 0.291584
H	 0.7133841633	-0.4665993402	-0.4989958651	 0.124518
H	 0.3915327634	 0.074337673	 1.1620928882	 0.094103
H	-2.085870736	-0.0640370221	 0.7167521033	 0.116891
H	-2.9169052471	-1.1107451378	-1.4036776798	 0.133544
H	-1.1853951496	-1.2908264645	-1.9848546503	 0.150189
H	-2.3542940485	-2.4760723473	 0.6435369881	 0.119953
