17
gdb 75875	2.2395	1.96979	1.0616	3.4378	78.79	-0.2487	-0.0436	0.2051	1088.5646	0.137788	-418.071572	-418.063413	-418.062469	-418.104683	30.338	
C	 0.0209154501	 1.4463172954	-0.1150644742	-0.337749
N	 0.0112834131	-0.0147916768	-0.012534189	-0.170822
C	-1.2150376217	-0.6592787838	 0.079107387	 0.422812
O	-2.2665569759	-0.0524055996	 0.0772164948	-0.368368
C	-1.2127770646	-2.1780256841	 0.1854562932	-0.399065
C	 0.124149714	-2.8367395616	 0.1811976183	-0.080471
C	 1.2477129857	-2.1289873264	 0.0887055674	-0.118468
C	 1.2551722778	-0.6645045812	-0.014667032	 0.378424
N	 2.307386828	 0.0606303268	-0.1061536411	-0.527975
H	 0.5839223111	 1.8730434474	 0.7176650271	 0.143739
H	 0.51332554	 1.750300815	-1.0411966264	 0.143646
H	-1.0125951668	 1.7826624043	-0.0972322586	 0.160858
H	-1.7723936946	-2.431507718	 1.095355846	 0.156632
H	-1.8375036088	-2.5527438358	-0.6359281164	 0.156619
H	 0.1545265016	-3.9200132379	 0.256354118	 0.114408
H	 2.2228255566	-2.6043691472	 0.0851537891	 0.105258
H	 3.1377488844	-0.5298932564	-0.0964359933	 0.220521
