18
gdb 49637	2.98166	1.60822	1.49461	1.3602	74.29	-0.226	-0.03	0.1959	953.2382	0.149182	-401.897872	-401.890718	-401.889774	-401.929866	27.847	
O	-0.5968068766	 0.6263612254	 0.5773947513	-0.250255
C	 0.1748451745	 0.9535220242	-0.2909454869	 0.138175
C	 1.2691625245	 1.9707020642	-0.149719956	-0.089292
C	 1.1386349011	 3.3236826883	-0.9116236912	-0.023049
C	-0.2038364112	 4.0584018937	-0.724460912	-0.25148
C	 0.3179363728	 4.5077217237	 0.6546272013	 0.015392
C	 0.235051916	 3.4357129272	 1.7568070453	-0.248657
C	 1.4909147793	 2.7964128776	 1.1316464598	-0.016458
N	 1.7449067207	 4.0581032589	 0.2874224708	-0.160696
H	 0.1013027409	 0.5082883829	-1.3114547212	 0.07698
H	 2.2087382281	 1.4987614659	-0.4635957965	 0.106079
H	 1.634999774	 3.3982308287	-1.8807470738	 0.08046
H	-0.2870508049	 4.8984391324	-1.4186323397	 0.114623
H	-1.1313377285	 3.4799051589	-0.7609014044	 0.111407
H	 0.1610397132	 5.5495911355	 0.9401950397	 0.075871
H	 0.4684955387	 3.8596531586	 2.7368155201	 0.110334
H	-0.6665323672	 2.8276196707	 1.8335857286	 0.130174
H	 2.2790800346	 2.456585083	 1.8054328247	 0.080392
