17
gdb 95052	2.31951	1.96156	1.27006	4.1419	67.48	-0.2669	0.0043	0.2712	996.7383	0.136997	-459.000452	-458.992952	-458.992008	-459.032507	28.635	
C	-0.3252298396	 1.5318265026	-0.0175881287	-0.411441
C	 0.028322138	 0.0561610359	 0.0109225588	 0.124482
O	 0.9245528651	-0.2392544763	-1.0623196147	-0.257884
C	 1.5174756977	-1.4978423727	-0.7836082414	-0.110872
C	 1.7540834484	-1.5083943159	 0.7204722972	 0.102578
O	 2.8866552465	-0.6593960242	 1.1082218914	-0.252333
C	 2.0539057573	 0.3100035948	 1.6093928069	 0.470952
O	 2.3597684014	 1.3429566859	 2.1104012291	-0.327852
C	 0.7679048549	-0.4511481312	 1.2648919464	-0.269162
H	 0.5629691367	 2.1479928861	 0.1391827989	 0.152019
H	-0.7685637543	 1.7884989185	-0.9830461544	 0.1315
H	-1.0502632132	 1.7634358574	 0.7681757081	 0.123273
H	-0.8866469552	-0.551371131	-0.1030535122	 0.074773
H	 0.8400340492	-2.3268490515	-1.0492548004	 0.097744
H	 2.4370734563	-1.5859238074	-1.3663013915	 0.133396
H	 1.8288547488	-2.4897166798	 1.1874426275	 0.103982
H	 0.125215712	-0.6930312912	 2.1102333991	 0.114845
