21
gdb 40625	3.47157	1.13854	1.13156	1.8434	81.61	-0.2405	0.0859	0.3265	1207.6302	0.184979	-387.055637	-387.048028	-387.047084	-387.08806	30.721	
C	-0.2227095194	 1.4567575318	-0.2156433401	-0.271605
C	 1.2178921875	 1.3058611998	 0.1961755367	-0.271346
C	 0.3588256007	 0.0774960843	-0.0020635512	-0.012839
C	-0.0650185348	-0.729749371	 1.1906345843	 0.02216
C	-1.1805634836	-1.810985175	 1.1449974632	 0.053338
C	-0.7486226906	-2.7731141021	 0.0184126197	-0.220867
C	 0.7466049887	-2.9221854196	 0.4477871108	-0.220952
C	 0.6885242366	-1.9969750026	 1.68162384	 0.053658
O	-0.5571959867	-2.4251102132	 2.3160206572	-0.301697
H	-0.925575419	 1.8272094259	 0.5234069396	 0.113516
H	-0.4394883762	 1.7710217969	-1.2304715661	 0.112241
H	 1.9894016231	 1.5169215989	-0.5358476422	 0.112223
H	 1.4854968984	 1.5740321458	 1.2129998653	 0.113488
H	 0.5586810448	-0.4878636689	-0.9069618704	 0.08383
H	-0.2482002947	-0.0821397976	 2.0528906899	 0.078172
H	-2.239540109	-1.5836801965	 1.2694380869	 0.073966
H	-1.2985088896	-3.7144584682	 0.0747880571	 0.106303
H	-0.8818556031	-2.352776826	-0.9820139835	 0.098061
H	 1.0017829743	-3.9437395213	 0.7359293995	 0.10633
H	 1.4601086507	-2.5868213949	-0.3097180612	 0.098079
H	 1.5443867619	-1.9604580166	 2.3559864243	 0.07394
