16
gdb 48088	2.96781	1.42405	1.13184	2.9985	72.	-0.2409	-0.0738	0.1671	1077.8497	0.123735	-437.839202	-437.83144	-437.830496	-437.872141	28.522	
O	-0.8027502648	 1.369564895	 0.2914533519	-0.243603
C	 0.2976775467	 1.0319261066	-0.0590896073	 0.101873
C	 1.5205348658	 1.9505121256	-0.1495870507	 0.252417
O	 2.5333280342	 1.5267023555	-0.6809721738	-0.353808
N	 1.4043600243	 3.1560661526	 0.4707950296	-0.07966
C	 0.3035209948	 4.1961246665	 0.4116459198	-0.030711
C	 1.2769780931	 5.1237745751	 1.1926455816	-0.218271
C	 2.1148863416	 4.4237593075	 0.0833642281	-0.023481
C	 0.9464762299	 4.723667589	-0.9072157148	-0.219036
H	 0.539475762	 0.0057015485	-0.4054668838	 0.112175
H	-0.7288743553	 3.9383537418	 0.6256890354	 0.128717
H	 1.1212753419	 6.1966144017	 1.0763654166	 0.109428
H	 1.4982787399	 4.8324375725	 2.2193255228	 0.118306
H	 3.1880850349	 4.4410382263	-0.0908989676	 0.118033
H	 0.8748751255	 4.0719854733	-1.7793346895	 0.119784
H	 0.7681113054	 5.7725322725	-1.1561929685	 0.107838
