18
gdb 115081	2.31226	1.52435	1.0345	1.7967	72.86	-0.2376	-0.0345	0.203	1177.0042	0.147313	-439.115806	-439.10695	-439.106005	-439.150941	31.575	
C	 0.3035601632	 1.3851043688	 0.3099822243	-0.391395
C	 0.3485078418	-0.1252131084	 0.0710575211	-0.184029
C	 0.5070552935	-0.490551976	-1.4148142655	 0.013614
O	 1.7083516535	 0.1064808319	-1.942024239	-0.236263
C	 2.8059611724	-0.6686738357	-2.0993153573	 0.129961
N	 2.9335087639	-1.922866397	-2.0373990321	-0.268181
C	 1.7551671391	-2.7369349519	-1.7962908301	-0.262653
C	 0.4404176322	-2.0044985706	-1.5921605714	 0.333815
O	-0.6215430135	-2.5749947784	-1.5203810576	-0.309168
H	 1.2135386949	 1.8669663351	-0.0562013234	 0.134489
H	-0.5494816802	 1.8395800518	-0.2052769753	 0.121397
H	 0.2065445401	 1.6033213789	 1.3772354644	 0.120639
H	 1.1763668709	-0.5737712136	 0.6348411102	 0.110284
H	-0.572913524	-0.6016114464	 0.4215696257	 0.130129
H	-0.3171323884	-0.0524166811	-1.987025678	 0.124164
H	 3.664294689	-0.0384808004	-2.324541791	 0.131083
H	 1.6214473929	-3.440693151	-2.6273571205	 0.152097
H	 1.9236686388	-3.369673856	-0.9132929845	 0.150016
