20
gdb 99909	2.073	1.41079	1.20232	2.4291	81.03	-0.2386	0.0306	0.2693	1183.6115	0.16803	-403.072561	-403.062385	-403.061441	-403.107417	37.394	
C	 0.9431362596	-0.53230974	 0.972411174	-0.249917
O	 0.1266733213	-0.433344143	-0.1790681512	-0.273555
C	-1.244553257	-0.8109215501	-0.0425612779	 0.128814
C	-1.3849686834	-2.3196493237	 0.2409791605	-0.424144
C	-1.9123549193	-0.0286967301	 1.0114507819	 0.35926
C	-2.4721534644	 0.6013167655	 1.8689455954	-0.498956
C	-1.8994701718	-0.4802809692	-1.3908545215	 0.0095
C	-1.4972724099	 0.7146370701	-2.1610750957	-0.239637
N	-1.1392890475	-0.6407584016	-2.633278157	-0.340444
H	 1.9073805896	-0.0968186896	 0.7008058124	 0.130836
H	 0.5203642549	 0.0270695749	 1.8158853447	 0.125828
H	 1.1038156798	-1.5738449439	 1.2803894235	 0.112766
H	-0.9671515458	-2.5857757489	 1.2143570265	 0.124403
H	-2.440652388	-2.602458279	 0.2421469951	 0.131062
H	-0.8693910198	-2.8848548736	-0.5403402031	 0.131294
H	-2.968130168	 1.1645362483	 2.6208665746	 0.201213
H	-2.9304446251	-0.8211198704	-1.4451108359	 0.095412
H	-2.2303889919	 1.2356319865	-2.769866906	 0.112997
H	-0.707983237	 1.3326091139	-1.7464061969	 0.122939
H	-0.1658617263	-0.8082485864	-2.3852190734	 0.240332
