22
gdb 108044	3.57771	1.31485	1.18865	1.608	84.81	-0.2021	0.0748	0.2769	1151.3802	0.195798	-367.157047	-367.149051	-367.148107	-367.189426	32.187	
C	-0.0886453066	 1.5515538156	 0.0345433081	-0.381345
C	-0.0114544404	 0.0191022898	 0.0143512873	-0.299726
C	 0.7123706694	-0.5185895396	-1.2019284198	 0.372986
C	 0.0323572674	-0.3892274788	-2.5989810893	-0.284795
C	 0.5708276924	-1.7845966828	-3.0103515821	-0.046735
C	 2.0815284599	-1.7693913378	-3.3123767162	-0.170211
N	 2.4413645967	-1.7321743561	-1.8531049999	-0.146719
C	 2.2464787119	-0.3432526289	-1.3144462598	-0.221581
C	 0.9805040403	-2.0295159427	-1.5232229077	-0.067779
H	 0.910977238	 1.9995848326	 0.037901337	 0.119749
H	-0.6197861635	 1.9340984612	-0.8436576142	 0.119247
H	-0.6157650511	 1.9095546458	 0.9239769638	 0.113679
H	 0.4961216289	-0.3344408794	 0.9218902527	 0.095255
H	-1.0267002125	-0.398628606	 0.0475480842	 0.091885
H	-1.0576101206	-0.4106950121	-2.4931059865	 0.097894
H	 0.3048376425	 0.4659193175	-3.2268892934	 0.089682
H	-0.0780651332	-2.4298339317	-3.6038832523	 0.065551
H	 2.4338042846	-2.7104741524	-3.7478200026	 0.103976
H	 2.4805581411	-0.9388730078	-3.9069175564	 0.093529
H	 2.6310221608	 0.4564631154	-1.9583013565	 0.092873
H	 2.7289160483	-0.2614607259	-0.3332828986	 0.099034
H	 0.7322903258	-2.8875878157	-0.8979623477	 0.063549
