16
gdb 45759	2.97824	1.43802	1.11472	3.5587	69.45	-0.2424	-0.0283	0.2141	1076.3179	0.12664	-434.081393	-434.073788	-434.072844	-434.114075	28.28	
O	-0.080671418	-0.0000618451	 0.2107461063	-0.355462
C	-0.0344849407	 1.1968749199	 0.0955217258	 0.427353
N	-1.1184152835	 2.071471431	-0.0000962829	-0.33788
C	-0.6386017824	 3.3704926962	-0.070422188	 0.06889
N	 0.6328425915	 3.5015874741	-0.0737427957	-0.256419
C	 1.1807109047	 2.1407771292	 0.005090205	-0.148147
C	 2.1523456374	 1.9484924379	 1.1599475482	 0.013173
C	 3.152844998	 2.9908814522	 1.4767541167	-0.24657
N	 2.019772298	 2.7375840539	 2.3905352331	-0.320107
H	-2.0830586686	 1.7874492883	 0.0609691951	 0.273878
H	-1.336932445	 4.2000714	-0.1200349769	 0.147918
H	 1.7046969986	 1.9117043826	-0.9336659817	 0.135648
H	 2.3968108821	 0.9015070317	 1.322997909	 0.115335
H	 4.1275468892	 2.7060924259	 1.8620651041	 0.118799
H	 3.1323778983	 3.8991361717	 0.8818898533	 0.129625
H	 1.3256524604	 3.4672954005	 2.2372733785	 0.233966
