21
gdb 120089	3.88207	0.92613	0.84782	1.77	81.94	-0.2274	0.0574	0.2849	1456.5177	0.181493	-387.00581	-386.997058	-386.996113	-387.040342	33.413	
C	 0.1218648156	 1.6003211516	-0.1507626964	-0.383283
C	-0.0254639412	 0.0776555497	-0.1827217926	-0.18264
C	-1.3855905268	-0.404012746	 0.3420259382	-0.175856
C	-1.4988007545	-1.9303253799	 0.2959843194	-0.006694
C	-2.0922676264	-2.8803224128	 1.3101161134	-0.132424
C	-3.4799968621	-2.430265837	 1.8617640544	 0.019997
O	-3.8377794537	-1.1609559041	 1.2962921054	-0.238759
C	-4.0293578495	-2.3489897464	 0.5147729707	 0.020011
C	-2.6705494877	-2.7947068741	-0.1077977244	-0.132444
H	 1.0988430354	 1.9172011843	-0.5294507397	 0.107579
H	-0.6465912652	 2.0848105341	-0.763568522	 0.114182
H	 0.0184441836	 1.9861860269	 0.8696284188	 0.114184
H	 0.1156407475	-0.2835708288	-1.2106555761	 0.092008
H	 0.7762668927	-0.3815445985	 0.4117560139	 0.092015
H	-1.5291185374	-0.0451220367	 1.3654341261	 0.104883
H	-2.1860096813	 0.0522333548	-0.2478581524	 0.104849
H	-0.5896041784	-2.3839646478	-0.1022450349	 0.089704
H	-1.5311663758	-3.6949658739	 1.7506055433	 0.089252
H	-3.9254414179	-2.7021736194	 2.8108693522	 0.107093
H	-5.0212807278	-2.5400506125	 0.1239533546	 0.107093
H	-2.6103363692	-3.5351682036	-0.895580162	 0.089249
