16
gdb 24452	3.50476	1.67001	1.17306	4.4494	70.57	-0.183	0.0353	0.2182	995.1882	0.129171	-434.091369	-434.084644	-434.083699	-434.122353	26.897	
C	-0.0296392951	 1.4099257704	 0.0992080523	-0.192706
C	 1.4178511731	 1.9411513155	 0.0292686202	-0.083282
O	 2.2325385112	 1.4454197049	 1.09195266	-0.265321
C	 2.0041930359	 0.1209205574	 1.2947421574	 0.334563
C	 0.9632509826	-0.5819350013	 0.7479170664	 0.20822
N	 1.088506895	-1.8548008812	 1.2753525657	-0.336319
C	 2.1961938884	-1.8392800767	 2.0755708817	-0.008878
N	 2.7682308698	-0.6519746917	 2.1142197497	-0.329697
N	-0.1049650311	-0.0585223264	-0.0033360097	-0.404937
H	-0.4721228968	 1.7091931239	 1.0557036852	 0.131276
H	-0.6225725568	 1.8570568904	-0.7032792413	 0.110068
H	 1.8636805677	 1.655677894	-0.9355866938	 0.098287
H	 1.4363343874	 3.0308555945	 0.112997991	 0.116834
H	 0.4704606304	-2.6306118568	 1.1085285348	 0.264454
H	 2.5493641163	-2.7226371461	 2.5845602417	 0.128605
H	-0.0673828982	-0.3457711605	-0.9781513411	 0.228832
