19
gdb 73935	2.71225	1.25658	0.92619	2.6495	80.64	-0.2255	0.0075	0.233	1278.8095	0.158328	-423.009199	-423.000196	-422.999252	-423.043849	32.091	
C	 0.1658484789	 1.5410776199	 0.1136854505	-0.503847
C	 0.0296879122	 0.0607470805	-0.0402995084	 0.153398
C	-1.066371692	-0.6975881107	-0.1471543068	 0.221824
C	-0.6666912783	-2.1484913515	-0.2615737884	-0.160217
O	 0.7565939863	-2.1546377403	-0.240142129	-0.266278
C	 1.2447000049	-0.8290575602	-0.0964654753	-0.137306
C	-2.4743858188	-0.2678782209	-0.130369929	-0.038024
C	-3.5227655282	-0.9131012222	-0.9464150571	-0.185719
O	-3.4240827421	-1.1849573082	 0.4471184231	-0.23315
H	 0.7626732926	 1.7876477216	 1.0006548786	 0.133641
H	 0.6884810416	 1.9800363563	-0.7457817867	 0.134373
H	-0.7997053786	 2.0432914051	 0.2069304178	 0.13066
H	-1.0645586918	-2.7470552574	 0.5703656601	 0.120771
H	-1.0215355813	-2.6150595752	-1.1943304452	 0.099246
H	 1.905770668	-0.5759794621	-0.942489246	 0.100428
H	 1.8548588682	-0.7445810719	 0.8189776854	 0.101476
H	-2.6484733168	 0.7700787628	 0.1507543802	 0.091382
H	-4.3889729572	-0.3273991771	-1.2527932289	 0.118392
H	-3.2654835776	-1.7390664887	-1.6069179849	 0.118949
