17
gdb 19106	5.18357	2.02342	1.97148	1.8137	69.73	-0.2249	0.0767	0.3017	752.764	0.144132	-326.637426	-326.631509	-326.630565	-326.667033	24.611	
C	-0.1844624562	 1.4989034819	 0.0248205187	-0.413503
C	 0.0021389479	-0.0142991596	-0.0002023251	 0.008958
C	 0.8821925557	-0.5393549932	-1.1683038971	-0.0699
C	 1.1072120686	-2.0336528852	-0.8704860162	-0.0584
C	 2.4540184032	-1.8409869539	-0.2856742296	-0.061214
C	 2.1896524366	-0.3143730989	-0.2987609394	-0.081357
C	 1.1717789521	-0.524775345	 0.8656530964	 0.004598
N	 1.2848529437	-2.02593925	 0.6271987477	-0.156189
H	 0.7654386571	 2.0259463729	-0.1190691209	 0.116114
H	-0.8654097687	 1.8228397532	-0.7692228695	 0.11698
H	-0.6060026049	 1.8284896493	 0.9803452579	 0.117968
H	-0.9531635125	-0.5299403971	 0.1486973722	 0.074246
H	 0.7706971634	-0.20869645	-2.1998187748	 0.069318
H	 0.6449407559	-2.9059845365	-1.3148664366	 0.093971
H	 3.3392969223	-2.4643110282	-0.2537102443	 0.093491
H	 2.8901286432	 0.5056205893	-0.4261701452	 0.073889
H	 1.3184129825	-0.244523539	 1.9085273858	 0.071031
