19
gdb 98613	4.29704	0.98147	0.90476	3.0925	76.94	-0.2601	-0.0301	0.2299	1324.6978	0.159328	-422.984344	-422.976113	-422.975169	-423.018155	31.156	
O	-0.6126510885	 1.5254969175	-1.2562513694	-0.42188
C	-0.7619804639	 0.1397452293	-1.3001402796	-0.130438
C	-1.515044888	-0.3780077109	-0.0778546785	 0.31495
O	-1.8336009835	 0.4168431036	 0.7857851483	-0.332366
C	-1.7977575919	-1.8538594936	-0.0302010846	-0.063629
C	-2.4491508292	-2.5220470387	 1.2175408856	-0.047774
C	-3.8071166864	-1.8649958652	 0.8195514757	-0.221077
C	-3.1987152904	-2.4080356891	-0.5042638393	-0.051992
C	-2.838667697	-3.702715788	 0.2784162321	-0.223539
H	-0.9993831891	 1.7883364073	-0.4044998115	 0.29266
H	-1.3061984842	-0.1777856016	-2.2053653892	 0.115663
H	 0.215304399	-0.372654308	-1.3367547955	 0.113434
H	-0.9547983655	-2.4004872773	-0.4691763982	 0.079167
H	-2.009431206	-2.5822880127	 2.2128233706	 0.0838
H	-4.7049153728	-2.380842449	 1.1696045987	 0.093184
H	-3.8885092646	-0.7867807703	 0.9390252275	 0.127117
H	-3.6088255729	-2.3325611491	-1.512311746	 0.081519
H	-2.0235337203	-4.3130039819	-0.1201956575	 0.093116
H	-3.6823623347	-4.3174158225	 0.6012547307	 0.098086
