20
gdb 101060	2.22319	1.32239	0.93141	2.8245	81.58	-0.2394	0.0391	0.2785	1311.8498	0.168385	-403.086511	-403.076323	-403.075379	-403.121531	37.721	
C	 0.1800111399	 1.5068674454	 0.2038454561	-0.411964
C	 0.2055821976	-0.0225332733	 0.1264767583	-0.180304
C	 0.6088338455	-0.5565492356	-1.2554598786	 0.010681
O	 1.9294384791	-0.1581058751	-1.6106754202	-0.446691
C	 0.5875374335	-2.0892031123	-1.3059421318	 0.131951
C	 1.4940904046	-2.7969496084	-2.2590098545	-0.276514
N	 1.7799844075	-2.8231329344	-0.8177106171	-0.351083
C	-0.6923503178	-2.6772340895	-0.9942036588	 0.290127
C	-1.7769503051	-3.1445465455	-0.7675168981	-0.412482
H	 1.1738892029	 1.9459519484	 0.0528247751	 0.107239
H	-0.4958783882	 1.9344597606	-0.5457316503	 0.12048
H	-0.1622985708	 1.8414646811	 1.187139409	 0.126618
H	 0.8997777966	-0.4267038836	 0.8730024624	 0.107867
H	-0.7852596325	-0.4202177135	 0.3672599572	 0.122315
H	-0.1105843295	-0.1861006283	-2.0042902192	 0.079831
H	 1.9791748148	 0.7999754309	-1.555233165	 0.292514
H	 1.169585183	-3.7442408935	-2.6780437693	 0.122765
H	 2.1158646111	-2.1791814204	-2.8977189931	 0.131999
H	 2.4972793644	-2.1234698041	-0.6308405304	 0.2437
H	-2.7260584067	-3.5716225885	-0.5571141816	 0.190951
