19
gdb 84715	2.67003	1.77634	1.30257	2.9213	75.04	-0.2465	0.0129	0.2594	1006.8771	0.162182	-423.042698	-423.035318	-423.034374	-423.074671	29.535	
O	-0.1497228637	 1.4438322337	-0.0845962687	-0.439614
C	 0.0084513792	 0.0445192765	-0.0009426658	 0.092738
C	 0.6148961253	-0.4505394507	 1.2955145689	-0.108067
C	-0.0496212495	-1.4866207568	 1.8015808851	-0.081958
C	-1.2695649581	-1.8590935457	 0.9866896128	-0.088609
C	-2.6020169689	-1.739338471	 1.754052152	-0.229496
C	-2.88744694	-0.241163153	 1.6541252336	-0.078021
O	-2.4153140936	 0.1483109825	 0.3595855788	-0.28336
C	-1.3529150519	-0.7192687146	-0.0630999438	 0.056284
H	-1.0548638367	 1.6105033681	 0.2169746094	 0.287276
H	 0.6431828244	-0.2539034662	-0.8474534418	 0.082793
H	 1.511038042	-0.0019650397	 1.7094842115	 0.101997
H	 0.2187273428	-2.0296282878	 2.7025357569	 0.094784
H	-1.1629511143	-2.8467523765	 0.5260195159	 0.083875
H	-3.3865019209	-2.3125148763	 1.2500085088	 0.108155
H	-2.5324290292	-2.0883981716	 2.7880092088	 0.105216
H	-3.9496914153	 0.0122160974	 1.7088213656	 0.111574
H	-2.3547702908	 0.3144892931	 2.4382139753	 0.10273
H	-1.592535031	-1.0537485213	-1.0760096632	 0.081703
