13
gdb 20492	5.08299	2.0838	1.50594	0.9806	59.14	-0.2478	-0.0162	0.2316	765.9773	0.0992	-394.766753	-394.760771	-394.759827	-394.797381	21.782	
C	-0.0600760791	 1.4948945373	 0.1002476715	-0.176285
O	 1.2577527152	 1.917082958	-0.3066170187	-0.286977
C	 2.1388193823	 0.820309495	-0.6248400934	-0.176285
C	 1.2872518736	-0.3812930671	-0.3937167537	 0.272338
N	 1.3509166152	-1.7041329833	-0.4589756509	-0.304873
N	 0.1158693198	-2.0524100591	-0.0764726482	-0.094903
N	-0.7346897788	-1.0643051421	 0.2287259284	-0.304873
C	 0.0180607168	 0.0080736726	 0.0247962968	 0.272338
H	-0.2652817019	 1.8696266385	 1.1116122416	 0.126242
H	-0.805812495	 1.9271027651	-0.5797857371	 0.126264
H	 2.4806507238	 0.918868644	-1.6634978114	 0.126264
H	 3.0204704862	 0.861613935	 0.0281349454	 0.126242
H	-0.1621974083	-3.0189171139	-0.0205471804	 0.294509
