20
gdb 16411	3.4759	2.02161	1.62157	0.1816	80.07	-0.2199	0.0311	0.251	890.9752	0.179637	-311.877087	-311.870119	-311.869175	-311.907722	28.632	
C	-0.0005058947	 1.5046446513	 0.0450603838	-0.502202
C	-0.0028799092	 0.0062062003	-0.0159811953	 0.356208
C	-0.0190630057	-0.7051317575	-1.1470144365	-0.168058
C	-0.0197917889	-2.2163253297	-1.0893787952	-0.247566
C	-0.0002856813	-2.6943373249	 0.3724174221	-0.011369
C	-1.0563456843	-1.908219827	 1.2038023618	-0.215208
C	 0.0141722633	-0.7779416216	 1.2885689382	-0.09894
C	 1.0796921927	-1.9103713911	 1.174596097	-0.215208
H	 0.8857542108	 1.8791405122	 0.5744168274	 0.121851
H	-0.013973556	 1.9499883473	-0.9537502946	 0.117971
H	-0.8708870807	 1.8809289994	 0.5989206728	 0.121844
H	-0.031897464	-0.2209824368	-2.1204305922	 0.073453
H	-0.9037843049	-2.6178537788	-1.6059818225	 0.099453
H	 0.8489410098	-2.6196117015	-1.6299435936	 0.099453
H	-0.0005020608	-3.7852709174	 0.436989044	 0.055511
H	-2.0125208554	-1.6651547602	 0.7328152619	 0.090105
H	-1.229091156	-2.378750241	 2.175769351	 0.090543
H	 0.0268460701	-0.130180271	 2.1677508827	 0.051513
H	 1.2780012807	-2.3812759749	 2.1414891483	 0.090543
H	 2.0231204244	-1.669220937	 0.6776347188	 0.090104
