21
gdb 58763	3.04693	1.28446	1.24233	1.3896	82.28	-0.2278	0.01	0.2378	1137.7957	0.182668	-387.056238	-387.047715	-387.046771	-387.089084	34.064	
C	 0.0784029652	 1.5187112847	-0.0884136413	-0.408894
C	 0.0115603745	-0.0027459363	 0.0664966739	-0.002071
O	 0.6986058031	-0.441769751	 1.2391886228	-0.432704
C	-1.4059566741	-0.5433162972	 0.0349293464	 0.324435
C	-2.3246882238	-0.4823846284	-1.2415418013	-0.258739
C	-3.1120878172	-1.5772236146	-0.4435267846	-0.081833
C	-1.7055402484	-2.0856974843	 0.0227994549	-0.247567
C	-3.5312181062	-0.7672948885	 0.7911728125	-0.093042
C	-2.4239090768	-0.0919846851	 1.1072891012	-0.13478
H	 1.1188371807	 1.8525669914	-0.0549154159	 0.122674
H	-0.3609118106	 1.8386566586	-1.0387901698	 0.120037
H	-0.468467721	 2.0229055221	 0.716956681	 0.108432
H	 0.5712992518	-0.4628619849	-0.757205782	 0.082046
H	 0.2235431856	-0.0963501459	 2.002857814	 0.277572
H	-2.8403587498	 0.4583095429	-1.4490506776	 0.092252
H	-1.8343234381	-0.8678574727	-2.1421331427	 0.091659
H	-3.8450393404	-2.2296079087	-0.9167077543	 0.060956
H	-1.1534265451	-2.6215546442	-0.7565926443	 0.090765
H	-1.6487469791	-2.6153543182	 0.9755057004	 0.095896
H	-4.5036563651	-0.7690877327	 1.26310572	 0.099768
H	-2.2526474252	 0.6143534429	 1.9084765366	 0.093139
