21
gdb 103547	2.05533	1.58574	1.32113	2.3954	79.82	-0.248	0.0062	0.2542	1123.4688	0.181224	-424.22837	-424.218825	-424.217881	-424.262483	36.179	
C	 0.4325960032	 1.1288401484	 0.3625682467	-0.247392
O	 0.2865654914	-0.21824174	-0.0277710968	-0.306086
C	 0.6570739493	-0.5642121963	-1.3819403516	 0.325666
C	-0.4014411907	-0.0637702389	-2.3613673589	-0.455364
C	 2.0835493967	-0.1640721894	-1.7007630186	-0.113514
C	 2.938637466	-1.1561406219	-1.4483972527	-0.077824
C	 2.2415510101	-2.392422653	-0.9411200931	-0.295688
C	 0.7671069833	-2.1207372465	-1.339130022	 0.117495
O	-0.2092947799	-2.7247468024	-0.5313569031	-0.445774
H	 1.4776722296	 1.4621796392	 0.3060976901	 0.111983
H	-0.1859107053	 1.8102350725	-0.2380777315	 0.108487
H	 0.1021104167	 1.1922169486	 1.4025228085	 0.127575
H	-0.4993994039	 1.0259831477	-2.3381275259	 0.111836
H	-0.1379429894	-0.3498828655	-3.3840922988	 0.119937
H	-1.3711771419	-0.505548095	-2.1141743244	 0.132926
H	 2.3507537658	 0.8192676188	-2.0719554494	 0.093786
H	 4.0136951348	-1.0979554683	-1.5844773654	 0.098559
H	 2.6279653745	-3.3212524076	-1.3730113917	 0.104637
H	 2.3315461504	-2.4847535922	 0.14881461	 0.114028
H	 0.6115737869	-2.4960061008	-2.3568842235	 0.086148
H	-0.3154410877	-2.1332640174	 0.2264288024	 0.288579
