20
gdb 103801	2.66409	1.09163	0.93833	2.2245	76.78	-0.2431	0.0295	0.2727	1324.4883	0.16935	-440.310807	-440.300499	-440.299555	-440.346036	37.661	
C	-0.4812642291	 1.8114115321	 0.482469828	-0.475421
C	-0.1619999619	 0.4004991869	 0.0297206033	 0.291469
C	-1.3810091693	-0.3198796144	-0.54135619	-0.136246
O	-1.1449868216	-1.650401217	-0.9729831896	-0.412336
C	 1.188336567	 0.0971530377	-0.5409502155	-0.336177
C	 0.81721555	-0.4738183817	 0.8141911055	-0.14798
C	 1.5257381114	 0.0486201511	 2.0229454951	 0.414957
N	 1.5057151916	-0.7958794622	 3.0976272723	-0.534727
O	 2.0930812605	 1.1288614157	 2.0661951373	-0.381783
H	 0.3869091723	 2.2821690768	 0.9442799476	 0.164321
H	-0.7998759514	 2.4209101236	-0.3714340588	 0.109568
H	-1.2993153663	 1.8133400107	 1.2131130032	 0.109853
H	-2.1505732682	-0.3912032363	 0.2366227225	 0.111854
H	-1.8037970058	 0.2898067865	-1.3554464008	 0.094927
H	-0.6885892865	-1.613461079	-1.8186319865	 0.288649
H	 1.2858150506	-0.6081424294	-1.3597522818	 0.092154
H	 1.9252169271	 0.8924417148	-0.5221029314	 0.138502
H	 0.5564983516	-1.5269851023	 0.8245136975	 0.091647
H	 0.9686492825	-1.6446290912	 3.1023707384	 0.258416
H	 1.9140376354	-0.4738286227	 3.9594994738	 0.258354
