23
gdb 81768	2.07347	1.67588	1.27906	1.3731	85.18	-0.242	0.0683	0.3104	1143.8549	0.203823	-388.27299	-388.263057	-388.262113	-388.306608	38.86	
C	-0.0757230991	 1.5369442065	 0.096108364	-0.502755
C	 0.0296768576	 0.0386088956	 0.0098120574	 0.342465
C	-0.8323188331	-0.865285211	 0.847774197	-0.343344
C	 0.6621770732	-0.9498597756	 1.0014587561	-0.10812
C	 1.2432691057	-1.768120861	-0.138047421	 0.063164
O	 0.7898371178	-3.1075661272	-0.1502124097	-0.428076
C	 0.6304560234	-0.7467550859	-1.1867444195	 0.221111
C	-0.3480354741	-1.3214568612	-2.2089047136	-0.450868
C	 1.7451206303	 0.0310351829	-1.8899031994	-0.449412
H	 0.8589769286	 2.0338956083	-0.1839526097	 0.115856
H	-0.8643350337	 1.9203893771	-0.5631816049	 0.117824
H	-0.3243792515	 1.8498504352	 1.1156441914	 0.116042
H	-1.3472181602	-0.3695528541	 1.6652724505	 0.10363
H	-1.3797649211	-1.7006769816	 0.4247132725	 0.119991
H	 1.1565632405	-0.7546936514	 1.9458533197	 0.079097
H	 2.3411300744	-1.7315489381	-0.16220338	 0.057364
H	 1.1743785856	-3.5475456491	-0.9151151499	 0.280458
H	-1.1197702237	-1.9370752313	-1.7428833834	 0.124955
H	-0.842609522	-0.5178884571	-2.766547716	 0.110657
H	 0.1755761386	-1.9487753753	-2.9411498932	 0.098496
H	 2.2918662987	-0.6212750957	-2.5807950175	 0.104718
H	 1.3459799963	 0.8690275618	-2.4722216365	 0.113021
H	 2.467386818	 0.437368278	-1.1736239344	 0.113725
