20
gdb 78279	3.22783	1.34394	1.14909	1.4271	79.21	-0.2343	0.0729	0.3072	1130.3095	0.169799	-403.077093	-403.068276	-403.067332	-403.109883	34.264	
C	-0.1803755865	 1.4388338009	-0.1105034955	-0.310346
N	 0.1281676441	 0.0254935547	 0.047117603	-0.084488
C	 1.4628258434	-0.4924398144	-0.1604977737	-0.071459
C	 2.5733916787	 0.3822215551	 0.3814906128	-0.19258
C	 3.2178672636	-0.3332816616	 1.5496120757	 0.042021
O	 4.3150604265	 0.2833295089	 2.1581163531	-0.432397
C	 1.9044551067	 0.3704022873	 1.7797389304	 0.32043
C	 1.7484905894	 1.4501195483	 2.8147884188	-0.503584
C	 0.8025006896	-0.5108770933	 1.2122750363	-0.135697
H	 0.6329967177	 2.1176321179	 0.1769509254	 0.111865
H	-0.4260024936	 1.6249248046	-1.1611845867	 0.118574
H	-1.0634508779	 1.6786517955	 0.4903148688	 0.119574
H	 1.5923896425	-1.3168339064	-0.8541550986	 0.092235
H	 3.0754685569	 1.2087160813	-0.1090400673	 0.089406
H	 3.2542006217	-1.4252332022	 1.5516950551	 0.081353
H	 5.0867168008	 0.1354768395	 1.602125171	 0.290335
H	 2.7015007654	 1.9544071246	 2.9891708364	 0.139301
H	 1.0044855415	 2.1959658903	 2.5201226694	 0.116694
H	 1.4218056619	 1.0184276543	 3.7685016167	 0.119834
H	 0.3383570376	-1.3467741652	 1.7268134089	 0.088931
