13
gdb 2794	5.11018	1.98427	1.53607	1.5444	50.84	-0.2602	-0.0407	0.2195	758.3969	0.100524	-381.574124	-381.567261	-381.566317	-381.605445	23.942	
O	 0.0277564243	 1.4095236151	-0.1466245084	-0.41373
C	 0.0461269203	 0.0625377407	 0.2742499817	-0.065703
C	-1.3295770596	-0.5674381188	 0.0855212304	-0.01007
O	-1.7311518691	-0.5232948814	-1.3126256178	-0.302207
C	-1.8114025224	-1.9599051033	-1.4407934211	-0.189022
C	-1.4143630713	-2.0995512883	 0.0346636235	 0.332751
O	-1.2375510215	-2.9953327498	 0.8004529644	-0.265793
H	-0.29541831	 1.4057879615	-1.0559162989	 0.29646
H	 0.7994824576	-0.5246786118	-0.2742268952	 0.092856
H	 0.3164252263	 0.0518784634	 1.3346384162	 0.128167
H	-2.0709173338	-0.0777205147	 0.7295925141	 0.118217
H	-2.8207968656	-2.3098295756	-1.6896880707	 0.139708
H	-1.0948159551	-2.3698176569	-2.1632863181	 0.138365
