18
gdb 16254	3.03236	2.07121	1.54219	1.2874	67.13	-0.2464	0.0812	0.3276	876.2324	0.154783	-384.923933	-384.916471	-384.915526	-384.95587	28.774	
O	 0.0343606443	 1.4939634754	 0.1022464704	-0.427699
C	 0.0060636988	 0.0796975208	-0.0195813486	 0.046753
C	 0.6344160468	-0.6172668606	 1.1948605383	-0.120595
O	-0.4300768677	-0.7082834006	 2.1362952723	-0.256747
C	-1.5562717001	-1.1582278537	 1.3895482739	-0.154121
C	-1.4162318183	-0.5057484712	 0.0090458624	 0.302848
C	-2.549244452	 0.2242191066	-0.6599782849	-0.307006
C	-2.0666145513	-1.0922793018	-1.2147890717	-0.323875
H	-0.4165229702	 1.7133023778	 0.9261600613	 0.282898
H	 0.5343930035	-0.1415111063	-0.9505390988	 0.086927
H	 1.0055265108	-1.6200988254	 0.9238501994	 0.088293
H	 1.4461731854	-0.0384205945	 1.6399052721	 0.115242
H	-1.543796834	-2.258149711	 1.3093505135	 0.091037
H	-2.4593499154	-0.8616016831	 1.9310420399	 0.109781
H	-3.5104503482	 0.2443402332	-0.1555688865	 0.110551
H	-2.301266795	 1.1335625513	-1.1960938426	 0.129303
H	-1.5103397892	-1.0848565382	-2.1467040922	 0.115689
H	-2.6976445279	-1.9663367989	-1.0815106981	 0.11072
