21
gdb 112005	2.50954	1.38665	1.0791	1.4088	83.41	-0.223	0.024	0.2471	1201.624	0.182651	-387.08528	-387.076362	-387.075418	-387.118546	34.606	
C	-0.0897312273	 1.4568763698	-0.0411552906	-0.485432
C	 0.030684294	-0.0480976265	 0.0136197621	 0.33302
C	-0.7718770657	-0.8138086711	 1.0420276997	-0.328475
C	 0.7424590304	-0.7660811927	 1.1511818638	-0.121326
C	 1.4502988151	-1.9165057509	 0.5190644571	-0.08871
C	 1.2420403848	-1.9590022279	-0.7989357437	-0.085286
C	 0.4086060674	-0.7883586275	-1.2814556292	-0.090845
C	-0.7856765048	-1.1871525503	-2.1496067091	-0.085269
O	-0.2761519161	-1.7798357844	-3.337342407	-0.423127
H	 0.8278050678	 1.9139849626	-0.4294660384	 0.117843
H	-0.9158071201	 1.7701792632	-0.6915052832	 0.11533
H	-0.2780760359	 1.8776656106	 0.9517029146	 0.112728
H	-1.3444293705	-0.2164711104	 1.7454824235	 0.10406
H	-1.2248538447	-1.76533055	 0.7850248593	 0.10867
H	 1.1907858322	-0.2254717151	 1.9785697855	 0.081928
H	 2.0253428759	-2.6379084772	 1.0892908477	 0.091788
H	 1.5931332546	-2.7257551823	-1.4782853775	 0.104167
H	 1.0284704096	-0.1283584296	-1.9077149251	 0.083112
H	-1.4307809292	-1.8890234954	-1.6009536312	 0.086202
H	-1.387349631	-0.2929483928	-2.379932406	 0.083446
H	-1.0196859964	-2.0884266223	-3.8629807422	 0.286175
