19
gdb 101206	3.48431	0.887	0.76218	2.9675	71.99	-0.2742	0.0088	0.283	1478.7354	0.157872	-460.190634	-460.181185	-460.180241	-460.225399	34.226	
C	-0.3106542826	 1.6904194012	-0.1765944822	-0.400232
C	-0.1066582683	 0.1824302127	 0.0152762368	-0.019827
C	-1.4505668813	-0.5676272047	 0.012983802	-0.077219
O	-2.3272159964	-0.1200319602	 1.0349881485	-0.416662
C	 0.8187817575	-0.3798380107	-1.0503192914	 0.130634
C	 2.3222475091	-0.0530362405	-0.9697505076	-0.439148
C	 2.4740384572	-1.5579436827	-0.7464574321	 0.444376
O	 3.348142991	-2.3418491844	-0.5671891422	-0.313418
O	 1.126797276	-1.8075584917	-0.8245092094	-0.253814
H	 0.6229698812	 2.2481257487	-0.0553348934	 0.114625
H	-0.7065544148	 1.9078427426	-1.1757571278	 0.117846
H	-1.0337107352	 2.0586059427	 0.5541570676	 0.140813
H	 0.3715825518	 0.0060488441	 0.9908885709	 0.071502
H	-1.9745372805	-0.37754956	-0.9317420212	 0.109621
H	-1.2712071299	-1.6486067366	 0.0795513126	 0.116116
H	-1.9870060537	-0.4391107907	 1.8768969732	 0.285603
H	 0.3879572963	-0.2676699281	-2.0506889258	 0.099409
H	 2.7962444349	 0.3162386418	-1.8802262901	 0.146188
H	 2.6330539077	 0.5582835964	-0.1202383785	 0.143589
