21
gdb 122659	5.06624	0.69626	0.64524	1.1047	82.27	-0.2333	0.0162	0.2496	1774.5739	0.181549	-424.216204	-424.206562	-424.205618	-424.251999	34.049	
C	-0.1469949577	 1.3543027242	 0.0780747964	-0.226641
O	-0.0471184525	-0.0473949286	 0.0365044984	-0.232895
C	 0.6737308562	-0.5767072661	 1.1295845419	-0.051383
C	 0.6873608706	-2.0945614022	 1.0072431855	-0.208621
C	 1.4912921195	-2.7635553881	 2.1266444033	 0.0836
O	 0.9365373054	-2.4304364544	 3.4068426365	-0.278346
C	 0.6313476105	-3.6107242285	 4.1445217933	-0.114128
C	 0.9771350804	-4.747359838	 3.2243565482	-0.096426
C	 1.4707169999	-4.2689701274	 2.0891449845	-0.093536
H	 0.8431139801	 1.8377656447	 0.0469840404	 0.100077
H	-0.7197397326	 1.6698086495	-0.7977822123	 0.123257
H	-0.6656601844	 1.7021478624	 0.9859693108	 0.102458
H	 1.7065010644	-0.1835109782	 1.1340012121	 0.077882
H	 0.2106218612	-0.2805746261	 2.0832969389	 0.10517
H	-0.3411130336	-2.4708738871	 1.0243493741	 0.107467
H	 1.1224241337	-2.3697223777	 0.0386646727	 0.100244
H	 2.52832672	-2.3843956035	 2.08676901	 0.078475
H	 1.2187353169	-3.6355573752	 5.0768933146	 0.103936
H	-0.430982195	-3.606667029	 4.4339563577	 0.106658
H	 0.8369135315	-5.787828416	 3.4885559257	 0.106645
H	 1.8166686456	-4.8377730547	 1.2354405772	 0.106106
