24
gdb 117765	2.42139	0.94927	0.83965	3.8102	89.69	-0.3073	0.0438	0.3511	1571.529	0.215266	-368.448656	-368.437242	-368.436298	-368.48529	41.131	
C	-0.0602374855	 1.6422087704	 0.1239524975	-0.381037
C	-0.0078382199	 0.1183797931	-0.0252232506	-0.198018
C	 0.7452388485	-0.5473365854	 1.1321654349	-0.184448
C	 0.7717696023	-2.1025061876	 1.1396688968	 0.077263
C	 1.4673697785	-2.6557043107	-0.1242406312	-0.412674
C	 1.5026573645	-2.5738235184	 2.430728997	-0.189005
C	 1.5440680015	-4.0858185043	 2.6663478877	-0.410303
C	-0.6148325401	-2.5993722981	 1.1773410929	 0.29109
N	-1.7031967556	-2.9888868789	 1.2142489787	-0.363651
H	 0.9460447664	 2.0752334211	 0.1517689143	 0.113605
H	-0.5973162688	 2.1021461086	-0.7108388628	 0.117082
H	-0.5708110378	 1.931938297	 1.0488273871	 0.11916
H	-1.0278272715	-0.2808455996	-0.0728609481	 0.124434
H	 0.4687825922	-0.1325951189	-0.9797344904	 0.100555
H	 1.7894158297	-0.2082336996	 1.1366020151	 0.098282
H	 0.306948619	-0.2116564335	 2.0800467551	 0.107795
H	 2.4983959109	-2.2891500069	-0.1602220959	 0.119517
H	 1.4891240267	-3.7472949648	-0.1217636205	 0.135249
H	 0.955324684	-2.3367795761	-1.0341180422	 0.136525
H	 2.5231558338	-2.174607812	 2.3828470539	 0.10161
H	 1.0192552194	-2.0894655047	 3.2866961053	 0.111904
H	 0.5364100165	-4.5119730872	 2.6844159489	 0.144269
H	 2.1195746315	-4.6089463222	 1.8971380176	 0.120782
H	 2.0157939839	-4.3017919412	 3.6294755489	 0.120015
