18
gdb 44798	2.80285	1.51308	1.17212	3.2441	77.03	-0.2373	-0.0169	0.2204	1082.5734	0.148304	-401.910992	-401.903036	-401.902092	-401.943989	30.327	
O	 0.1061683217	 0.0233337105	 0.0730680921	-0.333903
C	 0.07104789	 1.2200711867	 0.1946248766	 0.348393
C	-1.1002450896	 2.2307527076	 0.273345546	-0.350255
C	-0.0685414847	 3.3198513147	-0.0532739755	-0.104803
C	 0.9455677831	 3.372267082	 1.0283285338	-0.329426
C	 1.1074081599	 2.2790392658	-0.02483739	 0.255903
C	 2.3376357802	 2.1389469833	-0.8454732861	-0.123734
C	 3.1703036477	 0.9089319187	-0.748756387	-0.24314
N	 2.3983214135	 1.1905101301	-1.9708737851	-0.32999
H	-1.8229541172	 2.0264698783	-0.5213873906	 0.135789
H	-1.6301391399	 2.3289170876	 1.2254277949	 0.122655
H	-0.1999572297	 4.1048126189	-0.7858837284	 0.115461
H	 1.701613679	 4.1480055612	 0.950596932	 0.130695
H	 0.6760103669	 3.1183488521	 2.0503420411	 0.123296
H	 2.8434555892	 3.081498221	-1.0502568511	 0.088543
H	 4.2492098476	 0.9794832987	-0.8557792099	 0.116061
H	 2.8162679345	 0.1170897953	-0.096016322	 0.134636
H	 1.566414688	 0.6039700974	-1.9665812108	 0.243818
