16
gdb 5229	7.31149	1.14359	1.00648	1.8374	68.06	-0.1988	0.0328	0.2317	1152.3653	0.131794	-379.955412	-379.947694	-379.946749	-379.988214	27.724	
C	-0.0572064684	 1.5130330786	-0.1227554926	-0.396859
C	-0.0408916815	 0.0193492674	 0.1813033028	-0.111831
N	-1.3724511016	-0.5531292133	 0.0135435902	-0.400677
C	-1.5184096714	-1.9084176587	 0.0060531714	 0.513586
N	-0.6008220611	-2.8172540613	-0.1471237824	-0.3591
C	-1.3225168702	-4.0110549319	-0.1440876864	-0.10579
C	-2.6349161087	-3.755362705	 0.0211450689	-0.057903
O	-2.7824534472	-2.3814739538	 0.1222965492	-0.204959
H	 0.9450064613	 1.9340947221	-0.0047667782	 0.125997
H	-0.3954228172	 1.7003049596	-1.145859644	 0.131435
H	-0.7239421134	 2.0524572905	 0.5603137507	 0.114499
H	 0.6244386477	-0.5102392933	-0.5052119123	 0.145031
H	 0.3473003346	-0.1620387861	 1.1950411921	 0.105217
H	-2.1319082181	-0.056447004	 0.4561067465	 0.247065
H	-0.8314841943	-4.9647316429	-0.2575976612	 0.117323
H	-3.5360325805	-4.3373903179	 0.0925039054	 0.136966
