19
gdb 8236	4.08937	1.29976	1.2783	2.0981	74.47	-0.2428	0.0282	0.271	1079.974	0.164818	-365.063925	-365.055271	-365.054327	-365.09732	31.43	
C	 0.8379333597	 0.5449490383	-0.8852602915	-0.388871
C	 0.3675302203	-0.4463237836	 0.1896207652	 0.056121
C	-0.3993833795	 0.251130274	 1.3230437724	-0.388674
N	-0.3966376839	-1.5611707359	-0.3868924472	-0.334049
C	-1.4825170835	-1.390331864	-0.9755658998	 0.466918
C	-2.4812153173	-2.305065492	-1.658472012	-0.367563
C	-3.25514509	-0.9981216856	-1.9218171777	-0.078311
O	-2.218394555	-0.2334633262	-1.2378168667	-0.265087
H	 1.5105716357	 1.2891087612	-0.446018907	 0.107003
H	 1.3801907828	 0.0221027313	-1.6788437279	 0.113915
H	-0.0112444987	 1.0675650014	-1.3338062635	 0.130977
H	 1.2610441355	-0.9055465218	 0.6294153628	 0.07835
H	-0.7244357164	-0.4775063366	 2.0718141881	 0.113981
H	 0.2435721705	 0.9856661286	 1.819207007	 0.10707
H	-1.2825171966	 0.7681882959	 0.9380849614	 0.13074
H	-2.0985379812	-2.8217414238	-2.5402286782	 0.137175
H	-2.9667492867	-3.0255295811	-0.9981217012	 0.137154
H	-3.3446204157	-0.6893304155	-2.9663098396	 0.121582
H	-4.2174821299	-0.8938705446	-1.4145095548	 0.12157
