20
gdb 79247	2.459	1.63225	1.37248	2.0187	78.61	-0.2222	0.0629	0.2851	1061.2471	0.169392	-403.090166	-403.081052	-403.080108	-403.12358	34.5	
C	 0.0781886474	 1.6485063389	-0.0342268389	-0.435573
C	 0.0897054926	 0.1254337969	 0.0166006578	-0.042816
C	 0.7307761061	-0.7134072981	-1.0877765675	-0.106708
N	 2.2041166046	-0.9373350788	-0.7922757194	-0.192412
C	 2.454378113	-0.243961627	 0.5146688179	-0.215603
C	 1.0456155073	-0.6632448003	 0.9703053472	 0.28991
O	 0.7104238027	-0.9276180361	 2.2897147192	-0.480483
C	 1.1529790048	-1.7778869185	-0.1486836378	 0.315234
C	 1.0994065781	-3.2661813227	-0.1369508474	-0.532668
H	 1.059607147	 2.0652194945	-0.2752095657	 0.126178
H	-0.6227898185	 2.0014664207	-0.7982480954	 0.122391
H	-0.2460298414	 2.0756633135	 0.9227650628	 0.105897
H	-0.9238623751	-0.2553733105	 0.1889487049	 0.080962
H	 0.4475022953	-0.790313239	-2.1305164958	 0.091864
H	 3.2372029371	-0.7895147024	 1.0479575351	 0.109894
H	 2.7171322209	 0.8179538789	 0.4525524716	 0.088845
H	 0.5125036317	-0.0954636299	 2.7335857621	 0.28388
H	 0.1089403361	-3.6223507536	 0.1652467908	 0.127683
H	 1.3176200885	-3.6566172176	-1.1356922848	 0.133408
H	 1.8331657218	-3.6848508289	 0.5603052633	 0.130118
