25
gdb 109539	1.9038	1.35013	1.14343	0.9699	90.13	-0.2285	0.0796	0.308	1321.3844	0.224784	-389.479039	-389.467291	-389.466347	-389.515159	42.79	
C	 0.3569308778	 1.1763633191	 0.2634639198	-0.23353
O	-0.2914978242	 0.0571030541	-0.3062866956	-0.237731
C	 0.4723812522	-0.5700506653	-1.2896589559	 0.035982
C	 1.4404686455	-1.6896534657	-0.932264745	 0.242623
C	 2.7558696516	-1.7758000706	-1.6891412865	-0.455476
C	 1.5774500703	-2.0973905697	 0.5261745675	-0.455218
C	 0.1154515326	-1.9850493301	-1.6608166999	 0.223248
C	-1.0103171636	-2.6738060526	-0.9042358593	-0.447741
C	 0.1271189955	-2.3646594558	-3.1338230698	-0.454291
H	 1.2967998018	 0.8968744877	 0.7597784731	 0.109422
H	 0.5812623347	 1.9405551587	-0.4964622143	 0.105631
H	-0.3252132293	 1.6035950743	 1.002558225	 0.124849
H	 0.7712102498	 0.1020761895	-2.0991565651	 0.068053
H	 3.5359601203	-1.2174548551	-1.157921892	 0.110262
H	 3.0999707082	-2.8138564425	-1.7758606594	 0.113633
H	 2.6937058507	-1.3642848081	-2.6990162861	 0.112508
H	 0.7143113298	-1.8015691042	 1.1235934831	 0.129381
H	 1.7043756614	-3.1820149009	 0.6246538183	 0.111404
H	 2.4630750276	-1.6270137269	 0.9692365961	 0.106513
H	-1.1539654628	-2.2699637733	 0.0971518405	 0.131295
H	-1.9555501447	-2.5450087798	-1.4437428381	 0.111564
H	-0.8237889809	-3.7510680475	-0.8229539183	 0.107866
H	 0.3405871266	-3.4325209453	-3.2641070305	 0.113021
H	-0.8552527928	-2.1703739776	-3.5799249446	 0.114996
H	 0.864259182	-1.8067636724	-3.7151425229	 0.111735
