23
gdb 76212	2.22274	1.33769	1.22855	1.8252	81.82	-0.2464	0.0677	0.314	1211.2845	0.202135	-425.429869	-425.419279	-425.418335	-425.464046	41.191	
C	-0.7493894728	 1.025690845	-0.1205190823	-0.424426
C	-0.0410996816	-0.3023298807	 0.0924233716	-0.005449
C	 1.2127965066	-0.6637187901	-0.7590014699	 0.375063
C	 1.0104767588	-1.4994804588	-2.0134097553	-0.452268
O	 1.8993026908	 0.5487210698	-1.0701225474	-0.474101
C	 1.8123512008	-1.3591552392	 0.4996462557	-0.331908
C	 0.7797638122	-0.5892229249	 1.3843320822	 0.397604
C	 1.3646726403	 0.6296105544	 2.0873546684	-0.460599
O	 0.0205947906	-1.3807440183	 2.2844948305	-0.482024
H	-0.0491070268	 1.8630887493	-0.098110262	 0.130918
H	-1.2565776623	 1.044922798	-1.0911703929	 0.111132
H	-1.5094522822	 1.1844282595	 0.6518286381	 0.115626
H	-0.7559747509	-1.1270707117	 0.002478029	 0.08013
H	 0.4643891292	-0.9276882254	-2.7707306371	 0.123783
H	 1.975237422	-1.796104315	-2.4452245856	 0.102217
H	 0.4509036798	-2.4139271518	-1.7945600471	 0.116794
H	 2.7563834222	 0.3111753625	-1.4401820657	 0.274008
H	 1.6078774694	-2.4325094068	 0.5192154306	 0.097293
H	 2.8758027636	-1.1810447202	 0.6872349104	 0.08113
H	 1.9248534458	 1.2521648515	 1.3868060819	 0.139339
H	 0.5730008169	 1.230713837	 2.5451883838	 0.119036
H	 2.0546336137	 0.3113525403	 2.8804254368	 0.096319
H	 0.5256279838	-1.4774013945	 3.0991200967	 0.270382
