17
gdb 83683	2.42386	1.67498	1.35099	2.4029	73.14	-0.2459	0.0365	0.2824	1001.0614	0.135586	-421.749987	-421.742033	-421.741088	-421.782627	30.761	
O	-0.368817903	 1.4313562564	-0.0372937033	-0.421063
C	-0.0408653027	 0.0841585415	-0.0632151153	 0.142744
C	-1.2286239816	-0.8916117566	 0.1114268197	 0.063157
O	-2.4214125853	-0.3114406199	-0.4662345761	-0.307242
C	-2.2613250345	-1.0963983795	-1.6834911753	-0.091015
C	-0.8951187143	-1.613988944	-1.223190786	-0.08966
C	 0.2912004563	-0.6153879918	-1.463945284	-0.286226
C	 0.2539519724	 0.2094955365	-2.649222118	 0.347091
C	 0.1943836898	 0.9123346654	-3.6240447341	-0.448709
H	-1.2673757977	 1.489422366	-0.3955064173	 0.291985
H	 0.7717715413	-0.0818132252	 0.6493594477	 0.094002
H	-1.4169046792	-1.3605083859	 1.0800703107	 0.080416
H	-3.0360707553	-1.8694902102	-1.7464582437	 0.107772
H	-2.2791850322	-0.475817224	-2.584376164	 0.126467
H	-0.6765455728	-2.6747657941	-1.3245119777	 0.08657
H	 1.251985429	-1.1352570323	-1.4014697678	 0.105724
H	 0.1630474799	 1.5334490678	-4.4847937656	 0.197988
