19
gdb 102028	2.54756	1.21517	0.8779	1.767	76.4	-0.2473	0.0019	0.2492	1343.6233	0.15867	-456.393326	-456.383218	-456.382274	-456.428987	35.078	
C	-0.1357177155	 1.5474326651	-0.0149006861	-0.382383
C	-0.0249064347	 0.0229684498	-0.0144495689	-0.146192
N	 0.6841419922	-0.4965973297	-1.1940656945	-0.168952
C	 2.0597533482	-0.7003538116	-1.1321137304	 0.09539
N	 2.7189532725	-0.4445238037	-0.0752093013	-0.479021
C	 0.050450143	-0.7536814015	-2.3999003908	 0.541331
O	 0.5925914422	-1.1822886252	-3.3929255344	-0.409252
O	-1.2637713921	-0.4600055634	-2.3242182939	-0.258982
C	-2.000376737	-0.710678579	-3.5268901221	-0.238106
H	 0.8572426886	 2.0042313716	-0.0276404972	 0.139416
H	-0.6997815736	 1.8993852917	-0.883064052	 0.123221
H	-0.6544519761	 1.8834938491	 0.888408124	 0.117828
H	 0.5490360107	-0.312007033	 0.8505246965	 0.145288
H	-1.0115206058	-0.4396044535	 0.0153187966	 0.123386
H	 2.4519790836	-1.0881319521	-2.0726521641	 0.142231
H	 3.7019545789	-0.6661509477	-0.2182806806	 0.230203
H	-1.6019163174	-0.1181058658	-4.3536299739	 0.144902
H	-1.9524091119	-1.7685464986	-3.7957894876	 0.144293
H	-3.027054636	-0.4186745127	-3.3062735091	 0.1354
