21
gdb 87881	2.98412	1.2389	1.21798	1.6274	82.04	-0.2287	0.0739	0.3026	1159.4411	0.182297	-387.03996	-387.03124	-387.030295	-387.073974	33.399	
O	-0.2508006577	 1.4284485668	-0.3615284569	-0.428381
C	-0.1633842374	 0.036320154	-0.2516907205	 0.086089
C	-0.2099095574	-0.6692444035	 1.079318094	-0.401562
C	-1.354584773	-0.8041357861	 0.0967216008	 0.321023
C	-2.7897055792	-0.2876769034	 0.3127973508	-0.335117
C	-3.3181834955	-1.5224513336	-0.46632163	-0.003047
C	-3.3697515078	-1.3556446129	-2.0114711785	-0.221609
C	-1.9560485895	-2.0021833048	-2.1404860666	-0.222476
C	-1.8526751393	-2.0822712551	-0.5954270689	-0.114463
H	-1.0212545547	 1.7251216823	 0.1338464903	 0.284193
H	 0.5281683753	-0.3424905606	-0.998828749	 0.104246
H	 0.4419201533	-1.5234587964	 1.2389160466	 0.111351
H	-0.3816472209	-0.0641193629	 1.9660446113	 0.105871
H	-3.0946591192	-0.2699239449	 1.3637939505	 0.102038
H	-3.0333157286	 0.6851417209	-0.1340286304	 0.089496
H	-4.1319454998	-2.0825307109	-0.0051997268	 0.064404
H	-4.1643759249	-1.9279637033	-2.4959713691	 0.100242
H	-3.4454447117	-0.3189444555	-2.3521320916	 0.099106
H	-1.9846863604	-2.9867395936	-2.6147093861	 0.09725
H	-1.188186576	-1.4044609264	-2.6391934763	 0.100213
H	-1.5275174254	-3.0264442301	-0.1537692035	 0.061133
