16
gdb 125687	2.98336	1.26273	0.9846	0.4071	75.31	-0.2529	-0.0005	0.2524	1186.9182	0.124389	-396.910168	-396.901458	-396.900513	-396.944238	31.329	
C	 0.3102652112	 1.4382190417	 0.1035761414	-0.508794
C	 0.0950100847	-0.0384959178	 0.0547617869	 0.253639
N	-0.0624774165	-0.698186099	-1.0950379666	-0.256498
N	-0.2257433073	-1.9581794446	-0.7104275634	-0.084985
N	-0.1870349744	-2.188445311	 0.594092759	-0.263639
C	 0.0165277592	-0.9763596289	 1.1107676522	 0.255539
C	 0.1170094028	-0.7700133023	 2.5975923586	-0.458556
C	 1.3857603668	-0.177410003	 3.0191256121	 0.306519
C	 2.426404462	 0.3170930305	 3.3603241008	-0.459612
H	 1.2086083675	 1.6835845201	 0.6779140087	 0.148695
H	 0.4151095076	 1.8342960722	-0.9082600263	 0.143262
H	-0.5313471386	 1.9493129837	 0.5852537009	 0.131779
H	-0.3656060309	-2.7010222666	-1.3751863784	 0.291392
H	-0.7072069672	-0.1309056154	 2.9428048572	 0.143232
H	-0.0210033152	-1.7415794007	 3.083837479	 0.157501
H	 3.3485075684	 0.7441507111	 3.6682938179	 0.200526
