15
gdb 129439	2.84583	1.5147	0.99416	4.09	70.3	-0.2033	-0.0115	0.1918	1107.7847	0.115523	-450.187847	-450.179795	-450.178851	-450.220333	30.932	
N	 0.0045076137	 1.3637376522	 0.0264928832	-0.543646
C	 0.0353368772	-0.0129508036	 0.0751306717	 0.312284
O	 1.0951896708	-0.6177471346	 0.2019693513	-0.389715
C	-1.2520238924	-0.7055844919	 0.0165973421	 0.074543
C	-2.5536256826	-0.2285956383	 0.0971744597	-0.1405
N	-3.3585766843	-1.2994963033	 0.047619447	-0.190173
N	-2.6893135961	-2.4836136196	-0.0586632436	-0.322304
C	-1.4077638013	-2.1268596093	-0.077763072	 0.342266
N	-0.3886298866	-3.0308047011	-0.2299880104	-0.589376
H	 0.9064339911	 1.8014941144	-0.0865343411	 0.257464
H	-0.7675828329	 1.8228511643	-0.4282871302	 0.251322
H	-2.9459555916	 0.7700858326	 0.2127628359	 0.136799
H	-4.3621684779	-1.3185283166	 0.096776156	 0.27721
H	-0.6058306264	-3.975356668	 0.0474244249	 0.250373
H	 0.5070190393	-2.6685906073	 0.0707226055	 0.273451
