20
gdb 87828	2.85209	1.34199	1.14856	2.4975	79.73	-0.2255	0.0622	0.2877	1161.0127	0.170182	-403.091477	-403.082673	-403.081729	-403.124513	34.293	
C	-0.1169099919	 1.426462957	-0.131760203	-0.391018
C	-0.0066960135	-0.0624584805	 0.0891764759	-0.090003
N	 1.355766939	-0.6424100051	 0.0061245189	-0.389839
C	 0.6433789136	-0.657502551	 1.2776390181	 0.300127
C	 1.2602628013	-0.077575749	 2.5696721645	-0.313025
C	 0.9350773193	-1.407553556	 3.274126746	-0.109351
C	-0.5548114497	-1.6748768201	 3.2076365454	-0.349799
C	 0.2941358202	-1.9465759836	 1.9983846143	 0.323813
O	 0.4205574814	-3.1910529102	 1.4039644295	-0.459154
H	 0.7225867194	 1.9470299507	 0.3366282192	 0.126285
H	-0.1059051931	 1.6657924412	-1.2007371428	 0.118842
H	-1.0481340101	 1.8176878694	 0.2928848142	 0.110987
H	-0.8138309422	-0.6509574514	-0.3498252817	 0.068456
H	 1.3213576973	-1.5779635968	-0.396853905	 0.231831
H	 2.3299772644	 0.1041888041	 2.4471823992	 0.119166
H	 0.7838431182	 0.8125013306	 2.9933818763	 0.096491
H	 1.5674134363	-1.9161363845	 3.9901756605	 0.097063
H	-0.8718567304	-2.5680972006	 3.7386512124	 0.111385
H	-1.2724788298	-0.8570777946	 3.2247588827	 0.106979
H	-0.4601327098	-3.5279673997	 1.2090104554	 0.290763
