17
gdb 50176	3.3093	1.28311	1.0836	1.0036	74.41	-0.2359	-0.0461	0.1898	1119.0419	0.13731	-417.988854	-417.981217	-417.980272	-418.021493	28.889	
O	-0.3231510658	 0.5847907281	 1.0955160694	-0.241616
C	 0.338129873	 0.7328522969	 0.1011181094	 0.161407
C	 1.4748159833	 1.7216040358	-0.0155666275	-0.110259
N	 2.6071580207	 1.2476546244	-0.8818713657	-0.375811
C	 2.0971316738	 1.9904826659	-1.9470924076	 0.385177
N	 1.9098192191	 1.9021371169	-3.1963083165	-0.306953
C	 0.832949527	 2.905909221	-3.4512458454	-0.158911
C	 0.0739951455	 3.0997687535	-2.0830506833	-0.266023
C	 1.2315271082	 2.8678836643	-1.0966804607	-0.104866
H	 0.1503945093	 0.1361851857	-0.8208118319	 0.091846
H	 1.7786218278	 2.0626638146	 0.9752629033	 0.11037
H	 2.8313330704	 0.2636186913	-0.9850174634	 0.247886
H	 1.2593046785	 3.8523677348	-3.8098688127	 0.109742
H	 0.1717073898	 2.529624357	-4.2360997311	 0.11475
H	-0.3971679988	 4.080283312	-1.9849210178	 0.111179
H	-0.7080670046	 2.3405590861	-1.9903382698	 0.117233
H	 1.6983248728	 3.7933468319	-0.7534378787	 0.114848
