18
gdb 52974	4.75986	0.89979	0.84295	1.8475	88.07	-0.1987	0.0333	0.232	1431.156	0.146793	-364.70371	-364.695146	-364.694201	-364.738667	32.051	
C	-0.0103847698	 1.4702280077	-0.0659161021	-0.510533
C	-0.0237991066	 0.0165481623	-0.013155824	 0.279425
C	-0.0378124056	-1.1895067951	 0.0266630435	-0.234257
C	-0.0249884661	-2.6047308871	 0.102789965	 0.212452
N	-0.3138732869	-3.4770857806	-1.0832887148	-0.379148
C	-1.1400710573	-3.5941934924	 0.1329587889	-0.125557
C	-0.3873532994	-4.4542832392	 1.1858150831	-0.056918
C	 0.9786740923	-4.8763430035	 0.7090937901	-0.292907
C	 0.7606830947	-3.4574176323	 1.155777355	-0.11402
H	 0.7700820133	 1.8786224668	 0.5857670648	 0.151835
H	 0.1870064191	 1.8315804302	-1.0815353558	 0.149795
H	-0.9672996835	 1.8948944531	 0.2584194547	 0.147814
H	-0.8277341193	-2.8943547216	-1.7437939776	 0.234287
H	-2.2073819151	-3.4160488604	 0.1115315718	 0.102638
H	-0.8765261772	-4.8886338119	 2.0470578242	 0.091396
H	 1.5292105316	-5.4849501403	 1.4201605897	 0.107659
H	 1.1524166616	-5.108206099	-0.3334385805	 0.144191
H	 1.2802544941	-2.9995922869	 1.9863866739	 0.091846
