17
gdb 114180	3.51248	1.06554	0.90032	4.1276	71.17	-0.2531	-0.0334	0.2197	1274.9907	0.134362	-458.919746	-458.911279	-458.910335	-458.95328	31.255	
O	-0.0390899503	 1.3686249974	-0.2662582573	-0.416088
C	 0.0637452836	 0.0206915139	 0.1456569329	-0.081175
C	-1.297007604	-0.6498101967	 0.0997591695	 0.108749
O	-1.8731602058	-0.5925463559	-1.245050201	-0.335609
C	-2.1569801894	-1.9833636497	-1.2020712374	 0.387602
C	-0.8877051741	-2.7973687297	-1.1032604333	-0.343312
C	-1.4372354761	-2.1727872237	 0.1435239212	-0.199554
C	-3.4480244013	-2.5161741509	-1.6567365034	 0.06453
O	-4.3275403636	-1.8653428875	-2.1613600083	-0.261178
H	-0.4578321034	 1.359735157	-1.1355098439	 0.299333
H	 0.7841683464	-0.5391120439	-0.4691581484	 0.089767
H	 0.4374256175	 0.0264096873	 1.1757076144	 0.115354
H	-1.9851439414	-0.1555970379	 0.794666479	 0.106701
H	-1.0156994174	-3.8736794587	-1.1626461753	 0.134812
H	-0.004069017	-2.4088897809	-1.5981232952	 0.136425
H	-1.7566057591	-2.750515263	 0.9999961994	 0.121323
H	-3.5417739447	-3.6142566771	-1.4881539328	 0.07232
