18
gdb 30064	2.99502	1.3841	1.0116	2.4155	78.7	-0.2194	0.0206	0.24	1169.782	0.150292	-398.136009	-398.12772	-398.126776	-398.169675	30.11	
C	-0.5491252527	 1.4525971138	-0.1414507945	-0.346464
N	-0.1646539714	 0.0569188174	-0.0603137414	-0.051431
C	-0.0643081251	-0.8220235286	-1.0973906526	-0.001947
N	 0.2965392681	-2.0231140037	-0.7055922132	-0.271805
C	 0.4339769349	-1.9227466674	 0.6561054051	-0.170567
C	 0.1591121802	-0.6466558208	 1.091040186	 0.271251
C	 0.1710136134	-0.0113276779	 2.4190809002	-0.133499
C	 0.9973184266	-0.5773683694	 3.511696449	-0.234827
N	 1.3847366295	 0.7069057099	 2.9058407492	-0.318933
H	 0.175753764	 2.0825360971	 0.380840004	 0.159151
H	-0.582735457	 1.749049022	-1.1913734113	 0.145027
H	-1.5373817929	 1.6196257902	 0.2997899607	 0.144941
H	-0.2664648253	-0.5202494867	-2.1153379658	 0.125528
H	 0.7139368338	-2.7743097763	 1.2580404225	 0.108596
H	-0.7427308825	 0.5073783704	 2.7043070754	 0.098295
H	 0.6431304921	-0.5136209672	 4.5361442489	 0.121996
H	 1.5978966303	-1.4551029579	 3.2926305223	 0.12282
H	 2.141393254	 0.5351121051	 2.2460502254	 0.231867
