21
gdb 120621	4.48731	0.68081	0.64462	1.0404	75.52	-0.2599	0.0723	0.3322	1762.7699	0.179776	-461.33771	-461.327031	-461.326087	-461.374124	38.118	
C	-0.0692347918	 1.6444409911	-0.0067335595	-0.466034
C	-0.2343346025	 0.1579770226	 0.2128513589	 0.347133
C	-1.3796506641	-0.4773725503	-0.5582448941	-0.115607
O	-1.1475704348	-0.4147133837	-1.9551868528	-0.416654
O	 0.97049418	-0.636628523	 0.1174880013	-0.31019
C	 0.2981444568	-0.5548396335	 1.3875791996	 0.006277
C	 1.053691863	 0.0772870568	 2.5305814973	-0.251155
C	 2.16358753	-0.8435047287	 3.0542751258	-0.052633
O	 2.8334123888	-0.3040478522	 4.1812356151	-0.418195
H	 0.8901041526	 2.0047288984	 0.3664941957	 0.125824
H	-0.1266837019	 1.856199979	-1.0781698163	 0.14207
H	-0.872316647	 2.199232818	 0.490595997	 0.122327
H	-1.5168621801	-1.5156024313	-0.2220491557	 0.090353
H	-2.3141486834	 0.0644718349	-0.376166311	 0.110153
H	-0.3060446665	-0.8608674083	-2.1080066831	 0.293193
H	-0.2090275343	-1.4847117343	 1.659870807	 0.085501
H	 1.4929864291	 1.0304820831	 2.2185863727	 0.093413
H	 0.3572322425	 0.2911724531	 3.3506738259	 0.112663
H	 1.7325317415	-1.7925679008	 3.3922477925	 0.111513
H	 2.86225864	-1.0762361976	 2.2373068413	 0.107703
H	 3.3212750022	 0.4730073066	 3.8906486424	 0.282345
