21
gdb 107338	3.20554	1.33065	1.10091	0.8896	83.86	-0.217	0.0165	0.2335	1187.0434	0.182944	-387.08493	-387.076375	-387.075431	-387.117859	33.579	
C	-0.3192773928	 1.4736926951	-0.1071828427	-0.377371
C	 0.2365876379	 0.0517086839	 0.0296928846	-0.237691
C	 0.7657895689	-0.5064009688	-1.2729296444	 0.451902
C	-0.1842978568	-1.1283846445	-2.2561172634	-0.358491
C	 0.8249250068	-2.0023812686	-1.491855821	-0.157275
C	 2.0153954815	-2.4938502145	-2.2207103746	-0.039828
C	 2.8281851154	-1.6518817187	-2.8598757825	-0.107832
C	 2.5804827285	-0.1681518987	-2.8377173102	-0.134263
O	 1.8620190668	 0.2641029657	-1.6887260459	-0.30639
H	 0.4525045408	 2.153375271	-0.4767136092	 0.133561
H	-1.1580818709	 1.5027901963	-0.810822139	 0.111955
H	-0.6750348804	 1.8490388402	 0.8571270998	 0.106664
H	 1.0516312102	 0.0394609536	 0.7632764826	 0.105518
H	-0.5407351528	-0.6228591587	 0.4061369552	 0.093231
H	-1.2302273863	-1.1953989629	-1.9751370707	 0.112334
H	-0.0133277959	-1.0129011798	-3.3203786368	 0.119556
H	 0.4259104753	-2.647451552	-0.7157020687	 0.084755
H	 2.2125862268	-3.562015053	-2.2166221515	 0.091106
H	 3.6939469902	-2.0056418324	-3.4107974702	 0.092544
H	 3.5284786176	 0.3799484983	-2.8049171433	 0.115572
H	 2.0630937789	 0.1594007186	-3.7564884081	 0.100444
