17
gdb 12628	3.29263	2.02581	1.35881	3.0154	71.02	-0.2087	0.0002	0.2089	925.4048	0.142258	-363.914049	-363.905946	-363.905001	-363.946502	29.407	
C	-0.1348623217	 1.5521452967	 0.0605009719	-0.388335
C	 0.0393183097	 0.0300318091	-0.0524664072	-0.163982
C	 0.9113834503	-0.4553362391	-1.1837893408	-0.15804
C	 1.9103752567	-1.1804027189	-0.6722450226	-0.027658
N	 1.833870505	-1.2613625802	 0.7286591802	-0.080379
C	 2.7722144445	-1.9365642734	 1.5953062559	-0.352528
C	 0.7420613644	-0.5457473243	 1.1913521532	 0.409871
O	 0.4315099931	-0.4041013118	 2.35507555	-0.393454
H	 0.836343108	 2.0557753816	 0.0733247705	 0.122493
H	-0.7096718014	 1.9419645622	-0.7844501631	 0.115166
H	-0.6609140204	 1.7946724816	 0.9876982732	 0.141159
H	-0.9571707888	-0.43127763	-0.0987672754	 0.116911
H	 0.7458507841	-0.2491507799	-2.2303485668	 0.105701
H	 2.7209451315	-1.6872455757	-1.1779635823	 0.124411
H	 2.80890893	-3.0113439304	 1.3845424779	 0.130158
H	 3.7823060035	-1.5236004695	 1.4916536762	 0.129745
H	 2.4281231617	-1.7846435479	 2.6199616294	 0.16876
