17
gdb 51127	4.0106	1.12953	1.11632	2.1345	73.21	-0.23	0.021	0.251	1134.7918	0.136163	-417.934003	-417.926241	-417.925297	-417.966944	29.759	
O	 0.0270372218	 0.4882924199	 1.4208943359	-0.30618
C	 0.0430795771	 1.3590351047	 0.5831008998	 0.134326
N	 1.1295647535	 1.7272474466	-0.1660700305	-0.398359
C	 2.388566126	 1.0848669561	-0.1104622683	 0.397003
C	 3.1472601624	 0.8866985945	 1.1647461594	-0.308964
C	 3.7811361019	 1.6628670476	 0.0412857551	-0.092106
N	 4.3120610938	 0.8916354842	-1.1546759819	-0.139079
C	 4.1529469941	-0.5646771065	-0.9487201822	-0.24621
C	 2.9615776468	 0.2438360712	-1.2781144108	-0.08655
H	-0.8399754361	 1.9831529856	 0.3359828735	 0.074489
H	 0.9844132461	 2.4356994558	-0.870666353	 0.249688
H	 2.7977042076	 1.5305502162	 1.9649563871	 0.135066
H	 3.4706045157	-0.0875961282	 1.5100763832	 0.125838
H	 4.118535314	 2.6856486685	 0.1514868516	 0.110558
H	 4.5972722941	-1.1343041279	-1.7605191349	 0.126693
H	 4.294379642	-1.0103086884	 0.0283360427	 0.126993
H	 2.4583155093	 0.1943572	-2.2397084665	 0.096792
