16
gdb 98501	2.39095	1.45491	0.97979	2.1821	72.91	-0.253	-0.0067	0.2463	1193.054	0.122155	-437.851411	-437.842135	-437.841191	-437.885934	32.935	
C	-0.321414404	 1.384141915	-0.4005983471	-0.247389
O	-0.3784562126	-0.0297410127	-0.644519183	-0.229478
C	 0.7981758397	-0.6233845988	-0.8506864502	 0.432134
O	 1.8654170487	-0.0537360676	-0.8401668733	-0.391334
C	 0.6662421061	-2.102828054	-1.1109202871	-0.025981
C	 1.5191609865	-2.5854888947	-2.2614333441	-0.245318
N	 1.915867093	-2.8736671845	-0.8967791941	-0.33249
C	-0.5734799513	-2.7585598364	-0.7972924256	 0.275931
C	-1.6060408311	-3.3220018327	-0.554525215	-0.395298
H	 0.2814317078	 1.5946783001	 0.4857785451	 0.147352
H	 0.1148721611	 1.9026958187	-1.2576427933	 0.144883
H	-1.3536607389	 1.6965637095	-0.2470014442	 0.141874
H	 1.1527200157	-3.4335119027	-2.8309891301	 0.1399
H	 2.0591404156	-1.8255623492	-2.8186398749	 0.136416
H	 2.6253425075	-2.1968703688	-0.613127049	 0.254393
H	-2.5183300938	-3.8166445611	-0.3293923141	 0.194405
