14
gdb 21951	7.64773	1.08241	0.95945	2.4366	58.65	-0.2789	-0.0239	0.255	1129.3685	0.1076	-415.855848	-415.848338	-415.847394	-415.88923	25.586	
O	-0.086429915	 1.4416702846	 0.0283100683	-0.41931
C	-0.0819446107	 0.0752707617	 0.4046645496	-0.072886
C	-1.1425611747	-0.6089864789	-0.452434513	-0.315321
C	-1.2558848099	-2.0650634475	-0.1674896	 0.446713
N	-0.5848623446	-2.780542976	 0.6887091849	-0.321203
C	-1.1246229556	-4.0289481055	 0.4969670388	 0.036898
N	-2.0609072331	-4.100209137	-0.406266527	-0.113203
O	-2.1554445979	-2.7767622309	-0.8600477798	-0.202153
H	 0.5748896712	 1.9002998946	 0.5542426441	 0.291932
H	 0.8953253642	-0.3964846791	 0.2303240407	 0.109856
H	-0.3227561785	-0.0594447087	 1.4685493384	 0.10989
H	-2.1143121251	-0.1294457314	-0.287506802	 0.150514
H	-0.9085531597	-0.463097612	-1.5132864249	 0.150504
H	-0.8091611006	-4.9040613137	 1.0462788219	 0.147769
