12
gdb 23754	3.32147	2.36075	1.37995	1.6347	59.63	-0.2356	-0.025	0.2105	798.3671	0.085413	-422.689163	-422.683168	-422.682224	-422.719245	23.152	
O	 0.103213309	 1.347473896	 0.1031920869	-0.407147
C	 0.0721718314	 0.002591115	 0.0446712071	 0.318895
N	 0.0890204992	-0.5877630484	-1.1377929873	-0.348821
C	 0.0578492619	-1.9275946266	-1.1861798593	-0.009152
C	 0.0087323531	-2.7259321191	-0.0554804843	-0.127534
C	-0.0090712089	-2.1004305126	 1.1957246912	-0.19772
C	 0.022959614	-0.7245650556	 1.2447506508	 0.185877
F	 0.0081478718	-0.0725916345	 2.4067673791	-0.062663
H	 0.134739712	 1.6499647043	-0.8153002762	 0.301695
H	 0.073370524	-2.3667795546	-2.1793651804	 0.115045
H	-0.0152257015	-3.8054798863	-0.1386157929	 0.107116
H	-0.047080801	-2.6633531576	 2.1213910755	 0.12441
