20
gdb 80765	3.26293	1.04847	0.92138	3.3821	82.28	-0.2555	0.0259	0.2813	1338.1425	0.170768	-403.116788	-403.10784	-403.106896	-403.151276	33.122	
C	-0.1073426548	 1.5485823301	-0.0774779885	-0.419181
C	 0.0894002628	 0.0515060703	 0.0505764046	 0.007611
C	 1.3690128317	-0.6975117511	-0.1806570354	-0.071089
C	 2.5775482768	 0.0847817351	 0.3490573705	-0.281168
C	 1.945160344	 0.0121294017	 1.7755941024	 0.132051
O	 1.7094215699	 1.2322016082	 2.4749111823	-0.18951
C	 2.6168910084	 1.6059593119	 3.3952561803	 0.124095
N	 2.5396360964	 2.74098869	 3.9426663218	-0.444794
C	 0.7107674313	-0.6748791572	 1.218914194	-0.111991
H	 0.7174871975	 2.1210043904	 0.3477223116	 0.143264
H	-0.2198137036	 1.831183637	-1.1303551483	 0.109844
H	-1.015325643	 1.857631861	 0.4506029076	 0.122348
H	-0.7633275304	-0.5153316599	-0.3213622296	 0.088609
H	 1.4350928539	-1.5337334041	-0.8652731253	 0.089239
H	 3.5223962877	-0.4590430624	 0.2859313348	 0.105058
H	 2.7201398796	 1.0893273879	-0.0570803078	 0.114046
H	 2.5174089008	-0.6651517862	 2.4200328216	 0.088308
H	 3.3730650589	 0.8339226661	 3.6008104124	 0.080256
H	 3.2842933511	 2.8442411306	 4.6289615256	 0.226994
H	 0.1784196411	-1.4630984693	 1.7381308056	 0.086008
