20
gdb 69723	3.54454	1.62883	1.42045	1.4566	82.01	-0.2192	0.0923	0.3115	989.3921	0.173332	-365.931242	-365.924305	-365.923361	-365.962053	29.424	
C	 0.0057253158	 1.4936712374	 0.0129747298	-0.488195
C	-0.007005686	-0.0137356858	 0.0063345762	 0.351526
C	-0.8911706418	-0.8214041816	 0.9260588148	-0.352919
C	 0.6117691171	-0.8834829983	 1.0853188148	-0.101169
C	 1.3525220305	-1.8858158253	 0.2265220546	 0.01776
C	 0.5083948016	-2.2935639414	-1.0113605578	-0.093942
C	 1.8235138269	-2.3135020497	-1.7935696444	-0.188077
N	 2.0146401149	-1.0686929578	-0.9307513677	-0.164151
C	 0.5105041196	-0.7553213304	-1.2170359971	-0.045104
H	 0.9784840838	 1.8745863134	-0.316087768	 0.133327
H	-0.7611088359	 1.9052049192	-0.6542530319	 0.115106
H	-0.1866690643	 1.8862024334	 1.0164894313	 0.11441
H	-1.429100147	-0.2615121146	 1.685051092	 0.109011
H	-1.4313730969	-1.6858192982	 0.5548356712	 0.111336
H	 1.0868131544	-0.463626503	 1.9639528639	 0.091557
H	 2.0136349047	-2.6123490691	 0.7027233546	 0.070014
H	-0.3368367361	-2.990019498	-1.0642050795	 0.0612
H	 2.5398172129	-3.1116281746	-1.5769132831	 0.096529
H	 1.7886227728	-2.1037207563	-2.8667048638	 0.096088
H	 0.3178306831	-0.3316353493	-2.20533261	 0.065694
