19
gdb 118924	2.58855	1.0735	0.97895	2.9129	71.57	-0.2677	-0.0069	0.2608	1327.5468	0.157377	-460.189206	-460.179542	-460.178598	-460.224124	34.668	
C	-0.0945926616	 1.5474882873	 0.0661408749	-0.386461
C	-0.0187446902	 0.0192726982	 0.0317836511	-0.174557
C	 0.6415132685	-0.5029543161	-1.2502273001	-0.212941
C	 0.7228267371	-2.0265248983	-1.315680083	 0.202598
O	-0.5837199247	-2.5349875115	-1.2842592229	-0.463119
C	 1.7022676966	-2.5907948562	-2.3826223345	-0.134894
O	 2.6174517807	-3.0224882262	-1.3256608101	-0.241211
C	 1.7473947602	-2.650438887	-0.330503796	 0.390975
O	 1.8579823338	-2.8301289506	 0.8395570859	-0.324625
H	 0.9029355114	 1.9987244517	 0.0185797226	 0.114164
H	-0.6739273479	 1.9367224737	-0.7788301993	 0.113503
H	-0.5730508105	 1.8972417242	 0.9857783691	 0.117034
H	 0.5411150947	-0.3478160488	 0.8994848193	 0.12204
H	-1.0228621698	-0.4088333081	 0.1084463932	 0.118187
H	 0.0759476434	-0.1672036913	-2.1295219288	 0.110265
H	 1.6543659325	-0.0930815984	-1.3483588642	 0.106905
H	-0.56015335	-3.4766585245	-1.0830528554	 0.29498
H	 1.3207479261	-3.4479286622	-2.9427066067	 0.120479
H	 2.1842549999	-1.8723466557	-3.0482074951	 0.12668
