20
gdb 89787	1.95579	1.63959	1.00956	2.7575	81.06	-0.2227	-0.0263	0.1964	1228.0075	0.168893	-403.113662	-403.104362	-403.103418	-403.148334	33.958	
C	-0.3322949962	 1.5606308008	-0.0223662232	-0.32813
N	-0.1801511501	 0.122809358	 0.0286425963	-0.084837
C	-1.3201657663	-0.6924138489	 0.5030671951	-0.242238
C	-0.3327009912	-1.5464696433	 1.2992421649	 0.331696
C	-0.5489404626	-2.3519117567	 2.5376494969	-0.318672
C	-0.1486759454	-3.0342340518	 1.2481382511	-0.325682
C	 0.7301017781	-0.4557273279	 1.0326305341	-0.121334
C	 2.0499066638	-0.9520481208	 0.4849483297	 0.150645
O	 2.9682275477	-1.318349699	 1.1742603682	-0.256651
H	 0.617018511	 2.0254690502	-0.3085596235	 0.124461
H	-1.0759694521	 1.8261677645	-0.7808647729	 0.125116
H	-0.6530380944	 2.0008242386	 0.9405084431	 0.095913
H	-2.0176637794	-0.1348672077	 1.1496816858	 0.089736
H	-1.8909200964	-1.1807559425	-0.2956483536	 0.105841
H	 0.1942763454	-2.2822533245	 3.3253311506	 0.126995
H	-1.5680646812	-2.4742358353	 2.8912559329	 0.115515
H	-0.8964526933	-3.6165837651	 0.7193583439	 0.116122
H	 0.8603529736	-3.4267391861	 1.178301714	 0.132558
H	 0.9111506568	 0.1740365492	 1.9184497095	 0.080942
H	 2.0820795921	-0.9994959717	-0.6272454127	 0.082005
