20
gdb 78379	2.3661	1.76691	1.43745	2.4299	78.08	-0.2114	0.0576	0.269	1010.7699	0.171746	-403.057674	-403.049644	-403.0487	-403.089657	32.387	
C	-0.0710160555	 1.5409560408	 0.0828548684	-0.447873
C	 0.0519297316	 0.0336492347	-0.0463710671	 0.03869
C	 0.4222911332	-0.8222058846	-1.1897399788	-0.071258
C	 1.6903474716	-0.509043302	-2.0101584186	-0.056142
C	 2.1713079736	 0.9192120611	-2.3581126522	 0.102861
O	 1.1806737907	 1.8326047556	-2.7747455463	-0.413128
C	 2.8357684836	 1.0402451506	-0.9337922297	-0.310612
C	 2.4449278723	-0.4428362137	-0.6689609751	 0.037871
N	 1.2240365399	-0.8554619803	 0.1356684116	-0.185193
H	 0.353173075	 2.0897855068	-0.7533415835	 0.151135
H	-1.1377402693	 1.7863140902	 0.1249142918	 0.112741
H	 0.3757037448	 1.8852066659	 1.0223878481	 0.117389
H	-0.74769529	-0.4496428126	 0.5182604791	 0.098823
H	-0.2063057871	-1.6645989358	-1.4690235947	 0.091704
H	 1.8945826247	-1.2803777573	-2.7524977112	 0.073193
H	 2.9566432969	 0.8449329731	-3.1231773361	 0.078557
H	 1.6158677001	 2.648418843	-3.0431088665	 0.285978
H	 3.9170780371	 1.1975561958	-0.976929057	 0.097638
H	 2.4104530954	 1.7803961432	-0.2599334117	 0.116961
H	 3.2635231714	-1.1208555646	-0.4296996706	 0.080665
