21
gdb 75002	2.92954	1.58764	1.43455	0.2518	86.44	-0.2124	0.0265	0.2389	1037.2636	0.185731	-349.971212	-349.963891	-349.962947	-350.002545	30.587	
C	-0.005703261	 1.5047260195	 0.0594588579	-0.503275
C	-0.0422841683	 0.0105791439	-0.0099309769	 0.340317
C	-0.0809019639	-0.7596195138	-1.1029888107	-0.18827
C	 0.0204321629	-2.2378124832	-0.7621481295	-0.089655
C	 1.5008051709	-2.6864480197	-0.8981099812	-0.186021
C	 2.2062041104	-1.9910661983	 0.295790773	-0.232652
C	 1.1172841382	-1.8791317064	 1.3668457033	-0.041065
C	-0.2082050962	-2.2713644554	 0.7693995342	-0.073512
C	-0.0135391074	-0.8455317038	 1.2192890412	-0.142643
H	 0.9117009353	 1.8576989777	 0.54765897	 0.12672
H	-0.0573925111	 1.9561585064	-0.9350233763	 0.121226
H	-0.841884532	 1.8950808646	 0.6539392264	 0.122703
H	-0.0404161093	-0.3943706343	-2.1242262112	 0.080841
H	-0.6620437938	-2.8712995354	-1.3359831615	 0.063073
H	 1.5620393015	-3.7757583612	-0.7871170553	 0.091795
H	 1.941604094	-2.4251344874	-1.8660134505	 0.088645
H	 3.0571978613	-2.5719290625	 0.6622788774	 0.092629
H	 2.5905260869	-1.0094817842	-0.0000172838	 0.100713
H	 1.3597309607	-2.1679422853	 2.3840237291	 0.078575
H	-0.9034415731	-2.958349047	 1.235834374	 0.0775
H	-0.4583412359	-0.4767749439	 2.1389106706	 0.072354
