18
gdb 54406	3.30173	1.43891	1.19123	2.8179	71.92	-0.2442	0.027	0.2712	1058.3196	0.149153	-439.100818	-439.092949	-439.092005	-439.133527	30.766	
N	-0.1028730536	 1.2712160498	 0.3231865521	-0.532394
C	 0.0389893264	-0.0152430014	-0.0828704909	 0.279633
O	 1.0873046462	-0.5137803663	-0.4504054443	-0.377942
C	-1.2336533514	-0.8270856096	-0.0509002943	 0.384326
C	-1.779443945	-1.5850687908	-1.2898009377	-0.25723
C	-2.6279391576	-2.2812694574	-0.1803525142	-0.094731
C	-1.3553263969	-2.1703194836	 0.716128293	-0.257224
C	-3.4295803536	-1.0799500884	 0.3395586778	-0.082983
O	-2.3805171004	-0.082096589	 0.4089775354	-0.341547
H	 0.7033825275	 1.8732281948	 0.3292354199	 0.260013
H	-1.0034713412	 1.6121966897	 0.6139472997	 0.276487
H	-2.2949760815	-0.9862994741	-2.0446746236	 0.100872
H	-1.0326611565	-2.2380689172	-1.7394475705	 0.126662
H	-3.1643229837	-3.2154991977	-0.3395250777	 0.079248
H	-0.5706123622	-2.8755560736	 0.4456817591	 0.126663
H	-1.4821603568	-2.1079230757	 1.7997110404	 0.100862
H	-4.2165407622	-0.7459374332	-0.3461227789	 0.10465
H	-3.8613172874	-1.2363515464	 1.3346310848	 0.104637
