17
gdb 40406	4.20702	1.27395	1.13126	2.6033	71.89	-0.242	0.0177	0.2597	1082.9295	0.13794	-417.970872	-417.963624	-417.96268	-418.002884	28.189	
C	 0.42119667	 1.5375949591	 0.2198753213	-0.228072
N	 1.1787090151	 0.37346123	-0.2648238838	-0.31519
C	-0.2346371398	 0.2077934349	 0.1037488607	-0.144115
C	-0.4930216762	-0.6522426425	 1.2899232312	 0.449986
C	 0.5378403963	-1.0343568832	 2.3079225543	-0.356809
C	-0.1445133345	-2.1226938315	 1.5000670966	-0.074
N	-1.3148985502	-2.7255787425	 2.0978015386	-0.256535
C	-2.1555652136	-1.781237288	 2.2306282996	 0.087185
O	-1.8296559287	-0.5382030898	 1.7840784303	-0.253727
H	 0.7238036961	 1.8968102	 1.1989751605	 0.12611
H	 0.1363867904	 2.3113221313	-0.487430365	 0.117687
H	 1.2711673498	 0.405209767	-1.2758377859	 0.239784
H	-0.9611159149	 0.0870131275	-0.6975516348	 0.093387
H	 1.5595421828	-0.8078920023	 2.0266225141	 0.146294
H	 0.2941230234	-0.9485133878	 3.3616676271	 0.118748
H	 0.4285254148	-2.72985546	 0.8104126514	 0.108097
H	-3.1423509408	-1.8598200022	 2.6701325638	 0.141168
