21
gdb 71825	2.46222	1.98507	1.34524	0.4767	87.1	-0.2133	0.0213	0.2346	1031.7688	0.183051	-349.936842	-349.928732	-349.927788	-349.968731	33.103	
C	-0.0680035406	 1.5331704038	-0.0462362688	-0.502653
C	-0.04228487	 0.0297123591	-0.0162458228	 0.298907
C	 0.7100420331	-0.7975355176	-1.0586132203	-0.273728
C	-0.2231705519	-2.0237515218	-0.723459594	-0.110267
C	 0.4660837606	-2.8001234405	 0.3773451872	-0.09297
C	 0.4729769316	-2.0533829739	 1.4847064535	-0.148852
C	-0.3313392612	-0.8078084364	 1.2737990311	 0.278299
C	-0.9155407436	-0.1024155302	 2.4774098552	-0.501347
C	-1.1506846913	-1.0087309578	 0.0209338078	-0.156631
H	 0.9245819187	 1.9421219588	 0.1803066265	 0.119511
H	-0.3515293365	 1.8985894285	-1.0404041698	 0.115794
H	-0.770131823	 1.9609509069	 0.6736335507	 0.117674
H	 0.4941744799	-0.40548665	-2.057188209	 0.095873
H	 1.7901337697	-0.9473292445	-0.948728557	 0.084297
H	-0.6076409902	-2.5916755952	-1.5694079689	 0.064944
H	 1.0105697105	-3.7225677135	 0.2148306548	 0.091862
H	 0.9925232528	-2.2703324389	 2.4109781664	 0.088063
H	-0.1431823446	 0.4053345945	 3.0669708642	 0.116816
H	-1.6621079479	 0.64488766	 2.196176948	 0.117718
H	-1.4118105321	-0.8255534374	 3.1340153181	 0.119998
H	-2.2294857742	-0.9075136937	-0.0392940328	 0.076691
