21
gdb 107344	3.17757	1.26068	1.05135	1.3015	83.77	-0.2215	0.0244	0.2459	1204.2196	0.184186	-387.090002	-387.081522	-387.080578	-387.122797	33.491	
O	 0.0359856175	 1.2962254542	 0.4703986073	-0.423595
C	-0.0352406712	 0.0034846676	-0.1220438385	-0.158256
C	-1.448176536	-0.5087228901	 0.015200823	 0.358551
C	-1.7985486324	-1.1994918205	 1.3035571679	-0.316836
C	-1.6319781094	-2.0168040736	 0.0270564299	-0.124402
C	-2.8347389779	-2.5643754765	-0.6474251336	-0.043248
C	-3.8750885142	-1.8042777032	-0.9959787404	-0.080067
C	-3.8993210178	-0.3178374132	-0.7451571378	-0.283407
C	-2.4874410956	 0.2986328405	-0.7495957943	-0.262722
H	 0.8994922027	 1.6695689084	 0.2710592016	 0.28577
H	 0.2389535253	 0.0466794177	-1.1890291522	 0.084124
H	 0.6617105664	-0.6943244596	 0.3695434399	 0.078255
H	-1.025585116	-1.2747455355	 2.0611339802	 0.109942
H	-2.8032733165	-1.1063243997	 1.6995275854	 0.115482
H	-0.7364497711	-2.6284577029	-0.033407688	 0.076082
H	-2.8498443273	-3.6339426901	-0.8393320555	 0.082675
H	-4.7459943655	-2.2555253137	-1.4630382468	 0.08281
H	-4.5126375781	 0.1846717589	-1.5018038615	 0.099305
H	-4.3959494604	-0.109303844	 0.2131044002	 0.111916
H	-2.5178882006	 1.3203051943	-0.359609983	 0.11414
H	-2.1450608421	 0.3715044911	-1.7911026641	 0.093482
