16
gdb 35678	4.53225	0.90866	0.80177	1.3842	74.12	-0.272	0.0005	0.2725	1348.3756	0.126878	-396.95473	-396.946487	-396.945543	-396.989604	29.562	
N	-0.1271094461	-1.1310594401	-0.6088386566	-0.31459
C	-0.1350781586	-0.0284704883	-0.2618255239	 0.265615
C	-0.1464095503	 1.3512553952	 0.2070173312	-0.145689
C	-0.4485322036	 1.5000272858	 1.7281849865	-0.187532
N	 0.056753498	 2.8179785972	 2.096715489	-0.300869
C	 1.3076312887	 2.9879809503	 1.3302032297	-0.088598
C	 1.2174487409	 2.0776952552	 0.048514137	-0.262311
C	 1.5490152123	 4.3945731791	 1.0133956424	 0.257356
N	 1.7252280876	 5.5041299814	 0.7439396988	-0.307485
H	-0.9152683426	 1.8941582624	-0.3533352839	 0.133101
H	-1.509432926	 1.4074704746	 1.9651612096	 0.13658
H	 0.093419147	 0.7274312974	 2.2854938518	 0.136281
H	-0.6082563385	 3.533954104	 1.8207905825	 0.242013
H	 2.1421675594	 2.6392594299	 1.949693277	 0.144561
H	 2.0435642285	 1.3649115119	 0.0337941504	 0.143302
H	 1.2590523633	 2.6591390639	-0.8727323413	 0.148266
