13
gdb 43263	3.09821	1.36109	1.03657	4.646	72.02	-0.2391	-0.1021	0.137	1089.6457	0.087706	-419.42151	-419.41367	-419.412726	-419.454515	28.617	
O	-0.002382819	-0.0623245054	-0.1603436178	-0.291788
C	-0.0619640904	 1.1368869771	-0.0606484592	 0.292252
C	-1.2398091637	 2.0191752211	-0.0101076896	-0.180639
C	-0.8777183706	 3.3073298648	 0.0741206857	-0.053793
C	 0.6246290413	 3.535307018	 0.0777431382	-0.346046
C	 1.0931211507	 4.3014330599	 1.221501163	 0.333145
C	 1.4629293866	 4.9207984849	 2.1819305952	-0.447203
C	 1.1732960869	 2.0812523204	 0.0333528822	 0.309477
O	 2.3176022988	 1.7395612357	 0.0569419799	-0.260299
H	-2.2541250809	 1.6422231903	-0.0334964414	 0.138458
H	-1.5607034422	 4.146416324	 0.1441857925	 0.142663
H	 0.9376472209	 4.0371978137	-0.8498784541	 0.152911
H	 1.8023359816	 5.4688808857	 3.0262131453	 0.210863
