19
gdb 121676	7.47297	0.58458	0.54952	2.3734	79.22	-0.2651	0.013	0.2781	2005.8022	0.155537	-423.032274	-423.021613	-423.020669	-423.07	36.501	
C	 0.1808529104	 1.4253747342	 0.0067231441	-0.384141
C	-0.0080360589	-0.0942531993	-0.0000208076	-0.190635
C	-1.4778184006	-0.4799480637	 0.0130085814	-0.044717
O	-1.5571843751	-1.9200732055	 0.0055169706	-0.24814
C	-2.7993894334	-2.4394112102	 0.0169299667	 0.458103
O	-3.8093913909	-1.7904214263	 0.032018553	-0.337328
C	-2.701026909	-3.9655343001	 0.0080837928	-0.507791
C	-3.9860624361	-4.6430801063	 0.0137496711	 0.33686
C	-5.0344985855	-5.2271204088	 0.0182729326	-0.436691
H	 1.2426545203	 1.6861994999	-0.0028077983	 0.121612
H	-0.2839888218	 1.8892749546	-0.8698940819	 0.121934
H	-0.2656337006	 1.8791479797	 0.898058472	 0.121933
H	 0.4661199259	-0.5311667764	-0.8863422091	 0.109758
H	 0.4843294778	-0.5412339314	 0.8712244617	 0.109743
H	-1.9911868938	-0.1005263604	 0.9030015697	 0.122237
H	-2.0094304298	-0.0903814673	-0.8617741371	 0.122212
H	-2.1090513702	-4.253536046	-0.8694518994	 0.162513
H	-2.0969873584	-4.2623693649	 0.874456414	 0.162594
H	-5.9694671404	-5.7301957217	 0.0227170836	 0.199944
