21
gdb 93034	2.69586	1.56537	1.17497	1.0438	84.15	-0.2343	0.0155	0.2498	1125.2088	0.183589	-387.080588	-387.072415	-387.071471	-387.112898	32.903	
C	-0.2333394735	 1.4575072016	 0.0936522478	-0.391775
C	 0.0836676698	-0.0288250242	-0.0244414988	 0.149687
C	 0.8280341548	-0.3813646509	-1.3395892359	-0.294525
C	 2.3040058659	-0.0603740291	-1.3125774195	-0.048038
C	 3.1555786658	-0.7250353144	-0.5300766859	-0.061176
C	 2.7046750517	-1.814313591	 0.378978498	-0.097668
C	 2.7517882096	-1.6427750665	 1.8889357205	-0.318755
C	 1.4343010242	-1.6060125609	 1.1770757798	 0.107854
O	 0.8348846933	-0.3500137047	 1.1450719627	-0.253373
H	 0.6842952381	 2.0493502348	 0.0225640196	 0.125013
H	-0.9177813758	 1.7717395536	-0.6998845102	 0.109038
H	-0.6997477835	 1.6666182552	 1.0599641826	 0.124
H	-0.8586357806	-0.6011647344	-0.0140989674	 0.062707
H	 0.6981782318	-1.4509875304	-1.5383473413	 0.111189
H	 0.3275082186	 0.1443065417	-2.1588161894	 0.098592
H	 2.6701427284	 0.7350034966	-1.9562437637	 0.086739
H	 4.2178420216	-0.4892907754	-0.5487118867	 0.085671
H	 2.8944534152	-2.8280037349	 0.0270895591	 0.091941
H	 2.9943579019	-2.5048446512	 2.4999615402	 0.10945
H	 3.1031777236	-0.6907866026	 2.2706162476	 0.12518
H	 0.7461040592	-2.4447037029	 1.2920765809	 0.078246
