18
gdb 45568	3.20709	1.45481	1.25557	5.0915	70.72	-0.2552	0.0578	0.313	1038.2917	0.151157	-439.163055	-439.15567	-439.154725	-439.195566	28.518	
O	-0.0213696559	-0.0669143321	 0.0656422828	-0.396173
C	-0.0479449514	 1.1323616821	 0.0407175728	 0.47332
N	-1.1388358341	 1.9565884797	-0.0551373992	-0.364465
C	-0.8348735125	 3.3632742252	 0.0721961435	-0.011384
C	-1.2248820997	 3.9989895489	 1.4294625032	-0.218688
C	 0.008453061	 3.7971828503	 2.3277981209	-0.217332
C	 1.1821048602	 4.0058772036	 1.3560885626	-0.220226
C	 0.7318376336	 3.312313389	 0.0657707281	 0.110597
O	 1.0723580657	 1.9167421945	 0.0973659554	-0.256465
H	-2.06174867	 1.5662281211	 0.0238958885	 0.260459
H	-1.2407427328	 3.9299129527	-0.7717215775	 0.089237
H	-1.4108376031	 5.0693983693	 1.2821741067	 0.103892
H	-2.141512385	 3.5619740333	 1.8357022212	 0.101149
H	 0.0305111834	 4.4801893284	 3.1803285751	 0.10368
H	 0.0288153284	 2.7767395196	 2.7253164025	 0.123101
H	 1.3215995891	 5.0751647374	 1.1560467215	 0.102676
H	 2.1344680316	 3.6033346701	 1.7078077415	 0.122576
H	 1.1786807116	 3.7407871268	-0.8345918797	 0.094045
