17
gdb 74524	4.22553	1.12004	1.02373	3.2715	69.96	-0.2281	0.049	0.2771	1172.3201	0.137421	-455.144056	-455.136025	-455.135081	-455.177504	29.842	
N	 0.0789927625	 1.3654165442	-0.1666560831	-0.578142
C	-0.0185356804	 0.0075594629	-0.084745488	 0.462397
N	-1.0707827011	-0.6699149027	 0.1755175242	-0.379075
C	-0.7005641837	-2.0701700583	 0.0614749476	 0.240718
C	-1.1694313094	-3.0071915045	 1.2035275071	-0.112453
O	-1.8978607805	-3.8467584442	 0.288298017	-0.273393
C	-1.6184959595	-2.9628534812	-0.8139615703	-0.112338
C	 0.8138881215	-2.046788916	-0.2734312778	-0.173932
O	 1.1401661459	-0.6459677202	-0.3640184427	-0.251992
H	 0.9980375629	 1.7507557618	-0.0181536042	 0.265964
H	-0.6791713835	 1.8675439396	 0.266794172	 0.272041
H	-0.3826400519	-3.5601836268	 1.7343514535	 0.090667
H	-1.823793098	-2.50906703	 1.9285280362	 0.108298
H	-2.5139836697	-2.4410977315	-1.1710602831	 0.109658
H	-1.1360703941	-3.48570041	-1.650747133	 0.091469
H	 1.4340785137	-2.4955900197	 0.5091369355	 0.118425
H	 1.0538634453	-2.5182012933	-1.2311718809	 0.12169
