16
gdb 9436	2.67642	1.75607	1.72642	2.5077	71.38	-0.2374	-0.0274	0.2099	894.1166	0.127688	-346.581645	-346.573217	-346.572273	-346.614656	30.821	
C	-0.2544511351	 1.6310325455	 0.1219074672	-0.442994
C	 0.0023475676	 0.1272636189	-0.0239785609	 0.011778
C	 0.8727214645	-0.3471828149	-1.2513785847	-0.26858
C	 1.8454784335	-1.110330227	-0.3056321816	-0.333218
C	 1.1647721559	-0.4199498709	 0.8794708146	 0.375947
O	 1.4451597808	-0.2396817636	 2.0246556439	-0.286136
C	-1.2055594546	-0.6611081206	 0.1493365311	 0.312193
C	-2.1943273778	-1.32931839	 0.3012002009	-0.478328
H	 0.6761111734	 2.193105672	-0.0033621527	 0.118425
H	-0.9737269362	 1.9734928359	-0.6274046703	 0.130348
H	-0.6565090761	 1.8493717592	 1.1143392826	 0.146291
H	 0.3436430394	-0.9529255976	-1.9855908626	 0.120892
H	 1.3467334276	 0.4995100928	-1.7523701984	 0.114776
H	 1.6700961303	-2.1906765622	-0.28702046	 0.145879
H	 2.9186794059	-0.9340688923	-0.4083684199	 0.132891
H	-3.0711057489	-1.9126113551	 0.4381210109	 0.199836
