22
gdb 118295	2.60894	0.79193	0.64307	4.0618	81.69	-0.2462	0.0372	0.2834	1782.7857	0.191971	-441.514681	-441.503602	-441.502658	-441.552627	38.359	
C	 0.0981854731	 1.3674037239	 0.23021412	-0.383829
C	-0.0199547449	-0.1325553823	 0.0160631088	-0.039904
O	 0.715527246	-0.4764355842	-1.144943644	-0.269304
C	 0.8254841046	-1.8725465013	-1.4108662904	 0.128608
C	-0.4645374732	-2.4627965812	-1.9810251466	-0.405682
C	 1.9887086261	-2.0141678023	-2.3933608541	-0.160881
N	 3.1996356154	-1.4192434818	-1.863966302	-0.2741
C	 4.3765554019	-2.0860051529	-1.756167948	 0.153448
O	 4.5790425358	-3.2231755069	-2.1300325986	-0.328651
H	 1.1435620777	 1.6576965792	 0.3710709482	 0.120289
H	-0.2941992534	 1.9100765766	-0.6344470848	 0.129523
H	-0.4674728177	 1.6711727631	 1.1160118908	 0.118965
H	 0.3741970262	-0.6818040901	 0.8870393769	 0.08992
H	-1.0776862154	-0.4153994305	-0.0932936577	 0.094304
H	 1.0915014959	-2.3937742817	-0.4764634058	 0.075564
H	-1.2935266055	-2.3777527097	-1.2736035894	 0.121307
H	-0.7457811236	-1.944506508	-2.9031646892	 0.126016
H	-0.3293965765	-3.5253728387	-2.2063804196	 0.125445
H	 2.2044971827	-3.0656915347	-2.5916130631	 0.14546
H	 1.7112678337	-1.5355331006	-3.3420308932	 0.111984
H	 3.1135252294	-0.4933958462	-1.475317201	 0.251288
H	 5.1581026216	-1.4599377397	-1.2807274771	 0.070227
