22
gdb 54263	2.76587	1.22808	1.11863	3.3444	80.89	-0.2377	0.0355	0.2732	1221.0854	0.194685	-404.406178	-404.396229	-404.395284	-404.44254	36.796	
C	 0.132210693	 1.4071629884	 0.1376859323	-0.426776
C	-0.0422307212	-0.1220693972	 0.0256043644	 0.181531
C	 0.7026585715	-0.6836248098	-1.2167831625	-0.241787
C	 2.1810688962	-0.8133171348	-0.7823620377	-0.209623
C	 2.161885113	-0.9117341602	 0.7711240054	-0.220336
C	 0.6751008055	-0.8470061517	 1.1841622576	-0.219741
C	-1.5393637402	-0.4626790563	 0.0078358151	 0.357448
N	-2.2265248368	-0.0166525759	-1.0900985711	-0.522007
O	-2.099265942	-1.060710887	 0.9070624438	-0.367475
H	 1.1916601361	 1.6751089281	 0.1958412315	 0.120084
H	-0.2971052308	 1.9299969769	-0.7224267999	 0.105755
H	-0.3588409514	 1.7876559473	 1.0387860191	 0.129532
H	 0.2944459317	-1.6700341825	-1.4650393135	 0.106303
H	 0.5864675096	-0.0549587496	-2.1067812755	 0.082337
H	 2.6539477923	-1.6825234783	-1.2472223201	 0.100467
H	 2.7554022758	 0.059653505	-1.1063958109	 0.100576
H	 2.6336198021	-1.8303919251	 1.1297901484	 0.099781
H	 2.726830688	-0.0845905882	 1.211635497	 0.098856
H	 0.5186767459	-0.3482375132	 2.1440420902	 0.09893
H	 0.2511963308	-1.8496636572	 1.2836877924	 0.114424
H	-1.7558885097	 0.3303882755	-1.9071857092	 0.254776
H	-3.1897027795	-0.2976734543	-1.1783260168	 0.256944
