15
gdb 123379	3.63775	1.04038	0.95588	1.1732	71.82	-0.2151	0.0032	0.2183	1231.1679	0.114181	-412.943474	-412.935269	-412.934324	-412.977497	29.726	
C	 0.3637717343	-0.1123811748	-1.2092887777	-0.453886
C	 0.140116332	 0.5667788236	-0.2433115062	 0.315187
C	-0.0932740201	 1.3997477388	 0.9420845132	-0.334135
N	 1.0183437553	 2.2638280242	 1.3262351754	-0.367791
C	 1.3922491607	 3.2866089323	 0.466751794	 0.375873
N	 2.6282540594	 3.7901367143	 0.4860800621	-0.308708
N	 2.5602773019	 4.778133617	-0.4105357562	-0.074618
N	 1.4011834776	 4.953455968	-1.013282518	-0.192858
C	 0.6261649604	 4.0103263326	-0.4740268223	-0.116626
H	 0.5569583247	-0.7094430463	-2.0661597171	 0.204094
H	-0.9795826037	 2.0259062315	 0.787009299	 0.149177
H	-0.325719086	 0.7608459264	 1.8006867907	 0.144207
H	 1.8218441403	 1.7548616801	 1.6701886271	 0.249729
H	 3.3593506849	 5.3533332991	-0.6170763764	 0.291023
H	-0.3997517817	 3.8935801631	-0.7805006477	 0.119332
