15
gdb 48688	5.61026	0.96328	0.89828	3.5107	74.29	-0.2617	-0.049	0.2126	1251.9068	0.109618	-420.553254	-420.544943	-420.543999	-420.586531	30.355	
O	-0.0636982861	 0.1251016439	-0.6829597018	-0.248018
C	 0.0602254624	 1.028926602	 0.1027937736	 0.053214
C	 1.2449228515	 1.9151511111	 0.1896768463	 0.317753
C	 1.6077846695	 2.9599120284	 1.254827328	-0.325243
C	 2.2135591795	 3.8658210367	 0.1090338527	-0.204195
C	 3.601444887	 4.2703947862	 0.1917653415	 0.332662
C	 4.7538033186	 4.6043417819	 0.2627505317	-0.447808
C	 1.8549854759	 2.7422292289	-0.8936379021	-0.022903
O	 2.4557778808	 1.541905115	-0.4711734398	-0.242461
H	-0.7394897602	 1.2892171296	 0.8323121071	 0.079342
H	 0.7427914106	 3.4249161978	 1.7320580944	 0.122381
H	 2.3144016618	 2.6133041843	 2.0094591481	 0.133932
H	 1.5677639925	 4.7340772998	-0.0561823622	 0.117798
H	 5.774010428	 4.8930289756	 0.3219703666	 0.203216
H	 1.5800019482	 2.8319239689	-1.9386411742	 0.130332
