16
gdb 18196	4.30183	1.73634	1.43235	1.8029	69.95	-0.2569	0.0375	0.2943	883.4673	0.130906	-346.555801	-346.548822	-346.547878	-346.586868	27.156	
C	 0.0256030519	-1.235401048	 0.0235576506	-0.440183
C	 0.0198572084	-0.0348117366	 0.0581614336	 0.323172
C	 0.0302440336	 1.4246299569	 0.0517112309	-0.066658
O	-0.5683249391	 1.9100531136	 1.2596848713	-0.26537
C	-0.0684889962	 3.2226383827	 1.5082019836	-0.091184
C	 1.3466566516	 3.2339654689	 0.9600205687	-0.05889
C	 2.1923196807	 2.0321701928	 1.2967167801	-0.286465
C	 1.4170886751	 2.0659592675	 0.0077010127	-0.049541
H	 0.0284632767	-2.2970911378	 0.0023776054	 0.197274
H	-0.5453468075	 1.777852457	-0.8212439768	 0.096795
H	-0.6793580116	 3.9839864206	 0.9965762652	 0.093665
H	-0.1399564697	 3.3902440029	 2.5878529055	 0.112405
H	 1.8132927884	 4.1848833779	 0.7319613624	 0.092075
H	 3.2683394081	 2.1440042499	 1.2293385056	 0.112945
H	 1.8501152364	 1.3633371881	 2.0800195491	 0.13207
H	 1.9270215031	 2.1161621736	-0.9460948478	 0.097891
