18
gdb 68377	2.76451	1.70326	1.26524	3.6485	71.46	-0.2266	0.0072	0.2339	1017.8069	0.148535	-439.094988	-439.087468	-439.086524	-439.126658	30.06	
C	-0.1189182333	 1.5198552246	-0.0490815913	-0.47282
C	 0.0969590225	 0.0276887032	-0.0521143576	 0.396004
C	 1.2682159275	-0.6552522401	-0.788201349	-0.221107
N	 1.20803261	-1.7679747424	 0.2325751816	-0.125729
C	 0.602594424	-0.7555195293	 1.1771071408	-0.221107
C	 0.1221064758	-2.6635673697	-0.1809019453	-0.315737
C	-1.1768263054	-1.9433537297	-0.5840881119	 0.39518
O	-2.1706760052	-2.5048584921	-0.9493252638	-0.328342
O	-1.1411745712	-0.5856801675	-0.5027457098	-0.263051
H	 0.7873483095	 2.0335019842	 0.283854215	 0.122123
H	-0.373240053	 1.8722233917	-1.0530325392	 0.137507
H	-0.9403005166	 1.7867867404	 0.6223653441	 0.137502
H	 1.111785206	-0.9545907375	-1.8282128155	 0.118508
H	 2.2115492798	-0.1113685687	-0.6926854003	 0.116882
H	 1.3933185782	-0.2346251801	 1.7232162148	 0.116883
H	-0.1429684714	-1.1436005852	 1.8765549053	 0.118509
H	 0.4434146137	-3.2722027099	-1.032378188	 0.144397
H	-0.119939901	-3.357063252	 0.63098766	 0.144398
