23
gdb 116361	2.99478	1.13889	0.87822	0.8175	88.06	-0.2314	0.0213	0.2527	1399.6788	0.20657	-388.303353	-388.294018	-388.293074	-388.337627	35.523	
C	-0.0035306551	 1.5755338999	 0.2110293821	-0.388249
C	-0.0028300942	 0.0674107927	-0.0469933459	-0.177181
C	-1.4065813676	-0.5452544655	-0.0524028478	 0.129976
C	-1.3693446528	-2.0392087799	-0.4079151837	-0.247943
C	-2.7003060219	-2.734943947	-0.567255742	-0.068851
C	-3.7898905476	-2.6130751869	 0.1924355775	-0.053956
C	-3.9695866388	-1.7384405529	 1.4090908723	-0.251431
C	-3.3689472072	-0.3338454959	 1.3182060595	-0.06823
O	-1.9583923635	-0.3119078122	 1.2377735955	-0.256592
H	 1.0161507984	 1.9718230595	 0.2354928947	 0.107393
H	-0.5501686917	 2.1110263038	-0.5737307907	 0.107294
H	-0.4832939902	 1.7990840291	 1.1667606603	 0.131917
H	 0.4750767974	-0.1502981978	-1.0095808369	 0.091262
H	 0.5906271804	-0.4425546213	 0.7223035819	 0.101828
H	-2.0245106154	-0.0216465527	-0.8026385123	 0.062001
H	-0.8028285489	-2.1476059067	-1.3401903995	 0.097207
H	-0.7781425261	-2.5519804484	 0.3657315378	 0.115022
H	-2.7469588242	-3.4492866565	-1.3870410553	 0.08331
H	-4.6449478318	-3.2364051848	-0.0616895281	 0.083485
H	-5.040350274	-1.6278583959	 1.6205625158	 0.097806
H	-3.5385858532	-2.2382294947	 2.2891633237	 0.117995
H	-3.8070950038	 0.2026197455	 0.461419394	 0.087542
H	-3.6233668983	 0.2222984385	 2.2276976571	 0.098395
