18
gdb 110137	1.99123	1.18403	0.8023	2.3861	70.92	-0.2655	-0.0149	0.2505	1401.668	0.145764	-476.199569	-476.189653	-476.188709	-476.235449	34.394	
O	 0.1054474824	 1.3565671568	 0.5512271994	-0.416529
C	 0.069210393	 0.1495566912	-0.1856358265	-0.071116
C	-1.2318599171	-0.5755105382	 0.0698060354	-0.052748
C	-1.4814940144	-2.058849072	-0.0482682151	-0.056808
C	-0.4480811588	-3.0833330851	-0.4610617739	-0.08503
O	-0.6796810684	-4.3275768824	 0.1758400419	-0.413344
N	-1.3018864796	-1.4217855574	 1.2484334344	-0.095869
C	-2.2355915994	-1.271504488	 2.2580010347	 0.135617
O	-2.5115334116	-0.212070289	 2.7661400046	-0.287034
H	-0.1660404537	 1.154774952	 1.455158737	 0.294998
H	 0.1461484141	 0.4289554288	-1.2419799418	 0.117043
H	 0.9219534111	-0.5010345508	 0.0558782521	 0.094195
H	-2.1046984068	 0.0579006556	-0.0871325777	 0.120167
H	-2.5032914323	-2.3422189449	-0.3017971053	 0.112627
H	-0.5288962773	-3.2710633088	-1.5366907662	 0.122909
H	 0.5636764985	-2.7080447273	-0.2589580206	 0.10176
H	-0.5373406484	-4.1958409314	 1.1196664332	 0.288762
H	-2.6477265613	-2.2389441689	 2.6038205643	 0.090399
