21
gdb 95818	3.06485	1.17129	0.8968	1.8659	80.7	-0.2415	0.0059	0.2474	1326.4364	0.182375	-424.224516	-424.215491	-424.214547	-424.2582	34.991	
C	 0.22697587	 1.618490898	-0.1002216307	-0.405607
C	-0.0066570434	 0.1130404966	-0.0334611427	 0.08457
O	 0.6463684201	-0.4491317419	-1.1692486129	-0.249559
C	 0.1807518535	-1.7200949475	-1.5790373315	-0.087298
C	 0.6239863788	-2.8894302369	-0.696603255	-0.188238
C	-0.0036183481	-2.8901607756	 0.7001666809	 0.077243
O	 0.2772101184	-4.1639375499	 1.2712040554	-0.439484
C	 0.4984273744	-1.7668537352	 1.5838720895	-0.115839
C	 0.4854005341	-0.471457649	 1.2795055164	-0.047658
H	 1.2982308577	 1.8351930646	-0.0413554997	 0.128733
H	-0.1555036026	 2.0219412829	-1.0404616794	 0.120512
H	-0.2747896309	 2.1223624344	 0.7315506548	 0.113629
H	-1.0905563961	-0.083178975	-0.1260548214	 0.071617
H	-0.9209360871	-1.7100576396	-1.6565506436	 0.082183
H	 0.5757478556	-1.8639548697	-2.5898116416	 0.10672
H	 0.3307631771	-3.8233579052	-1.1904595625	 0.104609
H	 1.7147206639	-2.8912680482	-0.6039233456	 0.112924
H	-1.0964241199	-2.7742349817	 0.5725543592	 0.073095
H	-0.1407366366	-4.2003953697	 2.1374534548	 0.280292
H	 0.9076543264	-2.0865366991	 2.5406431548	 0.088836
H	 0.8694445547	 0.2415043677	 2.0055624108	 0.088721
