20
gdb 52934	3.17537	1.00443	0.87807	1.227	91.54	-0.2112	0.038	0.2492	1427.2131	0.169641	-365.913849	-365.904513	-365.903569	-365.949652	34.35	
C	 0.0424930001	 1.4987806738	-1.1101211136	-0.517908
C	 0.0311433795	 0.0884208384	-0.7543587587	 0.3877
C	 0.0164103853	-1.0808875066	-0.4623065011	-0.411178
C	 0.0132148969	-2.4697542072	-0.1098069702	 0.293066
C	 0.6131813232	-3.154638569	 1.1650188937	-0.280087
C	 0.0975677043	-4.2776976401	 0.225714145	-0.049457
C	-1.1946476707	-3.4495911376	 0.0197391559	-0.243681
N	 0.6361579376	-3.558873989	-1.0000956945	-0.12699
C	 2.0768520556	-3.5248764002	-1.2267524285	-0.335036
H	 0.8430397575	 2.0363567033	-0.5899748617	 0.149663
H	 0.1962267866	 1.6329298709	-2.1865724535	 0.152816
H	-0.9062710782	 1.9806091143	-0.849000291	 0.151442
H	 1.6885796185	-3.0668962945	 1.3138491033	 0.105328
H	 0.0767207736	-2.9959657984	 2.1042514833	 0.097119
H	 0.1923151556	-5.3577412522	 0.3397274264	 0.081949
H	-1.8426851312	-3.3095377839	 0.8860220517	 0.094815
H	-1.7342510171	-3.6383328721	-0.9080066927	 0.108041
H	 2.3687068849	-4.4649274212	-1.7069003963	 0.119379
H	 2.292409453	-2.711836644	-1.9273085588	 0.127569
H	 2.7166132751	-3.3857405646	-0.3419827486	 0.095453
