21
gdb 91622	2.17938	1.90165	1.36713	1.6918	82.02	-0.2313	0.0202	0.2515	1055.5542	0.184016	-387.102447	-387.094314	-387.09337	-387.13466	32.54	
C	-0.2126332145	 1.5399816473	-0.0108173938	-0.41875
C	 0.0314909919	 0.0329556021	 0.0040703829	 0.050968
C	 0.9074946883	-0.5166277094	-1.1649822508	-0.242686
C	 1.986971239	-1.3197631941	-0.3703623114	 0.029037
O	 1.2089264503	-1.82217783	 0.7284995433	-0.251098
C	 0.8255206442	-0.5387604868	 1.2344925193	-0.052824
C	 2.1686861381	 0.1900278513	 1.3335588175	 0.360278
C	 2.4947834356	 1.2525282845	 2.3286130637	-0.512526
C	 2.8876424831	-0.3060647062	 0.3228738524	-0.206585
H	 0.7293865537	 2.0963036559	-0.0461509676	 0.1189
H	-0.7983551099	 1.829899347	-0.8893788388	 0.116223
H	-0.7693030996	 1.8669737187	 0.8751464418	 0.109526
H	-0.9328233269	-0.4841550288	-0.0045064299	 0.078427
H	 0.3346365216	-1.1803938665	-1.8171199736	 0.100965
H	 1.3462725259	 0.2744665859	-1.7790494458	 0.09501
H	 2.4681176557	-2.1366749747	-0.907274938	 0.075251
H	 0.246628037	-0.6408362486	 2.1537449371	 0.068877
H	 2.4235667731	 0.867733366	 3.3540577081	 0.129874
H	 3.5064158335	 1.6413119773	 2.1819543225	 0.126402
H	 1.7961234251	 2.0955803371	 2.2643252551	 0.130001
H	 3.8713164646	-0.0038511177	-0.012565364	 0.09473
