16
gdb 65904	2.6718	1.25684	1.16292	2.995	69.79	-0.2702	-0.0936	0.1765	1116.4092	0.122326	-437.87936	-437.870279	-437.869335	-437.914392	31.415	
C	-0.1721822557	 1.585462613	 0.1572724391	-0.485625
C	-0.0060063289	 0.0668119459	 0.0735246263	 0.148903
C	 1.0967097359	-0.4570496148	-0.8990042968	-0.112918
O	 1.7687467383	-1.1363936839	 0.1705756623	-0.264534
C	 0.8517348725	-0.6210978644	 1.1586259782	-0.122614
C	-1.3408139079	-0.6082460924	-0.15531091	 0.267337
O	-1.8731778495	-1.392658385	 0.5869849921	-0.271529
C	-1.9992824387	-0.2391481135	-1.4331169968	 0.234727
N	-2.4974433021	 0.0551199018	-2.4343921673	-0.304982
H	 0.8068425171	 2.0576849442	 0.2761814148	 0.14015
H	-0.6357284163	 1.988655422	-0.7485034639	 0.152358
H	-0.7937152945	 1.8670847309	 1.0134142367	 0.140969
H	 0.7711271247	-1.1418742464	-1.6916585179	 0.122177
H	 1.7055075223	 0.3403802887	-1.3438870353	 0.114237
H	 1.3402349882	 0.0739095644	 1.8520124525	 0.106004
H	 0.3514672046	-1.4157798305	 1.7187433659	 0.135339
