19
gdb 111995	2.89756	1.30633	1.16311	2.5332	75.23	-0.2383	-0.0088	0.2294	1131.7038	0.160752	-419.183194	-419.174918	-419.173974	-419.215978	31.705	
C	 0.0774157264	 1.5792500236	 0.4426534891	-0.423741
C	 0.1471449462	 0.103312322	 0.1282474156	 0.011275
C	 0.5639577211	-0.5213724689	-1.1572610499	-0.091111
C	 1.3991308345	 0.2139573968	-2.2070947477	 0.011157
C	 0.7746226408	 1.3824600408	-2.9779908551	-0.07087
O	 1.7094375426	 1.9304272763	-3.8830417662	-0.421451
N	 2.6024845884	 0.6724921311	-1.4752666483	-0.228194
C	 2.5335949971	 0.1860945789	-0.3015122791	 0.029167
N	 1.4396542166	-0.6554501069	 0.0456476635	-0.147875
H	 0.8652805556	 2.1585184125	-0.040397047	 0.141788
H	-0.8880688919	 1.9797714933	 0.1166108271	 0.131417
H	 0.1517461011	 1.7360662846	 1.5242322843	 0.127195
H	-0.5842416604	-0.4778878812	 0.6871391491	 0.105239
H	 0.0575079979	-1.4307106372	-1.4654134293	 0.103141
H	 1.7324531194	-0.5099749952	-2.9632497455	 0.103861
H	-0.0755523077	 1.0247085185	-3.5690171566	 0.107616
H	 0.3951926741	 2.1424132676	-2.2795187195	 0.088192
H	 2.5234477657	 2.0521858654	-3.37782788	 0.294527
H	 3.2927138327	 0.363882588	 0.4554240654	 0.128668
