21
gdb 99752	2.00893	1.35448	0.97701	3.1077	75.17	-0.2099	0.0316	0.2415	1288.5576	0.18092	-457.5549	-457.544076	-457.543132	-457.590861	39.194	
C	 0.833748181	-0.2047801759	 0.7512969819	-0.340682
N	-0.2819944674	 0.0770929874	-0.1474604653	-0.067588
C	 0.1585656389	 0.1875009296	-1.5350666473	-0.328618
C	-1.4567038457	-0.7799936294	 0.0530643757	-0.124034
C	-1.1931839755	-2.2896485691	 0.2227749991	-0.067051
O	-0.4647108227	-2.8460166723	-0.8643013143	-0.423761
C	-2.3457173565	-0.286372755	 1.2198804762	 0.395896
N	-2.1273221976	 1.0030244724	 1.5736071197	-0.517048
O	-3.1843322545	-1.0047116301	 1.7352506244	-0.378378
H	 1.5685114599	 0.6035089643	 0.672829539	 0.115584
H	 0.481726127	-0.237367411	 1.7866500596	 0.125629
H	 1.348561468	-1.1520925106	 0.5257220431	 0.125516
H	 0.5916008978	-0.7436049044	-1.9287379385	 0.120311
H	-0.6868169751	 0.4745715792	-2.1687850026	 0.112842
H	 0.91351397	 0.9781212367	-1.6099756645	 0.113599
H	-2.0835207156	-0.6569665891	-0.8417799534	 0.096324
H	-0.5835567513	-2.4693618523	 1.1128552776	 0.117358
H	-2.1518156465	-2.792013803	 0.3860364216	 0.122927
H	-1.0540194553	-2.8940675401	-1.6236047805	 0.282595
H	-1.4246368178	 1.5242088624	 1.0735892554	 0.260709
H	-2.6989329211	 1.4223711405	 2.2869052032	 0.257869
