18
gdb 15993	3.57137	1.62316	1.27604	2.0897	68.91	-0.2279	0.0717	0.2996	1002.0372	0.15221	-384.88853	-384.88032	-384.879375	-384.921584	29.843	
C	 0.1335749605	 1.4034950924	 0.0143840247	-0.238163
O	-0.3044015302	 0.1239678422	-0.3897804484	-0.238064
C	 0.5972186399	-0.5276976674	-1.23824351	-0.006921
C	 1.7875595729	-1.28830564	-0.5964240638	-0.106212
O	 1.3375818863	-2.5367321637	-1.171950194	-0.306127
C	 0.1474751938	-1.9165135253	-1.6631203019	 0.436825
C	-1.2054857616	-2.5243335903	-1.5127996659	-0.32175
C	-0.5619445904	-2.3838084862	-2.886985333	-0.343128
H	 1.0607253133	 1.3546001478	 0.6050480825	 0.109981
H	 0.3096393454	 2.0630662287	-0.8496433109	 0.107824
H	-0.6549140848	 1.8343531953	 0.6353970683	 0.132042
H	 0.8917927574	 0.1289828245	-2.0703663018	 0.074885
H	 2.7948581636	-1.0249336702	-0.9355086534	 0.103257
H	 1.7494501191	-1.302493978	 0.4998356719	 0.105817
H	-1.2504944289	-3.5193211751	-1.0834693841	 0.122972
H	-2.0262445389	-1.8670888678	-1.2481479452	 0.127789
H	-0.9533155127	-1.641757852	-3.5759491916	 0.114919
H	-0.1854211249	-3.2868257649	-3.3555429735	 0.124054
