23
gdb 103496	2.42904	1.49615	1.26115	1.0119	85.11	-0.2337	0.0786	0.3123	1158.7622	0.206227	-388.287007	-388.277714	-388.27677	-388.320582	35.683	
C	 0.1902195604	 1.11878376	-0.3573846043	-0.250231
O	-0.0125019629	-0.1813068927	 0.1631355369	-0.280994
C	-1.3326612181	-0.6522050916	 0.0766654717	 0.435237
C	-2.327851404	 0.1177279418	 0.9240832676	-0.461056
C	-1.8371935458	-1.2690364733	-1.2134673276	-0.115427
C	-0.8596530552	-1.6265600282	-2.32784634	-0.223693
C	 0.288828436	-2.4224898219	-1.6607085238	-0.206871
C	-0.308781505	-3.0171590183	-0.3624295694	-0.21449
C	-1.5040000008	-2.142534101	-0.0043006337	-0.117122
H	 1.2702924353	 1.2833466979	-0.3865930821	 0.123797
H	-0.2150061585	 1.2206973538	-1.373490912	 0.110613
H	-0.261704223	 1.8949304082	 0.2757970637	 0.10979
H	-2.469182327	 1.141659422	 0.5620091791	 0.11515
H	-3.3054152872	-0.3714993485	 0.9096653578	 0.118495
H	-1.9841940937	 0.1668887229	 1.9629082609	 0.121844
H	-2.8667453795	-1.0652236892	-1.4925539215	 0.072202
H	-1.3902256593	-2.2520963342	-3.0557819073	 0.096304
H	-0.4871694143	-0.7554991317	-2.8777250931	 0.093761
H	 0.6853749209	-3.1979042627	-2.3226932176	 0.085816
H	 1.1103589795	-1.7512293138	-1.410392847	 0.115056
H	-0.6692750077	-4.038760081	-0.5312224573	 0.093216
H	 0.4337085371	-3.0666687466	 0.4402299971	 0.103614
H	-2.2859889272	-2.582837932	 0.6067800319	 0.07499
