17
gdb 76054	2.67805	1.30371	1.119	2.5894	73.74	-0.2584	0.0023	0.2607	1134.4557	0.13502	-417.958808	-417.95012	-417.949176	-417.992463	31.192	
C	-0.2141485846	 1.4842851025	-0.0781213004	-0.334925
N	 0.0234250084	 0.0446908651	 0.0025729558	-0.13386
C	 1.3726619919	-0.4791414861	-0.2843016225	-0.246939
C	 2.4712431198	 0.4154938696	-0.5551519767	 0.301797
N	 3.348172196	 1.1389517711	-0.7709480489	-0.339984
C	 0.7890797188	-0.4771101575	 1.095932547	 0.279393
C	 1.3272449997	 0.2086522126	 2.3540125961	-0.149042
O	 0.9853549742	-0.9545123583	 3.1373534875	-0.270806
C	 0.4050907565	-1.6387218631	 2.0050955895	-0.141892
H	 0.6307833411	 2.0988920292	 0.2611138593	 0.134891
H	-0.437642784	 1.7461429145	-1.1153180723	 0.14351
H	-1.0896032677	 1.7195239175	 0.5331601578	 0.138054
H	 1.390323593	-1.3975137135	-0.8655254809	 0.140194
H	 2.4014597685	 0.4244420805	 2.3687406007	 0.131525
H	 0.7738127077	 1.1010811888	 2.6733579554	 0.113823
H	-0.6765145071	-1.7880595755	 2.1124025365	 0.1185
H	 0.8921594576	-2.6005538676	 1.8065284058	 0.11576
