17
gdb 9177	4.10014	1.18978	0.9329	2.3255	73.31	-0.2283	0.0105	0.2388	1244.0131	0.141038	-397.18187	-397.172536	-397.171592	-397.216982	31.858	
C	 1.0670774794	 1.715121635	 1.6893928271	-0.221693
O	 1.1303169545	 0.3092744303	 1.9355672822	-0.200022
C	 0.6061216466	-0.46840113	 0.9893732611	 0.51344
N	 0.0795818331	 0.0044135391	-0.0709687298	-0.591412
N	 0.708036056	-1.8258342268	 1.3058200851	-0.399657
C	 1.2456261625	-2.4911148331	 2.4024270698	 0.106072
N	 1.7913029133	-1.9628495973	 3.410010806	-0.181998
C	 2.2815412403	-2.8578698097	 4.4352812882	-0.310073
H	 0.0298614447	 2.0443673946	 1.587378016	 0.138141
H	 1.5363272578	 2.1789144526	 2.557468669	 0.1312
H	 1.6056586323	 1.9727815483	 0.7738654478	 0.138113
H	-0.2709808125	-0.7254567502	-0.6855899893	 0.207815
H	 0.3167140011	-2.4294381643	 0.602551806	 0.250731
H	 1.131258166	-3.5797017481	 2.2770140374	 0.076103
H	 2.1182218685	-3.9266854953	 4.2133246547	 0.090346
H	 3.356305757	-2.6981543668	 4.5818308037	 0.126446
H	 1.7946978794	-2.6274183883	 5.3902588451	 0.126447
