18
gdb 33775	3.5575	1.39255	1.1916	4.5212	80.86	-0.2549	-0.006	0.2489	1059.2679	0.150407	-364.828724	-364.821546	-364.820602	-364.86003	29.228	
N	-0.0414959882	-1.1634787133	-0.0390883215	-0.345785
C	-0.0391608244	-0.0072563196	-0.021744943	 0.1674
C	-0.0215661972	 1.443171979	 0.0161860167	 0.159215
C	-0.2291862557	 2.1636838842	 1.3951915118	-0.244037
C	 0.6809017092	 3.2865619498	 0.8196279752	-0.043548
C	 1.3623753418	 2.1818621138	-0.0380554002	-0.244036
C	-0.1380595909	 4.2306020962	-0.0778210661	-0.257231
C	-0.9905139679	 3.4294011222	-1.0345997212	-0.080389
C	-0.9462211859	 2.0989287462	-1.0022888199	-0.087875
H	-1.2585688571	 2.4054591821	 1.6660347972	 0.111777
H	 0.26066703	 1.6210216966	 2.2061970528	 0.118489
H	 1.3071929564	 3.8386701666	 1.5221011597	 0.074873
H	 2.1246388134	 1.642311728	 0.5276373805	 0.118489
H	 1.7360473538	 2.4396626899	-1.0307023802	 0.111777
H	-0.7716527694	 4.8853936687	 0.5363949764	 0.113854
H	 0.5305886363	 4.9002682117	-0.636310546	 0.113854
H	-1.6288061907	 3.95704426	-1.7367052935	 0.100376
H	-1.5322207334	 1.4684899679	-1.6610133185	 0.112797
