15
gdb 32383	6.31421	0.88967	0.78658	5.7847	79.87	-0.2044	-0.0343	0.1701	1383.4576	0.114568	-413.034668	-413.02636	-413.025415	-413.067811	30.061	
C	 0.1175163733	 1.3831537663	 0.1484764214	-0.329935
N	-0.1602348647	-0.0137995822	-0.1183487075	-0.382732
C	 0.5255571206	-0.6499179508	-1.1310246143	 0.337436
C	 1.2009696612	-0.0963803773	-2.2096269981	-0.177434
N	 1.6507401026	-1.1732280341	-2.9379269889	-0.286293
C	 1.2530174073	-2.3005151738	-2.2857541386	 0.258776
N	 0.570396671	-2.0130767431	-1.186756577	-0.361324
C	 1.5645232722	-3.5955158679	-2.7698640871	 0.23338
N	 1.8404822099	-4.6355891395	-3.1988074111	-0.340397
H	 1.1811692261	 1.5898620697	 0.3490624323	 0.113793
H	-0.1901797314	 1.9965596332	-0.7063042918	 0.131248
H	-0.469204159	 1.7062119013	 1.0106745864	 0.13326
H	-0.2702012291	-0.6015987796	 0.6946170704	 0.249434
H	 1.3877792184	 0.9176205964	-2.5153706551	 0.137852
H	 2.1841934014	-1.1401558386	-3.790893111	 0.282936
