20
gdb 70797	2.80026	1.71129	1.42652	1.5367	78.37	-0.2288	0.0769	0.3057	1011.4609	0.171645	-403.109798	-403.102033	-403.101088	-403.141373	31.825	
C	 0.0282620486	 1.4883822863	-0.0253254756	-0.502422
C	 0.0224093037	-0.0164349023	 0.0167971829	 0.292656
C	-1.3074281326	-0.8043277467	-0.1208036063	-0.255753
C	-0.7089653225	-2.0891308163	 0.4656667933	 0.009128
O	-0.3950155591	-1.661916612	 1.8249739959	-0.297025
C	 0.6404685344	-0.8935506057	 1.2133765139	 0.027281
C	 0.8364547417	-1.8772580053	 0.0477936782	 0.324391
C	 1.7709082528	-3.0506213845	-0.0146537318	-0.517374
N	 0.9558602212	-0.7559337555	-0.8900032646	-0.380371
H	 1.0442181199	 1.8766701873	 0.0913650827	 0.125466
H	-0.3663561213	 1.8610369958	-0.9779517696	 0.116175
H	-0.5959063971	 1.8973997858	 0.7759896553	 0.122808
H	-2.1286503147	-0.43920035	 0.5006724506	 0.10785
H	-1.6315319403	-0.8724870931	-1.1642046006	 0.087982
H	-1.2413370268	-3.038214744	 0.4139703959	 0.075027
H	 1.3981493444	-0.4812538876	 1.8777204897	 0.084626
H	 1.6498417394	-3.6756218318	 0.8756004553	 0.133464
H	 1.5678787638	-3.6743096311	-0.8932733712	 0.116443
H	 2.8108140595	-2.7158029312	-0.0707562514	 0.128917
H	 0.581558335	-0.9231489682	-1.8250520125	 0.200729
