20
gdb 120358	3.22596	1.01955	0.82755	3.0958	82.3	-0.2071	0.001	0.2081	1441.4977	0.170926	-403.203326	-403.194095	-403.19315	-403.238394	33.657	
C	 0.0081368181	 1.5834485677	 0.0513957758	-0.378788
C	 0.0884012995	 0.0554855373	 0.0798450168	-0.173099
C	 0.6235441686	-0.5191207099	-1.2383272631	-0.167753
N	 0.708692162	-1.9668262032	-1.2468936953	-0.077086
C	 1.6920605546	-2.7435063572	-0.6120944724	-0.01198
C	 1.4886566379	-4.0524056035	-0.7904454761	-0.157947
C	 0.2475673543	-4.2248790045	-1.6250100256	-0.391191
C	-0.2144319176	-2.7827993798	-1.885394911	 0.403584
O	-1.1763283626	-2.3972050344	-2.5137406581	-0.386348
H	 0.9931292871	 2.031772748	-0.1210818378	 0.11488
H	-0.6575122783	 1.9297832763	-0.7465606384	 0.124488
H	-0.3743278401	 1.9763307742	 0.9977720927	 0.118528
H	 0.7322360865	-0.2697566186	 0.9068560767	 0.097195
H	-0.9027019777	-0.3722806655	 0.2688660143	 0.117577
H	-0.0440414938	-0.2508852944	-2.0623435569	 0.14233
H	 1.6140430612	-0.1010524083	-1.4593184813	 0.105503
H	 2.4838796055	-2.2415735445	-0.0730510892	 0.123705
H	 2.1063201484	-4.850416227	-0.4091301397	 0.107032
H	 0.4228256425	-4.7300600732	-2.581971621	 0.144861
H	-0.5532441661	-4.7796292995	-1.1222470603	 0.14451
