16
gdb 8586	4.66387	1.85367	1.70672	2.7413	70.3	-0.2421	-0.0238	0.2184	798.1183	0.130991	-346.503169	-346.497016	-346.496072	-346.533244	25.102	
O	-0.1034172732	-0.0740530155	-0.2459810452	-0.276662
C	-0.0348847735	 1.0940937041	-0.0296550506	 0.338984
C	-1.123935362	 2.2165969695	 0.2627768692	-0.438246
C	 0.0642405037	 2.9899384902	 0.8621715263	 0.284038
C	 1.0996100992	 4.1609262703	 0.9211811383	-0.306212
C	 1.9037354781	 2.8277726331	 1.2422321852	-0.075228
C	 0.7293747475	 2.4326209899	 2.1636728827	-0.247105
C	 1.0991220432	 2.1808510443	 0.0606243211	-0.118956
H	-1.4906857716	 2.6249211661	-0.685229501	 0.132717
H	-1.9712173945	 1.946418692	 0.8975590876	 0.126549
H	 1.3323077146	 4.6556275966	-0.0250599731	 0.102387
H	 1.0125974513	 4.8784973262	 1.7421011023	 0.100551
H	 2.9726551975	 2.7600211248	 1.4552293497	 0.081218
H	 0.5832470565	 3.0242056499	 3.0710133369	 0.093879
H	 0.6063358805	 1.3642426704	 2.3627824811	 0.110862
H	 1.3310302027	 2.5533577582	-0.9445260706	 0.091223
