23
gdb 95211	2.08347	1.78532	1.26364	1.4126	84.4	-0.2396	0.0759	0.3155	1126.3526	0.207046	-388.284211	-388.27542	-388.274476	-388.31702	35.115	
C	-0.8466365148	 1.2304885902	-0.0453609563	-0.397965
C	-0.2595716907	-0.1837006609	 0.0862145148	-0.009045
C	 0.3091868838	-0.6649221697	-1.253852092	-0.079314
O	 1.4082672774	 0.1393918808	-1.6655056099	-0.25778
C	 2.50534056	 0.0746363456	-0.7989504451	 0.087433
C	 2.7211215116	 1.2399810458	 0.1312727746	-0.315418
C	 2.2490413211	-0.0944529264	 0.6757519874	-0.043781
C	 0.835802024	-0.3813929464	 1.1771814694	 0.002028
C	 0.5399959437	 0.329642451	 2.5030358701	-0.403057
H	-0.1102227618	 1.9487884044	-0.4119236818	 0.13197
H	-1.6738443728	 1.222892603	-0.763595659	 0.109659
H	-1.2418518762	 1.5974001691	 0.905261476	 0.112993
H	-1.0876451167	-0.8558449845	 0.3500997197	 0.069198
H	 0.6117010515	-1.7220653042	-1.1818523607	 0.082329
H	-0.4343649722	-0.5781524422	-2.0521743585	 0.100305
H	 3.3712038844	-0.4096657809	-1.247210093	 0.085237
H	 3.7378536892	 1.545360924	 0.3549229082	 0.107062
H	 2.0142567709	 2.0569629257	 0.0535409277	 0.121631
H	 3.0109255814	-0.648621796	 1.2181857381	 0.084726
H	 0.82634987	-1.4612937375	 1.384602347	 0.07315
H	 0.5959314923	 1.417271774	 2.3985583381	 0.121228
H	-0.4578493409	 0.0750785568	 2.8775746534	 0.108064
H	 1.2679600047	 0.0356117583	 3.2665992417	 0.109349
