14
gdb 13924	3.67548	1.83616	1.50515	1.8526	58.11	-0.2565	-0.0453	0.2112	838.7678	0.105936	-419.641382	-419.634338	-419.633394	-419.673191	25.097	
O	-0.1369301748	 0.0146249129	-0.2487159478	-0.267814
C	-0.0976250368	 1.189761939	-0.0551167976	 0.280987
C	-1.0854572402	 2.2950386743	 0.3403632598	-0.195809
O	 0.0012290848	 3.2485971777	 0.2778136589	-0.311353
C	 0.9834962663	 2.2718270836	-0.0944301522	 0.243317
C	 2.309734118	 2.1749489525	 0.6855591247	-0.124061
O	 3.0777784525	 2.2923266347	-0.526976722	-0.267608
C	 1.8933240451	 2.5183369155	-1.314315065	-0.124061
H	-1.8791133075	 2.5031251911	-0.3869989397	 0.139674
H	-1.5187323064	 2.2059526612	 1.3436497399	 0.139673
H	 2.4570908729	 3.0214679724	 1.3677964696	 0.121143
H	 2.4975686142	 1.2303526094	 1.2083419723	 0.122385
H	 1.8000949158	 1.8055163929	-2.1413827691	 0.122385
H	 1.8203705163	 3.5465312728	-1.6901478119	 0.121143
