21
gdb 106683	2.6651	1.25168	1.06721	1.7232	79.72	-0.2448	0.0762	0.321	1242.0548	0.180342	-424.187218	-424.177451	-424.176507	-424.221592	36.513	
C	-0.2861812414	 1.30114271	 0.0924997603	-0.257912
O	 0.2221922679	-0.0068271911	-0.1132409409	-0.28845
C	 0.8285365891	-0.5475261695	 1.000012332	 0.405272
C	 0.0429977501	-1.0906651592	 2.163368744	-0.392185
C	 0.9374579455	-2.022559042	 1.3637050501	 0.203388
C	 0.4344056065	-3.2639992665	 0.686583165	-0.492729
C	 2.3921034095	-1.7955680948	 1.8286220227	 0.116293
O	 3.3749880836	-2.5288073406	 1.1341498474	-0.435332
C	 2.2779835876	-0.2834456103	 1.4298571801	-0.345239
H	 0.5137056328	 2.013991209	 0.337625797	 0.11287
H	-0.7607673568	 1.6099163713	-0.8415758213	 0.127086
H	-1.0301988312	 1.3191626191	 0.9008222715	 0.112591
H	 0.2848048653	-0.8212855469	 3.190509167	 0.10009
H	-1.017103551	-1.2242578261	 1.9681707043	 0.114216
H	-0.5036728124	-3.0668766289	 0.1588340174	 0.125807
H	 1.1595164175	-3.6399095867	-0.0424186486	 0.112833
H	 0.2536466425	-4.0664359474	 1.4110246134	 0.122887
H	 2.5763162247	-1.9935327039	 2.8896194804	 0.083445
H	 3.2726988723	-2.3496667437	 0.1926223421	 0.279868
H	 2.9348352758	-0.0718820998	 0.5808885467	 0.101297
H	 2.4475780122	 0.4673194982	 2.2088767495	 0.093904
