21
gdb 97851	5.36557	0.63435	0.6037	0.1293	94.86	-0.234	0.0245	0.2585	1937.2705	0.182699	-349.948015	-349.938379	-349.937435	-349.985276	34.717	
C	 0.2103526975	 1.3746843865	 0.6126139854	-0.362456
C	-0.045228336	 0.2742077421	-0.4333710135	-0.313379
C	-1.3990243622	-0.2688846533	-0.3764191353	 0.07673
C	-2.5224202657	-0.7003922895	-0.3094980782	 0.046562
C	-3.8788086474	-1.2365311169	-0.243654151	-0.188332
C	-4.6081727474	-1.2993164846	-1.6233538464	-0.211723
C	-5.5039683874	-2.5599023089	-1.5571112797	-0.258075
C	-4.84898468	-3.3845437216	-0.473624206	-0.069451
C	-3.9703798794	-2.6803005538	 0.233998019	-0.055095
H	 1.2351140134	 1.7498673184	 0.5315857295	 0.111557
H	-0.4763925965	 2.2134178424	 0.4692869058	 0.126226
H	 0.0633018798	 0.9892923297	 1.6252835195	 0.126092
H	 0.1452662679	 0.674489211	-1.4377791268	 0.125606
H	 0.6802460983	-0.537833825	-0.2934801285	 0.125805
H	-4.4586120816	-0.604835477	 0.4484982908	 0.102275
H	-5.1616099263	-0.3827944809	-1.8397852288	 0.100819
H	-3.8540972493	-1.4236741058	-2.4050897633	 0.115545
H	-6.5390903031	-2.3125557501	-1.2808836336	 0.105622
H	-5.5608080369	-3.0819728748	-2.5187906314	 0.103939
H	-5.1117302618	-4.4200732597	-0.2863982169	 0.092902
H	-3.3946816861	-3.0360891383	 1.0800641097	 0.098831
