20
gdb 60575	3.61699	0.9474	0.85276	0.8699	75.71	-0.247	0.0755	0.3225	1413.6745	0.170095	-440.231677	-440.222282	-440.221338	-440.266642	34.588	
C	 0.152930124	 1.4891380094	-0.4227125651	-0.395379
C	 0.0075863739	 0.053055119	 0.0191051791	 0.001756
N	 1.2358223312	-0.7592900043	 0.1184014619	-0.349622
C	 0.4513517839	-0.4781213932	 1.3340401571	-0.042766
C	 1.1406935409	 0.3527824456	 2.4025998189	 0.091134
O	 0.1998349716	 0.9259347623	 3.2923282836	-0.440695
C	 2.1405661966	-0.5060135815	 3.1627411631	 0.064828
C	 2.5443405879	-0.1862402727	 4.5332125144	-0.188327
O	 1.5726007973	-1.2155503417	 4.2766082355	-0.257347
H	 1.079835342	 1.9311713451	-0.0513588327	 0.127665
H	 0.1738112984	 1.5503224718	-1.5159956449	 0.117874
H	-0.6877457696	 2.0918289002	-0.0637532338	 0.125801
H	-0.8667502834	-0.4478221917	-0.3961781829	 0.082839
H	 1.0710839818	-1.7086422965	-0.2036192174	 0.231829
H	-0.1419780652	-1.2930970285	 1.7499248024	 0.084574
H	 1.6822445571	 1.1767957638	 1.927498662	 0.097523
H	-0.0200606204	 0.2249452854	 3.9225677335	 0.289188
H	 2.8087731651	-1.0984311657	 2.5393992254	 0.110066
H	 3.5005863559	-0.5433414705	 4.9102197705	 0.120344
H	 2.1483268308	 0.7087794538	 5.0064958695	 0.128714
