16
gdb 16211	3.13853	2.24466	1.49821	0.9952	65.11	-0.2245	-0.0329	0.1915	841.6172	0.132854	-379.909517	-379.902518	-379.901574	-379.94087	26.435	
O	 0.081310359	 0.0636556778	-0.1455508092	-0.330477
C	 0.0120557971	 1.2495650118	 0.071077336	 0.331635
C	-1.2421605967	 2.11079411	 0.2554974712	-0.287198
N	-0.83415846	 3.4897082945	-0.0514897964	-0.300262
C	 0.5944509049	 3.5863720167	 0.3343887804	-0.271357
C	 1.1811863389	 2.1980558445	 0.1323199613	 0.235572
C	 2.4926785943	 1.6889904122	 0.6118827056	-0.275943
N	 2.2948508665	 1.9616396323	-0.8115973664	-0.345689
H	-2.0686011465	 1.768501208	-0.3704297297	 0.135821
H	-1.5676698226	 2.0365059405	 1.3038200075	 0.135102
H	-0.9007234383	 3.6234986685	-1.0559133171	 0.22842
H	 1.1068391234	 4.3448092563	-0.2599153695	 0.127889
H	 0.6550277028	 3.8801913317	 1.3902501386	 0.113564
H	 3.1604934397	 2.3765205933	 1.1245268071	 0.126222
H	 2.5327771911	 0.6540653634	 0.9418086965	 0.132826
H	 2.1148590165	 1.0752654385	-1.286176136	 0.243874
