21
gdb 104768	2.41274	1.08627	0.88735	3.1682	80.68	-0.2447	-0.0175	0.2272	1379.7661	0.17995	-424.222957	-424.212587	-424.211643	-424.25872	37.326	
C	-1.7581420114	-0.5988945576	-0.4702518829	-0.3905
C	-0.3192682396	-0.2080104123	-0.1120895356	-0.266136
C	 0.7240419833	-0.6054762205	-1.1502081126	 0.354446
C	 0.6486479436	 0.1611192076	-2.4572587005	-0.14277
O	 0.8623852343	 1.5368462345	-2.171794673	-0.419918
C	 2.0855328858	-1.0189873991	-0.6999350069	-0.341272
C	 1.1606584375	-2.0689399797	-1.3088585926	-0.152862
C	 0.617859958	-3.1408932479	-0.4465267416	 0.159071
O	 0.3633623529	-4.2573904615	-0.8303803446	-0.276472
H	-2.089468699	-0.1233473512	-1.3987665362	 0.119474
H	-1.8625734854	-1.6815837744	-0.5971332405	 0.127656
H	-2.4482741923	-0.2869340477	 0.3194473864	 0.117414
H	-0.2516434284	 0.8782367566	 0.0092876262	 0.124367
H	-0.0566222739	-0.6405855985	 0.8588124921	 0.096197
H	 1.41209393	-0.2231943557	-3.1515306035	 0.087091
H	-0.3322233831	 0.0031612979	-2.9303049037	 0.096905
H	 0.6517131429	 2.0444724453	-2.9608054594	 0.290583
H	 2.9500719886	-0.7266866049	-1.2854030715	 0.127556
H	 2.2689273009	-1.0868611906	 0.3680095336	 0.120975
H	 1.3776947593	-2.4065592171	-2.317479556	 0.099938
H	 0.4680449259	-2.858235613	 0.6203315727	 0.068256
