21
gdb 112848	2.98435	1.17848	0.95832	2.1805	78.58	-0.2424	0.0725	0.3149	1288.3792	0.182852	-424.209846	-424.200891	-424.199946	-424.243571	34.14	
C	 0.1013513387	 1.3189370885	 0.1342098682	-0.234053
O	-0.1437767194	-0.0483308912	-0.0946486025	-0.244119
C	 0.5607063173	-0.5813824151	-1.2003502447	 0.144104
C	 2.079657909	-0.7737709736	-0.9618363869	-0.314441
C	 2.4802964167	-1.9936668206	-1.823721716	 0.122748
O	 3.5509579129	-2.7568721235	-1.2841644284	-0.43585
C	 1.2231526082	-2.8375005847	-1.9132157992	-0.037903
C	 0.4753440722	-3.0962362077	-0.6319843952	-0.277812
C	 0.0436912191	-1.9688997924	-1.5336506343	-0.067056
H	 1.1444006883	 1.5162500852	 0.424694115	 0.103374
H	-0.1270586324	 1.928778659	-0.7551427923	 0.09975
H	-0.5518376237	 1.6335714238	 0.9520513905	 0.125646
H	 0.4037516019	 0.0771189735	-2.0721944217	 0.05967
H	 2.6682327744	 0.1162297448	-1.2006758645	 0.091212
H	 2.2499541055	-1.0117665406	 0.0928150464	 0.120393
H	 2.7398684513	-1.6556250633	-2.8399004207	 0.063381
H	 4.3444448826	-2.2125476743	-1.3058596857	 0.279604
H	 1.156030168	-3.5658420557	-2.712994526	 0.083656
H	-0.1632374664	-3.9719821598	-0.6109752585	 0.110323
H	 0.9455698266	-2.8713346048	 0.3179485483	 0.124248
H	-0.9075393007	-2.0456159772	-2.047297672	 0.083125
