18
gdb 1334	5.0985	1.62125	1.47044	2.4163	64.35	-0.2428	0.0719	0.3147	897.7886	0.159218	-326.954795	-326.946552	-326.945608	-326.987117	30.22	
C	 0.0566505324	 1.5117536475	-0.1460516475	-0.439315
C	-0.0151049705	 0.0190169818	 0.1088257402	 0.325822
C	-1.1774057562	-0.666661303	-0.5848879667	-0.457212
N	 1.287402344	-0.6813124973	 0.1203236102	-0.381627
C	 0.4912380452	-0.6010906674	 1.3675688028	-0.067831
C	 1.1767730965	 0.1240326111	 2.5037514988	-0.070266
O	 2.3211737326	-0.593600599	 2.936346726	-0.422161
H	 0.9695264819	 1.9478518099	 0.2610674183	 0.130401
H	 0.0489458468	 1.7081161388	-1.2242610401	 0.117044
H	-0.8053138076	 2.0265828547	 0.2927219302	 0.11539
H	-1.1018149438	-0.551371541	-1.6726285111	 0.121454
H	-1.2064700962	-1.7370171602	-0.3563697114	 0.112979
H	-2.1337311611	-0.2314364898	-0.2741889296	 0.124825
H	 1.1940893428	-1.6047957089	-0.2956388958	 0.226499
H	-0.0097441877	-1.5172299704	 1.6785986922	 0.082852
H	 1.4417558329	 1.1479288331	 2.2068860385	 0.087217
H	 0.5080223817	 0.192506865	 3.3685364515	 0.105224
H	 2.851213396	-0.7333884349	 2.1419917734	 0.288706
