16
gdb 14162	3.49621	2.34059	1.89832	1.9555	64.12	-0.2333	0.0042	0.2375	754.9353	0.129609	-383.688225	-383.681207	-383.680262	-383.718809	28.02	
C	-0.107335006	 1.5095082323	-0.044157988	-0.480111
C	-0.0411727846	-0.0103287243	-0.0273497697	 0.433683
O	-1.2880517943	-0.5806782838	-0.3123116656	-0.470967
C	 1.2689040824	-0.6274618113	-0.6890216029	-0.056284
O	 1.964967513	-0.2106271981	 0.5279618965	-0.285189
C	 0.7329368972	-0.6399515835	 1.1889588384	-0.031613
C	 0.6982321131	-2.1353209323	 0.8451372689	-0.071409
C	 1.066789251	-2.1244934359	-0.4377655308	-0.069228
H	 0.8589563606	 1.9458754164	 0.2073271586	 0.149242
H	-0.3983395019	 1.8676437486	-1.0404068318	 0.110219
H	-0.8574837138	 1.8626793796	 0.6717492483	 0.123271
H	-1.7901495505	 0.0398461292	-0.8488655444	 0.282151
H	 1.7180021858	-0.2686616597	-1.61514885	 0.072285
H	 0.6233647674	-0.3005193978	 2.2187728754	 0.075685
H	 0.4088078684	-2.947673127	 1.4941752548	 0.109905
H	 1.1662997225	-2.9273365023	-1.1524659676	 0.10836
