21
gdb 121458	3.83562	0.72634	0.65504	0.878	83.56	-0.2404	0.0231	0.2635	1795.2182	0.182265	-420.398456	-420.388239	-420.387295	-420.435458	35.922	
C	 0.3358842581	 1.6968199782	-0.4945754127	-0.380342
C	 0.806867941	 0.4797564038	-1.2936199613	-0.152601
C	 0.3090117273	-0.8417604177	-0.7013209768	-0.154175
N	 0.8439260473	-1.973001852	-1.4544676032	-0.338381
C	 0.0937116581	-2.9240317633	-1.7615119498	 0.428797
O	-1.2552096131	-3.1369423047	-1.503021812	-0.268706
C	-1.2786331569	-4.3141126794	-2.3652897861	-0.08204
C	 0.2491042682	-4.2044055598	-2.5823479859	-0.122347
N	 0.7288712106	-4.1711772055	-3.9465595437	-0.509353
H	-0.7579537967	 1.7519802701	-0.458592574	 0.11414
H	 0.6974107088	 1.6575440254	 0.5392431784	 0.113589
H	 0.7003958774	 2.6283242146	-0.9381536961	 0.11192
H	 0.4594601942	 0.5549563691	-2.3314911774	 0.093
H	 1.9016174642	 0.4513131515	-1.3372872626	 0.103904
H	 0.6663302461	-0.926031734	 0.3344856573	 0.105087
H	-0.7892679005	-0.8491179732	-0.6615586226	 0.106874
H	-1.6511358412	-5.1911495247	-1.8316033394	 0.121587
H	-1.8740799808	-4.1332054415	-3.2650603681	 0.11827
H	 0.801999783	-4.9721558341	-2.0337622597	 0.113374
H	 0.3852629656	-3.3378013164	-4.4166864994	 0.233375
H	 1.7415293292	-4.0973027463	-3.950585935	 0.244028
