16
gdb 17244	4.66889	1.71798	1.64225	1.0445	63.6	-0.2169	0.078	0.295	836.5918	0.129959	-383.649808	-383.64294	-383.641996	-383.680959	26.268	
C	 0.155741157	 1.2919601947	 0.1739023999	-0.258687
O	-0.1823516767	-0.0358604439	-0.2019733372	-0.279385
C	 0.5381952985	-0.5032768166	-1.2683307928	 0.3833
C	 0.3910885679	-0.1678176338	-2.7572836515	-0.308403
C	 1.2983861904	-1.4106478823	-2.9611130002	 0.06849
O	 2.5914988622	-0.9999514178	-2.426096387	-0.29248
C	 1.9758232327	-1.0661526134	-1.1403579711	 0.018305
C	 0.8493178858	-1.9599705775	-1.5548727656	-0.216416
H	 1.2201455627	 1.375659183	 0.4307941432	 0.115155
H	-0.0684535179	 2.0071612079	-0.6289977596	 0.118359
H	-0.4497266587	 1.5373185683	 1.0486727595	 0.130177
H	-0.6300566603	-0.3515447744	-3.1009585751	 0.109369
H	 0.7746271257	 0.7802154818	-3.1464720301	 0.101215
H	 1.3616608796	-1.9480710199	-3.9040692098	 0.092087
H	 2.5813105463	-1.0254701067	-0.2446290808	 0.111404
H	 0.4502126148	-2.8952658694	-1.1890462418	 0.107511
