15
gdb 124965	3.14373	1.2529	0.9522	3.79	72.55	-0.2613	-0.036	0.2253	1182.5037	0.110376	-416.761901	-416.753261	-416.752317	-416.79607	30.791	
C	-0.0951767432	 1.4214435225	-0.4470420573	-0.498872
C	-0.0891229763	-0.0233486997	-0.0997786019	 0.337112
C	-1.0562079359	-0.9832253743	-0.0097586514	 0.171608
C	-2.5456688335	-0.9505930894	-0.2167573346	-0.464897
C	-2.9797572924	-0.1770032252	-1.3772413118	 0.301188
C	-3.3478077833	 0.4633235994	-2.3250041074	-0.447246
N	-0.4222828713	-2.1441750141	 0.3724559632	-0.170894
N	 0.813467901	-1.9594418355	 0.5134077249	-0.017644
O	 1.0794683648	-0.5895687756	 0.2149984642	-0.208477
H	 0.6653314975	 1.6366797305	-1.2035124619	 0.15704
H	-1.0721378245	 1.7097635538	-0.8362138925	 0.161256
H	 0.1318063588	 2.0321185297	 0.433451295	 0.154076
H	-2.8820524779	-1.9886232605	-0.3173503817	 0.167418
H	-3.0446341481	-0.561551	 0.6816114617	 0.152904
H	-3.6769681557	 1.0157899584	-3.1703012086	 0.205428
