14
gdb 990	3.78434	3.15078	1.7422	1.8042	59.23	-0.1927	0.0345	0.2272	698.3486	0.114432	-324.601619	-324.594822	-324.593877	-324.632012	25.208	
C	-0.0604271338	 1.5194850461	 0.0226720921	-0.514505
C	-0.0154588896	 0.0245351927	 0.0082445744	 0.212244
C	-0.0097612388	-0.8089396163	-1.0663295495	-0.093473
O	 0.0184603257	-2.108159077	-0.6871854716	-0.150592
C	 0.0414949437	-2.1171778722	 0.6818378199	-0.079988
C	 0.0172746272	-0.8422329426	 1.161850404	 0.119153
N	-0.0598648625	-0.3986974009	 2.4916553996	-0.605112
H	 0.8390517	 1.9536655521	 0.4786879607	 0.119318
H	-0.1361527224	 1.9214818738	-0.9912505199	 0.127038
H	-0.9192234295	 1.8874769546	 0.5960691634	 0.135782
H	-0.0256307304	-0.626314977	-2.1289330932	 0.126917
H	 0.0603736671	-3.0869088679	 1.1497634147	 0.118084
H	 0.1930608131	-1.1154593837	 3.1597378107	 0.242142
H	 0.5095284403	 0.4217593783	 2.6596670647	 0.242991
