19
gdb 89195	2.54706	1.54476	1.19964	1.613	76.79	-0.2423	0.0259	0.2682	1103.5265	0.159746	-419.1919	-419.183193	-419.182248	-419.225069	33.205	
C	-0.8262818142	 1.2568130612	-0.0074514694	-0.409529
C	-0.0408672577	-0.0440270489	 0.056134254	 0.020566
C	 1.1212659773	-0.2809324909	-0.964140448	-0.299267
C	 2.1004241363	-0.6253403835	 0.2045753094	 0.207182
N	 2.7653730901	-1.889478352	 0.1168534141	-0.602441
C	 0.9614878192	-0.2411665906	 1.2109370849	 0.062962
O	 1.6922007624	 0.9860447992	 1.5389404252	-0.275658
C	 2.7733695451	 0.6209582605	 0.7544427297	 0.375508
N	 3.9066748433	 1.142956879	 0.627116864	-0.558192
H	-0.1591689455	 2.1189362229	 0.0767629317	 0.131968
H	-1.3706000395	 1.3354013369	-0.9543565433	 0.116515
H	-1.5576914262	 1.3178380468	 0.8056192504	 0.118323
H	-0.7229229697	-0.9006956799	 0.0381446938	 0.086125
H	 0.9583318748	-1.1353975793	-1.6242878312	 0.11379
H	 1.4157802302	 0.5836669063	-1.5628715519	 0.115661
H	 3.2025247082	-1.987626176	-0.7946230539	 0.24025
H	 3.5114591432	-1.952740818	 0.8035436654	 0.239441
H	 0.690644749	-0.7897988832	 2.1128403082	 0.089624
H	 4.0015862036	 1.9827336396	 1.2012568669	 0.227173
