18
gdb 62185	5.23995	0.62597	0.57717	3.8965	79.98	-0.2734	0.0049	0.2783	1841.1984	0.144377	-401.914465	-401.90414	-401.903196	-401.950902	35.722	
C	-0.0377636225	 1.5610615848	 0.0660783096	-0.387828
C	-0.0397595137	 0.0217644341	-0.0043907936	-0.169403
C	-1.4667054606	-0.5473934462	 0.002971539	-0.052856
O	-2.0802345866	-0.1705997256	 1.2248546522	-0.240235
C	-3.406897208	-0.6210047416	 1.3226482137	-0.185349
C	-3.9693592961	-0.1903141614	 2.6062191136	 0.264183
N	-4.4393787843	 0.1352016481	 3.6089948303	-0.289629
C	 0.6702461332	-0.4692083684	-1.1830782144	 0.307748
C	 1.2321456252	-0.8664000815	-2.1685622694	-0.46162
H	 0.985333762	 1.9408557996	 0.1153806855	 0.129334
H	-0.5153086158	 1.986263501	-0.8221106846	 0.123661
H	-0.5833888892	 1.8933104413	 0.9515199869	 0.139445
H	 0.4588878362	-0.3673772443	 0.8932905757	 0.123072
H	-2.0353105922	-0.150754057	-0.8533490813	 0.105509
H	-1.4383690836	-1.6433498279	-0.0900139873	 0.108836
H	-4.034205049	-0.2173097265	 0.5109420287	 0.142614
H	-3.4685312632	-1.7201271213	 1.2632217464	 0.14262
H	 1.7430032382	-1.2181046174	-3.030642591	 0.1999
