18
gdb 90987	2.75654	1.87631	1.37251	2.4127	70.55	-0.2292	0.0534	0.2827	960.1479	0.148321	-439.015315	-439.007791	-439.006847	-439.046844	30.267	
C	-0.0958713982	 1.5443146023	-0.0711775606	-0.397171
C	 0.0095592233	 0.0305853673	 0.0103556322	 0.064954
O	 0.8583598325	-0.495740869	-1.0318141594	-0.29292
C	 1.8562471383	-1.19229788	-0.3174764318	 0.152991
C	 1.257027801	-1.9590619495	 0.8874550906	-0.156422
N	 2.5467431001	-1.7434511037	 1.6376215106	-0.348519
C	 2.2759598485	-0.4212962412	 0.9632120211	-0.119413
C	 0.7425101069	-0.5118275327	 1.2420510071	 0.363412
O	 0.3022687708	-0.1770208571	 2.5162711655	-0.482654
H	 0.8914466974	 2.0075689327	 0.0151527719	 0.123774
H	-0.5359965498	 1.8475119296	-1.0250054683	 0.126526
H	-0.7260356113	 1.922343997	 0.7401516419	 0.118671
H	-0.9889431485	-0.4223396542	-0.0888194645	 0.071158
H	 2.5952501905	-1.6485645898	-0.9696423514	 0.106355
H	 0.7120747748	-2.9046840592	 0.8976125007	 0.076542
H	 2.3222906781	-1.6389660371	 2.6310151634	 0.218764
H	 2.9344608485	 0.4416364585	 1.0646324326	 0.084425
H	-0.5778140426	-0.5468215239	 2.6485072683	 0.289527
