22
gdb 93870	2.07951	1.54249	1.11106	3.9243	85.18	-0.3048	0.0313	0.3361	1218.0611	0.195088	-367.258738	-367.249199	-367.248255	-367.293033	35.684	
C	-0.2168689913	 1.5415034793	-0.0295038902	-0.425486
C	 0.0717540545	 0.0436085906	 0.0115819597	 0.034904
C	 0.867335826	-0.4987316991	-1.2009209141	-0.221102
C	 1.6379107633	-1.7484715978	-0.6928967144	-0.221052
C	 1.2704190718	-1.9068721594	 0.8025841653	 0.034875
C	 2.3290004534	-2.6039657305	 1.6523514654	-0.425476
C	 0.8877847666	-0.4626561882	 1.2351625628	-0.180909
C	 2.072009833	 0.3643579088	 1.4803013538	 0.292744
N	 3.0110791662	 1.0148339988	 1.6617236415	-0.348934
H	 0.711008085	 2.1219091658	-0.0452902912	 0.141613
H	-0.7890623288	 1.7965745581	-0.9272697864	 0.117891
H	-0.8009405951	 1.8630663348	 0.8392608912	 0.115625
H	-0.8829576983	-0.4946696483	 0.0676676798	 0.081369
H	 0.2008856802	-0.7243999336	-2.0378065275	 0.101923
H	 1.5680310646	 0.2651148625	-1.5532776776	 0.115119
H	 1.3932141028	-2.6537058956	-1.255146416	 0.101872
H	 2.7177602488	-1.5979283782	-0.7925075412	 0.115206
H	 0.3358633699	-2.4781740037	 0.8706382374	 0.081344
H	 3.2702251157	-2.0452659174	 1.6468412896	 0.141609
H	 2.0050939912	-2.708545307	 2.6932346233	 0.11562
H	 2.5308449225	-3.6077437517	 1.2648762118	 0.117895
H	 0.2874447681	-0.4599762682	 2.1513015169	 0.11335
