17
gdb 39797	3.46606	1.45857	1.18505	1.5969	73.58	-0.2416	0.0606	0.3022	1046.1689	0.136162	-417.852578	-417.845307	-417.844363	-417.884093	29.151	
C	-0.0182527907	 1.5253203369	-0.0126087573	-0.342367
N	 1.2723904982	 0.7690985632	 0.0326194317	-0.391883
C	 0.0161230435	 0.063822687	-0.0002304215	 0.470671
C	-0.54430321	-1.0344049163	 0.9206647858	-0.177473
O	-1.7419206453	-1.0637580141	 0.0388691528	-0.301816
C	-0.595633993	-1.0200501883	-0.9066939914	-0.192853
C	 0.1029567483	-2.0679279615	-0.0193644873	 0.493769
C	 1.3524383175	-2.8389220904	-0.0124796885	-0.334879
N	 0.0159407478	-3.4986844521	-0.0848266592	-0.398172
H	-0.2434512091	 2.0835239877	 0.8913672703	 0.128467
H	-0.2945930565	 2.0259253623	-0.9369671289	 0.120963
H	 1.7181445681	 0.7705855945	-0.8819153277	 0.235822
H	-0.6986908899	-1.0479667005	 1.999039444	 0.102108
H	-0.8109088978	-1.0249551043	-1.9745408954	 0.104236
H	 1.9537423592	-2.9413995931	-0.9115728543	 0.123447
H	 1.9140978182	-2.8915672618	 0.9168797918	 0.12201
H	-0.2447045386	-3.8988838091	 0.812926405	 0.237951
