23
gdb 119138	2.88888	0.92516	0.79517	1.3781	81.17	-0.2557	0.075	0.3307	1540.0333	0.203603	-425.404614	-425.39392	-425.392976	-425.440878	39.277	
C	 0.4158968682	 1.568450032	-0.1537065204	-0.390458
C	 0.0202543017	 0.0982798006	 0.0807238954	-0.021178
C	 0.19243329	-0.7009618769	-1.2174814186	-0.412018
C	 0.8010810229	-0.4790156764	 1.270364433	 0.38719
C	 0.4195187191	 0.1069836393	 2.625177767	-0.272212
C	 1.146114719	-0.474040438	 3.842552717	-0.082798
O	 0.8441726771	 0.2427283344	 5.030500385	-0.42077
C	 1.4426875758	-1.8048449192	 1.1957215519	-0.234207
O	 2.2174914155	-0.6104775657	 1.045075522	-0.276811
H	 1.4864247463	 1.6409301518	-0.3707900135	 0.132674
H	-0.1329678011	 1.9807287412	-1.0057977705	 0.111208
H	 0.2015882615	 2.2022787203	 0.7109248732	 0.113418
H	-1.0418414358	 0.0696007054	 0.3601793013	 0.0744
H	 1.2517410392	-0.7901305206	-1.4794007369	 0.133501
H	-0.2328475663	-1.705824877	-1.1423114899	 0.111991
H	-0.3138677454	-0.1908449156	-2.0424036574	 0.110833
H	 0.6210015307	 1.1861509779	 2.6006366036	 0.098094
H	-0.6623640253	 0.0016552111	 2.769379468	 0.110334
H	 0.8163480157	-1.4994505818	 4.0360256446	 0.110821
H	 2.2274323543	-0.5015093326	 3.6480906097	 0.110367
H	 1.2201123876	 1.124551641	 4.9441451745	 0.280732
H	 1.6365484525	-2.3705254339	 2.1047496284	 0.112315
H	 1.3502286666	-2.4125695874	 0.2998028524	 0.112573
