10
gdb 928	6.0484	2.89053	1.95584	2.3383	50.57	-0.2693	-0.0727	0.1966	583.7262	0.06869	-359.369049	-359.363934	-359.36299	-359.398	18.589	
O	-0.0562625854	-0.051541254	 0.0036083001	-0.321921
C	 0.0379043347	 1.1395703785	 0.0087741805	 0.434686
O	-1.1734352892	 1.8962846479	 0.0288512149	-0.200651
C	-1.1477755831	 3.2305569322	 0.0356926889	 0.160527
N	-0.1108797334	 3.9853638727	 0.0260551912	-0.278474
C	 1.100167151	 3.321587628	 0.0064757015	 0.02081
C	 1.217965123	 1.9738848338	-0.0023349944	-0.242982
H	-2.1499648929	 3.6503363192	 0.0512042156	 0.155526
H	 1.9779152128	 3.960779259	-0.0016855244	 0.135895
H	 2.1757969125	 1.4706191327	-0.0177030539	 0.136585
