19
gdb 57063	2.21842	1.3336	1.15359	3.5	75.02	-0.2528	0.019	0.2719	1178.0066	0.159184	-419.191135	-419.181578	-419.180634	-419.226323	34.211	
C	-0.5475793179	 1.3712575967	-0.1595689604	-0.428764
C	 0.0695042282	-0.0107349073	-0.0662783229	 0.146321
O	 1.3056070733	-0.1258829192	-0.8100667327	-0.286757
C	 1.9892552353	-0.7213601172	 0.3069459429	-0.092394
C	 0.7670655471	-0.513852376	 1.2303564231	-0.058392
C	 0.9196171396	 0.4171771661	 2.4434917791	-0.141629
N	 1.4619224988	-0.3480992103	 3.5742162167	-0.501608
C	 1.7263741734	 1.6248026357	 2.1577311237	 0.271481
N	 2.3944717794	 2.5560421494	 2.0009674925	-0.33936
H	 0.1388531411	 2.1512196695	 0.176433662	 0.15156
H	-0.8074521369	 1.5774287898	-1.2025554063	 0.134316
H	-1.4696518119	 1.4231718245	 0.4303538064	 0.114883
H	-0.6568168966	-0.7540192847	-0.4269163558	 0.078029
H	 2.2505376044	-1.7707798911	 0.1214445819	 0.102867
H	 2.8986245364	-0.1665240633	 0.569244334	 0.118007
H	 0.3387147265	-1.4363510876	 1.6259064468	 0.104989
H	-0.0804123156	 0.7610820965	 2.7349738151	 0.135898
H	 2.4020568059	-0.6657819009	 3.3512144109	 0.243601
H	 1.5543704594	 0.2542961593	 4.3874345929	 0.246951
