17
gdb 18071	4.94676	1.22414	1.17712	3.0024	68.75	-0.247	-0.0227	0.2243	1055.0094	0.141443	-363.815842	-363.808288	-363.807343	-363.848721	27.621	
O	-0.3893298705	 0.6010430513	 0.832689702	-0.239276
C	 0.0258355465	 1.2143352298	-0.1151953529	 0.159911
C	 1.4508329309	 1.7325391961	-0.2383337192	-0.235999
N	 1.481597631	 2.8841019131	-1.1216446442	-0.087611
C	 1.4399393555	 4.2539706216	-0.6461278666	-0.042339
C	 2.2449190783	 4.4705502372	 0.6489309952	-0.246025
C	 3.5040517959	 3.8806236666	-0.0628395693	-0.242882
C	 2.66056709	 3.6900979689	-1.3392778687	-0.037615
H	-0.6093720673	 1.4410928618	-0.999961311	 0.088452
H	 1.8525471422	 1.8815337283	 0.7724563718	 0.120869
H	 2.0403490377	 0.9301262998	-0.7054663296	 0.133455
H	 0.6581619003	 4.9022444024	-1.02672719	 0.096956
H	 2.3651426602	 5.5308563751	 0.8798005098	 0.112089
H	 1.8802750345	 3.9627000736	 1.5468221644	 0.109543
H	 4.2906337267	 4.6263882119	-0.1932445655	 0.110538
H	 3.9500049847	 2.9764865734	 0.3620283671	 0.104224
H	 3.0084246233	 3.8211828893	-2.358589083	 0.095711
