18
gdb 93305	2.10116	1.91694	1.26287	3.8945	73.49	-0.2496	0.0274	0.2769	1038.4518	0.148471	-439.089409	-439.081231	-439.080287	-439.122209	31.405	
O	-0.1501008599	 1.4959167508	 0.08889799	-0.427244
C	-0.0244287376	 0.0814252802	 0.033982865	-0.019615
C	 0.5366811364	-0.5143035691	 1.3392996434	-0.109777
O	-0.5918887493	-0.777283445	 2.1841242776	-0.247457
C	-1.732319762	-0.8658473776	 1.4334305101	 0.375146
N	-2.867223264	-1.1984477908	 1.8766949907	-0.567803
C	-1.4144148134	-0.5176993056	 0.0199091314	 0.276774
C	-2.5003855431	-0.0612236649	-0.9158506675	-0.29485
C	-1.9154267373	-1.4277213884	-1.0898417792	-0.313845
H	 0.7338151274	 1.8762313926	 0.1264023426	 0.284825
H	 0.5793595569	-0.2229890655	-0.831266397	 0.074376
H	 1.0729108613	-1.4531986885	 1.1506786145	 0.110905
H	 1.2003209583	 0.1780848333	 1.8643577007	 0.111011
H	-2.821895747	-1.4155407511	 2.8723960769	 0.221981
H	-3.4898962612	 0.0138617004	-0.4802874846	 0.146938
H	-2.2350395293	 0.7153935901	-1.6233529523	 0.126304
H	-1.2490363878	-1.6071924968	-1.9272526656	 0.114153
H	-2.5080841785	-2.278881954	-0.7751308368	 0.138177
