19
gdb 80046	2.82737	1.61258	1.3851	2.3557	81.76	-0.2233	-0.0043	0.219	1013.3324	0.160566	-382.014148	-382.006388	-382.005444	-382.046065	30.93	
C	-0.2013196302	 1.5060591377	-0.0760950778	-0.307124
N	 0.0528834225	 0.0786045006	 0.0404839793	-0.099289
C	 1.3798147945	-0.5192621058	-0.1809685227	-0.087033
C	 2.5881218345	 0.3604974466	-0.0962332595	-0.098493
C	 2.7095083522	 0.896792319	 1.1229697256	-0.173623
C	 1.6387148462	 0.4041242369	 2.0349889135	 0.341436
C	 1.8907249047	 0.1534339122	 3.4811921279	-0.29532
N	 1.0244997263	 1.2651152715	 3.0727474837	-0.35794
C	 0.7492828421	-0.4824723009	 1.1854627335	-0.11846
H	 0.6397464415	 2.1555091469	 0.2018170883	 0.102721
H	-0.4770068964	 1.7253838391	-1.112746948	 0.115444
H	-1.0500623883	 1.7551132688	 0.566802104	 0.131586
H	 1.3879780947	-1.3969305769	-0.8208041873	 0.090528
H	 3.2396234973	 0.555063627	-0.93965257	 0.102693
H	 3.4529105199	 1.6229182281	 1.4371492699	 0.097326
H	 1.3758018948	-0.6688097869	 3.9728892204	 0.122702
H	 2.8825996108	 0.3677515128	 3.8714320583	 0.112414
H	 1.5334103507	 2.1448991327	 3.1310474298	 0.231158
H	 0.2753021123	-1.3402425192	 1.654875271	 0.089274
