12
gdb 25363	5.43644	0.94672	0.80631	2.9842	68.23	-0.2721	-0.0935	0.1786	1282.8951	0.076962	-472.664437	-472.657014	-472.65607	-472.697075	25.611	
O	 0.0353979957	-0.0474314294	-0.0015655186	-0.24418
C	 0.0241981286	 1.1572169781	 0.0082556173	 0.085853
C	 1.237942965	 1.9942671344	 0.0020334224	 0.293481
N	 1.2830020295	 3.290167189	 0.0124946541	-0.298363
C	 2.6332973267	 3.5945545354	 0.0002990968	 0.136612
C	 3.1861006235	 4.9579351289	 0.0058351261	 0.080495
O	 2.5284223474	 5.9672691968	 0.0212964936	-0.243681
C	 3.3373435073	 2.4194041889	-0.017528832	-0.057806
O	 2.467427158	 1.3948981831	-0.0164147891	-0.140094
H	-0.9005635601	 1.7644383263	 0.0239718298	 0.125557
H	 4.2982372548	 4.9828020124	-0.0064929314	 0.080853
H	 4.3860460134	 2.1704425262	-0.0311888389	 0.181272
