21
gdb 83351	2.18147	2.01044	1.58602	1.3333	81.82	-0.2346	0.0139	0.2485	989.8954	0.183495	-387.100087	-387.092026	-387.091082	-387.131832	33.06	
C	-0.1194652042	 1.5339007278	 0.0067215863	-0.433536
C	 0.0271693539	 0.0161463965	-0.0161799072	-0.001905
C	 1.0998451985	-0.5950059126	-0.968676532	-0.115604
C	 2.3862057903	-0.04342831	-0.2807345925	-0.078618
O	 2.0681724287	-0.0710137575	 1.1116119459	-0.309068
C	 0.7110814148	-0.6262839564	 1.2193592945	 0.392055
C	 0.191130774	-0.3469185458	 2.6080273078	-0.496441
C	 0.8097155491	-2.0768696042	 0.7636537353	-0.111175
C	 1.0361213511	-2.0526584782	-0.5539737229	-0.096672
H	 0.7893065714	 2.0269572153	 0.3598556383	 0.134365
H	-0.3551386665	 1.9182429288	-0.991684495	 0.110593
H	-0.937678533	 1.8317546051	 0.6707361744	 0.116188
H	-0.9406347676	-0.4552806786	-0.2063616222	 0.073164
H	 1.0195925554	-0.3723926328	-2.0329636283	 0.063383
H	 3.2651410899	-0.6659107405	-0.4854650807	 0.095244
H	 2.6053034233	 0.9865290834	-0.5891108064	 0.094974
H	 0.1681379046	 0.7275218887	 2.8077636309	 0.125587
H	-0.8200939883	-0.7486057179	 2.7248169525	 0.11737
H	 0.8356143028	-0.815536198	 3.3579130282	 0.127319
H	 0.8047247644	-2.9326781616	 1.4274833111	 0.095892
H	 1.2555938175	-2.8903858016	-1.2043826783	 0.096883
