20
gdb 114806	2.62929	1.31515	1.17409	3.297	74.57	-0.2351	0.0643	0.2994	1158.2457	0.170988	-440.235602	-440.22679	-440.225845	-440.269169	33.495	
C	 0.0500306421	 1.6422321612	 0.1720189827	-0.480354
C	 0.0744035993	 0.1411209087	 0.0709467354	 0.420205
O	-1.2325037834	-0.4541660003	 0.2735766473	-0.327913
C	-0.7240250842	-1.3628764974	 1.2846321713	-0.072823
C	 0.7144684947	-0.8863189195	 1.0448899147	-0.105783
N	 1.3576163105	-1.5988446092	-0.0908765533	-0.350683
C	 0.8888105898	-0.5527130752	-1.0631825641	-0.03842
C	 0.1525236372	-1.1715236661	-2.2460171138	-0.067868
O	 0.9483987965	-2.1872791111	-2.8338278805	-0.427388
H	 1.0597064587	 2.0578294626	 0.0963654448	 0.119124
H	-0.5538635208	 2.0641747222	-0.6395129668	 0.134674
H	-0.392045107	 1.9606943292	 1.1204898822	 0.126059
H	-1.1383444026	-1.121413874	 2.2717625035	 0.100283
H	-0.9147452946	-2.4131346554	 1.0417509887	 0.108879
H	 1.3488913391	-0.6484012124	 1.8996151967	 0.079768
H	 2.3668881164	-1.6254710631	-0.0074863617	 0.226494
H	 1.709344715	 0.0834371574	-1.4179207568	 0.069328
H	-0.816291669	-1.5594444367	-1.9045784397	 0.102839
H	-0.0355702635	-0.4221686895	-3.0221652097	 0.10204
H	 1.1531417059	-2.7902296214	-2.1068750611	 0.281538
