15
gdb 1532	8.76725	1.20006	1.07673	0.36	54.18	-0.2683	0.0158	0.2841	1051.6852	0.12304	-382.818623	-382.810101	-382.809157	-382.852503	27.932	
C	-0.0588484739	 1.34352973	-0.0638487615	-0.239537
O	 0.0320087278	-0.0823959356	 0.043979956	-0.232605
C	 0.6791798227	-0.5388839038	 1.1347249466	 0.444106
O	 1.157325601	 0.1810338165	 1.9768483744	-0.359513
C	 0.7157403985	-2.0495488111	 1.1469745324	-0.310584
C	 1.4389174068	-2.6006256268	 2.3672432251	-0.068234
O	 1.4049277864	-4.015782281	 2.2634774401	-0.423304
H	 0.936900011	 1.792707142	-0.1008600082	 0.140193
H	-0.5996211589	 1.5371194942	-0.9902643135	 0.133353
H	-0.599296529	 1.7620305476	 0.7891045125	 0.140029
H	-0.3109082321	-2.4304566868	 1.1093541818	 0.141113
H	 1.1981720752	-2.4010785897	 0.2281845726	 0.141033
H	 2.4688671518	-2.2168967485	 2.3906040453	 0.102835
H	 0.9428581019	-2.2457256856	 3.2819251252	 0.102835
H	 1.8639926808	-4.3814119516	 3.0249400512	 0.288279
