18
gdb 68371	2.92102	1.62249	1.25266	5.3959	71.75	-0.2479	0.0541	0.302	1025.7837	0.148775	-439.126733	-439.118984	-439.11804	-439.158813	30.707	
C	-0.0818401927	 1.5342632187	 0.002628201	-0.503507
C	 0.0540861775	 0.0291841412	 0.0173053257	 0.332648
C	 1.0814761809	-0.7118576549	-0.8973107202	-0.275986
C	 1.009061189	-1.8275422206	 0.1740241268	 0.110335
C	 0.7177452417	-0.7200577074	 1.214596726	-0.268911
O	-0.1611410821	-2.6380988874	-0.030173028	-0.2603
C	-1.342400575	-1.9875154182	-0.271281123	 0.456736
O	-2.3496803626	-2.5984632122	-0.5165654206	-0.394237
N	-1.2410288528	-0.6218922729	-0.1886735828	-0.382954
H	 0.8895479929	 2.0061520875	 0.1710184451	 0.128375
H	-0.465531696	 1.8847577349	-0.9623888391	 0.12772
H	-0.7674314935	 1.8724552325	 0.7871999463	 0.132056
H	 0.7752278446	-0.9593215186	-1.9156619085	 0.114367
H	 2.0591330013	-0.2248880011	-0.8947919806	 0.109076
H	 1.8341730906	-2.5242750311	 0.3133164493	 0.094432
H	 1.6377246312	-0.2310981378	 1.5422159309	 0.108689
H	 0.0869460011	-0.9740841765	 2.0682640591	 0.116398
H	-2.0461022962	-0.0972128361	-0.4885516173	 0.255064
