15
gdb 35208	3.8952	1.14332	1.06598	3.4766	70.53	-0.2579	-0.0106	0.2473	1124.6763	0.11242	-416.738604	-416.731179	-416.730235	-416.770835	27.984	
N	-0.0827149179	-1.1472806085	 0.000629718	-0.323497
C	-0.0434643981	 0.0080452828	 0.0006065941	 0.308527
C	 0.0105219641	 1.4516594629	-0.0396476071	-0.229625
O	 0.5968728071	 2.1055421534	 1.0984156898	-0.261444
C	 1.3125406146	 2.148880557	-0.1145918745	 0.461537
C	 2.7579441854	 1.6668915407	-0.232866732	-0.263743
N	 3.1654113458	 2.9870870194	-0.8485029517	-0.117348
C	 2.3778641887	 3.1089427155	-2.0834883168	-0.238857
C	 1.7073952635	 3.4282396401	-0.8022474662	-0.140362
H	-0.8786695682	 1.9324724552	-0.4422812472	 0.144523
H	 3.2239310658	 1.5435177392	 0.7464311949	 0.145388
H	 2.9636902401	 0.7940389257	-0.8590086869	 0.130771
H	 2.6852431155	 3.9443681763	-2.7046466416	 0.13704
H	 2.1018118524	 2.2098539961	-2.6311669259	 0.123942
H	 1.4042339511	 4.4247468542	-0.5011678369	 0.123148
