18
gdb 36411	4.00115	1.07736	1.00709	3.6272	75.36	-0.2579	0.0314	0.2893	1204.8232	0.149614	-401.943357	-401.935887	-401.934943	-401.975871	29.08	
N	-0.3582166263	-0.2541675526	 1.3692055729	-0.309891
C	-0.0668343939	 0.2666510708	 0.3795763514	 0.255722
C	 0.3276519242	 0.9467749331	-0.8513455689	-0.370467
C	 1.6078902676	 1.777593764	-0.662261841	 0.137459
O	 2.001358866	 2.3464238283	-1.9283320503	-0.297682
C	 2.1115919488	 3.749249063	-1.603114972	 0.113724
C	 2.8457557853	 3.7393775708	-0.2408582309	-0.234926
C	 1.5068109942	 3.0543991618	 0.1894530709	-0.077776
C	 0.8136566773	 4.0338520477	-0.8142146987	-0.24039
H	 0.5043654337	 0.2018404259	-1.6345164261	 0.163509
H	-0.4967330668	 1.5794508165	-1.1930664509	 0.152706
H	 2.4000994104	 1.113602106	-0.2942853231	 0.096782
H	 2.4377125452	 4.3005623748	-2.4828073107	 0.087107
H	 3.7695631542	 3.159763591	-0.1746862465	 0.106239
H	 2.972203887	 4.7312065952	 0.1947752969	 0.108352
H	 1.2003746612	 2.9444322727	 1.2280543762	 0.098033
H	 0.7594934998	 5.0505671242	-0.4231013489	 0.11057
H	-0.1337683578	 3.7521410368	-1.27823966	 0.100928
