20
gdb 65964	2.22614	1.48749	1.30445	2.4577	79.19	-0.2465	-0.026	0.2205	1106.9942	0.169591	-403.122719	-403.113564	-403.11262	-403.156926	34.238	
C	-0.3806102818	 1.5479601299	 0.1256436584	-0.464811
C	 0.0220907927	 0.0877366022	-0.0040782181	 0.128338
C	 1.3129815572	-0.2590268533	-0.8261017558	-0.276211
C	 1.8152515907	-1.1845436704	 0.3179463458	-0.298714
C	 0.7194825726	-0.6026400397	 1.2096878426	 0.332249
C	 0.8323810304	-0.0460062442	 2.5749854815	-0.303636
N	 0.0947590163	-1.3014822041	 2.32828101	-0.366657
C	-1.1386938094	-0.7824275516	-0.437121563	 0.139546
O	-2.2926577661	-0.4340952564	-0.451184663	-0.266386
H	 0.460050793	 2.1507408166	 0.4798553026	 0.112907
H	-0.7097070802	 1.9454501618	-0.8396298888	 0.127483
H	-1.2171398187	 1.6663281372	 0.8203453153	 0.130322
H	 1.1503053923	-0.7284663084	-1.7995683007	 0.108172
H	 1.936048999	 0.6264333137	-0.9666897546	 0.113958
H	 1.6593386497	-2.2476313453	 0.1142505818	 0.117118
H	 2.8464886863	-1.0422778049	 0.6491855422	 0.109248
H	 1.7616802804	-0.1649330676	 3.1270119711	 0.121044
H	 0.2716046359	 0.8524804689	 2.8189602949	 0.118633
H	-0.9082792634	-1.1255793665	 2.3468479337	 0.23862
H	-0.8542714468	-1.8193592179	-0.7311297261	 0.078779
