20
gdb 12702	2.59084	2.09006	1.45686	2.4283	69.65	-0.2489	0.0501	0.299	941.6092	0.177905	-386.153949	-386.145613	-386.144669	-386.187186	32.158	
C	-0.0932199026	 1.5877943416	 0.2094244591	-0.384657
C	 0.193886922	 0.1012844151	 0.0054748825	 0.003192
C	 1.182568204	-0.2002815137	-1.1458453217	-0.232262
C	 1.8642387537	-1.5160527433	-0.7289729401	-0.246136
C	 2.0841786586	-1.3399549395	 0.7735843284	 0.097587
O	 3.2355380926	-0.5351020046	 1.0651433926	-0.44734
C	 0.7948083145	-0.6179028126	 1.2722218433	 0.112113
O	 1.0693503745	 0.2306388629	 2.3630205494	-0.433258
H	 0.8204853817	 2.1373145026	 0.4567140413	 0.104251
H	-0.5191866608	 2.0274502675	-0.6989025753	 0.102652
H	-0.7953985675	 1.7474597901	 1.0316135723	 0.125728
H	-0.7524068783	-0.4006295009	-0.231015056	 0.070775
H	 0.6946629955	-0.26389516	-2.1222898501	 0.101374
H	 1.9230479013	 0.6090891919	-1.2297728736	 0.083354
H	 1.1841247211	-2.359555566	-0.8973394183	 0.107959
H	 2.7957095568	-1.7337096219	-1.2599973419	 0.10355
H	 2.2582327947	-2.2795118993	 1.3034620392	 0.085719
H	 3.3327354304	 0.1214597778	 0.3666314635	 0.288179
H	 0.0788861234	-1.3710150089	 1.6228480656	 0.075035
H	 2.0260568646	 0.3815410413	 2.3330417797	 0.282186
