21
gdb 56002	4.13488	0.86449	0.77935	2.522	84.86	-0.2344	-0.0096	0.2248	1531.3561	0.181577	-387.130016	-387.120503	-387.119559	-387.165878	34.433	
C	-0.0612200149	 1.5524593984	-0.0747672209	-0.471465
C	 0.1265329789	 0.044573337	-0.0961088509	 0.379051
O	 1.2274292881	-0.4583899206	-0.1219271588	-0.294321
C	-1.1479516433	-0.7910531381	-0.078983762	-0.318914
C	-0.9220093554	-2.3056646047	-0.1350437564	 0.000668
C	-2.2310975327	-3.1235942267	 0.0433341176	-0.238336
C	-2.0909738025	-4.3551700171	-0.8865778226	-0.253931
C	-1.0240382479	-3.9185617521	-1.863102282	-0.070868
C	-0.390528059	-2.8200919679	-1.4575622126	-0.06297
H	 0.9105762839	 2.0469183343	-0.0527062599	 0.141911
H	-0.6179863597	 1.8771256766	-0.9612486421	 0.138756
H	-0.6512209032	 1.855118346	 0.7974336097	 0.136077
H	-1.7044553693	-0.520862781	 0.8305853306	 0.117147
H	-1.7867917719	-0.4634322221	-0.9116873909	 0.116584
H	-0.1990869235	-2.5539648814	 0.6543047554	 0.091741
H	-2.4187766528	-3.3936655926	 1.0860685539	 0.095234
H	-3.0808420789	-2.5162506583	-0.2897650958	 0.096082
H	-1.7653208222	-5.2480917721	-0.334060328	 0.105521
H	-3.0362021246	-4.6253616511	-1.3711481876	 0.099562
H	-0.7878238341	-4.4814678067	-2.7598569762	 0.088388
H	 0.4453746051	-2.3476159199	-1.9588472706	 0.104082
