19
gdb 15887	2.64575	1.85175	1.20669	2.6842	72.72	-0.2584	0.0304	0.2888	1047.1548	0.165112	-365.076919	-365.068314	-365.06737	-365.110078	31.549	
C	-0.0945044906	 1.6867155542	 0.0790239768	-0.388283
C	-0.0098174364	 0.1751265533	-0.1604466269	-0.196808
C	-1.3801164431	-0.496298855	-0.0633629709	-0.140575
C	-1.5141448251	-2.0456012272	-0.1346192694	 0.116424
C	-0.2794336595	-2.9160532536	-0.2131762104	-0.402731
O	-2.0968996376	-2.0460611401	 1.2175693005	-0.270259
C	-1.9703325124	-0.6788352415	 1.3220081346	 0.439902
N	-2.2488619607	 0.0936203533	 2.2720276356	-0.548169
H	 0.89823393	 2.1445946408	 0.0363497464	 0.109975
H	-0.7197328194	 2.1706085423	-0.6795997061	 0.112108
H	-0.5333886834	 1.8964902489	 1.058127238	 0.158084
H	 0.414382426	-0.0256201024	-1.1524517096	 0.097975
H	 0.675008358	-0.2714902918	 0.5687776909	 0.105364
H	-2.0833097333	 0.0053421122	-0.7362990405	 0.102068
H	-2.2732542523	-2.3837169981	-0.8471884556	 0.091957
H	 0.4718282584	-2.6158731713	 0.5214500082	 0.130731
H	-0.5449046288	-3.9603066049	-0.0234214799	 0.132292
H	 0.1651690293	-2.8552427113	-1.212023877	 0.12514
H	-2.6265981494	-0.4214792377	 3.0695214252	 0.224805
