17
gdb 7414	3.30187	1.69244	1.17115	5.7983	66.67	-0.234	-0.0165	0.2175	1027.4666	0.139329	-401.050038	-401.040709	-401.039764	-401.084745	32.315	
C	 0.0769420459	 1.4045456155	-0.0285787665	-0.348163
N	 0.08285068	-0.0594640204	-0.0029848484	-0.166277
C	 0.18028958	-0.7418571583	 1.2404516452	 0.401429
C	-0.1314276795	 0.0799638989	 2.4863716118	-0.501909
O	 0.4909672853	-1.9012776335	 1.3229577347	-0.289465
C	-0.1112288299	-0.782445779	-1.2079781456	 0.404954
C	-0.0571286946	 0.0339517101	-2.4934328244	-0.505852
O	-0.3256750046	-1.9672985939	-1.233721588	-0.29487
H	 0.5377271621	 1.7954701316	 0.8759559073	 0.144478
H	 0.665439242	 1.7732285039	-0.8687264247	 0.144136
H	-0.9357111488	 1.8193373856	-0.1067124495	 0.134481
H	-1.0079065963	 0.7222467982	 2.3657049121	 0.135022
H	-0.3006574065	-0.6295513976	 3.2959769822	 0.156301
H	 0.7165062324	 0.7145552852	 2.7658760532	 0.148124
H	 0.9253711645	 0.4949909864	-2.6383845971	 0.144712
H	-0.2503537256	-0.6568932466	-3.3130183292	 0.153934
H	-0.8050343263	 0.8323353838	-2.5126573431	 0.138966
