16
gdb 28006	3.58818	1.11199	0.85342	4.392	77.71	-0.2112	-0.028	0.1832	1288.9485	0.12366	-437.943525	-437.934826	-437.933882	-437.976911	31.673	
C	 0.0046936454	 1.5052152649	 0.0639882309	-0.528127
C	 0.0248675319	 0.0096528314	 0.0205555648	 0.142077
C	-0.0281153127	-0.8032689097	-1.0737167826	-0.162964
N	 0.0172919057	-2.1251063162	-0.6508629333	-0.039377
C	-0.0161149532	-3.2261076574	-1.489918962	 0.179747
O	 0.0236623332	-4.3700685553	-1.1157461916	-0.300609
C	 0.100989269	-2.1613120755	 0.7401968387	-0.177603
C	 0.106789546	-0.8657653613	 1.1677397299	 0.236416
O	 0.1785464988	-0.4793528286	 2.4678504584	-0.435563
H	 0.9123411082	 1.9140280634	 0.5268773478	 0.131842
H	-0.0630954611	 1.926109256	-0.9422024384	 0.137543
H	-0.8520499307	 1.8870525002	 0.634434367	 0.131795
H	-0.094501559	-0.5665149889	-2.1239090973	 0.138238
H	-0.0841513807	-2.9224998786	-2.5507692087	 0.090587
H	 0.1465355024	-3.099002203	 1.2634740545	 0.155117
H	 0.166664017	 0.4817033588	 2.5091435719	 0.30088
