11
gdb 21468	8.24274	1.23808	1.08359	1.2604	56.19	-0.2631	-0.057	0.2061	983.4157	0.071752	-430.676628	-430.669994	-430.66905	-430.708584	22.729	
N	-0.0797015005	 1.2829395398	 0.1708656935	-0.419831
C	-0.0175686738	 0.044391351	-0.022444546	 0.109945
O	-1.1380708864	-0.7034263203	 0.2483013057	-0.21718
C	-1.067329658	-2.0415361344	 0.1173446584	 0.350675
C	-2.091505791	-2.9161854912	-0.065680142	-0.059391
O	-1.5684629712	-4.1447974484	-0.0904503033	-0.149526
N	-0.1751130639	-4.0075116134	 0.0742756627	 0.007785
N	 0.0863689147	-2.7756912438	 0.1997057536	-0.196418
H	 0.8053338612	 1.720522737	-0.0776652024	 0.24513
H	 0.8202830673	-0.5528758998	-0.3868020949	 0.143615
H	-3.1558727884	-2.8096826566	-0.1787387452	 0.185194
