17
gdb 78442	3.08969	1.56551	1.32494	4.7182	72.73	-0.2397	-0.001	0.2387	1001.9685	0.136636	-417.938472	-417.931248	-417.930303	-417.969861	28.903	
C	-0.1773915054	 1.3409043759	-0.060148847	-0.327377
N	 0.0398902849	-0.0986150929	 0.0272624006	-0.091295
C	 1.4260651648	-0.5503195406	-0.184407958	-0.033434
C	 0.8284568801	-0.5574356327	 1.1839680878	-0.033434
C	 0.720575912	-2.0776009814	 1.4357786562	-0.175845
N	 2.0003271233	-2.6443843938	 0.8702087393	-0.315953
C	 1.5432598047	-2.0678058945	-0.4479426245	-0.175845
C	 0.1530750858	-2.5512115327	 0.0639368479	 0.497406
O	-0.7634604139	-3.1842727541	-0.339637167	-0.310622
H	 0.6697711466	 1.9402763159	 0.3129910117	 0.101381
H	-0.3566936754	 1.6113714741	-1.1049096869	 0.133929
H	-1.066696838	 1.6029128414	 0.5206388973	 0.133929
H	 2.1787455607	 0.1585891589	-0.5135961534	 0.098759
H	 1.0958403741	 0.1456945071	 1.9659899556	 0.098759
H	 0.3835931351	-2.4458172747	 2.4025087124	 0.090606
H	 2.8227779644	-2.158943148	 1.2319250809	 0.218431
H	 2.0247661863	-2.426279678	-1.3553322428	 0.090606
