19
gdb 92889	1.98747	1.74823	1.3418	1.3323	76.91	-0.2343	-0.0242	0.2102	1068.4263	0.159274	-423.055289	-423.046467	-423.045523	-423.088799	33.304	
C	-0.2034397444	 1.5207676033	-0.0088629923	-0.404591
C	 0.0451796475	-0.0070408395	-0.0221375374	-0.114694
C	 0.7719534705	-0.4437171069	-1.269164527	-0.049011
C	 1.9609641429	-1.0409760535	-1.2788284161	-0.0635
C	 2.7414818772	-1.3690602978	-0.0334039217	-0.277265
C	 2.2936035191	-0.5464555388	 1.1743277258	 0.022007
O	 2.826770829	 0.7719062082	 1.0124837721	-0.427626
C	 0.7660433625	-0.4374172867	 1.2541762651	 0.35451
O	 0.1743710044	-0.6308333916	 2.2918631564	-0.329317
H	 0.7458768697	 2.0602995665	-0.0310033221	 0.137321
H	-0.7897345028	 1.8140973701	-0.8852872	 0.117872
H	-0.7598394224	 1.8076673384	 0.8880699857	 0.128575
H	-0.9374114878	-0.4954966531	 0.0197408977	 0.105179
H	 0.2618553732	-0.237828982	-2.207934985	 0.089417
H	 2.4092398272	-1.3308487992	-2.2255167878	 0.09138
H	 2.6445660135	-2.4380554617	 0.2023096966	 0.120585
H	 3.8114935849	-1.18551453	-0.1861092211	 0.121913
H	 2.6489712284	-0.9994207534	 2.1083460847	 0.083239
H	 2.6348753574	 1.2644739277	 1.8180080263	 0.294006
