19
gdb 80331	2.12153	1.46294	1.30437	0.9388	81.35	-0.2421	0.046	0.2882	1115.8365	0.157242	-385.824342	-385.815175	-385.81423	-385.857662	35.314	
C	-0.1262508397	 1.4773683477	-0.1905955551	-0.422262
C	 0.0564657709	-0.0088187213	 0.0366923309	-0.070376
C	 1.3348060193	-0.797587191	-0.1820632207	-0.135719
C	 2.5624586653	-0.010723107	 0.2888866141	-0.256117
C	 1.9663455001	 0.0197224539	 1.7472716188	-0.226653
C	 1.844910087	 1.2725310704	 2.4708351521	 0.309864
C	 1.749376116	 2.305277852	 3.081397406	-0.467436
C	 0.7069863544	-0.6966267281	 1.2053191389	 0.361266
O	 0.0805373993	-1.7003217279	 1.9213630819	-0.458958
H	 0.7201814749	 2.0660578496	 0.1670461931	 0.135057
H	-0.2593455029	 1.6870112196	-1.2579614941	 0.113643
H	-1.0159776585	 1.8437876609	 0.3330035661	 0.115171
H	-0.7994033788	-0.6018105323	-0.2848237272	 0.090149
H	 1.3640586228	-1.6492955809	-0.8503526103	 0.093856
H	 3.4935255702	-0.5778257629	 0.2417128732	 0.111537
H	 2.7209676402	 0.965569203	-0.1748815569	 0.108891
H	 2.5120149468	-0.7025974044	 2.3627216058	 0.115282
H	 1.6631432276	 3.2182107754	 3.6167260496	 0.193499
H	-0.6657551247	-1.3157920669	 2.394411864	 0.289306
