16
gdb 49516	3.63979	1.31644	1.1883	4.2835	68.02	-0.2392	-0.0236	0.2155	1037.3697	0.12547	-437.816915	-437.810077	-437.809133	-437.848608	26.792	
O	 0.0004173988	-0.0481624101	-0.3722054246	-0.261513
C	 0.0273188245	 1.1281927499	-0.1059076149	 0.136409
C	 1.3081273235	 1.9207876379	-0.0603467387	-0.061851
C	 1.2336535183	 3.3148744595	-0.7615972773	-0.081352
N	 0.4642525843	 3.7726721625	 0.4522707591	-0.312981
C	 1.4384643406	 2.873163245	 1.1711399042	-0.081358
C	 2.8040903978	 3.5728887831	 0.9123880508	 0.030292
O	 3.6474883438	 2.9558092193	-0.0717079769	-0.23524
C	 2.6538720129	 3.8968274307	-0.5051586548	 0.030284
H	-0.8956448591	 1.6964660961	 0.1219265713	 0.102463
H	 2.156612852	 1.2851754766	-0.2955303515	 0.119694
H	 0.7767153099	 3.4638767728	-1.7395408624	 0.087094
H	 0.611731256	 4.7622162332	 0.6628010726	 0.211599
H	 1.1928769111	 2.5664217856	 2.1874941548	 0.087082
H	 3.2971076032	 4.1822505935	 1.6624571918	 0.114686
H	 3.0148249423	 4.7911312346	-1.0020668436	 0.114692
