19
gdb 51923	8.92644	0.44517	0.44395	3.0003	88.93	-0.2367	-0.0255	0.2112	2420.9283	0.156964	-385.860806	-385.85072	-385.849776	-385.899207	34.453	
O	-0.7352605196	 0.8707203713	 0.8031501592	-0.232647
C	-0.0084962539	 1.0704364896	-0.1347271872	 0.155946
C	 1.2687455714	 1.8779577681	-0.0882004735	-0.258699
C	 1.3056876215	 2.956648648	-1.1973685486	-0.36497
C	 2.5766247029	 3.6683466681	-1.2404933091	 0.01399
C	 3.6375828186	 4.2409011765	-1.2525364978	 0.138255
C	 4.8975418698	 4.9267912225	-1.2681855225	-0.155811
C	 5.7500558712	 4.9419538658	-2.5276603944	-0.252383
C	 5.068692596	 6.2010535208	-2.0805516967	-0.251398
H	-0.2447299432	 0.6477848289	-1.1411276442	 0.070247
H	 1.377875573	 2.3220138046	 0.9038060597	 0.13388
H	 2.1073136665	 1.1864935481	-0.2467986364	 0.133283
H	 1.1130567882	 2.4802125791	-2.1684693711	 0.130926
H	 0.4817670973	 3.6644072455	-1.0378138893	 0.139547
H	 5.4464006199	 4.8919450561	-0.3313713391	 0.110148
H	 6.8235844574	 4.8585621158	-2.4013223271	 0.118814
H	 5.3538234565	 4.4287209703	-3.3955694523	 0.125387
H	 4.2093744347	 6.5438156925	-2.64422577	 0.126324
H	 5.6695544017	 6.9905793584	-1.6435739495	 0.119163
