22
gdb 101320	2.41787	1.05112	1.00578	3.5046	79.15	-0.2337	0.0614	0.295	1351.6613	0.193012	-441.442282	-441.43209	-441.431146	-441.477441	37.798	
C	 0.0144508198	-1.7317441626	-1.1818471569	-0.382538
C	-0.770466521	-1.5905649251	 0.1234943598	 0.012286
C	-1.5777923219	-2.8610653814	 0.4341749662	-0.052789
O	-0.7357999016	-3.9796658593	 0.6293735411	-0.425025
N	 0.176528037	-1.4293247295	 1.2426618879	-0.100356
C	 0.8956855406	-0.1729420174	 1.3976669742	-0.263499
C	-0.1476100607	-0.5736540811	 2.3855223209	-0.00845
C	-1.4518201272	 0.199279887	 2.538663249	-0.120371
O	-1.7537045137	 1.113268465	 1.4969235125	-0.396467
H	 0.6507630292	-2.6195444197	-1.1490907506	 0.130593
H	-0.6740674664	-1.8333970506	-2.026329267	 0.113636
H	 0.6434726396	-0.8552868129	-1.3637448516	 0.107164
H	-1.4593525907	-0.738888165	 0.0451207361	 0.094206
H	-2.2105602204	-2.6821600805	 1.3201475386	 0.075978
H	-2.2458969769	-3.0944820019	-0.4021099289	 0.100804
H	-0.0054803085	-3.644443215	 1.1684978215	 0.283081
H	 1.952918407	-0.2444585938	 1.6412526166	 0.11556
H	 0.6402707012	 0.632435724	 0.7113751622	 0.107349
H	 0.186775921	-0.9925880231	 3.3349950991	 0.093585
H	-2.2968222145	-0.4974506214	 2.5719993091	 0.12733
H	-1.4233989023	 0.7077896832	 3.5145395929	 0.101324
H	-1.1164221694	 1.8332243211	 1.5411680873	 0.286598
