19
gdb 10297	2.55695	1.58532	1.03734	3.4494	71.68	-0.2813	0.0282	0.3095	1146.594	0.163984	-365.082627	-365.073051	-365.072107	-365.116929	34.258	
C	-0.0822634421	 1.5559920844	 0.0808445794	-0.406312
C	-0.0242076179	 0.0238885097	-0.0005557435	 0.023157
C	-1.4382240809	-0.5721576937	 0.0228699327	-0.403927
C	 0.7584525241	-0.4443100427	-1.2588701839	-0.142178
C	 2.2123020206	 0.0922568845	-1.3395919079	-0.076311
O	 2.9011350031	-0.3757223938	-2.4753187155	-0.417132
C	 0.8243339681	-1.9079418547	-1.3290328701	 0.264213
N	 0.9412182484	-3.0575315318	-1.3822974304	-0.340388
H	 0.9047964786	 2.0094058529	 0.2038323668	 0.124903
H	-0.5410044297	 1.9805551567	-0.8199642875	 0.120892
H	-0.691610508	 1.861868112	 0.9365027215	 0.122791
H	 0.5200436922	-0.3500412672	 0.8768108082	 0.093829
H	-2.0270967467	-0.2158053241	-0.8305171648	 0.118413
H	-1.4181431694	-1.6647378276	-0.0137961127	 0.142765
H	-1.9626624497	-0.2741040421	 0.9356632626	 0.119616
H	 0.2289554761	-0.1002938069	-2.1573186213	 0.129325
H	 2.1837466937	 1.179792486	-1.4320425587	 0.123454
H	 2.7376122528	-0.1552549341	-0.4041125085	 0.104408
H	 2.9965785867	-1.3323346775	-2.3979563065	 0.298483
