20
gdb 22683	2.86603	0.88266	0.74602	1.8762	78.52	-0.247	0.0047	0.2517	1550.1754	0.168686	-440.224378	-440.214343	-440.213399	-440.260453	35.901	
C	-1.534578697	 0.0534577541	-0.5102039939	-0.375648
C	-0.0995587437	-0.2827643134	-0.061684	-0.266479
C	 0.8037091843	-0.5758804163	-1.2349561194	 0.346029
C	 1.0709143274	-2.0056564759	-1.6402604973	-0.309335
C	 1.9985462583	-2.7221791592	-0.6767721442	 0.097559
C	 1.5120165215	-3.5949029473	 0.4009394006	-0.173362
O	 2.0583261555	-4.1428272451	-0.7987548999	-0.235427
N	 1.3733084244	 0.3158212352	-1.9541268546	-0.168772
O	 1.0755209976	 1.6180018899	-1.5157670728	-0.399548
H	-1.5341476613	 0.9400079331	-1.1482423325	 0.141655
H	-1.9818118904	-0.7729168028	-1.072191887	 0.117162
H	-2.1706328466	 0.2520638043	 0.3575178846	 0.116046
H	 0.3093578519	 0.5635650489	 0.497213888	 0.129308
H	-0.1129498672	-1.1488234465	 0.6068910729	 0.099947
H	 0.1289345779	-2.5651495016	-1.6983922108	 0.111736
H	 1.5251390955	-2.0076789999	-2.6353731566	 0.128889
H	 2.9713444227	-2.2461567369	-0.5435493292	 0.103403
H	 2.1118821833	-3.7384217832	 1.298530881	 0.117657
H	 0.44009048	-3.7408133742	 0.5328222947	 0.112361
H	 1.5781492459	 2.157309687	-2.1350260839	 0.306817
