17
gdb 99348	7.48515	0.58146	0.54505	5.6768	71.44	-0.2637	0.0279	0.2915	1935.8547	0.134649	-455.202302	-455.191949	-455.191005	-455.240244	33.842	
C	-0.1555278161	 1.3478754386	 0.1352534364	-0.331256
N	-0.0475976967	-0.0733913703	-0.1190060629	-0.36022
C	 0.6721109323	-0.5722733197	-1.1543858731	 0.524349
O	 1.2956612136	 0.0641838322	-1.9729915717	-0.404162
O	 0.5959054888	-1.9375484635	-1.1488521595	-0.282227
C	 1.3200435516	-2.5753399535	-2.200564173	-0.052331
C	 1.0986204747	-4.0781699564	-2.0042018135	-0.347123
C	 1.7894934094	-4.8659773459	-3.0208097732	 0.250405
N	 2.340104847	-5.4794773343	-3.8299658552	-0.296028
H	 0.4238829605	 1.8634833197	-0.631245683	 0.173479
H	-1.1962796114	 1.6859616355	 0.0805296801	 0.129747
H	 0.2469632586	 1.6096111714	 1.1201232105	 0.129746
H	-0.5145460714	-0.7323052922	 0.480759675	 0.254691
H	 0.9491660991	-2.2431855174	-3.1741497542	 0.142922
H	 2.3815294547	-2.3193375804	-2.1417332792	 0.142907
H	 1.4554677673	-4.377901247	-1.0131168655	 0.16255
H	 0.027233758	-4.3019635467	-2.0425735079	 0.162551
