25
gdb 60003	3.67168	0.6645	0.65171	0.7459	95.53	-0.2581	0.055	0.3131	1880.9215	0.225592	-352.33971	-352.328124	-352.32718	-352.376814	42.672	
C	 0.9226861448	-0.2837948048	-1.0655496072	-0.382036
C	-0.0032679775	 0.0981242761	 0.0978443896	 0.022112
C	-0.1828501336	 1.6215882036	 0.1656985182	-0.3861
C	-1.3794389527	-0.5891535119	 0.0059411875	-0.165639
C	-1.3917096809	-2.1286504795	 0.0328812522	 0.017082
C	-0.7995059447	-2.7050208492	 1.3245481105	-0.39274
C	-2.8451421566	-2.6270405952	-0.1789901435	-0.362758
C	-2.9568429733	-4.0721902399	-0.3364947687	 0.299852
C	-3.0261190974	-5.264820071	-0.4741667111	-0.442846
H	 1.8794167052	 0.2436446007	-0.9909477013	 0.109703
H	 1.1396936349	-1.3558054454	-1.0875941311	 0.116053
H	 0.471024649	-0.0152324194	-2.0284794957	 0.110273
H	 0.4783872589	-0.2181726831	 1.0326011518	 0.076019
H	-0.6591345273	 2.0012496061	-0.7464496869	 0.11065
H	-0.8114813113	 1.9128025912	 1.0139281958	 0.108741
H	 0.7811722233	 2.1299952878	 0.2717292304	 0.108486
H	-2.0069263201	-0.2244086805	 0.8322062969	 0.086482
H	-1.8704750452	-0.2491117477	-0.9177113406	 0.085477
H	-0.8046173357	-2.5035121701	-0.8142251287	 0.086859
H	-0.8861901847	-3.7949362794	 1.3376878506	 0.129182
H	 0.2588239311	-2.4520192219	 1.4328772589	 0.115747
H	-1.3276886413	-2.3142794701	 2.2032683627	 0.108579
H	-3.4636888277	-2.3031667346	 0.6697455689	 0.124643
H	-3.2676014106	-2.1371641767	-1.0657670635	 0.124677
H	-3.0994420363	-6.3169455453	-0.5954407058	 0.191504
