20
gdb 92136	2.83544	1.76337	1.57122	0.818	77.03	-0.2219	0.0842	0.3061	959.0904	0.174195	-403.144882	-403.13777	-403.136826	-403.176175	29.364	
C	-0.5390907918	 1.4520181731	 0.0456812414	-0.395144
C	 0.0881549271	 0.0632245895	-0.0411613134	 0.113754
O	 0.7594100105	-0.0527369275	-1.301475118	-0.296462
C	 2.0555536647	-0.6380009655	-1.2079547669	 0.088063
C	 2.974622291	 0.2915623163	-0.3967961248	-0.242473
C	 2.4796327944	 0.0019593574	 1.0100510999	-0.04449
C	 1.015580387	-0.2251285912	 1.1309277523	-0.03573
N	 1.9287479481	-1.3827732829	 1.0649509283	-0.137592
C	 2.0063320168	-1.8927971098	-0.3229817526	-0.178402
H	 0.2342970772	 2.2246006784	 0.0927137248	 0.119616
H	-1.1563612553	 1.6354462681	-0.8378890825	 0.126485
H	-1.1732563037	 1.5372372565	 0.9342356075	 0.112558
H	-0.7220272022	-0.6850104656	-0.0191769199	 0.079786
H	 2.3849472137	-0.8157128213	-2.2331984	 0.080211
H	 4.02929658	 0.0113372768	-0.5005666501	 0.10247
H	 2.8593271942	 1.3333729245	-0.7057850384	 0.110979
H	 3.0626778272	 0.3194504596	 1.8687103415	 0.088466
H	 0.5439451902	-0.0997011297	 2.1034228943	 0.089194
H	 1.1458150606	-2.5272958851	-0.5535487267	 0.112966
H	 2.9164528402	-2.4939420017	-0.4213734066	 0.105746
