19
gdb 117266	2.79449	1.0552	0.8248	3.8023	72.71	-0.2462	-0.0238	0.2223	1410.8127	0.156957	-460.136368	-460.126571	-460.125627	-460.172921	33.149	
C	 1.2878726132	 1.024213537	-0.2628195068	-0.230093
O	 1.1796936436	-0.289670799	-0.765237475	-0.232352
C	-0.1506796378	-0.6955125365	-0.9679042647	-0.15604
C	-0.2037231405	-2.1278730049	-1.4996589619	 0.329707
O	-1.2730687259	-2.6726007432	-1.643740548	-0.301578
C	 1.1195659856	-2.7875865211	-1.810024923	-0.129688
C	 1.9596174893	-3.2210270477	-0.5764628951	-0.068669
O	 1.8687020759	-4.6044797327	-0.9559982267	-0.271011
C	 1.0846720827	-4.2908143753	-2.1298161985	-0.097865
H	 0.8520447881	 1.7594408837	-0.9563796218	 0.112483
H	 0.7853092507	 1.1276983401	 0.7107857773	 0.113682
H	 2.3515402798	 1.2386424112	-0.139140243	 0.134927
H	-0.7380043048	-0.6559462747	-0.0361922262	 0.124603
H	-0.6665760053	-0.0457934851	-1.6955902412	 0.123201
H	 1.6804205966	-2.1595028654	-2.5048583576	 0.109023
H	 2.991105339	-2.8520748794	-0.566827318	 0.10914
H	 1.5033196021	-3.0274713492	 0.4019823756	 0.104909
H	 0.0846619566	-4.7346080723	-2.0945160071	 0.126266
H	 1.5928008711	-4.5915518854	-3.0531711483	 0.099356
