19
gdb 56207	4.83169	0.7372	0.66169	2.8355	73.69	-0.2403	0.0589	0.2993	1668.7554	0.159938	-456.364942	-456.35545	-456.354505	-456.40116	33.742	
N	-0.1077683826	 1.3108255301	 0.2601563488	-0.566018
C	 0.0086539584	-0.0306700949	-0.092257151	 0.455978
O	 0.980916245	-0.4732090497	-0.6768933502	-0.395514
N	-1.0585338273	-0.8023201257	 0.3016225275	-0.341319
C	-1.0360967783	-2.244181794	 0.171965653	-0.15879
C	-2.4228460072	-2.7489334345	-0.1834930123	 0.150705
C	-2.7177780705	-4.2473179259	 0.0381409063	-0.301642
C	-3.7497805177	-3.7492592321	 1.0699448936	-0.057874
O	-3.3917829175	-2.369823093	 0.8318276484	-0.306283
H	 0.5528630171	 1.891374981	-0.2340773144	 0.258909
H	-1.0373331018	 1.7014596344	 0.3062741617	 0.246321
H	-1.7176167152	-0.4326824766	 0.9688199562	 0.249956
H	-0.3137382357	-2.4924140449	-0.6098908201	 0.144716
H	-0.7016314665	-2.7261079624	 1.1032588853	 0.096599
H	-2.722723415	-2.3544329167	-1.1627931045	 0.081947
H	-3.1244667086	-4.780278131	-0.8216752581	 0.11593
H	-1.8838537704	-4.817515444	 0.4528449147	 0.114732
H	-4.7994824334	-3.94416101	 0.8190679229	 0.10528
H	-3.574868293	-4.0444282003	 2.1111637423	 0.106366
