15
gdb 99439	2.40653	0.89187	0.66792	1.1379	90.06	-0.2534	-0.033	0.2204	1610.4678	0.107947	-383.373512	-383.363568	-383.362624	-383.408958	35.017	
C	 0.2092595442	 1.3604483636	-0.0776078225	-0.23628
O	-0.1297273412	-0.0026754445	 0.1038374244	-0.222631
C	 0.6087090374	-0.6310925046	 1.1402737457	-0.291363
C	-0.0010697407	-1.9334750015	 1.4195924075	 0.314541
C	-0.4931393987	-2.9968191797	 1.6776631472	-0.398439
C	 2.0358932008	-0.7789907643	 0.8089468707	 0.536691
C	 3.210829924	-0.8741381025	 0.5374076295	-0.352242
C	 4.5315183065	-0.9891298369	 0.2314598638	 0.298858
C	 5.7037820031	-1.0882997473	-0.0394238683	-0.550743
H	 1.2555854009	 1.48458127	-0.3861437028	 0.126037
H	-0.4448630488	 1.7397187354	-0.8647325162	 0.137344
H	 0.0405253344	 1.9417617776	 0.8418265443	 0.109259
H	 0.5425479503	-0.0156964464	 2.0568782183	 0.127197
H	-0.9291052901	-3.9404940218	 1.89629048	 0.204979
H	 6.734393648	-1.1795994569	-0.2783120114	 0.196793
