18
gdb 48595	2.1835	1.90692	1.32591	2.5763	77.25	-0.2403	-0.0386	0.2017	1011.9603	0.147966	-401.871448	-401.863623	-401.862679	-401.90404	30.048	
O	-0.5917756782	 0.9651381763	-0.7701711797	-0.258589
C	 0.2622989159	 0.9662104746	 0.0862820516	 0.029135
C	 1.4351870612	 1.8775675897	 0.0609015399	 0.150135
C	 1.7437804959	 3.0524638521	 1.065172904	-0.26654
C	 2.9036386533	 3.0820856614	 0.0212459154	-0.126115
C	 2.9597900286	 1.527368214	 0.158158959	-0.267642
C	 1.8247620182	 2.8598087704	-1.0549042282	 0.421288
C	 1.7902721099	 2.7803728491	-2.5180267536	-0.356452
N	 1.0359452026	 3.8346485185	-1.7663891683	-0.413118
H	 0.19994343	 0.2772435951	 0.9589376794	 0.08105
H	 1.0447352186	 3.8902652465	 1.0488817706	 0.118939
H	 2.0124825124	 2.7560031302	 2.0821548376	 0.099039
H	 3.7453683304	 3.7724856081	-0.0073979915	 0.088462
H	 3.3035502421	 1.1439008584	 1.1216014626	 0.100391
H	 3.3777675093	 0.9672126574	-0.6809471593	 0.108494
H	 2.6148301043	 3.1591565733	-3.1158534045	 0.119434
H	 1.2172866653	 1.9789698603	-2.9755480706	 0.128827
H	 0.0526645703	 3.5724306747	-1.7345812544	 0.243262
