19
gdb 73441	2.92533	1.90833	1.49902	1.2195	78.97	-0.2108	0.0161	0.2269	941.9885	0.161222	-385.88801	-385.880949	-385.880005	-385.918947	29.366	
C	 0.0368255079	 1.4733762539	 0.0249839691	-0.473119
C	-0.0261463797	-0.0284406308	 0.0041807612	 0.44668
O	 0.9364814553	-0.6225927525	-0.8400939872	-0.295355
C	 0.2728034243	-1.6122085049	-1.6352474576	-0.078533
C	-0.8508060032	-2.1464354639	-0.7202782908	-0.115141
C	-0.2012336347	-2.9587751904	 0.3910991198	-0.08966
C	 0.0607890232	-2.1929865955	 1.4511930059	-0.059186
C	-0.4606977344	-0.8102516336	 1.2648062734	-0.160763
C	-1.2819950269	-0.8340763352	-0.0180883363	-0.161871
H	 1.0180824697	 1.8127278179	 0.3721833637	 0.130182
H	-0.1271650189	 1.8829533746	-0.977373407	 0.12151
H	-0.7229383046	 1.8846637071	 0.6959434795	 0.116119
H	-0.13944802	-1.1609503809	-2.5523111346	 0.085581
H	 1.0138975753	-2.3665328747	-1.914723107	 0.106075
H	-1.6415422467	-2.6600882969	-1.2730382898	 0.072384
H	 0.1303652349	-3.9807130773	 0.2469717613	 0.093825
H	 0.6102844183	-2.4985990379	 2.3337189998	 0.096417
H	-0.7744041659	-0.2189714375	 2.1192941253	 0.079162
H	-2.277744704	-0.4182080717	-0.1146659588	 0.085695
