14
gdb 123334	4.18218	1.10491	0.98562	2.3489	74.86	-0.2413	-0.0771	0.1641	1175.7025	0.101033	-395.701588	-395.693918	-395.692973	-395.735013	27.798	
C	-0.0096212088	-1.1965443813	 0.196555714	-0.460197
C	-0.0005216818	-0.0031488411	 0.0629708601	 0.316692
C	 0.0203807382	 1.4459167957	-0.1081639344	-0.402988
C	 1.4260047107	 2.0106787244	-0.0506799076	 0.388842
N	 2.0682576782	 1.9645640592	 1.1262766674	-0.248093
C	 3.2927250326	 2.4647221463	 1.1144866087	-0.008225
C	 3.8348469152	 2.9929221948	-0.0586994846	 0.019562
N	 3.1394159245	 3.02184632	-1.1899958346	-0.165367
N	 1.9064892468	 2.520388641	-1.1877154783	-0.222663
H	-0.0222894015	-2.2514333199	 0.3167857395	 0.202264
H	-0.4166867802	 1.7237721287	-1.0715129711	 0.15959
H	-0.5751562864	 1.9179559965	 0.6827115233	 0.152025
H	 3.8529951602	 2.4530423253	 2.0467590728	 0.134433
H	 4.8373563023	 3.4065388703	-0.0980755352	 0.134124
