21
gdb 111215	3.04312	1.01869	0.89028	1.674	80.08	-0.2458	0.0736	0.3194	1389.8599	0.182129	-424.150792	-424.141585	-424.140641	-424.185475	34.107	
C	-0.0034940281	 1.222015413	-0.2720482357	-0.244079
O	 0.579612561	-0.0582640215	-0.3681523141	-0.256711
C	 0.9990831938	-0.5661753784	 0.8683047765	 0.186328
C	-0.0283234683	-1.296999765	 1.7988263435	-0.102837
C	-0.0758067632	-2.4145245167	 0.7120465201	-0.230696
C	 1.43562546	-2.0506829378	 0.8636410536	-0.127634
C	 1.1866697183	-2.0691648628	 2.4051878539	 0.068546
C	 2.1421936873	-1.438876652	 3.4019765107	-0.14428
O	 1.4689875614	-1.4184034201	 4.6566151327	-0.420238
H	 0.6879311713	 1.9496507381	 0.1817654013	 0.103275
H	-0.2408728383	 1.5488161267	-1.2872631342	 0.126321
H	-0.9285829983	 1.2107868034	 0.3231656267	 0.109225
H	 1.6688535244	 0.1549707834	 1.3519159501	 0.055364
H	-0.8651418679	-0.8663535902	 2.3489872843	 0.073446
H	-0.3685452183	-3.409481648	 1.0570121614	 0.087296
H	-0.5401823034	-2.1534646179	-0.2369034779	 0.110262
H	 2.279752196	-2.4821564244	 0.3230897885	 0.069394
H	 0.9077817052	-3.0582687499	 2.782378058	 0.077126
H	 3.0557103965	-2.0542826789	 3.4534162894	 0.085242
H	 2.452716126	-0.4267160844	 3.1094753576	 0.088516
H	 2.0738190544	-1.0642975666	 5.3150826235	 0.286133
