23
gdb 105534	2.14046	1.4839	1.11761	1.1587	85.83	-0.2405	0.0845	0.325	1235.7303	0.205132	-388.256098	-388.24654	-388.245595	-388.291464	36.155	
C	-0.1692950524	 1.2745486289	-0.5196457231	-0.25496
O	 0.0485984498	-0.0754673828	-0.1892450236	-0.304313
C	 0.6861981683	-0.380930187	 1.0346383068	 0.421991
C	 2.0301366584	 0.3281109768	 1.4042683295	-0.283035
C	 1.5259061473	 0.4247297284	 2.8704138202	-0.212339
C	 0.0792568202	 0.1632491025	 2.3686810199	-0.281604
C	 0.830950964	-1.8915376865	 1.0694321338	-0.000425
C	-0.2235281079	-2.7941477654	 0.4858210436	-0.277843
C	 1.1296114721	-2.6793294932	-0.1785207545	-0.277833
H	 0.7667615185	 1.8340273636	-0.6539113761	 0.109859
H	-0.7077804398	 1.2756591253	-1.4708799702	 0.126907
H	-0.7841425522	 1.8006811475	 0.2236078088	 0.10841
H	 2.9475795079	-0.2304273799	 1.2041682215	 0.100285
H	 2.1176242283	 1.3174000596	 0.9490889278	 0.098367
H	 1.9043642304	-0.3861746824	 3.4974408545	 0.106129
H	 1.7032515815	 1.368528198	 3.3896685225	 0.097696
H	-0.4680793563	 1.097971728	 2.2252761486	 0.098821
H	-0.5515668636	-0.526906277	 2.9338507003	 0.100399
H	 1.3076529057	-2.2436508682	 1.9799128874	 0.078289
H	-0.4664134494	-3.7089097036	 1.0154993513	 0.101031
H	-1.0574605256	-2.3202806604	-0.0170882734	 0.122092
H	 1.1713354237	-2.1308656775	-1.1114981027	 0.121071
H	 1.8169402712	-3.5151885549	-0.1060022828	 0.101005
