15
gdb 49004	2.62633	1.51755	1.14099	2.2049	66.49	-0.2611	-0.0555	0.2056	1047.5756	0.110368	-457.748103	-457.740229	-457.739284	-457.781075	28.694	
O	-0.7414216831	 1.2821446261	 0.706384491	-0.2514
C	 0.1741270525	 0.9497154289	-0.0033968574	 0.08915
C	 1.4469799944	 1.7344705849	-0.1379930005	 0.336916
C	 1.899894455	 2.6370726957	 1.0354725387	-0.402111
C	 2.1489163328	 3.7681267581	 0.0222324063	 0.414115
O	 2.5785583009	 4.8793446307	 0.0998128761	-0.283888
C	 1.6182372709	 2.9299370988	-1.1563086207	-0.262281
C	 2.7032903209	 2.0205948826	-1.7792223561	-0.097227
O	 2.5129215432	 1.0040353363	-0.7678449551	-0.328181
H	 0.1405148121	 0.0367294219	-0.6363905589	 0.098248
H	 1.0589475105	 2.8745674286	 1.6967857765	 0.165083
H	 2.7505621607	 2.2865783199	 1.6233099086	 0.146142
H	 0.841073032	 3.3447841039	-1.7959588329	 0.121295
H	 2.4435097608	 1.6430522529	-2.7741836442	 0.124736
H	 3.7245106061	 2.4154747506	-1.7952983813	 0.129403
