21
gdb 85297	2.49492	1.59771	1.19178	3.1278	81.74	-0.2316	-0.0044	0.2272	1114.4915	0.184514	-387.117605	-387.109637	-387.108692	-387.149918	32.006	
C	-0.6930960487	 1.3716142466	 0.1578764809	-0.410239
C	 0.0655797809	 0.0518734731	-0.0186416891	 0.028034
C	 1.0251086573	 0.1075475543	-1.2384991872	-0.326755
C	 2.3338038343	-0.6686863986	-1.0583218655	 0.404547
O	 2.9966009256	-1.0484199619	-1.9944668177	-0.332369
C	 2.7172690952	-0.9072661731	 0.3870739878	-0.105142
C	 1.5451222692	-1.7118825097	 1.0395942532	-0.246602
C	 0.8410137481	-0.3463491493	 1.2515725211	-0.00098
C	 2.2595670914	 0.2924811066	 1.2704637928	-0.246375
H	-0.0070076929	 2.1914024236	 0.4016791315	 0.116697
H	-1.2252447545	 1.6476424064	-0.7584571456	 0.116833
H	-1.4293015322	 1.300655383	 0.9653675147	 0.113389
H	-0.6735004344	-0.7392492216	-0.2022297241	 0.078703
H	 0.5480276153	-0.2190720128	-2.1657689513	 0.124531
H	 1.3299791616	 1.1492984415	-1.4117473619	 0.128735
H	 3.7353572081	-1.2898812581	 0.4594942722	 0.080102
H	 1.0380196399	-2.468072592	 0.4322753273	 0.102269
H	 1.8654906575	-2.1633971234	 1.9818765748	 0.105965
H	 0.2159144733	-0.2308526867	 2.1409128166	 0.062394
H	 2.7140883963	 0.2357837925	 2.2625542673	 0.106854
H	 2.3882527788	 1.3055569995	 0.8790773323	 0.099409
