15
gdb 73735	2.07504	1.81488	0.97994	5.1666	78.29	-0.252	-0.0551	0.197	1144.1222	0.111117	-420.654989	-420.646525	-420.645581	-420.688176	30.806	
C	-0.0059151937	 1.486416579	 0.1014751164	-0.515829
C	 0.0141415658	 0.0025877979	-0.0053428437	 0.173327
C	 0.0012781767	-0.7679531538	-1.1093254875	-0.07576
C	-0.0348436937	-0.3685202941	-2.4626330738	 0.255391
C	-0.0657168983	-0.0304386982	-3.6175309565	-0.420676
C	 0.0323187647	-2.203830252	-0.6915558218	 0.384925
O	 0.0325275552	-3.1958465086	-1.3570910346	-0.33236
O	 0.0632005949	-2.2298853098	 0.6812390447	-0.230882
C	 0.0544566594	-0.9028936348	 1.1926248877	-0.158364
H	 0.8807487818	 1.8528033705	 0.6333804934	 0.145273
H	-0.0353218371	 1.9484913077	-0.8870696862	 0.155056
H	-0.8782107876	 1.8261801372	 0.6733030417	 0.145252
H	-0.0930589553	 0.2527601358	-4.6407897499	 0.200323
H	 0.9527251978	-0.7439152056	 1.8041345424	 0.137161
H	-0.8202088605	-0.7707569812	 1.8434765175	 0.137161
