18
gdb 40932	3.85263	1.30824	1.18025	3.1835	71.16	-0.2341	0.0604	0.2944	1072.8618	0.148542	-439.003197	-438.995731	-438.994787	-439.035494	28.689	
C	 0.2303863882	 1.5398893226	-0.3165912643	-0.06528
O	 1.553562281	 1.3978838751	 0.2707760464	-0.292823
C	 1.2769972981	 0.050853376	 0.6905188441	 0.026342
C	-0.0962213488	 0.0660027641	-0.0191683653	-0.056856
N	 0.4396051437	-0.836824797	-1.0683942965	-0.378696
C	 1.7076036419	-1.0252618232	-0.3321878971	 0.276575
C	 3.0778726147	-0.9626526901	-1.0206005407	-0.120187
O	 3.5200759421	-2.1464998498	-0.3117406576	-0.2734
C	 2.1907676821	-2.4004042924	 0.1734742313	-0.136094
H	-0.3663889961	 2.2718674053	 0.2418102865	 0.101286
H	 0.267315196	 1.8066898054	-1.3772980631	 0.113728
H	 1.4871788432	-0.1212229115	 1.7491935327	 0.083264
H	-1.0578493313	-0.1930080707	 0.4238614768	 0.082896
H	-0.0918161979	-1.6886322242	-1.2083809772	 0.221123
H	 3.0294211865	-1.1237768018	-2.1052897701	 0.102769
H	 3.6935219995	-0.0843496047	-0.8019628349	 0.121135
H	 2.1628165902	-2.5773372971	 1.2564872826	 0.103827
H	 1.7153772567	-3.2504271659	-0.3406847936	 0.090391
