15
gdb 128348	4.94247	1.09086	0.89915	3.0925	75.42	-0.2228	-0.081	0.1418	1240.6834	0.112863	-450.100606	-450.092283	-450.091338	-450.133926	29.917	
C	 0.1505545472	 1.439940962	-0.1509404111	-0.317412
N	 0.0408793241	 0.0085894409	 0.0357445973	-0.338933
C	 0.5467684057	-0.6153291134	 1.1335027052	 0.488655
N	 1.0146257542	 0.1006435471	 2.1097339969	-0.205775
O	 1.4396712922	-0.6320134012	 3.2537187541	-0.277251
C	 1.3952264808	-1.9887026697	 3.2855410306	 0.395901
N	 1.7663972783	-2.6789833445	 4.28806364	-0.526922
C	 0.890976204	-2.6464043644	 2.0785156529	-0.006797
N	 0.4787056097	-2.0159035907	 1.0467061809	-0.281951
H	 1.1946723238	 1.7728059385	-0.2202669199	 0.135823
H	-0.3774006207	 1.717115794	-1.0649716459	 0.128617
H	-0.3061158911	 1.959503355	 0.6960397628	 0.155965
H	-0.0697477554	-0.5906453676	-0.7654104381	 0.260443
H	 2.092469363	-2.074460798	 5.0451532474	 0.232895
H	 0.8798704143	-3.7341369881	 2.0914649268	 0.156743
