16
gdb 77867	2.19447	1.71603	1.57485	4.5084	67.92	-0.2708	0.0148	0.2857	945.1644	0.124494	-437.860688	-437.852608	-437.851664	-437.893093	30.676	
O	 0.2191047488	 1.4036368391	 0.0233304083	-0.438761
C	 0.0536883658	 0.0099940878	-0.0444894772	 0.075961
C	-1.339586858	-0.6246690214	 0.0049786127	-0.120324
C	-2.1829059141	-0.2364655453	-1.1946244695	-0.188489
C	-2.1695888311	 1.0864051374	-1.7716345043	 0.289696
N	-2.1995929417	 2.1739828753	-2.1677345572	-0.350929
C	-1.1083124718	-1.280594366	-1.3647394041	-0.083398
C	 0.293126242	-0.6636932306	-1.4497059375	 0.084911
O	 0.5603454001	 0.2038900897	-2.5116154835	-0.430259
H	-0.5434169372	 1.8465532481	-0.3696417123	 0.308886
H	 0.7128613738	-0.4171352234	 0.7141648132	 0.106559
H	-1.8202157423	-1.0274570698	 0.8882641929	 0.109682
H	-3.1849579926	-0.6547571068	-1.1607334734	 0.145382
H	-1.3810140091	-2.2774852156	-1.6875466743	 0.109206
H	 1.0590754033	-1.4469127516	-1.3905901054	 0.087223
H	 0.7603371839	 1.065304323	-2.1188385083	 0.294654
