17
gdb 78568	2.32931	1.79436	1.26511	2.3034	72.14	-0.2352	0.0045	0.2397	1022.1271	0.135068	-421.790111	-421.782202	-421.781258	-421.822228	30.94	
C	 0.110925805	 1.6034598027	 0.0109391851	-0.421572
C	 0.0782928983	 0.082284327	 0.0229713544	 0.019079
C	 0.7627623278	-0.7207834046	-1.0966467558	-0.131513
C	 2.2811319322	-0.7890929421	-0.7621852152	-0.278706
C	 2.4379638393	-0.2142019361	 0.6076313242	 0.433298
O	 3.3661477628	 0.2175179394	 1.2340338474	-0.347421
C	 1.0200284398	-0.6918619928	 0.9996427685	-0.274389
C	 1.2321619783	-1.7667977479	-0.1622958822	 0.38296
O	 1.1446688089	-3.1246845117	-0.2216230808	-0.447773
H	 1.1291483589	 1.9837434975	-0.1198328862	 0.132252
H	-0.5031658192	 1.9990105085	-0.8049512658	 0.118187
H	-0.2790290325	 2.0099538912	 0.9499922879	 0.123354
H	-0.9466962028	-0.2849772806	 0.140210357	 0.08632
H	 0.4608015066	-0.8385864598	-2.1303403479	 0.10325
H	 3.0200544729	-0.9847869934	-1.5269678598	 0.111684
H	 0.7593958911	-0.8764376669	 2.0385033256	 0.089776
H	 1.8892482527	-3.5103105907	 0.2553517637	 0.301214
