19
gdb 62229	3.8158	0.65428	0.60442	3.5414	78.06	-0.2627	0.0175	0.2802	1803.8607	0.15851	-419.253918	-419.243624	-419.24268	-419.291232	35.309	
C	 0.1374443274	 1.4849033783	 0.2858810968	-0.392233
C	-0.0195374082	-0.0158220487	-0.0330366168	-0.141572
C	-1.4657873338	-0.536057944	 0.1468453379	-0.188265
C	-1.9272302769	-0.5183059658	 1.6104700583	-0.176144
N	-3.265069795	-1.0589546075	 1.7715144193	-0.278428
C	-4.3340939634	-0.2887657408	 2.1179540147	 0.154797
O	-4.2911393453	 0.8996982256	 2.3524316326	-0.317808
C	 0.4373496228	-0.2934815166	-1.3991839133	 0.265892
N	 0.7865795563	-0.5108875818	-2.4793405745	-0.319908
H	 1.1666626409	 1.8107930061	 0.1185630395	 0.140762
H	-0.5196488138	 2.084568405	-0.3500661421	 0.143934
H	-0.1175848117	 1.683121205	 1.3293644008	 0.136551
H	 0.6374896437	-0.5859041777	 0.6382089221	 0.126522
H	-2.1493911635	 0.0683628181	-0.4590268398	 0.132831
H	-1.5222411457	-1.5606197729	-0.2383976469	 0.113364
H	-1.2224415777	-1.0859518523	 2.2324710081	 0.111467
H	-1.9725621786	 0.5008887618	 1.9985886454	 0.157724
H	-3.425655718	-2.0347376466	 1.57703528	 0.249803
H	-5.2674417493	-0.8829047052	 2.1684084778	 0.080714
