19
gdb 91873	2.61324	1.59418	1.08876	4.7641	76.28	-0.2396	0.0453	0.2849	1127.4903	0.161562	-419.235284	-419.227234	-419.226289	-419.267722	31.404	
C	-0.107622998	 1.5291447301	 0.0400335566	-0.418872
C	-0.0200534932	 0.0071953949	-0.0429539354	 0.081966
C	 0.8046917833	-0.4804706716	-1.2493012588	-0.241104
C	 0.9008545933	-1.9914216192	-1.1760364886	-0.022631
C	 2.1840906049	-2.700281785	-0.8773089061	-0.250077
N	 1.1672454833	-2.5396744177	 0.1529096749	-0.11521
C	 1.3887666438	-1.6464795607	 1.224971181	 0.390998
O	 2.1534024385	-1.884997098	 2.1357303571	-0.386007
N	 0.596991744	-0.5231248888	 1.1740997874	-0.331123
H	 0.8907140638	 1.9749890764	 0.1058705659	 0.126991
H	-0.6070044647	 1.9320505817	-0.8456694356	 0.126618
H	-0.6824202279	 1.8408318004	 0.91849783	 0.125792
H	-1.0401287675	-0.3937933677	-0.142550715	 0.090136
H	 0.3335939058	-0.1668710704	-2.185442511	 0.108453
H	 1.7977276555	-0.0185739307	-1.2033797014	 0.109233
H	 0.1339020547	-2.5378366412	-1.722053177	 0.100473
H	 2.3394613953	-3.7167626724	-1.22735499	 0.126433
H	 3.0882057658	-2.1029088425	-0.7872243955	 0.130495
H	 0.7348181996	 0.1022242223	 1.9531317715	 0.247438
