18
gdb 93766	2.92523	1.34779	0.95573	5.3007	78.99	-0.2166	-0.0254	0.1913	1212.6036	0.147761	-439.122592	-439.11387	-439.112926	-439.155798	33.18	
C	-0.0209180755	 1.5332432044	-0.0779522154	-0.398637
C	 0.0672190851	 0.0200869894	 0.0143358197	 0.009162
O	 0.7073654181	-0.4564404404	-1.1694475831	-0.248798
C	 0.8466262874	-1.8485185856	-1.204550356	-0.153583
C	 1.5649705708	-2.3910492561	 0.0116972445	 0.334865
N	 2.1026881351	-3.6384747495	-0.1310117619	-0.557011
C	 1.5648913986	-1.6772149503	 1.1637326312	-0.287893
C	 0.810017307	-0.4431797508	 1.2834857805	 0.367075
O	 0.7139383273	 0.1901224131	 2.3224180357	-0.366349
H	 0.9772615973	 1.95842781	-0.2160480677	 0.126137
H	-0.6481835275	 1.830632914	-0.9218223247	 0.113122
H	-0.4380297827	 1.9267807374	 0.849940164	 0.143521
H	-0.951042171	-0.4100317685	 0.0696103881	 0.083255
H	-0.1340484163	-2.3532295606	-1.2898040017	 0.113296
H	 1.4128870994	-2.0859193837	-2.1139278136	 0.112336
H	 2.3765385126	-3.9430721682	-1.0515149606	 0.259978
H	 2.6688245923	-3.9999965027	 0.6207920776	 0.264673
H	 2.0809146621	-2.028405282	 2.0525973136	 0.08485
