18
gdb 12741	2.72947	2.07752	1.7103	1.4285	66.64	-0.2371	0.0644	0.3015	858.7537	0.153378	-384.908843	-384.901003	-384.900059	-384.940679	30.379	
O	 0.5499990064	 0.8560260135	-0.8720834773	-0.433846
C	 0.102987933	-0.212340806	-0.0745355942	 0.075216
C	 0.1788046318	-0.1369944518	 1.480131567	-0.289477
C	-1.2472208551	-0.7584460276	 1.576380101	-0.055923
C	-2.3623992581	 0.2810038508	 1.8262942587	-0.215359
C	-2.3586633615	 0.6450448181	 0.3094577098	-0.301961
C	-1.4012697827	-0.5566177679	 0.027401388	 0.387694
O	-1.9025696824	-1.5843982032	-0.7786424624	-0.485563
H	 0.1688619063	 1.6693297128	-0.5248327996	 0.280107
H	 0.6275770846	-1.0999039674	-0.442683059	 0.09622
H	 0.991009135	-0.7049254006	 1.9373578306	 0.109066
H	 0.2252736009	 0.8899935597	 1.8596284597	 0.090655
H	-1.3204205624	-1.7385227741	 2.0457812451	 0.073828
H	-3.3056482975	-0.1764771322	 2.1345008708	 0.107293
H	-2.1226758043	 1.0850738594	 2.5280651376	 0.094826
H	-3.3240170129	 0.5313126657	-0.1873081192	 0.110205
H	-1.9628820528	 1.6353068348	 0.059433337	 0.07672
H	-1.8685321084	-1.2869938641	-1.6954687937	 0.2803
