15
gdb 124011	3.76322	1.65017	1.16354	1.727	75.37	-0.1915	-0.0194	0.1721	983.2326	0.11735	-413.000838	-412.994072	-412.993127	-413.031925	26.344	
C	 0.1313708216	 1.450849292	 0.325912977	-0.224234
N	 1.120782266	 2.1524925304	-0.5015116694	-0.406199
C	 2.1841578649	 1.4139415092	-0.9615994583	 0.342541
N	 3.3570210068	 1.8512818351	-1.3983549669	-0.328392
N	 3.946620645	 0.7050205537	-1.8065720768	-0.106687
N	 3.2518251948	-0.4143257133	-1.6583493369	-0.298742
C	 2.1109199405	 0.0103015526	-1.1156293917	 0.282042
C	 0.9181577582	-0.6994473904	-0.7186940439	-0.156487
C	-0.0257684593	-0.0046144355	-0.0680292989	-0.078134
H	 0.3846766396	 1.4994849103	 1.4032544177	 0.107606
H	-0.8305765301	 1.9665246863	 0.2186267466	 0.118993
H	 1.3299764621	 3.0998324216	-0.2245860956	 0.24726
H	 4.8791522469	 0.7044906847	-2.1812819762	 0.288286
H	 0.8000648447	-1.7510650321	-0.9538675419	 0.108828
H	-0.9405175019	-0.4858185645	 0.2618505954	 0.103317
