20
gdb 87754	4.53826	0.81425	0.7694	2.7227	81.96	-0.2483	-0.0239	0.2245	1517.2	0.169556	-403.125821	-403.116644	-403.1157	-403.160386	33.946	
C	 0.0495466271	 1.4905591758	-0.2547832143	-0.391794
C	 0.0493974337	 0.0004295225	-0.0212448482	-0.07222
N	 1.3668006164	-0.6753212922	-0.0463215069	-0.389696
C	 0.6100925241	-0.6315781677	 1.196449081	 0.371137
C	 1.0737128033	 0.0359723509	 2.4938572898	-0.320109
C	 0.1039408779	-0.916937405	 3.2725950874	-0.059597
C	-0.0013401541	-1.7963339416	 1.9805636805	-0.342112
C	 0.6719957864	-1.5909742147	 4.4878064325	 0.162042
O	 0.1744384029	-1.5926122699	 5.5841908977	-0.25292
H	 0.9173293219	 1.9560253117	 0.2196796693	 0.128458
H	 0.0943423191	 1.7149980173	-1.3257282954	 0.123637
H	-0.8586658835	 1.9515156156	 0.1491441492	 0.115654
H	-0.7818485306	-0.5344982909	-0.4816319513	 0.082889
H	 1.2956190531	-1.5951572859	-0.4757548279	 0.228107
H	 2.1259715906	-0.180747283	 2.7076436872	 0.114408
H	 0.9017813363	 1.1071553238	 2.6161052274	 0.117207
H	-0.8407499962	-0.4366599834	 3.5314826442	 0.095211
H	-0.998810886	-2.1447491349	 1.7022220317	 0.115466
H	 0.6749877452	-2.6587667465	 2.0281196569	 0.108437
H	 1.6393241422	-2.1172662419	 4.2950175093	 0.065793
