18
gdb 14097	3.02839	1.76272	1.46784	1.5334	68.09	-0.224	0.067	0.291	939.9918	0.152252	-384.898966	-384.890697	-384.889753	-384.931717	30.835	
C	-0.3155626593	 1.41401426	 0.0874768358	-0.408653
C	 0.0358628541	-0.0607584202	-0.033711325	-0.1064
C	 1.3383105714	-0.4231420067	-0.7895044287	-0.088992
O	 1.9101126104	-1.0399039904	 0.3902089834	-0.313116
C	 0.7424329258	-0.7305327995	 1.1437404803	 0.450128
C	 0.7885470353	-0.3346631209	 2.5911650922	-0.404222
C	 0.1661190309	-1.6561396109	 2.1537456175	 0.011866
O	-1.2249096524	-1.7972562558	 2.1338135434	-0.422507
H	 0.541680835	 1.9981882059	 0.4382093678	 0.120873
H	-0.631344848	 1.8205937636	-0.8794229614	 0.115926
H	-1.138783988	 1.5632523702	 0.7938154409	 0.122678
H	-0.8313116003	-0.6344994497	-0.3695832683	 0.097403
H	 1.2373387499	-1.1396348254	-1.6122045365	 0.104849
H	 1.9356534124	 0.4337049093	-1.1249310759	 0.099797
H	 1.7467476824	-0.3761542491	 3.0989436096	 0.121978
H	 0.1201783955	 0.4568366734	 2.9168602746	 0.115204
H	 0.7340260816	-2.5606614142	 2.3736311345	 0.09444
H	-1.5324532767	-1.8569940594	 3.0446875358	 0.288748
