21
gdb 69539	3.06578	1.51002	1.35667	1.8059	81.53	-0.2437	0.0901	0.3338	1065.8894	0.18272	-387.060587	-387.052547	-387.051603	-387.092402	33.013	
C	-0.0642037355	 1.4724461049	 0.0477613868	-0.492006
C	 0.0764612562	-0.0175241912	-0.0343597133	 0.434753
O	-0.5248718938	-0.7969423659	 1.0220220825	-0.305773
C	 0.8946133323	-0.894558899	 0.8018361012	-0.066333
C	 1.3518223067	-1.980797248	-0.2067535213	 0.298472
C	 2.2521300832	-3.0901085942	 0.286074669	-0.505968
C	 0.0348188718	-2.2463931461	-0.9965374875	-0.253399
C	 0.1873654698	-0.7556304346	-1.3953878435	-0.116103
C	 1.7301940545	-1.0324189607	-1.4077148052	-0.257383
H	 0.6667411029	 1.9662867008	-0.6016727372	 0.12316
H	-1.0625295265	 1.787903038	-0.2761499113	 0.127225
H	 0.0858235739	 1.8201029796	 1.0730994991	 0.128943
H	 1.5308741832	-0.5722489432	 1.6216160877	 0.089006
H	 1.7473870606	-3.6991517883	 1.0443114931	 0.124191
H	 2.5490251678	-3.7535530231	-0.5328209721	 0.113872
H	 3.1674332358	-2.6898097433	 0.7380820405	 0.113689
H	 0.209654392	-2.9121557089	-1.8446719078	 0.088649
H	-0.8503770223	-2.5439064699	-0.4373094577	 0.114651
H	-0.3337164169	-0.3236479486	-2.2499179401	 0.059175
H	 2.403125876	-0.1930561122	-1.2021207047	 0.088137
H	 2.0686292883	-1.5772768862	-2.2939018383	 0.093042
