20
gdb 89019	4.03246	0.74582	0.66834	2.4369	76.64	-0.2612	0.0601	0.3214	1699.9975	0.170027	-440.320736	-440.310665	-440.309721	-440.357461	36.041	
C	 0.1271457941	 1.5174363781	-0.2639798288	-0.407711
C	 0.084232798	 0.0280491941	 0.0068166393	 0.000819
C	 1.3473741521	-0.7907629052	 0.0991415604	-0.286937
C	 0.4879052108	-0.5961551692	 1.3267348348	-0.019154
C	 0.9783576264	 0.2278800327	 2.4819037847	-0.078849
O	 1.8195358137	-0.619319066	 3.2906827637	-0.261375
C	 2.3972349946	-0.0061490116	 4.3505483006	 0.494093
N	 3.108588059	-0.9172169729	 5.0840079312	-0.563022
O	 2.2765991643	 1.1659730485	 4.6225130044	-0.399883
H	 1.009133648	 1.9924656101	 0.1744234643	 0.121115
H	 0.1595269668	 1.7074387282	-1.3424142061	 0.119108
H	-0.757865097	 2.0253685788	 0.1351832511	 0.119894
H	-0.7541500268	-0.4708078616	-0.472964379	 0.086285
H	 1.3810232218	-1.7707871188	-0.3636345612	 0.11027
H	 2.290494774	-0.2530182414	 0.0681020004	 0.111211
H	-0.1016530156	-1.4550982788	 1.6358397862	 0.088955
H	 1.5569800381	 1.0976087389	 2.1607855478	 0.118073
H	 0.1524172422	 0.5949218223	 3.1008846217	 0.11815
H	 3.3406423768	-1.7989878132	 4.6591287268	 0.262546
H	 3.7541352287	-0.534479863	 5.753100938	 0.266413
