18
gdb 110477	4.78194	1.28889	1.24524	0.8974	74.22	-0.2292	0.0724	0.3016	1050.7168	0.148537	-401.838826	-401.831738	-401.830793	-401.870496	27.914	
C	-0.1369993763	 1.3462145007	-0.1282698954	-0.238658
O	 0.3366742356	 0.0317250728	 0.0758250798	-0.256245
C	 0.8198097303	-0.5783013722	-1.0943864307	 0.145385
C	 1.1726371682	-2.0531302067	-0.80914961	-0.110903
C	 1.4700323912	-2.6630754335	-2.1875332994	-0.057879
C	 0.1344608968	-3.286608982	-2.3357311837	-0.059964
C	-0.3269633686	-2.4770695458	-1.0954316796	-0.067982
C	-0.2907230146	-1.1955444712	-1.9831658906	-0.038516
N	 0.41661912	-2.0050463786	-3.0549181157	-0.161125
H	 0.651041315	 1.9994348471	-0.5333760707	 0.108468
H	-0.9960004907	 1.3783527409	-0.8138026328	 0.109331
H	-0.449309338	 1.7310917581	 0.8453859742	 0.12852
H	 1.5736227616	 0.048793419	-1.5944637207	 0.068799
H	 1.7448627546	-2.3581948884	 0.0638554303	 0.080068
H	 2.4186935732	-2.8997110531	-2.6519399118	 0.097769
H	-0.200688107	-4.1856128889	-2.8380844047	 0.096216
H	-1.0554832131	-2.7289399093	-0.3319464579	 0.081201
H	-1.152008188	-0.6423784388	-2.3544937105	 0.075514
