14
gdb 28126	5.34749	1.29076	1.04329	2.7957	71.94	-0.182	0.0091	0.191	1059.9729	0.104298	-432.89833	-432.891251	-432.890306	-432.929696	27.173	
N	 0.1512949629	 1.3755384096	 0.1056199333	-0.604254
C	-0.0025232513	-0.0177547983	 0.0143261531	 0.334785
C	-1.1452239476	-0.80668639	-0.0325720725	-0.423827
C	-0.64610438	-2.1330438289	-0.0137659601	 0.33592
C	 0.7218331749	-2.1197992351	 0.027854564	 0.300276
N	 1.1375348134	-0.8092035918	 0.0357327258	-0.419482
N	 1.2387558328	-3.3904831581	 0.003719332	-0.356809
C	 0.1617165275	-4.1216956109	-0.0414913792	 0.028696
O	-1.0330730582	-3.4419608485	-0.0603390173	-0.210244
H	 0.5304857878	 1.7857791969	-0.7430720642	 0.248533
H	-0.7328235495	 1.8250570415	 0.3065304636	 0.251601
H	-2.1589368263	-0.446960501	-0.0952063139	 0.103384
H	 2.0576927281	-0.4582082949	 0.2371548587	 0.267783
H	 0.0935407955	-5.1968588706	-0.0625688933	 0.143639
