19
gdb 82323	2.54052	1.7343	1.28666	0.9669	73.62	-0.2479	0.0675	0.3155	1023.4577	0.160271	-422.999676	-422.991911	-422.990967	-423.031644	31.202	
O	 0.4342659658	 0.8125793834	 0.8183716821	-0.436229
C	-0.014737789	-0.3149526239	 0.0887542531	 0.048958
C	-1.5037607136	-0.282927394	-0.1740815218	-0.04274
C	-1.9955221334	 0.5995664202	-1.2953108604	-0.288446
C	-1.7389375676	-0.8635431171	-1.5581061321	-0.038717
C	-0.3916245174	-1.2419454586	-2.1636291187	-0.316637
C	 0.5998262998	-0.4593813125	-1.3111015311	 0.412394
C	 1.5299307009	 0.5358323867	-1.8538387196	-0.246742
O	 1.9950142085	-0.7386895156	-1.3807663117	-0.312728
H	 1.3445365559	 0.638113406	 1.0815525386	 0.289336
H	 0.2206746457	-1.237375398	 0.6456439904	 0.075282
H	-2.1713452024	-0.5008150938	 0.6508730263	 0.087927
H	-3.0309361838	 0.9168770222	-1.243420642	 0.111858
H	-1.3254280109	 1.3430285472	-1.7131624337	 0.121157
H	-2.5881480364	-1.5101336102	-1.7460701442	 0.086352
H	-0.2114062244	-2.3172892794	-2.0432879916	 0.11328
H	-0.3037488726	-1.0110504544	-3.2300287434	 0.10559
H	 1.5895079904	 0.6789033715	-2.9320394524	 0.11227
H	 1.8123992343	 1.3924048603	-1.2469293878	 0.117834
