19
gdb 117006	3.4864	0.60183	0.51988	4.579	85.09	-0.2541	-0.0448	0.2093	2130.8165	0.155278	-423.002235	-422.991222	-422.990278	-423.041477	36.442	
C	 0.0045227582	 1.5939209805	-0.0348582986	-0.36949
C	 0.0389759482	 0.0553199415	-0.0619467609	-0.322903
C	 0.7077495603	-0.4910026575	-1.2344918743	 0.102557
C	 1.2629263585	-0.9413981853	-2.2079501447	-0.00188
C	 1.928405156	-1.4892205885	-3.3746156276	 0.202451
O	 2.0508188566	-2.6761096613	-3.5654091857	-0.263942
C	 2.4557877863	-0.4251177577	-4.3320254445	-0.156582
O	 3.0798207952	-1.0226684076	-5.4239328693	-0.212281
C	 3.5877721419	-0.084547847	-6.3441383036	-0.225904
H	 1.016979336	 2.0061011809	-0.0373870924	 0.132468
H	-0.5239734071	 1.9869112022	-0.9073361638	 0.132468
H	-0.5080800738	 1.9440382648	 0.8653987655	 0.123086
H	 0.5409397164	-0.324001482	 0.837435147	 0.145104
H	-0.9830678127	-0.3429828735	-0.0229475473	 0.145104
H	 1.6040965657	 0.2128081003	-4.6337865663	 0.111814
H	 3.1418079611	 0.2319624907	-3.7654498417	 0.111812
H	 4.0529633204	-0.6484956451	-7.1554843002	 0.135205
H	 2.7913273109	 0.5514154524	-6.7620766658	 0.105457
H	 4.344778012	 0.5707686021	-5.8848468658	 0.105457
