17
gdb 85574	2.77186	1.42309	1.10487	1.8208	70.47	-0.2519	0.0096	0.2615	1107.1177	0.137198	-455.191555	-455.183164	-455.18222	-455.224918	31.099	
C	 0.2175279639	 1.5155802011	 0.0262685449	-0.392625
C	 0.0487320326	-0.0153676189	 0.030930631	-0.074351
N	 0.6219714961	-0.6577355763	-1.1477525726	-0.313328
C	 1.9358817811	-0.990444694	-1.2494588622	 0.386176
O	 2.4870340955	-1.3250625079	-2.2783928719	-0.364003
C	 2.6907042919	-0.9012457416	 0.0720403465	-0.20372
O	 1.8935670311	-1.1188452851	 1.2401394742	-0.244554
C	 0.6274435794	-0.6304187995	 1.2942756734	 0.411197
N	-0.0705860018	-0.6724811514	 2.3475334039	-0.515244
H	 1.2737084512	 1.8023608048	 0.0396858984	 0.124959
H	-0.2371190131	 1.9412867885	-0.8732220771	 0.123375
H	-0.270610276	 1.943038404	 0.9052738676	 0.151076
H	-1.0178022352	-0.2465865848	 0.0544420002	 0.131612
H	 0.1056983788	-0.6334278865	-2.0157758367	 0.256398
H	 3.4625182259	-1.6708943736	 0.0749391436	 0.158569
H	 3.1852242417	 0.0779309314	 0.133666645	 0.138817
H	 0.4666265269	-1.0775224802	 3.116568922	 0.225647
