21
gdb 97805	2.65197	0.73454	0.61419	1.9029	89.98	-0.2378	0.0327	0.2705	1868.8008	0.180705	-387.049248	-387.0386	-387.037656	-387.08693	37.487	
C	 0.0194115451	 1.4658732135	-0.0274447688	-0.374267
C	-0.0722238249	 0.0059015203	 0.4310221969	-0.199381
C	-1.4227570579	-0.6099499027	 0.1363982091	 0.022092
C	-1.7324963078	-1.1892334905	-1.2120625248	-0.285026
C	-1.6001887897	-2.120176244	-0.0108659929	-0.213937
C	-0.4840660569	-3.0128733311	 0.0911105599	 0.07074
C	 0.4518621719	-3.7708942814	 0.1716200027	 0.049116
C	 1.5771449666	-4.6890803396	 0.3285667276	-0.191096
O	 2.4394453212	-4.3600460858	 1.4118601504	-0.404346
H	 1.0028989286	 1.8889169647	 0.1990742355	 0.11358
H	-0.1440719648	 1.5507713522	-1.1068635092	 0.117489
H	-0.7329834337	 2.0876632758	 0.4705181788	 0.112314
H	 0.7097644283	-0.5887433025	-0.0533061815	 0.112445
H	 0.1256868566	-0.0553148176	 1.5087812095	 0.099372
H	-2.2555764716	-0.1217483372	 0.637754942	 0.08729
H	-2.7221675472	-1.058449091	-1.6353046131	 0.115794
H	-0.9294017348	-1.2262981735	-1.9400568351	 0.124318
H	-2.5341802908	-2.5166445924	 0.3776691826	 0.107157
H	 1.1933791946	-5.7179990663	 0.4240747946	 0.115286
H	 2.2094597308	-4.6732469059	-0.5665357787	 0.136148
H	 1.8825055864	-4.2176177348	 2.1842345746	 0.284912
