15
gdb 23438	3.90985	1.23127	1.07225	1.2129	69.28	-0.2553	-0.0195	0.2359	1092.2384	0.113532	-453.896801	-453.889531	-453.888587	-453.929048	27.462	
O	-0.1110820219	 1.4032355712	 0.372580062	-0.381845
N	 0.0589479575	 0.0158117651	 0.3386065671	-0.221131
C	-1.0077339729	-0.5681404983	-0.0135120642	 0.40352
C	-2.4315693817	-0.1621467768	-0.359060258	-0.332759
C	-2.7589676116	-1.6775956022	-0.5448983965	-0.017453
N	-2.872242333	-2.0947708218	-1.9457843225	-0.260087
C	-1.7484695724	-2.5952176971	-2.2555720195	 0.119041
O	-0.7515079339	-2.6768506685	-1.3351109967	-0.221521
C	-1.2854189268	-2.0525296693	-0.1462677003	-0.019787
H	 0.759648483	 1.7123840403	 0.6466208835	 0.312556
H	-2.9585101994	 0.337341705	 0.459741314	 0.13179
H	-2.5454535972	 0.4372271045	-1.2661653139	 0.13992
H	-3.5860623061	-2.0656311823	 0.0510524063	 0.09295
H	-1.4863400267	-2.9980040187	-3.2276349415	 0.147172
H	-1.0594532571	-2.689402591	 0.7094774903	 0.107632
