21
gdb 40179	3.18578	1.45491	1.22321	1.3164	81.94	-0.2294	0.0812	0.3106	1100.4289	0.184217	-387.06856	-387.060825	-387.059881	-387.100465	31.897	
C	 0.0511012926	 1.503335547	-0.0365092516	-0.335802
C	 1.3235323096	 0.6718481825	-0.0561776412	-0.323145
C	-0.0319088925	 0.0175106827	 0.067788079	 0.470848
C	-0.4378167705	-0.6829425247	 1.3451167951	-0.285644
C	 0.1525937691	-2.1040882609	 1.3666345273	-0.225189
C	 0.0409825189	-2.7953354195	 0.0172426998	-0.03815
C	-1.276342304	-2.9583587844	-0.7131392183	-0.306757
C	-0.2520675464	-1.9705430334	-1.2094555503	 0.089765
O	-0.5584078908	-0.6051647601	-1.0795625606	-0.298608
H	-0.1708699474	 2.0974015047	 0.8435770877	 0.109693
H	-0.2689139217	 1.9410954663	-0.9751386858	 0.12267
H	 1.8354103046	 0.5747465312	-1.0066354924	 0.115965
H	 1.9745636214	 0.6987815949	 0.811745774	 0.107219
H	-0.0933858334	-0.1195333357	 2.2180414691	 0.096685
H	-1.533407599	-0.7129593117	 1.3935529448	 0.104542
H	 1.2170163006	-2.0311449731	 1.6213091493	 0.101987
H	-0.3174773763	-2.7063047674	 2.1530806484	 0.097102
H	 0.7502490958	-3.6055861347	-0.1266180927	 0.085512
H	-1.4461916036	-3.8717932401	-1.272826896	 0.106963
H	-2.1667569889	-2.5282800178	-0.2667805553	 0.116693
H	 0.2818580718	-2.185987636	-2.1316375704	 0.087651
