13
gdb 25108	3.18897	1.48397	1.11423	3.4257	70.67	-0.2582	-0.0989	0.1593	1021.9752	0.089876	-452.758169	-452.750989	-452.750045	-452.790367	26.522	
N	-0.0664005455	 1.3692336329	 0.265587705	-0.457672
C	-0.0085989362	 0.13956051	 0.0142347594	 0.410997
O	 1.2382927304	-0.5227822499	-0.0099765592	-0.220572
C	 1.6300052148	-1.2471365883	-1.073297016	 0.073835
C	 0.906225894	-1.7442867048	-2.0924050541	-0.252353
C	-0.5471778363	-1.8342667255	-2.2019169942	 0.330295
O	-1.11331651	-2.2884101328	-3.179595541	-0.324687
C	-1.3877632521	-1.4790720189	-0.9988658242	-0.049039
N	-1.1506597236	-0.6415221335	-0.0748790137	-0.192639
H	 0.8673872402	 1.7766135861	 0.2986658396	 0.243782
H	 2.7054789224	-1.3926381873	-1.0367926404	 0.15131
H	 1.4537205538	-2.2318493332	-2.8911793996	 0.132851
H	-2.3428007021	-2.0077947047	-0.9738006916	 0.15389
