21
gdb 113963	4.01911	0.74246	0.73166	1.2453	79.87	-0.2344	0.0723	0.3067	1634.8886	0.182874	-420.335681	-420.326218	-420.325274	-420.371159	34.645	
O	-0.0211348534	 1.1969365541	-0.7872308177	-0.422227
C	-0.0387749702	 0.2013848849	 0.2221086942	-0.064967
C	-1.3361221187	-0.5744802181	 0.1845725636	-0.04494
N	-1.5013797818	-1.4393171799	-1.0031313533	-0.350414
C	-1.4626176253	-2.047886215	 0.3405929952	-0.007778
C	-0.322099195	-2.9926865921	 0.6417512685	-0.161735
N	-0.7003898078	-4.3544741249	 0.274448641	-0.071035
C	-0.4350402875	-4.7357767382	-1.1114437974	-0.213654
C	 0.3993242816	-5.2728596562	-0.0018296704	-0.223895
H	-0.1935446719	 0.7314062569	-1.6145217847	 0.288154
H	 0.8187252966	-0.4784254137	 0.1233282474	 0.088393
H	 0.06168401	 0.727094372	 1.1776304732	 0.108341
H	-2.2032467824	 0.0133574193	 0.4821187639	 0.09027
H	-2.4561294511	-1.3966448159	-1.3475076452	 0.234943
H	-2.4110522308	-2.3983731657	 0.7444200769	 0.095433
H	 0.5882461394	-2.659698789	 0.1177429024	 0.088532
H	-0.1104088796	-2.9827756292	 1.7185816374	 0.104985
H	-1.1909992869	-5.3582758522	-1.5814770206	 0.113369
H	 0.0127769675	-3.9889552501	-1.7629575139	 0.124098
H	 1.4162787497	-4.8930174723	 0.0854986317	 0.108265
H	 0.2636168475	-6.2912625947	 0.3508922479	 0.115861
