20
gdb 47932	2.1625	1.6269	1.12287	3.9082	75.09	-0.2219	0.0106	0.2325	1139.9473	0.173618	-440.306307	-440.297944	-440.296999	-440.339472	32.093	
O	-0.0933498462	 0.0493442692	 0.7120240434	-0.326267
C	-0.0550749632	 1.150271114	 0.2277203596	 0.385507
C	-1.3390283584	 1.9758532161	 0.0274154085	-0.283032
N	-1.9695525211	 1.824196541	-1.2799846372	-0.275198
C	-1.3710862342	 2.4805698376	-2.4410326012	-0.163706
C	 0.0102404588	 1.9767674285	-2.9289346809	-0.202847
C	 1.2393465353	 2.7177974473	-2.3764604361	-0.202353
C	 1.2800525881	 2.886657414	-0.8593765274	-0.073513
O	 1.1451516102	 1.6354117485	-0.1771749913	-0.219449
H	-2.0278464876	 1.5903009445	 0.7830752099	 0.135194
H	-1.1975793955	 3.0413581175	 0.2279810822	 0.11959
H	-2.1157372399	 0.8381886938	-1.4699104793	 0.228376
H	-2.0916964245	 2.3595144174	-3.2573979009	 0.110528
H	-1.3306518409	 3.5588628395	-2.2358784456	 0.102754
H	 0.0911956012	 0.9069343541	-2.7013676357	 0.114847
H	 0.0470240896	 2.0513768565	-4.0220146089	 0.100996
H	 2.1444789334	 2.1910905045	-2.6994064562	 0.11499
H	 1.2918782255	 3.7248527711	-2.8115219334	 0.103219
H	 2.2534335686	 3.2780728079	-0.5507877359	 0.121892
H	 0.5241183109	 3.599513157	-0.5208252236	 0.108474
