15
gdb 51060	4.3549	1.3033	1.22374	2.5967	68.67	-0.2214	0.0113	0.2327	1009.3692	0.112687	-416.696503	-416.689431	-416.688487	-416.7288	26.829	
O	 0.4083711446	 1.8761402454	 1.5159258983	-0.300474
C	 0.1633951694	 1.7705611522	 0.3386556506	 0.131852
N	 1.0425390046	 1.3245750946	-0.6185976685	-0.453262
C	 2.3348808012	 0.8653358451	-0.3329214123	 0.424546
C	 3.4478503358	 1.5867538103	 0.4344395665	-0.130198
C	 4.0266062075	 0.2099110354	 0.8371829058	-0.032981
C	 2.9541111405	-0.5028537491	 0.0978068628	-0.118124
N	 4.2452954211	-0.1706622718	-0.6055041907	-0.177196
C	 3.6516213135	 1.1789575275	-1.0025744626	-0.099315
H	-0.8141462875	 2.0390888967	-0.1099455564	 0.0787
H	 0.6844830488	 1.2114883159	-1.5562576655	 0.25133
H	 3.4029554565	 2.553659334	 0.9116406141	 0.115895
H	 4.6898894363	-0.1108143578	 1.6308531616	 0.102925
H	 2.5728389327	-1.5150405298	 0.1665171972	 0.100291
H	 3.8988701749	 1.7299676314	-1.9016055709	 0.10601
