19
gdb 122619	3.58793	0.85279	0.72059	2.5606	73.4	-0.2347	-0.0316	0.2031	1554.2389	0.157306	-460.151752	-460.142258	-460.141314	-460.187429	33.822	
O	-0.1697800278	 1.3500358064	 0.4027240603	-0.421867
C	 0.0555457584	 0.0621746099	-0.1356538744	-0.062895
C	-1.2410904999	-0.7158920768	-0.2827613561	-0.089033
O	-2.0725333373	 0.0484968313	-1.1575894657	-0.271214
C	-3.3687249147	-0.4479545113	-1.2956929424	 0.057459
C	-4.3112005922	 0.3554551559	-2.2329697349	-0.273948
C	-4.8209602716	-0.9716742944	-2.8734226075	-0.341271
C	-3.6077502461	-1.6653066408	-2.2275524611	 0.368985
O	-2.9859952467	-2.6606281248	-2.4607377235	-0.292414
H	-0.8743431386	 1.7364022978	-0.1303145373	 0.28813
H	 0.5549678217	 0.1154472572	-1.1160325566	 0.096971
H	 0.7231766813	-0.4661026725	 0.5526631011	 0.111258
H	-1.0636221047	-1.7167098729	-0.6958533488	 0.123273
H	-1.7329315967	-0.8182785011	 0.6973278153	 0.097005
H	-3.8386516923	-0.6317835856	-0.3136146129	 0.09035
H	-5.05105671	 0.990421624	-1.7462644222	 0.115641
H	-3.723773249	 0.948471387	-2.9368034751	 0.130098
H	-5.765673851	-1.3256659025	-2.4488726027	 0.136014
H	-4.8824101128	-1.0301465168	-3.9617644853	 0.137459
