25
gdb 100762	2.77882	0.87938	0.80102	0.1716	85.28	-0.2486	0.0644	0.313	1621.6895	0.225715	-426.635185	-426.623306	-426.622362	-426.672359	43.442	
C	 0.007018653	 1.5609432185	 0.1876703329	-0.385448
C	 0.0165284027	 0.0369784929	 0.0509406811	-0.186026
C	 0.6791459007	-0.4486354617	-1.2424723399	 0.096316
O	 2.0436618869	-0.0388509304	-1.3222180419	-0.42693
C	 0.5431547054	-1.9772526756	-1.4243977112	 0.094985
O	-0.8310280253	-2.3619075378	-1.4140146949	-0.434944
C	 1.3017444245	-2.5381035902	-2.6474844285	 0.040944
C	 1.3419987123	-4.0708529112	-2.5881028569	-0.39655
C	 0.7153931677	-2.0585067129	-3.9843829952	-0.417265
H	 1.0205337455	 1.9650911454	 0.1140599668	 0.123432
H	-0.5908821103	 2.0232832239	-0.6058322714	 0.112266
H	-0.4180303279	 1.8701793375	 1.1472567484	 0.109786
H	 0.5523448733	-0.4130506779	 0.90110137	 0.080539
H	-1.0000516262	-0.3657671835	 0.0889747183	 0.114999
H	 0.1951171236	 0.0496249716	-2.0942843027	 0.076863
H	 2.4887660945	-0.3581480958	-0.5287382252	 0.278714
H	 0.9618014368	-2.4541533666	-0.525793621	 0.069618
H	-1.246563906	-1.9836090928	-2.1965638564	 0.282001
H	 2.3236722115	-2.1506409009	-2.5739504869	 0.085742
H	 0.3278809355	-4.4826339747	-2.586947092	 0.123871
H	 1.8793681184	-4.4853028447	-3.4471262158	 0.105244
H	 1.8429143675	-4.4205823252	-1.6788190407	 0.105715
H	-0.3144853887	-2.4106429929	-4.1252315012	 0.104398
H	 0.7228561211	-0.9682026275	-4.0742006405	 0.123036
H	 1.2990206336	-2.4579600574	-4.8193700154	 0.118695
