19
gdb 47406	2.65868	1.53162	1.18232	1.8569	75.3	-0.2394	-0.0267	0.2127	1093.1416	0.15997	-423.035974	-423.027901	-423.026957	-423.068975	30.579	
O	-0.3644081576	 0.1055379272	 0.4515202088	-0.31781
C	-0.1885494759	 1.274114858	 0.2214468062	 0.302385
C	-1.2658405068	 2.3276678472	-0.049776387	-0.183109
O	-0.5695566658	 3.50921696	-0.396454722	-0.252001
C	 0.7090919792	 3.4563517231	 0.2428035974	-0.170053
C	 1.1490573368	 1.9968466809	 0.1483238861	 0.239321
C	 2.3076288083	 1.4945485255	 1.0453244382	-0.284783
C	 3.2584557007	 1.5198095682	-0.1809528442	-0.207878
C	 2.0180438013	 1.6261280829	-1.1066811255	-0.265188
H	-1.9313519121	 2.0371244732	-0.8678192569	 0.139553
H	-1.8751423487	 2.455085994	 0.8612228165	 0.119512
H	 1.3641142713	 4.1603899384	-0.2762971902	 0.116208
H	 0.6280941289	 3.7673816782	 1.2983858418	 0.092977
H	 2.5675857321	 2.1240707411	 1.90069525	 0.101023
H	 2.1004893043	 0.4801676738	 1.3973999864	 0.12613
H	 3.8747349064	 2.4223454507	-0.2095582719	 0.105521
H	 3.9079499275	 0.6539710201	-0.3242533254	 0.10671
H	 1.7256660309	 0.6577197301	-1.5203215752	 0.120699
H	 2.0366734392	 2.3665413772	-1.909848523	 0.110783
