24
gdb 101706	3.6095	0.75724	0.69139	2.4529	86.41	-0.2205	0.0752	0.2957	1712.6328	0.215428	-405.51157	-405.50069	-405.499746	-405.547739	39.814	
C	-0.176938871	 1.5511004189	-0.1730147982	-0.39347
C	-0.0589070221	 0.0308832497	-0.0098473886	 0.037706
C	-1.4378907691	-0.6134660113	 0.137421502	-0.082712
O	-2.0644445612	-0.0802321204	 1.2953550762	-0.4235
C	 0.7189401868	-0.6445339886	-1.1550764875	-0.228993
C	 2.1657866121	-0.1927251229	-1.2575426711	 0.022508
C	 3.0267368122	-0.5863213232	-2.4096025538	-0.266118
N	 2.6791605681	 0.8131852589	-2.1967973251	-0.076942
C	 1.8043706995	 1.431351726	-3.1798644936	-0.313523
H	 0.80762176	 2.0262829402	-0.2030447076	 0.125642
H	-0.7013394682	 1.8035462487	-1.1029229579	 0.103911
H	-0.7436823039	 1.9774220674	 0.6573975207	 0.132108
H	 0.4804067525	-0.1711694417	 0.9267647384	 0.08305
H	-2.0367684436	-0.4102738556	-0.766958235	 0.080678
H	-1.3281658939	-1.7071915295	 0.218398879	 0.080331
H	-2.9566120282	-0.4343560933	 1.3460228519	 0.28631
H	 0.7183825042	-1.7301378471	-0.9861910859	 0.099377
H	 0.1956791186	-0.4885590638	-2.1061174286	 0.095092
H	 2.6541873517	-0.1201977564	-0.2849917869	 0.086802
H	 4.0704590862	-0.8564389001	-2.2670976105	 0.109561
H	 2.5340241646	-1.1074135538	-3.2315445337	 0.099302
H	 1.0641020019	 0.7524822043	-3.6334152514	 0.096658
H	 1.2678754432	 2.2677272257	-2.7223240771	 0.124257
H	 2.4253734596	 1.8287017979	-3.9895617459	 0.121963
