11
gdb 23873	3.04852	1.74823	1.41129	1.7209	45.21	-0.2895	0.013	0.3025	841.7778	0.066377	-528.863071	-528.85523	-528.854286	-528.89565	27.695	
O	-0.0372120778	 1.4380062215	 0.0097234869	-0.398548
C	 0.0296210594	 0.0296766328	-0.0293766261	-0.1935
C	 0.6814624704	-0.4844888473	-1.2340658698	 0.306322
C	 1.2283837263	-0.8634991907	-2.2333339629	-0.436428
C	 0.7318546711	-0.4941338151	 1.2387087625	 0.27594
F	 0.0561583364	-0.1297368668	 2.3296463713	-0.063329
F	 0.8233932277	-1.8265215439	 1.22966658	-0.066572
F	 1.9702717824	 0.0139414876	 1.33079929	-0.0852
H	 0.8597880082	 1.774908503	-0.1040608774	 0.298423
H	-1.0050182678	-0.3267655977	 0.0216049402	 0.149948
H	 1.7081943136	-1.2088128932	-3.1163359247	 0.212943
