25
gdb 89310	2.50264	1.48128	1.15295	0.0501	92.65	-0.2776	0.0833	0.3609	1225.5196	0.229438	-352.370191	-352.360933	-352.359989	-352.403016	37.806	
C	-0.1125057521	 1.534254972	 0.018608679	-0.422833
C	 0.0632482681	 0.0160666411	 0.0326737084	 0.016355
C	 1.0114193457	-0.5444556865	-1.0789479482	-0.267647
C	 2.0034573772	-1.3479210773	-0.2106522968	 0.353125
C	 3.1082243491	-2.0994902075	-0.916845135	-0.497396
C	 2.2862694257	-0.3326166661	 0.9372474044	-0.300207
C	 0.7822081114	-0.575409081	 1.2779854252	 0.35107
C	 0.2026152104	-0.2764839326	 2.6421274573	-0.505205
C	 1.0336259923	-2.0374226097	 0.7962772903	-0.298884
H	 0.8427194479	 2.0562449219	 0.1412956171	 0.11338
H	-0.5451322858	 1.8640160876	-0.9322400108	 0.111851
H	-0.7817521434	 1.8704211926	 0.8178267431	 0.111609
H	-0.9305243294	-0.4421024099	-0.0511243286	 0.060444
H	 0.4892416242	-1.1760856288	-1.8054514847	 0.087354
H	 1.5132814047	 0.2555022803	-1.6356205922	 0.08701
H	 3.7437441118	-1.4179951915	-1.4949175022	 0.111785
H	 3.7497318016	-2.6304303058	-0.205212563	 0.109097
H	 2.7000325598	-2.8399666849	-1.6150451423	 0.111681
H	 2.9518503418	-0.7443900921	 1.701648925	 0.085847
H	 2.6130522541	 0.6768488189	 0.6685078263	 0.082344
H	 0.2167230601	 0.7971064189	 2.860422833	 0.11548
H	-0.8389305622	-0.6137153876	 2.7113315714	 0.1111
H	 0.7680641634	-0.7812963956	 3.4325892811	 0.109642
H	 0.1843496681	-2.6013145578	 0.394366793	 0.078579
H	 1.5630763352	-2.6378195086	 1.5421119392	 0.084421
