18
gdb 44486	3.74089	1.58893	1.46482	3.8207	74.51	-0.2338	0.0346	0.2683	932.8572	0.152212	-401.981881	-401.975549	-401.974605	-402.012311	26.973	
O	 0.0111901599	-0.0233115639	-0.0918619695	-0.386212
C	-0.0097851094	 1.1777473493	 0.0437752351	 0.39815
N	-1.1275892493	 1.9861039592	 0.1300560274	-0.31252
C	-0.7414395837	 3.3649285071	 0.2790848618	 0.026533
C	 0.0951598913	 4.0672398567	-0.8809754725	-0.05898
C	 0.9619337083	 4.669585937	 0.2557427137	-0.240489
C	 0.6495211402	 3.3336222734	 0.9653048228	-0.034085
C	 1.1514899107	 2.1818135812	 0.0445393086	-0.151525
C	 0.9945000627	 2.9095660393	-1.3461582552	-0.222578
H	-2.0504483762	 1.6505575762	-0.0920009851	 0.250258
H	-1.505112907	 3.9919180625	 0.7371540494	 0.08683
H	-0.3756461102	 4.6871069766	-1.6433586611	 0.065883
H	 2.0014167283	 4.913431671	 0.0235614298	 0.098519
H	 0.4840622117	 5.5127586012	 0.7618179485	 0.100082
H	 0.7484722838	 3.1890657496	 2.0411961719	 0.075163
H	 2.1212493702	 1.7338013846	 0.2463102449	 0.085857
H	 0.5435059675	 2.2647164906	-2.104173824	 0.114131
H	 1.9521103613	 3.2704417486	-1.7300302465	 0.104984
