14
gdb 27941	2.57629	1.40416	0.91068	6.1144	70.97	-0.2021	-0.0267	0.1754	1186.5668	0.101499	-470.049131	-470.040883	-470.039939	-470.081844	30.433	
N	 0.1462520433	 1.3318816152	 0.1370012957	-0.590244
C	-0.0296545292	-0.0235948719	 0.0157280455	 0.442837
N	-1.1098328296	-0.7119513018	 0.0070665486	-0.36154
C	-0.671426992	-2.0526765786	-0.0118707855	 0.100889
C	-1.5326548142	-3.2121984969	 0.0038082911	 0.065758
O	-2.7442850403	-3.2153045596	 0.0242247776	-0.286864
C	 0.7023236912	-2.0555190526	-0.0409620827	 0.317423
N	 1.6785519387	-3.0071221129	-0.1682880354	-0.593183
O	 1.1365764851	-0.7657571586	-0.0179884445	-0.206741
H	 0.927441853	 1.7054935876	-0.3839236859	 0.265382
H	-0.7123477935	 1.8397504467	-0.0222872161	 0.276812
H	-0.9637514908	-4.1766725133	-0.0006494745	 0.026009
H	 1.3672553924	-3.9518464394	 0.0022387022	 0.273449
H	 2.5463142159	-2.7886851939	 0.3024145139	 0.270012
