18
gdb 52237	4.40453	0.91611	0.84449	4.6331	73.93	-0.2492	0.0286	0.2777	1377.6132	0.14719	-439.027921	-439.019479	-439.018535	-439.062034	30.88	
N	-0.4437750185	 1.0291548256	-0.3819539931	-0.442447
C	-0.5413307364	-0.2264354126	-0.4546868737	 0.132398
O	-0.5783813844	-0.9578340217	 0.6829783341	-0.186909
C	-0.7146651642	-2.3685075089	 0.5329204831	-0.114298
C	-2.1578117889	-2.7795000097	 0.3119303335	 0.128372
O	-2.6794937874	-2.424158679	-1.0050361012	-0.305891
C	-3.1380622648	-3.7674939686	-1.1935428344	 0.116649
C	-1.9922973858	-4.7207497514	-1.2588747459	-0.30027
C	-2.50611729	-4.2508448361	 0.0918725305	-0.156503
H	-0.4197920537	 1.4254853107	-1.3192813874	 0.227673
H	-0.6053818969	-0.8317855525	-1.3659855666	 0.10017
H	-0.0764246861	-2.7347814947	-0.279513515	 0.110272
H	-0.3579824937	-2.8027495165	 1.4719951379	 0.125774
H	-2.7885730564	-2.3176669422	 1.080833243	 0.104362
H	-4.119591435	-3.9104397529	-1.6289525702	 0.112694
H	-2.2542731111	-5.7487597263	-1.4896623782	 0.122188
H	-1.0372171826	-4.3934910613	-1.6578661407	 0.117926
H	-2.8768928739	-4.9278618418	 0.8486725544	 0.10784
