15
gdb 36014	2.26827	1.20849	0.85933	4.8624	69.44	-0.3072	0.001	0.3082	1285.1345	0.111957	-416.803532	-416.794771	-416.793827	-416.838104	30.342	
N	-0.6737747328	-0.6962221015	-0.2252540234	-0.287096
C	-0.2499665293	 0.3682047398	-0.3711220857	 0.273601
C	 0.2880098835	 1.7139980041	-0.538020045	-0.372172
C	 1.7098187905	 1.861468047	 0.064102627	-0.180416
C	 2.7194449364	 1.1691844947	-0.741502985	 0.280042
N	 3.5272207271	 0.6546712069	-1.387285922	-0.301436
C	 2.125576397	 3.3247075875	 0.2495101963	 0.069859
C	 1.681799572	 4.4176335477	-0.6204214408	-0.171778
O	 1.1111912265	 4.2174905265	 0.6823304804	-0.229571
H	 0.2949042131	 1.9627684709	-1.6032029258	 0.170406
H	-0.3617766103	 2.4321921737	-0.028520221	 0.186253
H	 1.7035779791	 1.3983621999	 1.0584086795	 0.162583
H	 3.0804109502	 3.4329240704	 0.7632637175	 0.130442
H	 2.307658934	 5.3011944514	-0.7220951781	 0.13987
H	 1.0123362331	 4.225533561	-1.4555322437	 0.129415
