17
gdb 124828	4.46977	0.89836	0.89021	3.4247	69.78	-0.2707	-0.0214	0.2493	1356.0349	0.136458	-451.313908	-451.305161	-451.304217	-451.34864	31.093	
C	-0.0761829862	 1.5747727959	 0.0407332309	-0.404001
C	-0.020429522	 0.052245491	-0.0814687188	 0.133675
O	 0.8536679105	-0.5173192016	 0.8865957337	-0.428593
C	-1.3932693011	-0.5885761013	 0.1570430986	-0.297079
C	-1.3921793367	-2.0683181873	-0.0418281119	 0.408303
N	-1.0184055028	-2.6728138242	-1.1670918456	-0.26957
N	-1.2008572314	-3.9460904869	-0.8455942995	-0.066067
N	-1.6592154914	-4.1506985822	 0.3787508486	-0.104394
N	-1.7870770179	-2.9605924858	 0.9054481742	-0.249805
H	 0.9175674971	 2.0097271759	-0.1139537214	 0.107333
H	-0.7479555366	 2.0095558717	-0.7067571229	 0.116874
H	-0.4232171133	 1.8662496814	 1.0371261194	 0.127887
H	 0.3105844402	-0.2189725176	-1.0961353288	 0.085554
H	 1.7398850374	-0.1795308332	 0.7245088727	 0.28307
H	-1.7133780861	-0.3861727465	 1.1828454022	 0.136302
H	-2.1207316341	-0.127166404	-0.5197163605	 0.121851
H	-1.0071344557	-4.7047785352	-1.4819029009	 0.298661
