18
gdb 68122	3.47058	1.32911	1.14547	3.3612	77.45	-0.2344	-0.0321	0.2024	1103.9169	0.14677	-401.905135	-401.897081	-401.896136	-401.937546	31.443	
C	 0.0891897353	 1.5243549089	 0.0441122979	-0.513487
C	 0.0230084055	 0.0203041095	 0.0082903628	 0.283325
C	 0.6907703934	-0.8587852635	-1.1048120251	-0.290956
C	 0.5430587209	-1.900798318	 0.0717261668	 0.203817
N	 0.8047961228	-0.7792644069	 1.0560141814	-0.36317
C	 1.3948483487	-3.1239031287	 0.1096367598	 0.039758
O	 2.4399862147	-3.1956400397	 0.7064808008	-0.25189
C	-0.9907698456	-1.9854862347	 0.1658879151	-0.117858
C	-1.3345377091	-0.698652977	 0.1390438781	-0.097611
H	 1.1169754935	 1.8799488122	-0.0792847668	 0.120204
H	-0.5166417389	 1.9598229536	-0.7574742146	 0.124893
H	-0.2873721184	 1.9004181222	 1.0007571502	 0.137368
H	 0.1476795329	-1.0438556787	-2.0358059044	 0.101463
H	 1.7348162299	-0.5880820387	-1.2967016624	 0.104173
H	 1.7963307285	-0.5355188353	 0.9658171416	 0.213984
H	 1.0119218541	-3.9782099752	-0.4950595644	 0.07682
H	-1.5840350609	-2.8829980012	 0.2600063926	 0.117322
H	-2.3040704072	-0.226113869	 0.2061480506	 0.111844
