19
gdb 90380	2.53135	1.35722	1.16873	0.8105	82.36	-0.2414	0.0488	0.2902	1148.0927	0.157247	-385.828783	-385.819639	-385.818695	-385.86208	35.202	
C	 0.0017087049	 1.5583227396	-0.0153231674	-0.501325
C	 0.0781929542	 0.0600975897	-0.0269081813	 0.332683
C	 0.6266393624	-0.9204973195	-1.059064346	-0.114223
C	 1.2554906529	-1.7787144396	 0.0409871959	-0.273602
C	 0.6804282069	-0.7840263412	 1.1075378557	 0.057175
O	 1.665224858	-0.0262759538	 1.781390761	-0.438548
C	-0.8740023788	-0.806049427	-0.838362372	-0.276728
C	-1.67956188	-1.8585339616	-0.2859000613	 0.342159
C	-2.3549026965	-2.7390307793	 0.1806712266	-0.463334
H	 0.9536558765	 1.9865101073	 0.3099713093	 0.140572
H	-0.2308469113	 1.9471426253	-1.0120947145	 0.113949
H	-0.7765345962	 1.9107392437	 0.6716396802	 0.123729
H	 1.0475471071	-0.7243647708	-2.0388298104	 0.087746
H	 0.9323284441	-2.8222997297	 0.092967605	 0.10442
H	 2.3461163207	-1.7219627175	 0.0410352326	 0.103783
H	-0.0458144196	-1.2081788187	 1.813842525	 0.073141
H	 2.0826612592	-0.5964411695	 2.4345731206	 0.284442
H	-1.3696209488	-0.2361939225	-1.621381654	 0.111331
H	-2.9559073856	-3.5141026148	 0.587238525	 0.19263
