17
gdb 6914	5.08315	1.08192	0.99992	5.2183	69.52	-0.2785	0.0307	0.3091	1188.5693	0.13968	-363.869283	-363.860349	-363.859404	-363.903273	31.611	
C	 0.0147905681	 1.5208634449	-0.1230435287	-0.457009
C	-0.0629172329	 0.0258507619	 0.100796195	 0.388026
C	-1.2099792372	-0.6634650225	-0.6085622549	-0.451561
O	 1.1915943291	-0.6819515282	 0.0273042769	-0.281385
C	 0.5243983786	-0.631888859	 1.2841548198	 0.013905
C	 1.2260242475	 0.1056713526	 2.4156317028	-0.376617
C	 2.2167561053	-0.7376127843	 3.0856641173	 0.265042
N	 2.9875831327	-1.4138735229	 3.6175833258	-0.298973
H	 0.8921422135	 1.9669250044	 0.3475146732	 0.127584
H	 0.0729584556	 1.7302826272	-1.1963511611	 0.134651
H	-0.8818385563	 2.0171932795	 0.2633885701	 0.126279
H	-1.1451557441	-0.492475468	-1.6883569892	 0.131228
H	-1.1869495546	-1.7412077367	-0.4318063118	 0.133115
H	-2.1729570941	-0.271420672	-0.2643628029	 0.123663
H	 0.087075461	-1.5814999767	 1.5978831757	 0.105285
H	 1.7260403583	 1.0016593766	 2.0404724216	 0.159968
H	 0.4868183894	 0.4267512632	 3.1598324204	 0.1568
