21
gdb 108217	2.20722	1.47738	1.16157	3.0024	78.92	-0.2356	0.0593	0.2948	1172.4965	0.181407	-424.192186	-424.182548	-424.181603	-424.226422	36.47	
C	-0.0343016158	 1.5511422274	 0.1118402091	-0.509043
C	 0.1149871915	 0.0597419543	 0.0354070627	 0.249514
C	 0.5700463086	-0.7318380787	-1.198170603	-0.289297
C	 1.3229893006	-1.7411112826	-0.2690976838	-0.291534
C	 0.8574283482	-0.9454281522	 0.9544032064	 0.269996
C	 1.6031130536	-0.7330535413	 2.2459803191	-0.176616
O	 1.3074969411	-1.7253068367	 3.2214561493	-0.426925
C	-0.6451422512	-0.8888006704	 0.9335571698	-0.001129
O	-1.1860973347	-0.3750054458	 2.1239697912	-0.439591
H	 0.8880833549	 2.0630910244	-0.184008546	 0.120714
H	-0.8309258262	 1.9011647888	-0.5577186066	 0.115209
H	-0.2852178011	 1.8703854356	 1.1274883773	 0.124661
H	-0.2301843587	-1.1421299254	-1.8248573292	 0.091906
H	 1.2517334858	-0.1649493029	-1.8373836035	 0.104171
H	 1.0024041623	-2.7873048301	-0.3138923027	 0.098654
H	 2.4063152889	-1.7039864515	-0.4082372816	 0.104576
H	 2.6823608302	-0.7955596665	 2.0680976367	 0.10113
H	 1.3934599145	 0.2733304122	 2.6349177795	 0.093551
H	 0.3689877412	-1.6276486339	 3.4195218074	 0.292414
H	-1.2179889971	-1.7157279104	 0.5027050781	 0.074312
H	-2.0018361565	 0.0926341859	 1.9171713898	 0.293328
