21
gdb 72886	2.92312	1.42696	1.17256	1.7644	82.93	-0.236	0.0676	0.3036	1145.1422	0.182213	-387.046174	-387.037725	-387.036781	-387.07921	33.137	
C	-0.4627365332	 1.5488926125	-0.0588217324	-0.499458
C	 0.0173245146	 0.1170215045	-0.0130952954	 0.314636
C	-1.0079680814	-0.9983140365	 0.2902072691	-0.118112
O	-0.1920414478	-1.5478871659	 1.3493149273	-0.290903
C	 0.8196451537	-0.5369929134	 1.1581305159	-0.024876
C	 1.9130616267	-0.939514877	 0.1720813509	 0.386094
C	 3.393712326	-0.8581837388	 0.4169296051	-0.33017
C	 2.7255099934	-2.1969902584	 0.2161472255	-0.314223
C	 1.133823541	-0.3305503868	-1.0087426694	-0.389882
H	 0.3782108015	 2.2507405247	-0.0547037282	 0.119025
H	-1.0443325709	 1.7385657106	-0.9695179424	 0.119678
H	-1.1020211477	 1.7835369728	 0.7992157739	 0.120019
H	-1.9711470277	-0.6390181201	 0.6771607235	 0.09469
H	-1.1951223691	-1.7214748067	-0.5143553417	 0.095821
H	 1.1039307824	-0.0514580085	 2.0974688459	 0.065303
H	 4.0194736618	-0.4711159951	-0.3814657886	 0.109319
H	 3.73171478	-0.5964901725	 1.4150798898	 0.112308
H	 2.5985929697	-2.849072435	 1.0739238318	 0.122784
H	 2.9004936524	-2.7187730782	-0.7194654357	 0.110962
H	 0.8108102482	-1.0284701959	-1.7880398675	 0.097212
H	 1.6444169567	 0.5111936638	-1.4873515076	 0.099775
