17
gdb 5127	3.35439	2.02062	1.28488	3.1999	71.94	-0.1792	0.0401	0.2193	943.8064	0.143346	-360.085914	-360.07741	-360.076466	-360.118661	30.414	
C	 0.0334971394	 1.438063495	 0.0080227052	-0.339009
N	 0.006944684	-0.0067546203	 0.0358546344	-0.035255
C	-0.0383658239	-0.834599993	-1.0405677846	-0.016084
N	-0.0456971242	-2.1047416045	-0.6947105423	-0.325693
C	-0.0132180152	-2.100844689	 0.6767581531	 0.195999
N	-0.0633436723	-3.3019907729	 1.4069419034	-0.600722
C	 0.0099618836	-0.814994128	 1.1698213227	 0.226557
C	 0.0164769076	-0.29260226	 2.5646896258	-0.514155
H	 0.936139681	 1.8275439004	 0.4907053008	 0.139052
H	 0.0248666896	 1.7711376682	-1.0316584324	 0.142954
H	-0.8400825077	 1.8620708432	 0.514592347	 0.140513
H	-0.0613218288	-0.4532076367	-2.0510714602	 0.118638
H	-0.0367283651	-4.0827331392	 0.761601039	 0.243799
H	 0.7055003905	-3.3960170532	 2.0599858541	 0.23702
H	 0.9772624847	 0.1501734225	 2.8618573605	 0.121087
H	-0.7544720954	 0.4708364976	 2.7286500697	 0.12389
H	-0.1938816979	-1.1157354302	 3.2529958939	 0.141409
