16
gdb 96905	3.91292	1.07624	0.93341	1.9243	81.81	-0.2516	-0.0019	0.2497	1265.2554	0.121974	-400.678905	-400.670279	-400.669335	-400.712486	31.812	
C	 0.0234148033	 1.390809055	-0.1122438346	-0.341739
N	-0.0779529132	-0.0617381461	-0.129164785	-0.340493
C	 0.5571198374	-0.710594567	-0.9840303059	 0.483045
O	 1.3996368633	-0.2686239248	-2.020759998	-0.309109
C	 1.4929924359	-1.6318234828	-2.5286430332	 0.293367
C	 2.1597574341	-2.4836061063	-1.4955454273	-0.326988
C	 0.679716181	-2.1522557112	-1.3418767365	-0.285001
C	 1.4060619019	-1.8572613541	-3.9240454221	 0.225741
C	 1.3466374742	-2.0512773313	-5.1092652402	-0.405612
H	 0.6189925108	 1.8076860707	-0.9322154316	 0.131211
H	-0.9845595556	 1.8167779334	-0.15265914	 0.130415
H	 0.4653238323	 1.7055732985	 0.8395296488	 0.130816
H	 2.3604033695	-3.5080580175	-1.7912556533	 0.141559
H	 2.8952505036	-2.028120438	-0.8401723075	 0.136744
H	-0.0966846132	-2.9014426751	-1.2992149917	 0.134289
H	 1.2893693246	-2.2191435634	-6.1565243518	 0.201756
