22
gdb 104506	2.50613	1.15348	0.92486	1.2777	88.58	-0.2255	0.0544	0.2798	1371.0059	0.191009	-367.15119	-367.140616	-367.139671	-367.186904	39.067	
C	 1.8474334605	-0.3725764691	 0.5515803955	-0.383064
C	 0.4773665627	-0.1096277433	-0.0887829928	-0.252421
C	 0.4270800029	-0.3254854528	-1.5946499091	 0.32755
C	 1.2772985285	 0.637444217	-2.4389436037	-0.414094
C	 2.6904767523	 0.2871887087	-2.5446885794	 0.326156
C	 3.849312956	-0.0115298303	-2.662358009	-0.47252
C	 0.1781597797	-1.6937102235	-2.1369131172	-0.280407
N	-0.8388869205	-0.6560337696	-2.2676156122	-0.119885
C	-2.0801696463	-0.809029204	-1.5248130969	-0.316257
H	 2.1749867733	-1.4008317942	 0.3683470627	 0.119645
H	 2.6192501926	 0.2908864048	 0.155231229	 0.135028
H	 1.7937927763	-0.221971667	 1.6345217125	 0.107364
H	-0.2612204724	-0.7559962746	 0.3941848337	 0.097477
H	 0.1683868126	 0.9227986359	 0.1267038735	 0.096976
H	 0.8356129437	 0.659064986	-3.4409413165	 0.14369
H	 1.178966925	 1.6547235995	-2.0362265702	 0.122774
H	 4.8740554987	-0.2716154658	-2.7590910712	 0.194175
H	 0.6562570751	-2.0236246246	-3.0561267331	 0.116633
H	 0.0018313793	-2.4867932855	-1.4097663672	 0.101513
H	-1.9983050434	-1.3955184497	-0.5967838479	 0.102512
H	-2.482956565	 0.1777316683	-1.2741622932	 0.121894
H	-2.8057375615	-1.3141518359	-2.1708192175	 0.125261
