20
gdb 26401	4.22584	0.94073	0.90741	3.286	82.29	-0.2131	0.0343	0.2475	1382.0905	0.172555	-399.35646	-399.347535	-399.346591	-399.390484	33.147	
C	 0.5627990548	 0.2587750958	-0.4411717514	-0.323342
N	 0.0059774034	-0.2917187799	 0.7898142963	-0.074484
C	 0.0899028143	 0.6678369743	 1.8815176458	-0.313426
C	-1.358116813	-0.7874324817	 0.5967681494	-0.260085
C	-1.3683665948	-2.0634826532	-0.1873682448	 0.333209
N	-2.2935879864	-2.4730945479	-1.0283252736	-0.309791
C	-1.8863207761	-3.7231078915	-1.4396066576	-0.09447
C	-0.7008963332	-4.0657445183	-0.8449010214	-0.113489
N	-0.3832885511	-2.9946654499	-0.0403110881	-0.246671
H	 1.6147389836	 0.5185404316	-0.2868601319	 0.116342
H	 0.5052680526	-0.4828128223	-1.2420856967	 0.134324
H	 0.0306612899	 1.1670130377	-0.7795085935	 0.100327
H	-0.4934810556	 1.5893035494	 1.6976769983	 0.098394
H	-0.2766513968	 0.213614725	 2.8072278272	 0.118896
H	 1.1339626279	 0.9585750717	 2.0347880993	 0.118651
H	-1.7877503054	-0.9660292136	 1.5912097773	 0.114542
H	-2.0215853084	-0.0645934002	 0.0919482826	 0.111605
H	-2.4670904966	-4.2996450096	-2.1435813875	 0.102695
H	-0.0676200725	-4.9338415368	-0.9206174492	 0.122828
H	 0.4396574935	-2.8559281806	 0.5230475494	 0.263944
