15
gdb 2316	5.16484	1.78781	1.49112	4.0632	61.48	-0.2423	0.0294	0.2717	820.9436	0.124856	-304.67834	-304.670998	-304.670054	-304.710047	26.012	
C	-0.2660467274	 1.4273828962	 0.1957579136	-0.32467
N	 0.0384674456	 0.0060004598	 0.1162540707	-0.063001
C	 1.3874416963	-0.3957845156	-0.2567811056	-0.261988
C	 0.8751752941	-0.6304748806	 1.1242305246	 0.026962
C	 1.4928906355	 0.1258402707	 2.2968178563	-0.373034
C	 0.5421525183	 0.3459270875	 3.3885566149	 0.267503
N	-0.2161106845	 0.5153073241	 4.2437833119	-0.305289
H	 0.5890034721	 2.0667087615	 0.4679362765	 0.097886
H	-0.6268386081	 1.7582117979	-0.7826379659	 0.132887
H	-1.0640774304	 1.5865736076	 0.92672578	 0.146243
H	 1.4720034918	-1.2130725307	-0.9680156341	 0.124101
H	 2.1387022505	 0.3864845076	-0.3738495199	 0.107294
H	 0.5373861744	-1.6286432941	 1.3964279013	 0.112057
H	 2.3393771388	-0.4510691781	 2.6874637023	 0.15973
H	 1.8946618931	 1.0934742461	 1.9827536635	 0.153318
