16
gdb 44016	4.51777	1.55679	1.3517	2.2181	72.4	-0.2331	-0.0231	0.21	922.369	0.126033	-400.653242	-400.647134	-400.646189	-400.683549	25.531	
O	-0.0108091623	 0.0044380181	 0.0003875001	-0.307582
C	 0.0104142578	 1.2024185558	-0.0041776295	 0.409818
C	-1.2404990887	 2.1644675333	-0.0636743869	-0.478662
C	-0.4287119781	 3.4379242068	-0.0336573034	 0.279964
C	-0.2155809815	 4.957871472	-0.0311527401	-0.27245
N	 1.2452744898	 4.4622112225	 0.0354932638	-0.181883
C	 0.7780313506	 3.2988378221	 0.9341727095	-0.013944
C	 1.2451072671	 2.1283035494	 0.0460659316	-0.187012
C	 0.8584602889	 3.2905676222	-0.8902489848	-0.013944
H	-1.8124713263	 1.9844231089	-0.9784339863	 0.131565
H	-1.8908114928	 1.9924708616	 0.7988014303	 0.131567
H	-0.444823406	 5.5135006875	-0.9455845104	 0.111801
H	-0.5241759771	 5.5216615131	 0.854494719	 0.111801
H	 0.775475473	 3.3828605665	 2.0217390187	 0.093254
H	 2.2236617504	 1.6553887249	 0.0913500973	 0.092454
H	 0.9516475552	 3.3647451752	-1.974537349	 0.093253
