20
gdb 90008	2.82245	1.39989	1.11564	3.4641	79.84	-0.2442	0.0349	0.2791	1155.2452	0.171406	-403.166919	-403.158164	-403.15722	-403.20037	33.139	
C	-0.3894325771	 1.4581390155	-0.0600154205	-0.409864
C	-0.105793296	-0.0403430257	-0.0170464411	 0.036789
C	 1.1022338989	-0.48645492	-0.8970106124	-0.299542
C	 1.9785088636	-0.5529373595	 0.3788711327	 0.197189
C	 3.1436773747	-1.5586783461	 0.5948634869	-0.246263
N	 4.0230004238	-0.3982411268	 0.7730156635	-0.336113
C	 3.0454117168	 0.5466124378	 0.5922538358	 0.403769
O	 3.0529581455	 1.751405072	 0.6028150193	-0.372776
C	 0.6921063502	-0.5027466649	 1.2408426644	-0.299499
H	 0.5254747964	 2.0325717383	 0.1199093182	 0.155557
H	-0.7905431026	 1.7519828173	-1.0363746578	 0.107778
H	-1.1242139299	 1.7386748794	 0.7028115437	 0.10778
H	-1.0261041899	-0.6027498821	-0.1978990784	 0.064827
H	 0.9598906462	-1.4755183532	-1.3424583927	 0.097871
H	 1.4273199273	 0.209530236	-1.675075144	 0.111492
H	 3.0503792374	-2.1920065768	 1.4838248527	 0.111098
H	 3.3883077672	-2.1780080261	-0.2750032808	 0.111094
H	 5.0104296176	-0.3149781571	 0.9631167107	 0.249444
H	 0.7042961483	 0.1809146604	 2.0940175675	 0.111503
H	 0.3978060218	-1.4978044684	 1.5874931525	 0.097866
