23
gdb 112975	5.03091	0.74477	0.70056	1.0416	87.3	-0.2429	0.0808	0.3237	1698.0037	0.20528	-388.256477	-388.2469	-388.245956	-388.291561	35.728	
C	-0.8483295119	 1.5186630318	-0.2017641561	-0.240132
O	-0.4296836701	 0.3734736353	 0.5042314248	-0.239136
C	-1.0446432908	-0.806551992	 0.0596633537	 0.174835
C	-0.5674000412	-1.4420781385	-1.279491669	-0.273976
C	-0.5408652329	-2.8286121135	-0.5613749426	-0.013997
C	-0.5810350555	-2.0730403754	 0.8038608859	-0.275906
C	-1.7425041337	-3.699513152	-0.8353635852	 0.046849
C	-1.7000297791	-4.7324642896	-1.9334423383	-0.27526
C	-1.7147701428	-5.1664534102	-0.4868868843	-0.274991
H	-0.3273288114	 2.3773108243	 0.2288945292	 0.124794
H	-0.6019478738	 1.4568730102	-1.2726706512	 0.106764
H	-1.9345218171	 1.6795129815	-0.1091820183	 0.101575
H	-2.1402548407	-0.6903957006	 0.0780558729	 0.059341
H	-1.2105691411	-1.3476232646	-2.1582233101	 0.093773
H	 0.4384840896	-1.0908517912	-1.5271611715	 0.102164
H	 0.3679047566	-3.4137001773	-0.7324907026	 0.062518
H	 0.4193869106	-1.9139355707	 1.2144210114	 0.108514
H	-1.2315819005	-2.4724894372	 1.5855368331	 0.097492
H	-2.7007625003	-3.2030300463	-0.6959963779	 0.07696
H	-2.5910819874	-4.8951313742	-2.5298200738	 0.108761
H	-0.772081729	-4.8448807889	-2.4851671625	 0.1098
H	-0.7967418931	-5.5690755149	-0.0707381495	 0.110175
H	-2.6159857344	-5.6253320262	-0.0953968785	 0.109084
