20
gdb 103330	3.02672	1.31301	1.03729	3.3016	76.47	-0.2191	0.0578	0.2769	1199.3629	0.169989	-440.197486	-440.188259	-440.187315	-440.231127	35.258	
C	-0.1252303779	 1.5622541478	 0.0714237619	-0.434223
C	 0.0217153121	 0.0560255613	-0.0415396927	 0.064341
C	 1.419051744	-0.5564339719	-0.3847103224	-0.093415
N	 1.8676786962	-0.110404804	 0.9946253854	-0.345575
C	 0.5115785505	-0.7622662109	 1.1956910233	-0.125574
C	 0.9248434428	-1.9082486276	 0.2058030793	 0.396755
O	-0.0749016366	-2.546606389	-0.5773220622	-0.467095
C	 1.8863996022	-3.0343671105	 0.6096732251	-0.154602
O	 2.9053947422	-2.6453427465	 1.5196938707	-0.414293
H	 0.7163064759	 2.0010924156	 0.6087958553	 0.140864
H	-0.1832937151	 2.0167284063	-0.9241522493	 0.10726
H	-1.0513917297	 1.8185444968	 0.5986211659	 0.105337
H	-0.8060086729	-0.4016130799	-0.5807371242	 0.083704
H	 2.0325634067	-0.3970716539	-1.2743945244	 0.070901
H	 2.6037493718	-0.7242005807	 1.3395793152	 0.23607
H	 0.0534174524	-0.8464518567	 2.1843939698	 0.066869
H	-0.5739601367	-3.1418183403	-0.0070920543	 0.280213
H	 1.2706105969	-3.8341879282	 1.0563165006	 0.078987
H	 2.3125710892	-3.4419438528	-0.3183406246	 0.109351
H	 3.531551286	-3.3705721549	 1.6008863916	 0.294125
