18
gdb 123732	4.84552	0.97341	0.86861	3.4006	77.2	-0.2507	-0.0076	0.2431	1327.6043	0.149569	-401.931616	-401.924008	-401.923064	-401.965083	28.549	
C	-0.1716589867	 1.4615790509	 0.028491162	-0.212647
C	 1.3277293038	 1.4865273405	-0.3722862831	-0.233168
C	 1.5463243771	 0.2309360859	 0.5186242726	-0.104149
C	 0.0047116863	-0.0234050131	 0.4404824337	-0.219003
C	 2.4923864964	-0.8368681427	 0.0883083006	 0.147048
C	 3.239488353	-0.9369999768	-1.0446040942	-0.015219
O	 3.9570555694	-2.0723010036	-1.0537730664	-0.167148
N	 3.6936170366	-2.7782038669	 0.1139417128	-0.131782
C	 2.8360495685	-2.0423977184	 0.7740948161	-0.047602
H	-0.3685261339	 2.1012961075	 0.8934868929	 0.106071
H	-0.9068695718	 1.6888616525	-0.7459028226	 0.102059
H	 1.4537236996	 1.2484386492	-1.4330636914	 0.102308
H	 1.9138299487	 2.379032203	-0.1421563014	 0.103128
H	 1.7953520743	 0.550942976	 1.5371625376	 0.086011
H	-0.4977942547	-0.3744144142	 1.3448096424	 0.099912
H	-0.2341817258	-0.7025946145	-0.3828054835	 0.107821
H	 3.3692659583	-0.2972353773	-1.9032287742	 0.147625
H	 2.477708231	-2.3914875979	 1.7330907361	 0.128736
