19
gdb 80926	2.79164	1.42398	1.27128	2.6767	76.05	-0.2494	0.0683	0.3177	1087.351	0.157951	-422.948531	-422.940053	-422.939108	-422.981049	33.123	
C	-0.1353041464	 1.6005611278	-0.0077960572	-0.453694
C	 0.0149787853	 0.0870733178	 0.0091260916	-0.004649
C	 1.181111432	-0.6310106597	-0.7513286848	-0.181961
C	 2.1675833199	-0.1685380998	 0.3706105806	-0.316738
C	 0.8684941145	-0.6406078199	 1.1170204472	 0.27815
O	 0.6230396464	-0.7393252715	 2.4687193554	-0.471408
C	 0.8849029582	-1.832416565	 0.1592873493	 0.523968
C	 0.1856268245	-3.1009131378	 0.0559162685	-0.323537
O	 1.6202719323	-3.0181796586	 0.2816044026	-0.308526
H	 0.8070989067	 2.1379280167	 0.1238597886	 0.119107
H	-0.5707590346	 1.9313596451	-0.9566893949	 0.12364
H	-0.8164592739	 1.9228001053	 0.7883680814	 0.117942
H	-0.9601561749	-0.3861255062	-0.1529048907	 0.069833
H	 1.3626614195	-0.6368861462	-1.8227576011	 0.086312
H	 3.0535926851	-0.7882077667	 0.5171891339	 0.119345
H	 2.411383388	 0.8934979755	 0.4082476319	 0.090963
H	 0.7397116243	 0.1280828997	 2.8705441622	 0.286966
H	-0.386224911	-3.4794530329	 0.9012513394	 0.126933
H	-0.1016239359	-3.4954967935	-0.9174983939	 0.117353
