19
gdb 79570	2.24811	1.79085	1.33126	3.2503	74.82	-0.227	0.056	0.283	1045.2986	0.157027	-422.954595	-422.945994	-422.94505	-422.987081	33.931	
C	-0.1688810599	 1.4646976718	 0.1099347378	-0.505437
C	 0.1053097216	 0.0004105	 0.0239968594	 0.368767
O	-0.7889261871	-0.8970809905	 0.7323900326	-0.320241
C	 0.6411985076	-0.9825216942	 0.960187976	-0.045192
C	 1.3050090447	-1.8007608674	-0.1716952029	-0.225247
C	 0.3409479874	-2.2073266162	-1.2629398756	 0.101774
O	-0.9196385155	-2.7654093689	-1.1255542091	-0.429808
C	 0.7504922467	-0.7565986953	-1.1920677582	 0.179372
C	 1.4698038318	-0.0210193919	-2.2874768766	-0.495531
H	 0.7119607392	 2.0442530747	-0.1828070365	 0.131404
H	-0.99342492	 1.7469171992	-0.5545531209	 0.135908
H	-0.4439223706	 1.7361453806	 1.1323903826	 0.137619
H	 0.9750709824	-0.8934092856	 1.9873571248	 0.111852
H	 2.312741148	-2.1916297392	-0.0915698182	 0.090022
H	 0.8640030864	-2.7126630135	-2.0741003082	 0.103865
H	-1.3308158862	-2.2922267304	-0.3887774464	 0.293622
H	 0.7679790163	 0.5181522741	-2.9353862085	 0.126194
H	 2.1856796723	 0.710011285	-1.8922219344	 0.116269
H	 2.0292247151	-0.7192767824	-2.9180756178	 0.124788
