18
gdb 5270	6.58514	1.07411	0.99507	4.1204	73.5	-0.2194	0.0341	0.2535	1208.7157	0.155792	-344.027131	-344.019219	-344.018275	-344.060359	28.518	
C	-0.0132871227	 1.5566021658	 0.0441604529	-0.381081
C	 0.0648733174	 0.028283551	 0.0418728027	-0.168723
C	 0.6618856872	-0.5171039279	-1.2614005776	-0.164785
N	 0.7412218539	-1.968472401	-1.2960948615	 0.026928
C	 1.6552431034	-2.7635428462	-0.6370221194	-0.131221
C	 1.2986837442	-4.0550808665	-0.924140391	-0.0895
N	 0.1909310207	-4.081276703	-1.7383065243	-0.274521
C	-0.1135719927	-2.8186309491	-1.9361906491	 0.002082
H	 0.9787011138	 2.0072610301	-0.0709926552	 0.11958
H	-0.6414496548	 1.9250436484	-0.7744173303	 0.119986
H	-0.4389974145	 1.9261308848	 0.9811351386	 0.123937
H	 0.6725520366	-0.3193861445	 0.8852272505	 0.111219
H	-0.9326490398	-0.4045610853	 0.1796260166	 0.114319
H	 0.0534793389	-0.2010898165	-2.1151575377	 0.121967
H	 1.6666423694	-0.1079378778	-1.4176767829	 0.121256
H	 2.4535750475	-2.3389254738	-0.0504440231	 0.120908
H	 1.7794691397	-4.9647704197	-0.5973939647	 0.105628
H	-0.9330360682	-2.4492498987	-2.5361669144	 0.122021
