15
gdb 132197	1.89518	1.82026	0.93062	4.7929	75.2	-0.195	0.0034	0.1983	1160.5287	0.114304	-458.126858	-458.119147	-458.118203	-458.158854	30.22	
N	 0.1103339162	 1.3883885164	 0.129226126	-0.591625
C	-0.01544336	 0.0017633327	 0.0160085237	 0.401573
C	-1.1688698051	-0.7011888652	 0.0102314992	-0.2369
C	-1.1968686313	-2.1600715854	 0.0002370547	 0.337996
N	-2.3301639355	-2.7790137471	-0.0008960087	-0.56765
C	 0.1284421199	-2.7884132697	-0.0310935329	-0.413186
C	 1.2296697715	-2.0260947752	-0.0318492273	 0.400309
F	 2.4659115644	-2.5129076059	-0.0318425495	-0.068344
N	 1.2112352719	-0.6532010989	-0.0485517414	-0.443467
H	 0.709794963	 1.7972489068	-0.5793094266	 0.252297
H	-0.7874859146	 1.8533073369	 0.1321554619	 0.261478
H	-2.1204538511	-0.1843639327	-0.0017717819	 0.096625
H	-2.1777990127	-3.7892274365	-0.0219048846	 0.195784
H	 0.2284510017	-3.865770906	-0.0640915737	 0.10974
H	 2.0295076716	-0.1732779802	 0.2966479412	 0.265368
