14
gdb 49816	2.96313	1.27426	0.99964	3.9716	64.64	-0.2677	-0.0786	0.1891	1134.0491	0.099466	-473.852203	-473.844182	-473.843238	-473.886297	28.298	
N	 0.026323195	 1.3277826488	 0.1728691803	-0.488383
C	 0.0500831032	 0.0689355054	 0.2152393891	 0.307681
O	 1.0974679724	-0.7016517475	 0.6295110268	-0.251196
C	 0.8170898362	-2.1166581619	 0.4829511848	-0.002234
C	-0.6446070768	-2.2680707705	 0.0619749319	-0.373728
C	-1.1080367061	-0.835839209	-0.17557759	 0.340734
O	-2.1743960416	-0.4693772263	-0.5789078293	-0.264345
C	 1.8212950418	-2.6760793314	-0.5245335558	 0.137242
O	 1.5673357531	-3.5577288851	-1.2996438347	-0.218186
H	 0.9148869986	 1.7265394662	 0.4839069964	 0.23671
H	 1.0329074005	-2.5834314328	 1.4519826615	 0.131043
H	-0.739231865	-2.8725228564	-0.8439629594	 0.177095
H	-1.2650360412	-2.7270863598	 0.8358941545	 0.156952
H	 2.8200358598	-2.1938713497	-0.4719717661	 0.110615
