18
gdb 36437	4.11129	0.97833	0.91174	3.8932	75.39	-0.2553	0.0311	0.2864	1286.6824	0.148554	-401.925414	-401.917325	-401.916381	-401.959286	29.841	
N	-0.0491222375	-1.1114504075	-0.3158660583	-0.304713
C	-0.0544315356	 0.0375139496	-0.1919746906	 0.263378
C	-0.0306641284	 1.4907495438	-0.0335322529	-0.370461
C	 1.4023849615	 2.0304620453	 0.0742680625	 0.01804
C	 2.3044747675	 2.0006357398	-1.2028746239	-0.256929
C	 2.5311763351	 3.5218920435	-1.0593468052	 0.125931
O	 1.5906471329	 4.297531561	-1.8310689499	-0.287909
C	 0.7243963617	 4.4714763147	-0.6871871453	-0.08435
C	 1.6078581435	 3.5718637203	 0.1935543077	-0.12392
H	-0.5500350656	 1.9356828483	-0.8894869798	 0.157707
H	-0.6074342936	 1.7532172079	 0.861667619	 0.150886
H	 1.8974979208	 1.5271682867	 0.908486669	 0.101043
H	 3.2003187599	 1.3849440759	-1.096901651	 0.114681
H	 1.7999100398	 1.735432294	-2.1350600788	 0.121139
H	 3.548088718	 3.9172015302	-1.1171200202	 0.083198
H	 0.7018760162	 5.5188963692	-0.3602873695	 0.107651
H	-0.305245895	 4.1497759031	-0.8873007637	 0.100975
H	 1.8970154587	 3.9574263942	 1.1702317311	 0.083651
