17
gdb 88273	3.28633	1.06619	0.93736	2.2024	72.64	-0.2297	-0.0721	0.1576	1280.494	0.134818	-455.15853	-455.149269	-455.148324	-455.193122	33.504	
C	-0.7517055559	 1.0502510954	 0.3034403014	-0.32768
N	 0.0590389464	-0.1487190083	 0.1077099829	-0.077879
C	 1.3255442258	-0.0226864609	-0.5568849214	-0.235427
C	 1.2868332145	-0.3684704132	 0.9103372715	-0.106789
C	 1.7825006996	 0.643477023	 1.8727339643	 0.28701
O	 1.77652806	 1.8483068495	 1.6960163068	-0.34243
C	 2.3411454714	 0.0687820791	 3.1991451562	 0.333152
N	 2.7597114543	 1.0447335182	 4.0327112063	-0.521288
O	 2.3866605375	-1.1271528318	 3.4189788531	-0.346719
H	-0.1748628268	 1.9638201219	 0.4864112791	 0.142273
H	-1.3576318427	 1.1840320608	-0.5979586372	 0.127681
H	-1.4291128138	 0.8839624337	 1.1464052936	 0.126702
H	 1.5865974856	-0.8098533328	-1.2596714896	 0.127758
H	 1.6856208729	 0.9755980583	-0.8019045615	 0.131278
H	 1.4287506997	-1.393227968	 1.2294154556	 0.1332
H	 2.6806809939	 2.0035459627	 3.7347435028	 0.279482
H	 3.1551095174	 0.8075251924	 4.9262431763	 0.269675
