19
gdb 26657	2.22847	1.59501	0.94671	0.9564	81.2	-0.1779	0.0377	0.2156	1248.9257	0.158829	-419.24436	-419.234378	-419.233434	-419.278781	36.5	
C	 0.1774951664	 1.4477811186	 0.0302044698	-0.492097
C	-0.0407330093	-0.0237104889	 0.0140313378	 0.256536
C	-1.1621181211	-0.8010983568	 0.0499208541	 0.135267
C	-2.595013962	-0.3800525012	 0.143206683	-0.518744
C	-0.6956392525	-2.1645678235	-0.0106630017	 0.129937
N	-1.4973839109	-3.3121186595	 0.082403407	-0.613511
C	 0.6621313154	-2.1174004557	-0.0800976951	 0.192721
N	 1.596243619	-3.1537148048	-0.1410517842	-0.605003
O	 1.0783632864	-0.7972421649	-0.0532587017	-0.217487
H	 0.8209106921	 1.7480375645	 0.86542478	 0.133284
H	 0.6594469221	 1.7951554014	-0.8917339633	 0.131844
H	-0.7745219353	 1.9734696017	 0.1301299529	 0.129394
H	-3.1597223377	-0.6382894393	-0.7626392381	 0.117538
H	-3.0973104677	-0.8755598549	 0.9823413118	 0.134719
H	-2.691865394	 0.6993952868	 0.2860499447	 0.122245
H	-2.3018340643	-3.2775074967	-0.5327919607	 0.237139
H	-0.9530077522	-4.1424329983	-0.1236369845	 0.244918
H	 2.1734945132	-3.2173507735	 0.6930312191	 0.241204
H	 2.2180784221	-3.0709202948	-0.9398249908	 0.240095
