23
gdb 94698	3.04326	1.38824	1.23861	1.3361	85.19	-0.2401	0.0815	0.3216	1150.7224	0.206661	-388.293134	-388.28442	-388.283475	-388.32596	34.842	
C	-0.3605037639	 1.5325112908	 0.0410097788	-0.403423
C	 0.0601849813	 0.0632655236	-0.0037243294	 0.15109
O	 0.8170532296	-0.2138436831	-1.1879791333	-0.288672
C	 2.226137063	-0.3578692293	-1.0573355713	-0.0957
C	 2.6638992749	-0.8404046733	 0.3341709352	 0.306169
C	 4.1051754985	-1.3158217699	 0.3456519747	-0.482997
C	 1.5294331465	-1.7490520705	 0.8979569316	-0.265579
C	 0.8007293533	-0.4224908962	 1.2480020206	-0.038607
C	 2.2027653699	 0.2342710035	 1.3573827268	-0.261754
H	 0.4993918202	 2.1998363027	 0.1495110932	 0.116539
H	-0.8791435821	 1.7973909488	-0.8843378417	 0.122826
H	-1.0406382669	 1.7130572008	 0.8809092068	 0.108573
H	-0.8487761853	-0.5470063969	-0.1087231052	 0.076002
H	 2.5223035124	-1.0858618142	-1.8234974427	 0.096623
H	 2.7381932373	 0.5915307731	-1.2887755634	 0.083925
H	 4.7880744416	-0.5279310747	 0.0055095517	 0.114934
H	 4.4109998922	-1.6064751287	 1.3561140257	 0.112248
H	 4.2455896571	-2.1825888116	-0.3106010016	 0.115866
H	 1.033385227	-2.4387310631	 0.2093717169	 0.099623
H	 1.8563460865	-2.285966964	 1.7926797116	 0.089912
H	 0.141551001	-0.3920506805	 2.1189221821	 0.061973
H	 2.6460421079	 0.072085726	 2.3445634685	 0.090231
H	 2.3205260078	 1.2866033865	 1.0817842845	 0.090197
