16
gdb 24202	4.13322	1.58101	1.37806	0.9745	74.33	-0.1979	0.0109	0.2088	929.7207	0.128599	-400.70141	-400.695369	-400.694425	-400.73183	25.03	
C	-0.0198176521	 1.5585830455	-0.1145632951	-0.195231
C	 1.5312770401	 1.3024187263	 0.0031744135	-0.155272
N	 1.1394151114	 0.2505660126	 1.012644824	-0.283645
C	-0.010830814	-0.0054276572	 0.0641615208	-0.148454
C	 0.702023215	-0.4371786536	-1.2287624576	 0.236439
C	 1.7382839133	 0.4425746116	-1.2380149811	 0.315328
O	 2.4185328746	 0.4324090394	-2.3975209836	-0.20292
C	 1.7944418202	-0.5299800415	-3.1614216409	-0.016129
C	 0.7237816328	-1.0764547348	-2.5036477194	-0.381354
H	-0.4276004903	 2.0885903981	 0.7494636412	 0.112571
H	-0.3962161145	 1.9588321194	-1.0564635111	 0.105795
H	 2.2495210856	 2.0653862928	 0.2968466657	 0.085109
H	 1.8010867958	-0.5277214774	 1.0201893158	 0.203961
H	-0.8661597139	-0.5609063346	 0.4449316035	 0.076701
H	 2.2631780392	-0.7371961681	-4.1092232006	 0.134039
H	 0.0760996866	-1.8450329085	-2.8969962448	 0.113062
