23
gdb 88620	3.38625	1.03312	0.9585	0.1915	90.11	-0.2409	0.0897	0.3306	1373.5157	0.206706	-351.111916	-351.103085	-351.102141	-351.146014	34.517	
C	-0.2119094477	 1.4988386784	 0.0044935832	-0.40198
C	-0.0134231113	-0.0007731896	 0.0512449279	 0.006473
C	 1.338169599	-0.6191868807	-0.2145420835	-0.311484
C	 0.7357392933	-0.6954422873	 1.1717353173	-0.011705
C	 1.3528157777	 0.0573461924	 2.3108894811	-0.002826
C	 0.7551916762	 0.2032321661	 3.6880207966	-0.073144
C	 0.0455680353	-1.0816466978	 4.1369433418	-0.229326
C	 1.3801118449	-1.8718929889	 3.9344634793	-0.229152
C	 2.0639509123	-0.5748303816	 3.4820987609	-0.079739
H	 0.673017556	 2.0402554476	 0.3511324526	 0.113511
H	-0.4162672527	 1.8314510077	-1.0194211285	 0.113355
H	-1.0556669619	 1.8106260026	 0.6303272413	 0.116516
H	-0.8617471548	-0.5605668559	-0.3359479133	 0.077932
H	 1.4012131232	-1.5224611581	-0.8120503734	 0.10455
H	 2.1754246798	 0.0593874007	-0.3526477636	 0.104412
H	 0.3346666853	-1.6669182577	 1.4419988824	 0.080483
H	 1.8553719001	 0.9711463962	 2.0009786081	 0.077605
H	 0.6064737207	 1.1792126946	 4.1360968505	 0.07648
H	-0.2546872359	-1.0520619275	 5.1865580735	 0.09986
H	-0.8189412775	-1.3935805714	 3.5420888262	 0.09528
H	 1.7779695795	-2.2445583354	 4.8808720709	 0.099913
H	 1.3735487008	-2.6997583802	 3.2178699762	 0.095644
H	 3.0757896578	-0.2877195642	 3.7450360827	 0.07734
