21
gdb 92487	2.42728	1.62618	1.61086	2.0999	76.27	-0.2361	0.0709	0.307	997.9715	0.18607	-424.243358	-424.235543	-424.234599	-424.275816	31.323	
O	-0.0531490449	 1.4508760949	-0.0194102176	-0.439668
C	 0.0215678281	 0.0303002959	 0.0112921656	 0.121588
C	 0.7523086887	-0.5208072313	 1.2699319994	-0.250226
C	-0.2222725591	-1.4013344779	 2.0738280186	-0.026179
C	-1.4215346911	-0.5524086193	 2.5358290957	-0.211737
C	-2.1672072035	-0.0278211802	 1.2767504015	-0.215856
C	-1.4179543371	-0.5068098026	 0.0282330759	 0.098414
O	-1.3583804849	-1.9330449372	-0.0153256912	-0.285924
C	-0.7423651084	-2.503348499	 1.145853478	-0.05692
H	 0.8435779495	 1.7965040584	-0.0630344341	 0.283104
H	 0.5059852708	-0.3447537612	-0.9008329247	 0.069183
H	 1.6399070399	-1.0969385045	 0.9864001539	 0.092983
H	 1.0880162013	 0.3239011361	 1.8819511165	 0.092671
H	 0.2853528486	-1.8569665121	 2.9300964535	 0.06218
H	-2.086435455	-1.1603960685	 3.1581103719	 0.094717
H	-1.0720123701	 0.2759781688	 3.16051591	 0.095952
H	-3.1918225043	-0.4080242696	 1.236373624	 0.098057
H	-2.2172206207	 1.0633870621	 1.2651167446	 0.119219
H	-1.9387033014	-0.2046288083	-0.8833860374	 0.077611
H	 0.0770940127	-3.156065789	 0.813141701	 0.090739
H	-1.478301299	-3.1333105157	 1.6667298347	 0.090093
