19
gdb 98078	3.27746	0.96898	0.82242	1.5002	75.26	-0.2371	-0.0693	0.1678	1438.6899	0.157132	-456.366421	-456.355829	-456.354885	-456.402622	37.218	
C	 0.0516934903	 1.4026723263	-0.1543848178	-0.310793
N	-0.0841061277	-0.0359238047	-0.199445191	-0.289149
C	-1.282158711	-0.6482847839	-0.0393064356	 0.27008
N	-2.3768846767	 0.0155648377	 0.0800192897	-0.536021
C	-1.1495255056	-2.164086988	-0.0096976559	 0.324349
O	-0.0527020786	-2.6818713887	 0.0759363939	-0.347779
C	-2.3874854283	-3.0531687059	-0.106539609	 0.043302
C	-2.9920698016	-2.9685339192	-1.5219290597	-0.403708
O	-2.0419085245	-4.3758518046	 0.209924463	-0.437968
H	 1.0869688946	 1.6692734425	-0.3747420131	 0.124257
H	-0.6054887755	 1.8672245858	-0.8957306	 0.14851
H	-0.2248775052	 1.8072360599	 0.8273998578	 0.136026
H	 0.7263561423	-0.6310609964	-0.147189272	 0.26333
H	-3.17669124	-0.6031658812	 0.1789364859	 0.224085
H	-3.1312931397	-2.7003472728	 0.6227141733	 0.099362
H	-2.2534582706	-3.2885675024	-2.2630284714	 0.129825
H	-3.8474240979	-3.645815855	-1.5764863501	 0.139931
H	-3.3214149211	-1.9552021203	-1.7659260141	 0.129889
H	-1.0725942332	-4.403712929	 0.2100514961	 0.292472
