17
gdb 77741	2.36362	2.03103	1.38933	1.1858	75.38	-0.2075	-0.0301	0.1775	949.5138	0.135047	-421.717765	-421.709963	-421.709018	-421.749629	30.864	
O	 0.1479696408	 1.3750847977	 0.5619259687	-0.421758
C	 0.0937525481	 0.0437254576	 0.1387000491	 0.028849
C	 0.2995730044	-1.0751966766	 1.1802744204	-0.028151
C	-0.0521858721	-0.7728274308	 2.4461084461	-0.084603
C	-1.4917122968	-1.2045336546	 2.7076167253	-0.265226
C	-1.938245018	-1.4074808013	 1.2484392263	-0.104769
C	-0.7694755577	-1.9461366894	 0.4978247372	-0.16732
C	-1.3085811747	-0.6454783423	-0.0038558598	 0.334794
O	-2.0812482293	-0.4944217856	-1.1439210943	-0.455867
H	 0.8878560832	 1.8094995691	 0.1294907538	 0.291364
H	 0.6086485302	-0.0921101107	-0.8227280798	 0.081641
H	 0.3636764542	 0.0814853396	 2.9699385069	 0.104855
H	-1.6513272655	-2.1205387409	 3.2951796593	 0.105734
H	-2.0108398395	-0.3939589484	 3.2339631307	 0.10896
H	-2.9395651128	-1.7655789593	 1.0171397134	 0.083401
H	-0.6351346854	-2.8892507478	-0.01420032	 0.096711
H	-2.6049227789	 0.3077343738	-1.0401076234	 0.291383
