17
gdb 15119	8.70765	0.76361	0.73534	3.7772	70.01	-0.2636	0.0323	0.2959	1494.438	0.141217	-363.852506	-363.843974	-363.84303	-363.88673	29.77	
N	-0.1157409792	-0.9433791126	-0.6065725412	-0.301611
C	-0.0091178332	 0.1211042206	-0.1702980897	 0.247372
C	 0.1471707561	 1.4672652394	 0.3705413854	-0.339454
C	 1.4964546269	 2.0890383875	-0.0098058277	-0.055428
O	 1.5218985961	 3.3758156362	 0.5688270493	-0.250003
C	 2.7100975746	 4.0670404137	 0.3227627004	 0.142302
C	 2.8693392734	 4.8176484252	-0.9748611703	-0.287518
C	 2.6223115117	 5.5565207	 0.3264874176	-0.285805
H	-0.6626164843	 2.1044333356	 0.0000392699	 0.161841
H	 0.0577634563	 1.4345248002	 1.4613061819	 0.16332
H	 2.3198171498	 1.4664104981	 0.3717750853	 0.111852
H	 1.5991218857	 2.142481219	-1.1029953261	 0.115112
H	 3.5939715295	 3.5954510963	 0.7536150939	 0.089927
H	 3.851435012	 4.8686108028	-1.4314458365	 0.118716
H	 2.0425328617	 4.7697798871	-1.6747990632	 0.121593
H	 1.6354341405	 5.9801191794	 0.472719434	 0.128297
H	 3.4322789224	 6.1203450214	 0.774557437	 0.119485
