23
gdb 100040	2.98049	1.06203	0.98633	2.8945	81.61	-0.2482	0.0628	0.311	1350.3318	0.203492	-425.411635	-425.40121	-425.400265	-425.446299	40.23	
C	 0.1740078383	 1.5534630242	-0.1035097649	-0.402087
C	 0.0033254351	 0.0416174091	 0.0687599315	-0.181564
C	-1.457344681	-0.4515987429	 0.1205903627	 0.37508
C	-2.2359109957	 0.2282108821	 1.2582198968	-0.444183
O	-2.0276742411	-0.0846590706	-1.1407377215	-0.480736
C	-1.4347265326	-1.9886519061	 0.2233342168	-0.051798
C	-1.9987936641	-2.7839546689	 1.3876214479	-0.343797
C	-2.6794048641	-2.8069753793	 0.0441386777	 0.076872
O	-3.873072276	-2.089572732	-0.1527635607	-0.422728
H	 1.226277263	 1.8010268333	-0.2752691336	 0.104328
H	-0.4051328452	 1.9066161486	-0.9602875083	 0.137387
H	-0.1510982437	 2.1096507262	 0.7809331006	 0.110679
H	 0.4825713627	-0.4674280424	-0.7758227383	 0.098257
H	 0.5158799047	-0.3004882026	 0.9762535115	 0.090466
H	-2.2888139665	 1.3027125212	 1.070341538	 0.120915
H	-3.2578173272	-0.1537970803	 1.3111435118	 0.115314
H	-1.7539384574	 0.070232625	 2.2286354241	 0.106665
H	-2.9217521317	-0.4474430195	-1.1528910426	 0.290326
H	-0.5581499963	-2.4219435762	-0.250214694	 0.086989
H	-1.4707839261	-3.6711950315	 1.7209675243	 0.110407
H	-2.4965247519	-2.2327879122	 2.1770535134	 0.118291
H	-2.6082188072	-3.7134424761	-0.5553489111	 0.090827
H	-4.5951719659	-2.5644299392	 0.2708848479	 0.294087
