14
gdb 77214	3.98131	1.05275	0.8933	4.5339	69.65	-0.2793	-0.0225	0.2568	1229.6525	0.098497	-436.626311	-436.617524	-436.61658	-436.660761	31.089	
O	 0.061794201	 1.2029099025	 0.277491683	-0.402687
C	 0.1854000374	-0.1501920725	-0.0206815299	 0.043437
C	-1.1893726957	-0.7978965546	-0.3194919069	-0.044932
O	-0.7351087411	-1.2273059286	-1.6392841796	-0.284293
C	 0.5310749777	-0.5635747416	-1.4931126801	-0.0647
C	 0.7258916873	 0.550241387	-2.4216447733	 0.286923
N	 0.9155275616	 1.434711169	-3.1404746025	-0.314022
C	-1.631377877	-1.8888177967	 0.5232418527	 0.312419
C	-1.9928388467	-2.7872531669	 1.2344016639	-0.428256
H	 0.9341742041	 1.5824510011	 0.4281958842	 0.303532
H	 0.782453804	-0.7000858878	 0.7139527358	 0.110331
H	-1.9652562588	-0.0286997154	-0.4115162835	 0.137413
H	 1.3650695682	-1.2670469027	-1.5977968668	 0.132882
H	-2.3200246119	-3.5817290427	 1.8594295628	 0.211954
