16
gdb 22087	2.52723	1.06204	0.90189	2.5749	76.37	-0.2407	-0.0482	0.1925	1316.9572	0.119609	-437.828414	-437.818378	-437.817434	-437.864502	35.172	
C	 0.8918667794	 0.3297128666	 0.0231050543	-0.483769
C	-0.5110595	 0.1485180124	-0.5205966562	 0.39185
O	-1.1193498409	 1.0385893486	-1.0624245645	-0.292496
C	-1.1646146964	-1.2296074582	-0.3149309389	-0.380332
C	-0.2531393664	-2.4083625302	-0.5477431413	 0.153999
N	 0.0532706521	-3.1216388839	 0.4798636208	-0.157845
O	 0.9026937558	-4.1704240895	 0.1682975181	-0.379409
C	 0.216301602	-2.6532635298	-1.8703400027	 0.360827
C	 0.5846855754	-2.8059869174	-3.0062294972	-0.46368
H	 1.5991996371	-0.2304096441	-0.5994712288	 0.15643
H	 1.1578713792	 1.3869534074	 0.0077224262	 0.142057
H	 0.9768268012	-0.0743166742	 1.0370442337	 0.142687
H	-1.5073133737	-1.2780106024	 0.7254744292	 0.144978
H	-2.0377879432	-1.2731362894	-0.9708264265	 0.13784
H	 1.0176929079	-4.6059749598	 1.0206696173	 0.313508
H	 0.9153710805	-2.9547949662	-4.0049811934	 0.213354
