20
gdb 83841	2.10173	1.7568	1.27305	2.8607	79.35	-0.2252	-0.0211	0.2041	1083.6346	0.172188	-403.151532	-403.143297	-403.142353	-403.184198	32.134	
C	-0.3343850809	 1.4904950325	 0.0636326121	-0.42973
C	-0.003460343	 0.0170702405	-0.0165289735	 0.018016
C	 0.6616192097	-0.6393044533	-1.195979217	-0.148532
N	 1.3352174856	-0.5451396006	 0.1130900036	-0.114941
C	 2.4988114427	 0.3522048444	 0.2325472952	-0.1538
C	 3.2625309734	 0.5105518112	-1.0834544899	-0.211771
C	 2.341751141	 1.0469257499	-2.1893569253	-0.31387
C	 1.1404839061	 0.1311611379	-2.392978519	 0.388197
O	 0.6375672038	-0.0469418734	-3.4802528848	-0.321481
H	 0.3240316452	 2.1269560479	-0.5290172113	 0.125285
H	-1.356287379	 1.6505656306	-0.2939311198	 0.136111
H	-0.2907010788	 1.8358286158	 1.1030209157	 0.129808
H	-0.752572197	-0.6006578582	 0.4790279441	 0.099981
H	 0.319723398	-1.6352023446	-1.4699647005	 0.112075
H	 2.198153209	 1.3407159877	 0.6036299752	 0.098849
H	 3.1585278493	-0.0787096663	 0.9934875475	 0.111981
H	 4.1189904332	 1.1772379493	-0.9374791009	 0.105664
H	 3.6670069655	-0.4634951864	-1.3848144294	 0.116392
H	 1.9840047472	 2.0507936573	-1.9235256346	 0.125924
H	 2.8485849889	 1.1404230677	-3.1536313076	 0.125841
