16
gdb 18862	3.35139	2.55651	2.13513	1.5724	67.18	-0.2268	0.0068	0.2336	709.4734	0.132843	-346.57339	-346.567479	-346.566535	-346.602966	24.961	
O	 0.0550063171	 1.4285959578	 0.0746365646	-0.436945
C	-0.0234455637	 0.0360957532	-0.0309223035	 0.166038
C	-1.3617730378	-0.6816896905	 0.0144984409	-0.136005
C	-2.0374364281	-0.7497036973	-1.3794978257	-0.078042
C	-1.5866092515	 0.1976947011	-2.4420077734	-0.102374
C	-0.2492951962	 0.1784883272	-2.517652009	-0.097313
C	 0.2903161338	-0.6993955977	-1.4158144605	-0.154451
C	-0.8843487121	-1.6567536924	-1.0429500614	-0.07091
H	-0.496565936	 1.7924899108	-0.6285008223	 0.27736
H	 0.6401317237	-0.3720873224	 0.7347229291	 0.097122
H	-1.9536451209	-0.8664906366	 0.9032187938	 0.088362
H	-3.0490305142	-1.1385192186	-1.3701486022	 0.087308
H	-2.2624767967	 0.8062933931	-3.0303299981	 0.09853
H	 0.3705295365	 0.8014042232	-3.1504329711	 0.102601
H	 1.2998352293	-1.0876948988	-1.5367053603	 0.068287
H	-0.8950770932	-2.7391885319	-1.0505564907	 0.09043
