17
gdb 49072	2.77794	1.55605	1.29148	2.7288	68.01	-0.256	-0.0405	0.2156	1012.8925	0.135913	-458.956272	-458.948544	-458.9476	-458.988874	28.839	
O	-0.9881837542	 1.430130178	 0.4208038854	-0.253895
C	 0.0762655864	 0.942299866	 0.1393247842	 0.101884
C	 1.338932893	 1.7427365237	-0.0512816728	 0.255186
C	 1.4525977025	 3.0964787133	 0.6849118095	-0.127351
O	 1.7112269588	 3.8064677849	-0.5473921339	-0.292164
C	 1.4936674219	 2.624634622	-1.3394698003	 0.069428
C	 2.7558021014	 2.0864883189	-2.0003522784	-0.246153
C	 3.4857879635	 1.4155411176	-0.8269335004	-0.098455
O	 2.4496168922	 0.8814772169	 0.005730615	-0.310773
H	 0.21114942	-0.1488554451	-0.022086211	 0.093683
H	 0.5132180709	 3.4125060004	 1.1495797411	 0.128333
H	 2.2819448674	 3.1687182238	 1.3963028514	 0.112875
H	 0.6319244286	 2.7283968855	-2.0047534411	 0.094815
H	 2.4838316221	 1.3486884964	-2.7623903668	 0.113954
H	 3.3376617346	 2.8831121915	-2.4694600489	 0.125493
H	 4.134350304	 0.5865322128	-1.1176360739	 0.119435
H	 4.083050417	 2.1497271632	-0.2699904489	 0.113703
