17
gdb 96422	2.1123	1.71802	1.2269	1.5265	69.01	-0.2525	0.0287	0.2812	1052.4201	0.135486	-458.9134	-458.904936	-458.903992	-458.946226	32.052	
O	-0.0116263243	 1.4180390237	 0.0324789824	-0.423388
C	 0.0205658394	 0.006831321	 0.0333353926	 0.094647
C	 0.787266985	-0.5696610288	 1.2303684463	-0.130297
O	 0.6913724137	-1.9875182952	 1.2267506504	-0.23419
C	-0.6505569838	-2.3970982036	 1.2686642959	 0.012128
O	-1.3911358432	-1.9413665671	 0.1589648667	-0.241095
C	-1.4335554452	-0.5135761377	 0.0774238624	-0.103018
C	-2.2257891767	 0.084089429	 1.1580958549	 0.372332
C	-2.8954024975	 0.5531399517	 2.0388421626	-0.485401
H	 0.8777190264	 1.7413660533	-0.1431076568	 0.291586
H	 0.4625246224	-0.3950382164	-0.8895661719	 0.087334
H	 1.8519275742	-0.3222143831	 1.172795829	 0.102857
H	 0.3781809025	-0.1449870141	 2.160012196	 0.113176
H	-0.6561003672	-3.4867954272	 1.2148418123	 0.121604
H	-1.1242262804	-2.0501215771	 2.2022927802	 0.095719
H	-1.9187786236	-0.2896916378	-0.8775686796	 0.123195
H	-3.4881891817	 0.9771399394	 2.8116483766	 0.20281
