19
gdb 75529	2.09679	1.64792	1.01831	3.0014	78.16	-0.225	-0.0222	0.2028	1191.3355	0.15899	-423.040698	-423.031996	-423.031052	-423.074392	32.517	
C	-0.1027013245	 1.5033249718	-0.0014970217	-0.477072
C	-0.0128576697	 0.0028300459	-0.0261959869	 0.319854
C	-0.0692123941	-0.7031415796	-1.1572905915	-0.158259
C	 0.0702191538	-2.206048773	-1.2231401779	-0.132086
O	 1.3356843612	-2.6809087731	-0.7738984443	-0.232828
C	 1.4669298393	-2.8306245069	 0.6223021912	-0.170117
C	 1.4123432046	-1.5333326624	 1.4436623501	 0.380119
O	 2.3095681282	-1.2473669215	 2.2005661115	-0.290025
C	 0.1563539301	-0.6703147509	 1.3304118637	-0.405996
H	 0.8052628978	 1.942181603	 0.4309369944	 0.139066
H	-0.240063134	 1.9159614004	-1.0040314236	 0.125075
H	-0.9383859051	 1.8363419847	 0.6272852686	 0.128392
H	-0.1945921586	-0.1798121527	-2.1014408317	 0.089301
H	-0.7332790698	-2.701379706	-0.6499092624	 0.093005
H	-0.0162164212	-2.5425665801	-2.2596108347	 0.114498
H	 0.6817004378	-3.503498564	 1.0166047298	 0.096513
H	 2.4404774681	-3.2912702567	 0.802313601	 0.130966
H	 0.2077151454	 0.0727651047	 2.1284540353	 0.124303
H	-0.7145183593	-1.3131025836	 1.5258918092	 0.125291
