15
gdb 27353	2.01339	1.79536	0.9547	5.8291	72.04	-0.2268	-0.0253	0.2016	1160.1665	0.112241	-457.826648	-457.818631	-457.817687	-457.859161	30.065	
C	 0.1206544414	 1.4769281879	 0.004530383	-0.471239
C	-0.0430467668	-0.0058645863	-0.0167916305	 0.384065
C	-1.1799758465	-0.706408644	-0.1238426769	-0.330161
C	-1.2008126799	-2.1809243814	-0.1330498556	 0.407295
O	-2.2365294866	-2.82446705	-0.2307293142	-0.385844
C	 0.1240997361	-2.7771923181	-0.0150021239	-0.407543
C	 1.2125713298	-1.9917266194	 0.0876769797	 0.483779
O	 2.4646389878	-2.4505124472	 0.1995215365	-0.401017
O	 1.1754080809	-0.6402696192	 0.0909906658	-0.274869
H	 0.7583699178	 1.8089778719	-0.8220195575	 0.146447
H	-0.8506355192	 1.9651857789	-0.0831491837	 0.148187
H	 0.5964602079	 1.8021402175	 0.9361504946	 0.146421
H	-2.1266636002	-0.1874653734	-0.207583512	 0.118525
H	 0.2365086343	-3.8524944648	-0.0095291113	 0.125594
H	 3.0629885534	-1.6950110326	 0.261356716	 0.310358
