19
gdb 103697	1.89981	1.81634	1.10833	3.1488	76.75	-0.2624	0.0114	0.2738	1145.9158	0.157707	-419.202555	-419.192666	-419.191722	-419.236802	36.317	
C	-0.1247258455	 1.8128930733	 0.3202008908	-0.455802
C	-0.1063041102	 0.3194129574	 0.0743391016	 0.249721
C	-1.3813591374	-0.1849393847	-0.6250674484	-0.157125
O	-1.2173678573	-1.4215547283	-1.2893183858	-0.416005
N	 1.1584192599	-0.2820062021	-0.3427752968	-0.388082
C	 0.6384432535	-0.608914445	 1.0067508854	 0.130227
C	 1.4726566904	-0.142576768	 2.1884938225	-0.457542
C	 0.0467691024	-1.9141541717	 1.2183052068	 0.253386
N	-0.4383682576	-2.9491173708	 1.407871245	-0.369666
H	 0.7811981137	 2.1607552531	 0.8162570642	 0.135061
H	-0.2042745761	 2.3419476688	-0.6354371443	 0.133692
H	-0.9872641709	 2.0946315358	 0.9342165892	 0.126017
H	-2.2132188803	-0.2116017655	 0.0923186676	 0.115072
H	-1.6426143008	 0.5458902526	-1.3987032905	 0.120383
H	-1.3591137964	-2.1365865522	-0.6581271463	 0.308741
H	 0.940488286	-1.04091128	-0.9907672875	 0.251584
H	 1.985022901	 0.7875470141	 1.9437017111	 0.142428
H	 0.8503337836	 0.0105501085	 3.0751457427	 0.134807
H	 2.2327164719	-0.8915386753	 2.4295052927	 0.143104
