16
gdb 123660	4.003	1.6867	1.30794	3.4522	74.17	-0.1997	0.0364	0.2361	938.3778	0.128751	-396.923036	-396.916739	-396.915794	-396.953579	25.897	
C	-0.0272486762	 1.4423301832	 0.1280844406	-0.322161
C	 1.3063463907	 0.7247063011	-0.0135505257	-0.01779
N	 2.0689786125	 0.3327578172	 1.1657096026	-0.420073
C	 1.2158192499	-0.4574075764	 1.9462790006	 0.422261
C	 1.1089859159	-1.0750338261	 3.1754678528	-0.37587
C	-0.1457448358	-1.7381493029	 3.0901666373	 0.015299
N	-0.7730533078	-1.5442982805	 1.9304225631	-0.306704
N	 0.0974891987	-0.7632559439	 1.2491828937	 0.051618
C	 0.0120070342	-0.0638526473	 0.0048950318	 0.000218
H	-0.3064714932	 1.8610548829	 1.0885415676	 0.132255
H	-0.3636416401	 2.0003871102	-0.7387890691	 0.125593
H	 1.8851379123	 0.8553551483	-0.9198441038	 0.114254
H	 2.5396242028	 1.084973464	 1.6511614492	 0.249324
H	 1.8093672866	-1.0737452689	 3.9930784478	 0.098901
H	-0.6068321392	-2.3631141889	 3.8418529989	 0.107053
H	-0.3978672616	-0.5985649121	-0.8419713374	 0.125823
