17
gdb 81155	2.60898	1.64177	1.23703	1.8121	74.5	-0.2458	0.0297	0.2754	1023.7387	0.135676	-421.761777	-421.753928	-421.752984	-421.793794	31.23	
O	 0.0878158278	 1.3892257281	 0.0225546388	-0.440413
C	 0.0514946884	-0.0087395525	 0.0238857195	 0.104534
C	 0.0555834461	-0.6288352406	 1.4419959468	 0.059281
C	-1.4345357354	-0.2418150993	 1.557795691	-0.280547
C	-1.4047526814	-0.6401704754	 0.0353424766	 0.177968
C	-1.0130779721	-2.1231863974	 0.155403132	-0.1258
O	 0.0254896949	-2.0343487881	 1.1568508266	-0.28173
C	-2.392218493	-0.2286006968	-0.9202293301	 0.044637
C	-3.1844391529	 0.1633086345	-1.7375669778	-0.366025
H	-0.3579409601	 1.6972440749	-0.7754965504	 0.292863
H	 0.7556245711	-0.4514083251	-0.6930321364	 0.07726
H	 0.8112577289	-0.4094060099	 2.1928279577	 0.092315
H	-2.0596867621	-0.840653162	 2.2224275843	 0.105695
H	-1.5938347952	 0.8250507035	 1.6935218634	 0.129623
H	-1.8339151906	-2.7576228681	 0.5069774277	 0.112394
H	-0.610224632	-2.5359262933	-0.7759748248	 0.111323
H	-3.8986023624	 0.4928882274	-2.4511863948	 0.186621
