25
gdb 59641	3.01568	1.02683	0.81565	1.1739	89.5	-0.246	0.0841	0.3301	1528.4211	0.228383	-389.520439	-389.510024	-389.50908	-389.556431	38.801	
C	 0.9024187453	-0.5346812049	-1.1158721085	-0.395558
C	 0.0507919103	 0.0007178264	 0.0433125135	 0.00666
C	 0.0249438979	 1.5347876219	 0.0463004541	-0.39156
C	-1.3654658857	-0.5751252234	-0.0068685533	 0.171766
C	-1.4791215563	-2.114034722	 0.1239634615	-0.248229
C	-2.7539598711	-2.3222222915	 0.9782609456	-0.241394
C	-3.2700346813	-0.8865717301	 1.2239770264	 0.162383
C	-3.8993387596	-0.6390784645	 2.5834239328	-0.409754
O	-2.1214145252	-0.0600220867	 1.0841797275	-0.277434
H	 1.9158761825	-0.1237256064	-1.0712147727	 0.112559
H	 0.9849397033	-1.625748901	-1.0981141797	 0.114193
H	 0.4731575848	-0.2468840558	-2.0832427784	 0.111942
H	 0.4943328501	-0.3384613153	 0.9901841293	 0.073016
H	-0.4032259655	 1.9190263	-0.8876728875	 0.105943
H	-0.5784733788	 1.9129594871	 0.8738549405	 0.132448
H	 1.0378900823	 1.9405639284	 0.1377101814	 0.103264
H	-1.8431852588	-0.2576693518	-0.9530304853	 0.052194
H	-1.5419517181	-2.5989020913	-0.8531520154	 0.101167
H	-0.5989550222	-2.5181695508	 0.6333078604	 0.102285
H	-3.5042073763	-2.9426499101	 0.4812144752	 0.098855
H	-2.5109369935	-2.8022746926	 1.9310907613	 0.100936
H	-3.9949773209	-0.6265185073	 0.4318599039	 0.057525
H	-3.1880166541	-0.879300033	 3.3800060931	 0.119974
H	-4.194301247	 0.4086883309	 2.6894689149	 0.123102
H	-4.7900077623	-1.2620363061	 2.7120213295	 0.113717
