17
gdb 27728	2.23778	1.4613	0.88982	4.3951	85.04	-0.1928	-0.0256	0.1672	1263.7407	0.136572	-418.07236	-418.063369	-418.062424	-418.10623	32.972	
C	 0.0227653069	 1.5463940963	 0.0655780704	-0.510117
C	 0.0076711896	 0.0482165795	 0.0334204369	 0.237086
C	-0.0363178695	-0.7635895781	-1.0998506292	 0.121893
N	-0.0249234727	-2.084927885	-0.6613855509	-0.344729
C	 0.0243382353	-2.1210495623	 0.6894540595	 0.366934
N	-0.0281945951	-3.3159603437	 1.3916576931	-0.599594
C	 0.0482799144	-0.8076062464	 1.1567060789	-0.314682
C	-0.0859883758	-0.5034429849	-2.5070171415	 0.058562
O	-0.1193123687	-1.3837680896	-3.3582635199	-0.349629
H	 0.9251220198	 1.9231948681	 0.5604632222	 0.132181
H	-0.0096148328	 1.9769969635	-0.9375446846	 0.131784
H	-0.8351835979	 1.9379010235	 0.6238513846	 0.133655
H	-0.0963603454	-2.8545724981	-1.3076343685	 0.27048
H	 0.4694432097	-4.0827349131	 0.9583933273	 0.254279
H	 0.2447647403	-3.2172917587	 2.358994652	 0.259778
H	 0.096039385	-0.513482196	 2.194755031	 0.090243
H	-0.0949321631	 0.568891125	-2.7913611814	 0.061875
