12
gdb 25426	7.21991	0.86753	0.77447	1.7941	72.89	-0.2696	-0.0761	0.1935	1324.3147	0.078018	-435.534286	-435.526926	-435.525981	-435.566665	25.935	
O	 0.0061136583	-0.0748251367	-0.0037390359	-0.260286
C	 0.0000323646	 1.1338716651	 0.0068716341	 0.076101
C	 1.2157266515	 1.9591402865	 0.0007074391	 0.167349
C	 2.506258577	 1.4924621076	-0.0174069498	-0.060141
O	 3.3836253351	 2.5046724744	-0.0184357822	-0.157681
C	 2.6541688459	 3.6695624457	-0.0004775083	 0.295139
C	 1.3201495997	 3.3857300966	 0.0120788068	-0.399992
C	 3.3665262822	 4.8874930884	 0.0020463745	 0.235811
N	 3.9306230181	 5.8989530821	 0.0044775617	-0.324912
H	-0.950296301	 1.7091372354	 0.0222517535	 0.085145
H	 2.9161749509	 0.4960276622	-0.0305055038	 0.187072
H	 0.5165221477	 4.1051201726	 0.02724739	 0.156396
