13
gdb 20248	4.18251	3.17432	2.56265	3.7553	59.71	-0.2116	-0.0569	0.1547	578.4119	0.096226	-361.323465	-361.318583	-361.317639	-361.351977	21.089	
O	-0.1735279396	 1.2210588132	 0.1856060772	-0.280565
C	 1.3311576582	 1.1957062564	-0.0059768955	 0.096383
C	 2.1912913673	 0.0631358796	 0.695498794	-0.131357
C	 1.4576260587	-1.3013745267	 0.5072803938	-0.017832
N	 0.0342196134	-1.070026236	 0.4742490028	-0.194739
C	-0.0171422002	-0.0769556548	-0.3291021146	 0.215599
C	 1.2326689293	 0.2524680038	-1.2035417938	-0.131456
C	 2.2678534215	-0.6946999865	-0.6325349355	-0.105306
H	 1.7270638624	 2.2085944178	-0.0345092516	 0.121294
H	 2.9437611033	 0.2126703468	 1.4562836634	 0.10525
H	 1.8306846733	-2.1629080027	 1.048314063	 0.111382
H	 1.1168336536	 0.5845224639	-2.2289225894	 0.104372
H	 3.1023836186	-1.1698384549	-1.1258913138	 0.106977
