19
gdb 71226	2.79323	1.8414	1.67062	1.2137	78.89	-0.2311	0.0159	0.247	912.4048	0.161105	-385.858644	-385.851754	-385.85081	-385.889225	29.786	
O	-0.0508610296	 1.4167543329	-0.0199629054	-0.503649
C	 0.018154628	 0.016020203	 0.0134448229	 0.378853
C	 0.3100494966	-0.7172522769	 1.3732960563	-0.285307
C	-0.7182159471	-1.7557685164	 0.9153140653	-0.03024
C	-0.4149720713	-2.5098734231	-0.4607628152	-0.091575
C	-1.648653031	-1.7459871447	-1.0668122364	-0.228608
C	-1.407706165	-0.6882691443	 0.0112581805	-0.04577
C	 0.7939338974	-1.9330922119	-1.1500544651	-0.074943
C	 0.9469333182	-0.6169620913	-0.9949094273	-0.14777
H	 0.8460854551	 1.7652930576	 0.0301672106	 0.274226
H	 1.3424586415	-1.0083995652	 1.5866646886	 0.085572
H	-0.1065095777	-0.1379526756	 2.2038907238	 0.100525
H	-1.2620528703	-2.3567921752	 1.6444100581	 0.067114
H	-0.4420253305	-3.5996895917	-0.4477661469	 0.062241
H	-1.5991903896	-1.4769323351	-2.125215663	 0.095144
H	-2.5845318938	-2.274322504	-0.8585258503	 0.096643
H	-2.1982580748	-0.0214713586	 0.3573729353	 0.072678
H	 1.4189073457	-2.5452342655	-1.7911345525	 0.091994
H	 1.7155656482	-0.019490834	-1.4764730992	 0.082873
