15
gdb 52545	4.10063	0.7309	0.6274	6.8381	75.36	-0.2527	-0.0391	0.2136	1718.2887	0.110663	-453.983384	-453.973262	-453.972317	-454.021682	33.836	
C	 0.1319680128	 1.4304215133	 0.1375361242	-0.505901
C	 0.0529250006	-0.0125054844	-0.0140058948	 0.170365
C	-0.0269795195	-1.2088290865	-0.1412581543	-0.091842
C	-0.1863224685	-2.6446956201	-0.3133189285	 0.298357
O	-1.2201181873	-3.1602008862	-0.6579932428	-0.302828
N	 1.0036095572	-3.3286804005	-0.0492664602	-0.402126
C	 1.1739900597	-4.7267183309	 0.0220089963	 0.467343
N	 2.5154827482	-5.0641917806	 0.1348716396	-0.573244
O	 0.2768797036	-5.5286568602	 0.0437581507	-0.327029
H	 0.7930562847	 1.8667378911	-0.6190397762	 0.160892
H	-0.8551028359	 1.8913193434	 0.029157446	 0.166987
H	 0.527088018	 1.7014199286	 1.122365015	 0.160685
H	 1.7875123292	-2.7501821611	 0.2125188124	 0.257766
H	 3.1963667621	-4.4937933608	-0.3438085679	 0.252518
H	 2.6727048651	-6.0574437352	 0.0504240406	 0.268059
