17
gdb 56367	2.01105	1.46164	1.2531	4.4399	76.25	-0.318	-0.0099	0.3081	1118.5882	0.134922	-380.879906	-380.870708	-380.869764	-380.913842	33.394	
C	 0.1170534453	 1.4882284209	 0.0222032306	-0.405125
C	-0.0278999602	-0.0581890833	 0.0177396761	-0.095143
C	 0.5930987699	-0.6009559469	 1.240397074	 0.302385
N	 1.1154765955	-1.007190466	 2.1868377334	-0.337358
C	-1.4629293492	-0.4106983282	 0.0242544397	 0.304109
N	-2.5897125858	-0.6604686195	-0.0138766135	-0.322541
C	 0.6216508116	-0.6569694265	-1.2425919505	 0.013401
C	 2.0958413554	-0.9588354999	-1.3027640933	-0.292639
C	 1.089491821	-2.0837391217	-1.3089845452	-0.276555
H	 1.1771130856	 1.7493448892	 0.0175379942	 0.150358
H	-0.3570553157	 1.8972785481	-0.8728175859	 0.146469
H	-0.357495807	 1.9226890042	 0.9039316186	 0.155732
H	 0.1660753731	-0.2492945455	-2.1394797505	 0.114176
H	 2.6185101386	-0.7165141699	-2.2207510886	 0.126062
H	 2.6840284418	-0.8269003423	-0.4012307856	 0.142614
H	 1.0169510479	-2.6868138644	-0.410705993	 0.145585
H	 0.9132898223	-2.6263978982	-2.2301194805	 0.12847
