18
gdb 90578	3.31027	1.32936	1.02451	4.0616	80.15	-0.2056	0.0022	0.2078	1174.7837	0.148256	-401.969671	-401.961505	-401.960561	-402.002872	30.596	
C	-0.3111762526	 1.5278609092	 0.1226722382	-0.397347
C	 0.0159937244	 0.0468552762	-0.0191800988	-0.154693
C	 1.2298954915	-0.3450234651	-0.9550757068	-0.192806
N	 1.8165266153	-1.0213605456	 0.2155531085	-0.094908
C	 0.8212606673	-0.6078930504	 1.1022741701	 0.40071
C	 1.1076430863	-0.8795936262	 2.3769847715	-0.325581
C	 2.4713974971	-1.5560398489	 2.350328747	-0.376553
C	 2.9302649222	-1.5245949818	 0.8574541939	 0.373394
O	 3.9885468083	-1.8633640948	 0.3857588531	-0.367495
H	 0.5831559354	 2.1065330316	 0.3732709615	 0.128344
H	-0.7277383858	 1.9247843362	-0.808710853	 0.123921
H	-1.0480636668	 1.6878488342	 0.9157304688	 0.129961
H	-0.8837162053	-0.5219407444	-0.2725342288	 0.105779
H	 1.0050089382	-1.0116190247	-1.7908989046	 0.128666
H	 1.8202642344	 0.5059604933	-1.3089394444	 0.128991
H	 0.5322920891	-0.662216537	 3.2629693314	 0.104974
H	 3.2238948194	-1.0485696622	 2.9642610228	 0.141495
H	 2.4489060017	-2.6008422394	 2.6836112697	 0.143148
