20
gdb 65531	2.75579	1.54679	1.31017	4.1251	82.15	-0.3008	0.0413	0.3421	1053.7994	0.173246	-366.026015	-366.018175	-366.017231	-366.057922	31.593	
C	-0.0919449395	 1.5424664508	-0.0055549375	-0.453927
C	 0.0367213918	 0.0091192158	 0.0199960432	 0.155446
C	 0.9884387498	-0.5795711664	-1.0999511036	-0.261782
C	 2.0049783515	-1.3177196138	-0.2082517735	-0.009768
C	 1.0836801747	-2.020372505	 0.831296119	-0.240291
C	 0.7944264594	-0.5536800324	 1.2635011011	-0.030205
C	 2.2823986647	-0.2711650201	 0.9064495403	-0.242277
C	-1.3096188851	-0.5673586029	-0.0666862386	 0.254472
N	-2.3758669156	-1.0107570868	-0.1315082457	-0.359686
H	 0.8910561334	 2.0138830179	 0.0625751316	 0.124637
H	-0.5648904376	 1.8752982762	-0.9338204583	 0.135978
H	-0.7030705959	 1.8960365616	 0.8300525188	 0.134027
H	 0.4594619083	-1.2463073395	-1.7842765675	 0.122538
H	 1.4431194068	 0.2234741061	-1.6870862909	 0.106243
H	 2.8108493314	-1.8458031568	-0.7177474649	 0.067839
H	 0.2491595252	-2.6251011077	 0.4675001297	 0.116986
H	 1.6472262069	-2.5693676768	 1.5880633579	 0.103631
H	 0.3658891908	-0.3036843339	 2.2340435774	 0.07636
H	 2.9581860008	-0.6481014177	 1.6768678853	 0.105884
H	 2.5814508381	 0.7386898414	 0.6152304762	 0.093894
