17
gdb 1620	3.03357	2.26902	1.76361	1.2181	65.63	-0.2598	0.0452	0.305	813.0934	0.14558	-309.692389	-309.683807	-309.682863	-309.724651	31.506	
C	 0.0548458615	 1.5403696998	 0.1581897582	-0.409573
C	-0.0263992335	 0.0208230638	 0.0158806388	 0.142118
O	-1.3656101062	-0.442429943	 0.0844489141	-0.433774
C	 0.6768705973	-0.5035763798	-1.2704152246	-0.146373
C	 0.7928584005	-2.0398202263	-1.2512636667	-0.39343
C	-0.0507202345	-0.0464343962	-2.4544633102	 0.310021
C	-0.7029198503	 0.3170799515	-3.3984630021	-0.474759
H	 1.0950167818	 1.877530168	 0.2225894604	 0.111354
H	-0.4088727946	 2.035720996	-0.7015735405	 0.123728
H	-0.4693946014	 1.8558296587	 1.0639076885	 0.124202
H	 0.4772973704	-0.4485739691	 0.8692887897	 0.086298
H	-1.8166242459	-0.1148594868	-0.7044692463	 0.282174
H	 1.6868147465	-0.072466705	-1.2948334987	 0.10276
H	 1.2384965466	-2.4132871272	-2.1763264831	 0.121283
H	 1.4182105778	-2.3581737416	-0.4112548691	 0.113755
H	-0.1971338988	-2.4853444499	-1.1317902634	 0.140544
H	-1.2470712073	 0.6403473273	-4.2513977452	 0.199671
