17
gdb 71408	4.04724	1.3304	1.30618	3.2081	72.27	-0.2324	0.0804	0.3128	1032.2729	0.13482	-421.735437	-421.728087	-421.727143	-421.766922	29.295	
C	-0.0162813358	 1.3876535639	-0.07598103	-0.506465
C	 0.0422245094	-0.0990892998	-0.0007185681	 0.483265
O	-0.4490269517	-0.8708389555	-1.106265598	-0.319709
C	-0.3902366895	-2.029722924	-0.2300700616	-0.080891
C	-0.3403303925	-1.0978287184	 1.0366547544	-0.19462
C	 1.151729319	-0.9271476011	 0.681290329	-0.314499
C	 1.1156117397	-2.2479615681	-0.040650638	 0.563661
C	 1.8400795521	-3.4825084789	 0.2326004001	-0.288037
O	 2.0154932866	-2.7492362914	-0.9983464328	-0.277477
H	 0.6125988752	 1.7544570203	-0.8936062823	 0.14109
H	-1.04190135	 1.7270192933	-0.2496399878	 0.13506
H	 0.3431164188	 1.8301886109	 0.8576440457	 0.127475
H	-1.0939225069	-2.8185914136	-0.4841664471	 0.09237
H	-0.8616817086	-1.0691480472	 1.9822780784	 0.106672
H	 1.9394867585	-0.4909361546	 1.2807913599	 0.098166
H	 2.6959715699	-3.4735201717	 0.9062004059	 0.117543
H	 1.3426269056	-4.4466383142	 0.1309384322	 0.116394
