17
gdb 51463	3.0848	1.28777	1.19245	3.8615	73.38	-0.2423	-0.0047	0.2376	1089.922	0.136403	-421.839004	-421.831322	-421.830377	-421.871756	28.889	
O	 0.288109316	 0.1196685478	-0.2311689068	-0.275303
C	 0.4448132161	 1.2914888788	-0.3929432754	 0.177934
O	 0.9224511167	 2.0998289844	 0.5805227233	-0.183525
C	 0.9990132744	 3.4778278023	 0.2947835619	 0.093165
C	 2.2502787308	 4.2000345592	 0.6759431731	-0.101577
C	 3.5050866728	 3.3572068994	 0.9211627973	-0.268796
C	 3.802141755	 2.739813822	-0.4269608076	-0.060272
C	 2.9340259349	 3.1313212233	-1.3620170493	-0.083003
C	 1.8902463976	 4.0389821252	-0.8044600477	-0.13941
H	 0.2221477797	 1.8385897353	-1.3270496038	 0.082659
H	 0.0574251492	 3.9914189576	 0.4697432096	 0.11086
H	 2.1459938109	 5.1490583316	 1.1876376702	 0.097136
H	 4.3358722835	 3.9783186744	 1.2772192924	 0.112944
H	 3.3333896857	 2.5885551755	 1.6850213342	 0.133993
H	 4.6120600052	 2.0356342854	-0.5773890257	 0.104396
H	 2.9404602992	 2.8213408918	-2.4002988496	 0.103315
H	 1.4881281924	 4.847834316	-1.4051489362	 0.095484
