17
gdb 50840	4.55938	0.92615	0.79516	6.7021	73.14	-0.2463	-0.0082	0.2382	1400.4208	0.136238	-455.18193	-455.172971	-455.172027	-455.21691	30.826	
O	-0.3351848473	 0.0754259735	 0.035027505	-0.25773
C	-0.0542478103	 1.2252057377	-0.1598479755	 0.168732
N	 1.2169562159	 1.7719202443	-0.2589665862	-0.386191
C	 2.4525366979	 1.0832589927	-0.2312126742	 0.484077
O	 2.5691475038	-0.1184348859	-0.2485254638	-0.35965
N	 3.5196749622	 1.9450852906	-0.2192041239	-0.136183
C	 3.6678106795	 3.2870908658	 0.3743507462	-0.187898
C	 5.178753961	 2.9843766766	 0.57467956	-0.239763
C	 4.8946004731	 1.5328292802	 0.0943495504	-0.155536
H	-0.8145333685	 2.0259223861	-0.2786098315	 0.077381
H	 1.2496958061	 2.7681700597	-0.4162350899	 0.25482
H	 3.4309349485	 4.1123178813	-0.3072004923	 0.114162
H	 3.1018409222	 3.4197346911	 1.3046074419	 0.12037
H	 5.8313509628	 3.552790157	-0.088348347	 0.123046
H	 5.5388899699	 3.0781623897	 1.5987997066	 0.123753
H	 4.9370396117	 0.7645137101	 0.8726797829	 0.131429
H	 5.4625704213	 1.1865911494	-0.7733412886	 0.125182
