17
gdb 91573	2.96614	1.28894	1.05839	2.1828	73.33	-0.2493	0.0447	0.2941	1154.656	0.133664	-421.749653	-421.740984	-421.74004	-421.783367	32.66	
O	 0.3445132361	 1.2729426159	-0.1488165349	-0.42941
C	 0.2320587865	-0.1015443298	 0.0684113005	 0.091483
C	 0.2295563148	-0.6341907768	 1.5571687251	-0.29054
C	-1.1803107172	-1.1651576635	 1.3033176702	-0.047361
O	-1.9786834584	-0.0369167039	 0.8896615777	-0.297395
C	-1.1799943498	-0.7106598743	-0.0977590509	 0.390719
C	-1.8663032178	-1.2284633401	-1.3326351825	-0.482389
C	-2.1364379865	-0.1822607207	-2.3160668727	 0.309034
C	-2.3532646408	 0.6802898691	-3.1230483955	-0.444888
H	-0.4334217881	 1.6730567474	 0.2612951022	 0.290265
H	 0.9910791455	-0.5932568589	-0.5453273372	 0.095919
H	 0.9739461753	-1.4156421196	 1.7285409817	 0.109362
H	 0.3094692139	 0.1320096242	 2.3317941959	 0.112625
H	-1.7078829007	-1.9904536389	 1.7673360729	 0.109007
H	-1.2396761529	-2.0069866192	-1.7873272337	 0.138214
H	-2.8038467606	-1.7114060375	-1.0318507489	 0.144797
H	-2.5436554892	 1.4450901165	-3.8345559399	 0.200557
