15
gdb 61098	2.4169	1.24322	1.03683	4.3136	75.27	-0.2939	-0.0171	0.2768	1181.2298	0.10984	-379.657196	-379.647622	-379.646678	-379.691603	33.946	
C	-0.0599771831	 1.5675793093	-0.0521575496	-0.40648
C	-0.0003009764	 0.019240088	-0.0294161319	-0.100867
C	 0.7785371368	-0.5058118437	 1.2306837589	-0.37274
C	 2.1497152704	-0.0263959099	 1.2881860565	 0.301462
C	 3.2813086089	 0.3740251162	 1.3271101124	-0.413314
C	-1.3694791863	-0.524721018	 0.0286492881	 0.298855
N	-2.4458053199	-0.9328933145	 0.1190163755	-0.318282
C	 0.6529367455	-0.4712088662	-1.2569220794	 0.314894
N	 1.178235555	-0.8392151798	-2.2168098836	-0.317389
H	 0.9558007909	 1.9654799682	-0.068839785	 0.163511
H	-0.6007056603	 1.9169642201	-0.9330628857	 0.158978
H	-0.5733739107	 1.9241177586	 0.84395827	 0.146891
H	 0.2184771217	-0.1809335873	 2.1146407592	 0.160409
H	 0.7566075049	-1.6002659567	 1.2229006384	 0.16987
H	 4.2871258726	 0.7145186255	 1.363858756	 0.214202
