18
gdb 6825	3.18503	1.70466	1.45528	3.76	68.23	-0.2426	-0.0288	0.2138	941.682	0.151254	-384.930666	-384.922037	-384.921093	-384.964109	31.038	
C	-0.2634460576	 1.5626650282	 0.0190204288	-0.465046
C	-0.064254566	 0.0493185399	 0.0177822004	 0.249787
C	-1.3321883758	-0.6862293146	-0.4103080386	-0.444009
C	 1.2176616	-0.4597139553	-0.6932864087	-0.09796
O	 1.6661104165	-1.1535237491	 0.4877381755	-0.267514
C	 0.6152329746	-0.6047336624	 1.2805738408	 0.010541
C	 1.0826256085	 0.3559953746	 2.3507637904	 0.140559
O	 2.2044468553	 0.7732254319	 2.4651693783	-0.241134
H	 0.6357890397	 2.0927812989	 0.3455617432	 0.139569
H	-0.5063821192	 1.9082363661	-0.9920172519	 0.121629
H	-1.0912168228	 1.8589339768	 0.6726755575	 0.120075
H	-1.6398784608	-0.3724917968	-1.4142074937	 0.120386
H	-1.1759157385	-1.7693112225	-0.427612965	 0.128037
H	-2.1611703241	-0.4731272593	 0.2736835289	 0.118616
H	 1.0600320072	-1.1427216642	-1.5363355199	 0.102532
H	 1.9211585312	 0.3280086255	-0.9900370487	 0.108228
H	 0.0029667283	-1.3819848479	 1.7640911124	 0.086789
H	 0.2662240835	 0.6713722902	 3.0447817506	 0.068915
