23
gdb 73263	2.2553	1.71041	1.35711	1.2159	84.82	-0.2372	0.0803	0.3175	1099.0892	0.207572	-388.300446	-388.292085	-388.291141	-388.332718	34.111	
C	 0.0305641106	 1.5149625885	-0.0817778743	-0.458821
C	-0.0312843318	 0.0006606818	 0.048623446	 0.407676
C	-1.3452816376	-0.654909597	 0.5433266722	-0.251901
C	-0.499044646	-1.6754093957	 1.3506526577	-0.246185
C	 0.707108575	-0.6981754604	 1.2399668587	-0.004885
C	 2.1244493709	-1.2114227754	 0.9894560358	-0.238667
C	 2.2780397248	-1.7861432312	-0.4256119786	-0.200509
C	 1.6700697838	-0.8208934011	-1.4415772222	-0.073237
O	 0.2854588569	-0.626410124	-1.1983271831	-0.302604
H	 1.0417346402	 1.8591094999	-0.3251536264	 0.113065
H	-0.6400345453	 1.8508378849	-0.8793125259	 0.121983
H	-0.270494006	 2.0000743744	 0.8520144566	 0.10874
H	-1.9128568185	 0.016969694	 1.1933711663	 0.092872
H	-1.9976530454	-1.0364717997	-0.2443927163	 0.103757
H	-0.8369290155	-1.9292596186	 2.3579092079	 0.091155
H	-0.3379161209	-2.600181496	 0.7918176109	 0.107122
H	 0.7019721086	-0.025868542	 2.104726979	 0.06494
H	 2.8316480346	-0.3789372606	 1.1080836509	 0.093335
H	 2.3960401261	-1.9562899396	 1.7474006378	 0.09478
H	 3.335023958	-1.9597584077	-0.6574753042	 0.090348
H	 1.7654838543	-2.7514271999	-0.5115988896	 0.104224
H	 2.2155474655	 0.1378148155	-1.4246261935	 0.081489
H	 1.7375384577	-1.2169969	-2.4593937358	 0.101324
