17
gdb 34928	2.81211	1.50885	1.22165	2.3722	78.41	-0.2447	0.0471	0.2918	1054.0846	0.134714	-384.599431	-384.591582	-384.590638	-384.631738	30.83	
C	 0.0516581315	-1.216918654	 0.0313387357	-0.446566
C	 0.085704103	-0.0148703197	 0.0405105027	 0.339744
C	 0.0997672029	 1.4213339853	 0.0592944662	-0.218603
C	 0.5140412272	 2.2389656707	 1.2630367506	-0.068269
C	 1.6344662087	 1.5266031815	 2.0381660716	-0.348382
C	 2.4908787409	 1.6260719632	 0.757874642	 0.47376
C	 3.9218284491	 1.9049210748	 0.6485962461	-0.272353
O	 3.3704050117	 0.6379798262	 0.2603608922	-0.263526
C	 1.363294945	 2.2672326683	-0.0130997695	-0.171534
H	 0.0397776993	-2.2783176496	 0.0114427956	 0.196071
H	-0.7174997496	 1.8784003498	-0.494374048	 0.117484
H	-0.1268250418	 3.0166878384	 1.6573276137	 0.099071
H	 2.0382083047	 2.1134550721	 2.8661780699	 0.110708
H	 1.4024882603	 0.5151075107	 2.3798973805	 0.127335
H	 4.2969113154	 2.5204814505	-0.1689008495	 0.114663
H	 4.5449175635	 1.8921203081	 1.5425469819	 0.114018
H	 1.4633140682	 3.0402269138	-0.7657569516	 0.096379
