19
gdb 16913	3.67284	1.78616	1.38106	2.3716	70.55	-0.2171	0.0712	0.2882	929.5826	0.1676	-365.039465	-365.032102	-365.031158	-365.07083	29.073	
O	-0.1000576364	 1.4475626266	 0.0364530406	-0.435303
C	 0.0377673875	 0.0334259564	 0.0101126208	 0.128006
C	 0.7616560339	-0.5186919054	 1.2381655516	-0.237476
C	 0.907714306	-2.0396073859	 1.1014299411	-0.236934
C	-0.3985203198	-2.7217495683	 0.7285047067	 0.015397
C	-1.6561747809	-2.4704857477	 1.4774781779	-0.244889
N	-1.5076194278	-1.9770875929	 0.1080300808	-0.10344
C	-1.3871971782	-0.5207028468	-0.0770133719	-0.149993
H	 0.781592423	 1.8333568498	 0.0215998462	 0.279925
H	 0.5965714122	-0.2789384702	-0.8889390593	 0.065573
H	 1.7530075779	-0.057946368	 1.3312293719	 0.084924
H	 0.2011260613	-0.2431593022	 2.1394990438	 0.105866
H	 1.641120474	-2.2500796614	 0.3121154695	 0.103607
H	 1.3110124806	-2.4819184476	 2.0200450794	 0.104983
H	-0.2664250569	-3.7128331098	 0.2959854373	 0.086848
H	-2.386145792	-3.2646122079	 1.6173446284	 0.108796
H	-1.6281265633	-1.7430813521	 2.2876756406	 0.105166
H	-1.9899557477	 0.0061272085	 0.6728982768	 0.109304
H	-1.8071943936	-0.266183025	-1.0557601624	 0.10964
