17
gdb 133841	3.40195	1.93909	1.78947	1.5564	77.86	-0.1911	-0.0845	0.1066	837.2883	0.134397	-384.515057	-384.507943	-384.506999	-384.546083	28.855	
C	 1.4617406901	-0.119556635	 0.2734123415	-0.529805
C	 2.9448248338	-0.0194079669	 0.0687576361	 0.412948
C	 4.0301424074	-0.4951893458	 1.0490429502	-0.141409
C	 3.9699552422	-1.0075701485	-0.3796980252	-0.15464
C	 4.7399096788	 0.0687461499	-1.1428566104	-0.148697
C	 5.7109469518	 0.603923786	-0.2970348222	-0.011802
C	 5.0674953146	 0.6281897977	 1.086365863	 0.019235
O	 4.3367004472	 1.8226565503	 0.6626476219	-0.297675
C	 3.6949696163	 1.1714360153	-0.5682402224	-0.040491
H	 1.2051244691	-1.0622528985	 0.7677398832	 0.12523
H	 0.9234841288	-0.0888101708	-0.6803179713	 0.127372
H	 1.0903932559	 0.6991929971	 0.8996898391	 0.130158
H	 3.7555817278	-1.0628648491	 1.929700417	 0.089166
H	 3.8221310549	-2.0378425012	-0.6776197951	 0.086099
H	 6.3195493826	 1.4722466581	-0.5475454353	 0.140819
H	 5.6244475189	 0.8378574689	 1.9955915398	 0.09405
H	 3.22122179	 1.9610244625	-1.1459862999	 0.099441
