21
gdb 39270	2.36792	2.1591	1.51685	1.3619	80.85	-0.2376	0.0813	0.3189	957.9014	0.18656	-387.077167	-387.070286	-387.069342	-387.107919	29.67	
C	 0.0248076937	 1.4685139488	-0.0306979024	-0.43733
C	 1.3381267609	 0.7237625899	-0.0029128167	 0.087451
O	 2.1257774499	 0.4865724763	-1.1300111746	-0.253847
C	 2.3803230184	-0.9271056296	-1.2244625731	-0.07966
C	 1.0986441191	-1.786098624	-0.9867192195	-0.022849
C	 0.8408298399	-2.1975504075	 0.5039616116	-0.208866
C	-0.0729527496	-1.0726058534	 1.1137420162	-0.297338
C	 0.0378338003	-0.0362373992	 0.0134659917	 0.32937
C	-0.0881968887	-0.8500598719	-1.2699582357	-0.259068
H	-0.2171715577	 2.0396029029	 0.8602244427	 0.11389
H	-0.3022505419	 1.9269581875	-0.9581215863	 0.120023
H	 1.901695536	 0.779053124	 0.9310675918	 0.074832
H	 2.7617103572	-1.0804503336	-2.2385614111	 0.105547
H	 3.1743453524	-1.209983347	-0.5154274247	 0.088365
H	 1.1501936115	-2.6679523636	-1.6312036844	 0.062942
H	 0.3493626995	-3.1739179921	 0.5500873623	 0.097249
H	 1.7810874515	-2.2893001463	 1.0568791524	 0.096699
H	-1.0990363584	-1.4300645412	 1.2581004639	 0.092299
H	 0.2907671963	-0.7139551266	 2.0804540458	 0.094505
H	 0.0264619974	-0.2642857346	-2.1827929845	 0.106782
H	-1.0415448078	-1.3874558587	-1.3114721753	 0.089002
