18
gdb 50225	4.95557	1.18509	1.08544	4.2189	78.43	-0.2319	0.0363	0.2682	1121.7911	0.150331	-401.933255	-401.926315	-401.925371	-401.965252	27.403	
O	-0.0251068572	-0.0280177375	 0.1512825274	-0.345786
C	 0.0218814399	 1.1854084368	 0.0989087746	 0.132206
N	 1.160697243	 1.909711824	 0.0362221738	-0.03747
C	 2.5221683973	 1.3651719453	 0.0179093139	-0.198335
C	 3.2766925195	 2.6930075192	-0.0640313876	-0.03933
C	 2.5520033041	 3.7360368525	 0.8596109151	-0.069015
C	 2.9087763008	 4.8518010165	-0.1478661691	-0.249947
C	 2.4933999957	 3.6527396054	-1.0292744182	-0.069039
C	 1.3316549417	 3.3448098324	-0.0324987661	 0.03136
H	-0.8806950285	 1.8300738079	 0.0976925654	 0.064954
H	 2.7373113041	 0.7904093397	 0.924847437	 0.126164
H	 2.6820634732	 0.7126529049	-0.8468527075	 0.126226
H	 4.3657597132	 2.6702036183	-0.0968663319	 0.079308
H	 2.576678285	 3.7699533157	 1.949725316	 0.079897
H	 2.256992382	 5.7297435393	-0.1663194898	 0.097054
H	 3.9604925509	 5.1441191012	-0.1933938702	 0.101143
H	 2.4506439221	 3.5906356741	-2.1175972196	 0.079901
H	 0.4073097933	 3.9209473445	-0.029178933	 0.09071
