16
gdb 29294	4.53671	1.11323	0.93712	0.3597	73.42	-0.1884	0.0255	0.2139	1224.8011	0.125969	-434.064036	-434.05612	-434.055176	-434.097011	29.606	
N	 0.0308113353	 1.2422415839	 0.5893074432	-0.600479
C	-0.0723254741	-0.0581016829	 0.1070218995	 0.268954
C	-1.0567141772	-0.6718053192	-0.5978174981	-0.133404
O	-0.6826974545	-2.0025978494	-0.7519789697	-0.18858
C	 0.5006733207	-2.087608526	-0.1254405301	 0.463137
N	 0.9239056019	-0.9797794532	 0.4090434841	-0.373793
N	 1.1530968108	-3.3030742958	-0.1925593822	-0.160552
C	 1.9820212689	-3.6978112095	 0.9374978407	-0.213335
C	 0.7027321376	-4.4103496097	 0.661119985	-0.229989
H	 0.9963207133	 1.5036247797	 0.7385937525	 0.253372
H	-0.4457248402	 1.9297484253	 0.0225932898	 0.246486
H	-1.9995611943	-0.3830257016	-1.0240719607	 0.127137
H	 2.9286868879	-4.156510359	 0.6704116883	 0.127833
H	 2.012265335	-3.0184482891	 1.783746701	 0.147164
H	-0.1343633016	-4.21921357	 1.3266405148	 0.135328
H	 0.7046500407	-5.3843487335	 0.1829772919	 0.130722
