18
gdb 126234	1.9386	1.7241	0.97668	3.7727	75.65	-0.2031	0.0312	0.2344	1212.7667	0.14806	-435.272205	-435.262824	-435.261879	-435.306486	34.678	
C	-0.1863087002	 1.5590323763	-0.0445845236	-0.36555
C	-0.0032580742	 0.0297474371	-0.026185344	-0.333686
C	 0.7284064292	-0.4923040912	 1.1726364834	 0.032619
C	 2.0483382656	-0.8230146428	 1.3096912369	 0.399201
N	 3.1021550147	-0.8243975563	 0.4209692913	-0.598413
O	 2.3119564371	-1.2986459281	 2.5311382308	-0.225339
N	 1.1110921281	-1.2937391519	 3.2907210383	-0.256973
C	 0.2050924052	-0.8239730029	 2.4608439623	 0.349831
N	-1.1304052633	-0.7617529992	 2.8355197608	-0.592492
H	 0.7802072344	 2.0736442513	-0.0386170258	 0.11263
H	-0.7375727699	 1.8803143449	-0.93438939	 0.114182
H	-0.7394749524	 1.9051750472	 0.8353525584	 0.111674
H	-0.9885525024	-0.4506000032	-0.0786132334	 0.115965
H	 0.523889207	-0.2812987301	-0.9368631464	 0.102792
H	 3.0728777028	-0.0852123168	-0.2654238479	 0.261301
H	 4.0047624839	-0.8916862589	 0.870665752	 0.264446
H	-1.2552870912	-0.9046708545	 3.829674915	 0.257028
H	-1.6044828144	 0.0748800792	 2.5249556821	 0.250785
