16
gdb 130169	3.38917	1.57396	1.08366	1.9043	78.28	-0.1896	0.0028	0.1925	1059.8174	0.128055	-396.952259	-396.945026	-396.944082	-396.983537	28.825	
N	-0.0823141325	 1.4036987191	 0.1546332033	-0.591753
C	 0.0456140675	 0.0186769094	 0.0435732811	 0.187311
N	-1.0373986441	-0.7621160672	 0.0222994739	-0.305907
N	-0.5537754062	-2.0442985387	-0.0063672239	-0.344907
C	 0.7886809689	-2.0684191253	-0.0202037732	 0.357242
C	 1.2295942775	-0.7590062107	 0.0152584006	 0.211232
C	 2.6901403595	-0.7783732943	 0.0171313279	-0.219697
C	 3.1138666711	-2.0582135631	-0.0183041152	-0.091965
C	 1.9368071859	-3.0320865507	-0.0435641574	-0.418114
H	 0.5755132044	 1.9117476363	-0.4213697214	 0.24417
H	-1.029031779	 1.7018405503	-0.04500048	 0.248533
H	-1.2124342447	-2.8024964594	-0.0177306794	 0.267314
H	 3.3310677882	 0.0936495591	 0.0467486477	 0.095861
H	 4.1421159084	-2.3939628206	-0.0255158871	 0.095397
H	 1.9490672223	-3.7077661183	 0.8215151077	 0.133548
H	 1.9507501928	-3.6679453957	-0.9383654145	 0.131734
