21
gdb 100812	3.87399	0.76725	0.67447	0.7628	81.45	-0.2491	0.0497	0.2989	1691.1242	0.178285	-424.191782	-424.180557	-424.179612	-424.2284	40.478	
C	 0.0076701446	 1.5918282545	-0.0080356009	-0.384743
C	 0.0011635178	 0.0616133502	 0.0106124219	-0.195578
C	-1.4090582986	-0.5332431388	-0.0038020888	 0.11067
O	-2.1364766983	-0.1518403363	-1.1708811531	-0.427806
C	-1.3966491943	-2.0695431555	 0.1548377163	 0.101453
O	-0.6928438566	-2.4616010365	 1.3224714624	-0.419411
C	-2.8279503914	-2.6429425248	 0.1188327871	-0.396058
C	-2.8704834276	-4.098242795	 0.1368959227	 0.312378
C	-2.897607961	-5.2996627672	 0.143094403	-0.440471
H	 1.0284444388	 1.9816846352	-0.0605109766	 0.112153
H	-0.5514342104	 1.9745938944	-0.8663905274	 0.123635
H	-0.4582008268	 1.9979571773	 0.8967053678	 0.114241
H	 0.5474302813	-0.3279037311	-0.862399777	 0.083561
H	 0.5264868916	-0.3217237393	 0.8900947483	 0.119042
H	-1.9873484245	-0.1099201665	 0.8313180046	 0.075426
H	-1.5930230519	-0.3708646501	-1.9368056613	 0.281497
H	-0.8257456142	-2.5010505861	-0.6782440254	 0.090308
H	-1.253225316	-2.2807981168	 2.085498103	 0.282335
H	-3.3864627697	-2.2417459537	 0.9784939488	 0.115067
H	-3.3306550852	-2.2520478761	-0.7716544867	 0.149204
H	-2.9233726377	-6.3608926579	 0.1515045114	 0.193098
