18
gdb 20163	3.26627	2.89119	2.03231	0.1985	74.87	-0.2267	0.0216	0.2484	733.7119	0.157589	-310.652138	-310.646425	-310.64548	-310.681514	24.581	
C	-0.0389842743	 1.5471578549	 0.0067118076	-0.235297
C	 1.5139192449	 1.5739811627	 0.0002974289	-0.012429
C	 2.2092890166	 1.4083439767	 1.379171425	-0.235297
C	 2.0727544473	-0.1591361813	 1.2716699477	-0.062372
C	 0.9125136706	-0.7459148025	 2.0337703049	-0.076995
C	-0.2254290355	-0.6756606127	 1.3391063488	-0.076996
C	-0.0224018291	-0.0297763683	-0.0073255881	-0.062372
C	 1.5288228538	 0.0210900482	-0.1811787719	-0.036858
H	-0.5415994836	 2.0172113185	 0.8569076151	 0.091859
H	-0.4550168286	 1.9613971537	-0.9162487894	 0.095648
H	 1.9837486859	 2.2668467603	-0.6992694921	 0.060368
H	 3.2535675556	 1.7324162432	 1.3476578705	 0.095648
H	 1.7250342094	 1.8772677525	 2.2405732417	 0.091859
H	 3.0135364131	-0.6987693097	 1.4046758012	 0.064667
H	 1.0033128527	-1.1155190074	 3.0498610428	 0.088583
H	-1.2009769693	-0.9794288804	 1.7042406701	 0.088583
H	-0.6149585588	-0.4747363563	-0.8103525096	 0.064667
H	 2.0011592293	-0.5082119921	-1.0084603331	 0.056737
