21
gdb 66128	2.77736	1.33363	1.22455	2.7796	81.69	-0.2424	-0.0169	0.2255	1136.4268	0.182802	-387.107485	-387.098836	-387.097892	-387.140629	33.624	
C	 0.0040803183	 1.5748824342	 0.0343934937	-0.436211
C	 0.01345816	 0.0462953005	 0.0454294692	 0.185675
C	 0.7432228295	-0.5802387172	-1.1887671671	-0.278618
C	 1.3198669518	-1.9375766474	-0.7240112972	-0.226315
C	 1.5441636518	-1.7758897103	 0.772294112	-0.024201
C	 2.2625958421	-0.5318825397	 1.2282476287	-0.309496
C	 0.7528338063	-0.574481222	 1.2400820496	-0.049908
C	-1.4078946286	-0.4977423267	 0.0742259127	 0.141925
O	-2.4096760384	 0.1696301897	 0.1173167116	-0.259771
H	 1.0266653929	 1.9625704223	 0.0543983964	 0.107907
H	-0.497138494	 1.959372837	-0.858684922	 0.122423
H	-0.5332933744	 1.9687513802	 0.901027758	 0.125964
H	 0.0790202975	-0.680637723	-2.0526950375	 0.1094
H	 1.5451503676	 0.0975557974	-1.4958135317	 0.111649
H	 0.5983353982	-2.7440618939	-0.8979543225	 0.105153
H	 2.2306319898	-2.2021836057	-1.2723188007	 0.101727
H	 1.6211181732	-2.6676568241	 1.384328747	 0.084551
H	 2.7558460251	-0.5676264102	 2.1933340027	 0.114674
H	 2.7755842758	 0.0861391601	 0.4982586518	 0.111721
H	 0.2532533666	-0.5667331961	 2.2034623022	 0.08933
H	-1.4694748511	-1.6112150051	 0.054586913	 0.07242
