21
gdb 56631	2.01916	1.40198	1.09902	1.5936	84.23	-0.2481	0.053	0.301	1245.8179	0.178851	-387.044663	-387.034172	-387.033228	-387.079641	39.439	
C	-0.2714121399	 1.4687490189	 0.0567037841	-0.416035
C	 0.0367304098	-0.0362701546	-0.0928233655	-0.216508
C	 0.7832514915	-0.2982742125	-1.3246665151	 0.355784
C	 1.3906121002	-0.5012204251	-2.3419094725	-0.479452
C	 0.777707005	-0.5772093977	 1.1350290125	 0.415432
O	 2.001161626	 0.060970145	 1.3927863928	-0.470165
C	-0.0121670148	-1.0608198557	 2.3311076324	-0.37305
C	 0.7828974841	-2.0369178867	 1.4776533599	-0.023806
C	 0.1046377356	-3.1032493583	 0.6469313641	-0.417887
H	 0.6541465136	 2.0500574979	 0.0992288558	 0.126225
H	-0.8491613541	 1.8308440363	-0.7968789468	 0.129067
H	-0.8480956863	 1.649342154	 0.9696689696	 0.115532
H	-0.9223439298	-0.5642476153	-0.1590067986	 0.102513
H	 1.9316655302	-0.688043322	-3.2360977025	 0.192789
H	 1.8126085168	 0.9334241403	 1.7549990465	 0.28186
H	 0.3708885321	-0.8123904924	 3.3148538084	 0.110351
H	-1.095548839	-1.0903778148	 2.2578983525	 0.105404
H	 1.725423476	-2.3456356561	 1.9210295218	 0.09809
H	-0.8709465935	-2.7775043767	 0.2741333936	 0.113784
H	 0.7147113097	-3.3805323593	-0.2184176009	 0.133054
H	-0.0630696834	-4.0043474752	 1.2466269879	 0.117017
