19
gdb 85998	2.49343	1.30226	1.21441	3.1165	72.1	-0.248	-0.0297	0.2182	1132.6866	0.15651	-460.159334	-460.149805	-460.148861	-460.193482	35.518	
C	-0.7502628418	 0.9786967403	-0.0765690587	-0.411172
C	 0.1248784782	-0.2602831771	-0.1215964785	-0.022641
C	 1.4190948436	-0.2762221095	-0.9724702749	 0.063587
O	 1.9824922556	 1.0364967011	-0.945997741	-0.4342
C	 2.0602139173	-1.189186459	 0.1014774004	-0.301538
C	 1.0136274447	-0.6375014752	 1.1244535168	 0.31362
O	 1.463981774	 0.4611373515	 1.8812445844	-0.500324
C	 0.4184742186	-1.635725803	 2.0884710891	 0.121948
O	-0.0393336371	-2.6969267845	 1.7449241399	-0.268474
H	-0.179174683	 1.8656845509	 0.2038265776	 0.127835
H	-1.2014016435	 1.166417627	-1.0564506314	 0.118849
H	-1.5604538605	 0.8527649409	 0.6485758265	 0.121788
H	-0.4599536536	-1.1501955766	-0.3740914554	 0.101933
H	 1.3520176669	-0.6484958331	-2.0015248471	 0.071195
H	 2.8725267815	 0.9855907593	-1.3102272753	 0.290652
H	 1.8916389256	-2.2505054369	-0.0959029773	 0.126711
H	 3.1095901744	-1.0100818067	 0.3507973997	 0.099868
H	 1.8444054808	 1.0910599392	 1.2547445539	 0.28623
H	 0.4332709785	-1.3102295986	 3.1511378012	 0.094133
