25
gdb 64478	2.45526	1.30822	1.11375	1.1872	88.27	-0.241	0.0742	0.3152	1266.7773	0.230072	-389.503818	-389.49435	-389.493406	-389.537223	37.775	
C	 0.4031738351	 1.5209253589	 0.2649051262	-0.411974
C	-0.1331780222	 0.0944334444	 0.0327258683	 0.274301
C	-1.6667927244	 0.1311119415	 0.1866750164	-0.411351
C	 0.2690726689	-0.3301309897	-1.4056806909	-0.193013
C	-0.2456221054	-1.6981702637	-1.886269437	-0.250085
C	 0.6066886101	-2.8977789209	-1.4344107031	-0.059905
O	 1.2059852594	-2.7709996468	-0.1591754433	-0.241714
C	 0.3596398032	-2.337119901	 0.8926617199	-0.098984
C	 0.4843252738	-0.8269272926	 1.1117893189	-0.19391
H	 1.4876716831	 1.5641281461	 0.115936734	 0.109931
H	-0.0593593825	 2.2340048608	-0.4266060472	 0.105629
H	 0.1922150655	 1.8612129687	 1.2847379899	 0.106038
H	-2.1289091845	 0.7247732179	-0.610049237	 0.108059
H	-2.120009933	-0.8640200636	 0.162165505	 0.111162
H	-1.9422294923	 0.5876152958	 1.1437050529	 0.108478
H	-0.1076699988	 0.441446879	-2.0889163051	 0.086597
H	 1.3629370775	-0.3052016406	-1.4897818748	 0.097087
H	-1.2859887198	-1.8335543169	-1.5740994669	 0.100521
H	-0.2687666642	-1.7153356993	-2.9825937616	 0.096506
H	-0.0014097369	-3.816731325	-1.4847697739	 0.082964
H	 1.4513519901	-3.0311625401	-2.1192110841	 0.104627
H	-0.6816792394	-2.6475818831	 0.7208345362	 0.086933
H	 0.6997992988	-2.8561965916	 1.7967576421	 0.100747
H	 1.5580221387	-0.6163563454	 1.1931026931	 0.098519
H	 0.0429334495	-0.5741240526	 2.0857083819	 0.082836
