18
gdb 50003	3.6457	1.19517	1.03237	3.8876	77.99	-0.2481	0.0048	0.2528	1173.902	0.147614	-401.909929	-401.90203	-401.901086	-401.942633	30.157	
O	 0.2151361028	 0.2071164849	 0.6501317448	-0.287449
C	 0.103089714	 1.3270235193	 0.2140569763	 0.136428
N	 1.0525633737	 1.9796899086	-0.5529295923	-0.121576
C	 2.4799892803	 1.8722789388	-0.3148853181	-0.317734
C	 1.7748748579	 3.1838793875	-0.186573756	 0.356747
C	 1.9642054618	 4.4464429871	-1.0528731541	-0.323366
C	 1.864757578	 5.2781541597	 0.2368854887	-0.036773
C	 0.5447720894	 5.0383087399	 0.9031109287	-0.280739
C	 1.6342013418	 4.0071905956	 1.0726192377	-0.130826
H	-0.816033369	 1.9322604076	 0.3301284205	 0.083522
H	 2.7853170791	 1.3572818904	 0.5933275815	 0.136547
H	 3.0946808963	 1.6737261501	-1.1893335793	 0.125095
H	 2.9486896574	 4.4780251466	-1.5254350022	 0.115583
H	 1.1961535844	 4.6374706295	-1.8082058301	 0.111818
H	 2.4923859933	 6.1248690105	 0.4808307671	 0.097809
H	 0.3472606165	 5.6361271675	 1.7869215719	 0.120304
H	-0.338664106	 4.8178442359	 0.3083915338	 0.114501
H	 2.0274050483	 3.7386830903	 2.0456270612	 0.100109
