19
gdb 111367	2.14156	1.69974	1.14369	3.4307	79.53	-0.2285	0.0131	0.2415	1126.8478	0.159251	-382.035894	-382.02722	-382.026276	-382.069319	32.506	
C	 0.0537755234	 1.6022586999	 0.0219677374	-0.386011
C	 0.1496642054	 0.084099972	 0.1591786693	-0.134444
N	 0.6022862119	-0.5390330645	-1.0813469614	-0.091475
C	 0.9274136679	-1.9634422188	-1.0921520053	 0.002316
C	-0.27345376	-2.8660824519	-0.9968049479	-0.304577
C	 0.0575229904	-2.2050761938	-2.311192635	-0.08633
C	-0.3196170068	-0.7152672646	-2.2527610322	-0.126403
C	-1.7399253992	-0.4214338988	-2.0440002001	 0.287528
N	-2.8563045823	-0.1834417639	-1.8577175453	-0.342291
H	 1.0141515319	 2.0214131823	-0.2913988818	 0.122033
H	-0.7029089642	 1.8864859631	-0.7158068793	 0.132213
H	-0.2327672626	 2.0538429148	 0.9764637048	 0.118478
H	 0.8982819563	-0.1767564653	 0.9165581807	 0.105932
H	-0.8132048625	-0.3203059417	 0.512394229	 0.102247
H	 1.9392751558	-2.2907531652	-0.8808897712	 0.103599
H	-0.0496140073	-3.927653004	-0.9621277978	 0.122951
H	-1.1586051674	-2.5743930546	-0.4393790934	 0.133579
H	 0.27105499	-2.7441091032	-3.223009455	 0.110284
H	 0.0319851093	-0.1369653118	-3.1133681656	 0.13037
