19
gdb 100452	2.87948	0.75057	0.62266	3.1366	84.08	-0.2579	-0.0502	0.2077	1807.6321	0.154802	-423.008664	-422.997604	-422.99666	-423.046757	37.251	
C	-0.6713730971	 0.6330404283	 0.0954237202	-0.24206
O	 0.6786050126	 0.2242008814	-0.0084335891	-0.22427
C	 0.9825114802	-0.4782511798	-1.1988002583	-0.042855
C	 2.5020443435	-0.6605344133	-1.23806818	-0.393497
C	 0.2799696243	-1.7665221152	-1.2864757605	 0.120557
C	-0.3080345184	-2.8206173055	-1.341491041	-0.016559
C	-1.0187299171	-4.0845173076	-1.4085723416	 0.249009
C	-0.585078062	-5.0166000296	-2.5217483862	-0.478025
O	-1.8978601397	-4.3603274251	-0.620272176	-0.275087
H	-0.956619565	 1.2930591454	-0.7385551901	 0.104143
H	-1.3571030934	-0.2241645359	 0.1155535491	 0.130748
H	-0.7616587833	 1.1861146053	 1.0325682153	 0.132691
H	 0.670548566	 0.123633377	-2.0714821445	 0.099414
H	 2.9821230199	 0.3195256062	-1.1891353119	 0.131353
H	 2.8289254615	-1.2560620599	-0.38255545	 0.141011
H	 2.8041427755	-1.1654773564	-2.1585757121	 0.126463
H	 0.4782639936	-5.2578757607	-2.4170787211	 0.146946
H	-1.1811219141	-5.9296031788	-2.4859894062	 0.144169
H	-0.7073965169	-4.5256092156	-3.4932446861	 0.145848
