18
gdb 10831	4.72038	1.47164	1.17195	4.2963	68.35	-0.2342	0.0585	0.2927	1020.99	0.156589	-381.181698	-381.17378	-381.172836	-381.213898	29.615	
C	 0.0309002777	 1.5814403209	 0.01074107	-0.403379
C	 0.0114097326	 0.052451872	 0.0025199392	 0.017853
C	 0.6944293392	-0.515933891	-1.2455250599	-0.153589
N	 0.7353851344	-1.9661689572	-1.1736273783	-0.343066
C	 0.9264433147	-2.6877844201	-0.0140484823	 0.430166
O	 1.1833848195	-3.8798768381	-0.0209825809	-0.417919
N	 0.7403754136	-1.978648032	 1.1539704546	-0.343054
C	 0.6991250619	-0.5293067847	 1.2417977062	-0.153557
H	 1.0575283573	 1.9648870593	 0.0108586689	 0.120428
H	-0.4767684632	 1.9870042655	-0.8700123446	 0.120099
H	-0.4734000228	 1.9774572141	 0.8977526384	 0.1201
H	-1.0274263469	-0.2998680718	 0.0025609325	 0.096468
H	 0.1389586539	-0.2226507788	-2.1433733044	 0.109146
H	 1.7038647385	-0.0796626446	-1.3364767606	 0.097703
H	 0.98192197	-2.4880445707	-1.999141761	 0.24787
H	 0.9899478086	-2.5094390131	 1.9728552049	 0.247876
H	 1.7087388801	-0.0936878525	 1.3338530544	 0.097707
H	 0.1468157008	-0.2460193272	 2.144795603	 0.109148
