16
gdb 66666	4.70933	1.19537	1.15701	1.5487	81.28	-0.2116	0.024	0.2357	1097.9295	0.12239	-363.463193	-363.455517	-363.454573	-363.495001	30.241	
C	-0.0100219547	 1.5074003932	 0.0358570906	-0.522796
C	-0.0555901079	 0.0226579007	-0.0673406938	 0.36137
C	 0.5403828592	-0.9814001828	-1.0938768888	-0.234266
C	 0.8382674986	-1.8895639621	 0.0586222844	-0.071136
N	 0.2874159684	-0.9007818832	 1.0778605292	-0.21698
C	-1.0484978182	-0.9891270039	 0.382973942	-0.201222
C	-0.5080356452	-2.0321563732	-0.6357735937	 0.34345
C	-1.088890448	-3.0965119856	-1.3542862151	 0.014387
C	-1.5995914828	-4.0053651035	-1.9583528111	-0.37572
H	 1.0221923639	 1.87284009	 0.0036034104	 0.131006
H	-0.5669094103	 1.9777297507	-0.781898995	 0.127554
H	-0.4534274316	 1.8270016211	 0.9838925282	 0.138643
H	 0.9878984215	-0.8862049393	-2.0729558267	 0.110641
H	 1.61744636	-2.6170585915	 0.2468732112	 0.113815
H	-1.9898758245	-0.9055745829	 0.9130764609	 0.102073
H	-2.0465566684	-4.8070210579	-2.4916123026	 0.17918
