21
gdb 108193	3.08989	1.44178	1.32634	2.2041	77.4	-0.2431	0.0864	0.3295	1084.4325	0.184264	-424.247161	-424.239163	-424.238219	-424.279533	31.838	
C	 0.0219576031	 1.5563606226	-0.047590142	-0.380442
C	 0.0255491365	 0.0240365766	-0.0538856162	-0.258226
C	 0.7192165008	-0.5654857988	-1.2619752115	 0.528562
C	 0.8277017183	-2.0852101865	-1.4520730849	-0.284724
C	 1.5889757256	-1.8892295216	-2.7771609163	-0.102222
C	 0.589080073	-0.9793792489	-3.5123542479	-0.07414
O	 0.0670849734	-0.1434315902	-2.4614992873	-0.30887
C	 2.7284473269	-0.9804056842	-2.2833999456	-0.074146
O	 2.0842460647	-0.1443803484	-1.3027618605	-0.308874
H	 1.0436319941	 1.9437088449	-0.0512668303	 0.132753
H	-0.4901143892	 1.9437391387	-0.9316599487	 0.132756
H	-0.4889314652	 1.9350123065	 0.8424778354	 0.103464
H	 0.5301006776	-0.3591284783	 0.8394023981	 0.104255
H	-1.0002815324	-0.3591228144	-0.0392351277	 0.104237
H	 1.4132819561	-2.5731306848	-0.6700585949	 0.105013
H	-0.1431821465	-2.5723933665	-1.5641318076	 0.105011
H	 1.9051038219	-2.7748800027	-3.3282080228	 0.077666
H	 1.0640214785	-0.3568782662	-4.2800810288	 0.102055
H	-0.2313058689	-1.5430184985	-3.9753784543	 0.09691
H	 3.5412820782	-1.5448449655	-1.8081901619	 0.096908
H	 3.1528600933	-0.3579067036	-3.0801742244	 0.102054
