27
gdb 64353	1.74885	1.72024	1.39278	0.0506	93.81	-0.2866	0.068	0.3546	1201.0869	0.251724	-353.585713	-353.575252	-353.574308	-353.620097	41.632	
C	 0.3561279279	 1.5563268822	-0.2407899161	-0.432938
C	-0.0107365208	 0.0806063264	 0.023887838	 0.293689
C	-1.5403742387	-0.0187008238	 0.1115050392	-0.448302
C	 0.5563338598	-0.7959740837	-1.1234646151	-0.23402
C	 2.0285999627	-1.108293661	-0.7498581509	-0.216919
C	 2.1837409358	-0.7038074929	 0.7392239876	-0.2341
C	 0.7486560464	-0.4851356935	 1.2864406545	 0.29387
C	 0.7410168001	 0.455079817	 2.5002218786	-0.448308
C	 0.1672241241	-1.8434361431	 1.7329028491	-0.432977
H	 1.4368813681	 1.7146882633	-0.3024959174	 0.110639
H	-0.076655273	 1.8802514615	-1.1934161824	 0.106832
H	-0.0349338129	 2.2184591874	 0.5373191232	 0.11165
H	-2.0016023647	 0.4077488373	-0.7864195596	 0.107112
H	-1.88405464	-1.0531539374	 0.1939590104	 0.110932
H	-1.9324426424	 0.5371886401	 0.9710603618	 0.108173
H	-0.0214971048	-1.7224586476	-1.2039555124	 0.091239
H	 0.4674658779	-0.29426323	-2.0923327279	 0.086959
H	 2.2536298216	-2.1674182991	-0.9038171281	 0.096434
H	 2.7288644424	-0.5523236576	-1.3796246567	 0.096479
H	 2.7247114398	-1.4552209451	 1.3232031867	 0.087011
H	 2.7596482418	 0.223441062	 0.8244556428	 0.091232
H	 1.2348054837	 1.4073073105	 2.2894365664	 0.110933
H	-0.2794587684	 0.6708975107	 2.8372798312	 0.108159
H	 1.2684220335	-0.0065226344	 3.3426188256	 0.107118
H	 0.7945104542	-2.2734344314	 2.5211431838	 0.10684
H	-0.8429007639	-1.7395493142	 2.1399215434	 0.111633
H	 0.1255533399	-2.5700327238	 0.9160533646	 0.110629
