21
gdb 104351	2.46739	1.43784	1.16631	3.5963	77.71	-0.2449	-0.0275	0.2174	1154.0091	0.182476	-424.267172	-424.258021	-424.257077	-424.300786	35.076	
C	 0.0466040617	 1.5223466702	 0.0228761395	-0.421286
C	-0.0492567363	-0.0168416132	-0.0409750368	 0.142315
C	-1.5271062642	-0.4613517623	-0.005048772	-0.091941
O	-2.2286135293	 0.0412190998	 1.1088900831	-0.42773
C	 0.7344449955	-0.5957310405	-1.237316291	-0.261971
C	 2.1906357229	-0.7421824729	-0.7381627033	-0.225439
C	 2.0407006749	-1.1707790693	 0.7302998901	-0.313822
C	 0.6948581115	-0.5992625022	 1.1720981555	 0.40415
O	 0.2581917165	-0.625249926	 2.3021064963	-0.352914
H	 1.0835694835	 1.8697893861	 0.0678398452	 0.112755
H	-0.4164450199	 1.9558111865	-0.8700394625	 0.119619
H	-0.485070822	 1.8958609469	 0.899759318	 0.144631
H	-2.0395094201	-0.088274587	-0.9003320346	 0.102618
H	-1.5664471232	-1.5638179584	-0.0447780794	 0.079693
H	-1.6986036628	-0.1905626007	 1.8861220675	 0.295452
H	 0.3342739735	-1.5847534081	-1.4963806166	 0.100434
H	 0.655828711	 0.0294595866	-2.1308560298	 0.104302
H	 2.7661011255	-1.4548470861	-1.3333506586	 0.106926
H	 2.70933402	 0.2200911153	-0.8001850567	 0.112229
H	 1.970310768	-2.2625620215	 0.8250035448	 0.137141
H	 2.8436532532	-0.8507216134	 1.3991150913	 0.132839
