19
gdb 41505	2.96231	1.53556	1.06525	1.3696	85.45	-0.2149	-0.0258	0.1891	1126.0822	0.161664	-385.882864	-385.875421	-385.874477	-385.914656	29.599	
C	 0.0695286973	 1.5091765838	 0.2124863538	-0.16603
O	 1.3960814907	 1.4829148758	-0.3760910066	-0.308976
C	 1.2459256666	 0.0859269039	-0.7574882456	 0.077783
C	 2.3280881256	-0.8540113544	-0.2506135664	-0.236961
C	 2.0431850458	-2.3068568635	-0.6628751392	-0.263633
C	 0.7305519704	-2.9402946205	-0.2660581619	-0.070137
C	-0.411231111	-2.4099811459	 0.2048693573	-0.062534
C	-0.7448403515	-1.0096809004	 0.4681518739	-0.240565
C	-0.04901474	 0.0219857122	 0.0004107199	 0.253896
H	 0.0782979342	 1.8671768426	 1.2501136763	 0.11715
H	-0.6210083498	 2.1349020831	-0.3714790971	 0.109668
H	 1.1444646388	-0.0010400943	-1.8505400246	 0.08333
H	 3.3029043691	-0.5520077607	-0.6503338649	 0.105577
H	 2.3827302301	-0.769298535	 0.8395359436	 0.107658
H	 2.1438643201	-2.4021874337	-1.7551486983	 0.116766
H	 2.8481753473	-2.9366419926	-0.2607291264	 0.113261
H	 0.732438284	-4.0216204838	-0.3959713685	 0.089324
H	-1.2074142838	-3.1140530023	 0.4385739872	 0.085668
H	-1.6185561739	-0.8280226942	 1.0902949975	 0.088752
