17
gdb 30313	3.08519	1.61234	1.10966	4.8044	74.44	-0.1883	0.0252	0.2135	1068.9639	0.1389	-418.03412	-418.026591	-418.025647	-418.066304	28.73	
C	-0.030234745	 1.6053398302	-0.0961040048	-0.397619
C	-0.0101940007	 0.082886365	 0.0824784142	-0.14761
C	 0.7968420166	-0.6434416157	-1.0662934622	-0.093766
O	 1.578877212	-1.7325843012	-0.5082219924	-0.279352
C	 1.5836334441	-1.4810635792	 0.8284583187	 0.381404
C	 0.7687773914	-0.4715224674	 1.2307834164	 0.204226
N	 0.8657724079	-0.4874724986	 2.6083023877	-0.377401
C	 1.7592850904	-1.4802861154	 2.9159721606	-0.009721
N	 2.2136414532	-2.116642415	 1.8441367636	-0.349012
H	 0.9869657049	 2.0096553738	-0.1011899755	 0.122803
H	-0.516007198	 1.8829456394	-1.0379548846	 0.119634
H	-0.5851840132	 2.0901962272	 0.7136849079	 0.112927
H	-1.0505930776	-0.276605311	 0.093531443	 0.087172
H	 0.1513937085	-1.0609043292	-1.8415284725	 0.119135
H	 1.4921980038	 0.0699711824	-1.5263413948	 0.111108
H	 0.4351595348	 0.1393596151	 3.2662443609	 0.265911
H	 2.055483017	-1.6840025204	 3.9336462639	 0.13016
