16
gdb 11713	5.72482	1.35132	1.23318	1.3321	72.71	-0.2334	0.0376	0.271	980.5819	0.129444	-346.539287	-346.531642	-346.530698	-346.570878	29.569	
O	-0.1071895159	 1.4398372091	-0.112449002	-0.431573
C	-0.0233767064	 0.0391977013	 0.0341426969	 0.121891
C	 0.2602515648	-0.5505417282	 1.4603327428	-0.332896
C	-1.0913690941	-1.2860952887	 1.3943687116	 0.193569
C	-2.1910563718	-0.2656462826	 1.2061283505	-0.310735
C	-1.3796305868	-0.6505658626	 0.0083106753	-0.104082
C	-1.3250839053	-2.6170650995	 1.8369730149	 0.169514
C	-1.4992839825	-3.7452547696	 2.2200965274	-0.41128
H	 0.7835350824	 1.8018553136	-0.0668037104	 0.284748
H	 0.6591666816	-0.3963520349	-0.7068898478	 0.076124
H	 1.1194499867	-1.2231789637	 1.4798294854	 0.112371
H	 0.3500222153	 0.1840860998	 2.2663519734	 0.10007
H	-3.1971609826	-0.6688404094	 1.2287937479	 0.12586
H	-2.0826829734	 0.7226916771	 1.6432590166	 0.124562
H	-1.8264527178	-1.1206843657	-0.8585497239	 0.09898
H	-1.6595359042	-4.7388438761	 2.5574331814	 0.182877
