17
gdb 75557	2.66817	1.48019	1.02245	2.6908	75.68	-0.2379	0.0075	0.2454	1138.7568	0.138941	-414.204024	-414.195878	-414.194934	-414.236746	31.115	
N	 0.0059324126	 1.3745023411	 0.12897233	-0.547089
C	-0.056343261	 0.0017383889	-0.001352417	 0.383038
N	-1.1714435176	-0.6039295375	-0.016104722	-0.301072
C	-1.2114411388	-2.0577954015	-0.0372762137	-0.124266
C	 0.1011179874	-2.7250818188	 0.3649838626	-0.185657
N	 1.1822101266	-2.0859457203	-0.3859731179	-0.303021
C	 1.3239304906	-0.6914621749	 0.0126002221	-0.186211
C	 2.267476101	-0.0036802136	-0.8793507728	 0.272813
N	 3.0112945662	 0.5670445727	-1.5552611366	-0.326479
H	 0.7660795361	 1.8434518097	-0.3429299456	 0.268714
H	-0.8916233341	 1.8233722177	 0.009982901	 0.258717
H	-2.0166698567	-2.3892236157	 0.6289511331	 0.106164
H	-1.491093796	-2.3775717365	-1.0498382448	 0.11819
H	 0.2420733063	-2.6437909024	 1.4587712599	 0.088412
H	 0.0834180826	-3.7884791675	 0.1100554016	 0.111165
H	 2.0620390511	-2.5691068218	-0.2463986866	 0.236291
H	 1.7144472438	-0.5632920596	 1.0413996568	 0.130291
