18
gdb 17580	2.66557	2.41716	1.83815	1.8277	71.01	-0.2474	0.0847	0.3321	830.1187	0.152748	-347.756112	-347.748476	-347.747532	-347.78743	29.664	
C	-0.0067801315	 1.5219571316	 0.0574925473	-0.496853
C	-0.018547853	 0.0205698488	 0.0224490674	 0.280155
C	 1.167071589	-0.83769685	-0.3593324871	-0.3822
C	 0.5946533769	-0.9822165634	 1.033334395	 0.280153
C	 1.3528839597	-0.7015688264	 2.2989777769	-0.496853
C	-0.6801726865	-1.7985755084	 0.9364889665	-0.041158
O	-1.7967899599	-0.9718761181	 1.3054258219	-0.253766
C	-1.2622504725	-0.8466816296	-0.0230978707	-0.04116
H	 0.9664061541	 1.9051820918	 0.3816073486	 0.117252
H	-0.2120838979	 1.9475485499	-0.9319547555	 0.120355
H	-0.765635691	 1.8979759637	 0.7513528131	 0.132293
H	 1.0626371805	-1.6370852591	-1.0889671158	 0.104818
H	 2.118853382	-0.3155938028	-0.4187648585	 0.111075
H	 2.0504974863	 0.1323279929	 2.1687679691	 0.117252
H	 0.665960339	-0.4431718774	 3.1114192156	 0.132294
H	 1.9399293291	-1.5717873766	 2.6158076338	 0.120355
H	-0.8167903021	-2.8713730037	 1.0153380205	 0.097994
H	-1.9457211921	-1.0251898931	-0.8457632284	 0.097994
