16
gdb 98580	4.36974	0.98137	0.81356	4.1262	68.35	-0.2636	-0.0751	0.1885	1353.7114	0.123804	-475.043494	-475.034798	-475.033854	-475.078165	30.08	
O	 0.1523643487	 1.359535296	-0.0566437934	-0.422905
C	 0.0848567936	-0.0355405603	-0.0390405408	-0.127271
C	-1.3514798415	-0.5044381905	 0.1047299484	 0.275221
O	-2.258952523	 0.2927912015	 0.1874787862	-0.31182
C	-1.5925157741	-1.983019414	 0.1391456024	 0.350157
N	-0.6617194032	-2.8467879927	 0.0538422251	-0.302733
C	-1.3185108387	-4.1613214447	 0.1272534426	-0.19349
C	-2.828807483	-3.8350764436	 0.2748414342	-0.115053
O	-2.8738012615	-2.3862555186	 0.2678881824	-0.240608
H	-0.762800879	 1.66797349	 0.0310379844	 0.29508
H	 0.5007783169	-0.4759946192	-0.9581020478	 0.133475
H	 0.6711819222	-0.4622828439	 0.7891034882	 0.133403
H	-1.0926761974	-4.7351320007	-0.7771920632	 0.132117
H	-0.9189396728	-4.7242557381	 0.9767581009	 0.132114
H	-3.4397374396	-4.196699537	-0.5558499649	 0.131177
H	-3.2634017277	-4.1826974543	 1.2152745753	 0.131134
