19
gdb 115652	2.77067	1.26665	1.01856	3.3651	71.87	-0.246	0.0633	0.3093	1223.4185	0.157793	-460.103299	-460.094367	-460.093423	-460.137835	31.841	
C	 0.2029581539	 1.4458066244	 0.0602492119	-0.240819
O	-0.2685482343	 0.1920797345	-0.3888403872	-0.238495
C	 0.6406906837	-0.4862857815	-1.2038415462	 0.008727
C	 1.7765065658	-1.2843804633	-0.5204065724	-0.112192
O	 1.3006570594	-2.5097447237	-1.1204431809	-0.30669
C	 0.1419441169	-1.8669564501	-1.6668724095	 0.332495
C	-1.2562928784	-2.3892351632	-1.2931083074	-0.127058
O	-1.6128255543	-2.5238962725	-2.6873347761	-0.275629
C	-0.273551693	-2.1983454633	-3.1075976857	-0.132283
H	 1.1001650946	 1.3463192536	 0.6889280028	 0.112464
H	 0.4421408658	 2.1113274374	-0.7830918008	 0.112054
H	-0.594714908	 1.8963866385	 0.6544581761	 0.13615
H	 0.9864124832	 0.1559619928	-2.0276139171	 0.077341
H	 2.8056746876	-1.0565366417	-0.8176724466	 0.106007
H	 1.6985583063	-1.3031317009	 0.5736782682	 0.107452
H	-1.2210002488	-3.3550725478	-0.7732598483	 0.106809
H	-1.9093960477	-1.6925957927	-0.7597641285	 0.122324
H	-0.250630076	-1.375107797	-3.8327330191	 0.101357
H	 0.2642005832	-3.0642691135	-3.5157453832	 0.109985
