17
gdb 105733	2.4428	1.41683	1.17422	2.8757	74.22	-0.241	-0.0089	0.2322	1108.7239	0.136604	-418.010542	-418.001911	-418.000967	-418.043913	31.964	
O	 0.1068516392	 1.398590709	 0.0221166532	-0.417982
C	 0.0201805774	-0.0083381419	 0.0541189814	-0.088619
C	-1.4477110742	-0.5127400359	 0.0350276261	 0.090616
N	-1.4923723364	-1.9807213639	 0.0949015576	-0.346057
C	-2.539794089	-2.4074394937	 1.0399798724	-0.212176
C	-2.8172004647	-1.1529151347	 1.821208725	-0.069646
C	-2.2258778929	-0.1000499666	 1.2699082295	-0.08038
C	-2.0904918596	 0.0337308828	-1.1873294712	 0.224258
N	-2.54381603	 0.4488886001	-2.1678422274	-0.344836
H	-0.1663482764	 1.6989588568	-0.8523221033	 0.299468
H	 0.5701689563	-0.4831281258	-0.7711365749	 0.102298
H	 0.4641838605	-0.341307975	 0.9952549562	 0.126263
H	-1.5808562492	-2.4063256375	-0.8177688874	 0.236469
H	-3.4539583894	-2.7743325398	 0.5449407643	 0.113408
H	-2.1742340175	-3.2240431172	 1.6770849273	 0.119998
H	-3.4281716538	-1.1439147053	 2.7151076638	 0.11615
H	-2.2469663805	 0.9289548986	 1.5993823874	 0.130768
