20
gdb 66479	2.88996	1.81016	1.43257	1.5866	82.3	-0.2164	0.0952	0.3115	997.7298	0.171246	-365.941366	-365.93367	-365.932725	-365.972894	31.411	
C	 0.0007835635	 1.5003682653	 0.0556145926	-0.52284
C	 0.012328234	 0.0115789955	 0.0242124478	 0.381503
C	 0.9130927844	-1.0236969182	-0.58563883	-0.147952
C	 0.563413705	-1.0608326889	 0.919248001	-0.196786
C	-0.7570765471	-1.8499254388	 0.8563469644	 0.360392
C	-1.6226699134	-1.9723445477	 2.0787955677	-0.495783
C	-0.5857714851	-2.977578307	-0.1843233763	-0.285972
C	-0.2898111602	-1.8033667449	-1.1283696966	-0.011217
N	-1.19225084	-0.8812259504	-0.2794210385	-0.25263
H	 0.9968156892	 1.8864695464	 0.2981344617	 0.121018
H	-0.2961928415	 1.9126565087	-0.9151329157	 0.126864
H	-0.7008484665	 1.8743831148	 0.8094334317	 0.125777
H	 1.9288936673	-0.9380562563	-0.9508857195	 0.084061
H	 1.312382158	-1.0037725715	 1.6999072392	 0.080817
H	-1.7431604101	-1.0005351635	 2.5692158444	 0.12112
H	-2.6166401722	-2.3469134397	 1.8161374038	 0.123223
H	-1.1744770313	-2.6621777782	 2.8037330719	 0.115482
H	 0.1853338491	-3.7351277775	-0.022440031	 0.094273
H	-1.5454809636	-3.4483091857	-0.4175255692	 0.105918
H	-0.4655793096	-1.8483950224	-2.2032778496	 0.072733
