21
gdb 120277	3.10646	1.07036	0.92725	1.0615	78.73	-0.2474	0.0836	0.331	1347.6422	0.180944	-424.174972	-424.165543	-424.164599	-424.209549	34.553	
C	-0.021101309	 1.4282406756	-0.0498197082	-0.226034
O	 0.1021727915	 0.0273986423	 0.0004706674	-0.235578
C	 0.5276158951	-0.5298165299	-1.2283386284	-0.067767
C	 0.6334013128	-2.0328689224	-1.0624517243	-0.059109
C	 1.1863729295	-2.8239459123	-2.2563907254	-0.000621
O	 2.5534532772	-2.428816392	-2.4432468832	-0.249274
C	 2.2589650104	-3.4106714306	-1.440171822	 0.019894
C	 1.7978690881	-2.657647174	-0.1801173241	-0.01393
C	 2.8090628668	-1.745704671	 0.5005941291	-0.412928
H	 0.9363308216	 1.9157658399	-0.292849031	 0.105023
H	-0.7648147643	 1.7458743209	-0.7983081739	 0.102374
H	-0.3484752838	 1.7651598961	 0.9369344995	 0.125183
H	-0.198787043	-0.2927374059	-2.0264550286	 0.082175
H	 1.4952311937	-0.1056746264	-1.5347398276	 0.103533
H	-0.3336632864	-2.4278844029	-0.7374251686	 0.083252
H	 0.6633153259	-3.210781536	-3.1238356594	 0.100884
H	 2.7660620461	-4.3652964328	-1.5259668899	 0.099745
H	 1.3599734587	-3.3526147434	 0.5429956459	 0.077136
H	 3.3483393467	-1.1456840719	-0.2373516233	 0.128124
H	 2.3088547009	-1.0670893891	 1.1963908173	 0.130836
H	 3.5460530912	-2.3327740939	 1.0595048187	 0.107083
