18
gdb 33511	2.70468	1.18984	0.92647	5.6457	76.72	-0.2717	0.0354	0.3072	1281.6355	0.146956	-401.92506	-401.916257	-401.915313	-401.959466	32.092	
N	 0.244296642	-1.1244272614	-0.3878147674	-0.345403
C	 0.1094463913	 0.0160746856	-0.2497983104	 0.258173
C	-0.0213089494	 1.4424588835	-0.0709390175	 0.179447
C	-1.1347214725	 2.1167075341	-0.8675948832	-0.312592
C	-2.5225441452	 1.681832612	-0.455079552	 0.099864
C	-3.6417848892	 1.6753639757	-1.4044913153	-0.182144
O	-3.0057170295	 0.4595485229	-1.010332217	-0.214464
C	 0.3285891299	 1.9890787993	 1.3077145633	-0.284674
C	 1.2752974364	 2.2046184685	 0.1661625103	-0.303909
H	-1.0446283325	 3.200464086	-0.7232022294	 0.108337
H	-1.0015702155	 1.9166345916	-1.936047729	 0.124371
H	-2.7531903854	 1.8073194918	 0.6045202338	 0.095287
H	-4.659501264	 1.8126309816	-1.0424437646	 0.1181
H	-3.4714406545	 1.9789635669	-2.4369081606	 0.115656
H	-0.2617305471	 2.8292257466	 1.6570087769	 0.126536
H	 0.6028642878	 1.2776244191	 2.0768477134	 0.144851
H	 2.198106253	 1.6378661303	 0.1511713542	 0.144539
H	 1.3408236843	 3.1923592958	-0.2765989253	 0.128024
