23
gdb 84098	2.48159	1.46919	1.08585	0.3385	91.97	-0.2155	0.0299	0.2454	1241.1129	0.205287	-351.172147	-351.162721	-351.161776	-351.205481	36.949	
C	-0.1866516963	 1.5936368498	 0.0558768768	-0.388443
C	 0.0216185134	 0.0721638332	 0.020229707	-0.03436
C	 0.8079439347	-0.4239389016	-1.1782418665	-0.188235
C	 1.8131855412	-1.2421088114	-0.8496533746	 0.26001
C	 2.7761199169	-1.9105063805	-1.7814479426	-0.500456
C	 1.9122631933	-1.4002826178	 0.6459880959	 0.268976
C	 2.2863226501	-2.7353460627	 1.246545965	-0.492395
C	 2.2742381269	-0.1051075769	 1.351209372	-0.325543
C	 0.8225231662	-0.4975498889	 1.195523135	-0.088354
H	 0.7703015211	 2.1238133688	 0.0840549737	 0.114752
H	-0.7339570061	 1.9362035407	-0.8290451971	 0.108518
H	-0.7625271151	 1.8889236679	 0.9391229886	 0.110865
H	-0.9766422526	-0.3928354075	 0.0165892479	 0.074261
H	 0.5744305144	-0.1091932633	-2.1910011241	 0.078674
H	 2.5621917535	-1.6599505922	-2.8238826549	 0.121138
H	 3.8106945656	-1.6149199133	-1.5637903827	 0.124908
H	 2.7386896623	-3.0025468409	-1.6824231397	 0.125403
H	 3.3047404091	-3.0315376421	 0.9686681245	 0.116183
H	 2.2442959154	-2.6964745163	 2.33953388	 0.114066
H	 1.6071953405	-3.5296959586	 0.9152070024	 0.115866
H	 2.6895562588	-0.1808895739	 2.3520139256	 0.101453
H	 2.6767786823	 0.7090614499	 0.7574996731	 0.106736
H	 0.2874536944	-0.7750667023	 2.0975094749	 0.075976
