16
gdb 57991	3.26955	0.9137	0.85157	3.1571	66.1	-0.281	-0.0198	0.2612	1378.1028	0.121718	-475.060064	-475.05029	-475.049346	-475.096443	33.413	
C	-0.0222872917	 1.4009337116	-0.4879506514	-0.398098
C	-0.0924905721	 0.0055362046	 0.1527821537	 0.040423
O	 0.2928388231	 0.037022473	 1.5035770263	-0.432582
C	-1.4992229216	-0.5618708652	 0.0446054631	 0.435294
O	-2.2221085746	-0.7473257196	 0.9908596117	-0.363393
O	-1.8462661282	-0.8249690564	-1.2364711618	-0.231849
C	-3.1741360012	-1.3267567796	-1.4303609294	-0.202603
C	-4.14606349	-0.2367352019	-1.5600329195	 0.270745
N	-4.9174269471	 0.6142778598	-1.6772929741	-0.286914
H	 0.9889478652	 1.7936442175	-0.3607962223	 0.138848
H	-0.2579199547	 1.3585787345	-1.5543569487	 0.13095
H	-0.720947728	 2.0828810447	 0.005757017	 0.133917
H	 0.5781625928	-0.6707199075	-0.3960139834	 0.110344
H	-0.5085478931	-0.1153441557	 2.0239455317	 0.297763
H	-3.1449039802	-1.9055213993	-2.3555778593	 0.172292
H	-3.4602135486	-1.9711115605	-0.5954150837	 0.184864
