18
gdb 66458	2.96217	1.73599	1.52152	0.2703	74.22	-0.2392	0.0668	0.3061	958.517	0.14727	-401.867671	-401.860167	-401.859222	-401.89918	29.847	
C	-0.0841750788	 1.4166731682	-0.0234003379	-0.523444
C	 0.0569839033	-0.0671616926	 0.0809577515	 0.351661
C	 0.9948699307	-0.9355911601	-0.683753262	-0.118506
C	 1.052269669	-2.148020865	 0.2720153881	 0.007254
O	 1.0706168413	-1.6377571585	 1.6251827483	-0.294821
C	-0.1884359486	-1.0120221002	 1.2891751189	-0.050728
C	-0.5034234938	-2.0705534132	 0.1927105989	 0.354778
C	-1.5015034345	-3.1795328027	 0.2133827324	-0.534781
N	-0.4856068525	-1.0286306519	-0.9424501828	-0.248134
H	 0.6401981948	 1.9214337408	 0.625327103	 0.12954
H	 0.0873792109	 1.7469998505	-1.0521552592	 0.134094
H	-1.0885263982	 1.7409768237	 0.2691047302	 0.125975
H	 1.6935307262	-0.5895751327	-1.4351847198	 0.097329
H	 1.7032397033	-3.0023299012	 0.0959223091	 0.087296
H	-0.7936931107	-0.7120951302	 2.1434784985	 0.083672
H	-2.5215868517	-2.7819127821	 0.2371080859	 0.13235
H	-1.4052126746	-3.8040355236	-0.6809037832	 0.133177
H	-1.3535093361	-3.810280909	 1.09621671	 0.133289
