20
gdb 68836	2.78053	1.43951	1.19305	1.7456	79.97	-0.2326	0.0802	0.3128	1133.3251	0.169082	-403.097038	-403.087987	-403.087043	-403.130281	34.661	
C	-0.083138068	 1.5246042063	 0.0606398666	-0.500423
C	 0.1711489803	 0.0543384165	-0.0033056522	 0.34687
C	 0.6688995723	-0.7746645646	-1.2083276845	-0.403301
C	 1.2534449929	-1.776146192	-0.1840985847	 0.315504
C	 1.4346617197	-3.2369254853	-0.26908784	-0.303703
N	 2.6040028867	-2.3269382734	-0.1978188784	-0.370084
C	 0.7415413121	-0.9133032409	 0.9631177981	 0.293288
C	 1.2870478714	-0.7996903401	 2.3462083979	-0.514143
O	-0.6844617525	-0.8213709024	 0.7523562335	-0.328384
H	 0.7690583638	 2.0851614378	-0.3370446704	 0.123175
H	-0.96699122	 1.7918281557	-0.5300613823	 0.131015
H	-0.2605784567	 1.8393077727	 1.0925013754	 0.13318
H	-0.1128003053	-1.1383465658	-1.8804041667	 0.109036
H	 1.4503837785	-0.2682979011	-1.784737346	 0.103882
H	 1.290149819	-3.8641204633	 0.6063521994	 0.120364
H	 1.2115400404	-3.7226180794	-1.2158135062	 0.11348
H	 3.0189793145	-2.2215630437	-1.1208867268	 0.230025
H	 2.3774441794	-0.7227693038	 2.3129223138	 0.141537
H	 0.8771961297	 0.0754403328	 2.8575051948	 0.12749
H	 1.0309892819	-1.6865521961	 2.9369242787	 0.131192
