18
gdb 38007	3.02011	2.27796	1.98295	0.5636	80.67	-0.1963	-0.0165	0.1798	796.9301	0.150924	-364.699039	-364.693321	-364.692377	-364.728595	25.53	
C	-0.028327328	 1.4523324633	 0.1625085521	-0.154175
C	 1.5358615322	 1.5641124033	 0.0060950088	-0.099328
C	 1.9908246309	 1.3507688001	 1.4329601752	-0.146357
C	 1.9865719153	 0.0405949519	 1.7243339702	 0.099458
C	 0.8389366434	-0.6530226939	 2.4551789447	-0.290219
C	 0.4115181201	-1.0407306259	 0.9808833267	 0.014368
C	 1.8835057075	-0.8643037282	 0.5004612948	-0.084278
C	 1.4293801103	 0.107140048	-0.5776166192	 0.007687
N	 0.0020145737	-0.0234165523	-0.096522363	-0.153794
H	-0.4535780378	 1.7678638337	 1.1213621763	 0.103447
H	-0.5852160719	 1.9413119951	-0.6470814305	 0.106059
H	 1.9417496041	 2.3907923799	-0.5820318331	 0.066847
H	 1.7608322348	 2.1149975895	 2.1721654306	 0.093179
H	 1.0745308461	-1.5821776606	 2.9883623416	 0.108194
H	 0.1909956709	-0.0257842797	 3.071643977	 0.10832
H	-0.1736802023	-1.9602632426	 0.8846556826	 0.082788
H	 2.5914721765	-1.682609276	 0.3677206544	 0.070417
H	 1.6102216541	-0.0566453155	-1.6417038993	 0.067385
