18
gdb 55793	4.23784	1.01482	0.93355	1.926	73.35	-0.2531	0.0241	0.2771	1289.5215	0.146563	-439.017263	-439.008947	-439.008003	-439.050933	31.015	
C	-0.0398110443	 1.3841191846	-0.0090142458	-0.445945
C	-0.0335688096	-0.0787883248	 0.3248755231	 0.409563
N	 0.8201680957	-0.5922187293	 1.1068399127	-0.515053
O	-1.0599397387	-0.7098319835	-0.3310666665	-0.260023
C	-1.1606409187	-2.1068183786	-0.2056926205	 0.130736
C	-1.9019754725	-2.7609718961	 1.0018121036	 0.011987
C	-3.2360088793	-2.1584964215	 0.5006730573	-0.225615
C	-2.4703182557	-2.7499944326	-0.7073634797	-0.001329
O	-2.1201188903	-3.9279123861	 0.1202116233	-0.304637
H	 0.7692812007	 1.8833243419	 0.5218109406	 0.150027
H	 0.0802277268	 1.5262882081	-1.0874903518	 0.140985
H	-0.9984603429	 1.8317474991	 0.2714247576	 0.138925
H	 0.6865475721	-1.5938728772	 1.2377871658	 0.221368
H	-0.2482356724	-2.6238735858	-0.5138872535	 0.108022
H	-1.5569814773	-2.9543554623	 2.0170398376	 0.105026
H	-4.1258418023	-2.7150979805	 0.7950785248	 0.114574
H	-3.3614231871	-1.0762486798	 0.5449292093	 0.11678
H	-2.7996190843	-2.9284144857	-1.7302902479	 0.104609
