17
gdb 43307	2.92397	1.77489	1.40639	3.6063	76.72	-0.2256	-0.0459	0.1797	942.8201	0.138122	-384.687784	-384.681092	-384.680148	-384.7188	27.283	
O	-0.0167105696	-0.0431573859	-0.019692085	-0.336725
C	-0.0368129445	 1.1662167448	-0.0048638706	 0.377304
C	-1.2462037623	 2.0380013356	-0.012420342	-0.18561
C	-0.9133072932	 3.3380600663	 0.0329225682	-0.062517
C	 0.5740851701	 3.5438271713	 0.0583395507	-0.080825
C	 1.2839971119	 3.8066221428	 1.4207422166	-0.063859
C	 0.8862988098	 2.7957361195	 2.4569814237	-0.294203
C	 1.8626211962	 2.3909301947	 1.3910897965	-0.043395
C	 1.1670079323	 2.1120897689	 0.0348719948	-0.152675
H	-2.2479505157	 1.6252961555	-0.0298631279	 0.11508
H	-1.6226621949	 4.1593428545	 0.0710727424	 0.114088
H	 0.9306219691	 4.2156615016	-0.7261197712	 0.088999
H	 1.7700735059	 4.7390341293	 1.6786480422	 0.091971
H	 1.3294969877	 2.9553526625	 3.4346444313	 0.117611
H	-0.1192707545	 2.3870259498	 2.4915843458	 0.119553
H	 2.8648625111	 2.0592304773	 1.6288836633	 0.096128
H	 1.8718057107	 1.8992118417	-0.769822439	 0.099074
