18
gdb 98782	4.16428	1.01952	0.88907	4.8807	74.04	-0.2418	0.0193	0.2611	1305.304	0.147448	-439.068367	-439.059877	-439.058933	-439.102306	31.278	
O	 0.0746603656	 1.3317946992	 0.08911172	-0.421977
C	 0.0445544802	-0.0618290999	 0.0124263003	-0.140043
C	-1.4096027767	-0.53938127	-0.0526657451	 0.354172
O	-2.321208218	 0.2754412943	 0.0068364463	-0.392924
N	-1.6127264615	-1.8634606805	-0.2227273707	-0.078164
C	-0.7507363655	-3.0531016975	-0.0678912812	-0.196301
C	-2.0244261991	-3.8959395593	 0.1059196959	-0.087818
C	-2.8781243071	-3.3411827831	 1.2210255211	-0.280252
C	-2.8436980949	-2.6254985064	-0.0982982042	-0.000843
H	-0.8642144897	 1.5890145705	 0.1053345078	 0.293904
H	 0.5861252212	-0.4251527106	-0.8753204883	 0.109294
H	 0.5318433757	-0.5207673059	 0.8893515589	 0.104067
H	-0.1926939107	-3.2823900914	-0.9814938002	 0.127851
H	-0.0609238879	-3.01994796	 0.783140118	 0.122685
H	-2.1745638495	-4.8763111755	-0.3220086349	 0.111026
H	-3.7870493777	-3.9009242882	 1.4176420952	 0.127715
H	-2.4246394305	-2.8863203858	 2.0974355236	 0.122058
H	-3.7036394938	-2.4120187899	-0.7184473025	 0.125551
