18
gdb 107454	3.55485	1.33999	1.18725	2.0706	70.84	-0.2224	0.0611	0.2835	1076.2585	0.14786	-439.032112	-439.024111	-439.023166	-439.064778	30.516	
O	 0.2548524665	 0.9713876715	-0.8989261484	-0.41227
C	-0.0448139385	 0.1835479748	 0.236725162	-0.194409
C	-1.4863820975	-0.2471990272	 0.1747169922	 0.423459
O	-1.907778279	-0.9457146598	-1.00506624	-0.297708
C	-2.5092437078	 0.3279826712	-0.7147534155	-0.019561
C	-3.8524818485	 0.22912317	-0.0123038439	-0.202263
N	-3.6376381919	-0.4155863776	 1.305750411	-0.109703
C	-3.1822747729	-1.8111899736	 1.2845476604	-0.242691
C	-2.1917788201	-0.7130642733	 1.4324930111	-0.120938
H	 1.2085393434	 0.9878307274	-1.0141410623	 0.294369
H	 0.5901974036	-0.7144970991	 0.2866899052	 0.105723
H	 0.1107944752	 0.746620972	 1.1718801331	 0.096338
H	-2.2962035527	 1.1149897918	-1.4327559228	 0.115355
H	-4.2492591765	 1.2359980312	 0.162368222	 0.113576
H	-4.5912868371	-0.3257153501	-0.5998244968	 0.119805
H	-3.481085678	-2.3899269446	 2.1548358469	 0.109944
H	-3.1766249829	-2.3464384138	 0.3407954312	 0.134667
H	-1.7236719053	-0.4918615809	 2.3880723145	 0.086308
