17
gdb 60918	3.56031	0.96513	0.94643	2.6874	72.	-0.2375	-0.0498	0.1877	1291.2047	0.134427	-458.965187	-458.956401	-458.955457	-459.000011	30.95	
O	 0.1593291179	 1.5567320171	 0.0923652999	-0.427872
C	 0.0502991796	 0.1584484289	 0.0790501275	-0.064369
C	 0.6573154103	-0.3985261332	-1.2077714694	 0.131601
O	 1.1336431685	 0.3259827198	-2.0452017278	-0.254318
C	 0.729174006	-0.4664012801	 1.2656478584	 0.299578
C	 0.3287686829	-1.4946515356	 2.0079136473	-0.238722
C	 1.3607239553	-1.7994312316	 3.0559983153	-0.098614
O	 2.4011243405	-0.8494266894	 2.844754163	-0.266656
C	 2.0686211527	 0.0169904771	 1.7645635766	-0.147398
H	 0.5551216471	 1.7964345314	-0.7615652473	 0.297794
H	-1.0087747268	-0.156936729	 0.070536399	 0.103886
H	 0.6307873606	-1.5003702347	-1.318230625	 0.109608
H	-0.5998649901	-2.0435716833	 1.9092866035	 0.105529
H	 0.9585682629	-1.6992803976	 4.0769891524	 0.110184
H	 1.7622176567	-2.8216537845	 2.9677392558	 0.107636
H	 2.8503327442	-0.0323098088	 0.9888531022	 0.106107
H	 2.0202505517	 1.0594098237	 2.1081036987	 0.126026
