16
gdb 45868	1.97011	1.75193	1.33258	3.509	73.79	-0.2611	-0.0423	0.2188	1027.9225	0.125133	-400.793844	-400.785894	-400.78495	-400.826755	29.393	
O	 0.0252181249	-0.0356999168	 0.0055042484	-0.297175
C	-0.0316055839	 1.1655371754	 0.0031114157	 0.407569
C	-1.3249476378	 1.9569222403	-0.041294675	-0.365021
C	-1.2222872848	 3.1810412167	-0.918226367	-0.041955
C	-0.0893299041	 3.6009602614	-1.4777584239	-0.055412
C	 1.2410949619	 2.9227842801	-1.283391177	-0.279674
C	 1.2533343743	 2.0290465769	-0.0128646935	-0.251135
C	 1.3253403329	 2.8392393876	 1.2027403011	 0.271928
N	 1.3712400266	 3.4699109075	 2.1706198991	-0.322299
H	-2.1214499724	 1.2836951397	-0.3741630963	 0.142381
H	-1.5797187285	 2.2515763167	 0.9881201415	 0.160628
H	-2.1473349366	 3.7234766424	-1.0915711559	 0.107005
H	-0.0972798839	 4.4798606195	-2.1158037843	 0.104915
H	 1.4815571529	 2.2919008602	-2.1493492866	 0.135948
H	 2.0451606822	 3.6622198724	-1.2115039171	 0.136875
H	 2.1037845264	 1.3423502899	-0.0273949593	 0.145423
