19
gdb 110467	3.81708	1.36811	1.22848	1.2965	76.78	-0.2174	0.0803	0.2977	1055.3767	0.161	-385.836661	-385.829453	-385.828509	-385.868298	29.406	
O	-0.0136101215	 1.3851410475	-0.2012048673	-0.426159
C	 0.0189441359	-0.0279132459	-0.0398149141	-0.083385
C	-1.4195402633	-0.5225287384	 0.0347310218	 0.001828
C	-2.1979484804	-0.3252806216	-1.2554111496	-0.065543
C	-2.0115689086	-1.5169555824	-2.1799030469	-0.084785
C	-3.2951516331	-1.360404283	-1.389125035	-0.099424
C	-2.8534884615	-2.5120029395	-0.4492095393	-0.098002
C	-1.5728384048	-2.6687558263	-1.2405973432	-0.082899
C	-1.5406891811	-2.0330245923	 0.1403372766	-0.096471
H	 0.8910547421	 1.6981834602	-0.2901353351	 0.28481
H	 0.5277379508	-0.5159918944	-0.8857990329	 0.087904
H	 0.5586201564	-0.3072477787	 0.8796935571	 0.078737
H	-1.9194019701	-0.0221763978	 0.8735890278	 0.078818
H	-2.3332502035	 0.6605780697	-1.6810819314	 0.094328
H	-1.8434260127	-1.448140201	-3.245489793	 0.08158
H	-4.2988376257	-1.1524141264	-1.7329892044	 0.08317
H	-3.4857688622	-3.2644639381	 0.0012664117	 0.083785
H	-1.0359303839	-3.5655873757	-1.516811615	 0.081499
H	-1.102647543	-2.5841141859	 0.9648743423	 0.080209
