19
gdb 114408	3.62675	1.06072	1.01574	3.4066	76.31	-0.2368	-0.0157	0.2212	1250.0889	0.158269	-423.00776	-422.99919	-422.998246	-423.041625	31.867	
C	 0.2625622986	 1.0430360709	 0.3926375127	-0.240366
O	-0.161793293	-0.2012063411	-0.1202416894	-0.239262
C	 0.5064333058	-0.5826207984	-1.2913337407	 0.161693
C	 1.970315562	-1.1163984187	-1.1775410965	-0.287307
C	 1.5471029594	-2.4030693054	-1.9675434438	-0.15395
C	 0.0408152299	-1.9319393434	-1.8662407289	-0.084539
C	-0.2309002974	-3.0343682865	-0.8017232173	-0.358889
C	 1.2023523014	-3.5578308723	-1.0260961864	 0.411366
O	 1.7914994297	-4.5349010885	-0.6646158916	-0.30252
H	 1.3272001027	 1.0336413141	 0.6693614408	 0.111432
H	 0.1020174702	 1.8550387806	-0.3335718252	 0.107106
H	-0.331014218	 1.2452130175	 1.2870581476	 0.131176
H	 0.4411357703	 0.2182419437	-2.0442428624	 0.067418
H	 2.7315513164	-0.5129466196	-1.6747773788	 0.11329
H	 2.2934614969	-1.3100800116	-0.1513062033	 0.119823
H	 2.0853703134	-2.6181193876	-2.8901504146	 0.089128
H	-0.6377491028	-1.915552739	-2.7175899233	 0.076985
H	-0.4487904988	-2.6705284485	 0.2050589478	 0.146176
H	-0.9942019366	-3.7656292364	-1.0829229765	 0.13124
