14
gdb 5755	5.3723	2.18284	1.82438	3.4814	66.34	-0.2185	0.006	0.2246	717.1098	0.110351	-341.549408	-341.543922	-341.542978	-341.578812	22.055	
C	-0.0596340314	 1.3789216148	-0.1138379719	-0.270984
C	 1.3085972481	 0.8024078704	 0.1336237403	-0.017798
C	 0.0950872721	-0.1229012562	 0.1069154844	-0.187857
C	 0.7010715668	-0.6785158127	-1.1635887053	 0.294641
N	 0.4494577245	-1.1148244662	-2.3715450922	-0.327241
C	 1.4887285861	-0.5646775946	-3.1142981777	-0.074202
C	 2.2872148975	 0.2734620574	-2.3636168432	-0.167493
N	 1.8163145655	 0.1145821675	-1.0742164406	 0.001548
H	-0.4921768237	 1.9394068032	 0.7115103433	 0.125669
H	-0.3131539758	 1.7522085746	-1.100726033	 0.144128
H	 1.9673133215	 1.0631360794	 0.9503821925	 0.122586
H	-0.3658514737	-0.6532645133	 0.9274112438	 0.119176
H	 1.6203599781	-0.8285599302	-4.1539382832	 0.109717
H	 3.1743487244	 0.8302470758	-2.6158514073	 0.128111
