23
gdb 115289	2.57915	1.21005	0.86977	1.2416	89.87	-0.213	0.0403	0.2534	1397.4468	0.204871	-388.315857	-388.305543	-388.304599	-388.351012	38.028	
C	 0.130532056	 1.5548097121	-0.0161824038	-0.494759
C	 0.0073228561	 0.0633078765	-0.0738120546	 0.212296
C	-1.1026262767	-0.6875427123	-0.0162494406	 0.227015
C	-2.5170949734	-0.2180361738	 0.1448475849	-0.484202
C	-0.7690831583	-2.174169271	-0.0462461237	-0.045852
C	-1.6224300168	-3.0302570742	-0.9823441682	-0.092708
O	-2.9226307117	-3.1778183632	-0.4270204444	-0.420549
C	 0.7230904644	-2.1986113584	-0.4581016565	-0.239892
C	 1.2586138868	-0.786610503	-0.1456484317	-0.294851
H	 0.7467149462	 1.8638252447	 0.838903867	 0.12069
H	 0.6332885977	 1.9422812242	-0.9121934421	 0.119886
H	-0.834970693	 2.0584984915	 0.0693849147	 0.121344
H	-2.5884103704	 0.8716388173	 0.1855227899	 0.107108
H	-3.1547732616	-0.5760404017	-0.6698403684	 0.1263
H	-2.958039339	-0.6243108367	 1.0634709863	 0.126942
H	-0.9045621604	-2.5963416491	 0.9618006729	 0.079228
H	-1.6622244914	-2.5558523099	-1.9768258358	 0.082301
H	-1.1377210272	-4.0125530944	-1.1060411101	 0.083809
H	-3.4555131301	-3.6914489323	-1.0408911262	 0.284931
H	 1.2840107276	-2.9947226084	 0.0387530113	 0.094632
H	 0.7926288266	-2.3834298229	-1.5371352689	 0.095485
H	 1.9708871613	-0.4286039209	-0.8998301717	 0.092898
H	 1.7963683276	-0.755703364	 0.8140568598	 0.097947
