16
gdb 56611	2.02801	1.38728	0.86837	2.4715	76.01	-0.2705	-0.0538	0.2168	1276.8505	0.120444	-400.733914	-400.723919	-400.722974	-400.769859	34.441	
C	 0.0283432008	 1.579355697	-0.0120630734	-0.406948
C	 0.0273094707	 0.0386385598	 0.0004958583	-0.16137
C	 0.6264799929	-0.4810700457	-1.2318205507	 0.285138
N	 1.1050526623	-0.8593288499	-2.2130377012	-0.314523
C	 0.7712942169	-0.5417954136	 1.2502345641	-0.243014
C	 0.0387447929	-0.0931715141	 2.5253915499	 0.155276
O	 0.4830935537	 0.6932830067	 3.3138851545	-0.23191
C	 0.8138206313	-1.997443232	 1.2419590475	 0.289713
C	 0.7980444156	-3.1983305085	 1.278047876	-0.409754
H	 1.0507531547	 1.9644848109	-0.0504337803	 0.149168
H	-0.5116985995	 1.9513849487	-0.8852551838	 0.145268
H	-0.4517953143	 1.9714997645	 0.8875758281	 0.14476
H	-1.0074555955	-0.325333044	 0.0329036856	 0.140988
H	 1.7809958294	-0.1195347756	 1.2879104676	 0.14248
H	-0.9569397755	-0.5707537679	 2.6584718935	 0.100755
H	 0.8113897636	-4.2607628362	 1.2887287641	 0.213971
