16
gdb 114590	2.76027	1.21305	0.97507	3.6272	70.46	-0.2783	-0.0051	0.2731	1200.701	0.123292	-437.847541	-437.839063	-437.838119	-437.881066	30.832	
O	 0.0027564139	 1.371490203	-0.245956038	-0.422157
C	 0.0149751286	 0.0025723088	 0.1292150473	-0.099788
C	-1.4091878145	-0.5008977802	-0.0021728415	-0.067064
C	-2.0400926163	-0.5898962743	-1.4385501308	-0.255696
C	-2.2285129861	-2.0950390754	-1.2234508739	-0.046092
O	-0.9430371726	-2.6597987254	-0.9655208485	-0.269778
C	-1.6206517534	-2.0247858386	 0.1280787601	 0.298848
C	-1.8660429068	-2.7872961914	 1.312136754	 0.20405
N	-2.069564106	-3.3609664479	 2.2955828258	-0.337026
H	 0.9073203129	 1.6975036669	-0.2302257636	 0.292613
H	 0.6704721203	-0.5924408505	-0.5220402752	 0.107768
H	 0.3596442727	-0.1297449612	 1.1673900051	 0.100326
H	-2.0689223716	 0.045185822	 0.6764269147	 0.107788
H	-2.9783424377	-0.0389491713	-1.5189104156	 0.124337
H	-1.3848150653	-0.3260831297	-2.2703923344	 0.129754
H	-2.9960963982	-2.7642276048	-1.5935256156	 0.132116
