21
gdb 67618	2.69947	1.71517	1.39198	0.1514	85.92	-0.208	0.1	0.308	1048.6611	0.183293	-349.927879	-349.919996	-349.919052	-349.959583	32.341	
C	-0.0857557019	 1.5145996901	 0.0563301549	-0.515585
C	 0.0311427506	 0.0218040315	 0.0229328672	 0.364574
C	 0.1092767319	-0.840225577	-1.2256844127	-0.123565
C	 1.1588435166	-1.9261070608	-1.0811473381	-0.238233
C	 1.0350818853	-2.1598953462	 0.412722541	-0.123565
C	 0.6682652259	-0.8677756597	 1.1255600222	-0.203519
C	-0.3886432197	-1.9312608696	 0.8912383046	 0.364574
C	-1.1415256322	-2.7924139224	 1.8580904821	-0.515585
C	-1.0151498767	-1.0493906355	-0.2235971146	-0.203519
H	 0.8975984774	 1.9957987108	-0.0177770098	 0.116285
H	-0.6961660979	 1.8790206825	-0.7767861681	 0.116053
H	-0.5535426444	 1.860935428	 0.9855358104	 0.116484
H	-0.1199228479	-0.3895183782	-2.1850658348	 0.077095
H	 0.9184101574	-2.8214951175	-1.6664806764	 0.094705
H	 2.1592668338	-1.5826354619	-1.3698042774	 0.094705
H	 1.64800249	-2.8892643762	 0.9308259942	 0.077095
H	 1.1137486549	-0.5269010577	 2.0516064954	 0.076589
H	-1.9284694028	-2.2275764155	 2.3717773397	 0.116484
H	-1.6201810459	-3.6401291144	 1.351831902	 0.116285
H	-0.4728524314	-3.1991210974	 2.6242182984	 0.116053
H	-2.069090423	-0.9483984029	-0.4499216802	 0.076589
