17
gdb 66994	2.55233	2.12987	1.42908	2.7087	73.17	-0.2456	0.0099	0.2555	927.7776	0.137537	-417.979604	-417.972468	-417.971523	-418.010871	28.519	
C	 0.0221028879	 1.469693975	-0.0355259046	-0.47637
C	-0.0526651127	-0.0290903624	 0.0128390043	 0.244843
C	 0.2203130383	-0.8471207214	 1.2147178957	-0.10682
C	-0.1981830969	-2.2273057311	 0.6580026466	 0.037922
C	 1.1133425292	-2.1792798708	-0.1496066001	-0.172493
N	 1.2875807857	-0.7205493967	 0.1627605791	-0.18474
O	-1.2942957595	-1.9919729665	-0.2384553272	-0.245737
C	-1.1268624238	-0.7322761766	-0.7588609242	 0.372453
N	-1.8044386591	-0.2271213776	-1.6964050886	-0.552533
H	 0.867468874	 1.8244972084	 0.557847387	 0.128335
H	 0.1517519069	 1.801487407	-1.0688294683	 0.148539
H	-0.9013267185	 1.915142734	 0.3448591721	 0.130752
H	 0.3264834902	-0.5002145066	 2.2354732449	 0.105919
H	-0.4412731973	-3.0697339181	 1.3011818567	 0.101692
H	 1.9335482977	-2.7248225671	 0.3229036425	 0.121853
H	 1.0440886699	-2.4382973853	-1.2106889063	 0.120363
H	-2.5021198022	-0.8897034143	-2.0385565598	 0.226023
