18
gdb 105725	2.26705	1.48167	1.19836	4.3936	77.85	-0.2365	-0.0049	0.2316	1119.353	0.149236	-398.129399	-398.120552	-398.119608	-398.163004	32.815	
N	-0.011587908	 1.452820924	 0.0363543907	-0.509629
C	 0.124831984	 0.0042972994	-0.048781945	-0.172791
C	 0.923386527	-0.5142147239	 1.1679517133	 0.11933
N	 0.2640477976	-0.0989358711	 2.4258527659	-0.34454
C	 0.2289688148	-1.2330275466	 3.3663840753	-0.211175
C	 0.529972889	-2.4146965661	 2.4876520804	-0.066643
C	 0.9198059568	-2.0290340796	 1.2791140496	-0.107807
C	 2.3217154537	-0.0234137866	 1.0926005292	 0.26314
N	 3.4210938988	 0.3341951889	 1.0658887579	-0.347224
H	-0.3852907286	 1.8259651949	-0.829021779	 0.233792
H	-0.6756932013	 1.6768326504	 0.7708919611	 0.234351
H	-0.8281848445	-0.5485379005	-0.054175704	 0.091293
H	 0.6660270842	-0.2478987921	-0.9673308831	 0.111909
H	 0.7001298707	 0.7233308405	 2.8206301741	 0.241897
H	 0.9703547056	-1.15001491	 4.1776936066	 0.114899
H	-0.7568415013	-1.3094480403	 3.8452086833	 0.116593
H	 0.4422763969	-3.4377731341	 2.8315605201	 0.114942
H	 1.2208488447	-2.6597244471	 0.4530430235	 0.117665
