19
gdb 128233	2.1984	1.45122	0.93038	1.3142	79.27	-0.1871	0.0389	0.2259	1286.6496	0.160892	-415.385554	-415.375962	-415.375018	-415.420838	34.325	
C	 0.301869081	 0.9089734647	 0.5630711577	-0.324548
N	-0.4266545261	 0.2521052198	-0.524683897	-0.398026
C	 0.3506470316	-0.5509965376	-1.3916402593	 0.085327
C	 1.0033640689	-0.1577409017	-2.5426132989	-0.059947
N	 1.5952096571	-1.2620162967	-3.0514272949	-0.210586
N	 1.3709970158	-2.3789642178	-2.3108889169	-0.318194
C	 0.6193212875	-1.9506380692	-1.3014255573	 0.362685
N	 0.106767825	-2.8136262014	-0.3385158696	-0.387117
C	 0.6021020456	-4.1828243393	-0.3301994321	-0.309879
H	 0.8598578415	 0.2211838667	 1.2212706611	 0.093152
H	 1.0230007868	 1.6152971074	 0.1413346427	 0.127343
H	-0.4043040531	 1.476371044	 1.1771966068	 0.115739
H	-1.202362367	-0.2859587432	-0.1554886421	 0.22404
H	 1.0718688109	 0.8072382217	-3.0194072817	 0.129809
H	 2.1524333819	-1.3382335493	-3.8827301235	 0.269317
H	 0.0941501428	-2.3926417289	 0.5803361855	 0.230243
H	 1.6914930424	-4.2534898589	-0.1956590167	 0.114752
H	 0.1047140827	-4.7333965657	 0.4723186059	 0.110785
H	 0.3595409246	-4.6584944044	-1.2835342998	 0.145104
