18
gdb 13539	2.89816	1.53634	1.14117	3.5701	72.27	-0.2637	0.0371	0.3008	1082.6172	0.153366	-343.982458	-343.973586	-343.972642	-344.016285	31.761	
C	-0.2214721035	 1.4553525314	 0.1453676702	-0.397834
C	 0.1446817356	-0.0117796254	-0.1522559377	-0.136755
C	 0.929521238	-0.1213318869	-1.3879132954	 0.266449
N	 1.5591099464	-0.2024679987	-2.353856576	-0.324875
C	 0.9075589726	-0.6368667316	 1.0106736255	-0.010753
N	 0.0871882606	-1.0547659416	 2.1539908311	-0.34617
C	 0.8325265325	-2.0732481721	 1.3898802269	 0.004514
C	 0.0330451239	-3.1209641487	 0.653136968	-0.402398
H	 0.678382315	 2.0594320502	 0.2934191375	 0.131952
H	-0.7950618496	 1.8925633952	-0.6752871069	 0.135319
H	-0.8228496477	 1.4898966916	 1.0569803078	 0.140769
H	-0.7816945701	-0.5759106763	-0.2989461691	 0.131077
H	 1.8507907696	-0.133104588	 1.2192966398	 0.096205
H	 0.5500404975	-0.8378991538	 3.0318121901	 0.235711
H	 1.7385615697	-2.4594437436	 1.8558190288	 0.090651
H	-0.9058692069	-2.7157532284	 0.2697589986	 0.12753
H	 0.606710137	-3.5283998601	-0.1856581294	 0.133086
H	-0.2174915304	-3.9476996832	 1.3258623601	 0.12552
