19
gdb 69239	2.61104	1.5453	1.17405	3.178	81.64	-0.2256	-0.0106	0.215	1105.8585	0.159684	-385.920568	-385.912451	-385.911506	-385.953023	31.964	
C	 0.0709052165	 1.522919898	-0.021961199	-0.474681
C	-0.0227599825	 0.0104404061	-0.0092829652	 0.299599
C	-0.8343070079	-0.6611270083	 1.0669707409	-0.325878
C	 0.6851105631	-0.7463308946	 1.1185848656	-0.171476
C	 1.4129903024	-2.0032329888	 0.8021494201	 0.406781
O	 2.3387417122	-2.3885864531	 1.4841433133	-0.334728
C	 0.9784279021	-2.7725482105	-0.4447010699	-0.391513
C	 0.4132988083	-1.9065970173	-1.5402309098	-0.084574
C	-0.0130954172	-0.6605651348	-1.3393156161	-0.107628
H	 1.0004190928	 1.8575233325	-0.4944880633	 0.128588
H	-0.7654830873	 1.9587264598	-0.5806620933	 0.12212
H	 0.0424555873	 1.9303685691	 0.9928643322	 0.120143
H	-1.2993365776	-0.0428284323	 1.82764441	 0.123139
H	-1.3934381282	-1.5516284063	 0.8030055332	 0.124889
H	 1.172275601	-0.1573827333	 1.8879024856	 0.10381
H	 1.842660449	-3.3504210178	-0.7860502474	 0.136501
H	 0.2324447062	-3.5210903502	-0.1332147187	 0.137175
H	 0.3495208057	-2.3487048276	-2.5306481296	 0.097834
H	-0.412002286	-0.0825926506	-2.1694549888	 0.089901
