19
gdb 99649	2.50549	1.18664	0.89843	3.798	77.1	-0.25	0.0245	0.2745	1329.927	0.158043	-419.18646	-419.176631	-419.175686	-419.221479	35.048	
C	 0.3832237784	 1.5249637608	 0.2382040673	-0.331384
N	-0.1197462938	 0.2348955612	-0.2207575667	-0.268046
C	 0.6818668358	-0.4209331676	-1.2345693309	-0.14667
C	 2.1088424234	-0.5804208955	-0.8348533556	 0.255995
N	 3.2070369499	-0.6788952112	-0.4869133753	-0.325046
C	 0.1269033886	-1.8038419251	-1.6030039392	 0.045409
O	-0.6400589247	-2.47468508	-0.6087930566	-0.253232
C	-1.2872562135	-2.1282678327	-1.8508026872	 0.073695
C	-2.4475433887	-1.1686058815	-1.8252517597	-0.435918
H	 1.4022796152	 1.4889866926	 0.6528677223	 0.130631
H	 0.3828373411	 2.2349770988	-0.596350504	 0.126824
H	-0.2916923286	 1.9115625349	 1.0056989948	 0.13054
H	-0.2671161323	-0.4113384021	 0.5468574455	 0.245613
H	 0.6835370169	 0.2021012386	-2.1405304649	 0.136473
H	 0.8746986748	-2.4296238694	-2.092426672	 0.11359
H	-1.4470468311	-3.0035243666	-2.4847494297	 0.097733
H	-2.2290470139	-0.2985446585	-1.2072758551	 0.153998
H	-2.6710235795	-0.8382172101	-2.8459173181	 0.121461
H	-3.339108158	-1.6755127166	-1.441278555	 0.128333
