19
gdb 36530	3.89587	0.95274	0.81029	4.1862	76.45	-0.2273	0.0334	0.2608	1387.2979	0.1616	-419.214639	-419.206259	-419.205315	-419.248092	31.502	
N	-0.1196368788	-1.1716742251	 0.0092107433	-0.305274
C	-0.0571929632	-0.0184541589	 0.0300485779	 0.282309
C	-0.0011404972	 1.4417587566	 0.0318771362	-0.381544
C	 1.4327106374	 1.9959690342	 0.0297080412	 0.031555
C	 1.4303504521	 3.5262459517	-0.1133684431	-0.085904
O	 2.7477164345	 4.0383367917	-0.0753820893	-0.245112
C	 3.4251358321	 3.695030583	 1.1259098424	-0.075112
C	 3.4802235275	 2.1764480834	 1.3041480575	-0.168484
N	 2.1514370613	 1.5595752069	 1.2282657251	-0.286135
H	-0.5410026883	 1.8108061672	-0.8476599863	 0.155755
H	-0.5449765426	 1.8129141317	 0.9102564926	 0.146113
H	 1.9688721232	 1.5824369388	-0.8343270183	 0.110494
H	 1.0059045858	 3.8403726219	-1.0729577856	 0.110587
H	 0.8197766401	 3.9690383436	 0.69603382	 0.077076
H	 4.4264914106	 4.1294858113	 1.048982163	 0.11222
H	 2.9147206778	 4.1545942327	 1.991155138	 0.080956
H	 4.1010187517	 1.7427586676	 0.5106297704	 0.120034
H	 3.939528757	 1.9159300334	 2.263342562	 0.108013
H	 1.6150176891	 1.8206710581	 2.0534857228	 0.212453
