13
gdb 48338	2.28476	1.4943	1.06621	1.177	65.95	-0.2904	-0.0826	0.2079	1090.047	0.0872	-452.748351	-452.740154	-452.73921	-452.781937	28.829	
N	-0.1483675931	 0.9553690525	 0.9114425885	-0.519136
C	-0.1122296585	-0.0507491563	 0.1783772995	 0.450592
C	-1.1334683923	-1.0147236183	-0.3850409162	-0.411029
C	 0.0966213048	-1.6899401138	-1.031208039	 0.180703
O	 0.9791677386	-0.6831502552	-0.4332292404	-0.280686
C	 0.4930167655	-3.0606693405	-0.4483599625	 0.129348
O	-0.2214001797	-3.6904512099	 0.2775560399	-0.214557
C	 0.186157251	-1.700889389	-2.4868843081	 0.245936
N	 0.255234479	-1.7604510216	-3.6388963735	-0.303665
H	 0.7755873184	 1.3574466956	 1.073635945	 0.245941
H	-1.6373066051	-1.6481399334	 0.345486076	 0.178788
H	-1.851965539	-0.5754016985	-1.0759692202	 0.167042
H	 1.5134429404	-3.3868053115	-0.7297035989	 0.130722
