19
gdb 31653	3.55951	1.07906	0.83984	2.0204	81.34	-0.1705	0.0524	0.223	1377.8971	0.159114	-419.220382	-419.21059	-419.209646	-419.255371	35.153	
C	 0.0220036966	 1.3909347934	 0.039461306	-0.237867
O	 0.0124320987	-0.0196602718	 0.025857501	-0.269525
C	-1.2178940622	-0.6053079708	 0.0249504646	 0.35267
C	-1.3967754523	-1.9703009853	 0.028306962	-0.231876
N	-2.7574718499	-2.2126047277	 0.0098716519	-0.003104
C	-3.3669274709	-3.5240605307	-0.0070685183	-0.341974
C	-3.4313351357	-1.0187278442	 0.0198535164	 0.2792
N	-4.8440624914	-1.0075411314	-0.0328837477	-0.608744
C	-2.5023335392	 0.0080419677	 0.0256424806	-0.389449
H	 1.0703018647	 1.6966733152	 0.0400651675	 0.125104
H	-0.4732643781	 1.8094843554	-0.8478355613	 0.113755
H	-0.4695947993	 1.7922114769	 0.9368277689	 0.113147
H	-0.6791033505	-2.772551112	 0.041763305	 0.110752
H	-3.3439941648	-3.9976925085	 0.9821753943	 0.125994
H	-4.4051840926	-3.4165164626	-0.3237068743	 0.156428
H	-2.8386983897	-4.171325214	-0.713065519	 0.133085
H	-5.2681722071	-1.0142806357	 0.8907530412	 0.241947
H	-5.1753314373	-0.1791130184	-0.5122201428	 0.244731
H	-2.733175939	 1.0609765945	 0.0380776039	 0.085725
