22
gdb 115974	2.45048	1.27912	0.88918	1.9048	84.36	-0.2374	0.0344	0.2718	1377.4197	0.194344	-404.3885	-404.378935	-404.377991	-404.422987	35.513	
C	-0.026454508	 1.5650467599	 0.0805731881	-0.387644
C	-0.0256969205	 0.0341586186	 0.0550643009	-0.189532
C	-1.4199012691	-0.5767620955	-0.026348072	 0.150622
C	-1.4359720954	-2.0992607856	-0.0999967199	-0.240001
C	-2.8876220079	-2.5838713539	-0.0456573081	-0.167229
N	-3.6764452092	-1.9361651375	 0.9953775714	-0.306287
C	-3.2584557412	-0.8473062267	 1.4924554791	 0.395914
C	-3.9848003062	-0.1523307809	 2.6072234184	-0.450244
O	-2.143322942	-0.1418177372	 1.1426367994	-0.277262
H	 0.9930606311	 1.9559980312	 0.1472666981	 0.112675
H	-0.4823328049	 1.9752274403	-0.8275461084	 0.112464
H	-0.5925519327	 1.9383579349	 0.9375032393	 0.134454
H	 0.5479259058	-0.3285532334	-0.8067810454	 0.097633
H	 0.4697282074	-0.3576945335	 0.9518925446	 0.10429
H	-1.9458819472	-0.1673015585	-0.9030484192	 0.079034
H	-0.938172782	-2.4362876466	-1.0153340821	 0.09967
H	-0.8722581292	-2.5023046979	 0.750245222	 0.107448
H	-3.3815155261	-2.4170216903	-1.0132930965	 0.106308
H	-2.9248068677	-3.6655455486	 0.1267106195	 0.107363
H	-4.8516564501	-0.742183853	 2.9018796874	 0.142354
H	-3.3187368789	-0.0179688887	 3.4656841012	 0.134492
H	-4.305816876	 0.8450649828	 2.289513752	 0.133479
