12
gdb 25357	4.55001	0.99859	0.81887	7.6569	73.98	-0.2708	-0.0837	0.1871	1263.9066	0.078959	-431.724684	-431.717383	-431.716439	-431.756958	25.986	
O	-0.1416377107	 0.0113925214	-0.0005118055	-0.230618
C	 0.000615577	 1.2061017896	 0.0076286571	 0.091008
C	 1.2967219724	 1.9015969846	-0.0018385439	 0.255357
N	 2.503036083	 1.3701046494	-0.0204941952	-0.306985
C	 3.3678891884	 2.4292208188	-0.0215835658	 0.178457
C	 2.6732813735	 3.6298967017	-0.0037705116	-0.146405
N	 1.3639609196	 3.277905328	 0.0083220811	-0.269761
C	 4.7819582638	 2.2768301222	-0.0391773327	 0.223805
N	 5.9352861512	 2.1874667207	-0.0532641202	-0.326871
H	-0.8711559874	 1.9018411001	 0.0235238617	 0.070111
H	 3.0082772694	 4.6535842159	 0.0007313566	 0.174072
H	 0.5810952598	 3.9135402276	 0.0225018585	 0.287829
