20
gdb 81499	3.57821	1.27116	1.06555	1.668	86.94	-0.2258	0.0331	0.2589	1189.6727	0.169361	-365.894686	-365.885655	-365.884711	-365.927861	35.154	
C	-0.050611951	 1.6376445976	 0.4342485787	-0.452004
C	 0.0624881467	 0.1431997941	 0.1894451091	 0.093777
C	 0.7989751777	-0.4794320386	-1.0236860286	-0.116667
C	 2.0868800316	-0.0636390495	-0.2857135536	-0.193391
N	 1.2281574596	-0.6302534517	 0.8663655348	-0.192849
C	 0.8870966068	-1.7818909646	-0.1546975534	 0.182653
C	-0.3383174473	-2.6520620782	 0.1487625583	-0.487637
C	 2.0021570143	-2.6882313427	-0.412678823	 0.280447
C	 2.8576187747	-3.5057357062	-0.6293850717	-0.440515
H	 0.8093530936	 2.2244254297	 0.1073513025	 0.122338
H	-0.9316886849	 2.0222625099	-0.0908326137	 0.120824
H	-0.1978522271	 1.8222578485	 1.5037299662	 0.134117
H	-0.8998549193	-0.3008926469	 0.4409996476	 0.069896
H	 0.5585997191	-0.4112219175	-2.0914429381	 0.0649
H	 2.995320376	-0.6338385608	-0.4743309548	 0.12412
H	 2.3112482206	 0.9955326857	-0.1816084909	 0.099362
H	-1.2767032502	-2.1016410881	 0.2106478476	 0.123304
H	-0.4429808699	-3.4067116888	-0.635277382	 0.133671
H	-0.1825165675	-3.175865948	 1.0963491564	 0.14276
H	 3.6275056563	-4.212648364	-0.8178290514	 0.190895
