14
gdb 19192	3.79652	1.99502	1.79295	1.572	56.67	-0.2349	-0.0378	0.197	754.8435	0.107951	-419.649944	-419.6436	-419.642656	-419.680267	24.75	
O	 0.0851728835	 1.4387278159	 0.0935235145	-0.44575
C	 0.0230575141	 0.0496072498	 0.0476370358	 0.167386
C	-1.3845688317	-0.6614449422	-0.1549000901	-0.244476
C	-1.8330492257	 0.0407749906	-1.4434874733	-0.102359
O	-0.5723178373	 0.079098578	-2.1908949603	-0.299148
C	 0.3350585531	-0.6289376116	-1.3219780568	-0.085829
C	-0.5357725003	-1.7840128474	-0.7835659579	 0.44784
O	-0.4921205889	-2.9748569507	-0.742368975	-0.305286
H	-0.0180249755	 1.7503649151	-0.8159619642	 0.299571
H	 0.5773795598	-0.3662179333	 0.8909242	 0.113362
H	-2.1086916188	-0.8194308442	 0.6392998583	 0.101893
H	-2.5837009476	-0.5171615695	-2.0114436532	 0.127667
H	-2.1865548428	 1.0627957141	-1.2751490805	 0.118371
H	 1.3181244981	-0.7162943647	-1.7761352772	 0.106757
