18
gdb 98699	2.27464	1.20351	0.97631	2.5384	79.14	-0.2413	-0.0206	0.2207	1290.9408	0.144884	-401.9058	-401.896134	-401.895189	-401.941053	34.871	
C	 0.068164827	 1.7247880272	 0.354594039	-0.380691
C	-0.0492394573	 0.5616838637	 1.3359644888	-0.292376
C	 0.9130393438	-0.5677132908	 1.0327474951	 0.389862
O	 1.7018491918	-0.5376471199	 0.1132449726	-0.315396
C	 0.9130446796	-1.778261667	 1.9346270069	-0.116795
N	 0.1666102578	-1.7420137454	 3.193812757	-0.324214
C	-0.2922113358	-2.6682504055	 2.1485924981	-0.238801
C	-1.5795015955	-2.4505922235	 1.5480041354	 0.375514
C	-2.6598738197	-2.3292140224	 1.0347876969	-0.42405
H	-0.144487815	 1.3984558422	-0.6668376355	 0.128823
H	-0.6346346436	 2.5203827703	 0.6171353172	 0.107656
H	 1.0790236317	 2.1408385845	 0.3567004071	 0.127713
H	 0.1331490375	 0.8770151037	 2.371398977	 0.133657
H	-1.0649633187	 0.148018782	 1.3533892884	 0.141778
H	 1.8602487012	-2.3118031299	 1.8902226291	 0.109259
H	 0.6615034603	-2.248983176	 3.9226050051	 0.247043
H	-0.0407721771	-3.7205184688	 2.270370167	 0.124538
H	-3.6143578983	-2.2102322846	 0.5841793047	 0.206479
