16
gdb 124365	4.98941	0.98804	0.82906	2.5898	74.12	-0.218	0.0102	0.2281	1333.3526	0.125838	-434.127186	-434.118713	-434.117769	-434.16168	30.318	
C	-0.0021564543	 1.5404228866	-0.1778155058	-0.49705
C	-0.0059202871	 0.0497380855	 0.123601075	 0.402718
O	 0.0424473091	-0.3927515027	 1.2549820192	-0.354483
N	-0.0409154417	-0.746797952	-0.9953390831	-0.421588
C	-0.0031211397	-2.1402203939	-1.0186797799	 0.447062
N	-0.03185307	-2.7424851344	-2.20583355	-0.33105
N	 0.0154152681	-4.0573964565	-1.899316374	-0.183695
C	 0.0720545007	-4.2891857604	-0.5683288617	-0.01499
C	 0.0623534492	-3.0591535115	 0.0545417455	-0.287436
H	 1.0270198255	 1.8788995638	-0.3403044815	 0.150728
H	-0.5874451239	 1.7944881388	-1.0662855079	 0.124635
H	-0.4015552226	 2.0700366172	 0.687255579	 0.153754
H	-0.0821994071	-0.31318606	-1.9047564326	 0.257979
H	 0.0052503362	-4.7284218957	-2.6469688741	 0.276364
H	 0.1141018908	-5.2899800274	-0.1682974108	 0.134609
H	 0.0952363568	-2.8315288974	 1.1032030727	 0.142444
