20
gdb 115172	2.52229	1.37653	1.05318	3.885	76.96	-0.2522	0.0329	0.2851	1213.1874	0.170764	-440.299722	-440.290474	-440.28953	-440.333916	33.845	
C	 0.2720640724	 1.1351688609	 0.4972419523	-0.238237
O	 0.1475380048	-0.2254223489	 0.1509471039	-0.238388
C	 0.5505330963	-0.5309851169	-1.1677106299	 0.091394
C	 2.0750878322	-0.7005755657	-1.2815321236	-0.107871
O	 2.343441259	-2.055838968	-0.8954540335	-0.243574
C	 1.2056516206	-2.8100416156	-0.9883245651	 0.43428
N	 1.1298269884	-4.0343946851	-0.6943693628	-0.548495
C	 0.0703137801	-1.9510480905	-1.514365374	-0.11214
C	-1.3128016065	-2.355985316	-1.0172863706	-0.400998
H	 1.3156968241	 1.4831220945	 0.4769391391	 0.106899
H	-0.3177248996	 1.7774024651	-0.1751166664	 0.10911
H	-0.108389967	 1.2432914428	 1.5153323435	 0.136019
H	 0.1722389471	 0.2280710389	-1.8672724319	 0.069355
H	 2.4212391063	-0.5365782567	-2.3102611467	 0.108054
H	 2.6322301529	-0.0414943305	-0.6118646993	 0.120534
H	 2.034977955	-4.3867484462	-0.3786336636	 0.221037
H	 0.1031688382	-2.0346572796	-2.6102241669	 0.104746
H	-1.3935944889	-2.2017131149	 0.0594251259	 0.141151
H	-2.092506546	-1.768248563	-1.5112334533	 0.104919
H	-1.4790998294	-3.4143168046	-1.228594277	 0.142205
