18
gdb 97130	2.54845	1.05197	0.77673	2.9901	75.88	-0.2482	-0.0245	0.2237	1441.288	0.14566	-439.085678	-439.076054	-439.07511	-439.121729	32.609	
C	 0.0499781544	 1.3032227714	 0.1156350694	-0.342142
N	-0.0697700047	-0.139149408	 0.2844971983	-0.324632
C	-1.1496814966	-0.7045852915	 0.0085101286	 0.467602
O	-2.3452978869	-0.1926484807	-0.4735819117	-0.264331
C	-2.9251316951	-1.528482876	-0.5598975886	-0.102549
C	-1.6326651489	-2.1441979801	 0.0267920197	-0.169996
C	-0.8553251417	-3.153541567	-0.8233059747	-0.30058
C	 0.5059328029	-3.4793351048	-0.2297992143	 0.149427
O	 0.907219847	-4.6019537861	-0.0576260147	-0.241187
H	 0.9100307099	 1.5162760964	-0.5278846381	 0.130329
H	-0.8399201286	 1.7776254924	-0.313362814	 0.12915
H	 0.2577425264	 1.7610896216	 1.088871863	 0.132628
H	-3.8263952441	-1.6071430053	 0.0521295828	 0.12602
H	-3.145069097	-1.7923467239	-1.5980911245	 0.12297
H	-1.7688405112	-2.5229046983	 1.0439268426	 0.119242
H	-1.4132124896	-4.0873839632	-0.9404713839	 0.125232
H	-0.6872031705	-2.7268374734	-1.8223922327	 0.126503
H	 1.1155492541	-2.5913077635	 0.0371318228	 0.116316
