13
gdb 67369	3.0719	1.95577	1.37449	1.3559	56.95	-0.2602	-0.0234	0.2369	860.8062	0.088917	-493.655198	-493.648742	-493.647798	-493.685896	25.583	
O	 0.0624242169	 1.4248222478	 0.0168221613	-0.467726
C	 0.0090176759	 0.0630226229	 0.0184285577	 0.270682
C	 0.0360394127	-0.8403504759	 1.3139076468	-0.02015
O	-1.3906810471	-0.6291897554	 1.5630562343	-0.311125
C	-1.3178293599	-0.7887535568	 0.1099506121	-0.020173
C	-0.3092499823	-1.9531591474	 0.2902886426	 0.053858
O	 0.6450584734	-1.9817050724	-0.7840456719	-0.226779
C	 0.879369292	-0.6558885658	-0.9911122427	 0.394141
O	 1.619165113	-0.1827738993	-1.8029524266	-0.353563
H	 0.6886628996	 1.6787071764	-0.6776005611	 0.306396
H	 0.7234762389	-0.8338384367	 2.1586806894	 0.120282
H	-2.235635566	-0.7213151324	-0.4725804808	 0.120266
H	-0.621964807	-2.943901685	 0.5994249089	 0.133892
