17
gdb 66390	3.37927	1.2209	1.11782	2.9679	65.42	-0.2563	-0.0543	0.202	1109.2199	0.135533	-496.096786	-496.08865	-496.087706	-496.129535	30.625	
O	 0.044976348	 1.5151562139	 0.0845669261	-0.463554
C	-0.0039093489	 0.1150358886	 0.0352554699	 0.247918
C	 0.7206845049	-0.4946674992	 1.2654657344	-0.109377
O	-0.0040884281	-0.2485043931	 2.4519548119	-0.228221
C	-1.3124127715	-0.7454533904	 2.3689576763	 0.01614
O	-2.0515526664	-0.137783999	 1.3445473889	-0.22818
C	-1.4755520852	-0.3763071354	 0.0774299602	-0.109419
C	 0.6569361205	-0.3827934252	-1.2347467267	 0.107231
O	 1.1351789241	 0.3783563814	-2.0410737336	-0.261851
H	 0.4991592416	 1.789880933	-0.7279900881	 0.293257
H	 0.8602511048	-1.5803818502	 1.1204450667	 0.085236
H	 1.6964190495	-0.0191111506	 1.3827522312	 0.130926
H	-1.2883659047	-1.8430272174	 2.2149985144	 0.074279
H	-1.8081541903	-0.5032024483	 3.3098715429	 0.127818
H	-2.065269943	 0.1829201525	-0.6515737039	 0.130906
H	-1.5204803438	-1.4521829424	-0.1668803364	 0.085274
H	 0.6814519687	-1.4807978281	-1.3888897241	 0.101618
