20
gdb 62594	2.96669	1.78696	1.72449	1.4382	79.73	-0.2215	0.0749	0.2964	925.7109	0.171521	-365.963617	-365.956186	-365.955242	-365.994774	31.104	
C	 0.0590710321	 1.5081456822	 0.0219050549	-0.419447
C	-0.0226013266	-0.0187886238	-0.0268957136	 0.290049
C	-1.472832856	-0.5057984575	-0.0117868356	-0.419452
C	 0.7898750658	-0.6176055579	-1.1739654666	-0.09211
C	 2.2272571829	-0.7651585171	-0.7397332474	-0.107515
C	 1.3093562804	-1.9723056217	-0.7600198953	-0.107481
C	 1.2251133396	-1.9165319186	 0.7947411142	-0.075047
C	 2.1259573022	-0.732359445	 0.8146748179	-0.074995
N	 0.6984500499	-0.5867216216	 1.1364882622	-0.128048
H	 1.1010588608	 1.8414135809	 0.0244981095	 0.116122
H	-0.4384572211	 1.9515563472	-0.8466754221	 0.10818
H	-0.4253262129	 1.8891281786	 0.9256248966	 0.120958
H	-2.019062076	-0.1260266664	-0.8812619279	 0.10818
H	-1.5157084067	-1.5987344469	-0.0333507301	 0.116118
H	-1.9837323785	-0.1600684968	 0.8915112029	 0.12096
H	 0.5532493828	-0.4202671307	-2.2129774729	 0.084741
H	 3.0946396814	-0.5448854165	-1.3447626997	 0.088772
H	 1.3388913914	-2.8539236038	-1.383566584	 0.088782
H	 1.098343832	-2.744294641	 1.4805457265	 0.090612
H	 2.8785984565	-0.4041493036	 1.5199382506	 0.09062
