16
gdb 102003	2.48691	1.36508	0.95079	6.2677	74.29	-0.2762	-0.0699	0.2063	1215.3027	0.123225	-434.095941	-434.086454	-434.08551	-434.13109	32.624	
C	-0.0004456591	 1.5216798786	-0.0305129504	-0.379142
C	-0.055490009	-0.0057850207	-0.0025105072	-0.171587
N	-1.4307639057	-0.5310265743	-0.0057971877	-0.116866
C	-2.0444631986	-0.7839026874	-1.2390756595	 0.081857
N	-3.2998285289	-0.8138759114	-1.3841322416	-0.415302
C	-2.0457402498	-0.6618825001	 1.2233824832	 0.367381
O	-1.5375215973	-0.274004751	 2.2546790115	-0.335779
C	-3.3249418423	-1.3788623666	 1.2881032604	 0.263098
N	-4.2865457673	-1.9678189305	 1.5407260112	-0.331082
H	 1.041718339	 1.8543813033	-0.0433440744	 0.129217
H	-0.4981132898	 1.92169624	-0.919205664	 0.126621
H	-0.4825138631	 1.9365640553	 0.8574325147	 0.155307
H	 0.450822667	-0.4298497745	-0.8751470726	 0.117394
H	 0.435499501	-0.3863882252	 0.8941371012	 0.150889
H	-1.3019343317	-0.9354530747	-2.0303168839	 0.1129
H	-3.5544714842	-1.0675120208	-2.3363063309	 0.245093
