20
gdb 119532	4.24158	0.92367	0.84036	1.7214	79.39	-0.2272	0.0056	0.2328	1399.2853	0.172015	-403.128107	-403.119506	-403.118561	-403.161688	32.917	
O	 0.0929200395	 1.443868107	 0.2163267009	-0.420072
C	 0.026345936	 0.0266562976	 0.240411514	-0.058025
C	-1.3090640991	-0.5121820852	-0.2847312546	-0.290277
C	-1.3765157309	-2.0212127673	-0.2601345123	 0.331445
C	-0.4927349677	-2.8362163106	-1.2162855222	-0.333278
C	-1.2880898947	-4.1013141482	-1.4611487376	-0.09174
C	-2.4809369807	-4.0599980552	-0.8603512585	-0.076159
C	-2.637870414	-2.8073101981	-0.0647804822	-0.123183
N	-1.6765856583	-2.6191543186	 1.0514294284	-0.369461
H	-0.5755006861	 1.7765749125	 0.823832831	 0.280904
H	 0.8506741567	-0.3146843626	-0.3955264922	 0.107916
H	 0.2056034298	-0.3711272727	 1.2507231201	 0.10172
H	-2.1194626098	-0.1155927729	 0.339124722	 0.094003
H	-1.4688437834	-0.1416610329	-1.3045738465	 0.102026
H	-0.3194251631	-2.2866239769	-2.1517063682	 0.116105
H	 0.5005860846	-3.041210194	-0.7952972061	 0.114381
H	-0.8991541169	-4.9326332442	-2.0380870748	 0.100168
H	-3.238677597	-4.8338448	-0.8978517815	 0.101561
H	-3.6124747877	-2.3538341227	 0.0866902939	 0.08984
H	-1.1527533574	-3.4823751249	 1.1868412762	 0.222125
