22
gdb 95251	2.67839	1.43663	1.15158	0.9802	81.82	-0.2182	0.0676	0.2858	1151.2557	0.196733	-404.331219	-404.322983	-404.322039	-404.363459	33.503	
O	-0.0459000793	 1.4207346	 0.0571024913	-0.433547
C	-0.0018190061	-0.0062590696	-0.0189477329	 0.125431
C	-1.4561543712	-0.4788097146	 0.0999086549	-0.190229
C	-2.365448344	-0.0329051888	-1.059594594	-0.23216
C	-2.1753144417	-0.8813896221	-2.301176067	 0.023613
C	-2.0920341791	-0.2922535677	-3.6670357453	-0.267348
N	-0.9132580926	-0.8913277097	-3.0459147732	-0.080506
C	 0.1566430885	 0.0033011823	-2.6052411033	-0.148463
C	 0.7576231072	-0.4688598591	-1.2757912309	-0.223675
H	 0.8548664892	 1.7512691792	-0.0186578154	 0.279959
H	 0.5411759626	-0.4009356915	 0.8556502587	 0.06044
H	-1.4678083432	-1.5719919057	 0.188482152	 0.094301
H	-1.8444598433	-0.0781273071	 1.0425744664	 0.102012
H	-3.414004151	-0.1141585504	-0.7499770727	 0.094966
H	-2.1866438952	 1.0259820003	-1.2649910782	 0.118281
H	-2.6051946354	-1.8799042352	-2.211578499	 0.081991
H	-2.4957494546	-0.8140669257	-4.5312295139	 0.109049
H	-2.1309018934	 0.7947537214	-3.7359785894	 0.105153
H	 0.9265206222	-0.0138167232	-3.3853696714	 0.096307
H	-0.1650637884	 1.0509559702	-2.4993725256	 0.09357
H	 1.7866323496	-0.0911488112	-1.1962249228	 0.081797
H	 0.8317718091	-1.5626969119	-1.2831046583	 0.109058
