19
gdb 78554	3.20199	1.23309	1.02668	3.0073	76.48	-0.2492	0.0691	0.3183	1205.7537	0.157277	-422.970376	-422.961665	-422.960721	-423.003283	33.686	
C	-0.0606444936	 1.4465326749	-0.0217821181	-0.430126
C	 0.0653001837	-0.0621450598	-0.0537868293	-0.072922
C	 0.7649104388	-0.6778679434	-1.2590654093	-0.232668
C	 1.437085286	-0.6595188468	 0.1131184682	 0.388337
O	 2.5435984486	 0.0833749112	 0.4818829753	-0.458376
C	 1.3678980999	-2.1962270917	 0.2028524262	-0.399744
C	 0.6571915223	-2.183062563	-1.1658148435	 0.478658
C	-0.3104808049	-3.105608941	-1.7605239662	-0.272846
O	 1.0545213516	-3.0443927901	-2.2147291979	-0.281224
H	 0.8357757231	 1.925393429	-0.4242846978	 0.134004
H	-0.9217430337	 1.7813504658	-0.608961939	 0.121283
H	-0.1990818262	 1.8084021538	 1.0035119507	 0.112349
H	-0.7877756947	-0.5971591918	 0.3652890473	 0.07611
H	 0.9796869732	-0.1069838581	-2.1541034499	 0.102311
H	 2.4451219898	 0.3414539327	 1.4054793647	 0.287253
H	 2.3582930745	-2.6480458723	 0.1050377993	 0.128057
H	 0.8417885932	-2.6323202417	 1.0588288049	 0.093104
H	-0.5831232373	-4.0229367854	-1.2399626561	 0.112872
H	-1.0523114443	-2.7343874523	-2.4666888094	 0.113567
