13
gdb 25990	5.08121	1.02848	0.98939	4.0555	60.2	-0.2399	0.0047	0.2445	1164.7839	0.089364	-489.944302	-489.936081	-489.935137	-489.980128	27.717	
N	-0.0685430313	 1.2817389071	 0.1716935075	-0.561979
C	-0.060191561	 0.0132679071	-0.2944134472	 0.482268
O	 0.5642247421	-0.427533533	-1.2170965242	-0.357898
O	-0.9244605295	-0.7481167086	 0.501451402	-0.299941
C	-1.0041230015	-2.0618238173	 0.2158690659	 0.425788
C	-1.9555549342	-2.8351542907	-0.3516547649	-0.20306
N	-1.5365341545	-4.1603949759	-0.293536513	-0.255535
C	-0.3856696994	-4.1068619086	 0.2894959092	 0.088429
O	 0.0146203528	-2.8596050669	 0.6423492556	-0.165374
H	 0.4547043251	 1.9755005246	-0.3308134325	 0.28172
H	-0.6796256356	 1.5536896018	 0.9205921544	 0.278232
H	-2.8933186982	-2.5403085291	-0.7915574257	 0.132798
H	 0.2881219152	-4.9143302805	 0.527234843	 0.154551
