18
gdb 68253	2.39513	1.51938	1.45154	1.7908	78.83	-0.2433	0.0301	0.2734	1031.7091	0.145529	-401.832055	-401.823237	-401.822293	-401.864948	34.226	
C	-0.1146106625	 1.5155968775	-0.0104260247	-0.486193
C	 0.0363437622	-0.0054074117	 0.0552033351	 0.14176
C	-1.2420173525	-0.6013764811	-0.3161575021	 0.278776
C	-2.3291699778	-1.014254279	-0.6222826557	-0.434259
N	 1.2714612838	-0.6339559425	-0.6901042147	-0.167974
C	 2.1196079161	-0.1284448178	 0.4872563974	-0.250518
C	 0.8575877408	-0.6952773579	 1.1835273021	 0.318336
O	 0.4763518496	-0.6764177756	 2.5114556994	-0.463832
C	 1.0271602141	-1.8732996608	 0.1902158446	-0.252154
H	-0.2997981858	 1.8184280634	-1.0448420738	 0.140697
H	-0.9799820098	 1.8131795777	 0.5872504803	 0.14167
H	 0.7524303993	 2.0610133412	 0.3611026775	 0.122431
H	-3.2834021876	-1.3954944093	-0.8909274276	 0.193196
H	 3.0473637549	-0.6937030457	 0.6014989952	 0.100305
H	 2.3174193554	 0.9411057787	 0.488791979	 0.108152
H	 1.0925120526	-1.2134845707	 3.0219303625	 0.285018
H	 0.1492004911	-2.4525089432	-0.0915553721	 0.128954
H	 1.9180451762	-2.4974198231	 0.2904754275	 0.095638
