16
gdb 54484	3.41667	1.4154	1.14373	2.0261	69.6	-0.2466	-0.0089	0.2377	1053.4649	0.124817	-437.912153	-437.904448	-437.903504	-437.94432	29.941	
N	 0.516488465	 0.1643740898	-1.0116087441	-0.536685
C	-0.0608092899	 0.191109617	 0.2186244173	 0.311646
O	 0.4252702891	 0.7184518757	 1.2020765195	-0.368027
C	-1.3815058087	-0.5313175524	 0.2871954414	 0.316845
C	-2.3824562571	-0.1728390351	 1.3765664112	-0.336759
C	-3.1258910307	-1.4705139295	 1.6035424018	-0.076813
C	-2.6400143793	-2.4729589234	 0.8652545198	-0.078085
C	-1.5381871904	-1.9776898214	-0.0078069792	-0.05972
O	-1.9574333356	-0.9629203069	-0.9538976275	-0.31054
H	 1.361013098	 0.6921554698	-1.155583564	 0.263095
H	-0.0286864228	-0.1448770933	-1.7996989744	 0.272588
H	-1.8426266359	 0.1699151966	 2.2661203183	 0.149826
H	-3.0480089805	 0.6412994557	 1.0667307563	 0.127148
H	-3.9712028522	-1.5418496535	 2.278492392	 0.108994
H	-2.9873285074	-3.4981475749	 0.8616472177	 0.107457
H	-0.7227892117	-2.6070729239	-0.3500615062	 0.109029
