18
gdb 47440	3.03827	1.33074	0.97384	1.8692	72.51	-0.2395	-0.0294	0.2101	1192.4394	0.147506	-439.062221	-439.054055	-439.05311	-439.0956	30.284	
O	 0.27800363	 0.0288856197	 0.3828556983	-0.298665
C	 0.0896977684	 1.1874352112	 0.1299369183	 0.37202
C	-1.2461528842	 1.8563532209	-0.1946283856	-0.183263
O	-0.9346165221	 3.1870803627	-0.5596323375	-0.249845
C	 0.2599762163	 3.5565034138	 0.13089693	-0.109505
C	 1.1491302051	 2.3070184141	 0.0907030687	-0.088379
N	 2.0818985164	 2.2096361866	 1.190717791	-0.069768
C	 3.1459959905	 1.2176058677	 1.0530885997	-0.204607
C	 3.4502639109	 2.6687216647	 0.9409127632	-0.23271
H	-1.7673714297	 1.3603267682	-1.0183423386	 0.140247
H	-1.8898718078	 1.8082053158	 0.7001024121	 0.125478
H	 0.679650275	 4.4237788215	-0.3818839686	 0.117785
H	 0.0557565059	 3.8222665369	 1.1792153281	 0.109821
H	 1.6355914266	 2.2382532557	-0.9021041017	 0.089372
H	 3.3892704653	 0.6693899233	 1.9575780991	 0.124687
H	 3.1731908845	 0.6241807223	 0.1429475278	 0.123529
H	 3.684130678	 3.057690119	-0.0488362511	 0.11187
H	 3.9198085008	 3.2020460559	 1.7618285867	 0.121934
