20
gdb 87449	2.50724	1.56266	1.32131	1.6943	80.13	-0.2289	0.0668	0.2957	1071.2138	0.170105	-403.046826	-403.038286	-403.037342	-403.079473	33.663	
C	 0.0003971773	 1.5267964987	 0.0433795181	-0.521655
C	 0.0070057156	 0.0210736534	 0.0283696864	 0.223053
C	 0.5167973278	-0.9659148277	-1.0569159224	-0.205768
N	-0.0299783334	-1.9385091435	 0.0095234935	-0.196849
C	 0.6536549831	-0.9893060289	 1.0152964094	-0.20365
C	-1.1777589068	-0.950897249	 0.0939955449	 0.425877
C	-2.4074782998	-1.0484094523	 0.9325969973	-0.447878
C	-2.4776405571	-1.0317057469	-0.5994481808	-0.041973
O	-2.9073929361	 0.1250051952	-1.2620947771	-0.426489
H	 1.0165883471	 1.9261779042	-0.0427036825	 0.116569
H	-0.5983370805	 1.9152679767	-0.7854554448	 0.140793
H	-0.4309261028	 1.904993682	 0.9768701027	 0.118334
H	-0.0238328213	-1.0095476252	-2.005131688	 0.110095
H	 1.5979995131	-1.0519643291	-1.2004984539	 0.093321
H	 1.7441759121	-1.0777700963	 1.0161334315	 0.093597
H	 0.2416088882	-1.056121017	 2.0253288417	 0.100667
H	-2.6302286697	-1.9828634743	 1.4384208185	 0.121276
H	-2.7378912808	-0.1503401511	 1.4466887536	 0.114926
H	-2.7374677385	-1.9737593829	-1.08372173	 0.097201
H	-3.8650063075	 0.180322004	-1.1744792781	 0.288551
