13
gdb 131208	3.423	1.61136	1.1071	3.1406	60.04	-0.2062	0.0321	0.2383	987.7964	0.090937	-489.85752	-489.85028	-489.849336	-489.889188	26.749	
O	 0.0708492339	 1.350251001	 0.2439285125	-0.427631
C	 0.0850729822	 0.0261871233	-0.0176910679	 0.276089
C	 0.2170960662	-0.7599150871	-1.1273053891	 0.1018
O	 0.5207886823	-0.7540313937	-2.4694347576	-0.304489
C	 0.2913801546	-2.1306371081	-2.837890685	 0.00246
O	 0.3504134616	-2.9538937956	-1.6572953841	-0.269061
C	 0.1324014048	-2.0656274486	-0.6479565981	 0.38968
N	-0.0546338598	-2.189039579	 0.6389631002	-0.353244
N	-0.0327107931	-0.8558216934	 1.0345524199	-0.267022
H	 0.1780924015	 1.831919025	-0.5826246317	 0.318926
H	-0.7095303853	-2.2213035948	-3.2838450043	 0.117918
H	 1.0703360796	-2.4471905624	-3.5335790306	 0.138826
H	-0.4638418186	-0.6245330067	 1.9144430358	 0.275747
