17
gdb 41704	3.5359	1.8162	1.79756	2.3984	70.08	-0.2355	-0.0004	0.2351	833.8441	0.140015	-421.826494	-421.820714	-421.81977	-421.856276	25.129	
C	-0.0245996158	 1.5610095547	 0.1016169095	-0.102656
O	 1.3434237792	 1.9884518931	-0.0589758669	-0.257507
C	 2.0032242357	 0.8489930319	-0.5637422236	 0.203603
O	 1.4665252308	 0.5211061563	-1.8305728322	-0.286832
C	 0.3451373047	-0.3839180804	-1.5126615231	 0.051833
C	 0.9720920694	-1.7534103215	-1.3404380571	-0.090254
C	 1.7007576397	-1.6805488526	-0.220659425	-0.084588
C	 1.5029909151	-0.3126303398	 0.3745830096	-0.118706
C	 0.0434846852	 0.0393321823	-0.0555553294	-0.075048
H	-0.3761717596	 1.8623497603	 1.0940744429	 0.10657
H	-0.6592189703	 2.0384090483	-0.655796688	 0.106854
H	 3.0691362006	 1.0557001397	-0.6392415878	 0.092317
H	-0.4268571398	-0.2500127412	-2.2690076143	 0.078995
H	 0.9437488912	-2.5523311563	-2.0690744525	 0.10509
H	 2.3777894279	-2.4263445586	 0.1756595322	 0.106172
H	 1.7745741938	-0.1587158708	 1.4176207048	 0.078487
H	-0.7441114578	-0.5323177753	 0.4332682709	 0.08567
