22
gdb 64281	2.87126	1.37883	1.23918	2.3527	81.2	-0.2155	0.0595	0.275	1134.2065	0.194976	-404.334118	-404.325415	-404.32447	-404.366825	35.091	
C	-0.0164673241	 1.5561421526	 0.0249891043	-0.431032
C	-0.0030657726	 0.0251709499	-0.0194135996	 0.369376
O	-1.3466913818	-0.4705367731	 0.0622024478	-0.462848
C	 0.6761160406	-0.4979242516	-1.2968891985	-0.261511
C	 0.6067445209	-2.0314313615	-1.3670139818	-0.139373
N	 1.0396164694	-2.7502898117	-0.1701396377	-0.083884
C	 2.3328609173	-2.442712609	 0.4232553516	-0.248123
C	 1.069976875	-2.0334610288	 1.1079719189	-0.003955
C	 0.7148791357	-0.5483660398	 1.2143982422	-0.238353
H	 0.9960404172	 1.9691748872	-0.0268837118	 0.112704
H	-0.5830974575	 1.9600626805	-0.822787528	 0.100772
H	-0.4890355598	 1.9070418548	 0.9474489984	 0.12166
H	-1.8278622988	-0.1469590496	-0.7073207028	 0.274035
H	 0.1821918349	-0.0759810051	-2.1825985517	 0.083392
H	 1.7133261388	-0.1424075	-1.3277354811	 0.097448
H	-0.4343688331	-2.3207366478	-1.5420538404	 0.107645
H	 1.1944412465	-2.4018129278	-2.214316485	 0.096965
H	 2.9063882499	-3.3020109777	 0.7631317827	 0.107739
H	 2.9373690053	-1.6426484402	-0.0034186002	 0.09789
H	 0.7252285847	-2.6409389393	 1.9415847341	 0.08856
H	 1.6215056961	 0.0398807705	 1.3933852597	 0.098373
H	 0.0594810953	-0.3934300324	 2.0759888291	 0.112521
