23
gdb 68913	2.28057	1.74136	1.19222	0.2308	90.65	-0.2331	0.0321	0.2652	1149.6774	0.206279	-351.171536	-351.162583	-351.161639	-351.204312	35.958	
C	-0.103165081	 1.5111458091	-0.0075111085	-0.466678
C	 0.0487110423	 0.000756338	-0.0116266738	 0.29887
C	 1.4315705184	-0.5867654863	-0.2042762324	-0.367363
C	 0.7414688462	-0.7183635965	 1.1377482834	 0.298869
C	 1.2988016013	 0.0558067713	 2.3185971161	-0.466681
C	 0.2449051582	-2.1047207055	 1.5411351747	-0.31379
C	-0.6028639223	-2.80237643	 0.517100113	-0.063286
C	-1.2083544301	-2.1738407521	-0.4874998465	-0.063281
C	-1.1152215103	-0.6928247388	-0.7155347484	-0.313788
H	 0.7767952665	 2.0226969755	 0.3882845508	 0.112855
H	-0.2591039639	 1.8776063002	-1.0295969573	 0.113186
H	-0.969686951	 1.824274087	 0.5876539845	 0.111805
H	 1.5285352234	-1.4760121007	-0.8191008345	 0.10879
H	 2.2672983831	 0.102678103	-0.2766276735	 0.097563
H	 1.7625916537	 0.9994749507	 2.0235381142	 0.112857
H	 0.5167316211	 0.2814105926	 3.0538527417	 0.111808
H	 2.066911141	-0.5372111915	 2.8300717877	 0.113186
H	 1.10969852	-2.7333901257	 1.8002284055	 0.100639
H	-0.33049463	-2.0159171053	 2.4766234611	 0.104682
H	-0.7296168694	-3.8755324229	 0.6382943632	 0.082218
H	-1.8271334855	-2.7362433495	-1.1826504491	 0.082217
H	-2.0568697391	-0.2238410707	-0.3877211736	 0.104681
H	-1.0566673724	-0.484557542	-1.7941540382	 0.100639
