19
gdb 126575	3.08053	1.01827	0.81495	3.8233	78.33	-0.2142	0.0026	0.2168	1434.2619	0.159473	-419.205367	-419.19607	-419.195126	-419.24007	33.841	
C	-0.0598991532	 1.5754218015	-0.0281815379	-0.379022
C	-0.084650707	 0.0461578608	-0.0738510238	-0.168504
C	 0.7870882984	-0.5258689911	-1.209047949	-0.308137
C	 0.7662559856	-2.0216243079	-1.2772734055	 0.366054
N	 1.7561926228	-2.7342840637	-0.7910830753	-0.209583
O	 1.4259123802	-4.0601623036	-1.0049862003	-0.172326
C	 0.2209581818	-4.1170175629	-1.6133264473	 0.002054
C	-0.2591818715	-2.8620040591	-1.8223980894	 0.049866
N	-1.4074993784	-2.4274247963	-2.4993694187	-0.611319
H	 0.9590582147	 1.9476088726	 0.1236455704	 0.122007
H	-0.433284146	 2.0078412657	-0.9632086332	 0.114999
H	-0.6798799215	 1.9583465703	 0.7880803369	 0.115259
H	 0.2675695285	-0.3650152621	 0.8790200457	 0.118208
H	-1.1208000707	-0.3009540194	-0.1867262793	 0.087554
H	 0.4482501044	-0.1200405645	-2.1710481974	 0.112725
H	 1.8230492525	-0.2018893123	-1.068924337	 0.127518
H	-0.1502691827	-5.1034229468	-1.8417676986	 0.134707
H	-2.0768923004	-3.1696863302	-2.6556965908	 0.247476
H	-1.8711014876	-1.6588193008	-2.0314908196	 0.250464
