19
gdb 92572	3.80837	1.34942	1.11937	4.1269	76.9	-0.2142	0.058	0.2722	1127.845	0.162497	-419.235159	-419.227524	-419.22658	-419.267306	29.462	
C	 0.4567230334	 1.366304227	 0.131530003	-0.393916
C	-0.0979851486	-0.0319443349	-0.0963509991	 0.104734
C	 0.5591022748	-0.7885182104	-1.2817322153	-0.20632
N	 1.6105370996	-1.4955427178	-0.5776136783	-0.11889
C	 2.2462611097	-2.7496843775	-0.9730058055	-0.195392
C	 2.5739836507	-3.340993296	 0.4369253869	-0.160821
N	 1.6126158119	-2.719426515	 1.3730097895	-0.380654
C	 1.1477127797	-1.7377304371	 0.7169324222	 0.485087
O	 0.1888602719	-0.8656274313	 1.0624347113	-0.269465
H	 1.5492048415	 1.342910235	 0.1807947887	 0.137668
H	 0.1570038449	 2.0296419175	-0.6861741331	 0.119667
H	 0.0730917123	 1.777755397	 1.0685241369	 0.136796
H	-1.1862072831	-0.0025956234	-0.1921675672	 0.10101
H	-0.1528008692	-1.4761169952	-1.767544268	 0.100306
H	 0.9467163573	-0.0994604869	-2.0377662743	 0.116186
H	 1.5394071371	-3.3903864319	-1.5252207348	 0.095212
H	 3.1302624195	-2.5900285681	-1.5953956231	 0.110889
H	 2.4850971402	-4.4304289723	 0.4579903642	 0.110231
H	 3.6014895664	-3.0892642786	 0.7317039561	 0.107672
