16
gdb 19242	3.09897	2.05395	1.59161	1.5252	69.46	-0.2549	0.0369	0.2919	843.5877	0.129796	-346.535874	-346.528308	-346.527364	-346.567489	29.039	
O	 0.1015187192	 1.3894702132	 0.2438992604	-0.429357
C	-0.032313603	 0.0146194101	 0.0365586089	 0.130669
C	-1.4158078838	-0.6416415818	 0.0406692799	-0.071829
C	-2.227189553	-0.2415147184	-1.1601693832	-0.297894
C	-1.1487722595	-1.2665136665	-1.3320129758	-0.041491
C	 0.2287493511	-0.5770595029	-1.4212864195	-0.260527
C	 0.4219792297	 0.4060287468	-2.469158639	 0.312466
C	 0.5511656873	 1.2870628877	-3.2800252829	-0.441954
H	-0.1783168655	 1.8436999775	-0.5601542515	 0.284627
H	 0.6322732383	-0.4734406884	 0.7539076729	 0.096801
H	-1.8776868104	-1.0908858049	 0.9115119272	 0.089242
H	-3.2415122553	-0.6263234042	-1.1716643712	 0.117248
H	-2.1260284976	 0.7416735256	-1.6121997021	 0.112017
H	-1.3438052039	-2.2752593759	-1.6718450366	 0.094816
H	 1.0578175932	-1.2889337279	-1.4073008382	 0.105243
H	 0.6841680334	 2.0330457701	-4.0242858994	 0.199921
