19
gdb 106163	2.76722	1.54101	1.51493	1.0367	74.6	-0.2391	0.0706	0.3097	1004.6756	0.159679	-422.964224	-422.956548	-422.955604	-422.996288	30.086	
C	-0.040663875	 1.3852146666	 0.079689622	-0.263149
O	 0.0263749728	-0.0322407574	 0.0288199011	-0.292363
C	 0.6323341987	-0.520403932	-1.0947131998	 0.396268
C	 0.8165903125	-2.0575390201	-1.3618158668	-0.116715
C	 0.0627821754	-1.8812882645	-2.7091402391	-0.238682
C	 0.2399428184	-0.3477938679	-2.6096489063	 0.017757
O	 1.5860189721	 0.0595210161	-2.9353447713	-0.298528
C	 2.0950514621	-0.2953245653	-1.6319263101	 0.017748
C	 2.3448897389	-1.8167368145	-1.5063760776	-0.23868
H	 0.961165917	 1.8346059688	 0.0692415606	 0.119899
H	-0.6160533953	 1.7899023732	-0.7634412874	 0.119911
H	-0.5413511854	 1.6455046418	 1.0140785611	 0.132298
H	 0.4765551949	-2.8311231545	-0.6751199781	 0.075782
H	 0.4749461919	-2.3653334003	-3.5981650345	 0.102489
H	-0.9933481212	-2.1500405501	-2.6019662662	 0.104245
H	-0.5084587934	 0.3157586272	-3.0470790723	 0.077492
H	 2.8485782348	 0.4107328157	-1.2777643651	 0.077493
H	 2.8643379866	-2.0409244996	-0.5688052183	 0.104246
H	 2.8666779744	-2.2976851332	-2.3376219521	 0.102489
