17
gdb 69123	2.72915	1.66427	1.27547	2.5507	69.32	-0.2348	-0.0362	0.1985	1001.1623	0.135188	-458.959549	-458.951693	-458.950749	-458.991524	30.743	
O	-0.0829515652	 1.2813940165	-0.3415462097	-0.472539
C	-0.0518924262	-0.0580572769	-0.0233217765	 0.379584
C	-0.3556613666	-1.1161258345	-1.0324837514	-0.400053
C	-1.3363162385	-0.9096043757	 0.1286796936	 0.260135
O	-1.244433322	-1.7517923191	 1.2366147695	-0.307404
C	 0.1186265154	-1.7433690201	 1.6905270673	-0.107362
C	 0.7640219858	-0.4294851323	 1.1989057908	-0.287529
C	-2.6122873827	-0.2355724114	-0.0951742807	 0.085167
O	-2.7661420776	 0.5982345571	-0.9716798044	-0.3099
H	-0.8898289202	 1.4367834026	-0.8611423091	 0.30443
H	-0.7108403944	-0.7721996294	-1.9983542368	 0.140379
H	 0.1969674947	-2.0498181425	-1.0405535127	 0.128181
H	 0.1098245113	-1.8378515156	 2.7789824135	 0.123234
H	 0.6441766112	-2.6149593882	 1.2790943215	 0.10951
H	 1.8298820109	-0.5564357828	 0.9901579854	 0.120779
H	 0.650117583	 0.3781467839	 1.9275832423	 0.129496
H	-3.4187808691	-0.4883059115	 0.6211163875	 0.103892
