16
gdb 93469	3.02963	1.40749	1.00114	3.0062	67.09	-0.2616	-0.0057	0.2558	1126.2585	0.126592	-471.255281	-471.246933	-471.245989	-471.288731	30.511	
N	-0.0738710539	 1.4884946835	 0.1218992534	-0.501461
C	-0.0345169475	 0.04955153	-0.0652952559	-0.077155
C	-1.4510640895	-0.528036075	-0.0925452845	-0.1578
N	-1.3684742361	-1.9560009155	-0.3383588783	-0.368374
C	-0.4409980723	-2.575093419	-1.1172247898	 0.468316
O	-0.4242625078	-3.7455863914	-1.3809829788	-0.365705
O	 0.5480115896	-1.7533862406	-1.641123463	-0.249977
C	 0.6956778092	-0.4211370191	-1.3120271078	 0.381951
N	 1.4221425225	 0.344687645	-2.0004095764	-0.503296
H	 0.8775563099	 1.8250435744	 0.2404119398	 0.248047
H	-0.3838192738	 1.9209604154	-0.7458213277	 0.238212
H	 0.4799110456	-0.3985685654	 0.7956274081	 0.123947
H	-1.9328131474	-0.3527060552	 0.8714649934	 0.138253
H	-2.0479808219	-0.0146627446	-0.8615210091	 0.11868
H	-2.1138506948	-2.5624910592	-0.0369486392	 0.269197
H	 1.830286578	-0.1568869132	-2.7914655343	 0.237164
