13
gdb 20677	3.37783	2.25157	1.3623	2.564	63.18	-0.2516	-0.0673	0.1843	837.568	0.095568	-398.598598	-398.591798	-398.590854	-398.629665	24.849	
C	-0.0265077932	 1.5106703296	 0.0184995493	-0.481745
C	-0.0058112347	 0.0135553314	-0.0092820031	 0.081799
C	-0.0436872607	-0.7092514301	-1.148163106	 0.048649
O	-0.027571229	-2.0526700362	-1.2317040283	-0.228034
N	 0.032593043	-2.8260827252	-0.0836281263	-0.049925
C	 0.0708981279	-2.1927790202	 1.0354990538	-0.043367
C	 0.0582175254	-0.729586203	 1.2404970913	 0.293928
O	 0.0983771021	-0.2315380357	 2.3555337563	-0.354268
H	 0.8669939236	 1.8941813056	 0.5216335027	 0.152681
H	-0.0760252986	 1.9343998984	-0.9876320131	 0.122423
H	-0.8842672751	 1.8685282768	 0.5970673247	 0.152695
H	-0.0923419376	-0.2791311903	-2.1436331617	 0.148952
H	 0.1177776369	-2.831215921	 1.9140293502	 0.156211
