17
gdb 47112	2.58432	1.84275	1.29255	4.957	66.53	-0.2508	0.0014	0.2522	979.7839	0.138867	-459.0084	-459.00118	-459.000236	-459.04115	27.09	
O	 0.2127891727	 0.0769778403	 0.4193596441	-0.329965
C	 0.1243455849	 1.2611520022	 0.2908477105	 0.408727
O	-0.9946740407	 1.9543297858	 0.6278268979	-0.214875
C	-0.8655726653	 3.3554324234	 0.336278509	-0.100656
C	 0.6211328582	 3.6361563009	 0.0437864278	-0.069019
C	 1.4761972358	 4.1438467968	 1.2341083423	-0.237248
C	 2.2376727485	 2.8880444891	 1.6927450768	-0.092845
O	 2.4081773935	 2.1102152045	 0.51091316	-0.237473
C	 1.2099305145	 2.2331383533	-0.2252507363	-0.042181
H	-1.4990580272	 3.582297889	-0.5278804372	 0.121181
H	-1.2481562933	 3.9091199149	 1.1976381865	 0.124328
H	 0.7146564284	 4.302753132	-0.8136817357	 0.095615
H	 2.179880659	 4.9038630066	 0.8855760554	 0.118279
H	 0.874271779	 4.5862906913	 2.0321029959	 0.109627
H	 3.2297196409	 3.0925039704	 2.100329611	 0.11936
H	 1.6619989194	 2.3266423841	 2.4445153129	 0.110875
H	 1.4316651917	 2.0036812555	-1.2701363608	 0.11627
