18
gdb 78825	3.72589	1.31542	1.14957	0.6601	82.35	-0.2086	0.0544	0.263	1101.5949	0.146983	-364.699976	-364.69213	-364.691185	-364.732024	31.211	
C	 0.0065572433	 1.5398077522	 0.0762834455	-0.334389
N	 0.111179952	 0.0902505195	-0.0143534874	-0.076631
C	 0.7726393619	-0.5227858973	-1.1600964045	-0.044067
C	 2.2945742479	-0.6468675025	-0.8721042089	-0.081519
C	 1.2950830702	-1.6588095244	-0.3477582908	-0.093502
C	 1.0740614487	-0.6460559167	 0.8389980229	-0.028541
C	 2.5125340539	-0.0609553005	 0.5305904312	-0.235584
C	 3.5535250925	-0.7285751618	 1.2871853769	 0.324956
C	 4.4050687509	-1.2794010423	 1.9342673693	-0.446598
H	 0.9380374946	 2.0871126609	-0.1365203686	 0.105262
H	-0.7515479465	 1.8826140481	-0.6357486852	 0.122166
H	-0.3327152597	 1.8114370165	 1.0813540216	 0.122812
H	 0.3676138157	-0.50532244	-2.1647373329	 0.098716
H	 3.0335343625	-0.7787368085	-1.6517305351	 0.094801
H	 1.204135493	-2.7301186701	-0.4376289101	 0.10203
H	 0.7838883538	-0.8591760194	 1.8661461378	 0.087426
H	 2.6247172016	 1.0254338705	 0.619921768	 0.091909
H	 5.1638684239	-1.7606963742	 2.4996116702	 0.190753
