16
gdb 71318	3.41426	1.48502	1.18524	1.8225	75.45	-0.2506	0.0429	0.2935	1027.3454	0.122952	-400.610395	-400.60271	-400.601766	-400.642333	30.197	
O	 0.0404296234	 1.3827869901	 0.2055886809	-0.455307
C	 0.1030616334	 0.0100166582	 0.1163804548	 0.343314
C	 0.7763899238	-1.0208003731	 1.0218411212	-0.246405
N	 0.0573210028	-1.9165324392	 0.0181279484	-0.160962
C	-1.1283337508	-0.9196564789	-0.0286340725	-0.04694
C	-1.109751236	-0.9371333054	-1.5733350625	-0.194073
C	-1.6497592003	 0.1758725278	-2.3224873761	 0.299018
C	-2.1092720149	 1.0802001511	-2.9677055025	-0.4394
C	 0.3665247924	-0.9229165607	-1.1213631145	-0.085857
H	 0.9228690613	 1.746372347	 0.0716826943	 0.28638
H	 1.8664840559	-1.1186547132	 0.9857703026	 0.10062
H	 0.4068511717	-1.1291412345	 2.046209322	 0.109469
H	-1.9733468601	-1.0262681476	 0.6523937957	 0.094647
H	-1.4188420227	-1.9007799711	-1.9918961365	 0.113497
H	-2.5130146016	 1.8883587959	-3.5255086776	 0.193778
H	 1.2718347115	-1.0270860166	-1.7216605878	 0.08822
