16
gdb 46123	4.22451	0.94297	0.87872	3.1346	68.92	-0.2623	-0.0422	0.2201	1291.8671	0.12383	-437.919392	-437.911079	-437.910135	-437.953351	29.871	
O	 0.0289324529	 0.1871214707	 0.5910633396	-0.287442
C	 0.0379294689	 1.330102165	 0.2256053219	 0.369348
C	-1.153491891	 2.2907586625	 0.2103632505	-0.185836
O	-0.6940334296	 3.4874604504	-0.389984785	-0.251794
C	 0.7276986464	 3.5745060182	-0.2675240166	 0.100537
C	 1.1345826023	 4.2972902026	 1.038076731	-0.361189
C	 0.5732713765	 5.6420260079	 1.1315446205	 0.271957
N	 0.1409091505	 6.7108446887	 1.2005683434	-0.29676
C	 1.2332799352	 2.1275477635	-0.3055297634	-0.361843
H	-1.9847316106	 1.886039837	-0.3751857766	 0.149524
H	-1.5102626916	 2.4462486019	 1.2403309477	 0.133529
H	 1.0713901498	 4.1673942573	-1.1181238011	 0.116149
H	 0.8118871379	 3.7160583894	 1.9102190726	 0.153938
H	 2.2272892991	 4.3661005828	 1.0892821596	 0.157671
H	 2.1325486821	 1.928921095	 0.2809944708	 0.140974
H	 1.4262202411	 1.807716597	-1.3352814949	 0.151238
