18
gdb 39984	3.67063	1.56555	1.41127	2.3541	74.08	-0.2439	0.0825	0.3264	956.4361	0.149662	-401.886598	-401.879957	-401.879013	-401.917451	27.527	
C	 0.0432187993	 1.5062057521	 0.0044977202	-0.271189
O	 1.2053029116	 0.666071266	-0.0145417241	-0.287931
C	-0.0829768243	 0.0484622651	-0.0089060098	 0.472211
C	-0.461138606	-0.8198060075	 1.1978139824	-0.2523
N	-0.6247160503	-2.1917879335	 0.676694353	-0.097736
C	-1.6518461247	-2.3953199486	-0.3585520343	-0.038642
C	-2.0127146357	-1.1050094511	-1.1071169275	-0.260182
C	-0.4821407852	-0.7882648543	-1.2032965873	-0.147952
C	-0.2083627088	-2.2458506428	-0.7195624303	-0.058702
H	-0.1180319291	 2.0573881911	 0.9306421161	 0.113867
H	-0.1348933492	 2.0778015122	-0.9060519707	 0.112267
H	 0.347379113	-0.8101435822	 1.9342909405	 0.126706
H	-1.3800357742	-0.4854665145	 1.6892600675	 0.11135
H	-2.2665937333	-3.2841462798	-0.2719521837	 0.093467
H	-2.4330040405	-1.3319139978	-2.0897639032	 0.111294
H	-2.65334283	-0.3706627381	-0.6063960377	 0.095854
H	-0.0953502421	-0.4417870257	-2.1593462079	 0.081074
H	 0.5416458395	-2.9505716005	-1.0558506831	 0.096544
