16
gdb 23345	4.1366	0.9564	0.8885	2.3975	70.7	-0.2477	0.0008	0.2484	1318.0881	0.121503	-474.867576	-474.858998	-474.858054	-474.90125	31.152	
C	 0.0045416003	 1.2967060064	-0.2147009283	-0.245593
O	-0.0859478372	 0.0234573218	 0.3953379773	-0.244863
C	-1.3266439479	-0.5666098311	 0.2533126301	 0.181922
C	-1.6418808076	-1.3841853597	-1.0593198792	-0.099516
O	-0.6237593758	-2.3805834677	-0.6199438706	-0.30503
C	-1.3804357953	-2.0710798636	 0.6281881303	-0.093563
C	-2.6318973661	-2.1757195418	-0.2192166428	 0.519005
N	-3.7488939014	-2.7514489486	-0.1788112267	-0.311535
O	-4.4808802245	-2.5368889272	-1.3642831526	-0.394436
H	 0.9973813662	 1.6892479017	 0.0127500422	 0.137966
H	-0.1132126431	 1.2347864887	-1.3057339879	 0.114994
H	-0.7543399992	 1.9886826199	 0.180633974	 0.11139
H	-2.1451392045	 0.066634534	 0.6278162766	 0.085087
H	-1.6628217422	-1.0948508868	-2.1065103191	 0.116867
H	-1.0910848414	-2.574693929	 1.5472119844	 0.116984
H	-5.2831587903	-3.043316027	-1.1969195676	 0.310321
