16
gdb 19885	3.45857	2.23594	2.08205	1.6088	62.45	-0.2347	0.0768	0.3115	735.9369	0.131846	-383.688955	-383.682644	-383.6817	-383.719043	25.769	
O	 0.1789797024	 1.3928529484	-0.0156758464	-0.426389
C	-0.013068884	 0.0132180168	-0.0341805757	 0.098461
C	-0.4613252024	-0.6951083842	 1.2069896427	 0.011052
O	-1.0349952886	 0.1665037495	 2.1721765862	-0.27658
C	-2.3909488075	 0.4358069319	 1.848775386	 0.090138
C	-2.7104625686	 1.4453512351	 0.7767037282	-0.333059
C	-2.6606124696	-0.0384237667	 0.4476282126	-0.070075
C	-1.3747061649	-0.6899785743	-0.0080144655	-0.132727
H	 0.1542267204	 1.6556174275	 0.9144285682	 0.295653
H	 0.7298301294	-0.4947934542	-0.6458542415	 0.102614
H	 0.0493191077	-1.5525456622	 1.634745784	 0.096413
H	-3.0612001467	 0.2897158308	 2.6896341793	 0.101177
H	-3.6989736814	 1.8907322401	 0.8327642631	 0.110228
H	-1.938665158	 2.0896347458	 0.3836717019	 0.145161
H	-3.5783808941	-0.5523010711	 0.1881208972	 0.094263
H	-1.4656726539	-1.5669175433	-0.6381526704	 0.09367
