17
gdb 32884	4.34927	0.84076	0.71134	1.8096	71.56	-0.1987	0.0163	0.2151	1526.6034	0.136333	-455.171376	-455.162268	-455.161324	-455.206426	32.569	
N	-0.0065579737	 1.2739274441	 0.5014176271	-0.598463
C	-0.0639319508	-0.0614456072	 0.1179362792	 0.257696
C	-0.9571910741	-0.7334491263	-0.6539766571	-0.128513
O	-0.5861505305	-2.065307161	-0.6464815468	-0.185126
C	 0.5122716445	-2.1136241128	 0.1298144771	 0.415037
C	 1.1627852617	-3.4376704419	 0.3336008653	-0.308742
C	 2.3645727855	-3.3595012271	 1.2680959791	-0.07165
O	 2.887276021	-4.6754432686	 1.3708934071	-0.422027
N	 0.8718244739	-0.9610065874	 0.6109286555	-0.357568
H	 0.9317039111	 1.5418261357	 0.7667899671	 0.253457
H	-0.3878391502	 1.91613899	-0.1789529759	 0.247229
H	-1.8317378054	-0.4761254897	-1.2229299542	 0.129615
H	 0.4333639578	-4.1494197557	 0.7382627176	 0.136631
H	 1.4817572585	-3.8480639534	-0.6323826302	 0.135576
H	 3.1046920597	-2.6562980448	 0.8610182307	 0.103693
H	 2.048611325	-2.967439069	 2.2450986125	 0.10531
H	 3.6435120158	-4.6496668549	 1.9637663157	 0.287843
