21
gdb 109097	3.1562	1.08898	0.84373	1.9391	90.29	-0.2007	-0.0119	0.1888	1390.9498	0.183846	-387.102614	-387.093585	-387.092641	-387.136796	34.046	
O	 0.1322515349	 1.4277400061	-0.0284499351	-0.41184
C	 0.0189431595	 0.0198398972	-0.0214938513	-0.148974
C	-1.4209639822	-0.4221025954	 0.028444627	 0.233555
C	-2.422587824	 0.469191541	-0.0092891236	-0.140588
C	-3.862978771	 0.2398227914	 0.0563091133	-0.063287
C	-4.5817573469	-0.8912121149	-0.0202295372	-0.07388
C	-4.1226532255	-2.3031709517	-0.2482805397	-0.249295
C	-2.6995351799	-2.497684836	-0.778923022	-0.201248
C	-1.5931902823	-1.9191248495	 0.1205000633	-0.292889
H	 1.0637690089	 1.6523826459	-0.0992635971	 0.289343
H	 0.4891361704	-0.4224334292	-0.9197493456	 0.093326
H	 0.5509320717	-0.4194124608	 0.8430746429	 0.092969
H	-2.1312711078	 1.5133784499	-0.0607900734	 0.102139
H	-4.4364546111	 1.1541816744	 0.1995498104	 0.078585
H	-5.6602621233	-0.789392765	 0.090472676	 0.081679
H	-4.2453293439	-2.8703530329	 0.687738386	 0.107062
H	-4.8214515865	-2.7787125374	-0.9512473213	 0.102326
H	-2.5290021033	-3.5735833451	-0.9017556955	 0.091175
H	-2.6155971752	-2.0518664208	-1.7764751606	 0.106043
H	-0.6402730196	-2.3982453832	-0.1394745668	 0.091191
H	-1.787232603	-2.2040798939	 1.1648214805	 0.112608
