15
gdb 123633	4.19305	1.58962	1.38754	2.8062	70.48	-0.2407	-0.0056	0.2351	905.7847	0.116982	-416.740037	-416.734276	-416.733332	-416.770066	23.983	
C	-0.0500167509	 1.5775300591	-0.0550516243	-0.20338
C	 1.5012261182	 1.3646144567	 0.0235236233	-0.172212
N	 1.156287633	 0.2079029347	 0.940197743	-0.297506
C	-0.0190321252	 0.0112697576	 0.0070412516	-0.139522
C	 0.6815431559	-0.2844581886	-1.3063470761	 0.409973
N	 0.6612843904	-1.0574201907	-2.3451436362	-0.281731
O	 1.7780973558	-0.6204169856	-3.1034727404	-0.188299
C	 2.3981852623	 0.4041822267	-2.4495292372	-0.146375
C	 1.7519932921	 0.6647816001	-1.2994460403	 0.220876
H	-0.4501657335	 2.0061380917	 0.8642647563	 0.124481
H	-0.4604644161	 2.0514569781	-0.9467239662	 0.117133
H	 2.1857511102	 2.1220401734	 0.3981118752	 0.088251
H	 1.8345849929	-0.553171752	 0.8814293666	 0.220394
H	-0.8545104804	-0.5952441811	 0.3470632214	 0.098231
H	 3.2658224353	 0.80176374	-2.9520470068	 0.149686
