23
gdb 91939	2.06703	1.70227	1.29763	1.7971	83.94	-0.2524	0.0762	0.3286	1133.5963	0.205309	-388.293793	-388.284602	-388.283658	-388.327078	36.515	
C	 0.1224839905	 1.6004168816	-0.1177095193	-0.413413
C	 0.0866389605	 0.077589913	 0.0091884582	 0.01459
C	 0.656461491	-0.6660528648	-1.2307388695	-0.262306
C	 1.19348255	-1.9780122773	-0.6863298401	 0.026168
O	 2.4614546208	-1.8255903095	-0.0349245849	-0.257603
C	 1.2843567934	-1.8977192853	 0.778273168	 0.022676
C	 0.7806334457	-0.5392191446	 1.2858105513	 0.249278
C	 1.9584997695	 0.295132182	 1.8173694798	-0.421866
C	-0.2514053433	-0.7505573149	 2.4048244618	-0.440346
H	 1.1451299954	 1.9728000787	-0.234336453	 0.121744
H	-0.4479166317	 1.9236642723	-0.995219568	 0.111211
H	-0.3170506864	 2.0924432541	 0.756704705	 0.112759
H	-0.9680976174	-0.2190022174	 0.0826096407	 0.069938
H	-0.116566454	-0.8229562445	-1.9897029945	 0.097414
H	 1.4711120598	-0.1072221281	-1.7054779176	 0.109912
H	 1.0623680997	-2.91278314	-1.2266091733	 0.091437
H	 1.2303666143	-2.7693925465	 1.4290224228	 0.084107
H	 2.7196680606	 0.443070051	 1.0487245798	 0.13032
H	 1.6217177912	 1.273467606	 2.1730988773	 0.107514
H	 2.4359232861	-0.2171835549	 2.6598065155	 0.108075
H	 0.2179336682	-1.1612787382	 3.3055783026	 0.112079
H	-0.7261762932	 0.1966517921	 2.6823267138	 0.115509
H	-1.0437542506	-1.4403985946	 2.0928548735	 0.110805
