18
gdb 59010	3.63317	1.08646	0.89757	2.3391	73.5	-0.2683	-0.0199	0.2484	1309.6768	0.146866	-439.15301	-439.144161	-439.143216	-439.187	32.28	
C	-0.0193647058	 1.599171316	 0.6613012761	-0.382859
C	-0.1398285088	 0.2325201595	-0.0186348816	-0.08547
C	 0.8544530525	-0.7960996059	 0.55864848	-0.395284
C	-1.5379608752	-0.2966430742	 0.064031008	 0.435695
N	-2.519421606	 0.1740178075	 0.7191341243	-0.301342
C	-3.6406539373	-0.7211054322	 0.4661424853	-0.317509
C	-3.096891824	-1.7957509714	-0.4677838607	 0.402287
O	-3.6020450972	-2.749528857	-0.9686613847	-0.310753
O	-1.7645745656	-1.4534132832	-0.6714136579	-0.238624
H	 0.9993588136	 1.9811874866	 0.5493745712	 0.113387
H	-0.7134756606	 2.322684142	 0.2275399498	 0.129294
H	-0.2456850098	 1.5233989321	 1.7282742055	 0.134061
H	 0.0807577506	 0.3387885949	-1.0898453514	 0.108839
H	 0.7555215594	-1.7658690554	 0.0655160043	 0.139294
H	 1.8792443748	-0.4407597313	 0.4196218859	 0.123646
H	 0.6861472923	-0.934812176	 1.6316375714	 0.126964
H	-4.0170041342	-1.1705365935	 1.3915849868	 0.159143
H	-4.4813192488	-0.1956031985	 0.0001831177	 0.159234
