20
gdb 89637	4.70683	1.02501	0.96903	2.0202	79.5	-0.2394	0.0757	0.315	1294.2651	0.171041	-403.088065	-403.079582	-403.078638	-403.121233	32.519	
C	 0.0020754438	 1.5871843371	 0.150148506	-0.403885
C	 0.0196684592	 0.0654955849	 0.1504009481	 0.009986
C	 0.7526241285	-0.6785276882	-1.0304086935	-0.325366
C	 1.6778337103	-1.3335572014	 0.0094938238	 0.438759
O	 2.3301013025	-0.2613649843	 0.7096493989	-0.294968
C	 0.9967149349	-0.6308948103	 1.1144851254	-0.063434
C	 2.3851180101	-2.6348352643	-0.0604730799	-0.141745
C	 3.8335133515	-2.6648011363	-0.3967432063	-0.236426
N	 3.3761832919	-2.9751149603	 0.9686819608	-0.322258
H	 1.0207357101	 1.9783761326	 0.0779643702	 0.133337
H	-0.574317799	 1.9741431887	-0.6967086472	 0.115302
H	-0.4504406631	 1.9782670244	 1.0680292546	 0.114515
H	-0.9899424832	-0.3378885078	 0.278560197	 0.079392
H	 0.1058368638	-1.3904620332	-1.5487867695	 0.108139
H	 1.2644299778	-0.0487510771	-1.762707189	 0.108385
H	 0.8643686141	-0.9022985158	 2.1563591235	 0.102817
H	 1.759636066	-3.4675578495	-0.3757231197	 0.093771
H	 4.2422381745	-3.5059696652	-0.9490097987	 0.118501
H	 4.3270633203	-1.7126535614	-0.5695563183	 0.123536
H	 3.5183130759	-2.1468505628	 1.5452193639	 0.241641
