25
gdb 104404	1.97088	1.45037	1.19546	1.5086	88.11	-0.2364	0.0775	0.3138	1262.1934	0.228182	-389.515321	-389.504939	-389.503995	-389.550553	39.305	
C	 0.403903832	 1.5869093249	 0.1318575614	-0.39188
C	 0.2452770562	 0.0664604206	 0.02434219	-0.199658
C	 0.6082112505	-0.5123026553	-1.3625629962	 0.398351
C	-0.3567593563	-0.0265524746	-2.4460020712	-0.433691
O	 1.928188488	-0.0495173305	-1.7219658314	-0.307851
C	 2.8952819089	-1.0915416789	-1.6117187764	-0.074826
C	 2.1971949114	-2.2655325703	-0.9216552465	-0.248664
C	 0.7366129866	-2.0623491317	-1.3513722622	-0.004365
C	-0.2924248812	-2.8401295315	-0.5323666138	-0.420761
H	 1.4077711782	 1.8869292365	-0.1782847262	 0.133075
H	-0.3165654606	 2.1200928519	-0.495892717	 0.112716
H	 0.2462758654	 1.9181212764	 1.1629748801	 0.104035
H	 0.8859710609	-0.4065736812	 0.7784107457	 0.088113
H	-0.7845407967	-0.2175838043	 0.2721283118	 0.09108
H	-0.3593743146	 1.0639452056	-2.5139679298	 0.123857
H	-0.0571222303	-0.4215500725	-3.4208462534	 0.11301
H	-1.3797333832	-0.3574276122	-2.2361081908	 0.108662
H	 3.2413245544	-1.3752107579	-2.6170606734	 0.090476
H	 3.7630406945	-0.7183656462	-1.0552980238	 0.097674
H	 2.6001798064	-3.2351807176	-1.2263006757	 0.098285
H	 2.2916192027	-2.1955106883	 0.1678360115	 0.102431
H	 0.6522214245	-2.3871969748	-2.3974213422	 0.071139
H	-0.2185170858	-2.6171385235	 0.5363052104	 0.11936
H	-1.3155002565	-2.6162273282	-0.8531640957	 0.116357
H	-0.1404463055	-3.9175330364	-0.654530005	 0.113073
