15
gdb 47979	5.49404	0.71361	0.67052	3.3881	83.11	-0.2614	-0.0711	0.1903	1616.564	0.110672	-420.562236	-420.553878	-420.552933	-420.596418	29.508	
O	-0.2293769127	 0.1430666473	 0.4802654465	-0.231
C	 0.0818899758	 1.0354626245	-0.2760015618	-0.000302
C	 1.2670235375	 1.8388770564	-0.1426916153	 0.22786
C	 2.2517804325	 2.5380941292	-0.0687377263	-0.101904
C	 3.4273240443	 3.31240246	 0.0791973552	 0.254178
C	 4.6435561302	 3.0657740845	 0.9942440581	-0.317157
C	 4.8300508367	 4.6185154449	 1.100579515	-0.242796
C	 3.6229758502	 4.7898276603	 0.1715410951	-0.043371
O	 3.8991630065	 4.0962386208	-1.0355775801	-0.27092
H	-0.5455395934	 1.3018759037	-1.1505746004	 0.104313
H	 4.3692507936	 2.6069700429	 1.9452674711	 0.130255
H	 5.4482345353	 2.4976086429	 0.5246536858	 0.124301
H	 4.6497483305	 4.9919181651	 2.1105155684	 0.119723
H	 5.7628696859	 5.0345499623	 0.7148028156	 0.124148
H	 2.8874264971	 5.5853523451	 0.131647593	 0.122673
