20
gdb 91235	3.43169	1.16367	1.00539	3.8455	78.97	-0.2423	0.036	0.2783	1237.6686	0.172812	-403.192633	-403.18437	-403.183426	-403.225717	31.959	
C	-0.085518454	 1.5607754437	 0.0252301306	-0.405604
C	 0.0675740338	 0.0417305321	 0.0084003235	 0.057751
C	 0.9168092963	-0.5064379975	-1.1615994896	-0.240862
C	 1.2955767163	-1.9369657094	-0.7299309535	 0.028163
N	 2.7227251718	-2.2504876826	-0.5725523233	-0.328891
C	 2.7256322181	-2.2353379286	 0.8036409138	 0.416559
O	 3.598482287	-2.3664737895	 1.619223886	-0.365021
C	 1.1991930553	-1.9583829711	 0.833144702	-0.183095
C	 0.7491560189	-0.5499843807	 1.2651280448	-0.240873
H	 0.8921558335	 2.0503985045	 0.1042512423	 0.116498
H	-0.5684537557	 1.9235860704	-0.8882516922	 0.113697
H	-0.6927556201	 1.8897180485	 0.8750394069	 0.116138
H	-0.932615042	-0.4085828742	-0.0694897117	 0.075131
H	 0.3828355649	-0.4743750954	-2.1159193128	 0.0981
H	 1.8265539009	 0.0958576121	-1.2729952897	 0.099983
H	 0.7423309871	-2.7122691468	-1.2671565462	 0.083351
H	 3.4832069927	-2.2796437028	-1.2363496875	 0.245417
H	 0.6124171144	-2.7682275693	 1.2685364884	 0.096557
H	 1.61583833	 0.0617993603	 1.5435171526	 0.112079
H	 0.0818932807	-0.5673783337	 2.1306972854	 0.10492
