24
gdb 118110	2.54983	0.86703	0.7045	2.5274	86.4	-0.2203	0.0781	0.2984	1678.0295	0.215394	-405.510819	-405.4998	-405.498856	-405.547478	39.879	
C	-0.2167953494	 1.796069741	-0.2706981142	-0.396439
C	 0.0080088808	 0.2951523059	-0.0188834495	-0.011057
C	-1.3115831368	-0.4814210172	 0.1484213743	-0.16852
C	-2.1456407914	-0.07024751	 1.356407049	-0.086774
O	-3.2406441116	-0.9712742436	 1.4449979689	-0.420559
C	 0.8132779123	-0.2880703027	-1.1708626152	 0.032519
C	 2.29827744	-0.1635099182	-1.2285253594	-0.266928
N	 1.67131703	-1.4717023894	-1.0792435142	-0.090775
C	 1.8549737391	-2.1642408757	 0.1867466859	-0.315832
H	 0.7372636982	 2.3154093664	-0.4022443109	 0.116659
H	-0.8097195202	 1.9536943223	-1.1794828924	 0.116286
H	-0.7459304729	 2.2750567423	 0.5581278967	 0.113479
H	 0.5886320856	 0.1930068536	 0.9065362692	 0.06985
H	-1.9228041471	-0.3712385764	-0.7567095995	 0.102662
H	-1.097511646	-1.5513884503	 0.2465135193	 0.112957
H	-1.52383956	-0.109722155	 2.2671615477	 0.081109
H	-2.4996239924	 0.9661575131	 1.2491466077	 0.086934
H	-3.8015453685	-0.6913711122	 2.1740858381	 0.284613
H	 0.2739604676	-0.2487608537	-2.119119067	 0.084377
H	 2.8166513034	 0.0207000234	-2.1664537393	 0.110284
H	 2.7859396449	 0.2657689839	-0.3520397815	 0.098649
H	 1.9186528117	-1.509366296	 1.0704417819	 0.098225
H	 1.0335824341	-2.8713116658	 0.3413599145	 0.12594
H	 2.7858617586	-2.7383341856	 0.1337758998	 0.12234
