20
gdb 16441	3.94535	1.8622	1.65999	0.286	78.02	-0.2264	0.0873	0.3136	886.9568	0.178236	-311.822022	-311.814901	-311.813957	-311.852754	29.255	
C	-0.0155712006	 1.5536891255	 0.0464090276	-0.5005
C	 0.038318476	 0.0524683312	 0.0140769889	 0.368352
C	-0.8644701731	-0.8121818705	 0.8479904125	-0.343728
C	 0.6252354464	-0.9514965084	 1.0240011031	-0.107154
C	 1.2791506108	-1.752708048	-0.1221934635	-0.004262
C	 0.490234538	-2.9217401515	-0.7892029042	-0.241151
C	-0.1161990847	-1.9145983295	-1.8228993796	-0.245077
C	 0.6765413885	-0.7533124792	-1.1498673684	-0.06818
H	 0.9498250738	 1.9964507566	-0.2257309165	 0.113391
H	-0.7652747391	 1.9408347782	-0.6555065654	 0.116884
H	-0.28057892	 1.9189395373	 1.0444718625	 0.11421
H	-1.3623516681	-0.2862757524	 1.6578770268	 0.104337
H	-1.4691146951	-1.6076179538	 0.4224290886	 0.107213
H	 1.0902505404	-0.7618955619	 1.9855929921	 0.076747
H	 2.3585274432	-1.8729012152	-0.0250086136	 0.062185
H	 1.1386606233	-3.6721148022	-1.2482990573	 0.095564
H	-0.2242402286	-3.4410386768	-0.1449216409	 0.098506
H	 0.1992463186	-2.1099267954	-2.8508597165	 0.095662
H	-1.205086024	-1.8145699899	-1.8176573108	 0.09776
H	 1.3221738241	-0.1529224542	-1.7928769857	 0.05924
