15
gdb 14079	3.93671	1.62878	1.35847	3.0329	63.62	-0.2692	0.0028	0.272	925.6372	0.117892	-399.774251	-399.766782	-399.765838	-399.806052	27.296	
C	-0.0532955116	 1.5054373202	-0.1165569037	-0.420615
C	-0.0050317264	 0.0075372611	 0.0213567054	-0.011328
O	 1.2873891119	-0.619014013	-0.0807928865	-0.27068
C	 0.6320158476	-0.657983694	 1.1614151212	 0.278476
C	 1.1726602001	-0.143732461	 2.4955242954	-0.161161
O	 0.6788151631	-1.3675186116	 3.1291867602	-0.264892
C	 0.2377740525	-1.8929985738	 1.9234281375	 0.378614
N	-0.2951204326	-2.9890104706	 1.6416263708	-0.548456
H	 0.764244094	 1.9784775393	 0.4338036055	 0.128241
H	 0.0307337546	 1.7939089353	-1.16903114	 0.140812
H	-1.0048316112	 1.8921482046	 0.2632125393	 0.132216
H	-0.7929024702	-0.5507641652	-0.4847714837	 0.121836
H	 2.2611648156	-0.0739614166	 2.559935575	 0.135632
H	 0.6969284704	 0.7424619967	 2.9226167449	 0.126774
H	-0.4019753178	-3.5838582813	 2.4645931587	 0.234532
