18
gdb 107587	2.72048	1.58391	1.14039	3.0095	73.18	-0.262	0.0065	0.2685	1097.0203	0.147886	-439.090104	-439.081841	-439.080897	-439.123015	31.124	
C	-0.4186915312	 1.4835665045	-0.2155847185	-0.386936
C	 0.1503477509	 0.0905075991	 0.0864904921	-0.288635
C	 0.891514082	-0.4969403884	-1.0828528161	 0.331581
O	 0.1095253318	-0.8707575727	-2.2464015878	-0.288578
C	 0.8388127964	-1.8864318911	-1.5644776424	-0.055887
C	 2.154041282	-2.1853268149	-2.2438436677	-0.11817
O	 2.854360566	-0.9287372134	-2.2879353439	-0.251745
C	 2.2354402324	 0.0145861906	-1.5154584853	 0.393077
N	 2.7312126102	 1.1331099793	-1.2032559923	-0.541891
H	 0.3863321306	 2.1818870973	-0.4530694948	 0.157171
H	-1.1043778585	 1.4401189914	-1.066899005	 0.128021
H	-0.9709040646	 1.8649312892	 0.648085823	 0.109231
H	 0.8369615917	 0.1412966043	 0.9387032079	 0.116677
H	-0.6584530707	-0.5962242385	 0.359242213	 0.103708
H	 0.2618813471	-2.6691828084	-1.0804986147	 0.111648
H	 2.7473289784	-2.9098644468	-1.6733811356	 0.119897
H	 2.0315653473	-2.5446550936	-3.2697860744	 0.133977
H	 3.6719575182	 1.2326946422	-1.5890003076	 0.226854
