18
gdb 59038	2.79883	1.32686	1.07867	3.6823	76.62	-0.2521	-0.034	0.218	1165.812	0.148249	-439.115395	-439.106957	-439.106013	-439.148517	31.993	
C	 0.123817851	 1.5341285355	 0.1758834518	-0.402604
C	-0.0426102167	 0.0133949936	 0.0249362465	 0.012822
O	-1.4065912192	-0.3600901321	-0.0296892994	-0.438585
C	 0.7022678606	-0.497369137	-1.1855971817	 0.275754
C	 1.8905358763	-1.0949323715	-1.2985859183	-0.244267
C	 2.1780283765	-1.3753288737	-2.743021755	-0.137957
O	 1.0283145742	-0.8829237152	-3.4444573756	-0.23954
C	 0.1418912468	-0.3670313922	-2.5451886006	 0.384971
N	-0.9896606478	 0.1339791422	-2.8343262091	-0.583717
H	 1.1741588582	 1.8076601467	 0.3214167914	 0.106704
H	-0.2498978077	 2.0480406505	-0.7146404936	 0.133954
H	-0.4531288086	 1.8727163011	 1.0406967588	 0.124941
H	 0.367870717	-0.4771090453	 0.9155246807	 0.087676
H	-1.7307677487	-0.07740101	-0.9013054029	 0.299125
H	 2.5732823347	-1.3549551587	-0.5000072315	 0.122398
H	 3.0709259062	-0.8567652829	-3.1158903475	 0.133632
H	 2.2937565254	-2.4449258153	-2.9609407495	 0.135579
H	-1.1710397482	 0.1083684242	-3.8370809546	 0.229112
