22
gdb 117222	3.71517	0.80281	0.72114	3.0052	84.66	-0.2402	0.016	0.2562	1681.3104	0.191994	-404.36353	-404.352974	-404.35203	-404.40042	37.36	
C	-0.0763491211	 1.4488240349	-0.1633687405	-0.387194
C	-0.0472763621	-0.080600284	-0.1178299159	-0.153626
C	-1.4401863311	-0.6908095005	 0.0455425107	-0.288468
C	-1.4284851044	-2.2142513868	 0.0463923239	 0.37701
O	-0.4679201816	-2.8777054792	-0.2845715208	-0.353046
N	-2.5870180944	-2.7967517896	 0.5451499511	-0.082915
C	-3.954513835	-2.5955587297	 0.1155690392	-0.262351
C	-3.2845325943	-3.9414009641	 0.0069972481	 0.018964
C	-2.9121606642	-4.5165522079	-1.3393815262	-0.401329
H	 0.9315889727	 1.8594749431	-0.2768723474	 0.114819
H	-0.6793062057	 1.8124034947	-1.0034956859	 0.110367
H	-0.5044497475	 1.8684848873	 0.7540837518	 0.111962
H	 0.4095420263	-0.4817333037	-1.0277071398	 0.1163
H	 0.5892014448	-0.420099107	 0.7069454467	 0.109601
H	-1.9238556782	-0.3419799585	 0.9660143343	 0.119562
H	-2.0964704115	-0.359549874	-0.7727901874	 0.114193
H	-4.683303239	-2.3998030546	 0.8984541059	 0.122758
H	-4.1240070812	-2.0526126097	-0.8126600327	 0.122164
H	-3.5483026508	-4.6811489529	 0.7619981749	 0.100862
H	-2.7662234877	-3.7287112706	-2.0839172387	 0.12048
H	-1.9804172236	-5.0835989824	-1.27261561	 0.151717
H	-3.7052706306	-5.1829131446	-1.693435111	 0.118169
