19
gdb 119109	1.87947	1.105	0.7536	2.4676	82.42	-0.2437	0.0341	0.2778	1571.4079	0.155366	-422.962977	-422.952348	-422.951404	-423.000826	35.935	
C	 0.2565369586	 1.3982433515	 0.1176292607	-0.222127
O	 0.3064837076	-0.0079079469	 0.1285462411	-0.225447
C	 0.5198710772	-0.5550224925	-1.1482661446	-0.126328
C	 0.5239505927	-2.0657247593	-1.0463750458	 0.194462
C	 1.3577003779	-2.8303670663	-1.9981984909	-0.217981
O	 1.7876016396	-2.6422876537	-0.6575049828	-0.258721
C	-0.6544177647	-2.6748852969	-0.479727842	 0.031846
C	-1.6501499535	-3.1709752521	-0.0196397052	 0.117214
C	-2.8458171336	-3.7723611141	 0.5503032955	-0.503361
H	 1.2008842512	 1.8390095823	-0.2397205483	 0.105065
H	-0.5597901671	 1.7734169073	-0.5204774536	 0.10301
H	 0.081393488	 1.7254194825	 1.1450284926	 0.130682
H	-0.2752404063	-0.239617265	-1.8462090846	 0.091617
H	 1.4865481719	-0.2268132186	-1.563354644	 0.091832
H	 1.0538107875	-3.8413568789	-2.2625852769	 0.120706
H	 1.9285676208	-2.2968013112	-2.7584480685	 0.11143
H	-2.5861000868	-4.5902614286	 1.231249967	 0.154883
H	-3.4256327798	-3.0377197262	 1.1194792798	 0.152942
H	-3.4979366012	-4.1829413132	-0.2285446497	 0.148275
