22
gdb 30682	3.5836	0.94857	0.81537	1.7589	88.79	-0.1989	0.0516	0.2504	1487.686	0.195078	-367.258927	-367.249385	-367.248441	-367.293829	36.09	
C	-0.100504404	 1.5989643187	 0.267067809	-0.390563
C	-0.1188700622	 0.0682579034	 0.2099883123	-0.154362
C	-1.4858339488	-0.5523813123	-0.1689677545	-0.08243
C	-1.9210731259	-0.1624041157	-1.5888686617	-0.399777
C	-1.4600409439	-2.0486230004	 0.0290891409	 0.285338
C	-1.4275398047	-3.0277999661	-0.9413950649	-0.185809
N	-1.3830170747	-4.2513844328	-0.3183987422	-0.242158
C	-1.3888893218	-4.0784584588	 1.0411744512	-0.075996
C	-1.4347943326	-2.7275381409	 1.286959729	-0.247988
H	 0.8721754354	 1.9641502054	 0.6121970397	 0.108859
H	-0.2899219252	 2.0518272093	-0.7111414593	 0.115166
H	-0.8607041109	 1.9779331153	 0.9602343926	 0.110173
H	 0.6354542543	-0.2896674061	-0.5033347861	 0.091128
H	 0.1796389227	-0.3301793399	 1.1864988513	 0.096315
H	-2.2278818891	-0.1393737888	 0.5308250023	 0.070523
H	-2.0390725473	 0.9199099083	-1.6882111364	 0.109689
H	-1.1787174265	-0.4821917108	-2.3298110974	 0.109768
H	-2.8765923263	-0.6286661052	-1.8470446394	 0.113259
H	-1.4388450796	-2.9585296906	-2.0167617765	 0.111452
H	-1.36261897	-5.1379913172	-0.789658414	 0.257713
H	-1.3656033235	-4.9234471441	 1.7105354414	 0.114411
H	-1.4560732755	-2.2642724205	 2.2624752527	 0.085289
