19
gdb 75289	2.7558	1.732	1.33781	1.6666	79.88	-0.2271	0.0325	0.2596	1016.9354	0.160149	-385.865468	-385.857963	-385.857018	-385.897241	29.903	
C	-0.0007106201	 1.5081484534	 0.0406068258	-0.497382
C	-0.0020286859	 0.0117820632	 0.0018741456	 0.351996
C	-0.005442033	-0.7678862547	-1.0841000991	-0.153496
C	 0.0174701936	-2.2527625076	-0.7933367101	-0.27782
C	 0.0487078911	-2.3123945269	 0.7497938835	-0.057687
C	 1.4122543679	-2.4869448152	 1.4520275659	 0.012894
O	 2.3197874696	-1.5262572676	 0.9034915584	-0.233988
C	 1.4161465152	-1.0923815118	 1.9226041045	 0.016204
C	 0.03560092	-0.8238307231	 1.2527028034	-0.167614
H	 0.9011041789	 1.8908419162	 0.5354918078	 0.128396
H	-0.0402472023	 1.9376797316	-0.9641330857	 0.122779
H	-0.856308865	 1.8941196284	 0.6098900256	 0.119101
H	-0.0119909821	-0.3876485766	-2.101739465	 0.08187
H	-0.8605029206	-2.7625115862	-1.210206966	 0.097985
H	 0.8983113289	-2.7333681886	-1.2379309277	 0.112418
H	-0.7277808881	-2.9408597861	 1.1891936497	 0.07514
H	 1.8464529235	-3.3819941964	 1.8839602613	 0.098757
H	 1.8498294618	-0.6416058729	 2.808336462	 0.099355
H	-0.7349711534	-0.5799996593	 1.99143816	 0.071094
