19
gdb 105413	1.9283	1.45762	0.98852	3.6472	72.18	-0.2724	-0.0015	0.2709	1251.0485	0.157296	-460.161724	-460.152424	-460.15148	-460.196157	33.438	
C	 0.0797042967	 1.5426621251	 0.046441885	-0.391887
C	-0.0786875955	 0.0300899834	-0.1376504907	-0.240603
C	 0.729478194	-0.5255947189	-1.2981124352	 0.363983
C	 2.27408107	-0.5496587071	-1.1753697243	-0.130118
O	 2.3141842349	-1.9552680483	-1.5027365142	-0.270824
C	 0.8770379889	-2.0618341863	-1.413911832	-0.135253
O	 0.2218443574	 0.1209844092	-2.4788114079	-0.242619
C	 0.753712049	-0.1621264734	-3.6883940845	 0.139345
O	 0.356397711	 0.3603869353	-4.6871019136	-0.276169
H	 1.1218135574	 1.8128590411	 0.2501470986	 0.117511
H	-0.2394424004	 2.078495003	-0.8502413716	 0.14725
H	-0.5230351385	 1.8927259064	 0.888792913	 0.12108
H	 0.2308707598	-0.4974738407	 0.771667443	 0.105214
H	-1.1329854125	-0.2193885744	-0.306686634	 0.117808
H	 2.8328008134	 0.0654335704	-1.8886385138	 0.120896
H	 2.6437587895	-0.3541663508	-0.1608878336	 0.111259
H	 0.5596365723	-2.6099163726	-0.5180481233	 0.110962
H	 0.4327320604	-2.526882453	-2.3004688513	 0.120146
H	 1.5678110222	-0.9064163984	-3.6566732796	 0.112018
