15
gdb 66695	3.11496	1.84959	1.52235	4.827	67.18	-0.2459	-0.0176	0.2283	885.0715	0.112947	-416.758892	-416.752208	-416.751264	-416.78986	26.484	
C	 0.0264432544	 1.5368834086	 0.0502613144	-0.51769
C	 0.042774252	 0.0458318875	-0.0063908068	 0.323788
C	 0.4421657725	-0.8609801776	-1.2378312904	-0.126226
C	 0.9006206603	-1.9154379376	-0.3164994815	-0.071093
C	 0.4975727081	-1.0206078463	 0.9091216181	-0.142118
N	-0.9535809327	-0.7656715543	 0.7374638763	-0.207946
C	-1.4343991127	-1.774614465	-0.1842658949	 0.436848
O	-2.5242834062	-2.2438123127	-0.2048542769	-0.295441
N	-0.3468342007	-2.1040346192	-1.0892303906	-0.1717
H	 0.9969087481	 1.9437933622	-0.2529756695	 0.130994
H	-0.7369321433	 1.9441831652	-0.6216626665	 0.138498
H	-0.192604194	 1.8788187583	 1.0644573073	 0.146912
H	 0.7658073503	-0.5526067993	-2.2222336645	 0.117943
H	 1.6821232905	-2.6584299214	-0.3825913524	 0.12008
H	 0.9204108833	-1.0089086585	 1.904013208	 0.117151
