16
gdb 50252	2.40511	1.71051	1.27357	4.3796	68.87	-0.2485	-0.0267	0.2218	1000.3122	0.124366	-437.896687	-437.888918	-437.887974	-437.929653	28.718	
O	-0.6997012562	 0.8885399148	-0.4661002413	-0.243871
C	 0.2160049953	 0.9393022747	 0.315056834	 0.152675
C	 1.3739860119	 1.9003893128	 0.1984851916	-0.093085
C	 1.2826978876	 3.0223740562	-0.8688246959	-0.262056
C	 1.4051895608	 4.0939811028	 0.2504756676	 0.023368
N	 0.1471778097	 4.5033495	 0.8770984303	-0.319818
C	 0.1304460375	 3.4981028397	 1.8266934184	 0.438517
O	-0.6762417946	 3.1680231709	 2.6521270094	-0.359818
C	 1.5030404917	 2.9768823936	 1.3416622196	-0.228743
H	 0.2615322117	 0.2614900687	 1.1956134492	 0.091356
H	 2.2939395073	 1.309520067	 0.1313199919	 0.108563
H	 2.1203529435	 3.0260304573	-1.5689132086	 0.112992
H	 0.3458611541	 3.0356788512	-1.4282083326	 0.129661
H	 2.1419068954	 4.8891849106	 0.1366737004	 0.094789
H	-0.6317508863	 5.0215934277	 0.4926713118	 0.252795
H	 2.3087494806	 2.879539662	 2.0653174842	 0.102677
