19
gdb 66923	2.1911	1.94487	1.52602	0.8616	73.52	-0.2175	0.0655	0.283	975.1399	0.157192	-422.956038	-422.947584	-422.94664	-422.98823	33.59	
C	 0.030143656	 1.5613052598	-0.0694716248	-0.469343
C	 0.0138597918	 0.0372872757	-0.0049193136	 0.244409
C	-1.3735377669	-0.5378754622	-0.2867257838	-0.444663
C	 1.1266532185	-0.7238342413	-0.8026868878	 0.028339
O	 2.3767891838	-0.0876848478	-0.4014521926	-0.290119
C	 2.1791068785	-0.7168830335	 0.8649232342	-0.012563
C	 1.242212766	-1.7701682928	 0.3675028441	-0.198348
C	 0.6739000699	-0.6439110044	 1.2092941874	 0.313591
O	 0.1751786918	-0.7683730972	 2.4881253824	-0.461402
H	 1.0465265888	 1.9438857862	 0.0432718405	 0.131656
H	-0.3684502443	 1.9206933606	-1.0251127317	 0.111569
H	-0.5966248624	 1.987368445	 0.722998705	 0.106674
H	-1.7482870798	-0.1921660046	-1.2566119775	 0.10992
H	-1.3645202415	-1.6324090971	-0.293590962	 0.117745
H	-2.0866105971	-0.2188546551	 0.4805143498	 0.121977
H	 1.0504812169	-0.9129644315	-1.8721020835	 0.082265
H	 2.982211666	-0.7374316344	 1.5905484635	 0.110486
H	 1.2146243797	-2.8479552262	 0.4369821228	 0.106303
H	 0.4066830944	 0.023812421	 2.9857317375	 0.291504
