13
gdb 42652	3.1431	1.49487	1.25183	4.8046	68.13	-0.2772	-0.0306	0.2466	971.3531	0.09009	-415.571237	-415.564494	-415.56355	-415.60266	25.575	
O	-0.0107557136	 0.0740226548	 0.0861805967	-0.289408
C	-0.0984300965	 1.2548764734	 0.0563275685	 0.449246
C	-1.204797502	 2.2978946793	-0.038081233	-0.257387
C	-0.9367610945	 3.1168878907	 1.2609758978	-0.246755
C	 0.4189117324	 3.464399464	 0.6328172035	-0.090974
N	 0.9789766953	 2.2567761433	-0.0706861409	-0.215866
C	-0.065813914	 3.1599130105	-0.7293953288	 0.286834
C	 0.0776197804	 3.7402412243	-2.0124162102	 0.155761
N	 0.1511543896	 4.2317833234	-3.057042268	-0.337705
H	-2.2025339186	 2.077412366	-0.4034197303	 0.129595
H	-1.5717277184	 4.0023978911	 1.3256232592	 0.139217
H	-0.9500266684	 2.5672388153	 2.2060515074	 0.133339
H	 1.1499516683	 4.1995927441	 0.9413737381	 0.144104
