17
gdb 85747	3.2498	1.2668	1.07325	5.6319	72.61	-0.2482	0.0242	0.2724	1141.8676	0.136584	-417.996827	-417.988761	-417.987816	-418.029583	30.395	
C	 0.2879473741	 1.5215693153	-0.1529040874	-0.392795
C	 0.1057589754	 0.0141848693	 0.0119171145	 0.016447
N	 0.6974006361	-0.7152602452	-1.1226996765	-0.314945
C	 1.1374438416	-2.0412899469	-0.6875120491	-0.155741
C	 2.2632060656	-2.5290658742	-1.4995157774	 0.298567
N	 3.1294864507	-2.9472913449	-2.1387053658	-0.320893
C	 1.4794834337	-1.8292954097	 0.7871727266	 0.036318
O	 2.2530396609	-0.6625649625	 1.036993732	-0.231837
C	 0.8313050308	-0.586058671	 1.2037550272	 0.039573
H	 1.3525636506	 1.7604932812	-0.2064959364	 0.147443
H	-0.1913401325	 1.8713414502	-1.0723821747	 0.117614
H	-0.1616447095	 2.0620629464	 0.6864220933	 0.114253
H	-0.9666064161	-0.2147749924	 0.1506540303	 0.069732
H	 0.1037461124	-0.7444239321	-1.9405322565	 0.236173
H	 0.3525746968	-2.8184162108	-0.7218595875	 0.111907
H	 1.6607430155	-2.6881659843	 1.4256297748	 0.119244
H	 0.4775292541	-0.4027489584	 2.2141706528	 0.10894
