18
gdb 55040	3.27951	1.12321	0.91815	3.5057	74.02	-0.2387	0.0386	0.2772	1273.7508	0.14834	-435.243393	-435.234575	-435.23363	-435.277692	32.548	
N	-0.1447018598	 1.1207223605	-0.2040943505	-0.536229
C	-0.096131346	-0.2492618065	-0.0546876891	 0.413322
O	 0.8417158317	-0.9307747176	-0.4083935879	-0.373036
N	-1.2339901875	-0.7669817595	 0.5867552744	-0.124776
C	-2.5975954489	-0.613052945	 0.0997083048	-0.273443
C	-1.9271854223	-1.9573103501	 0.1359915538	-0.018574
C	-1.5574468224	-2.6505722437	-1.1357265926	 0.034471
C	-0.9409882435	-3.9950083142	-1.0848694134	-0.23351
N	-2.3310660116	-3.8349946089	-1.5506179647	-0.333445
H	 0.7460315628	 1.5500782722	-0.3995786641	 0.263931
H	-0.7649758041	 1.6437657911	 0.3933479089	 0.259362
H	-3.3443060745	-0.3448384922	 0.8430452316	 0.12139
H	-2.7355400646	-0.1590356841	-0.8793610811	 0.134773
H	-2.1972966344	-2.6368476976	 0.9456801823	 0.092388
H	-1.289406653	-1.9906735115	-1.9562764948	 0.103502
H	-0.2298293557	-4.2907283541	-1.8496020436	 0.128075
H	-0.76296306	-4.4327569536	-0.1058473839	 0.113843
H	-2.9773388961	-4.1044222951	-0.8111863901	 0.227956
