19
gdb 95481	2.26195	1.53817	0.96199	3.1111	79.93	-0.2409	-0.0522	0.1887	1221.7564	0.159212	-423.051657	-423.043086	-423.042141	-423.085222	32.271	
C	-0.3305492615	 1.4051660351	 0.0779317222	-0.389247
C	 0.0736571046	-0.0642977665	 0.016365111	 0.082816
C	 0.7148383048	-0.4206581703	-1.326059187	-0.286218
C	 0.9984084013	-1.8918026651	-1.6071762035	 0.344105
O	 1.0446199808	-2.2771321239	-2.7612414359	-0.325677
C	 1.2202911104	-2.8832451075	-0.5259144503	-0.146463
C	 1.1920266074	-2.7475369323	 0.8056821832	-0.050851
C	 0.9695172538	-1.5443057547	 1.6721080144	-0.1367
O	 1.0146248242	-0.2822101229	 1.067140861	-0.249376
H	 0.5462211863	 2.0447588763	-0.0646162573	 0.127972
H	-1.0622256453	 1.6418818151	-0.6999016216	 0.118919
H	-0.7675393578	 1.6369865908	 1.052630909	 0.121042
H	-0.816216106	-0.6901745114	 0.1880447367	 0.077083
H	 0.1066229218	-0.0618050651	-2.1617920673	 0.122264
H	 1.6746190179	 0.1102134227	-1.3832192616	 0.135053
H	 1.3979815743	-3.8731260523	-0.9381610862	 0.108442
H	 1.3312656559	-3.654066382	 1.3956975165	 0.109996
H	 0.0099503542	-1.694838742	 2.2054514669	 0.107972
H	 1.7438539628	-1.531424484	 2.4501210099	 0.128869
