21
gdb 104667	1.925	1.42466	1.09832	1.1673	74.86	-0.2224	0.0491	0.2716	1241.7476	0.179175	-461.323563	-461.312954	-461.312009	-461.35888	38.767	
C	-0.1697619346	 1.350047092	-0.9696733873	-0.383149
C	-0.0261900172	 0.1289869809	-0.0541719393	-0.237253
C	-1.3577375735	-0.5249783413	 0.2529811827	 0.331024
O	-2.2996167826	 0.2667135762	 0.9329227456	-0.284939
C	-1.9877327325	 0.508137871	 2.2934134083	-0.249977
C	-2.0339121549	-1.411973204	-0.7580182582	-0.036509
O	-1.3183596295	-1.6785467817	-1.9403995418	-0.43067
C	-1.4634375112	-2.025184748	 0.5080865279	 0.018599
O	-0.3470827893	-2.8500193733	 0.3763353156	-0.430953
H	 0.7944704151	 1.8462759514	-1.1164670497	 0.105011
H	-0.5533907337	 1.0517919676	-1.9497207263	 0.129239
H	-0.8666668528	 2.0769486543	-0.5423907149	 0.123138
H	 0.6369575753	-0.6115473575	-0.5071427516	 0.106092
H	 0.4513347569	 0.4160995908	 0.8908446119	 0.096829
H	-2.8573223445	 1.003202563	 2.73226911	 0.125357
H	-1.7929059247	-0.4263517034	 2.8374948703	 0.111718
H	-1.1154368427	 1.1651040509	 2.4096831984	 0.113549
H	-3.1094195261	-1.2974155646	-0.8669754485	 0.103689
H	-1.7504605772	-2.4166104513	-2.3838680908	 0.29894
H	-2.149908803	-2.3584289093	 1.2811923492	 0.104995
H	-0.143289667	-2.8715822838	-0.5693177216	 0.285269
