14
gdb 64636	2.3111	1.65352	1.41889	5.6508	66.92	-0.272	-0.0454	0.2266	966.702	0.101371	-432.923523	-432.915473	-432.914528	-432.956197	29.226	
C	-0.0270052082	 1.5447021346	 0.0006929072	-0.407503
C	 0.0023974263	 0.0056309917	-0.0175807588	-0.020505
N	 0.7931692991	-0.5013673398	-1.1616428932	-0.247844
C	 1.7540690102	-1.1702837512	-0.6525305193	 0.070333
N	 1.7907285049	-1.2440632516	 0.7334308573	-0.34045
C	 0.7238212188	-0.5306569498	 1.2612134381	 0.420081
O	 0.4585822544	-0.3512968559	 2.4175113462	-0.340039
C	-1.3574777274	-0.5414949715	-0.0809962107	 0.306082
N	-2.4302768013	-0.9673290905	-0.1226813502	-0.330232
H	 0.9966179409	 1.9270197551	 0.0130328743	 0.135799
H	-0.5326570134	 1.9147760195	-0.8924363179	 0.155089
H	-0.5509059291	 1.8900353034	 0.8945153011	 0.159472
H	 2.5243500695	-1.6622033367	-1.237011346	 0.157936
H	 2.4806738352	-1.7181902173	 1.2942866018	 0.281782
