19
gdb 69446	2.80224	1.25862	1.19149	1.8446	80.48	-0.2497	0.0542	0.3039	1143.3891	0.159014	-385.853987	-385.845542	-385.844598	-385.886671	33.645	
O	-0.3914197359	 1.3535736857	 0.0063648029	-0.474226
C	-0.1329180288	-0.0139665287	 0.1051301937	 0.429673
C	-0.0601015662	-0.8450420945	-1.154015804	-0.381747
C	-1.2345583251	-0.9884303552	-0.2012433391	-0.062374
C	-1.1802939427	-2.1280178484	 0.8214095303	-0.179026
C	 0.2544399896	-2.0100960057	 1.4333411312	-0.245727
C	 0.6202002632	-0.5155294468	 1.3293732586	-0.276111
C	-2.223725233	-1.9720592015	 1.8317270411	 0.333221
C	-3.0776035759	-1.8363814023	 2.6673669649	-0.475455
H	 0.4183540207	 1.7893979542	-0.280571302	 0.280994
H	-0.2751409692	-0.3172734646	-2.0766567768	 0.114188
H	 0.6688466506	-1.6439946398	-1.249618603	 0.107026
H	-2.2035996812	-0.6341821758	-0.5301892277	 0.104511
H	-1.305151889	-3.1063732596	 0.3408990916	 0.101241
H	 0.287515522	-2.3850403157	 2.4575392337	 0.115834
H	 0.9464827069	-2.6182278963	 0.8436765487	 0.104692
H	 1.7033886659	-0.3579250125	 1.2725046832	 0.089853
H	 0.2478073605	 0.0397372818	 2.197184107	 0.119653
H	-3.8350437623	-1.7196102943	 3.4021198158	 0.193779
