17
gdb 67754	2.87453	2.00087	1.39655	1.7588	79.06	-0.193	-0.0174	0.1756	922.8486	0.136565	-384.617929	-384.610984	-384.61004	-384.648647	29.039	
O	 0.084627718	 1.3871839115	-0.0288323269	-0.467579
C	-0.0409706384	-0.0028915492	-0.0666537752	 0.357549
C	 0.6188507386	-0.7200669583	-1.2358653941	-0.147686
C	-0.0892467407	-1.7983371256	-1.6108155541	-0.152507
C	-1.0622440246	-1.9834101594	-0.4832777177	 0.057492
C	-0.7866395591	-2.8320233637	 0.5239880683	-0.094029
C	-0.5726703587	-2.0640563302	 1.8240056698	-0.268948
C	-0.6097089056	-0.61403996	 1.324289671	-0.103563
C	-1.3921277484	-0.5921167432	 0.0557303709	-0.159794
H	 0.9400346631	 1.6007931068	 0.3584245911	 0.285648
H	 1.5155599339	-0.3407691832	-1.7123411858	 0.097772
H	 0.1601186939	-2.5106420912	-2.3857070899	 0.111016
H	-0.3376439912	-3.8090998337	 0.3753327687	 0.093575
H	-1.3153285748	-2.2203304432	 2.6227565201	 0.103494
H	 0.3959903504	-2.3673312255	 2.2442623103	 0.108768
H	-0.732437346	 0.1890947767	 2.046001279	 0.0854
H	-2.3243917105	-0.0758053985	-0.1541184756	 0.093395
