21
gdb 118921	2.47714	1.04613	1.00416	1.9484	79.16	-0.2459	-0.0282	0.2177	1368.1721	0.179827	-424.240775	-424.23057	-424.229626	-424.27631	37.051	
C	-0.2098400272	 1.6402190497	-0.2145685681	-0.383651
C	-0.0691955516	 0.118924714	-0.1208307999	-0.174484
C	-1.4180581937	-0.5901782256	 0.0404931781	-0.215127
C	-1.2975948346	-2.1124456253	 0.2016258067	 0.314954
O	-0.5330280412	-2.4184709376	 1.3436562048	-0.484098
C	-2.67539052	-2.8479334015	 0.0253294689	-0.288055
C	-2.314827388	-3.1852179855	-1.4566664403	-0.337348
C	-0.8680031962	-2.8601825822	-1.0735375225	 0.33669
O	 0.207006785	-3.2721680656	-1.414158832	-0.320102
H	 0.766500078	 2.1222635344	-0.3236854728	 0.114581
H	-0.8227537481	 1.9333817159	-1.07461967	 0.111053
H	-0.6848616192	 2.0502811451	 0.6836945439	 0.115138
H	 0.439287996	-0.2617302193	-1.0155254641	 0.105473
H	 0.5652088234	-0.1466066133	 0.7310003544	 0.112627
H	-1.9330587543	-0.2136864288	 0.9344357325	 0.108728
H	-2.0700256129	-0.362266991	-0.8129236059	 0.092343
H	 0.2206206992	-2.9457538554	 1.0509078483	 0.294141
H	-2.7171419727	-3.7399384908	 0.6524766541	 0.120762
H	-3.5644847408	-2.2372037534	 0.1878383879	 0.109519
H	-2.4915842662	-4.1981144727	-1.8228438396	 0.132631
H	-2.7318240749	-2.4705291012	-2.1719912344	 0.134226
