20
gdb 42004	3.13987	1.51028	1.10359	3.851	79.67	-0.2334	0.0351	0.2685	1124.111	0.17505	-403.181334	-403.173726	-403.172782	-403.214132	29.513	
C	-0.0435749603	 1.3729424921	-0.1459303252	-0.156286
C	 1.4228113034	 1.8796642218	-0.0502623231	-0.257468
C	 2.1503089852	 0.7078739673	 0.6361419096	-0.101759
C	 3.5848660858	 0.3713641293	 0.1669715424	-0.229666
C	 3.8328662542	-1.1578752715	 0.1561306557	-0.219668
C	 2.8414155724	-1.8904113039	 1.0542836209	-0.077971
O	 1.4945297315	-1.6919304715	 0.6023399439	-0.247929
C	 1.1527165811	-0.4107544469	 0.3717625972	 0.411811
N	-0.0025353114	-0.0902651756	-0.0452344165	-0.298833
H	-0.6622424748	 1.771343267	 0.6701871115	 0.101813
H	-0.5289525495	 1.6738809249	-1.0800074173	 0.105036
H	 1.8350117361	 2.0276358986	-1.0545277943	 0.104462
H	 1.5173867096	 2.8261736987	 0.4873040936	 0.100853
H	 2.172700684	 0.8640126579	 1.7242643763	 0.096733
H	 3.7466480823	 0.7738836283	-0.8378768791	 0.109667
H	 4.3077677923	 0.8706236962	 0.8193717827	 0.105238
H	 3.7114698852	-1.5528826934	-0.8583672758	 0.119928
H	 4.8541144418	-1.3951921259	 0.4710134237	 0.105771
H	 2.9947746357	-2.9711352535	 1.0252193764	 0.12187
H	 2.9327788954	-1.56495496	 2.1002099775	 0.106397
