21
gdb 61636	3.02693	0.85525	0.74801	1.3218	79.96	-0.251	-0.0215	0.2295	1576.6236	0.179078	-424.224988	-424.214582	-424.213638	-424.261692	36.697	
C	-0.1057828902	 1.6374648628	 0.5522123553	-0.406328
C	 0.0222750957	 0.2187881546	-0.035780861	-0.077156
C	 0.7477127802	-0.7719268887	 0.8874177643	-0.225818
C	 2.2320528703	-0.5121000069	 0.9737900525	 0.052715
O	 2.6843304781	 0.5982814324	 1.7641668168	-0.263225
C	 3.0645516802	-0.7227698784	 2.1710374276	 0.074339
C	 2.5609756712	-1.2143005556	 3.5038412538	-0.419245
C	-1.3493852877	-0.2878690227	-0.4420223488	 0.151769
O	-1.8134803937	-1.3600258764	-0.1490174895	-0.247054
H	 0.8792059958	 2.0503341779	 0.775012046	 0.158184
H	-0.6167449906	 2.3097861563	-0.145055812	 0.114954
H	-0.6787632145	 1.6191837399	 1.4855581794	 0.125517
H	 0.5810646057	 0.3056194349	-0.9834939371	 0.098698
H	 0.2904802735	-0.737777172	 1.8801211887	 0.108908
H	 0.5893942306	-1.7877399619	 0.5076848204	 0.121116
H	 2.7454941629	-0.5849911711	 0.0105234227	 0.084081
H	 4.119855639	-0.9391228462	 1.9885084281	 0.086576
H	 1.5070650342	-0.9753840425	 3.6561590653	 0.130317
H	 2.6896926817	-2.2992765438	 3.5825751277	 0.124761
H	 3.1328512929	-0.7506259598	 4.3144052823	 0.130148
H	-1.9307788152	 0.4348214073	-1.0619775825	 0.076742
