25
gdb 58623	2.21902	1.19475	1.07555	1.4379	87.93	-0.2623	0.0668	0.3291	1343.0426	0.226651	-389.483051	-389.472142	-389.471198	-389.518514	41.795	
C	 0.6545751165	-0.4230217683	 1.3187573177	-0.382304
C	 0.0250591218	-0.0817888163	-0.0444143345	-0.042548
C	 0.9816238143	-0.4771706151	-1.1781273793	-0.407968
C	-1.3896107814	-0.6810498063	-0.1604505378	 0.373199
C	-1.852405332	-1.3875774431	-1.4151226078	-0.33366
C	-1.5359876175	-2.182596465	-0.1731608477	-0.307539
C	-2.4618022547	 0.1241285147	 0.5998213419	 0.05587
C	-2.8005687123	 1.4528352822	-0.0820431803	-0.409876
O	-3.6558112247	-0.6219319961	 0.8292226564	-0.433647
H	 1.6092209069	 0.0981936868	 1.4463666809	 0.106521
H	 0.008535982	-0.1398270886	 2.1548801328	 0.115874
H	 0.8467304014	-1.4981589159	 1.4005406592	 0.115883
H	-0.0763841139	 1.0105036839	-0.0906820653	 0.068846
H	 1.1168748151	-1.5630691562	-1.2376308764	 0.116505
H	 0.6282499722	-0.1251523482	-2.1511509913	 0.11519
H	 1.9690812305	-0.0372839151	-1.0048597197	 0.110191
H	-2.8971462794	-1.2942768996	-1.6977101731	 0.083802
H	-1.1829683504	-1.4629211532	-2.263003044	 0.109124
H	-0.6322323148	-2.7832228899	-0.1778929168	 0.102972
H	-2.3646142726	-2.6056003033	 0.3803837006	 0.124689
H	-2.0801940064	 0.3317422617	 1.6066936573	 0.085216
H	-3.191649188	 1.2757366209	-1.0916405689	 0.110013
H	-3.5609579832	 1.9853287581	 0.4962406542	 0.121047
H	-1.9276435738	 2.1038466683	-0.1780381629	 0.123074
H	-4.1874326556	-0.5856910065	 0.0271897849	 0.279526
