20
gdb 40057	3.17288	1.52017	1.41714	2.0878	76.96	-0.241	0.0763	0.3173	1010.5484	0.174669	-403.136131	-403.129058	-403.128113	-403.167495	29.298	
C	 0.069977623	 1.5297652364	-0.0096291395	-0.312627
N	 1.2777494395	 0.6798734558	 0.0464723209	-0.370848
C	-0.0479010748	 0.0562630339	 0.0228412244	 0.391398
C	-0.4709487525	-0.8064487121	 1.2228861521	-0.301544
C	-1.1338351433	-1.9965120001	 0.4893593606	 0.077053
C	-2.5120703365	-1.5720888145	-0.0664852065	-0.215554
C	-2.0837867899	-0.6675365418	-1.2617121437	-0.221262
C	-0.541850808	-0.767540969	-1.1678137206	-0.015607
O	-0.3398422883	-2.110354423	-0.7058268387	-0.262525
H	-0.1182247678	 2.1167447041	 0.8857602166	 0.117133
H	-0.1635875613	 2.0457876814	-0.9392063582	 0.107006
H	 1.7128378987	 0.6300761174	-0.8725214051	 0.227349
H	 0.4143773168	-1.1237333599	 1.7785079171	 0.120217
H	-1.1512155281	-0.2961553796	 1.9102548086	 0.099351
H	-1.1165619423	-2.9434220208	 1.0283709847	 0.078796
H	-3.0726469694	-2.4441749517	-0.4101532713	 0.105854
H	-3.1205924676	-1.0484410139	 0.6750393244	 0.099099
H	-2.4348997859	-1.0722163468	-2.2135691738	 0.104047
H	-2.4420509406	 0.3609879401	-1.1764821446	 0.102605
H	 0.0005500883	-0.6039639958	-2.1010637174	 0.070058
