14
gdb 16547	2.8908	2.4403	1.64477	3.0998	57.12	-0.2387	-0.0409	0.1978	778.7631	0.107007	-419.644029	-419.637259	-419.636315	-419.675237	25.154	
O	 0.0584609226	 1.4501911377	-0.0748640764	-0.419693
C	 0.1132221686	 0.0627966648	-0.0385699407	 0.044736
C	-1.2216122612	-0.722307273	 0.0426582442	 0.055808
O	-2.2084962279	-0.0805337124	-0.7984188981	-0.302154
C	-2.0007904998	-1.0502603712	-1.8580222082	-0.082542
C	-0.794128164	-1.6706379918	-1.1182021553	-0.219708
C	 0.4513465089	-0.7762095008	-1.3172484631	 0.344424
O	 1.3045473476	-0.7321906286	-2.1513361622	-0.285779
H	-0.7223616394	 1.6701031698	-0.6023184844	 0.294676
H	 0.7996999299	-0.2414529983	 0.7640328668	 0.118892
H	-1.6174775744	-1.0282935838	 1.0116389195	 0.091115
H	-2.8586550112	-1.7270729528	-1.9413594057	 0.120736
H	-1.8071785834	-0.5824319581	-2.8285496459	 0.129292
H	-0.6863141062	-2.7522317815	-1.0803410505	 0.110197
