18
gdb 66517	4.24495	1.61364	1.47412	0.8832	82.44	-0.2062	-0.0448	0.1614	938.8296	0.147811	-364.677975	-364.671004	-364.67006	-364.708718	28.954	
C	 0.1569535152	 1.4912455062	-0.0235159254	-0.528847
C	-0.1056991182	 0.0259169175	-0.0914293755	 0.372923
C	 0.1794819422	-1.0154433179	-1.0939935963	-0.136929
N	 0.8767111675	-1.03516648	 0.3322085472	-0.227472
C	-0.1932074483	-1.6455249945	 1.2879341274	 0.045136
C	-0.6156717841	-3.1414960398	 1.1305254725	-0.266953
C	-0.9070937629	-3.1411025132	-0.3692006073	-0.099241
C	-1.0193607767	-1.8484031088	-0.7395984634	 0.048076
C	-1.2300705436	-0.8840912561	 0.4741654152	-0.178198
H	 1.1447171057	 1.7196817648	-0.4354257752	 0.134
H	-0.591565121	 2.0515751497	-0.5945446752	 0.124818
H	 0.1310381692	 1.8492369924	 1.0117554025	 0.125317
H	 0.8762180347	-1.040094126	-1.9224964473	 0.104337
H	 0.0676777514	-1.3244734999	 2.2998333714	 0.07483
H	 0.1732091101	-3.8740673927	 1.3358549515	 0.119999
H	-1.4401617472	-3.355894124	 1.8256635814	 0.114157
H	-0.4932710061	-3.9101372556	-1.014357567	 0.103655
H	-2.2289337278	-0.6040055921	 0.8077269636	 0.070391
