18
gdb 40201	3.07775	1.5917	1.27338	1.2114	71.18	-0.2442	0.0612	0.3054	1012.1944	0.149581	-439.034358	-439.027071	-439.026127	-439.066279	28.422	
C	-0.0645863696	 1.4734172973	-0.0016400035	-0.29142
N	 1.1995427333	 0.7168761038	 0.0872961567	-0.35678
C	-0.0810539364	-0.0025609083	-0.0119027748	 0.327242
C	-0.4860978625	-0.8871249736	 1.1569033322	-0.154563
O	-0.3014855483	-2.2293565938	 0.6921058727	-0.267191
C	-0.5453840569	-2.2625821435	-0.6962659931	 0.069742
C	-2.0193351909	-2.1654975189	-1.1498914162	-0.108792
O	-1.8407866208	-0.7896698252	-1.5645369493	-0.292743
C	-0.4324596781	-0.814033863	-1.2370509019	-0.018501
H	-0.3387012577	 2.0093131685	 0.9032431271	 0.123585
H	-0.3092113315	 1.9925219044	-0.9247319217	 0.122366
H	 1.6733022359	 0.7251101197	-0.814087722	 0.230629
H	 0.1481522413	-0.7378387532	 2.0325398698	 0.127769
H	-1.5363441301	-0.7135350501	 1.4339346613	 0.103003
H	 0.0548751093	-3.0610389086	-1.1336034586	 0.096323
H	-2.2937598239	-2.8103728231	-1.9934364895	 0.10427
H	-2.760092406	-2.2722337235	-0.349500278	 0.112305
H	 0.195111033	-0.5991274291	-2.1093241612	 0.072757
