19
gdb 75512	2.48885	1.547	1.00618	3.6929	86.14	-0.2418	-0.0611	0.1807	1194.8078	0.160247	-385.929257	-385.920752	-385.919808	-385.962692	32.156	
C	-0.0342748483	 1.4980679864	-0.2298843318	-0.459658
C	 0.0057013021	 0.017474885	 0.0627940127	 0.186433
C	-1.0860820883	-0.7440810464	-0.1059466617	-0.137052
C	-1.2592845388	-2.2272953864	 0.0874851911	-0.26192
C	-0.6941480018	-2.786096	 1.3980206378	-0.256935
C	 0.8039478412	-2.7523903469	 1.4890394791	-0.069665
C	 1.6394538283	-1.8112478066	 1.0363391369	-0.115676
C	 1.3661000738	-0.4794746449	 0.4405474255	 0.290602
O	 2.3221896047	 0.2689081635	 0.282617076	-0.330042
H	 0.6569194727	 1.7523998912	-1.038497542	 0.143126
H	-1.0420788745	 1.8161713189	-0.5073546484	 0.107579
H	 0.2919227639	 2.077920253	 0.6398189954	 0.132897
H	-1.9772048048	-0.2312331257	-0.4647166078	 0.093466
H	-2.3289022878	-2.4571137481	 0.0443656936	 0.107046
H	-0.8020025234	-2.767188827	-0.7541897887	 0.12405
H	-1.1250372219	-2.2384211127	 2.2492961986	 0.125335
H	-1.0283849416	-3.8232681259	 1.5118205595	 0.10948
H	 1.2572964765	-3.6032122892	 1.994700816	 0.104516
H	 2.7074032079	-1.9474464385	 1.1846933581	 0.10642
