18
gdb 17019	3.9424	1.59871	1.32291	0.673	79.01	-0.2527	0.0464	0.2991	977.3586	0.153768	-310.584805	-310.577341	-310.576397	-310.616139	29.576	
C	-0.1044739487	 1.6335356315	 0.0127826116	-0.445462
C	 0.0354843218	 0.1194893226	 0.0195161672	 0.058957
C	 1.1788355376	-0.6103967668	-0.7621347118	-0.058278
C	 2.1704525536	-0.1620828592	 0.3490888494	-0.245672
C	 0.889342558	-0.628853604	 1.0974106662	-0.058272
C	 0.8954826808	-1.8696744086	 0.1336536843	-0.164184
C	-0.3049511177	-2.6570372644	-0.0610274819	 0.306034
C	-1.2765624109	-3.3491132576	-0.2192885554	-0.447686
H	 0.8371159005	 2.1670920637	 0.1641989111	 0.116769
H	-0.5244746371	 1.9705113522	-0.9415032482	 0.118892
H	-0.7949583801	 1.9532677016	 0.8012127864	 0.118895
H	-0.9451870265	-0.3383250261	-0.1376921531	 0.082471
H	 1.3462925251	-0.6206909483	-1.8404972691	 0.074096
H	 3.0632579444	-0.7794763018	 0.4819490919	 0.090928
H	 2.4227512737	 0.8962270461	 0.3988763759	 0.096709
H	 0.7211204746	-0.6605421794	 2.1752381441	 0.074094
H	 1.7641877018	-2.5229992152	 0.2624069461	 0.091971
H	-2.137992391	-3.9536810264	-0.3598760046	 0.18974
