18
gdb 93267	2.29427	1.68413	1.23353	1.3475	68.46	-0.2675	0.0166	0.2841	1050.9082	0.14687	-476.240101	-476.231121	-476.230177	-476.273291	34.13	
C	 0.1515710302	 1.6170042398	 0.0030235411	-0.409574
C	-0.0167958929	 0.0910004496	-0.0253652546	 0.241672
O	-1.3839977953	-0.2571916923	-0.0740219523	-0.489488
C	 0.7716363797	-0.5734568144	-1.1762634254	 0.075852
O	 0.8984794206	 0.1655119519	-2.3680840021	-0.430393
C	 2.1581651123	-0.7594519948	-0.5497374383	-0.115156
O	 1.9228397489	-0.9414843095	 0.86193465	-0.241707
C	 0.6647671613	-0.5425336396	 1.1778181947	 0.390789
N	 0.0880403015	-0.6798061332	 2.2910827427	-0.567484
H	 1.203235712	 1.9183463066	 0.0282357879	 0.119605
H	-0.3056506384	 2.0508043988	-0.8887867297	 0.122739
H	-0.3459006377	 2.0139887661	 0.8912316529	 0.130885
H	-1.6528332032	-0.3971693869	 0.8458631061	 0.293487
H	 0.306630884	-1.5524362133	-1.3590500318	 0.09293
H	 0.0401875205	 0.1732109949	-2.8042515251	 0.2976
H	 2.6940397855	-1.6367744787	-0.9156180771	 0.128665
H	 2.7734737041	 0.1317773186	-0.7139541878	 0.129577
H	 0.678405957	-1.1426155535	 2.9819804787	 0.23
