18
gdb 51906	7.6238	0.52475	0.51856	4.1884	78.78	-0.2419	-0.0212	0.2207	2089.0941	0.144295	-439.065055	-439.05538	-439.054436	-439.101869	33.165	
O	 0.3760183851	 0.5428663886	 1.1254317133	-0.237806
C	 0.2352858615	 1.1439326786	 0.093326159	 0.156359
C	 1.3287567245	 1.9841961241	-0.5559910464	-0.236638
N	 0.7520375885	 2.9983317178	-1.4081818218	-0.225156
C	 1.0998876963	 4.1917155161	-1.2061304739	 0.132086
O	 0.5961986577	 5.1850494974	-1.964283201	-0.204559
C	 0.9923744806	 6.4897530942	-1.6038013902	 0.119719
C	 2.3346213124	 6.9948948011	-2.0592189092	-0.287162
C	 1.0598331656	 7.4738284853	-2.722609654	-0.278816
H	-0.7142456322	 1.1203864253	-0.4846473861	 0.095338
H	 1.9988571838	 2.3595868459	 0.2333617675	 0.111878
H	 1.9158894929	 1.2869977508	-1.1748632093	 0.137158
H	 1.8151741374	 4.5215164579	-0.4384652414	 0.088902
H	 0.6036900096	 6.810705188	-0.6407318342	 0.108739
H	 2.8772956823	 7.671686166	-1.4088982869	 0.124256
H	 2.9544133394	 6.3058759989	-2.6215993509	 0.131367
H	 0.8431457255	 7.0896353889	-3.7123824692	 0.139343
H	 0.7165176491	 8.4848085153	-2.5378311053	 0.124994
