16
gdb 37386	3.05576	2.11627	1.9026	2.1453	65.21	-0.2295	0.0685	0.2979	790.2116	0.128167	-437.835351	-437.829746	-437.828802	-437.864998	24.425	
N	-0.02421203	 1.5009382255	 0.0553221447	-0.332371
C	 1.2749146913	 0.7925203236	-0.026287043	-0.043731
C	 0.0021009156	 0.0320006322	-0.0197464899	-0.05816
C	-0.263990984	-0.5942114801	-1.3899479251	 0.156451
O	-0.2657564862	 0.38880733	-2.3992628523	-0.236027
C	 1.100679799	 0.6652912388	-2.6069427985	 0.039527
C	 1.8419892421	-0.5469713331	-2.1424233138	 0.039633
O	 0.8598644341	-1.4414869427	-1.6676262114	-0.264958
C	 1.963483512	 0.7664495353	-1.3562989024	-0.13197
H	-0.1894328686	 1.776605638	 1.0205277591	 0.232983
H	 1.9093173164	 0.7771535626	 0.8556552814	 0.089118
H	-0.281050603	-0.5622560312	 0.8436891934	 0.091803
H	-1.178400952	-1.1856553245	-1.4548629054	 0.097078
H	 1.2879921457	 1.2393595547	-3.5037342163	 0.1149
H	 2.6700931884	-1.0384842756	-2.6337912399	 0.112839
H	 2.8967339992	 1.3091655465	-1.4661397907	 0.092884
