15
gdb 69029	2.75809	1.38672	1.18048	2.0766	77.69	-0.2174	-0.0072	0.2103	1071.1471	0.110832	-416.728342	-416.719957	-416.719013	-416.761112	32.204	
O	 0.1526425858	 1.3771380012	-0.1635370908	-0.430719
C	 0.0673505914	 0.0227417738	-0.0730057414	 0.291885
C	-0.2654482913	-0.8165641572	-1.2686700531	-0.347348
C	-1.1251142286	-1.0240060588	-0.049434037	 0.100915
N	-0.3072552053	-1.8701489622	 0.8879251742	-0.394622
C	 0.6103332301	-0.7851027689	 1.0637594989	 0.297205
N	 1.453194622	-0.4496334074	 1.9398163025	-0.545203
C	-2.5214857684	-0.877431071	 0.0719219012	 0.222109
C	-3.7122265128	-0.7490105639	 0.2036360211	-0.44024
H	 0.27980737	 1.7194770018	 0.7311117477	 0.305937
H	-0.7347443808	-0.2353654802	-2.0567352836	 0.146196
H	 0.3837634691	-1.6242722067	-1.5968291644	 0.129585
H	-0.7905766472	-2.1558170027	 1.733842252	 0.243301
H	 1.5362562345	-1.1476332171	 2.680924613	 0.224422
H	-4.7634030386	-0.6393951407	 0.3059832497	 0.196576
