23
gdb 96118	2.0956	1.74137	1.20259	1.446	84.99	-0.2357	0.0835	0.3193	1155.5836	0.206343	-388.291724	-388.282756	-388.281812	-388.324719	35.657	
C	-0.018788546	 1.5687284379	-0.0275839428	-0.402152
C	 0.0435270542	 0.0364763474	 0.0097882643	-0.030672
C	 0.6317571466	-0.540612448	-1.2907526931	-0.226456
C	 0.9290877454	-2.0277758364	-1.132087504	-0.074771
O	 1.9493882485	-2.2415322289	-0.1678622213	-0.25886
C	 1.6882597923	-1.684829847	 1.0887356979	 0.058339
C	 2.26716008	-0.324172395	 1.3929760643	-0.348522
C	 0.7652810008	-0.4981027887	 1.2510342259	 0.311996
C	-0.0490208756	-0.4425115794	 2.5312174302	-0.466013
H	 0.9870047467	 1.9988512091	-0.0817576045	 0.116619
H	-0.5787088113	 1.9135774955	-0.9037049547	 0.108699
H	-0.5091605982	 1.9773278594	 0.8612082541	 0.11341
H	-0.9885562218	-0.3394373856	 0.0775038814	 0.067386
H	-0.0724592194	-0.3797469517	-2.1154310909	 0.09452
H	 1.5622105967	-0.0244981438	-1.5598828432	 0.10209
H	 0.0099685022	-2.5702687342	-0.8531853572	 0.083355
H	 1.3078112561	-2.4633619346	-2.0612295601	 0.104237
H	 1.688741607	-2.435119953	 1.8775962024	 0.084906
H	 2.672227884	-0.1267715931	 2.3802754482	 0.103519
H	 2.8127967171	 0.1421243792	 0.57972155	 0.113055
H	-0.2884374938	 0.5898891264	 2.8105259778	 0.118155
H	-0.9943905495	-0.9874457036	 2.4231406836	 0.113711
H	 0.4976926478	-0.8866387119	 3.3690574417	 0.113449
