20
gdb 18832	3.80192	2.0606	1.7399	0.2571	76.83	-0.2482	0.0875	0.3357	846.5298	0.179841	-311.856455	-311.84975	-311.848806	-311.886836	27.917	
C	-0.1580985828	 1.5692638674	 0.0026904185	-0.41154
C	 0.0447117485	 0.0546882292	-0.0023734283	 0.05986
C	 0.8756442925	-0.4921702013	-1.1994894448	-0.252459
C	 1.6114352959	-1.6984941792	-0.617617699	-0.030971
C	 2.5942558098	-1.4750765379	 0.5232948016	-0.057614
C	 2.3082430954	-0.1485515956	 1.2255361084	-0.239176
C	 0.7853112271	-0.5220954933	 1.2187420006	-0.042728
C	 1.1834330947	-1.9650893132	 0.8006852485	-0.088098
H	 0.7980981645	 2.1024269601	 0.0437995522	 0.115001
H	-0.6807257942	 1.9004954343	-0.9011006877	 0.111624
H	-0.7544355196	 1.88764189	 0.8648340206	 0.108586
H	-0.9432410013	-0.4260543829	-0.0314665941	 0.066924
H	 0.2337501717	-0.7799271103	-2.0381312111	 0.092858
H	 1.5706665468	 0.2668499066	-1.579348245	 0.093732
H	 1.8365124664	-2.5460150563	-1.2560188673	 0.077117
H	 3.5241373936	-2.0308249279	 0.5689620034	 0.075615
H	 2.7093372206	-0.1422632141	 2.2424116044	 0.097559
H	 2.6110455492	 0.7789131048	 0.7260435366	 0.086548
H	 0.2615286174	-0.3839352808	 2.165573154	 0.059419
H	 0.8232784936	-2.9055951596	 1.1958455585	 0.077742
