21
gdb 65202	3.05582	1.3687	1.14213	1.4716	81.5	-0.2331	0.0842	0.3173	1155.286	0.182184	-387.032392	-387.023961	-387.023017	-387.065272	33.449	
C	 0.6705274217	 1.1970422402	 1.3268493605	-0.457003
C	 0.0581010191	 0.2340975903	 0.3257519839	 0.324295
C	 0.5676097002	 0.2574397287	-1.0945972638	-0.300789
C	 0.916076386	-0.898839075	-0.188483822	-0.304113
C	-1.383515074	-0.0957216429	 0.6347980589	 0.087236
O	-2.244020417	 1.0727367022	 0.8444735315	-0.308179
C	-3.2549544598	 0.4843030287	 0.0261637924	 0.107896
C	-2.8000485958	 0.3909173419	-1.3887356108	-0.293844
C	-2.3691637255	-0.6700486809	-0.38580426	-0.173243
H	 1.724215015	 1.3831526609	 1.097555361	 0.10808
H	 0.1400436208	 2.1536447301	 1.3159240032	 0.136725
H	 0.6150562872	 0.7958984831	 2.3459870085	 0.112857
H	-0.125653601	 0.0614918306	-1.9027952112	 0.11846
H	 1.3464804468	 0.9732925627	-1.3360043001	 0.107896
H	 1.9293624713	-0.980726507	 0.1907264996	 0.108742
H	 0.4402955183	-1.8532535531	-0.3917396641	 0.10869
H	-1.4155894154	-0.6943800035	 1.5571798134	 0.080608
H	-4.2816715125	 0.5322552045	 0.369612239	 0.102451
H	-3.5426088737	 0.0408316881	-2.0995611645	 0.113043
H	-2.1041172536	 1.1302503529	-1.7703590051	 0.122493
H	-2.603575128	-1.7183642325	-0.5090018006	 0.097697
