21
gdb 122432	3.96495	0.69032	0.66453	1.3132	75.94	-0.2579	0.0741	0.332	1744.6634	0.181187	-461.333958	-461.324112	-461.323167	-461.369944	36.019	
O	 0.0383369391	 1.26303639	-0.6693224669	-0.421201
C	-0.0861252991	 0.0272644757	 0.0062194613	-0.059789
C	-1.5411659509	-0.4035169326	 0.1068926494	-0.081607
O	-2.0243099162	-0.5130402513	-1.2229369078	-0.269633
C	-3.3955466328	-0.8053089476	-1.3149687428	 0.165488
C	-4.4246266065	 0.3213459719	-1.0067608412	-0.302302
C	-5.2136557657	-0.1512938853	-2.2597616936	 0.168038
O	-5.8594647523	 0.7863944849	-3.0794486735	-0.428919
C	-3.9293549141	-0.8689254039	-2.7592256128	-0.305615
H	-0.4737008382	 1.1650664688	-1.4806453822	 0.286427
H	 0.488117749	-0.7669790649	-0.4969625801	 0.09347
H	 0.3312070857	 0.1610960099	 1.0095510133	 0.108347
H	-1.630034328	-1.3666129297	 0.6356323764	 0.088534
H	-2.1176457162	 0.3510834958	 0.6629425342	 0.101079
H	-3.6237712939	-1.7207306098	-0.7495385972	 0.0711
H	-4.9358869564	 0.3354538861	-0.042288953	 0.103903
H	-3.9628937681	 1.2986260826	-1.188672513	 0.101101
H	-5.9857886982	-0.8756254032	-1.9852900499	 0.095779
H	-5.2115669387	 1.4478303898	-3.3444583405	 0.277221
H	-3.3358462928	-0.2004937588	-3.3927859602	 0.101767
H	-4.0199684056	-1.8411489483	-3.2467513899	 0.106812
