20
gdb 63306	2.53197	1.51389	1.23721	3.4103	78.56	-0.231	-0.0155	0.2155	1100.2053	0.170821	-403.162463	-403.153916	-403.152972	-403.195132	33.737	
C	 0.0776232942	 1.535176205	 0.0097676538	-0.433243
C	-0.0317038163	 0.0068022772	-0.0009802267	 0.290995
C	-1.5037611309	-0.4363754244	 0.0281604878	-0.428791
C	 0.6972196669	-0.6368492212	-1.215382258	-0.377432
C	 1.2518936364	-1.9728866571	-0.7084807038	 0.446061
O	 1.4193724129	-2.9779124714	-1.351834854	-0.328128
C	 1.4560651764	-1.8253753666	 0.7721169849	-0.168393
N	 2.1505122958	-0.5386578567	 1.0952488685	-0.343134
C	 0.6933373539	-0.618358518	 1.1997821733	-0.053952
H	 1.1259794398	 1.8431630372	 0.056191835	 0.131363
H	-0.3699506899	 1.9671313246	-0.8916983911	 0.114049
H	-0.4428369131	 1.9616709381	 0.8750933818	 0.106733
H	-2.0455746178	-0.0385410039	-0.835850593	 0.119619
H	-1.5958197297	-1.5279555253	 0.0068324307	 0.12079
H	-2.0060010324	-0.075024282	 0.9325349929	 0.112045
H	 0.0516533104	-0.7924412412	-2.0821259983	 0.119187
H	 1.5449836543	-0.0200756136	-1.532057407	 0.137535
H	 1.6194722058	-2.6984100701	 1.3922009655	 0.104553
H	 2.5651796227	-0.6367684217	 2.019448397	 0.241055
H	 0.2266841505	-0.571831709	 2.1801435009	 0.089089
