17
gdb 14946	4.56917	1.52375	1.19702	3.9006	73.92	-0.2156	-0.0014	0.2142	990.95	0.144888	-363.910008	-363.902929	-363.901985	-363.941371	26.895	
O	-0.0988086939	-0.0538489166	 0.0690836182	-0.328261
C	-0.0281196935	 1.1545176003	 0.0256395637	 0.14545
N	 1.1355908805	 1.8781340379	-0.0517670165	-0.06671
C	 1.1292561353	 3.3383051952	-0.0372419774	-0.168279
C	 2.2095126527	 3.8839483334	-0.9757945232	-0.214797
C	 3.5933050746	 3.3518055457	-0.5693635527	-0.255423
C	 3.5288598561	 1.8780936808	-0.2652947754	-0.136224
C	 2.3779899543	 1.230204511	-0.0663059818	 0.033163
H	-0.9165308313	 1.8149798759	 0.0435370313	 0.075186
H	 0.1343716635	 3.6825258649	-0.3337075223	 0.117319
H	 1.3152630246	 3.696199871	 0.9852642682	 0.116836
H	 1.9801284901	 3.5676461369	-1.9994445044	 0.116529
H	 2.1888026938	 4.9777676644	-0.9583381727	 0.104744
H	 4.3143824396	 3.5376722597	-1.3744851194	 0.110684
H	 3.9740097744	 3.9065960339	 0.3004982444	 0.111219
H	 4.4530104302	 1.311970672	-0.2296100762	 0.096684
H	 2.3039842489	 0.1638570636	 0.1023393061	 0.141879
