14
gdb 35661	4.17131	0.958	0.82886	4.1685	75.31	-0.2627	-0.0683	0.1945	1300.3342	0.102364	-395.749741	-395.741707	-395.740762	-395.783236	28.474	
N	-0.0182401299	-1.1702702295	-0.0718386922	-0.312567
C	-0.0190165764	-0.0153404416	-0.0610205738	 0.29536
C	-0.0250063955	 1.4641459068	-0.0814519448	-0.162121
N	-0.6279510757	 2.0284504122	 1.129983216	-0.310076
C	 0.2094551949	 3.1122306411	 1.658859713	-0.256514
C	 1.4959713013	 2.9579990314	 0.8774583655	 0.206058
C	 1.3726297275	 2.0412641684	-0.0845704351	-0.164877
C	 2.6551226995	 3.7289809438	 1.1590846485	 0.217703
N	 3.5803557075	 4.3779502464	 1.4103978812	-0.317383
H	-0.5483671491	 1.7569148954	-1.0082795026	 0.134986
H	-1.5916928292	 2.2961301193	 0.9949104417	 0.243509
H	-0.2199689898	 4.1131297726	 1.5005151766	 0.127587
H	 0.3792001976	 3.0012134137	 2.7375811704	 0.143586
H	 2.1337049573	 1.7334969099	-0.7877413344	 0.154751
