19
gdb 18525	5.50356	1.14049	1.07788	1.696	71.95	-0.2325	0.0748	0.3073	1167.3773	0.165322	-365.006444	-364.998367	-364.997423	-365.039461	29.699	
C	 0.0420037615	 1.5111084364	-0.0483271723	-0.384708
C	-0.1030586337	 0.005981402	-0.1923324774	-0.03955
O	 0.9411117353	-0.4692435951	-1.0241095163	-0.256115
C	 0.9131231345	-1.8575123815	-1.2224892118	 0.136361
C	-0.0716013132	-2.4704359887	-2.2648371775	-0.203611
N	 1.0636155809	-3.0848429348	-3.0422701126	-0.128735
C	 1.8784225579	-1.9447926884	-3.4919623124	-0.229839
C	 2.036245236	-2.3884235578	-2.0934499791	-0.066376
H	 1.0112681392	 1.7618137768	 0.3918316226	 0.128191
H	-0.0261362207	 1.9984753086	-1.0250638698	 0.126502
H	-0.7472040526	 1.9109084553	 0.5953332436	 0.115383
H	-0.0513121655	-0.485537375	 0.7939059454	 0.087625
H	-1.0843784215	-0.2468224636	-0.6261628903	 0.089886
H	 0.8499516918	-2.3820033747	-0.2581831186	 0.073005
H	-0.7239106868	-3.2489968339	-1.864726201	 0.110014
H	-0.6639193455	-1.7543181085	-2.8441328212	 0.105519
H	 2.6587196554	-2.2312888325	-4.1901247208	 0.120797
H	 1.3950735247	-0.9944850662	-3.7049628255	 0.120966
H	 2.9341005923	-2.8783838983	-1.732377435	 0.094686
