13
gdb 25094	3.38217	1.4187	1.03216	1.3362	71.63	-0.2623	-0.1011	0.1612	1062.9892	0.09028	-452.765089	-452.757845	-452.756901	-452.79789	26.369	
N	-0.1147655072	 1.3079397819	-0.6466871114	-0.466843
C	-0.0469537978	 0.1511559028	-0.1079892918	 0.306766
C	-1.2640905832	-0.6610177732	-0.0343782692	-0.131764
C	-1.5544695442	-1.6846718372	 0.7675106038	 0.052105
O	-0.8352218844	-2.2573112075	 1.7767677993	-0.209383
C	 0.4711458537	-2.0265588289	 2.0926709241	 0.382582
O	 0.9085694717	-2.5121314461	 3.0966338151	-0.282282
C	 1.3960144254	-1.2454310125	 1.1902237475	-0.07718
N	 1.2069937201	-0.3421038343	 0.3210805453	-0.253428
H	 0.8219021298	 1.7190090498	-0.6667045446	 0.234812
H	-2.0522115071	-0.3449326099	-0.7080618129	 0.137297
H	-2.5186814992	-2.1757007318	 0.7145556478	 0.148894
H	 2.4279529723	-1.5080930231	 1.4293233769	 0.158424
