18
gdb 43629	3.65145	1.08066	1.04805	4.8582	72.38	-0.2463	0.0382	0.2845	1206.1934	0.148157	-439.085851	-439.077546	-439.076602	-439.119832	30.339	
O	 0.3169135949	 0.0257650727	-0.0712027713	-0.357193
C	 0.129569202	 1.2109504044	-0.0554781066	 0.439073
C	-1.0970425266	 2.1529321456	-0.0978410974	-0.401566
C	-0.0669153736	 3.3151033995	 0.0559698534	 0.014781
N	 0.9823141192	 2.2880869954	 0.0419395947	-0.322309
C	-0.0322220927	 4.3181996923	-1.0849657627	 0.139246
C	 1.3155381941	 5.0014571672	-1.4186082892	-0.301707
C	 1.1800123641	 4.2791260599	-2.7736540131	-0.054348
O	-0.0743700055	 3.6824959997	-2.3797952796	-0.285865
H	-1.629785618	 2.1435281479	-1.0490683801	 0.151421
H	-1.7907679707	 2.0211843251	 0.7334518036	 0.128748
H	-0.1375086706	 3.8521062238	 1.0107541475	 0.082935
H	 1.97454305	 2.3284872744	 0.2221604261	 0.247288
H	-0.8743754768	 5.0139575072	-0.9597328305	 0.081247
H	 1.2889336998	 6.0908179861	-1.4585334905	 0.117772
H	 2.1612672593	 4.6877418697	-0.8034751533	 0.102905
H	 1.0632662355	 4.9298758561	-3.6481018726	 0.106632
H	 1.9396904556	 3.519795093	-2.9907944584	 0.11094
