15
gdb 34791	2.35575	1.5785	1.10989	2.2071	77.16	-0.2633	-0.0052	0.2581	1079.6523	0.112779	-379.56346	-379.555826	-379.554881	-379.595694	29.219	
C	-0.0846153929	-1.2277236549	-0.0607762042	-0.402056
C	-0.0182262821	-0.0291378674	-0.0000630159	 0.330823
C	 0.0428430969	 1.4128743057	 0.0305352761	-0.213099
N	 0.0667731904	 2.1077429926	 1.4246260927	-0.151773
C	 1.5398452933	 1.660859843	 1.4920456162	-0.216186
C	 1.4178757087	 2.1607523706	 0.0316105348	 0.199064
C	 0.611321371	 3.3229958075	 0.6554425344	-0.202553
C	 2.4166579205	 2.1978021777	-1.0161260692	 0.150036
N	 3.2115788366	 2.2311467704	-1.854883141	-0.335595
H	-0.1430878045	-2.2875173277	-0.1106138353	 0.209189
H	-0.7182236878	 1.8511188124	-0.620726936	 0.120589
H	 2.1435282675	 2.2601910773	 2.1754629658	 0.122734
H	 1.6718041028	 0.591415978	 1.652721588	 0.140671
H	-0.130848175	 3.8233310834	 0.0296799978	 0.122773
H	 1.1557356347	 4.0264605315	 1.2866675858	 0.125382
