14
gdb 124426	3.27683	1.23102	0.989	3.5417	66.23	-0.314	-0.044	0.2701	1149.3372	0.101539	-432.880378	-432.87248	-432.871535	-432.913967	27.675	
C	 0.0152757823	 1.6087041726	 0.2118921515	-0.392568
C	-0.0642514166	 0.0890932801	-0.0275177651	-0.244026
C	 0.725546442	-0.6449924053	 0.9724396932	 0.283832
N	 1.3607885769	-1.1960927269	 1.7640755645	-0.31379
C	-1.4770102518	-0.4376471641	-0.0479782337	 0.383323
N	-2.5091679516	 0.297426141	 0.2663467953	-0.163385
O	-3.5896194527	-0.5728851798	 0.0971328014	-0.15053
C	-3.0698153966	-1.7348510883	-0.3023046652	 0.11105
N	-1.7814577947	-1.7307133164	-0.4178320649	-0.293927
H	 1.0574283218	 1.9327723522	 0.1887108714	 0.140302
H	-0.541439795	 2.1345281443	-0.5662074123	 0.143644
H	-0.4148081356	 1.8716656428	 1.1797574567	 0.159441
H	 0.3721140293	-0.1496648967	-1.0059765028	 0.158585
H	-3.7588298878	-2.5456112457	-0.4880225301	 0.178049
