16
gdb 31930	3.27201	1.09432	0.86133	2.2365	76.76	-0.2588	-0.066	0.1927	1321.3346	0.124239	-437.941023	-437.932637	-437.931693	-437.975217	29.464	
C	-0.0921415306	 1.4671142791	 0.4487514123	-0.384413
C	-0.098133685	 0.0321005521	-0.1073169089	-0.293251
C	-1.4614756223	-0.5616807638	-0.1668945725	 0.399444
N	-2.1312386152	-0.9416559458	-1.2221810952	-0.300725
C	-3.3269530402	-1.4022376306	-0.7205004487	-0.157958
C	-3.3334173091	-1.2790272667	 0.6396705253	 0.229155
O	-2.1251599742	-0.7346859402	 0.9960307314	-0.186476
C	-4.3226946293	-1.606127484	 1.6507642285	 0.061319
O	-4.1919662175	-1.4410668972	 2.8423627189	-0.275646
H	 0.9306049748	 1.8511772179	 0.4852876922	 0.126577
H	-0.6854254052	 2.1341308217	-0.1831822015	 0.133422
H	-0.5059361877	 1.4958688612	 1.4599690816	 0.143882
H	 0.3064048412	 0.0037395239	-1.1214312524	 0.141653
H	 0.5355951473	-0.6061034273	 0.5201191924	 0.135272
H	-4.1042113067	-1.791060488	-1.3608269922	 0.143559
H	-5.2477876303	-2.0390803321	 1.2120192587	 0.084187
