19
gdb 60693	4.47844	0.79642	0.72124	2.894	81.	-0.242	-0.0598	0.1821	1564.0909	0.158614	-419.205551	-419.196122	-419.195178	-419.240588	34.458	
N	-0.4945172592	 0.9735730042	-0.6878151793	-0.552096
C	-0.3060934639	-0.211681267	-0.0299832617	 0.259212
C	 1.1236135576	-0.666131969	 0.0115649761	 0.143493
O	 2.0189420105	-0.0791579084	-0.5478399744	-0.270257
N	-1.1439286152	-0.9615339242	 0.5832344253	-0.273856
C	-2.5487331313	-0.5763619868	 0.6304224265	-0.197629
C	-3.2969955543	-0.8141233862	-0.6764618991	 0.022361
C	-4.7461718214	-0.4271314798	-0.7888927265	-0.274958
C	-3.7081951546	 0.3232462158	-1.5872646403	-0.26657
H	 0.3146550837	 1.2998900827	-1.1977201722	 0.266837
H	-1.3936998823	 1.160475204	-1.0975367636	 0.265988
H	 1.2698597981	-1.5900705673	 0.600903959	 0.108021
H	-3.0177754152	-1.1778047723	 1.4169080347	 0.111169
H	-2.6620283061	 0.4813419439	 0.9234471234	 0.095722
H	-3.0118067509	-1.7384107538	-1.1705546147	 0.098402
H	-5.420125495	-1.0937144418	-1.3150775824	 0.117657
H	-5.198837884	 0.0889053394	 0.051849474	 0.116632
H	-3.499288206	 1.3421850366	-1.269939478	 0.110408
H	-3.6691278006	 0.1755260802	-2.661090917	 0.119464
