13
gdb 48637	2.69408	1.63754	1.35376	3.0338	65.47	-0.2654	-0.0537	0.2117	941.061	0.087238	-456.534263	-456.526936	-456.525992	-456.56638	26.977	
O	-0.1399100788	 0.0395392453	-0.1986572391	-0.249657
C	 0.015650982	 1.1567626372	 0.2263044598	 0.039672
C	 1.2907466165	 1.9075546145	 0.0651724191	 0.176805
O	 1.4499284776	 3.099089575	 0.8744065554	-0.292074
C	 2.5487489483	 3.4775528478	 0.0103877211	-0.097432
C	 3.4888444672	 2.2981051143	 0.0956869794	-0.090591
C	 2.6445842967	 1.2494222376	 0.11457714	-0.119377
C	 1.621682478	 2.9435650621	-1.1773500853	 0.384928
O	 1.2714812399	 3.2028704025	-2.266684713	-0.257984
H	-0.7873896795	 1.7226258525	 0.7426200399	 0.105528
H	 2.8864757834	 4.5050346826	 0.1153236399	 0.117259
H	 4.5667982185	 2.3266423708	 0.0471070704	 0.134888
H	 2.8242972202	 0.1858751179	 0.0873641924	 0.148035
