14
gdb 129845	4.06007	1.07106	0.84809	1.5304	68.14	-0.2194	-0.0091	0.2103	1257.2948	0.102118	-470.027951	-470.020047	-470.019103	-470.060702	29.12	
N	 0.1645821556	 1.4140351481	 0.1515910492	-0.595473
C	-0.0191951672	 0.0592217304	 0.0544808163	 0.512711
C	-1.1347121276	-0.7327723396	 0.0432302886	-0.456979
C	-0.5751707462	-2.034969476	 0.0033502189	 0.521827
N	-1.2292554547	-3.2610414857	-0.0212277556	-0.402872
C	-2.5848888367	-3.4607760268	-0.0191031683	 0.151626
O	-3.4276584442	-2.5941537399	 0.0026605352	-0.301356
N	 0.7413158495	-2.0464977937	-0.0123143164	-0.262703
O	 1.09631517	-0.6817360426	 0.0205394411	-0.212415
H	 1.0589521553	 1.7406606616	-0.185253171	 0.269003
H	-0.6104019359	 1.9737530179	-0.1694074649	 0.269931
H	-2.1730197021	-0.4624268313	 0.0651383312	 0.147003
H	-0.6263883094	-4.0711142373	-0.042427591	 0.268652
H	-2.8240812162	-4.540767665	-0.0407579534	 0.091045
