14
gdb 2051	4.93725	2.70448	1.81524	3.1864	60.36	-0.2516	0.0079	0.2595	678.3845	0.114916	-324.592221	-324.585863	-324.584919	-324.62347	22.802	
N	-0.1273996031	 1.2923165217	-0.3450352909	-0.512036
C	-0.015032703	 0.0923552318	 0.0445316488	 0.389936
C	-1.2113933776	-0.8344977003	 0.0039806208	-0.332108
C	-1.1078818095	-1.9949592941	 0.9496631768	-0.066255
C	 0.0728344368	-2.4072698635	 1.3931167939	-0.078008
C	 1.3393078297	-1.7224702485	 0.9875997427	-0.110815
O	 1.1747230481	-0.3863669417	 0.5007781589	-0.252705
H	 0.7713149482	 1.7722410303	-0.2633290296	 0.216172
H	-2.0988537398	-0.2256667863	 0.1923304419	 0.146746
H	-1.3230915837	-1.2043390872	-1.0263154433	 0.142435
H	-2.0250494459	-2.4994349974	 1.2375618083	 0.102841
H	 0.1756011431	-3.264040853	 2.0518201645	 0.103015
H	 2.0262255961	-1.6411915627	 1.8379796638	 0.127549
H	 1.8629429106	-2.3063058191	 0.2146760634	 0.123235
