11
gdb 129792	3.54088	1.68142	1.14047	6.2194	62.94	-0.242	-0.0691	0.1729	935.6142	0.065586	-484.795795	-484.788759	-484.787815	-484.827124	26.015	
N	 0.0397216354	 1.3803812841	 0.1274047234	-0.589712
C	-0.0576490994	 0.0398480084	 0.0433172023	 0.438971
C	-1.11101205	-0.8500204427	 0.0245526374	 0.063972
N	-2.4609993792	-1.0098653236	 0.0312794282	-0.155077
N	-2.8184380578	-2.1708717847	-0.0022116874	-0.021828
O	-1.4146555984	-3.0828160875	-0.0426994769	-0.31233
C	-0.5134825265	-2.1416181146	-0.0214527555	 0.516778
N	 0.7993615177	-2.1181493513	-0.0331407966	-0.297848
O	 1.0662241244	-0.6677903058	 0.0077808709	-0.222574
H	 0.9371003818	 1.7972752501	-0.0628617712	 0.289205
H	-0.775508158	 1.9356617678	-0.0707129545	 0.290441
