14
gdb 20916	3.52076	1.92941	1.35147	2.6834	58.97	-0.2425	-0.0037	0.2388	886.2378	0.108043	-415.900949	-415.893729	-415.892785	-415.933218	25.458	
C	-0.0989191925	 1.5953853933	-0.1103100182	-0.379794
C	 0.0897443829	 0.0807782303	-0.0415207744	-0.14925
N	 0.7561138579	-0.4556779093	-1.2145170836	-0.092467
N	 0.1463537382	-0.4713725403	-2.4535526696	-0.232005
C	 1.0337465547	-0.9969316699	-3.2161697812	 0.101988
O	 2.1893413813	-1.3352251364	-2.6005108	-0.200668
C	 2.0211032463	-0.9758229079	-1.2544523569	 0.493058
O	 2.8446870373	-1.1252163126	-0.3967723123	-0.398947
H	 0.866237761	 2.1068286932	-0.1654431341	 0.134135
H	-0.6896046562	 1.8704804235	-0.9880100329	 0.142517
H	-0.6245064434	 1.9458980305	 0.7827123396	 0.126165
H	 0.7196198701	-0.2037281234	 0.8050603158	 0.153007
H	-0.8747573388	-0.4263326969	 0.0641411878	 0.130645
H	 0.9395812413	-1.1880837141	-4.27269764	 0.171617
