17
gdb 66964	2.57446	1.71962	1.28076	2.0857	77.49	-0.2302	0.0381	0.2683	1019.1766	0.134416	-384.587647	-384.579762	-384.578818	-384.619794	30.917	
C	 0.0376784396	 1.507121052	 0.111887601	-0.511981
C	 0.034351817	 0.013482384	 0.0085056186	 0.292185
C	-0.9096351262	-0.909324827	 0.8016815363	 0.051454
O	-1.0748135575	-2.1291695539	 0.0809969765	-0.281146
C	 0.3413661101	-2.0465615464	-0.2098475833	 0.057495
C	 0.5663118199	-1.0427037149	 0.978944422	-0.223065
C	 0.4536935344	-0.8423139697	-1.2037493289	-0.24492
C	-0.3439423897	-0.8456772204	-2.4151582204	 0.316691
C	-0.9973211239	-0.832194015	-3.4245560679	-0.440531
H	 1.0305862448	 1.9229685139	-0.0931674903	 0.122821
H	-0.6655806197	 1.9460692172	-0.6042775232	 0.137683
H	-0.2582071475	 1.8348997936	 1.1143433235	 0.121886
H	-1.7031827546	-0.5661030951	 1.452446364	 0.11128
H	 0.8117048485	-3.0078685579	-0.4024148	 0.093537
H	 1.2378688468	-1.0018408796	 1.8252212983	 0.102057
H	 1.5095245116	-0.6544901097	-1.427073431	 0.101496
H	-1.5839991537	-0.8327924611	-4.3096606853	 0.193057
