16
gdb 46745	2.79055	1.8582	1.40845	2.2064	67.24	-0.2458	-0.0452	0.2006	920.0909	0.125116	-437.838964	-437.831944	-437.831	-437.870959	26.904	
O	-0.0287552262	 0.016434637	-0.3809113235	-0.290878
C	-0.0117493905	 1.1717205775	-0.0531331744	 0.357507
C	-1.2378668782	 2.0211136974	 0.3113784107	-0.184225
O	-0.7770775872	 3.2558426877	 0.8377788503	-0.273034
C	 0.6275204322	 3.4008785312	 0.6309206267	 0.087192
C	 1.5367457508	 3.1943502624	 1.8480324434	-0.036104
C	 1.322646822	 1.8772093287	 2.4693798067	-0.251949
N	 2.1453490601	 1.9227976379	 1.243786313	-0.137671
C	 1.197794492	 2.097955584	 0.0672846287	-0.124902
H	-1.8520739488	 2.1764256061	-0.5890685471	 0.131343
H	-1.8572601349	 1.4993576577	 1.0510094256	 0.139296
H	 0.8273722054	 4.3206324765	 0.0760026167	 0.095791
H	 2.1660134658	 3.9579616034	 2.2915023419	 0.10491
H	 1.9205549111	 1.648257761	 3.3457184784	 0.135102
H	 0.3427217991	 1.4087657399	 2.4676426348	 0.129975
H	 1.7659974875	 2.1366310516	-0.8626374719	 0.117647
