14
gdb 131843	2.81039	1.36179	1.10009	3.9412	59.39	-0.2787	-0.0454	0.2333	1082.4105	0.100063	-507.112597	-507.104325	-507.103381	-507.147171	28.465	
O	 0.1111816559	 1.2955076522	-0.2601235989	-0.414331
C	-0.0364110282	-0.0880909115	-0.0131101108	-0.085276
C	-1.5306685223	-0.3801187458	 0.0683058395	-0.157688
N	-2.2101510698	-0.1011542645	-1.1861578146	-0.086149
N	-3.024755602	 0.9552701459	-1.3630596562	-0.035905
N	-3.4229229225	 0.9902628351	-2.5478642697	 0.017056
O	-2.8446850404	-0.0984622964	-3.2496509113	-0.233367
C	-2.057288051	-0.7925842741	-2.3731014518	 0.555118
O	-1.401299678	-1.7692892421	-2.6061329415	-0.397054
H	 1.0230687745	 1.4684830059	-0.510459897	 0.29895
H	 0.405580447	-0.7017179022	-0.8094478049	 0.131533
H	 0.4191645213	-0.3921334855	 0.9424124798	 0.102563
H	-1.6924226346	-1.4316034964	 0.3220336068	 0.146387
H	-2.0030269498	 0.2503227396	 0.8236532607	 0.158163
