18
gdb 36120	3.95688	1.13347	1.00067	1.7926	81.53	-0.2296	0.0045	0.2341	1204.2014	0.147853	-364.763086	-364.754981	-364.754036	-364.795912	31.67	
C	-0.0570101848	-1.167039022	-0.4166733613	-0.461848
C	-0.0459651227	 0.0051268669	-0.1510733565	 0.316548
C	-0.0044650078	 1.4263490832	 0.1839223711	-0.428269
C	 1.4082583107	 1.9861677923	 0.1970326055	 0.329699
C	 2.4384162843	 1.3899936955	 1.163155873	-0.328306
C	 3.3576119089	 2.5523343566	 1.4726351867	-0.092144
C	 2.9377609546	 3.6844266753	 0.900021118	-0.077023
C	 1.7261886402	 3.4440277036	 0.0609180051	-0.123139
N	 1.8947341623	 2.5100559127	-1.0814303765	-0.356918
H	-0.0782090972	-2.2003083261	-0.6598241898	 0.194679
H	-0.5959687158	 1.9945918071	-0.5420845232	 0.140441
H	-0.467192128	 1.5813427447	 1.1678153365	 0.127361
H	 1.9502756172	 1.0120734491	 2.0716670973	 0.116722
H	 2.9656924592	 0.5333677594	 0.7254754855	 0.123748
H	 4.2547009701	 2.4429512368	 2.0713315957	 0.100914
H	 3.4136676361	 4.6544466731	 0.9832334497	 0.102067
H	 0.9783591871	 4.2173556068	-0.0853244222	 0.090905
H	 2.8839919855	 2.3038450752	-1.2092937446	 0.224564
