16
gdb 5245	6.7928	1.03517	0.95894	3.7292	66.79	-0.2176	0.0318	0.2494	1180.1804	0.132347	-379.953631	-379.945841	-379.944897	-379.986652	27.752	
O	-0.0836416033	 1.4548022517	 0.101985302	-0.416097
C	 0.0259924875	 0.0420866705	 0.0853486514	-0.061128
C	-1.381290087	-0.5256519096	-0.1285282505	-0.309942
C	-1.4226949334	-2.0174294053	-0.1312417472	 0.285714
C	-1.5318630085	-2.9432496545	-1.1387496624	-0.162673
N	-1.4969132851	-4.2281625141	-0.6458552553	-0.251998
C	-1.3669191945	-4.0926413169	 0.6521692358	 0.009492
N	-1.3137065311	-2.7791994513	 1.0188300737	-0.295143
H	 0.800477414	 1.8270334459	 0.1674847489	 0.288786
H	 0.6848026823	-0.3087368458	-0.7231843437	 0.099506
H	 0.4427964179	-0.3394338971	 1.0323920705	 0.077925
H	-2.0385984988	-0.1120741858	 0.6469865816	 0.112895
H	-1.760601156	-0.1564827474	-1.0859361521	 0.128966
H	-1.6389667735	-2.7493489788	-2.1958811631	 0.104648
H	-1.3088431755	-4.8943852881	 1.3734245753	 0.126667
H	-1.235215895	-2.4237074334	 1.9571725151	 0.262382
