17
gdb 111825	2.65722	1.50796	1.14855	3.1455	68.98	-0.2246	-0.0432	0.1813	1090.2516	0.13467	-458.916178	-458.907753	-458.906808	-458.949854	30.111	
C	 0.2296507816	 1.5503842567	 0.1493249896	-0.248513
O	-0.320973531	 0.2622735179	 0.3829107328	-0.240556
C	 0.4899825776	-0.5531471733	 1.1705349923	 0.011317
C	-0.0417425626	-1.9835761442	 1.4355356563	-0.140862
C	-0.6584908749	-2.6642363064	 0.2051340424	-0.076657
O	 0.6383703609	-3.1388227465	-0.24979393	-0.283134
C	 1.2989814635	-2.6034420302	 0.9181562688	-0.017931
C	 1.7900531207	-1.1761073992	 0.5691025354	 0.382086
O	 2.7446528898	-0.7294683222	 0.0046225131	-0.292392
H	 1.1932118434	 1.4883920952	-0.3687042404	 0.144845
H	-0.48604056	 2.0912155101	-0.4730633482	 0.132008
H	 0.3696291921	 2.0974757389	 1.0941327382	 0.108403
H	 0.7575503915	-0.059260263	 2.1239603894	 0.091841
H	-0.4744519995	-2.1795399241	 2.4132394184	 0.091968
H	-1.3181417473	-3.5074746675	 0.437967411	 0.109144
H	-1.1391603718	-2.0019239169	-0.5195226733	 0.131778
H	 1.944676086	-3.3211946754	 1.4285640543	 0.096654
