14
gdb 43513	2.65416	1.47906	1.03966	0.5897	72.52	-0.2527	-0.003	0.2497	1102.8107	0.101189	-432.858103	-432.850127	-432.849183	-432.891137	29.688	
N	-0.0656365973	 1.3055808856	 0.0073515792	-0.579338
C	-0.0161956348	 0.0470439123	 0.0077863418	 0.474609
N	-1.1271110591	-0.7845866108	 0.0116118075	-0.37612
C	-0.810189892	-2.1250091822	-0.0027397198	 0.385291
N	-1.5177426352	-3.171757134	-0.0460839774	-0.532797
C	 0.7258984063	-2.1374563561	 0.0304713978	-0.139436
O	 1.0978480604	-0.7395987585	-0.0079403536	-0.242949
C	 1.2762707359	-2.789777753	 1.207714846	 0.3648
C	 1.7397700052	-3.3293222815	 2.1741668431	-0.456762
H	 0.8708775758	 1.7032241282	 0.0052284327	 0.236362
H	-2.058095886	-0.4020129028	 0.0056411238	 0.278511
H	-2.5166563084	-2.9649373115	-0.0684938961	 0.220253
H	 1.1064266367	-2.6119415141	-0.8806230365	 0.154081
H	 2.1444105126	-3.8109167216	 3.0303812414	 0.213495
