18
gdb 91176	2.5589	1.91204	1.86953	1.2463	73.78	-0.2189	-0.006	0.2128	870.6236	0.151051	-401.930185	-401.923563	-401.922619	-401.960779	27.963	
O	 0.2299921901	 1.3990885153	-0.2453294301	-0.43696
C	 0.0391324833	 0.0125764658	-0.0204743913	 0.106935
C	 0.6166008215	-0.5120820483	 1.325679885	-0.237233
C	-0.6156831913	-0.5611358408	 2.2539767117	-0.063828
C	-1.0355003494	 0.8428955577	 2.6529399604	-0.083277
C	-2.0283263029	 1.2632342569	 1.867635857	-0.112568
C	-2.4362672702	 0.1665321743	 0.9429644992	-0.067527
C	-1.4196624992	-0.4672590982	 0.0376876487	-0.060957
N	-1.7219498043	-1.0639005176	 1.3591971467	-0.119077
H	-0.2225115925	 1.8677289671	 0.4640616816	 0.27908
H	 0.5396242408	-0.4676689392	-0.865301796	 0.09215
H	 1.0117532403	-1.5249718526	 1.1942913692	 0.109672
H	 1.4264338398	 0.1270639684	 1.6877939565	 0.107122
H	-0.4826626569	-1.2355852412	 3.1043462937	 0.084063
H	-0.510871825	 1.4275428517	 3.399898098	 0.107925
H	-2.5038144512	 2.2364687243	 1.88376214	 0.109575
H	-3.4884688784	 0.0569096007	 0.6894895282	 0.094436
H	-1.7939298444	-1.028402654	-0.8148904583	 0.090467
