21
gdb 95702	2.71608	1.24883	0.95457	2.6457	79.54	-0.2128	-0.0161	0.1967	1279.8059	0.184075	-420.412854	-420.403803	-420.402858	-420.447019	34.659	
C	 0.5821465088	 1.6846988981	 0.0129474717	-0.397964
C	-0.0118192981	 0.2742948945	 0.0410831568	 0.038032
C	 0.1462150252	-0.4114928759	-1.3376244987	-0.149979
N	-0.448826421	-1.7325473273	-1.4806862061	-0.286125
C	 0.2764818938	-2.8536811847	-0.9189858883	-0.272881
C	 0.6027897185	-2.8800127287	 0.5875525706	 0.346663
O	 1.3422058578	-3.7298304063	 1.0302916661	-0.303433
C	 0.0224303645	-1.7787647111	 1.4779793753	-0.245073
N	 0.5478110351	-0.4483946365	 1.1810467039	-0.286345
H	 1.6620904938	 1.6486475567	-0.1775121509	 0.113192
H	 0.1285324693	 2.2872321774	-0.7795020365	 0.117728
H	 0.4253255938	 2.1869836908	 0.9703661327	 0.12786
H	-1.0928006925	 0.3569280395	 0.2362343537	 0.074144
H	-0.2903579124	 0.2472087207	-2.1007241029	 0.098568
H	 1.215340215	-0.4985172807	-1.5771151441	 0.09711
H	-1.422292977	-1.7318586376	-1.2006785182	 0.21608
H	-0.2827542177	-3.77535355	-1.124190105	 0.13263
H	 1.2319979142	-2.9710659872	-1.4462582483	 0.135764
H	-1.0698743413	-1.7435393485	 1.3780409473	 0.103589
H	 0.2619664892	-2.0456420516	 2.5121351459	 0.121064
H	 1.5623264811	-0.4629029014	 1.143055745	 0.219376
