16
gdb 81879	3.03729	1.3375	1.02934	2.7915	71.8	-0.2527	-0.0545	0.1982	1142.1167	0.122136	-437.864419	-437.855848	-437.854904	-437.897889	30.752	
C	-0.2064043019	 1.5956715044	-0.0223604232	-0.41896
C	 0.0906387502	 0.1073643642	 0.0132653892	-0.063978
N	 0.7255676147	-0.5354951439	-1.2097740023	-0.141732
C	 2.0578302955	-0.0019646939	-1.3295372645	-0.263409
C	 1.8642472067	-1.0918402509	-0.3077613987	 0.093032
C	 2.4622232168	-2.4400326479	-0.4805697631	 0.064947
O	 2.767030424	-2.9001489573	-1.5527345625	-0.247677
C	 1.1961759103	-0.5062327633	 0.9010184389	 0.33534
O	 1.3441502471	-0.6488738184	 2.080625536	-0.305793
H	 0.6833925193	 2.2041236536	-0.2011467677	 0.127838
H	-0.940012424	 1.8188159638	-0.8028320689	 0.141102
H	-0.6278028247	 1.9003625847	 0.9401037234	 0.14771
H	-0.8310955016	-0.4501631107	 0.2168359935	 0.12921
H	 2.5785686824	-0.3336033312	-2.2234571693	 0.163815
H	 2.2940576955	 1.0026614275	-0.9894594629	 0.133193
H	 2.6111705497	-2.9994154007	 0.465778652	 0.105361
