25
gdb 118460	1.93944	0.98853	0.69463	2.0098	85.88	-0.2515	0.0738	0.3253	1696.0902	0.226625	-426.618151	-426.606392	-426.605448	-426.655271	42.6	
C	-0.033545724	 1.4130557495	 0.9238359453	-0.392001
C	-0.0194427573	-0.0324195346	 0.396436925	 0.031548
C	 0.6358095804	-0.9371578623	 1.4516462554	-0.401359
C	-1.4444241691	-0.4920647578	-0.0326836358	 0.031875
C	-1.8443905133	 0.2057626717	-1.3407212109	-0.092395
O	-3.2650722378	 0.2217762384	-1.4423034217	-0.41717
C	-1.5718346882	-2.022809121	-0.1467753778	-0.187186
C	-2.9521515044	-2.5512174839	-0.5283234429	-0.085602
O	-2.8927580507	-3.9698133266	-0.4052960843	-0.427206
H	 0.9841057809	 1.7603666615	 1.1300322273	 0.110214
H	-0.4849170516	 2.1197462232	 0.2223358333	 0.112292
H	-0.5991619906	 1.4723971823	 1.8613061179	 0.114761
H	 0.6184113466	-0.0620902454	-0.5004933899	 0.067636
H	 0.0105505084	-1.0155759252	 2.3492215058	 0.113765
H	 0.8208735779	-1.9481867519	 1.0821870311	 0.121078
H	 1.599151673	-0.5172222026	 1.7594605818	 0.105815
H	-2.1527620687	-0.1447556529	 0.7337068571	 0.077642
H	-1.4546934082	 1.2324618051	-1.3650431879	 0.087069
H	-1.3921062736	-0.3326176808	-2.190322852	 0.084519
H	-3.5003310358	 0.6041001987	-2.292823361	 0.284502
H	-0.8398421444	-2.4038303725	-0.8722762755	 0.094029
H	-1.3222747749	-2.4858448281	 0.8123328963	 0.108653
H	-3.7137739604	-2.1240945276	 0.1425486728	 0.087471
H	-3.2234921122	-2.2510646622	-1.5476690691	 0.088698
H	-3.741566232	-4.3255752348	-0.6830974302	 0.281353
