20
gdb 83834	2.11676	1.82844	1.31492	3.2104	80.24	-0.2479	0.0213	0.2692	1063.8694	0.173178	-403.158969	-403.150782	-403.149838	-403.191747	31.889	
C	-0.1360870917	 1.5131226966	 0.1820114568	-0.419811
C	 0.0211583153	 0.0211692944	-0.0075831331	-0.01248
C	 0.6529506738	-0.6011457623	-1.2263464109	-0.076349
C	 1.2883156579	 0.2608143476	-2.3125596115	-0.239953
C	 2.7763560986	 0.44568712	-2.0389655184	-0.079358
O	 3.0224199708	 0.9310622729	-0.7096603713	-0.253934
C	 2.6000455819	 0.1364862547	 0.3279941162	 0.375315
N	 3.2011902969	 0.1348104228	 1.4432116382	-0.520699
C	 1.3727379121	-0.6749273694	 0.1107242626	-0.108882
H	 0.7226056064	 2.0722802266	-0.1964860766	 0.133965
H	-1.0327749672	 1.8796372856	-0.3305901688	 0.114506
H	-0.2377136465	 1.7518701925	 1.2453987287	 0.130555
H	-0.7932938844	-0.558366147	 0.4189184	 0.092201
H	 0.2077049912	-1.5286312451	-1.5710101252	 0.090544
H	 1.1671218701	-0.2169151927	-3.2900652385	 0.107324
H	 0.8028817652	 1.2400742144	-2.3789186015	 0.114926
H	 3.3124121838	-0.5029929942	-2.1776339031	 0.108927
H	 3.224442916	 1.1901629905	-2.70155773	 0.115851
H	 4.0195121839	 0.74588231	 1.3928324592	 0.216035
H	 1.3868483459	-1.611923438	 0.652887797	 0.111319
