21
gdb 80865	2.16723	1.65117	1.43108	1.2372	77.06	-0.2387	0.068	0.3067	1058.9518	0.183036	-424.220056	-424.211334	-424.21039	-424.25254	34.968	
C	-0.0959672505	 1.5052655378	 0.0343340354	-0.42427
C	 0.0783680599	-0.0118875034	 0.0180377564	 0.005518
C	 1.0326349492	-0.5806007401	-1.0868117451	-0.252635
C	 2.0202056935	-1.3702759004	-0.2002651943	-0.074003
C	 2.3014810787	-0.3585390776	 0.9418799466	-0.302029
C	 0.7897098585	-0.5992877596	 1.2556631242	 0.367655
O	 0.1687478163	-0.244497409	 2.4490100706	-0.492577
C	 1.0655999519	-2.0748508713	 0.8111897177	 0.106847
O	 0.0456116812	-2.942108359	 0.4029955359	-0.447617
H	 0.8650319437	 2.0258250141	 0.0986349482	 0.113851
H	-0.5961532091	 1.847490283	-0.8777548354	 0.109709
H	-0.7014340108	 1.8122829856	 0.8917968154	 0.132871
H	-0.9223456624	-0.4579686967	-0.0545674922	 0.06327
H	 0.5178380586	-1.2155749095	-1.8155947219	 0.091516
H	 1.531385084	 0.2163508932	-1.6464920859	 0.101718
H	 2.8241157061	-1.9141335808	-0.6934519715	 0.066462
H	 2.9590888026	-0.7612671782	 1.7172928848	 0.090552
H	 2.6198008636	 0.647937236	 0.6656618795	 0.09983
H	 0.6170976152	-0.6910600731	 3.1740987105	 0.280838
H	 1.629487506	-2.6170354316	 1.5764665514	 0.076584
H	-0.5082900261	-2.4954935494	-0.2448467602	 0.285909
