17
gdb 10620	2.52547	1.79831	1.26684	4.2303	69.98	-0.2469	0.0223	0.2691	1009.9038	0.142447	-360.025634	-360.016816	-360.015872	-360.059008	31.553	
C	-0.0113721275	 1.5059637484	-0.1326949229	-0.406821
C	 0.0524976296	 0.0098676921	 0.0579857551	-0.037911
N	 1.3661683537	-0.6376366601	 0.0045469396	-0.361351
C	 0.6093679249	-0.6685206055	 1.2804667808	 0.166743
C	 1.2618755678	 0.0627417422	 2.4411306241	-0.226369
N	 2.3866033011	-0.7311794514	 2.9280296962	-0.502473
C	-0.0215176672	-1.9244600752	 1.6334119849	 0.265158
N	-0.5434203461	-2.9243620269	 1.8901994182	-0.344294
H	 0.8753271224	 2.0027241707	 0.2639616898	 0.134917
H	-0.0719049309	 1.7369401092	-1.2013571154	 0.131271
H	-0.8996950995	 1.9230327672	 0.3523188694	 0.129873
H	-0.7721564759	-0.5310491614	-0.403317175	 0.109636
H	 1.3162009652	-1.5391533585	-0.4628780694	 0.251856
H	 1.5293718757	 1.0744838151	 2.1053675624	 0.096464
H	 0.5317758996	 0.1683791934	 3.2513278558	 0.120616
H	 3.1118170278	-0.7493729968	 2.2169504514	 0.239139
H	 2.7898363393	-0.3020441424	 3.753980085	 0.233548
