18
gdb 17441	3.86476	1.74401	1.65282	1.4202	71.5	-0.2008	0.0751	0.2759	877.4594	0.153227	-347.725352	-347.717856	-347.716912	-347.756486	29.886	
C	 0.0414701066	 1.5543608634	 0.0482276749	-0.489229
C	-0.0175568183	 0.0552853502	 0.0410018722	 0.35533
C	-0.9360030061	-0.7581233791	 0.9142789518	-0.35359
C	 0.562440426	-0.9416200918	 1.0266748282	-0.111336
C	 1.2200909876	-1.7401608282	-0.1262910935	-0.130018
C	 0.3231932615	-2.2037846929	-1.2389863888	 0.090435
O	-0.952549253	-2.7786053735	-1.1405327538	-0.416887
C	 0.6062125076	-0.742968299	-1.144059751	-0.153816
H	 1.042797894	 1.9189942906	-0.2116871666	 0.113369
H	-0.6640641202	 1.9851756261	-0.6738673481	 0.119053
H	-0.2125604078	 1.9507821637	 1.0366777039	 0.115544
H	-1.3541077092	-0.1868220336	 1.740078588	 0.098876
H	-1.5829143223	-1.5235715891	 0.5130068054	 0.135094
H	 1.0969270627	-0.7341005508	 1.9453914797	 0.083427
H	 2.2481200169	-2.0781858022	-0.06369201	 0.084113
H	 0.9180289146	-2.6497784219	-2.0418016743	 0.089723
H	-0.8487265005	-3.6412585574	-0.7238727854	 0.284612
H	 1.10438088	-0.2201167345	-1.9528373427	 0.085299
