24
gdb 58351	2.10837	1.11815	1.07382	3.7944	86.19	-0.2361	0.0298	0.2659	1383.5213	0.214816	-405.58502	-405.573683	-405.572739	-405.622341	41.068	
C	-0.0545074725	 1.5492404341	-0.0021547186	-0.384324
C	 0.0792900325	 0.0189280499	 0.0076006844	 0.029594
C	 0.6949542392	-0.5142861343	-1.2948517484	-0.384287
N	 0.7854928265	-0.4770980344	 1.208864614	-0.048172
C	 2.0840963395	-0.1373732918	 1.4200275954	 0.153185
O	 2.7724177482	-0.4794839331	 2.3654279718	-0.362596
C	 0.0740841928	-1.3426723837	 2.177942801	 0.041652
C	 0.6998153243	-2.7422964619	 2.2654055764	-0.389997
C	-0.0488837358	-0.6796812634	 3.5575677061	-0.389997
H	 0.9180703252	 2.0386929836	-0.1120801118	 0.12514
H	-0.6827687085	 1.8680137682	-0.8401108749	 0.118421
H	-0.5105870145	 1.905957755	 0.9254272881	 0.125141
H	-0.9306070225	-0.3946508397	 0.0822099006	 0.094164
H	 1.6997808953	-0.1134951205	-1.4598134835	 0.125129
H	 0.7643200716	-1.6053737809	-1.2745146505	 0.125129
H	 0.0774263322	-0.2239921585	-2.1509216988	 0.118417
H	 2.4858989398	 0.5111080956	 0.6181751627	 0.073323
H	-0.9359624225	-1.4536319092	 1.7698619263	 0.081618
H	 1.7110384062	-2.6844608257	 2.6703029028	 0.158079
H	 0.0939060195	-3.3791646898	 2.9179801293	 0.109465
H	 0.744085258	-3.2124011039	 1.2780770605	 0.106685
H	-0.5312466008	 0.2995423744	 3.4785156653	 0.106668
H	-0.6581460043	-1.3061668668	 4.2170069743	 0.109438
H	 0.9359465408	-0.5486756331	 4.0078673273	 0.158127
