19
gdb 48843	2.85043	1.35131	1.12613	3.0445	76.17	-0.25	-0.0195	0.2305	1129.2643	0.160463	-423.030741	-423.02281	-423.021866	-423.063262	30.661	
O	-0.0957952536	 0.0203058561	 0.2079729758	-0.269211
C	 0.0281087067	 1.1751690308	-0.1164597914	 0.109397
C	 1.2826450592	 1.9611110272	-0.0091169773	 0.249457
C	 1.0938980553	 3.4538895297	 0.2166011761	-0.335811
C	 1.5080652329	 2.9771100705	-1.1366065667	-0.093133
C	 2.9428994487	 3.1639172636	-1.636351432	-0.098753
O	 3.8245209544	 2.1198150355	-1.2730869596	-0.232369
C	 3.8084810776	 1.875029008	 0.1210364114	-0.10445
C	 2.4882762423	 1.2278720605	 0.5495857762	-0.285312
H	-0.8307878061	 1.7500988566	-0.5393281819	 0.063862
H	 0.0816283999	 3.8211491333	 0.3527393405	 0.122125
H	 1.8357066006	 3.9485799284	 0.8359015022	 0.1255
H	 0.7459805912	 3.0034855639	-1.9099314099	 0.100495
H	 2.9507968409	 3.1923407305	-2.7288307974	 0.117577
H	 3.3388102372	 4.1275269385	-1.2733922929	 0.093653
H	 4.6447018177	 1.2023747059	 0.3294801946	 0.115419
H	 3.9919011368	 2.8129142657	 0.6738478708	 0.084496
H	 2.4336052108	 1.1697230046	 1.6429270344	 0.10613
H	 2.4541622576	 0.1999597607	 0.176663297	 0.130927
