17
gdb 126284	3.35259	1.13727	0.90648	3.9504	81.21	-0.2358	-0.0696	0.1663	1289.3423	0.136003	-417.999258	-417.990918	-417.989973	-418.032768	30.817	
C	-0.2642099562	 1.5198438635	-0.0555195056	-0.3764
C	 0.1213019676	 0.0338744385	 0.0596548051	-0.297165
C	 0.8110057317	-0.486462754	-1.1722914105	 0.286957
C	 2.1197795502	-0.7904346301	-1.2401298461	-0.245392
C	 2.713275697	-1.2660800625	-2.4744969336	 0.410879
N	 3.943321631	-1.560770594	-2.5848728604	-0.528407
O	 1.8613373088	-1.3913099013	-3.5697579479	-0.288526
N	 0.5041921882	-1.0948192825	-3.5153682272	-0.068119
C	 0.0453523318	-0.6733585478	-2.391829121	-0.012832
H	 0.6244623881	 2.1426228297	-0.1933501555	 0.132611
H	-0.9313868329	 1.6979168201	-0.9048518189	 0.127144
H	-0.7793749692	 1.8522677275	 0.850033279	 0.127208
H	 0.7752022483	-0.1125769106	 0.9248685562	 0.118749
H	-0.783227204	-0.5606014151	 0.2421260323	 0.119338
H	 2.7925314176	-0.7003541633	-0.3951064936	 0.131915
H	 4.1566183796	-1.8738793781	-3.5331972868	 0.227954
H	-1.0205192876	-0.4616353099	-2.4101458055	 0.134087
