17
gdb 40687	4.12756	0.94749	0.88139	1.6695	69.4	-0.2574	0.0555	0.3129	1328.4675	0.134355	-458.883825	-458.875628	-458.874684	-458.917651	29.619	
C	-0.157285771	 1.5388983925	 0.0084535612	-0.178573
O	 1.1374847349	 0.9385469932	 0.0669181847	-0.230127
C	-0.0033168215	 0.0785221121	 0.0288373025	 0.062207
C	-0.2512817923	-0.7092845477	 1.2722007962	-0.069289
O	-1.4115234081	-1.566045072	 1.24995472	-0.277395
C	-0.1356180052	-2.1666995719	 1.2984711087	 0.355444
C	 0.4049024897	-3.1732684185	 0.2864002629	-0.155499
O	 0.9020154275	-3.9950016478	 1.3660568517	-0.273567
C	 0.3378089735	-3.132375216	 2.3793681341	-0.153664
H	-0.4738150956	 2.0575383198	 0.91238399	 0.120988
H	-0.401151354	 2.0384503481	-0.9274981129	 0.123993
H	-0.138281468	-0.4717461951	-0.9027020557	 0.102806
H	-0.1053515744	-0.1563341441	 2.2013484651	 0.105468
H	-0.3703518205	-3.6784212221	-0.3035873405	 0.11651
H	 1.208161194	-2.829379838	-0.3761269375	 0.117897
H	 1.0964161451	-2.7611806974	 3.0783564316	 0.115234
H	-0.4750461242	-3.6147393151	 2.9369088078	 0.117566
