13
gdb 5216	8.31172	1.1951	1.04522	4.8992	70.76	-0.1996	-0.018	0.1816	1046.9521	0.097228	-394.819238	-394.812243	-394.811298	-394.850668	25.282	
N	 0.0047807633	 1.3519587524	 0.1713136435	-0.495064
C	 0.0928341122	-0.0035942286	 0.2222839399	 0.095711
N	 1.0660950993	-0.6342773287	-0.3260422122	-0.352869
C	 1.1694451416	-1.9863366719	-0.2126643449	 0.405292
C	 2.0837025263	-2.8711682221	-0.6995107421	-0.192648
N	 1.7458925019	-4.1602084863	-0.3078649187	-0.256935
C	 0.6670077897	-4.0089273439	 0.3842541272	 0.068229
O	 0.2382127263	-2.727039697	 0.4992607064	-0.193076
H	 0.6314501897	 1.8357605437	-0.4533104575	 0.268175
H	-0.8717229434	 1.7972831496	 0.3794351016	 0.266018
H	-0.7050058896	-0.4874225463	 0.7917965788	 0.125045
H	 2.9527272338	-2.6595509921	-1.3000347276	 0.120414
H	 0.0729340786	-4.7634946588	 0.8759406056	 0.141708
