18
gdb 71020	4.03621	1.7131	1.42443	1.5645	80.17	-0.2168	-0.0055	0.2113	938.3134	0.148236	-364.694176	-364.68739	-364.686446	-364.724745	28.681	
C	-0.0927628953	 1.4522468594	-0.0359149284	-0.511858
C	 0.1132275647	-0.0327578818	-0.0068400388	 0.331425
C	 0.685926555	-0.9489668937	-1.1360468445	-0.385091
C	 0.2055171927	-1.891516666	-0.0284597905	 0.308387
C	-0.137806361	-3.2423670146	 0.5615964691	-0.220994
C	-0.7387804917	-2.8727716125	 1.7016855961	-0.080652
C	-0.7209637691	-1.3336397639	 1.6845982277	-0.087276
C	 0.6605470318	-0.9381145956	 1.1246709025	-0.100156
N	-1.0621984838	-1.0251173053	 0.2053199648	-0.187419
H	 0.8627042923	 1.9793010298	-0.1331516262	 0.120363
H	-0.727771315	 1.7391325915	-0.8804275238	 0.129514
H	-0.5764882431	 1.7949776412	 0.8850512206	 0.123315
H	 0.1164821014	-0.9674818903	-2.0695750088	 0.110412
H	 1.7629267986	-0.9004611038	-1.315563552	 0.100654
H	 0.0432798942	-4.2248748424	 0.1531173934	 0.116757
H	-1.184000683	-3.4952452271	 2.4651443758	 0.109139
H	-1.2568330455	-0.7951786778	 2.4681791286	 0.064046
H	 1.637636587	-0.9105055371	 1.6231482844	 0.059434
