19
gdb 38670	2.90056	1.75382	1.28	1.9218	80.27	-0.2412	0.021	0.2622	1011.8304	0.161409	-385.871531	-385.864421	-385.863476	-385.90283	29.169	
C	-0.0065403834	 1.5726215803	-0.0530190177	-0.264329
C	 1.523106107	 1.5396359725	 0.0560708574	-0.057499
O	 2.0337310546	 0.7647537014	-1.0474049964	-0.318498
C	 1.5467719713	 0.0678296837	 0.0965115976	 0.471045
C	 2.3420023541	-0.9500311694	 0.8412343306	-0.345274
C	 1.6898018829	-1.1887126616	 2.2214142803	-0.252789
C	 0.1794425349	-1.1512459171	 2.1992006607	-0.061477
C	-0.5682411927	-0.6317799947	 1.2217075113	-0.067648
C	 0.0155575028	-0.0092668482	-0.0073903295	-0.118959
H	-0.4883785917	 2.0043871046	 0.8274597589	 0.107547
H	-0.4060455279	 2.0324594537	-0.960079246	 0.108221
H	 2.1963737171	 2.2728551926	 0.4861864843	 0.09813
H	 2.3405627372	-1.8861661985	 0.2678723929	 0.112367
H	 3.3849715858	-0.635874309	 0.944308948	 0.110646
H	 2.0293993071	-2.148069072	 2.6297848291	 0.106843
H	 2.0476639499	-0.4281529789	 2.9305688176	 0.11562
H	-0.3139729948	-1.5701192971	 3.0737023336	 0.087227
H	-1.6526612793	-0.6414655691	 1.3112780165	 0.08733
H	-0.3544420851	-0.4847820533	-0.9223314792	 0.081498
