23
gdb 83253	1.79039	1.74396	1.49735	1.4049	85.31	-0.2419	0.0813	0.3231	1120.3896	0.205658	-388.298058	-388.288685	-388.287741	-388.331267	36.5	
C	-0.1974055098	 1.5415870883	-0.1057648206	-0.430038
C	 0.0161401486	 0.0453299522	 0.0244647554	-0.052198
C	 1.3410075405	-0.6475374706	-0.211036951	-0.131658
C	 2.6002952053	 0.1859850163	-0.0557650567	-0.101661
O	 2.4666769007	 0.8819396603	 1.1812950112	-0.270484
C	 1.6572307611	 0.0980991821	 2.0606244497	 0.090273
C	 1.0370675086	 1.0107756634	 3.109559706	-0.411002
C	 0.7020968862	-0.6887501574	 1.163369986	 0.303612
C	 0.0762033027	-1.9332353899	 1.7478858373	-0.488271
H	 0.6588754479	 2.112544102	 0.2538368924	 0.144448
H	-0.3691474955	 1.8072329177	-1.1553669747	 0.109042
H	-1.0816630075	 1.8602225103	 0.457762407	 0.111681
H	-0.8243168424	-0.5268141034	-0.3658161488	 0.077863
H	 1.3859143892	-1.5265598648	-0.8456412949	 0.0802
H	 3.4859395866	-0.4700528504	-0.0465603075	 0.091175
H	 2.7454542796	 0.9406571622	-0.8369740415	 0.104525
H	 2.2946539552	-0.643437434	 2.5778850519	 0.059159
H	 0.3619610338	 1.7392269771	 2.6550465859	 0.125018
H	 0.4712961447	 0.4193746998	 3.8365673425	 0.113929
H	 1.8195087448	 1.552267295	 3.6488835131	 0.123601
H	-0.627093314	-1.6889114043	 2.5530180109	 0.119279
H	-0.4787154623	-2.4918004614	 0.9880139134	 0.116495
H	 0.8368005561	-2.6036791706	 2.166050793	 0.115011
