18
gdb 92783	2.84284	1.39244	1.02898	5.1554	79.38	-0.2158	-0.0392	0.1765	1156.4809	0.148133	-439.114193	-439.10555	-439.104606	-439.147632	32.479	
C	 0.1780621429	 1.550649452	-0.0245764264	-0.382282
C	-0.040040605	 0.039712687	 0.0385686528	-0.005263
N	 0.5968782081	-0.6528659582	-1.1101805666	-0.283606
C	 1.7521516605	-1.2495189009	-0.712001969	-0.081061
C	 1.8809425002	-1.2917297157	 0.6383595586	 0.143034
C	 2.9688447689	-1.8001105112	 1.4128681298	 0.051748
O	 3.0426417657	-1.6796215856	 2.6328642439	-0.339183
C	 0.6549188727	-0.6454186628	 1.262465648	 0.027609
O	 0.9517282197	 0.2869248031	 2.2788231135	-0.440073
H	 1.2439531516	 1.7919688603	-0.0150655169	 0.132415
H	-0.2739374065	 1.9642375681	-0.9328948158	 0.100853
H	-0.2803555624	 2.0322126798	 0.8411307976	 0.147645
H	-1.1114131084	-0.1792641384	 0.0305990839	 0.095274
H	 0.5203508733	-0.2548169557	-2.0338927215	 0.250421
H	 2.4386028055	-1.641679387	-1.4543275286	 0.137597
H	 3.7820961425	-2.3064350496	 0.8488310229	 0.065247
H	-0.0105239931	-1.4301870252	 1.6592782076	 0.079652
H	 1.6151775437	-0.1541510501	 2.8327132461	 0.299974
