21
gdb 113060	2.15783	1.15503	0.85146	1.2009	80.33	-0.2487	-0.0283	0.2204	1456.4898	0.179981	-424.239277	-424.229134	-424.228189	-424.27521	36.076	
C	-0.1294927084	 1.3812517534	-0.5390452129	-0.383457
C	-0.0495701324	-0.0997046786	-0.1574660932	-0.191092
C	-1.404475732	-0.6661631185	 0.242965319	 0.024492
O	-2.3790742026	-0.6842778271	-0.8334312524	-0.317405
C	-2.6113307309	-2.1151576644	-0.7471781493	 0.024492
C	-2.35221184	-2.8643408154	-2.0466286597	-0.191092
C	-3.3215536193	-2.4512538992	-3.1579151935	-0.383457
C	-1.5457429432	-2.1905042521	 0.3550873202	 0.321412
O	-1.0204974368	-3.0581754055	 0.9846483843	-0.289867
H	 0.848946453	 1.7590031251	-0.8496136235	 0.116744
H	-0.8306865102	 1.5263125122	-1.3655702493	 0.13783
H	-0.4731981361	 1.9892032741	 0.3048833392	 0.117083
H	 0.3469557331	-0.6836502791	-0.9962036044	 0.104773
H	 0.6358682488	-0.2479170266	 0.6859102309	 0.115574
H	-1.8009260356	-0.1351877827	 1.1219565951	 0.100982
H	-3.6256449208	-2.3260124702	-0.3751024758	 0.100982
H	-1.3182393964	-2.6829432193	-2.3623844942	 0.104774
H	-2.4369563726	-3.9372647022	-1.8351362789	 0.115574
H	-3.0990164637	-2.981066273	-4.0886504181	 0.116744
H	-4.357865683	-2.6748725308	-2.8822235488	 0.117083
H	-3.248895221	-1.3770762801	-3.3495459046	 0.13783
