12
gdb 133318	2.38664	1.83671	1.03858	2.6829	61.32	-0.2409	-0.0419	0.199	1006.2977	0.077014	-518.065488	-518.058319	-518.057375	-518.097064	27.107	
N	-0.0117737846	 1.3669016073	-0.1423727808	-0.562532
C	-0.0029461193	-0.0002473623	-0.056387589	 0.309066
C	-1.2104386188	-0.7208979901	-0.0328145125	 0.09549
F	-2.3746070677	-0.0722626257	-0.0309772168	-0.056264
C	-1.1314643736	-2.0896116835	-0.0028079855	 0.165445
F	-2.2260625298	-2.8353639841	 0.0236445328	-0.044171
C	 0.1411790829	-2.6701230884	 0.0004526109	-0.107784
N	 1.2498057494	-1.9439748162	-0.013460767	-0.196887
N	 1.184487236	-0.6176382721	-0.03571803	-0.27758
H	 0.8703620047	 1.8054078079	 0.0748043543	 0.270498
H	-0.8375050392	 1.8471829703	 0.1757757595	 0.267054
H	 0.2494812999	-3.7490065131	 0.0209576842	 0.137663
