23
gdb 113697	2.94931	0.93714	0.88371	1.8848	82.04	-0.2612	0.0712	0.3325	1466.6221	0.202788	-425.405752	-425.394978	-425.394033	-425.441618	40.014	
C	 0.8076018343	 1.4089345916	-0.3834303936	-0.425374
C	 0.1559276107	 0.0530390911	-0.0715795417	 0.216502
C	 0.5479014691	-0.4114126614	 1.3438946739	-0.405532
C	-1.3784374363	 0.2134321837	-0.1558600761	-0.40198
C	 0.5223885323	-1.0659623682	-1.04677246	 0.070118
O	 0.5577652187	-0.8065535534	-2.4533842847	-0.282424
C	 1.7472624765	-1.3263998312	-1.8264871321	 0.022884
C	 3.0039179466	-0.5006565805	-1.9533798461	-0.100649
O	 3.6171401466	-0.7284521095	-3.2149247321	-0.418713
H	 1.8741449473	 1.416933828	-0.1433595404	 0.115797
H	 0.6842007921	 1.6694509093	-1.4378684137	 0.128343
H	 0.3353546697	 2.1924421465	 0.2180615422	 0.10887
H	 0.2275602711	 0.3223957036	 2.090799623	 0.115372
H	 0.076657482	-1.3678572343	 1.5960620786	 0.112705
H	 1.6319728961	-0.5352588446	 1.4365176445	 0.114286
H	-1.6820901442	 0.5307201403	-1.1583207694	 0.128514
H	-1.8909199021	-0.7281911263	 0.0690068181	 0.110085
H	-1.7268663901	 0.9642879174	 0.5607601309	 0.110045
H	-0.0390187891	-1.9757335278	-0.8081120438	 0.082509
H	 1.9344961802	-2.3744437848	-2.0762089069	 0.095518
H	 2.8006424551	 0.5626702764	-1.7986767248	 0.099872
H	 3.7341871287	-0.8228058788	-1.2023779647	 0.112085
H	 2.9859597945	-0.451060147	-3.8881041612	 0.291168
