20
gdb 106475	2.58759	1.58813	1.2349	1.8574	78.03	-0.2165	-0.0124	0.2041	1090.1656	0.172036	-403.136705	-403.128528	-403.127583	-403.169423	31.898	
C	-0.1974416739	 1.5416073398	 0.012517082	-0.391598
C	 0.0985992736	 0.037687378	-0.0685827932	-0.304117
C	 0.7421188701	-0.5076552476	 1.1839978819	 0.213076
C	 0.1310464515	-0.4772578995	 2.625650184	-0.227921
N	 1.1119014411	-1.5812493749	 2.969678042	-0.127697
C	 0.9245052801	-2.0230041891	 1.531709199	-0.23884
C	 2.3973474637	-0.8391417992	 2.8486237549	-0.283447
C	 2.1558125642	-0.0496426894	 1.5416670714	 0.403066
O	 2.8818457584	 0.7074986207	 0.9542844298	-0.341511
H	 0.7243780094	 2.1084959328	 0.163882796	 0.146261
H	-0.6669692492	 1.8946741177	-0.9100510868	 0.115308
H	-0.8796075708	 1.7684440929	 0.8393542113	 0.112602
H	-0.8278580834	-0.5146546332	-0.2702558031	 0.094366
H	 0.7688900938	-0.1550129021	-0.9156363493	 0.111832
H	 0.2204706176	 0.4299573015	 3.2300359763	 0.111937
H	-0.8932899418	-0.8566708223	 2.6625711708	 0.116601
H	-0.0002881586	-2.5960978587	 1.4275815892	 0.11622
H	 1.7636121829	-2.5759956669	 1.0991120296	 0.11157
H	 2.5598994502	-0.181614338	 3.707483004	 0.130912
H	 3.2465246512	-1.5237182526	 2.7683740303	 0.131381
