16
gdb 20547	4.51425	1.41139	1.40447	1.924	65.54	-0.2853	-0.0238	0.2615	959.1189	0.131839	-376.100937	-376.093268	-376.092324	-376.133632	27.416	
C	-0.0250910116	 1.5405387932	 0.0262631233	-0.389688
C	 0.0343387404	 0.0025474029	 0.0092002645	-0.068683
C	 0.7254441644	-0.5179186423	-1.2639335482	-0.389702
C	 0.7247517239	-0.5141164836	 1.2348834206	 0.398956
N	 0.1533779815	-1.2966554156	 2.1461418851	-0.2744
N	 1.1534012864	-1.4672369917	 3.0026543133	-0.070523
N	 2.277018766	-0.849111443	 2.6744845273	-0.100008
N	 2.0208158001	-0.2365436221	 1.5491792637	-0.254633
H	 0.9832847393	 1.9644465649	 0.036889924	 0.139661
H	-0.5445545779	 1.9094244366	-0.8634505035	 0.114621
H	-0.5567855875	 1.9079228504	 0.9089986905	 0.120239
H	-0.9871737469	-0.3908338853	 0.042466906	 0.099591
H	 1.7641826384	-0.1772872944	-1.3043903392	 0.139631
H	 0.725508417	-1.6114321288	-1.2973542476	 0.120262
H	 0.2069614394	-0.1489779025	-2.1541997495	 0.114624
H	 1.0694259972	-2.0237631386	 3.8400133598	 0.300051
