16
gdb 46627	3.07737	1.69227	1.11684	1.3918	72.44	-0.2266	0.005	0.2315	1031.9622	0.128122	-434.127682	-434.120334	-434.119389	-434.159841	27.328	
O	-0.0030603568	-0.0318219522	 0.0354193141	-0.368158
C	 0.000460182	 1.1747548027	-0.0006714523	 0.390164
C	-1.2263601311	 2.1167684996	 0.0581871009	-0.294322
N	-0.6525750768	 3.4514244514	-0.104860794	-0.401322
C	 0.7134684993	 3.3719430471	-0.0497858668	 0.494358
N	 1.650493753	 4.2293064653	 0.0146066804	-0.376731
C	 2.9049467093	 3.4486643534	 0.0190114563	-0.172766
C	 2.5223723801	 1.9215106899	-0.0618874877	-0.206674
N	 1.0711261921	 2.0209026024	-0.0904548995	-0.119547
H	-1.9331199834	 1.8633932483	-0.7385723719	 0.146995
H	-1.734714799	 1.9782638782	 1.0207389932	 0.142364
H	-1.1107188614	 4.2722575815	 0.2546340887	 0.26457
H	 3.53190079	 3.7421515244	-0.8296206827	 0.117514
H	 3.4764607441	 3.6647772967	 0.9282028328	 0.116044
H	 2.9013351012	 1.4336819196	-0.9641284869	 0.133311
H	 2.8563785075	 1.3456348118	 0.8055134452	 0.1342
