19
gdb 100518	2.82541	1.14873	0.87819	0.8757	74.78	-0.2346	-0.03	0.2046	1343.7411	0.158311	-456.40978	-456.399452	-456.398508	-456.446178	36.378	
C	 0.1914346632	 1.7615333505	-0.4727380553	-0.378958
C	 0.2309417301	 0.2595729572	-0.1807077306	-0.14731
N	 0.748835796	-0.5284225575	-1.3065367233	-0.095933
C	 2.1879626019	-0.7727627047	-1.303079219	-0.365627
C	-0.1443266471	-0.8901802649	-2.2560291822	 0.336262
O	-1.3303539475	-0.5688801787	-2.1927661984	-0.415949
C	 0.2966832911	-1.7594893798	-3.4743091611	 0.315685
N	-0.7719120473	-1.9860402913	-4.265375279	-0.493626
O	 1.4178379656	-2.1825036408	-3.6987574126	-0.373728
H	 1.1827257196	 2.1469186843	-0.731872186	 0.118091
H	-0.4912492898	 1.9651241801	-1.300901611	 0.145273
H	-0.162379336	 2.3069096501	 0.4077180968	 0.119015
H	 0.8745502329	 0.050114222	 0.6796559706	 0.103048
H	-0.7744604202	-0.1000895172	 0.044853168	 0.138369
H	 2.4805152648	-1.2980096455	-2.2060394061	 0.198744
H	 2.7237221937	 0.1818433351	-1.2381089917	 0.123326
H	 2.4599343003	-1.3730879359	-0.4263082777	 0.124885
H	-1.6606098116	-1.6035150018	-3.9824341413	 0.282966
H	-0.6636712899	-2.5482066612	-5.0914841002	 0.265464
