18
gdb 98375	2.35742	1.22926	0.81606	1.006	77.55	-0.2547	-0.0388	0.2159	1378.0517	0.147499	-435.296499	-435.287045	-435.286101	-435.331615	33.674	
C	 0.0320641281	 1.558738142	-0.1322554882	-0.375652
C	 0.1319737517	 0.0342540504	-0.0733712434	-0.278292
C	 0.7540160838	-0.5590311826	-1.3284819784	 0.397337
N	 1.1191713588	 0.201771516	-2.2675231901	-0.487909
N	 0.8873221013	-2.0044412458	-1.3569874684	-0.185599
C	 1.4403264668	-2.713318986	-2.4381307691	 0.124026
N	 1.8787137378	-2.1680989713	-3.4981761273	-0.470728
C	 0.4639526869	-2.8084010867	-0.2843684607	 0.171214
O	 0.551476654	-4.0115429383	-0.2574456527	-0.3088
H	 1.0181618998	 2.0111578382	-0.2520799722	 0.138146
H	-0.5768519616	 1.8785501334	-0.9797944014	 0.13815
H	-0.4200966454	 1.9339087767	 0.7905630096	 0.105514
H	 0.7223873404	-0.2607572867	 0.8038777256	 0.124591
H	-0.8678717165	-0.3929894666	 0.0782461275	 0.124598
H	 1.5192130947	-0.3207278686	-3.0489890584	 0.264477
H	 1.4342584326	-3.7826320312	-2.2289994416	 0.155924
H	 2.229774544	-2.8796051605	-4.1364894234	 0.241955
H	 0.0380106427	-2.2327138625	 0.5432657527	 0.121048
