18
gdb 79595	2.84399	1.54065	1.20764	1.826	76.77	-0.2478	-0.0316	0.2163	1053.8077	0.147011	-401.891005	-401.882961	-401.882016	-401.923549	30.691	
C	-0.1052290165	 1.5342284208	 0.001188972	-0.32335
N	 0.1533111436	 0.1024412289	-0.0123365522	-0.075478
C	 1.4758330659	-0.4508427201	-0.1899845259	-0.055805
C	 2.5859125655	 0.303394818	 0.521373205	-0.106599
C	 3.1586964299	-0.5184823994	 1.6206724762	-0.320017
C	 1.806250088	 0.1312351349	 1.8666697431	 0.226606
C	 1.6469825227	 1.1693275667	 2.9023482615	 0.059687
O	 2.5584277741	 1.8031681285	 3.3835272388	-0.273392
C	 0.715245284	-0.6145393644	 1.116019543	-0.164664
H	 0.6705582886	 2.1404122849	 0.4884610319	 0.11528
H	-0.2069291495	 1.8779926673	-1.0328504883	 0.128001
H	-1.0558090065	 1.7139017615	 0.5125637649	 0.126911
H	 1.6294428516	-1.181894038	-0.9767276135	 0.105172
H	 3.0531936726	 1.2261731047	 0.1986061799	 0.116428
H	 3.1961728618	-1.6002591819	 1.5284812921	 0.119978
H	 3.9729245117	-0.0690160838	 2.1802525557	 0.146167
H	 0.5954351315	 1.3450468152	 3.2230099184	 0.07431
H	 0.1851011009	-1.4875546837	 1.4820520874	 0.100765
