20
gdb 87840	2.7781	1.41276	1.20549	2.3564	79.77	-0.226	0.0902	0.3161	1135.1231	0.169058	-403.081571	-403.072726	-403.071782	-403.114669	33.939	
C	-0.2326054486	 1.3671964026	-0.046641496	-0.315321
N	 0.1019372033	-0.0473832269	 0.0285287869	-0.126794
C	 1.5111562806	-0.4136557014	-0.1278832035	-0.324202
C	 0.8289836986	-0.5128270104	 1.1874124919	 0.326219
C	 1.2424251047	 0.2272943442	 2.4931350407	-0.35391
C	 0.8737992649	-1.0677781769	 3.2361672549	-0.045673
O	-0.5089126356	-1.3193192361	 2.9616455226	-0.290896
C	 0.4688902704	-1.7547401328	 1.9931043683	 0.351214
C	 0.4544698455	-3.1826106636	 1.5607581017	-0.517556
H	 0.5441289435	 2.0301874151	 0.369191568	 0.099457
H	-0.3909054813	 1.6422733742	-1.0940985163	 0.122692
H	-1.1641827806	 1.5454034999	 0.499041696	 0.131407
H	 1.7074432794	-1.2960334834	-0.7327188	 0.113164
H	 2.242350831	 0.38707574	-0.2421215249	 0.103962
H	 2.3055328987	 0.4782744135	 2.5284878333	 0.108586
H	 0.6459265667	 1.0962008625	 2.781606308	 0.114772
H	 1.2851983107	-1.4638719672	 4.1574387914	 0.102825
H	-0.3458320923	-3.3528140551	 0.832423941	 0.1417
H	 1.4039222766	-3.4574760459	 1.090478763	 0.124467
H	 0.2830619238	-3.8379964624	 2.418441083	 0.133887
