18
gdb 10316	2.43386	1.62643	1.12342	1.7315	69.61	-0.2518	-0.0525	0.1993	1109.8778	0.149866	-384.976714	-384.967049	-384.966105	-385.011796	33.101	
C	-0.1984951637	 1.5545187848	 0.1216231658	-0.399616
C	 0.0030659283	 0.0366870633	 0.0905562447	-0.190951
C	 0.661548768	-0.4520678729	-1.2035138494	-0.157468
C	 2.1124239458	 0.0130883214	-1.3147042284	 0.150782
O	 2.7118913513	 0.1482883277	-2.3496738339	-0.245813
C	 0.6894381867	-1.9967399879	-1.298861107	 0.357769
C	 0.852304003	-2.5628139861	-2.6917262629	-0.484715
O	 0.5901361185	-2.6811462159	-0.3097739239	-0.286828
H	 0.7513133876	 2.0943385275	 0.0348281005	 0.120815
H	-0.8397194787	 1.8871648328	-0.7020626373	 0.120859
H	-0.6697368633	 1.8664994893	 1.0581297834	 0.123535
H	 0.6156975807	-0.2878234085	 0.9389860633	 0.120628
H	-0.956906957	-0.4746088514	 0.2115600534	 0.113975
H	 0.1474656487	-0.073144691	-2.094794783	 0.107294
H	 2.607292535	 0.1889686953	-0.3331205125	 0.095806
H	 1.6271357361	-2.0181297471	-3.2396693578	 0.165103
H	 1.0837613166	-3.6273680408	-2.6407239313	 0.143503
H	-0.0850195335	-2.4251971404	-3.2446694938	 0.145324
