15
gdb 21237	3.38801	1.94133	1.25357	3.2501	64.62	-0.215	0.0021	0.2171	938.9944	0.119369	-395.976527	-395.968597	-395.967652	-396.009367	27.467	
C	 0.0461718945	 1.4306524738	-0.0164616329	-0.239882
O	 0.0256789462	 0.0048105261	 0.0136110426	-0.27514
C	 0.5982984257	-0.6053732023	-1.0385005367	 0.340465
C	 0.6945116627	-1.9722310942	-1.2174806837	 0.21752
C	 0.2433164613	-3.1257860951	-0.3916486743	-0.512962
N	 1.3438735633	-2.0519076656	-2.4107280033	-0.221086
N	 1.6279155077	-0.8486801997	-2.9279747085	-0.138008
N	 1.1680778423	 0.04213177	-2.0830780989	-0.284161
H	 1.0729522199	 1.8095272603	-0.0417361706	 0.136768
H	-0.4871419143	 1.8140157678	-0.892273939	 0.136837
H	-0.4517780668	 1.7541787808	 0.8986042206	 0.126788
H	-0.4811653601	-3.7554639647	-0.9210885483	 0.137847
H	 1.0783788853	-3.7654376678	-0.083253901	 0.137617
H	-0.2398193092	-2.7481406181	 0.5119182462	 0.159424
H	 1.6191400416	-2.8781101812	-2.9179663123	 0.277972
