19
gdb 32665	2.01643	1.69193	0.99175	3.5116	78.19	-0.1965	0.0461	0.2426	1224.9917	0.160076	-419.235453	-419.226321	-419.225377	-419.269909	32.815	
C	 0.1692041534	 2.298531781	-0.2639803206	-0.376894
C	-0.3873393175	 0.8755190928	-0.3443306366	-0.158343
N	 0.3463068476	 0.0292992518	-1.2732566741	-0.082525
C	-0.0150786324	-0.3409211277	-2.5464528044	-0.007453
N	 0.8916636175	-1.0833235829	-3.127102267	-0.271548
C	 1.9130247761	-1.2151607697	-2.2050609325	-0.227194
C	 1.5841533714	-0.531246123	-1.0617442519	 0.377321
O	 2.178309172	-0.3186676705	 0.1319798769	-0.269678
C	 3.4364354365	-0.9589755295	 0.2819584709	-0.249254
H	 1.2052357004	 2.2839818777	 0.0831002706	 0.141186
H	 0.1374298336	 2.7852701206	-1.2430547263	 0.128992
H	-0.4217885805	 2.8944272655	 0.4383025325	 0.1193
H	-0.3623292462	 0.403575964	 0.6427129921	 0.130347
H	-1.4296590197	 0.8851488054	-0.675910767	 0.121035
H	-0.959321314	-0.0339983215	-2.9722239875	 0.12132
H	 2.8012851382	-1.7872754195	-2.4173154154	 0.104006
H	 4.1522996382	-0.5951600074	-0.4656190979	 0.131101
H	 3.7932658049	-0.7133871608	 1.2828249824	 0.136836
H	 3.3359223304	-2.0466624965	 0.1806363359	 0.131444
