18
gdb 28871	2.32659	1.78842	1.02393	1.4766	82.37	-0.2236	-0.0137	0.2099	1145.4907	0.148559	-402.036507	-402.027951	-402.027007	-402.069677	32.172	
C	-0.0396225879	 1.51768103	 0.0503160524	-0.494393
C	 0.0013681182	 0.0124167971	 0.0000893895	 0.246799
C	 0.0370811541	-0.6590084843	-1.2265781818	 0.112342
C	 0.0366633158	 0.0699376332	-2.5457231206	-0.509908
C	 0.0739269383	-2.062542144	-1.1721350893	 0.374906
O	 0.109428743	-2.7569141846	-2.3357171488	-0.4201
N	 0.0771588561	-2.7845509869	-0.0584525062	-0.379527
C	 0.0426057632	-2.1212801588	 1.1013606764	-0.011388
C	 0.0044405641	-0.7396638769	 1.1811807826	-0.211009
H	 0.834842186	 1.9573582745	-0.4431031877	 0.136087
H	-0.9216363417	 1.9103989309	-0.4686134499	 0.136088
H	-0.0642353177	 1.8782928503	 1.0810033728	 0.12561
H	 0.9010301742	 0.7390244393	-2.6338985373	 0.127389
H	 0.0663475447	-0.6318256107	-3.3786891996	 0.150045
H	-0.8581679272	 0.6937461218	-2.6583668535	 0.127356
H	 0.1305864813	-3.6883902727	-2.0764628437	 0.294463
H	 0.0459216437	-2.7311911938	 2.0011641993	 0.106947
H	-0.0227093982	-0.2474402142	 2.1469962753	 0.088292
