19
gdb 93279	2.24609	1.67024	1.22794	1.0809	71.34	-0.2499	-0.0358	0.2141	1081.8309	0.15695	-460.189316	-460.180054	-460.17911	-460.222792	34.99	
C	-0.2126782646	 1.532118481	-0.0812517548	-0.426533
C	 0.0457879892	 0.0472609558	 0.0612184631	 0.104763
O	 0.9091817599	-0.3834272798	-1.007349892	-0.268705
C	 1.3699513782	-1.686538696	-0.7015706075	-0.185572
C	 1.2927193461	-1.7934316964	 0.8160129363	 0.325235
O	 1.5051684357	-2.7522668966	 1.5128311226	-0.32784
C	 0.7696745113	-0.4460163979	 1.3328711243	 0.273926
C	 1.960811902	 0.4319360997	 1.7475930269	-0.437575
O	-0.1218096148	-0.6421819698	 2.4057019906	-0.483925
H	 0.7199357002	 2.1012465916	-0.0694928275	 0.127838
H	-0.7234077564	 1.7334885411	-1.0267407778	 0.12963
H	-0.8503765845	 1.8779405411	 0.7374714945	 0.135607
H	-0.9104658766	-0.4995575339	 0.0113639799	 0.081538
H	 0.7356772676	-2.4704776459	-1.1461490951	 0.129459
H	 2.3891565785	-1.8197133604	-1.0785770085	 0.141211
H	 2.6103119499	 0.6601993963	 0.8973568881	 0.130257
H	 1.5928885789	 1.3683039371	 2.1745051138	 0.134797
H	 2.5506356789	-0.085189224	 2.5103256826	 0.126398
H	 0.1702919407	-1.446320423	 2.8590528104	 0.28949
