15
gdb 19035	4.09883	2.21484	1.86387	3.3397	64.27	-0.2404	-0.0262	0.2141	732.7901	0.121079	-362.639962	-362.63418	-362.633235	-362.669734	23.358	
O	 0.0175271468	-0.004033706	-0.1920451079	-0.324009
C	-0.0260427445	 1.1872465459	-0.0171572665	 0.408104
C	-1.2888727271	 2.0483372222	 0.1361172152	-0.328953
C	-0.7339071103	 3.3990568061	 0.5919571729	-0.074303
C	 0.0585146319	 3.2059867751	 1.9076618029	-0.156835
N	 1.3571575703	 3.0651996799	 1.1625709665	-0.140633
C	 0.6672277923	 3.5246540214	-0.075912537	-0.049989
C	 1.1517783717	 2.1228032502	 0.001442415	-0.134434
H	-1.7742727832	 2.1199421972	-0.8453235556	 0.132566
H	-2.0002311299	 1.593978347	 0.8315746049	 0.127952
H	-1.4250813704	 4.2377988641	 0.5295538807	 0.084696
H	 0.1261944724	 4.1114114947	 2.5147532831	 0.120405
H	-0.2094625294	 2.3564606635	 2.5458743487	 0.112115
H	 1.0591249517	 4.2954041758	-0.7289450698	 0.106329
H	 2.0884692778	 1.7986980229	-0.4348967031	 0.11699
