18
gdb 97107	2.52244	1.35104	0.99557	2.1639	76.53	-0.2546	0.0066	0.2612	1236.8117	0.145622	-439.058639	-439.049428	-439.048484	-439.092982	32.781	
C	 0.0120976579	 1.4086609261	 0.0121142304	-0.342006
N	 0.285334712	-0.0192465694	-0.0692156792	-0.338698
C	 0.5870651885	-0.6503990894	 0.9650881116	 0.417458
O	 0.7378106698	-0.2310931596	 2.2862689393	-0.280273
C	 1.0112797426	-1.5891731646	 2.7519147244	-0.160176
C	 0.9261338941	-2.0745896236	 1.3046629928	 0.251137
O	 0.2489214946	-3.2198611226	 0.8514815623	-0.272445
C	 1.6509746376	-3.0984461432	 0.5431666146	-0.015898
C	 2.0193147968	-2.9096548033	-0.9035535705	-0.428271
H	 0.7500843062	 1.9486733602	-0.5914306874	 0.130952
H	-0.9696678087	 1.6074510159	-0.4303185147	 0.132417
H	 0.0304892683	 1.8096184134	 1.031827325	 0.12963
H	 1.9842824553	-1.6497538757	 3.2456213828	 0.125513
H	 0.2164161758	-1.9544136925	 3.4072786068	 0.133728
H	 2.2758368236	-3.7848896652	 1.1176581173	 0.098543
H	 1.389219946	-2.143876901	-1.3605511464	 0.16449
H	 3.0667005512	-2.6007345111	-0.9871790988	 0.123553
H	 1.9004230084	-3.8501450643	-1.4511068703	 0.130348
