17
gdb 17501	3.06942	2.39654	1.64192	3.4458	67.85	-0.2135	0.0644	0.2779	831.214	0.140298	-363.770328	-363.762758	-363.761814	-363.801565	29.445	
C	-0.0409385137	 1.5692175896	 0.1608908409	-0.513261
C	 0.0868018446	 0.0821248597	 0.0573924406	 0.26454
N	-0.8618325474	-0.8654341413	 0.6871527169	-0.351473
C	 0.5886936377	-0.9362955221	 1.00810884	-0.163673
C	 1.3006095003	-1.690601365	-0.1661437857	-0.061574
O	 0.32681154	-2.042702579	-1.1522775657	-0.259575
C	 0.8125952186	-0.6989804056	-1.1270683685	 0.40227
C	 1.3742928051	-0.1035749878	-2.375851604	-0.509175
H	 0.8954030203	 2.070731	-0.1076061409	 0.125443
H	-0.8250666047	 1.9515322481	-0.5034699381	 0.131683
H	-0.2942386399	 1.8678642204	 1.184060138	 0.120036
H	-1.2983561865	-0.359837914	 1.4602237571	 0.223461
H	 0.9614135674	-0.824962324	 2.0181497953	 0.09398
H	 2.2166739389	-2.268104781	-0.1221735547	 0.103531
H	 0.5729027737	 0.1895324512	-3.063735723	 0.133578
H	 1.9706212389	 0.7877758248	-2.1552931348	 0.123357
H	 2.0109589469	-0.831470054	-2.8857801333	 0.13685
