21
gdb 65778	2.40477	1.25391	1.07483	4.229	78.83	-0.267	0.0103	0.2772	1243.0606	0.182094	-424.273304	-424.263901	-424.262957	-424.308278	34.555	
C	-0.4128268988	 1.6871383348	 0.0847007232	-0.452179
C	 0.1407425583	 0.2694285814	-0.0189912371	 0.378144
C	 1.1404674202	 0.0240182156	-1.1642228302	-0.241359
C	 1.8649789415	-1.2899526056	-0.7927517636	-0.207238
C	 1.7097450545	-1.4367669646	 0.7503445505	-0.208685
C	 0.9394236247	-0.1817450392	 1.2121896474	-0.225201
O	-0.9591791271	-0.6994822288	-0.0875428941	-0.234734
C	-1.8022417779	-0.6834999231	-1.1293435964	 0.161565
O	-2.7165255501	-1.4504952451	-1.2280473911	-0.284985
H	 0.4013391689	 2.3928421637	 0.2736027722	 0.124853
H	-0.9180520309	 2.0031671891	-0.8325204407	 0.122249
H	-1.127817586	 1.7572184814	 0.909646552	 0.13493
H	 0.6691073859	-0.0050435656	-2.1500318141	 0.101439
H	 1.8435170079	 0.8647126635	-1.1761223354	 0.10555
H	 1.4045891099	-2.1391931189	-1.3038738003	 0.115397
H	 2.9120222685	-1.2646120034	-1.1050181706	 0.101882
H	 1.1373558914	-2.3363371033	 0.9876149625	 0.120376
H	 2.67321563	-1.5260548582	 1.258289622	 0.099185
H	 1.6310686352	 0.6227789937	 1.4855719298	 0.098315
H	 0.2833886543	-0.3631057873	 2.0667566117	 0.11312
H	-1.5771247004	 0.0954889796	-1.8793928079	 0.077375
