21
gdb 75560	2.44974	1.33676	0.9297	2.7802	86.1	-0.2372	-0.0207	0.2165	1292.9553	0.182639	-387.127499	-387.118398	-387.117454	-387.161739	34.045	
C	-0.133887103	 1.549695012	 0.0251678616	-0.479354
C	-0.0089804747	 0.0484051223	-0.0278747327	 0.304428
C	 0.0295887006	-0.6205316577	-1.1834498576	-0.159593
C	 0.0642993607	-2.1203344664	-1.3099361703	-0.242439
C	-0.3545263354	-2.8056893074	-0.0050202882	-0.216971
C	 0.3657905487	-2.1691289742	 1.1858958609	-0.222029
C	 0.0352228752	-0.6645432295	 1.3165298208	-0.135785
C	 1.0923100843	-0.0372874207	 2.2132332864	 0.151693
O	 0.9003144703	 0.4034189067	 3.316077352	-0.253798
H	 0.7172820508	 2.0165805359	 0.5365702224	 0.130441
H	-0.2020633268	 1.9796645304	-0.9773392941	 0.120728
H	-1.0283797083	 1.8485201531	 0.5869433779	 0.130614
H	 0.0041340058	-0.0537259843	-2.1125919037	 0.081205
H	-0.59193293	-2.4321514064	-2.1318071815	 0.104567
H	 1.073360892	-2.4483452423	-1.6024926011	 0.108502
H	-1.4385380733	-2.7029479264	 0.1284484106	 0.103957
H	-0.1381204981	-3.8782587335	-0.0474919906	 0.096507
H	 0.1103740112	-2.6765828669	 2.1214469738	 0.109906
H	 1.4499720186	-2.2887777385	 1.0491056032	 0.100388
H	-0.9236683992	-0.5306842027	 1.8345750684	 0.094008
H	 2.1141134206	-0.0394720235	 1.7624001921	 0.073024
