18
gdb 124607	2.64481	1.37943	1.13051	2.2535	73.12	-0.236	0.0303	0.2663	1148.6078	0.148674	-435.307576	-435.298789	-435.297845	-435.34148	32.281	
C	-0.0581922954	 1.5650419053	-0.025364463	-0.38212
C	-0.0345066643	 0.0333434879	-0.0272876075	 0.024279
C	-1.4403810445	-0.574166783	 0.0058358244	-0.382116
N	 0.702490747	-0.4598001407	-1.1918816603	-0.023438
N	 0.2830537953	-0.2075207557	-2.4725014749	-0.261408
C	 1.2033874736	-0.8127908523	-3.1956310267	 0.037439
N	 2.1911432069	-1.4406855014	-2.4914260276	-0.38462
C	 1.8306443312	-1.1895783867	-1.2503145102	 0.457937
O	 2.4624403222	-1.5814782217	-0.135815562	-0.424375
H	 0.9567112816	 1.9721818722	-0.0193876309	 0.12355
H	-0.573360214	 1.9364699233	-0.9147908242	 0.146541
H	-0.5827012684	 1.930598945	 0.8621948055	 0.118348
H	 0.5354488061	-0.3223461961	 0.83635024	 0.116264
H	-2.0026827852	-0.2752172221	-0.8823534321	 0.146533
H	-1.3942381075	-1.6663862824	 0.0333650459	 0.123552
H	-1.9772418686	-0.2282083312	 0.8938653058	 0.118349
H	 1.1697586504	-0.8068611798	-4.2749777163	 0.124912
H	 3.2352238036	-2.0849165604	-0.4215903659	 0.320376
