16
gdb 71531	2.56559	1.58374	1.42647	4.4522	74.19	-0.2557	0.0104	0.2661	986.0365	0.123494	-400.678934	-400.671305	-400.670361	-400.710923	29.347	
C	 0.0246026961	 1.4566933698	-0.0958752057	-0.525215
C	 0.0207532185	-0.0322964316	-0.0109153587	 0.425713
O	 0.5893815791	-0.816713816	-1.1026915003	-0.342238
C	 0.1091549837	-1.8154562956	-0.1704345761	 0.052897
C	 0.5144802684	-1.0192122839	 1.1050308898	-0.148133
C	-0.8896989171	-1.1485144999	 1.7298968506	-0.324636
C	-1.1941079499	-1.0294938781	 0.2193110024	 0.161687
C	-2.4557549003	-1.0270919466	-0.4638154135	 0.150192
N	-3.4738855524	-1.0122730443	-1.0132712565	-0.344674
H	 1.0513060743	 1.8261521996	-0.1752763476	 0.145763
H	-0.5354476692	 1.7888791684	-0.9746531186	 0.154918
H	-0.4350988224	 1.8912273056	 0.7968609421	 0.137777
H	 0.2181306275	-2.8702897021	-0.4161767043	 0.116341
H	 1.4940394671	-1.0161147141	 1.5789384425	 0.099462
H	-1.1349694527	-2.1075496282	 2.1911815696	 0.120479
H	-1.2312645404	-0.3208649229	 2.3554534544	 0.119669
