20
gdb 68531	2.61034	1.9491	1.66989	1.4392	82.15	-0.2252	0.0077	0.2328	931.6216	0.17335	-365.982464	-365.975464	-365.97452	-366.013144	30.208	
C	-0.040867589	 1.4976769837	 0.052562324	-0.50335
C	 0.0387974161	-0.018769082	 0.0436720339	 0.283696
C	 0.6580509057	-0.7248196863	-1.2086373073	-0.221927
C	 0.4592438067	-2.1286216833	-0.6016691525	-0.039545
C	 1.1316690256	-1.9357592832	 0.741524798	-0.102857
C	 0.8681656919	-0.6810023204	 1.1298733256	-0.120906
N	-1.070225366	-2.1185705985	-0.4805122641	-0.112845
C	-1.6598341895	-1.9142231103	 0.8542036334	-0.255052
C	-1.3491399934	-0.7508343375	-0.0089242898	-0.045398
H	 0.9540441178	 1.9458382309	-0.0350485302	 0.118365
H	-0.6485283628	 1.864809737	-0.7817259402	 0.11614
H	-0.4935735092	 1.8667688846	 0.9794315795	 0.118837
H	 0.0750077722	-0.5723595503	-2.1221181101	 0.097551
H	 1.7057610134	-0.4621994207	-1.3749836569	 0.094032
H	 0.7616380636	-2.993435974	-1.1899840816	 0.069699
H	 1.614116278	-2.7153611474	 1.3180405274	 0.097333
H	 1.0956213888	-0.2225137184	 2.08524556	 0.096037
H	-2.688154792	-2.2587675004	 0.9290938115	 0.10976
H	-1.0539366068	-2.0816993976	 1.7378860265	 0.11435
H	-2.1470932109	-0.2063362661	-0.5104121769	 0.086081
