21
gdb 92368	2.14214	1.91445	1.496	1.9147	76.3	-0.2471	0.0769	0.324	1018.8884	0.183742	-424.248816	-424.240618	-424.239674	-424.281132	32.679	
C	-0.1887915181	 1.5752577343	-0.0448455045	-0.42638
C	 0.0374314595	 0.0646707173	-0.0088229649	 0.014232
C	 0.79595471	-0.5244734181	-1.2400366666	-0.26427
C	 1.892611715	-1.3299258014	-0.5229895427	 0.183027
O	 2.8888254764	-0.4204408003	-0.0506364263	-0.277671
C	 2.3088977159	 0.1498989889	 1.1312334703	-0.112844
C	 0.9063168342	-0.4961174845	 1.1600775662	 0.334407
C	 0.2428140413	-0.6006107824	 2.5116509131	-0.490025
O	 1.2522389025	-1.8034151419	 0.6424643834	-0.280005
H	 0.7408967419	 2.1257111125	-0.2204138707	 0.125802
H	-0.8781156024	 1.8383260738	-0.8535223764	 0.120789
H	-0.6282623308	 1.9414999052	 0.8896694249	 0.114292
H	-0.9363347991	-0.4288622188	 0.0779656829	 0.07771
H	 0.1567429481	-1.1695138589	-1.8485995283	 0.102351
H	 1.2318330286	 0.2428912425	-1.8842462203	 0.107055
H	 2.3707895327	-2.1420349549	-1.0703955652	 0.087145
H	 2.8958996921	-0.1405809015	 2.0114492062	 0.098864
H	 2.2947096418	 1.2415823566	 1.0591465771	 0.101654
H	 0.0054415846	 0.393981425	 2.9020521188	 0.124017
H	-0.6879896792	-1.1705498203	 2.4394728623	 0.129435
H	 0.9002946751	-1.1017531832	 3.2276057609	 0.130414
