21
gdb 106193	3.20488	1.40763	1.36567	0.139	84.62	-0.2125	0.0883	0.3008	1080.9799	0.184243	-349.920669	-349.913078	-349.912134	-349.952694	31.061	
C	 0.1292095642	 1.5052753281	 0.1473574358	-0.37257
C	-0.0226788086	-0.0005352954	-0.1109286223	-0.317592
C	-1.4468296263	-0.4687870772	-0.0421225176	 0.389535
C	-2.2105448924	-0.8130395727	 1.226706092	-0.124548
C	-3.6163537486	-0.2441286782	 1.1956332038	-0.234358
C	-3.8649457479	-0.3345799275	-0.2985951589	-0.071741
C	-3.1414375925	-1.5309130152	-0.8907790679	-0.079568
C	-2.5720793749	-0.1384128169	-1.066947952	-0.147884
C	-2.029711631	-1.8576346919	 0.1351181106	-0.16599
H	 1.1762356304	 1.8159582167	 0.0753886159	 0.108383
H	-0.4430254195	 2.090270378	-0.5805817447	 0.117157
H	-0.2360529335	 1.7706874592	 1.1447900039	 0.116719
H	 0.3986984552	-0.2463139312	-1.0952403221	 0.096487
H	 0.572002399	-0.5619540932	 0.6210143683	 0.094954
H	-1.6591524819	-0.9240401996	 2.1537984438	 0.077893
H	-4.3261386476	-0.8468327551	 1.7742332886	 0.09587
H	-3.6576549004	 0.7878971215	 1.5631317327	 0.095912
H	-4.798225927	-0.0108077541	-0.7446400455	 0.080428
H	-3.5647832881	-2.2014718411	-1.6257006054	 0.081866
H	-2.4709111451	 0.459575738	-1.9629915072	 0.079703
H	-1.5253997237	-2.8050570222	 0.2715384682	 0.079343
