8
gdb 114	11.40917	4.38216	3.16609	5.2904	34.31	-0.2608	-0.0416	0.2191	372.7845	0.055704	-283.179781	-283.17476	-283.173816	-283.207861	15.692	
O	-0.2993548391	-0.0060179101	 0.0041716569	-0.242028
C	-0.1021729156	 1.1754461696	 0.0082607117	 0.173802
N	 1.1447936141	 1.8038964184	 0.0003847789	-0.307323
C	 2.4083395835	 1.2096032044	-0.0139633355	 0.173802
O	 2.6374857945	 0.0339414584	-0.0221441308	-0.242028
H	-0.9110599236	 1.9340713796	 0.0193140429	 0.091308
H	 1.1310914129	 2.8144460481	 0.005710151	 0.26116
H	 3.1963621033	 1.9899527716	-0.016766635	 0.091308
