17
gdb 58182	2.06371	1.42736	1.00682	0.3834	65.91	-0.2612	-0.1077	0.1535	1202.6329	0.131722	-496.111508	-496.101414	-496.10047	-496.146915	35.503	
C	-0.297567367	 1.5614200848	 0.433712051	-0.412048
C	-0.0536224882	 0.0926298367	 0.1086992657	 0.127145
O	 0.7447806914	-0.5618215003	 1.0839682537	-0.438386
C	-1.398598415	-0.6551307939	-0.1345636203	-0.019695
O	-2.031619099	-0.1652850237	-1.2898737655	-0.426556
C	-1.1363395343	-2.1444492752	-0.2695954263	 0.305659
O	-1.132808933	-2.6903556969	-1.3511243612	-0.305763
C	-0.9223330097	-2.9922245637	 0.9857609097	 0.104223
O	-1.137488213	-2.5906539288	 2.0996439487	-0.235157
H	 0.6546542649	 2.0903628189	 0.525062009	 0.127416
H	-0.8954875275	 2.0300277724	-0.3519072934	 0.143738
H	-0.8395572345	 1.6606326038	 1.3823226938	 0.111875
H	 0.5143848795	 0.0102235352	-0.8254820842	 0.101796
H	 0.2585864441	-0.5767610367	 1.9174260108	 0.29157
H	-2.054487862	-0.4939826046	 0.7321365411	 0.108134
H	-1.8491623	-0.8095393687	-1.9902409414	 0.295286
H	-0.6058406166	-4.0305631292	 0.7595469688	 0.120762
