16
gdb 45225	3.07235	1.97132	1.53011	5.0709	66.66	-0.2526	0.0176	0.2701	867.7402	0.127545	-437.89055	-437.884366	-437.883422	-437.921143	25.047	
O	-0.0895271351	 0.0253296528	 0.2834852896	-0.353569
C	-0.0419067067	 1.1939090298	 0.0439377572	 0.441549
O	-1.1633841883	 1.9707759588	-0.1337842896	-0.237797
C	-0.7898220726	 3.342791435	 0.0002050012	 0.087744
C	-0.4593410563	 3.8075018915	 1.4558387188	-0.268302
C	 1.0703216741	 3.7821236779	 1.1385949052	-0.049198
C	 1.7216029266	 2.3873839942	 1.2615021459	-0.19667
N	 1.123822826	 1.9903540129	-0.0698615965	-0.178472
C	 0.7119586353	 3.3947507546	-0.3307764059	-0.019943
H	-1.5013685178	 3.9439300272	-0.5632680867	 0.103686
H	-0.8198488069	 4.8215437818	 1.6441069222	 0.119275
H	-0.8173324338	 3.1536455585	 2.2553913339	 0.122191
H	 1.6572508577	 4.6546580716	 1.4208361765	 0.084614
H	 2.8126184474	 2.405407441	 1.1986976301	 0.12502
H	 1.4178214679	 1.7436040688	 2.0917058482	 0.132432
H	 1.1012764526	 3.8415759436	-1.2454562401	 0.087439
