17
gdb 45388	2.14514	1.73464	1.24572	2.9213	79.88	-0.2363	-0.0268	0.2096	1060.2372	0.13445	-384.650538	-384.642244	-384.6413	-384.683793	31.524	
O	 0.0216612472	 0.0485961116	-0.5691098804	-0.283665
C	-0.0381593913	 1.1655019277	-0.15377256	 0.352114
C	-1.1538574591	 2.0235065467	 0.4649116964	-0.353792
C	-0.1490287747	 3.1939049556	 0.6257835955	-0.085304
C	 0.6410062869	 3.188343922	 1.9563482752	-0.218802
C	 1.7363339596	 2.2804952454	 1.3294783523	-0.277286
C	 0.9973260224	 2.320154056	-0.0606366216	 0.075415
C	 1.7428105696	 2.6767373539	-1.2315052725	 0.174665
C	 2.3571539458	 2.9810471297	-2.2206590052	-0.404905
H	-1.9355411414	 2.2213058518	-0.2767175635	 0.142578
H	-1.6293085185	 1.6285061787	 1.3674980617	 0.129298
H	-0.4542686866	 4.1541110311	 0.214554811	 0.087971
H	 1.0196091566	 4.1734160928	 2.2364637839	 0.113946
H	 0.1037464442	 2.7741463876	 2.8136528953	 0.105345
H	 2.7199327545	 2.7477719874	 1.2726117745	 0.129454
H	 1.8515304844	 1.2799997892	 1.752048055	 0.120877
H	 2.9010560703	 3.2414352226	-3.0946692478	 0.192091
