18
gdb 75970	2.11969	1.90856	1.04773	2.5657	73.73	-0.257	-0.0219	0.2352	1119.6905	0.149044	-439.176195	-439.167716	-439.166772	-439.209843	31.098	
C	-0.0228041244	 1.4691896586	-0.0022342412	-0.345337
N	 0.0136518578	 0.002559265	 0.0133086783	-0.169454
C	 0.0681631749	-0.6263278365	-1.2376884788	 0.40999
O	 0.0771466427	 0.0376500416	-2.2508538207	-0.345589
C	 0.0972884475	-2.1438574258	-1.2566677817	-0.308424
C	 0.7143865246	-2.7448599059	 0.0038274171	-0.236491
C	 0.0015578506	-2.1723603475	 1.2264908974	-0.306287
C	-0.0232762486	-0.6536467234	 1.2539241758	 0.417276
O	-0.0876943302	-0.034022143	 2.2925828457	-0.345452
H	 0.8658937409	 1.8576948806	-0.503518546	 0.144694
H	-0.8999701976	 1.8133233569	-0.5541369159	 0.144574
H	-0.0616192343	 1.8089780387	 1.0294622477	 0.163913
H	-0.9413956571	-2.485426728	-1.3652239588	 0.133717
H	 0.6200320903	-2.4352737648	-2.169847961	 0.137972
H	 0.6344694	-3.8356021069	-0.0108692206	 0.113862
H	 1.7831408168	-2.5043013954	 0.0479787473	 0.118473
H	-1.043871378	-2.5103466287	 1.2431679999	 0.134229
H	 0.4490326043	-2.4919152853	 2.1696238254	 0.138333
