16
gdb 54622	3.79778	1.04756	0.82946	5.6705	74.58	-0.2459	-0.0743	0.1716	1305.8557	0.124194	-437.960237	-437.951407	-437.950463	-437.995116	31.21	
N	-0.0579977594	 1.3276711284	 0.0081732199	-0.541911
C	 0.0374285033	-0.0339191096	 0.0028697156	 0.341818
O	 1.1054545635	-0.6172300141	-0.0078995416	-0.350815
C	-1.2704165535	-0.7657613034	 0.0116271508	 0.235864
C	-1.3426641529	-2.1044718639	 0.0087609062	-0.268517
C	-2.7532494467	-2.5555152459	 0.0192411489	 0.399673
O	-3.155738843	-3.6943373598	 0.019454817	-0.323572
C	-3.628224686	-1.2895319646	 0.0287305343	-0.341626
C	-2.6383495469	-0.1079178252	 0.0243610343	-0.356093
H	 0.7954517016	 1.8613352826	 0.0031236055	 0.268023
H	-0.935477732	 1.8153883178	 0.0177789446	 0.264006
H	-0.4948694288	-2.7756865429	 0.0001415224	 0.143442
H	-4.2863142695	-1.2986936511	-0.8446350423	 0.140391
H	-4.2737118092	-1.3029894205	 0.9113764695	 0.140335
H	-2.7570871359	 0.5339416481	 0.906342232	 0.124475
H	-2.7709531545	 0.5391972242	-0.8517672871	 0.124508
