17
gdb 96903	4.55693	0.98846	0.90027	3.0252	85.45	-0.241	-0.0031	0.2379	1315.6531	0.133972	-380.790475	-380.781754	-380.78081	-380.823821	32.677	
C	-0.0141051869	 1.3802250916	 0.0733040977	-0.335764
N	-0.0825818454	-0.060320536	-0.0861119683	-0.273824
C	 0.5462613561	-0.5920581903	-1.0278258954	 0.397989
C	 1.4118003866	-0.1705510521	-2.2209609535	-0.412285
C	 1.5031062467	-1.6733693829	-2.5248209873	 0.130273
C	 1.9688221194	-2.413889171	-1.3311419743	-0.264561
N	 0.5417031909	-2.0095038693	-1.3482127979	-0.184949
C	 1.3714319409	-2.2495709722	-3.8192216015	 0.220301
C	 1.2881425347	-2.7066392586	-4.9286850298	-0.393499
H	 0.6180265267	 1.8935415937	-0.666238537	 0.10648
H	-1.0259968838	 1.7961680859	 0.0131436133	 0.135515
H	 0.3642729112	 1.6127105407	 1.0748054748	 0.133514
H	 0.8419510306	 0.3794443893	-2.9733526622	 0.145965
H	 2.3532388618	 0.3508564847	-2.0278904341	 0.126802
H	 2.0964043239	-3.4862607133	-1.4312602405	 0.143574
H	 2.6422818404	-1.9314471723	-0.6259867437	 0.127064
H	 1.2042616662	-3.1200409777	-5.9033534802	 0.197405
