21
gdb 109630	2.03297	1.30693	1.03865	0.7244	86.93	-0.2239	0.0538	0.2777	1298.0643	0.178667	-387.03778	-387.027015	-387.026071	-387.073123	39.122	
C	-0.0284404266	 1.1405689765	 0.4780088128	-0.238104
O	-0.1791819183	 0.0792329823	-0.448350301	-0.233718
C	-1.3642302139	-0.621975743	-0.2833872162	 0.070582
C	-1.4466670033	-1.9785304578	-0.9022885431	-0.098535
C	-0.3047173767	-2.5554594859	-1.710109112	-0.414996
C	-1.3849861442	-1.8605487458	 0.6343176115	 0.068875
C	-0.1145001082	-2.2593440412	 1.3717678302	-0.470782
C	-2.6104452202	-2.1122125233	 1.3405828329	 0.27507
C	-3.6395954928	-2.3147596837	 1.932135549	-0.457056
H	 0.9112234686	 1.6431929476	 0.2386268296	 0.129096
H	-0.8533287218	 1.8629187121	 0.3930002844	 0.113317
H	 0.0089963463	 0.7754522005	 1.5130563359	 0.117736
H	-2.2584989531	 0.0022782981	-0.2738131786	 0.093167
H	-2.4321764893	-2.2422336205	-1.2745431885	 0.098941
H	 0.660072264	-2.1497962319	-1.4035332007	 0.135523
H	-0.2701407723	-3.6460589058	-1.6200011522	 0.119677
H	-0.4381648884	-2.313188148	-2.7697542113	 0.122637
H	 0.768355223	-1.8387817012	 0.8877122204	 0.13207
H	-0.145519521	-1.8959373191	 2.4030799272	 0.1243
H	-0.0072940362	-3.3480847643	 1.4067941394	 0.124573
H	-4.5455564457	-2.4981974058	 2.4540014805	 0.187624
