16
gdb 31281	2.60487	1.39402	0.95589	1.3471	69.18	-0.2024	0.0069	0.2093	1215.6557	0.123252	-475.023147	-475.01416	-475.013216	-475.058287	30.608	
C	-0.4249052182	 1.131033001	-0.0718576223	-0.252078
O	 0.6821231057	 0.2317964719	 0.0926375093	-0.258306
C	 0.9508904231	-0.5399591937	-0.9597609264	 0.268005
C	 0.8118098588	-1.8685516619	-1.2261758469	 0.243419
O	 0.2442203283	-2.7871496811	-0.4257658754	-0.270835
C	 0.2843605147	-4.1316122008	-0.8956274072	-0.236679
N	 1.3492905805	-2.1480322671	-2.4673553048	-0.342479
C	 1.7753770942	-1.0016666316	-2.8979452498	 0.073579
O	 1.5793835878	 0.0266472134	-2.0530018447	-0.171846
H	-0.2199327042	 1.8593579323	-0.863600889	 0.133228
H	-1.3390810475	 0.5759420242	-0.3092950061	 0.129901
H	-0.5418946288	 1.6488649404	 0.8811277994	 0.139239
H	-0.2482165757	-4.2374296508	-1.846248985	 0.132664
H	 1.3152033063	-4.4742464962	-1.0331855373	 0.132278
H	-0.2061608234	-4.7274249938	-0.1245940323	 0.1296
H	 2.2576938485	-0.7821929061	-3.8370809414	 0.150311
