15
gdb 21109	3.50487	1.82189	1.21713	6.032	63.45	-0.2445	0.0066	0.2512	942.6321	0.119287	-395.969822	-395.961862	-395.960918	-396.002974	27.342	
C	-0.0244298307	 1.4405408709	 0.030261674	-0.337973
N	-0.0090406266	-0.0052803639	 0.0758463113	-0.016768
N	-0.0328073789	-0.7183338607	-1.0767547753	-0.152881
N	-0.0117689298	-1.9775057648	-0.7568323584	-0.192096
C	 0.026004624	-2.0932463491	 0.5988450951	-0.140894
C	 0.0275597004	-0.8331439784	 1.1503147734	 0.325438
C	 0.0609618056	-0.3616976213	 2.5664623704	-0.18759
O	 0.0777523045	-1.5058140725	 3.3957246637	-0.404884
H	 0.8760535769	 1.856531979	 0.4929488301	 0.14365
H	-0.0562203786	 1.7278430859	-1.0205766732	 0.173077
H	-0.9060805846	 1.8389307514	 0.5420837501	 0.143797
H	 0.0486139259	-3.0464543857	 1.098612935	 0.135441
H	 0.9509814411	 0.2705667786	 2.7305239057	 0.107743
H	-0.8179276314	 0.2743217886	 2.7711982958	 0.107326
H	 0.1128069123	-1.2140379582	 4.3111056223	 0.296613
