18
gdb 84958	2.2962	1.62736	1.01021	5.9354	74.74	-0.2337	-0.0603	0.1734	1168.9636	0.147148	-439.147672	-439.138651	-439.137706	-439.182114	32.6	
C	-0.1128489737	 1.5673220204	 0.009474611	-0.402923
C	 0.0330159349	 0.0444194236	 0.0048128999	 0.034483
C	 0.7901719673	-0.4939093162	-1.2281436554	-0.368496
C	 1.8481949096	-1.4392130688	-0.6814854934	 0.318812
O	 2.5837046121	-2.155372306	-1.3018715383	-0.280815
C	 1.8187438826	-1.326120339	 0.8527349519	 0.297805
O	 2.5399568349	-1.9019542322	 1.6375348669	-0.370728
N	 0.8082340216	-0.4528743188	 1.1465281755	-0.079614
C	 0.4139363336	-0.1928485082	 2.5139942088	-0.354019
H	 0.8697719841	 2.0502747546	-0.0081864652	 0.129089
H	-0.6713525143	 1.8877666764	-0.8752909851	 0.129971
H	-0.6554386308	 1.9206534753	 0.8908047199	 0.127183
H	-0.9726821408	-0.3991963408	 0.0489368101	 0.091978
H	 0.1419739788	-1.0082167627	-1.941268077	 0.146507
H	 1.2925592398	 0.313403486	-1.7723533197	 0.145798
H	 1.0585933983	-0.7936287866	 3.157930058	 0.172133
H	 0.531482336	 0.8642235539	 2.7748152892	 0.134924
H	-0.6332353941	-0.4766950108	 2.6778382029	 0.127913
