19
gdb 114959	3.29249	1.0364	0.88132	2.1994	73.09	-0.2129	0.0579	0.2707	1356.7022	0.160273	-456.353286	-456.344046	-456.343102	-456.387703	33.262	
C	 0.1508107937	 1.1833895585	 0.1455779471	-0.231938
O	 0.0181449665	-0.2168223839	-0.1106785157	-0.260735
C	 0.5818499598	-0.6417056347	-1.243146645	 0.476972
N	 1.2172191144	 0.0764675291	-2.0896539181	-0.370554
C	 1.6258488319	-0.8528080958	-3.1530360555	-0.184397
C	 1.3784868394	-2.2840508315	-2.5883958846	 0.013049
C	 2.6518397625	-2.9199096523	-2.0367604819	-0.086691
O	 2.2737733875	-4.1014375606	-1.3422538301	-0.426174
N	 0.4151940385	-1.9915215041	-1.5199601114	-0.359486
H	 1.2053315592	 1.4656195662	 0.2074864263	 0.137315
H	-0.3198805312	 1.7663531659	-0.6504177567	 0.141089
H	-0.3506667609	 1.3590532819	 1.0979723977	 0.127211
H	 1.0274164645	-0.6778043448	-4.0560796558	 0.106413
H	 2.6754542898	-0.6963192752	-3.4288860991	 0.099629
H	 0.9361209238	-2.9603044838	-3.3260192236	 0.088054
H	 3.3370191993	-3.1413081133	-2.8700388964	 0.092082
H	 3.1530583545	-2.2040982544	-1.3665160504	 0.097632
H	 3.0460547411	-4.4509502562	-0.8888445762	 0.292139
H	 0.4081881457	-2.632396811	-0.7372404505	 0.24839
