20
gdb 62708	2.82263	1.6759	1.47528	2.8033	76.79	-0.2279	0.071	0.2989	987.8279	0.171956	-403.118717	-403.110823	-403.109879	-403.150422	32.092	
C	-0.2500878634	 1.6020476234	 0.0557744164	-0.473567
C	 0.0272641928	 0.1051180555	 0.0063889563	 0.424603
O	-1.1761091887	-0.6175563052	 0.2503613286	-0.476859
C	 0.6470873989	-0.5352013198	-1.2264779601	-0.076487
C	 2.1298220581	-0.4269015276	-1.2857509209	-0.028057
C	 2.8932367732	 0.6321581341	-0.5030716747	-0.253376
C	 2.4343904748	 0.3779562526	 0.9570322687	-0.223995
C	 1.2206576119	-0.5318925558	 0.7895712769	-0.06235
N	 1.530999973	-1.448229672	-0.3988586337	-0.1471
H	 0.6311930651	 2.2033021147	-0.1780002068	 0.120931
H	-1.0378493951	 1.8512999836	-0.6616631482	 0.128866
H	-0.5999573395	 1.8989140174	 1.0530456771	 0.10612
H	-1.508672663	-0.349648357	 1.1141211915	 0.273366
H	 0.0578664622	-0.9159465395	-2.0559740103	 0.09461
H	 2.5902262212	-0.8413432642	-2.1781733041	 0.092325
H	 3.9706078061	 0.4829508546	-0.6178769402	 0.108146
H	 2.6745934495	 1.6467851449	-0.8490071352	 0.108983
H	 3.2141828633	-0.1462942938	 1.5181280526	 0.11073
H	 2.1979939485	 1.2966652122	 1.5015776023	 0.101564
H	 0.9246476911	-1.0900130983	 1.6786409538	 0.071547
