20
gdb 87805	2.81929	1.36817	1.17476	2.2966	79.19	-0.225	0.0679	0.2929	1138.5586	0.170483	-403.087482	-403.078735	-403.077791	-403.12069	33.831	
C	-0.0640041931	 1.5410092321	-0.0052503462	-0.388469
C	 0.0068510632	 0.0376827295	 0.097837397	-0.077513
N	 1.3509531998	-0.5758631497	-0.0406742219	-0.403263
C	 0.6458253743	-0.6574949223	 1.2365662768	 0.392552
C	 1.2610780357	-0.1215824539	 2.5421124957	-0.303946
C	 0.8196141384	-1.4186266885	 3.2438345693	-0.095623
C	-0.6501971332	-1.6205677987	 3.1082110828	 0.111901
O	-1.507099523	-0.5156267151	 3.1519248171	-0.421056
C	 0.2122714923	-1.9425274633	 1.9160651103	-0.237329
H	 0.8071649053	 1.9983752601	 0.4707294277	 0.127838
H	-0.0845428287	 1.8643346349	-1.0517145026	 0.115798
H	-0.9655798066	 1.9212159997	 0.487583431	 0.114941
H	-0.8190087245	-0.4937073357	-0.3770214218	 0.068828
H	 1.2886322119	-1.4626002298	-0.5366286975	 0.223979
H	 2.3460117789	-0.03567664	 2.4558214536	 0.113112
H	 0.8435142669	 0.8027651846	 2.9477726192	 0.111737
H	 1.4034449036	-1.9538607749	 3.9825925404	 0.090639
H	-1.0275376788	-2.5022875228	 3.6288310324	 0.086708
H	-2.2037354168	-0.6525952722	 2.5018057174	 0.286058
H	 0.2490769846	-2.9330609341	 1.4734747994	 0.083109
