18
gdb 37650	3.16817	2.35701	2.09195	1.4539	75.92	-0.2292	0.0768	0.3059	769.5198	0.152101	-364.741592	-364.736345	-364.735401	-364.770753	24.231	
C	-0.0507654045	 1.558615116	 0.0548922067	-0.234306
C	 1.4891746992	 1.5582529409	-0.0326028483	-0.050016
C	 2.1717064976	 0.8970962865	 1.2160512684	-0.048252
C	 1.1844852561	 0.1359820341	 2.137854854	-0.077846
C	 1.4998008182	-1.1803923745	 1.4879121851	-0.06405
C	 2.3945563049	-0.4495126813	 0.4523516779	-0.07245
C	 1.4626938267	 0.1167002291	-0.6516780258	-0.046852
C	 0.0229956999	 0.0113932217	-0.0263399326	-0.012856
N	 0.1864109227	-0.5682710425	 1.3212277432	-0.097092
H	-0.5333099498	 1.9805308936	 0.9419513856	 0.097795
H	-0.5003257139	 1.989677539	-0.8438676854	 0.098663
H	 2.0199344571	 2.4013179948	-0.4765422437	 0.060124
H	 2.9888175597	 1.4136588332	 1.7185863456	 0.067882
H	 0.9213301023	 0.3829685071	 3.160577537	 0.087961
H	 1.5885285798	-2.1834716347	 1.8881392883	 0.090418
H	 3.3843169492	-0.8263134755	 0.2050581921	 0.06643
H	 1.5959864584	-0.1082006781	-1.7097410942	 0.061749
H	-0.7535561237	-0.5309148794	-0.568339644	 0.072698
