16
gdb 10055	2.17396	1.7678	1.09827	4.2056	66.95	-0.269	0.0027	0.2717	1078.9475	0.129791	-379.958191	-379.949421	-379.948476	-379.992643	29.936	
C	 0.244408463	 1.3300981059	 0.2644650667	-0.380952
C	-0.0674438159	-0.1090559675	-0.1549288996	-0.171398
N	 0.5912188719	-0.5177749499	-1.3909377101	-0.04656
C	 2.0309237011	-0.7125401053	-1.4153505367	-0.303124
C	 2.4713338555	-1.7496506757	-0.4723215299	 0.269173
N	 2.8106434299	-2.5492341948	 0.2892801854	-0.305498
C	-0.1048688692	-0.7389028149	-2.5490254741	 0.163213
O	 0.3849306504	-1.0691698042	-3.6067044991	-0.33219
H	 1.3096627418	 1.4719855152	 0.469711209	 0.130317
H	-0.0529137973	 2.0385082918	-0.5143797782	 0.130623
H	-0.3002811581	 1.5752532843	 1.1809283927	 0.132815
H	 0.2134821167	-0.8068859602	 0.6431339978	 0.140478
H	-1.1438383865	-0.2265160173	-0.3134955482	 0.126567
H	 2.2876466645	-1.0061032377	-2.4378326185	 0.198158
H	 2.5658729543	 0.2162302302	-1.1841074323	 0.15851
H	-1.189412612	-0.5747206601	-2.4089767149	 0.089869
