20
gdb 22787	2.2945	1.32108	0.907	0.8903	80.24	-0.2407	0.0013	0.242	1329.6883	0.168462	-440.221718	-440.21173	-440.210786	-440.256763	36.184	
C	 0.5535069617	 1.887736108	-0.7471415274	-0.248634
O	 0.3344124833	 0.6240051527	-0.1463371265	-0.240452
C	 0.6537402026	-0.4702649234	-0.9498269656	 0.074497
C	 0.8022480996	-1.8095470594	-0.1798079269	-0.279943
C	-0.007011032	-2.5467082082	-1.2951009678	-0.057535
C	-1.0927264776	-3.5360606821	-0.8918371161	-0.398257
C	-0.4290011077	-1.1723104058	-1.7898596766	 0.362967
N	-1.4277690177	-0.8717000936	-2.5052356454	-0.252462
O	-1.5575727397	 0.5202759752	-2.6858106472	-0.386177
H	 1.6066798528	 2.0069928707	-1.0454684504	 0.10013
H	-0.0863896839	 2.0345808327	-1.624067582	 0.134251
H	 0.3152598996	 2.6402719332	 0.0082856643	 0.122959
H	 1.5374815119	-0.257648755	-1.5736640472	 0.081108
H	 1.8165376641	-2.1539937188	 0.0273876643	 0.102325
H	 0.2350810329	-1.7554879397	 0.7530733316	 0.121816
H	 0.674514081	-3.0142404918	-2.0171037859	 0.091629
H	-1.7805663328	-3.0853398215	-0.1696792373	 0.121249
H	-1.6783080207	-3.8463246337	-1.7621092636	 0.130641
H	-0.6549046372	-4.4307935662	-0.4369729846	 0.113996
H	-2.3508244003	 0.5803897365	-3.2285915098	 0.305893
