19
gdb 38534	3.11363	1.70607	1.2359	0.7215	83.22	-0.2142	0.0279	0.2422	1033.2391	0.161328	-385.857161	-385.850021	-385.849077	-385.888376	29.473	
C	-0.0739946656	 1.4157184522	 0.1749740987	-0.350023
C	 1.2911210067	 0.8022462501	-0.0379162855	-0.152666
C	 1.7554607181	 0.1347686729	 1.2809091207	-0.337322
C	 0.5484172911	-0.7955800842	 1.1489745244	 0.282452
C	 0.1842233819	-2.033856168	 1.4555135919	-0.25497
C	-0.9117559958	-2.6683411144	 0.6257363647	-0.253422
C	-1.5937524931	-1.6584979268	-0.319896985	-0.103802
O	-0.6691615747	-0.7855087042	-0.9880340599	-0.293465
C	 0.0241974111	-0.0746626986	-0.0279789458	 0.401496
H	-0.3436478234	 1.8585014426	 1.1322584844	 0.103919
H	-0.472654924	 1.9323183618	-0.69329445	 0.119454
H	 1.9346332765	 1.0800021402	-0.8623775031	 0.103198
H	 2.7068306201	-0.3987028356	 1.209181116	 0.119026
H	 1.7886143919	 0.8030825035	 2.1480412747	 0.106162
H	 0.6962628902	-2.6370013796	 2.1998421983	 0.084696
H	-0.4849537029	-3.4955898286	 0.0410786002	 0.112956
H	-1.6893266199	-3.1169925573	 1.2587209608	 0.104411
H	-2.1371370807	-2.1777972563	-1.1125861209	 0.108116
H	-2.3139061375	-1.0507218795	 0.2473557353	 0.099789
