16
gdb 125215	3.19982	1.37842	0.96923	4.8956	79.25	-0.1955	-0.0187	0.1768	1167.9472	0.12591	-434.091644	-434.0834	-434.082455	-434.124395	31.192	
C	 0.0520803447	 1.4844038906	-0.00651764	-0.492727
C	-0.0464400817	-0.0136550217	-0.0121211746	 0.418613
C	-1.2060954612	-0.7154585617	 0.0713543921	-0.265089
C	-1.2145129605	-2.1612354645	 0.0593304252	 0.230215
N	-2.292865769	-2.8612817201	 0.1368893172	-0.557035
C	 0.1507780987	-2.7166254185	-0.0513563904	 0.365121
O	 0.2298367911	-4.0626557458	-0.0693373938	-0.407724
N	 1.2477891763	-2.0415054353	-0.1302250626	-0.312168
N	 1.1365011218	-0.6885532843	-0.1095391086	-0.31219
H	 0.6549072967	 1.8393298544	 0.8374404127	 0.140246
H	 0.519341298	 1.8548708952	-0.9263269709	 0.140222
H	-0.9407308467	 1.9283987387	 0.0737129191	 0.151617
H	-2.1547745278	-0.2004025055	 0.1492385073	 0.108355
H	-2.061615229	-3.8549956675	 0.1102797906	 0.221118
H	 1.1654104947	-4.2951593766	-0.1435267314	 0.303314
H	 2.015467034	-0.2049565874	-0.1732754619	 0.268111
