20
gdb 126510	3.02682	0.99898	0.79792	2.4262	82.45	-0.196	0.0293	0.2253	1476.0473	0.172403	-399.353109	-399.343364	-399.34242	-399.388921	34.872	
C	-0.0358072127	 1.6349337942	-0.1357254389	-0.378976
C	 0.0145662792	 0.1063446254	-0.0891333349	-0.155585
C	-1.3844346779	-0.5309874534	 0.0441760983	-0.321346
C	-1.3783871272	-2.0228912677	 0.1085312568	 0.344432
C	-1.3629997858	-2.8858102592	 1.1941918061	 0.076202
N	-1.4106835012	-2.5071218723	 2.5566794265	-0.615938
C	-1.3679390328	-4.1814324296	 0.6285819607	-0.065144
N	-1.3851787986	-4.1434794164	-0.7026686108	-0.233709
N	-1.3754337853	-2.8315986487	-0.9898968937	-0.258876
H	 0.9664136833	 2.0644893179	-0.2273601819	 0.114768
H	-0.6281248064	 1.9862036301	-0.9881549205	 0.114929
H	-0.4928233449	 2.0434966336	 0.7724424121	 0.117505
H	 0.5015639255	-0.2797502442	-0.9931941025	 0.09747
H	 0.6387956164	-0.2216133367	 0.7512061666	 0.097789
H	-1.8660349505	-0.1575662986	 0.9560121758	 0.124024
H	-2.0107829209	-0.1966662946	-0.7940419582	 0.100735
H	-0.5895549389	-1.9847493531	 2.8410999458	 0.240794
H	-1.4799456242	-3.3185311406	 3.1585727504	 0.239492
H	-1.3720651682	-5.1334378448	 1.141214094	 0.096276
H	-1.3884777288	-2.5450112213	-1.9539893316	 0.265158
