21
gdb 75328	2.73599	1.67962	1.37856	0.0846	87.59	-0.2163	0.0147	0.231	1044.5594	0.185547	-349.980765	-349.973267	-349.972323	-350.01217	31.226	
C	-0.0350073276	 1.5296261696	 0.0484341121	-0.495068
C	-0.0207156397	 0.0308674433	-0.028343478	 0.342868
C	-0.0301641265	-0.6530526233	-1.177593492	-0.142767
C	 0.007693072	-2.1643029937	-1.2516722368	-0.252598
C	 0.0994371853	-2.8234051097	 0.15110466	-0.056747
C	-0.8136432329	-2.0346721892	 1.1148848955	-0.219924
C	 0.0389560273	-0.7575971589	 1.2831889023	-0.144918
C	 1.4357266052	-1.3725701252	 1.4102591034	-0.069339
C	 1.4633543553	-2.540449251	 0.7674435229	-0.067739
H	 0.8477766219	 1.9086598322	 0.5806015694	 0.121079
H	-0.0525891237	 1.9864988344	-0.9452281956	 0.1179
H	-0.909189293	 1.8911036814	 0.6061194404	 0.120301
H	-0.0526255367	-0.1179341886	-2.1253916745	 0.071841
H	-0.8923762516	-2.527007354	-1.7689232677	 0.101714
H	 0.8543463843	-2.4831753764	-1.8772767455	 0.099401
H	-0.1418780506	-3.8880787075	 0.0846229843	 0.058698
H	-1.8092140675	-1.8322818102	 0.7094537226	 0.090032
H	-0.9132256494	-2.5630254521	 2.0678933221	 0.090855
H	-0.2535797276	-0.1345915795	 2.1328030057	 0.055775
H	 2.2757933641	-0.8661128022	 1.8711255337	 0.090849
H	 2.3341114813	-3.1661091796	 0.6074157757	 0.087785
