17
gdb 4912	6.47743	1.22691	1.05163	0.9482	70.83	-0.2269	0.015	0.2419	1138.0814	0.14212	-363.915417	-363.907234	-363.906289	-363.948596	29.073	
C	-0.9274857066	 0.8178878534	-0.1074480651	-0.387316
C	 0.5375662588	 0.3749330008	-0.0931211364	-0.284979
C	 1.0070772078	-0.1302217202	 1.2333093756	 0.252462
C	 0.346992192	-0.2551874513	 2.4095324355	-0.124668
O	 1.2142868261	-0.7706226575	 3.3390129301	-0.176943
C	 2.3793372252	-0.9345228183	 2.6628499038	 0.377518
C	 3.5392968035	-1.4876224942	 3.4093983449	-0.48799
N	 2.317865709	-0.5748216309	 1.4201216178	-0.348974
H	-1.1037082627	 1.6301108861	 0.6056052028	 0.120163
H	-1.2146192055	 1.176498629	-1.099593151	 0.116887
H	-1.5950379338	-0.0095231238	 0.1551719588	 0.120168
H	 0.700895342	-0.4096383298	-0.8430508424	 0.119712
H	 1.185191024	 1.2065988301	-0.3989744087	 0.119708
H	-0.6520585466	-0.0491304611	 2.7507236862	 0.139312
H	 3.3141093375	-2.4825450579	 3.8073749482	 0.144565
H	 4.3926855638	-1.558336432	 2.734850163	 0.155813
H	 3.8048147855	-0.8469785924	 4.2567604567	 0.144564
