19
gdb 104380	2.22683	1.60216	1.28228	2.4196	71.37	-0.2419	-0.0251	0.2168	1091.6944	0.157025	-460.184235	-460.174781	-460.173837	-460.218642	34.169	
C	 0.1289609477	 1.3184861264	 0.1472482676	-0.254019
O	 0.0973067568	-0.0874580025	-0.0561718426	-0.287954
C	 0.6403705218	-0.5447697667	-1.2817708219	 0.352533
C	-0.0990025866	-0.054137215	-2.5122711909	-0.453921
O	 2.0107097673	-0.2352367575	-1.3914748884	-0.2802
C	 2.7447918233	-1.1298837267	-0.5360247319	-0.097203
C	 2.0299162477	-2.4797289035	-0.6522800558	-0.34519
C	 0.6258031876	-2.0864611943	-1.1114567386	 0.383944
O	-0.3042546404	-2.8088666396	-1.3373031781	-0.306809
H	 1.1149527071	 1.7342781212	-0.0882527523	 0.126626
H	-0.6319994531	 1.8352165083	-0.4515687755	 0.115881
H	-0.0890743016	 1.4826029911	 1.2048540855	 0.128785
H	-0.037173965	 1.0325520272	-2.6032522185	 0.126419
H	 0.3394868567	-0.4960111726	-3.4098085505	 0.129768
H	-1.1456866703	-0.3578104052	-2.4432954524	 0.146147
H	 3.7745355665	-1.1417380872	-0.8968053037	 0.11643
H	 2.7346753356	-0.7596308501	 0.4957810137	 0.11306
H	 2.4777582422	-3.1185204044	-1.4203955033	 0.143375
H	 1.9858519166	-3.0548940689	 0.2751825277	 0.142329
