17
gdb 60717	3.25812	1.10238	0.89932	3.707	75.24	-0.2336	-0.0369	0.1966	1282.3714	0.135922	-451.35887	-451.348978	-451.348034	-451.394431	34.636	
C	-0.3963615697	 1.4573963109	 0.0437459367	-0.339723
N	-0.091604831	 0.0237005403	 0.0258980202	-0.100695
C	 0.1359992352	-0.6274384883	 1.2352781066	 0.098159
N	 0.0435137728	-0.0175061295	 2.3483463811	-0.476398
C	-0.0404087673	-0.7023576491	-1.1507758472	 0.297851
N	 0.0100053921	-1.9830160844	-1.152855637	-0.518798
C	 0.0397736823	 0.1180929845	-2.4397793024	 0.310224
N	-0.7826075184	-0.3423428483	-3.4240993643	-0.52171
O	 0.8146727749	 1.0408592618	-2.583485179	-0.344609
H	 0.4838163027	 2.0512223571	-0.2087569348	 0.156207
H	-1.1901633701	 1.6838898198	-0.6708504795	 0.126813
H	-0.730513644	 1.7012249209	 1.0507656587	 0.168688
H	 0.3930105949	-1.6756202898	 1.0864811859	 0.146006
H	 0.2602329769	-0.6567412226	 3.1102382896	 0.229774
H	 0.1141515452	-2.3336965157	-2.1022198579	 0.226001
H	-1.49811493	-1.023029484	-3.2357931032	 0.270705
H	-0.7804308864	 0.1369661563	-4.3101456036	 0.271505
