21
gdb 40215	2.79364	1.4559	1.11351	1.5785	83.25	-0.2366	0.0207	0.2573	1152.4874	0.18445	-387.08639	-387.078265	-387.077321	-387.118978	32.308	
C	 0.1329640576	 1.4843570327	 0.0086916726	-0.236362
O	 1.237454709	 0.5759630518	-0.0066176854	-0.281221
C	-0.0974979569	 0.0312261749	 0.0031154412	 0.426552
C	-0.4691833155	-0.6523684416	 1.3071127626	-0.259806
C	 0.2542529785	-1.9953187759	 1.537252561	-0.252133
C	-0.2089660656	-3.1297099067	 0.654021753	-0.051517
C	-0.2215919446	-3.1225918975	-0.6792746003	-0.051517
C	 0.2249322695	-1.9787891783	-1.5589581077	-0.252134
C	-0.4938785852	-0.6384447385	-1.3008341936	-0.259806
H	 0.0058709754	 2.049749029	 0.9315787215	 0.107538
H	-0.0115269001	 2.0595566963	-0.905534198	 0.107538
H	-0.2130605513	 0.0246919072	 2.128950072	 0.096811
H	-1.5547610716	-0.8068085851	 1.3383099987	 0.098628
H	 1.3311314333	-1.8236176221	 1.4018807686	 0.126233
H	 0.1225599184	-2.2803461527	 2.5855608591	 0.096513
H	-0.5528759599	-4.0263162154	 1.164845563	 0.083248
H	-0.575203935	-4.0137284648	-1.1930372445	 0.083248
H	 1.304198911	-1.8084352106	-1.4421802104	 0.126233
H	 0.0733799164	-2.2526213537	-2.6075676156	 0.096513
H	-1.5798682128	-0.7926514274	-1.3131161348	 0.098628
H	-0.2532949806	 0.0473770884	-2.1200985328	 0.096811
