16
gdb 26041	3.18355	1.19573	1.02436	3.1051	76.59	-0.2248	0.0184	0.2432	1182.5171	0.125694	-396.919776	-396.911281	-396.910337	-396.953764	31.462	
N	-0.0970691907	 1.4729376659	 0.0593500341	-0.50541
C	 0.0177948385	 0.010853816	 0.0067710858	-0.249714
C	 0.693378714	-0.5025465777	-1.1998984243	 0.329087
C	 1.2234051988	-0.8976036718	-2.2046836764	-0.487965
C	 0.7364656389	-0.4574745006	 1.2492964755	 0.398654
N	 1.6352021055	 0.236017442	 1.9078238365	-0.302978
C	 2.052659653	-0.5775309934	 2.9367655188	-0.083782
C	 1.398257179	-1.7783370783	 2.8926395015	-0.112902
N	 0.5534545428	-1.6872409336	 1.8063360835	-0.291881
H	 0.7807332083	 1.8379073839	 0.4214970971	 0.254432
H	-0.2144886982	 1.8332466357	-0.8820716003	 0.232727
H	-0.9972323808	-0.4148510667	 0.0198640245	 0.109334
H	 1.7037374195	-1.2441531096	-3.0862483616	 0.200041
H	 2.7939936668	-0.2485612041	 3.6485047503	 0.110981
H	 1.4397807739	-2.659017277	 3.5111708873	 0.131007
H	-0.0684427393	-2.4054044108	 1.4741702876	 0.268369
