18
gdb 126979	3.10339	1.11126	0.831	2.7091	76.6	-0.2174	0.0125	0.2299	1388.9882	0.146321	-439.085802	-439.076428	-439.075483	-439.121371	32.534	
C	-0.0282279375	 1.4741211029	 0.0410974919	-0.391095
C	 0.0182482329	-0.0404971733	 0.0182236429	-0.057922
O	-1.3452534289	-0.5114551148	 0.0196836897	-0.277888
C	-1.5447601376	-1.8247740926	 0.0017073115	 0.487319
C	-2.7227543549	-2.5205366951	-0.0011697076	-0.009599
C	-4.1169752278	-1.979075584	 0.0154976255	-0.515403
C	-2.2598158936	-3.8620218068	-0.0234352751	-0.011275
N	-0.9531921922	-3.9773892377	-0.0344240862	-0.172964
O	-0.4855737393	-2.6435076487	-0.0171353846	-0.230973
H	 0.9897845526	 1.8740405589	 0.0408352545	 0.127711
H	-0.5525238034	 1.8600921837	-0.8373050272	 0.134474
H	-0.5416623098	 1.8335972356	 0.9369859553	 0.134476
H	 0.5258657321	-0.4175103492	-0.8761281453	 0.127747
H	 0.5368906749	-0.4439168714	 0.8945372	 0.127749
H	-4.6876210532	-2.2915908028	-0.8662327203	 0.131258
H	-4.6743616705	-2.3113324873	 0.8985193161	 0.13128
H	-4.0981693763	-0.8863416768	 0.0276280679	 0.137209
H	-2.8527233876	-4.7676606306	-0.0330249889	 0.127895
