20
gdb 10529	2.7946	1.53915	1.16	2.9135	72.16	-0.2476	0.0736	0.3213	1110.9063	0.175926	-386.112462	-386.103292	-386.102348	-386.146406	33.278	
C	-0.068629697	 1.4153163232	 0.0172776308	-0.230076
O	-0.041696715	 0.0143182294	 0.1748305505	-0.243388
C	-1.2704973335	-0.6126543042	-0.1762516038	-0.134932
C	-1.1090926137	-2.1096541548	-0.0755929992	 0.318112
C	-0.0193020245	-2.6899427575	-0.9615945533	-0.122811
O	 1.286433725	-2.3924534118	-0.5038999041	-0.429148
C	-1.3514822522	-2.7643572485	 1.260847309	-0.282499
C	-2.363341515	-2.9195800562	 0.1542685127	-0.324563
H	 0.9112059432	 1.7980199636	 0.3113555362	 0.133113
H	-0.2683852221	 1.7039319377	-1.0261355655	 0.110323
H	-0.8377446688	 1.8758274555	 0.6557576025	 0.110475
H	-2.0744973026	-0.2596889264	 0.4901114304	 0.086393
H	-1.5459696963	-0.3254528502	-1.205853941	 0.090612
H	-0.1013883448	-3.7825641439	-0.982844346	 0.094482
H	-0.1707119832	-2.3348828575	-1.9967353089	 0.074985
H	 1.2790119968	-1.4545496528	-0.272017917	 0.288465
H	-0.73183558	-3.6159041643	 1.5185832959	 0.124055
H	-1.6078019804	-2.1296805413	 2.102461316	 0.11185
H	-3.3073630196	-2.391140896	 0.242390806	 0.109153
H	-2.4420668464	-3.879569294	-0.344711111	 0.115397
