16
gdb 25952	4.97497	1.04586	0.86884	5.0663	74.47	-0.2051	-0.0014	0.2037	1284.2546	0.125596	-434.109989	-434.101876	-434.100932	-434.143469	29.608	
C	-0.0319149523	 1.4759971422	-0.1427690313	-0.470315
C	-0.0016630686	 0.0013785011	 0.1556426188	 0.404212
N	-0.1025592994	-0.578336855	 1.2829588052	-0.534382
O	 0.1565625613	-0.6840951625	-1.0006892874	-0.255981
C	 0.2241098391	-2.0471926083	-1.0785922679	 0.383113
C	 0.3830460692	-2.8080616883	-2.2060550043	-0.191068
N	 0.401396091	-4.1388526996	-1.8573932642	-0.25673
C	 0.2566143025	-4.1684304408	-0.5520741074	 0.00996
N	 0.1431643303	-2.9160843097	-0.020791498	-0.300562
H	 0.8970741345	 1.7782433794	-0.6351354301	 0.15832
H	-0.8525595594	 1.7031175404	-0.8295823693	 0.15833
H	-0.1584711425	 2.0553091674	 0.7726431562	 0.133111
H	-0.2152407098	 0.1024508442	 2.0286454624	 0.232541
H	 0.4826874949	-2.4728988911	-3.2258445238	 0.110366
H	 0.2259689565	-5.0545269824	 0.063386402	 0.128258
H	 0.0229627327	-2.593989177	 0.930336479	 0.290826
