23
gdb 118109	2.50928	0.87795	0.70923	2.9806	82.25	-0.2505	0.0741	0.3246	1647.6642	0.203799	-425.404002	-425.393182	-425.392238	-425.440426	39.527	
C	-0.2224769999	 1.4398476763	 0.1397507239	-0.399173
C	 0.0413918791	-0.0564850994	-0.0888857223	 0.013497
C	 0.7766007235	-0.3382697538	-1.4134423685	-0.202777
C	 0.0027871457	 0.0626284309	-2.6705477202	-0.066636
O	 0.6918365478	-0.276588986	-3.8653169518	-0.421675
C	 0.8261454267	-0.6395211943	 1.0751902128	-0.00295
C	 0.116609006	-1.072551112	 2.344458415	-0.346695
C	 0.728541687	-2.0967377872	 1.4196159136	 0.085302
O	-0.1016929874	-2.8813496786	 0.6085248469	-0.419438
H	 0.7156068448	 2.0080131682	 0.1395197337	 0.110981
H	-0.8680088767	 1.8643088144	-0.634759716	 0.114964
H	-0.7097494148	 1.6047234119	 1.1058744778	 0.112983
H	-0.9224338901	-0.5782743027	-0.1292533709	 0.079256
H	 1.750084342	 0.169984149	-1.4210362146	 0.094461
H	 0.9806875039	-1.4158538229	-1.4646150209	 0.100718
H	-1.0028159758	-0.3904175267	-2.6479189859	 0.083782
H	-0.1350376366	 1.1472916911	-2.7175066472	 0.109369
H	 0.8347865931	-1.2285409348	-3.8554790369	 0.278495
H	 1.8112268399	-0.1967896805	 1.2093871312	 0.082354
H	 0.5796230864	-0.8881350962	 3.3079178494	 0.108818
H	-0.9672438487	-1.0062690851	 2.3402881105	 0.111821
H	 1.6366205223	-2.5994676788	 1.7527186963	 0.08395
H	-0.5522135479	-3.5185377027	 1.1721047741	 0.288592
