21
gdb 62620	2.24761	1.84536	1.60678	1.5667	80.85	-0.2243	0.0814	0.3057	1002.6913	0.1806	-387.039193	-387.03052	-387.029576	-387.071476	34.911	
C	 0.0366115247	 1.5321050888	 0.0171920015	-0.459109
C	 0.0192439634	 0.0064190781	-0.022037059	 0.286192
C	-1.3990088505	-0.5451699064	 0.1334314096	-0.444912
C	 0.7835226103	-0.6920093331	-1.1576084574	-0.146043
C	 2.2391039424	-0.7650507407	-0.6720215505	 0.069446
O	 2.3218022662	-0.0998410177	 0.5866835064	-0.327814
C	 1.0453467375	-0.7403310125	 0.9150803259	 0.394212
C	 0.8432480212	-0.9565391552	 2.3822649989	-0.520263
C	 1.2710146835	-1.8037117037	-0.2349344453	-0.208931
H	 1.0598107574	 1.9091688249	-0.0231375392	 0.132547
H	-0.5217394896	 1.9444167293	-0.8313156353	 0.106491
H	-0.4353446901	 1.9109043938	 0.9317155974	 0.105726
H	-2.0409641731	-0.2028886108	-0.6857660127	 0.113218
H	-1.4121602378	-1.6398986655	 0.1297093889	 0.113118
H	-1.853915426	-0.2008667093	 1.0691001438	 0.111584
H	 0.509709043	-0.7662933574	-2.2035508546	 0.08132
H	 3.111840915	-0.7965039591	-1.3107081314	 0.106348
H	 0.8341362867	 0.0051609613	 2.9066775667	 0.133448
H	-0.1072062345	-1.4626190783	 2.5743389308	 0.125822
H	 1.6528381833	-1.5631305271	 2.7976756738	 0.131807
H	 1.2455713171	-2.8829225693	-0.2910580884	 0.095792
