16
gdb 66015	2.88631	1.3182	1.17954	2.3407	64.81	-0.2536	-0.0172	0.2365	1080.2371	0.123791	-475.004837	-474.996319	-474.995375	-475.038619	30.513	
O	-0.1021416632	 1.4103057994	-0.0692811297	-0.475034
C	-0.0291764763	 0.0107759218	-0.0306873614	 0.182041
C	 0.9187739372	-0.7054665574	-1.0341770037	-0.12657
O	 1.6456987793	-1.3143103482	 0.0829541903	-0.239376
C	 0.9278266464	-0.6153086202	 1.0185139834	 0.387821
O	 1.1021709261	-0.5607427109	 2.1920528698	-0.318682
C	-1.4357922403	-0.5490707444	 0.023193228	-0.011763
C	-2.4622327439	 0.1084189242	 0.8641501042	-0.236142
N	-2.5386340732	 0.1856953798	-0.6069196565	-0.334201
H	 0.7129079494	 1.7893447126	 0.2751138353	 0.303974
H	 0.4782940691	-1.4684015429	-1.6775879818	 0.136103
H	 1.5675746814	-0.0354669395	-1.6023995996	 0.126232
H	-1.4776290133	-1.6272559137	-0.1143708306	 0.103529
H	-3.2336292994	-0.4930403137	 1.3350153356	 0.12386
H	-2.1651092063	 0.9987665867	 1.4085531209	 0.129506
H	-2.197468513	 1.0990862663	-0.8997806343	 0.2487
