19
gdb 57508	3.03966	1.03259	0.93184	1.9663	80.03	-0.271	-0.0373	0.2337	1348.1952	0.154604	-423.033017	-423.022666	-423.021722	-423.06799	37.982	
C	-0.0843812393	 1.5683065903	 0.0759711854	-0.418971
C	 0.038128653	 0.0421010207	 0.0583490883	 0.368206
C	 0.6927356324	-0.5047238925	 1.3299920849	-0.418971
C	-1.3233770595	-0.6121522223	-0.1795232452	-0.404774
O	 0.8081441283	-0.3856438571	-1.1257567802	-0.283501
C	 2.0813133442	-0.01326999	-1.29881868	 0.284134
O	 2.743477901	 0.6795005711	-0.5634346308	-0.36673
C	 2.5972514744	-0.5685122422	-2.5367015481	 0.241285
C	 3.0786395782	-1.000565861	-3.5493090279	-0.35923
H	 0.8833324932	 2.0415323085	 0.2413108102	 0.15289
H	-0.4994598585	 1.9281735285	-0.8702576324	 0.120642
H	-0.7642817302	 1.8669759245	 0.8798191197	 0.116362
H	 0.0465810386	-0.2949203247	 2.1879579914	 0.116344
H	 0.8186460395	-1.5891833632	 1.2576481613	 0.120629
H	 1.6658461518	-0.0456599027	 1.5034213654	 0.152921
H	-1.7659952613	-0.2546437987	-1.1131836213	 0.124704
H	-1.2243805626	-1.6993732462	-0.2394657663	 0.124709
H	-2.0032794649	-0.3700774649	 0.6422279326	 0.118693
H	 3.5055776517	-1.3824458679	-4.4444647172	 0.210658
