18
gdb 35082	3.29525	1.41435	1.24245	4.202	80.04	-0.2577	-0.0065	0.2511	1045.2369	0.150886	-364.823434	-364.81633	-364.815386	-364.854909	28.642	
N	-0.0781282516	-1.1731663958	-0.1526445737	-0.328325
C	-0.0479012921	-0.0204838131	-0.0701916591	 0.269006
C	-0.0017565763	 1.4434268982	 0.038100877	-0.189529
C	-0.7175089243	 1.9205060204	 1.2973466684	-0.07388
C	-0.0486453244	 2.6798532792	 2.162968216	-0.059038
C	 1.3922994257	 3.0302322502	 1.8633982868	-0.057606
C	 1.476455545	 3.4764577764	 0.3695291287	-0.237123
C	 1.4621094498	 1.9595516937	 0.0268670199	-0.021205
C	 2.1258578184	 1.7274308912	 1.4137571054	-0.222649
H	-0.5219655318	 1.8386582568	-0.8467034486	 0.129955
H	-1.7495103576	 1.6206776262	 1.4414059358	 0.111651
H	-0.5188950494	 3.0535821571	 3.0670437705	 0.100894
H	 1.8493918071	 3.6575406474	 2.6287358882	 0.068014
H	 0.6724475285	 4.108002771	-0.016567494	 0.099957
H	 2.4457016128	 3.91965685	 0.1274180559	 0.104638
H	 1.9840473652	 1.6172348837	-0.868280787	 0.083833
H	 3.207590057	 1.86932778	 1.3549475518	 0.104838
H	 1.8995925781	 0.8035597175	 1.950035188	 0.11657
