22
gdb 61164	2.89692	0.94288	0.86559	5.0198	82.71	-0.2822	0.0313	0.3134	1449.5462	0.191118	-404.372266	-404.361326	-404.360381	-404.408021	40.434	
C	-0.0156933057	 1.5293043897	-0.0102066471	-0.411699
C	 0.0029792364	-0.0104095725	 0.0604065836	 0.24703
C	 0.7158462997	-0.4488406605	 1.3533100179	-0.432361
C	-1.4485668432	-0.5259293776	 0.0657166836	-0.421604
C	 0.7541263651	-0.5229639582	-1.2050866037	 0.131507
O	 2.0742012308	-0.0147770864	-1.2971432923	-0.428207
C	 0.7603428699	-2.0642201181	-1.3561146918	-0.402521
C	 1.42609983	-2.4951677826	-2.5831149638	 0.278846
N	 1.9405703762	-2.8482649354	-3.5553484738	-0.305195
H	 0.9972356938	 1.9288770107	-0.0929538219	 0.13146
H	-0.5845730723	 1.8745595528	-0.8805658499	 0.112525
H	-0.486371918	 1.9491633594	 0.8845693449	 0.108462
H	 0.193399509	-0.0459650769	 2.226497639	 0.124588
H	 0.7424065355	-1.5375945672	 1.4695446826	 0.112665
H	 1.7433573332	-0.0720006317	 1.395525551	 0.111562
H	-1.9479231405	-0.3209715754	-0.8882425584	 0.117991
H	-1.5115674979	-1.6016990447	 0.2581851056	 0.113204
H	-2.0235813829	-0.024448978	 0.8506893639	 0.119411
H	 0.2413735837	-0.1082590879	-2.0807412974	 0.106637
H	 2.611692403	-0.4207199517	-0.6083666879	 0.285205
H	 1.2706770461	-2.528334508	-0.503477543	 0.143635
H	-0.2611416619	-2.4552788496	-1.363576131	 0.15686
