16
gdb 42284	3.33448	1.19177	0.99174	3.6972	74.63	-0.2581	-0.084	0.1741	1176.2969	0.124467	-400.780958	-400.772709	-400.771765	-400.815222	29.5	
O	 0.2135758915	-0.0823273769	 0.5433107058	-0.264622
C	-0.00041421	 1.0491536506	 0.1921955807	 0.288213
C	 1.1305214376	 1.8948955825	-0.265916558	 0.233124
N	 2.0097390517	 2.5630125021	-0.6093214184	-0.300971
C	-1.3488173341	 1.7441937925	 0.1620232056	-0.110655
C	-1.7382075246	 2.1035248259	-1.3154908418	-0.281595
C	-2.8360076562	 1.1164830532	-1.6259738569	-0.052454
C	-3.2357974103	 0.4409004638	-0.552104791	-0.049586
C	-2.4821977933	 0.8323245104	 0.6949027466	-0.28749
H	-1.2308232734	 2.6605480403	 0.7503489077	 0.116207
H	-2.0918387006	 3.1392804276	-1.3856913651	 0.125202
H	-0.8888026066	 2.0297224908	-2.005252973	 0.127406
H	-3.2453400445	 1.013815092	-2.6243335676	 0.103196
H	-4.0248246029	-0.3021009035	-0.537804377	 0.102872
H	-2.0737506237	-0.0307340326	 1.2291921429	 0.138446
H	-3.1264162906	 1.3719910011	 1.4000096394	 0.112707
