19
gdb 52532	3.55563	0.81194	0.70539	3.4545	87.65	-0.2491	-0.0448	0.2043	1651.7887	0.157569	-385.874837	-385.864896	-385.863951	-385.912692	34.044	
C	 0.3267696213	 1.4252277283	 0.3080686577	-0.503275
C	 0.1341563585	 0.0017639538	 0.0908894477	 0.112863
C	-0.0462237209	-1.1781154574	-0.0907481194	 0.009745
C	-0.235807829	-2.5989555393	-0.3112868192	 0.200839
O	-1.3234415952	-3.0652829951	-0.587690686	-0.299411
C	 0.9992240675	-3.4510949882	-0.1243916215	-0.068287
C	 1.3405872262	-3.8430480716	 1.3570106802	-0.221889
C	 1.6696256996	-5.2735859081	 0.8524806092	-0.209377
C	 0.9038493868	-4.959255327	-0.4607178974	-0.240685
H	 1.375708082	 1.7128071309	 0.1815240258	 0.156423
H	-0.2763261841	 2.0144225226	-0.3908802668	 0.162766
H	 0.0229066014	 1.7035034971	 1.3233387756	 0.162852
H	 1.8577981988	-2.96092132	-0.5928585189	 0.085925
H	 2.1307107561	-3.2750920491	 1.8516626667	 0.104589
H	 0.4464936169	-3.8264921118	 1.9863632858	 0.115672
H	 2.7417607589	-5.4039019487	 0.6805323798	 0.10272
H	 1.3116970764	-6.1096999677	 1.4572015853	 0.10204
H	-0.138360967	-5.2840437266	-0.4290761355	 0.1277
H	 1.3497853759	-5.2879950321	-1.401622109	 0.09879
