17
gdb 71610	2.16556	2.0044	1.73237	2.6316	67.09	-0.2374	0.0558	0.2933	898.1845	0.136061	-458.912057	-458.904577	-458.903633	-458.943378	30.204	
O	 0.1042829467	 1.3485943762	 0.0686631593	-0.478224
C	 0.0752995474	-0.0261600775	-0.0125171734	 0.343759
C	 0.6569912844	-0.9731842479	-1.0954384235	-0.32855
C	 0.0521711532	-1.9151596917	-0.0275906574	-0.175163
C	 0.5917281758	-0.9795094724	 1.0915448243	 0.094168
O	-0.280127292	-0.9806959032	 2.2109215946	-0.27776
C	-1.5712369106	-0.9321325461	 1.5967570884	-0.152771
C	-1.1815886873	-0.9505992583	 0.1167066763	 0.298724
O	-2.1690964128	-0.8265312882	-0.8544694009	-0.488574
H	-0.453360384	 1.7039888847	-0.6331015414	 0.290874
H	 0.1505321022	-0.9637494356	-2.061589889	 0.107978
H	 1.744171297	-0.9854944417	-1.2061551058	 0.096735
H	 0.039484032	-3.0024842798	-0.0169792481	 0.080345
H	 1.6353920178	-0.9922101865	 1.3971381673	 0.096641
H	-2.1745745793	-1.7970205325	 1.9043376255	 0.091642
H	-2.0991810018	-0.0109585359	 1.8727247002	 0.111251
H	-2.7644985586	-1.5812343534	-0.7943913566	 0.288925
