13
gdb 3498	7.26329	2.04069	1.936	2.8179	58.64	-0.263	0.0143	0.2773	664.3482	0.104021	-303.43618	-303.430641	-303.429697	-303.465479	21.006	
N	-0.0879670419	-1.2140181587	-0.1057316293	-0.327533
C	-0.0574883454	-0.0588661556	-0.0559573576	 0.257078
C	-0.0152870532	 1.3936262113	 0.0103101468	-0.14181
C	 0.0964674806	 2.1270466148	 1.3935015555	-0.023546
C	 1.5564438905	 1.6231904391	 1.5152539858	-0.211404
C	 1.3582758076	 2.1506733485	 0.0720918155	-0.023546
N	 0.6629948487	 3.3457258835	 0.6929028525	-0.315707
H	-0.7439593636	 1.8315759326	-0.6776655311	 0.114302
H	-0.6737356048	 2.198679742	 2.1612283746	 0.103041
H	 2.2022449581	 2.2355112055	 2.142874524	 0.122046
H	 1.7111711765	 0.5524884618	 1.6438586182	 0.132446
H	 2.0881331598	 2.2503945878	-0.7310971072	 0.103041
H	-0.030198523	 3.7224357174	 0.0377113124	 0.211591
