21
gdb 108475	2.16194	1.5294	1.22275	1.0262	77.37	-0.2447	0.0652	0.3099	1148.0507	0.181651	-424.192446	-424.183224	-424.18228	-424.226912	34.607	
C	-0.1457005091	 1.6251372151	 0.1259257903	-0.380763
C	-0.0258455935	 0.0958810878	 0.0637110638	-0.313621
C	-1.3753101153	-0.5842005693	-0.0298440358	 0.317362
C	-2.2933095056	-0.5857636233	 1.2043645039	-0.140165
O	-2.5566279346	-2.0025823272	 1.0798448118	-0.296455
C	-1.6492002284	-2.1221670288	-0.0385062874	 0.041245
C	-2.391404212	-2.0252125978	-1.3858054538	-0.282795
C	-2.1555045012	-0.4805959455	-1.3890670945	 0.073691
O	-3.2617270329	 0.3813851038	-1.4879772956	-0.431265
H	 0.840730983	 2.0971610824	 0.1552201077	 0.113754
H	-0.6835565394	 2.0158350171	-0.7436837241	 0.133238
H	-0.6931890877	 1.9429478614	 1.0199073802	 0.119075
H	 0.5849810061	-0.1895070328	-0.8031188394	 0.096114
H	 0.5102160741	-0.2702017697	 0.9491530665	 0.098032
H	-1.7747979606	-0.3560026499	 2.1449870884	 0.100042
H	-3.2067171997	 0.021688672	 1.1563156276	 0.090769
H	-0.8968464988	-2.9011174795	 0.1109030404	 0.073216
H	-1.9157964162	-2.5471048248	-2.2204258896	 0.105236
H	-3.4375058008	-2.3377150403	-1.3218824026	 0.106191
H	-1.477445319	-0.1720174389	-2.1906634052	 0.090118
H	-3.9670299984	 0.0348414481	-0.9315448528	 0.286981
