21
gdb 74270	2.57409	1.41879	1.18171	1.3496	84.74	-0.2226	0.0206	0.2432	1170.1988	0.181312	-387.096499	-387.087347	-387.086403	-387.129605	35.975	
C	-0.0094424632	 1.5138339899	 0.0923698106	-0.495723
C	-0.0078613719	 0.0200249512	 0.0080344097	 0.322797
C	 0.0271540042	-0.7381690118	-1.0917158551	-0.253226
C	 0.0215108839	-2.2318630248	-0.7941133952	 0.352415
C	-1.2291191587	-2.9315996805	-1.3386546867	-0.438683
O	 1.1970223918	-2.8846453774	-1.2992839606	-0.466705
C	 0.0678294359	-2.2682499126	 0.7366091443	-0.047742
C	 1.2692772948	-1.6670181261	 1.4138576816	-0.290427
C	 0.0084750613	-0.8417919417	 1.2349357562	-0.136397
H	 0.8589280264	 1.8762664168	 0.6567038561	 0.130252
H	 0.0064156019	 1.97544211	-0.8984591795	 0.122015
H	-0.8984955499	 1.8778213903	 0.6228430106	 0.125381
H	 0.0931363193	-0.3626121138	-2.1090437314	 0.076055
H	-1.2953462382	-2.8195779411	-2.427565126	 0.099387
H	-1.192717951	-4.0007504127	-1.1052876193	 0.11972
H	-2.1379855322	-2.5041178485	-0.9044307889	 0.120107
H	 1.1672004899	-2.8312108427	-2.2606582664	 0.271848
H	-0.466863106	-3.064056344	 1.2419122797	 0.07911
H	 1.4972339484	-2.0255045569	 2.4124736294	 0.104984
H	 2.131246885	-1.4234269061	 0.8036471325	 0.124634
H	-0.5657571517	-0.5555146876	 2.1098890381	 0.080197
