16
gdb 92395	2.36688	1.61518	1.30801	3.0011	69.59	-0.2715	-0.015	0.2565	1023.0985	0.123541	-437.853767	-437.845756	-437.844812	-437.886425	29.639	
C	 0.2831056749	 1.5265518846	-0.0543625395	-0.413715
C	 0.0643322082	 0.0394243497	 0.0793083466	 0.103285
O	 0.8538058401	-0.7614615356	-0.8497032309	-0.309021
C	 1.3822219993	-1.5839756887	 0.194155432	 0.016295
C	 2.699530572	-1.053440947	 0.7718424964	-0.10397
O	 1.9800634106	-0.1728556716	 1.6851979587	-0.320838
C	 0.7090029855	-0.7051791683	 1.2821118878	 0.2461
C	-0.1253608027	-1.1382469883	 2.3832666184	 0.236453
N	-0.8136425656	-1.4899812275	 3.2427370769	-0.33261
H	 1.316940427	 1.7869876419	 0.1807978665	 0.141233
H	 0.0575950093	 1.8395914426	-1.0778952787	 0.137326
H	-0.3819019298	 2.0690937341	 0.6251769708	 0.134529
H	-0.9962070259	-0.2255836834	-0.0206844027	 0.098759
H	 1.2370374498	-2.652637062	 0.0347044665	 0.114087
H	 3.2923748611	-1.7882102269	 1.3281927803	 0.12406
H	 3.3273063264	-0.5022185538	 0.0667898011	 0.128027
