25
gdb 120482	3.43868	0.77017	0.69715	1.3217	89.43	-0.2503	0.0742	0.3244	1749.7522	0.227734	-389.489405	-389.478627	-389.477683	-389.525389	40.013	
C	 0.0924089945	 1.5590641999	 0.0537175283	-0.380114
C	 0.0086903065	 0.0309605674	 0.0991563727	-0.163169
C	-1.4207601334	-0.4997127148	-0.0703280898	-0.190906
C	-1.5058772482	-2.0203229129	-0.0147893261	 0.037284
C	-1.2442457201	-2.7496687134	 1.3352104648	-0.283628
C	-2.3434123103	-3.7675408548	 0.9352061041	 0.140856
O	-3.2798136878	-4.189243568	 1.9011466256	-0.43204
C	-2.8950363494	-2.7442313714	-0.0944370077	-0.053101
C	-4.0969244499	-1.9457121348	 0.4066770837	-0.385808
H	 1.12262064	 1.9082684606	 0.1760191392	 0.109178
H	-0.2798763145	 1.9480119566	-0.9007870637	 0.112522
H	-0.5092263414	 2.0120342666	 0.8497440891	 0.11308
H	 0.6480072589	-0.3954114546	-0.6854786638	 0.091693
H	 0.4188636906	-0.3294994418	 1.051584207	 0.098138
H	-2.0605557143	-0.0616101469	 0.7064745767	 0.091754
H	-1.8237927627	-0.1469448307	-1.0304902357	 0.089694
H	-0.8461940869	-2.4382668779	-0.7851391986	 0.064666
H	-0.2387482941	-3.1272231398	 1.539417905	 0.087282
H	-1.5783640614	-2.146118224	 2.1854972213	 0.100988
H	-1.8991870119	-4.630697127	 0.4178001389	 0.06141
H	-2.8297261605	-4.7678297794	 2.5245013776	 0.281204
H	-3.1323014939	-3.1690026918	-1.0749786733	 0.061737
H	-3.9251462917	-1.5106070211	 1.3952268186	 0.117837
H	-4.3383388901	-1.1321937896	-0.2849857086	 0.106434
H	-4.9730619382	-2.5945767064	 0.4900315448	 0.12301
