17
gdb 39929	3.21292	1.60499	1.25887	1.9959	74.03	-0.2488	-0.0018	0.247	1000.4168	0.137147	-421.791521	-421.784489	-421.783545	-421.823053	27.682	
C	-0.1818375712	 1.4564778135	-0.0107574004	-0.2422
O	 1.1050480094	 0.8369597968	 0.0109855904	-0.287194
C	-0.0623809049	-0.0054563361	 0.0301107018	 0.421432
C	-0.2997151036	-0.863444155	 1.2197979806	-0.142968
C	-0.5929081641	-2.1190336541	 0.8687386048	-0.096439
C	-0.6311106458	-2.3066588728	-0.6236462099	-0.140145
C	-2.0156615526	-2.1298081566	-1.2997841574	-0.075512
O	-1.7139704532	-0.7644216389	-1.6529304347	-0.288214
C	-0.3521591214	-0.8843710694	-1.1781605133	 0.012
H	-0.4576858676	 1.9990688783	 0.8929281614	 0.11393
H	-0.4601041994	 1.940459242	-0.9458476119	 0.125539
H	-0.2198450914	-0.4839777754	 2.2315522886	 0.107702
H	-0.804940786	-2.9253896973	 1.5623239771	 0.10547
H	-0.0339209341	-3.1469019463	-0.9834732992	 0.089843
H	-2.1675540787	-2.753223328	-2.1900390487	 0.101587
H	-2.8928374621	-2.2060621549	-0.647361113	 0.105706
H	 0.3810211468	-0.748704906	-1.9793533362	 0.089464
