14
gdb 18663	3.47523	2.39531	1.56735	3.0474	63.81	-0.2176	-0.0109	0.2067	777.6904	0.11048	-378.739423	-378.733266	-378.732321	-378.769601	24.258	
O	 0.0209134629	-0.0203170137	-0.1553081929	-0.370278
C	 0.009330161	 1.1842167587	 0.0008148175	 0.470296
N	-1.1701454427	 1.890778124	 0.1453572511	-0.351994
C	-1.2882902675	 3.2779209875	 0.0800186095	 0.01647
C	-0.2324870842	 4.0902915384	-0.0324987157	-0.095342
C	 1.1309314698	 3.5221719442	-0.0012694832	-0.093047
N	 1.5029708978	 2.8058919745	 1.240682452	-0.328321
C	 1.2508161547	 2.0242281042	 0.0118392939	-0.177253
H	-2.0026176928	 1.3210396868	 0.1272617009	 0.256769
H	-2.3080641012	 3.6419039324	 0.1131140117	 0.122965
H	-0.3733590725	 5.1604398516	-0.1079573607	 0.101987
H	 1.915337633	 4.0778019661	-0.5080091845	 0.095359
H	 2.5097100951	 2.862451628	 1.3769459648	 0.240744
H	 2.0892669867	 1.5388664573	-0.4767090143	 0.111645
