20
gdb 119179	3.11035	0.94696	0.79942	2.8312	74.98	-0.245	0.0672	0.3122	1452.7214	0.170097	-440.219694	-440.210217	-440.209273	-440.254725	34.565	
O	 0.3582403571	 1.5065268057	-0.2592991028	-0.413227
C	 0.2369649747	 0.0942568955	-0.2642458764	-0.080909
C	-1.2263454292	-0.3574560183	-0.2421565125	-0.289606
C	-1.4976441124	-1.8387027954	-0.0040403848	 0.280392
C	-0.4466324678	-2.8764278613	-0.2000840243	-0.27891
N	-0.909327417	-2.5257351077	 1.1549355927	-0.340858
C	-2.9259683094	-2.214097469	-0.2896760775	 0.02519
C	-3.6880472849	-3.1346805874	 0.5585213633	-0.169714
O	-3.9070427883	-1.7214599159	 0.6276532343	-0.24526
H	-0.0766952264	 1.8426132468	-1.0496385256	 0.283536
H	 0.760758325	-0.3456018648	-1.1267066401	 0.093616
H	 0.7646051195	-0.2403185405	 0.636573701	 0.107288
H	-1.7532396121	 0.2141824866	 0.5313213626	 0.135175
H	-1.6903030164	-0.0744661325	-1.198046054	 0.093775
H	-0.7285378746	-3.8727116396	-0.5308080577	 0.116887
H	 0.5463483245	-2.566298549	-0.5108966853	 0.117077
H	-0.2313339071	-1.9258608695	 1.6176197216	 0.233589
H	-3.2153620184	-2.1141623878	-1.3384397894	 0.087709
H	-4.5042594899	-3.7103114295	 0.1233590356	 0.106722
H	-3.1956839071	-3.5677875564	 1.4245125994	 0.137526
