15
gdb 43748	4.68204	0.96492	0.8947	2.861	71.61	-0.2485	-0.032	0.2165	1265.4653	0.109554	-420.563527	-420.555235	-420.554291	-420.597026	30.679	
O	 0.2546832071	-0.0008943786	 0.0183134061	-0.292594
C	 0.1007417073	 1.1813592649	 0.0678240106	 0.43111
C	-1.1484850155	 2.1135732766	 0.0056373644	-0.411226
C	-0.1484277174	 3.2771493425	-0.1244036705	 0.42774
C	-0.3069316343	 4.5716786029	-0.8755846458	-0.467205
C	-1.3852668611	 5.3976714538	-0.3388772095	 0.300371
C	-2.282585881	 6.0582451434	 0.1090890138	-0.436641
O	 0.6203137188	 3.2535937803	 1.0705144495	-0.266411
C	 1.0385140609	 2.3845102384	-0.0102519344	-0.189918
H	-1.7366226182	 1.9012837476	-0.8924314139	 0.135949
H	-1.7990533021	 2.1532384921	 0.8805026867	 0.143832
H	 0.6439707758	 5.1152183637	-0.8345603472	 0.151632
H	-0.5040503406	 4.348568643	-1.9321200947	 0.144817
H	-3.0692763513	 6.6512643686	 0.5057134254	 0.205376
H	 2.0579930217	 2.4810053207	-0.3653745205	 0.123168
