18
gdb 66854	2.57373	2.11295	1.85812	0.4624	73.11	-0.2364	0.0595	0.2959	861.9361	0.149728	-401.899144	-401.892559	-401.891615	-401.929654	27.561	
C	-0.0860649185	 1.5114095798	 0.009907867	-0.514205
C	-0.0058691868	 0.0140911789	 0.0178383639	 0.311579
C	 1.0512267248	-0.7742900792	-0.8386120225	 0.04736
C	 0.2650826297	-1.9050364119	-1.4897700141	-0.242857
C	-0.9069832591	-2.0430688376	-0.536275965	-0.037177
C	-0.7013241141	-1.7586639058	 0.9083677926	-0.071987
C	 0.547447311	-0.8861618885	 1.1294009933	 0.054256
O	 1.7009250472	-1.27652659	 0.3662539898	-0.314629
N	-1.3408675833	-0.7274224551	-0.0180616969	-0.195615
H	 0.9017537748	 1.954254797	 0.172677998	 0.12626
H	-0.4715939186	 1.8716178592	-0.9506018122	 0.12689
H	-0.7608084402	 1.867284233	 0.7940828217	 0.131421
H	 1.7490202567	-0.2351028916	-1.4831054548	 0.079301
H	-0.0954369077	-1.6240461107	-2.4864762582	 0.106538
H	 0.8715338147	-2.8105123587	-1.5766651896	 0.119622
H	-1.7248575535	-2.710522016	-0.7921146179	 0.096294
H	-1.2803124762	-2.2509396998	 1.6831901961	 0.091572
H	 0.773002889	-0.5800251431	 2.1519980286	 0.085375
