20
gdb 67276	3.02907	1.87602	1.72543	1.6605	81.2	-0.2023	0.0789	0.2811	911.6225	0.173475	-365.930364	-365.923669	-365.922725	-365.960881	28.738	
C	-0.0235298137	 1.5570934095	-0.0145804437	-0.538149
C	-0.0129763836	 0.0561596067	 0.0063581659	 0.388673
C	 0.7140861916	-0.8836009499	-1.0389772717	-0.102076
C	 1.7236139727	-1.2773714523	 0.0600962155	-0.24672
C	 0.649938924	-0.8667929244	 1.0893136499	-0.05339
N	-0.5872235808	-1.7674929574	 1.1063981407	-0.161595
C	-0.4526559967	-2.8709511008	 0.0918324125	-0.177244
C	-0.5462050385	-1.8420834907	-1.0451976398	-0.059919
C	-1.2158336905	-0.9081314153	 0.0107735716	-0.06302
H	 0.9944619897	 1.9639359826	-0.005011326	 0.118718
H	-0.522628242	 1.9383833268	-0.9133010185	 0.118355
H	-0.5516364194	 1.961845298	 0.8566553901	 0.123307
H	 1.0668872011	-0.5403061043	-2.0118910607	 0.062572
H	 2.1411948606	-2.2881394804	 0.0808091232	 0.096016
H	 2.549966151	-0.5593619997	 0.094435512	 0.099179
H	 0.9466146018	-0.5526378737	 2.092103275	 0.068786
H	 0.429116236	-3.5115795596	 0.1863958659	 0.100489
H	-1.3472173916	-3.5001876882	 0.1496017628	 0.103635
H	-0.9653074275	-2.1032016217	-2.0190187003	 0.059855
H	-2.2781741943	-0.6654727153	 0.0836292857	 0.062527
