17
gdb 13007	2.75988	2.46148	1.72815	2.5768	68.29	-0.2326	0.0028	0.2354	817.7296	0.143218	-363.84382	-363.836609	-363.835665	-363.874781	28.505	
C	-0.0419296146	 1.4978093725	 0.0214465145	-0.504817
C	 0.1273922419	 0.004636171	-0.0135732696	 0.302167
N	-0.793915973	-0.8775551496	 0.7434356022	-0.382092
C	 0.6680018846	-0.8273665567	 1.084741472	-0.128831
C	 1.4292649614	-1.9488886308	 0.4532242092	-0.051344
C	 1.3463447267	-1.8751916213	-0.8757892577	-0.121745
C	 0.5107681179	-0.6887408419	-1.3382821539	 0.058129
O	-0.628305374	-1.071198846	-2.0901181868	-0.438335
H	 0.8750598949	 2.0051126431	-0.2975256597	 0.12763
H	-0.8464680657	 1.8089534341	-0.6547661096	 0.136532
H	-0.2872245145	 1.8501297284	 1.0291976128	 0.111334
H	-1.3089801263	-0.3058333368	 1.4125579894	 0.225558
H	 0.9550861086	-0.4108486831	 2.0445942316	 0.090504
H	 1.9312052658	-2.722260482	 1.0228420732	 0.10257
H	 1.745058746	-2.5928533258	-1.5834551981	 0.103712
H	 1.0809848991	-0.0143348151	-1.9886607925	 0.083199
H	-1.2092269388	-1.5019481002	-1.4460676168	 0.285827
