18
gdb 35717	2.40908	1.51162	1.08927	6.1135	75.95	-0.2434	0.0239	0.2673	1132.0371	0.149774	-398.085878	-398.077554	-398.07661	-398.119551	30.558	
N	 0.0379968321	-1.2697540499	 0.2205281389	-0.32747
C	 0.0334303705	-0.114519402	 0.1771159481	 0.30126
C	-0.0151725826	 1.3369351441	 0.1312272028	-0.199776
C	 0.0133767686	 2.0407995376	 1.5228655425	-0.16948
N	 1.4344186019	 2.3851612554	 1.3050582002	-0.31089
C	 1.3430994885	 2.0881621308	-0.1414204141	-0.000574
C	 2.5186967025	 1.3436139972	-0.7246139052	 0.008361
C	 3.8883867686	 1.6820744739	-0.2624942626	-0.24582
N	 3.2769911667	 0.39153652	 0.0889744702	-0.299774
H	-0.835208048	 1.6407686412	-0.5211796547	 0.129367
H	-0.6696515277	 2.8988632284	 1.5487958563	 0.108455
H	-0.1710488353	 1.4079555553	 2.3945522424	 0.133004
H	 1.6962908035	 3.3345188367	 1.5434247289	 0.229836
H	 1.1308794251	 2.9706749024	-0.7631647565	 0.080915
H	 2.3758727902	 1.035039589	-1.7589385506	 0.098182
H	 4.7247614443	 1.6295244492	-0.9533703534	 0.119369
H	 3.9866592486	 2.4306540395	 0.5199092753	 0.105589
H	 2.9339122625	 0.4497654215	 1.0473391317	 0.239446
