17
gdb 11848	6.95112	1.05751	1.02858	2.5992	70.53	-0.2501	-0.0248	0.2253	1140.8196	0.141824	-363.830894	-363.823252	-363.822308	-363.863454	28.255	
O	 1.0458524644	-0.2994550688	-0.2514447023	-0.252096
C	 0.4835002658	 0.7440925896	-0.0412921545	 0.161879
C	 1.1487928151	 2.0845273605	 0.0794714123	-0.058575
C	 0.5393996998	 3.2403265589	-0.7847132386	-0.337898
C	 0.6101308065	 4.1355750977	 0.4562203672	 0.379736
C	 1.2733513801	 5.453635902	 0.547965704	-0.303642
N	-0.1810080343	 5.3091862208	 0.7828860435	-0.365056
C	 0.8000166676	 2.9166992807	 1.3609894602	-0.314898
H	-0.6264960083	 0.783500186	 0.0859006346	 0.066048
H	 2.2235989538	 1.9722854102	-0.0693790414	 0.096547
H	 1.0983851944	 3.5373408986	-1.6750320986	 0.116785
H	-0.4959647078	 3.0202944039	-1.0723508191	 0.109926
H	 1.8514699875	 5.7169850818	 1.4300269604	 0.122424
H	 1.6121552586	 5.9219495031	-0.3733075242	 0.113865
H	-0.7030927858	 5.6256404745	-0.0313503438	 0.231056
H	-0.145722065	 2.5981228589	 1.8129023181	 0.115459
H	 1.5668977476	 2.9630795215	 2.1363537124	 0.11844
