23
gdb 112081	3.01728	1.21722	0.96564	0.2636	91.2	-0.2335	0.0285	0.2621	1322.2843	0.207596	-351.165233	-351.15647	-351.155526	-351.198689	34.497	
C	 0.2387894207	 1.4837489664	-0.0379808418	-0.392067
C	 0.0059809098	-0.0236883463	-0.1780041686	-0.164232
C	-1.4592450571	-0.4708719069	 0.032035109	-0.043085
C	-2.3780097273	 0.0169060064	-1.0611715893	-0.046615
C	-3.4105014627	-0.6703745571	-1.5488130341	-0.07804
C	-3.8141974743	-2.0409435706	-1.078326871	-0.273857
C	-2.7157285359	-2.7639253325	-0.3184775259	-0.040506
C	-1.3505636473	-2.9180251077	-0.942720034	-0.287539
C	-1.5464667571	-1.9799935644	 0.2261245195	-0.027314
H	 1.2993422902	 1.7275512199	-0.1557821366	 0.111749
H	-0.3117075298	 2.0603143716	-0.7881198419	 0.118519
H	-0.0761814097	 1.8416346414	 0.9489499306	 0.112777
H	 0.3456951762	-0.3668886181	-1.1629221245	 0.097485
H	 0.6289803471	-0.5479027589	 0.5575620583	 0.09086
H	-1.7964795748	-0.0053684263	 0.9736772353	 0.078418
H	-2.1790814282	 1.0108284624	-1.4541203223	 0.08107
H	-4.0270546231	-0.2243279386	-2.3259383213	 0.081734
H	-4.7013612245	-1.9488822956	-0.4335336665	 0.108956
H	-4.142897458	-2.6453977196	-1.9354728184	 0.102236
H	-3.0615602192	-3.5982168934	 0.284961747	 0.076763
H	-0.8066670598	-3.8417182594	-0.7782006361	 0.103462
H	-1.1982352127	-2.4764532318	-1.9223668442	 0.113606
H	-1.1382865424	-2.319569801	 1.1745606166	 0.075618
