20
gdb 40531	4.43082	1.03311	0.96433	1.325	86.64	-0.2125	0.0199	0.2324	1290.4949	0.173064	-365.982322	-365.974562	-365.973618	-366.014935	30.998	
C	-0.0949738127	 1.4527806907	-0.1479067804	-0.273376
C	 1.2924206035	 0.9470439151	 0.1164187013	-0.268783
C	 0.1310998708	-0.0321804288	 0.0816221482	-0.084434
C	-0.3517698732	-0.7154648331	 1.2953138136	 0.351294
C	-0.7522025575	-1.9939613067	 1.3642912698	-0.188622
C	-1.0912156612	-2.3836360098	 2.7600895343	-0.074257
N	 0.0805718751	-2.2812502909	 3.6857299251	-0.336604
C	-0.8862665952	-1.1663069349	 3.5884144537	-0.043226
C	-0.4398223866	-0.0416679211	 2.6615713392	-0.324145
H	-0.5873970543	 2.0176865839	 0.635559609	 0.115534
H	-0.3521893078	 1.7709904552	-1.1520166332	 0.113656
H	 1.9990176039	 0.9100210788	-0.7052082905	 0.115196
H	 1.7421084338	 1.1666601445	 1.0779175646	 0.11876
H	 0.0828160561	-0.6497229187	-0.8104876338	 0.081449
H	-0.7799435462	-2.682683331	 0.5279081672	 0.085436
H	-1.8554377839	-3.1232084288	 2.9746426065	 0.083249
H	-0.1340226147	-2.805401923	 4.5335605013	 0.222291
H	-1.5073893239	-0.9387404305	 4.4480032659	 0.083527
H	 0.5206441547	 0.3805385178	 2.9793695616	 0.119258
H	-1.1680068708	 0.7802410115	 2.6576200666	 0.103798
