17
gdb 81905	2.33306	1.94177	1.16486	4.3919	75.79	-0.2248	-0.0571	0.1677	1041.8544	0.137014	-418.025408	-418.017307	-418.016363	-418.058212	30.26	
C	-0.0745774667	 1.3951355192	-0.0985949238	-0.341781
N	 0.0028631375	-0.0265736572	 0.1621967622	-0.06308
C	-1.1647869088	-0.8659708497	 0.0823082663	-0.010371
C	-1.3823413567	-1.5937578533	-1.210516317	-0.306027
C	-0.693389469	-2.2926661252	-0.0284248614	-0.181098
C	 0.7972181294	-2.2199028493	 0.0038939065	 0.364425
O	 1.5971134942	-3.1192261606	 0.0499464641	-0.319945
C	 1.1702561056	-0.7377279985	 0.0038198436	 0.242811
N	 2.3347571611	-0.2401300242	-0.1381491382	-0.550773
H	 0.9117219249	 1.8247164037	 0.0815989379	 0.172356
H	-0.3660112702	 1.6087235718	-1.1368771978	 0.122349
H	-0.8038015426	 1.862149999	 0.5709278772	 0.124327
H	-1.9992817968	-0.585355078	 0.7159091717	 0.1135
H	-2.3756025162	-1.9598096323	-1.4463402827	 0.134276
H	-0.7811849362	-1.3088142849	-2.0674186908	 0.139529
H	-1.1934739871	-3.1255623089	 0.4467677981	 0.125193
H	 3.0046876875	-1.0100390914	-0.1921541958	 0.234308
