17
gdb 44472	4.28584	1.4121	1.29668	3.5261	72.91	-0.2494	0.0471	0.2964	985.5217	0.14002	-417.979861	-417.9735	-417.972556	-418.010319	27.078	
O	 0.0418838941	-0.0383518261	-0.0492195465	-0.386472
C	-0.0262622461	 1.1647403625	-0.0334009138	 0.409143
N	-1.2098626772	 1.9303938133	 0.0452061574	-0.370996
C	-0.8858178736	 3.3021760566	-0.2692949355	 0.043136
C	-0.8089909729	 4.5750193828	 0.6554369809	-0.101101
C	-0.0177918401	 3.7431083368	 1.6836968672	-0.262047
C	 0.5410842452	 3.3389585436	 0.2711838391	 0.352566
C	 0.5691449638	 4.8525185609	-0.0831954382	-0.295466
N	 1.077289798	 2.0625297879	-0.0769175087	-0.468394
H	-2.0454686913	 1.4725380195	-0.2857586915	 0.250166
H	-1.0108038994	 3.5353881824	-1.3335960813	 0.07978
H	-1.5820376079	 5.3160567379	 0.8531959627	 0.08454
H	 0.664479739	 4.2969320851	 2.3323683416	 0.090638
H	-0.5691047839	 2.9753735876	 2.2257073068	 0.11583
H	 0.5200669304	 5.1140013122	-1.1428990869	 0.106269
H	 1.2737637254	 5.4836745376	 0.4620120915	 0.103189
H	 1.9252530367	 1.6997791994	 0.3350093453	 0.249222
