12
gdb 130749	3.46096	1.6684	1.13377	5.0155	61.61	-0.2898	-0.0719	0.2178	954.7087	0.079862	-472.635561	-472.629409	-472.628464	-472.666338	23.103	
O	-0.0176527398	-0.0305347832	 0.0043482233	-0.329943
C	 0.0356093508	 1.1610275484	 0.0084262842	 0.413031
O	-1.0824999833	 1.9716723323	 0.0288639907	-0.248921
C	-0.7536628294	 3.3811737767	 0.0315032275	-0.194977
C	 0.7393124315	 3.3921515481	 0.0110234886	 0.142957
C	 1.1641973493	 2.1111157547	-0.0014673084	 0.204221
O	 2.491211141	 2.0176609996	-0.0194058932	-0.213064
N	 2.9898019695	 3.3263120486	-0.0196296318	-0.109351
C	 1.9468656459	 4.1319636095	-0.0017730869	-0.122958
H	-1.2143996424	 3.8404914447	-0.8489475491	 0.152167
H	-1.189871567	 3.8314537046	 0.9289552775	 0.152209
H	 2.122431784	 5.1980256161	 0.0012694977	 0.154628
