17
gdb 124071	4.92417	0.96352	0.91302	3.4434	73.76	-0.2399	0.0175	0.2574	1274.7159	0.139013	-417.999445	-417.991863	-417.990919	-418.032772	27.773	
C	 0.0229294404	 1.4944348337	-0.1958871778	-0.082856
O	 1.4282077836	 1.5920808995	 0.103611892	-0.272213
C	 1.4803448299	 0.2124790149	 0.5135168751	-0.082861
C	 0.0299821807	-0.0435894746	 0.0203656454	-0.161852
C	-0.9598718791	-0.6544954205	 0.9499468235	 0.219262
C	-1.7905195659	-1.7324404889	 0.7079511289	-0.14351
N	-2.5135168579	-1.9301217844	 1.8362519464	-0.176908
N	-2.2182904937	-1.0537866377	 2.813875476	-0.219893
C	-1.2782782005	-0.2799634945	 2.2813021375	-0.091258
H	-0.593580245	 2.0442724309	 0.5278055245	 0.101558
H	-0.210856936	 1.847959302	-1.2067860928	 0.103229
H	 2.2778776822	-0.3411557997	 0.0046138669	 0.10323
H	 1.6077880875	 0.1079463437	 1.5993202357	 0.101558
H	 0.0234010463	-0.5782505561	-0.9322819641	 0.076972
H	-1.9135563103	-2.3549903232	-0.1647009278	 0.134161
H	-3.2136226675	-2.6318472523	 2.0062090826	 0.275821
H	-0.8570701646	 0.5235807173	 2.868497808	 0.11556
