19
gdb 72910	2.69341	1.83213	1.42388	3.0379	73.25	-0.2401	0.0635	0.3036	971.7903	0.160356	-422.999672	-422.992288	-422.991344	-423.031123	29.754	
C	-0.3373219564	 1.4893882993	 0.0153345631	-0.473526
C	 0.0726021862	 0.0246029697	-0.0539643295	 0.27979
C	-1.0211244004	-0.9598171744	 0.441864038	-0.115895
O	-0.2807654853	-1.2519378975	 1.6494106672	-0.289855
C	 0.8674307206	-0.5291820338	 1.1667673778	 0.070587
C	 1.9663179956	-1.4055127353	 0.5896572345	 0.010835
O	 1.4530144791	-2.4608653419	-0.2317547633	-0.243768
C	 1.9533767188	-1.2917071793	-0.8828251476	 0.045876
C	 0.859625501	-0.3402704824	-1.3341862679	-0.3262
H	 0.5331500586	 2.1495233663	-0.0706639245	 0.11473
H	-1.0285449985	 1.7425335403	-0.7969687829	 0.119419
H	-0.8382873345	 1.7128019189	 0.9628885317	 0.126374
H	-1.9959870917	-0.5100904552	 0.6667195818	 0.092972
H	-1.1567113196	-1.8537047214	-0.1754756864	 0.110096
H	 1.2516267557	 0.1808580976	 1.9089781843	 0.069053
H	 2.8569940907	-1.6527236137	 1.1618212375	 0.097473
H	 2.8430538152	-1.4423678998	-1.4907359747	 0.095504
H	 0.2238568938	-0.7955301756	-2.1016871696	 0.115062
H	 1.3124761012	 0.5543737882	-1.7780587694	 0.101473
