18
gdb 66120	2.63193	1.49064	1.31974	1.8278	76.69	-0.2378	0.0315	0.2693	1045.4569	0.147509	-401.894145	-401.885802	-401.884858	-401.926626	32.929	
O	-0.0749066407	 1.4071217076	 0.0173943986	-0.46603
C	 0.0118444182	-0.0128566267	 0.0109378027	 0.243395
C	 0.6422279953	-0.5957999158	 1.3147134994	-0.283374
C	-0.0215672953	-1.974755818	 1.5153882071	-0.215193
C	-1.4019586663	-1.7991148301	 0.9027326928	-0.020502
N	-2.0502879462	-0.5402996624	 1.3289912094	-0.34495
C	-1.3909919453	-0.6161006193	 0.0116300137	-0.057568
C	 0.7377283507	-0.4782984947	-1.1798154563	 0.307963
C	 1.3583404825	-0.836517176	-2.1458094036	-0.498743
H	 0.8098250216	 1.754724511	-0.1385398422	 0.280937
H	 1.7313311749	-0.6473489024	 1.2566370832	 0.097062
H	 0.3614364723	 0.0835955173	 2.1210339769	 0.132505
H	 0.5185598113	-2.7545184945	 0.9668846142	 0.108287
H	-0.0572419492	-2.2684942566	 2.5690565452	 0.105387
H	-2.0196913268	-2.6648223062	 0.6871907518	 0.084957
H	-3.0552637954	-0.6102376878	 1.1917324313	 0.232977
H	-1.9823819518	-0.5511072235	-0.8945039692	 0.094089
H	 1.8983532601	-1.1533996119	-3.0038372851	 0.198802
