15
gdb 24633	4.40522	1.36542	1.12968	3.8676	73.28	-0.2249	0.0191	0.2439	1038.7308	0.114572	-416.776987	-416.770178	-416.769234	-416.808496	25.986	
C	 0.1356570346	 1.5340293887	-0.0329165332	-0.257121
O	 1.2623921823	 0.6410624991	-0.0979221726	-0.251585
C	-0.0218815778	 0.080954523	 0.0047141819	 0.282355
C	-0.4793794531	-0.8635602519	 1.1718875867	-0.249669
N	-1.0447898997	-1.7124307239	 0.1009025774	-0.003625
C	-1.8414442086	-2.6993417871	-0.4164159838	-0.168452
C	-1.8518946668	-2.4201698846	-1.7748144406	-0.091307
N	-1.1268334038	-1.2845291836	-2.0925769726	-0.376576
C	-0.6680763309	-0.9089806601	-0.9231126028	 0.320052
H	 0.0519002502	 2.1125975415	 0.8857575944	 0.123868
H	-0.0869350345	 2.0695475601	-0.9534757494	 0.140334
H	 0.3348831964	-1.3327494122	 1.7289967035	 0.144876
H	-1.2280964022	-0.4511342923	 1.8530427512	 0.13856
H	-2.2865756162	-3.4894363325	 0.1634143524	 0.136281
H	-2.3462726699	-2.9915604343	-2.5466856925	 0.112009
