18
gdb 4814	5.83517	1.22657	1.09445	3.6016	75.45	-0.2128	0.0356	0.2484	1137.7563	0.155012	-344.032145	-344.023814	-344.02287	-344.065553	29.648	
C	 0.0338834934	 1.5579088632	-0.1831753546	-0.364769
C	-0.0232410082	 0.0429627261	 0.0696286992	-0.285067
C	-1.4132282751	-0.5079569518	-0.0155082754	 0.288595
C	-1.9269971338	-1.4159250977	-0.9076345422	-0.222375
N	-3.2548373718	-1.5807734542	-0.5686626862	 0.024894
C	-4.216425522	-2.4454980538	-1.218683771	-0.336957
C	-3.4770084385	-0.7695350566	 0.5035380779	-0.004219
N	-2.4001885072	-0.1113522943	 0.8642245751	-0.323207
H	 1.0536963373	 1.9382196573	-0.0660730472	 0.102812
H	-0.3065115156	 1.7991126849	-1.1955061011	 0.109445
H	-0.6150537997	 2.0834185942	 0.522390337	 0.137332
H	 0.6173252727	-0.482630891	-0.6478131408	 0.092135
H	 0.3840196407	-0.1673529403	 1.066558008	 0.110148
H	-1.4851103105	-1.9512969515	-1.7325586741	 0.119069
H	-3.9047296052	-3.4933394524	-1.1619699075	 0.143178
H	-5.18110197	-2.3430270456	-0.7177440512	 0.144666
H	-4.3410587548	-2.1728360571	-2.2714664867	 0.143105
H	-4.4480765315	-0.7090402793	 0.9744921109	 0.121217
