18
gdb 97035	3.14954	1.3063	0.9396	2.444	79.8	-0.2276	0.0095	0.237	1236.5846	0.14774	-435.300991	-435.291556	-435.290612	-435.336512	32.617	
C	-0.0381947911	 1.3915519036	-0.0490040765	-0.332311
N	 0.0013643928	-0.0555949993	 0.0099658212	-0.326854
C	 0.6031540826	-0.619946619	 0.9700688959	 0.379234
C	 1.3558287098	-0.068861847	 2.1745787628	-0.201224
O	 1.8033764903	-1.2258023012	 2.885596068	-0.252124
C	 1.3994598701	-2.3599907692	 2.2372493159	 0.476276
N	 1.6266796053	-3.5492464259	 2.5967805912	-0.59123
N	 0.6911561911	-1.9908996157	 1.1068208015	-0.150452
C	 0.1092729648	-2.9344160182	 0.1744765778	-0.334928
H	 0.4760575329	 1.9111017081	 0.7737171807	 0.10142
H	 0.4089899417	 1.7320333186	-0.990523685	 0.130983
H	-1.0813603095	 1.7293440528	-0.0572496443	 0.130979
H	 2.2209030078	 0.5352444551	 1.8818636108	 0.143341
H	 0.7124019213	 0.5318661761	 2.8258414217	 0.143332
H	 2.1661320506	-3.5655924895	 3.4585649457	 0.230029
H	 0.3365816581	-3.9367661037	 0.5354493521	 0.170406
H	-0.9728049864	-2.7872230873	 0.1151685329	 0.141565
H	 0.5289853777	-2.7851209782	-0.8243511523	 0.141556
