21
gdb 110256	3.12797	1.05123	0.9148	1.4413	79.78	-0.2528	0.0743	0.3271	1345.6623	0.181941	-424.157445	-424.148098	-424.147154	-424.191421	35.643	
C	-0.2660697764	 1.6154757787	-0.3480927979	-0.447842
C	-0.0395990051	 0.1196573107	-0.1626741633	 0.062285
C	 1.1430696486	-0.6731861505	-0.821016549	-0.125142
C	 2.101557936	-0.1309069234	 0.2685102622	 0.164671
O	 2.5550736552	 1.191721857	 0.1377945166	-0.439263
C	 0.7767521674	-0.4971478474	 1.0274237975	-0.159515
C	 0.8541610804	-1.8272194577	 0.2091396391	 0.033489
C	-0.3197997455	-2.7812855068	 0.0588098367	-0.126076
O	-0.0475987387	-3.7862473372	-0.9120519338	-0.416631
H	 0.6351255573	 2.2081196932	-0.2156935742	 0.144085
H	-0.6627265929	 1.8069885838	-1.3523856516	 0.107817
H	-1.0241779879	 1.9631547978	 0.3641194197	 0.105409
H	-1.0031889196	-0.3749982471	-0.3064494989	 0.061963
H	 1.3673388193	-0.7766700025	-1.8854385838	 0.06474
H	 2.9445068022	-0.7963047489	 0.5012117561	 0.064608
H	 3.053713538	 1.4127908704	 0.9304356909	 0.284282
H	 0.5747184313	-0.4001954127	 2.0968008494	 0.063197
H	 1.7398950483	-2.4331665635	 0.4322606176	 0.071769
H	-0.4632057762	-3.3210323519	 1.0016776719	 0.109653
H	-1.2654423088	-2.2701858912	-0.1624344496	 0.094374
H	 0.078774017	-3.3434726608	-1.7573850858	 0.282128
