12
gdb 7244	4.98309	1.26138	1.00658	3.953	55.08	-0.2632	-0.0695	0.1937	1065.1661	0.082591	-451.849406	-451.841298	-451.840353	-451.88288	27.411	
N	-0.0434589139	 1.282223682	 0.0071737986	-0.515191
C	 0.059469935	-0.0669146168	-0.0000362072	 0.2961
O	 1.0808709568	-0.7125972031	-0.0125948948	-0.321813
C	-1.345351405	-0.7128189095	 0.0102023992	 0.398496
O	-2.3691371229	-0.0779796597	 0.0233635232	-0.35367
O	-1.2517834225	-2.0574512748	 0.0024360821	-0.175762
C	-2.424744927	-2.786714171	 0.0102506146	 0.120829
N	-2.3282176347	-4.0376266877	 0.0028972549	-0.403338
H	 0.7933203448	 1.8402602551	 0.0026455726	 0.276087
H	-0.9519472419	 1.715041541	 0.0185025171	 0.283894
H	-3.3153484406	-2.1587686415	 0.0227671053	 0.148303
H	-3.2566598179	-4.4579900539	 0.0103556745	 0.246064
