11
gdb 5421	4.10352	2.06493	1.37368	5.9388	54.08	-0.2471	-0.0415	0.2056	796.6854	0.072411	-434.597566	-434.591189	-434.590245	-434.6284	22.716	
O	-0.1650141491	-0.0153801206	 0.0021564562	-0.248565
C	-0.061879366	 1.1767537483	 0.0095788277	 0.170571
N	 1.1436120162	 1.8874321482	 0.0021192666	-0.182827
C	 1.2553631528	 3.2894110849	 0.0115393213	-0.118322
C	 2.5574034394	 3.5718536431	-0.0000206154	-0.021722
O	 3.3026960823	 2.4146745334	-0.0164487468	-0.217017
C	 2.4448762533	 1.3314388098	-0.0158123639	 0.522771
O	 2.7918625361	 0.1942561129	-0.0277577862	-0.340762
H	-0.9191958635	 1.8767487729	 0.0244071512	 0.099916
H	 0.3910646061	 3.9309484212	 0.0254748095	 0.16698
H	 3.1031008025	 4.4989645061	 0.0012671699	 0.168978
