19
gdb 59272	2.92496	1.26453	1.13283	2.2738	70.83	-0.2451	0.0725	0.3176	1157.0335	0.158686	-460.128943	-460.120284	-460.11934	-460.162678	32.429	
C	 0.1323768996	 1.2735174461	-0.3776458115	-0.405513
C	 0.0837014212	-0.1232816897	 0.2421807867	 0.1258
O	 0.5635760466	-0.1231166782	 1.5847880228	-0.432602
C	-1.3078535059	-0.7257020547	 0.1711278816	-0.103751
C	-1.9224169763	-1.2320295523	-1.1189456133	 0.029992
O	-1.0260612377	-1.4582231412	-2.1883612404	-0.254225
C	-0.5064565966	-2.758660343	-1.9637375611	 0.021871
O	-0.4549799662	-2.943741394	-0.5605011033	-0.248835
C	-1.5448704922	-2.2080952466	-0.0473137754	 0.026472
H	 1.1347200334	 1.6974805852	-0.2703947884	 0.121661
H	-0.122631078	 1.2299149266	-1.440334245	 0.13316
H	-0.5802027441	 1.9480716003	 0.1146023416	 0.099221
H	 0.7738918399	-0.7795947221	-0.2922005509	 0.104645
H	 0.0428853981	 0.5176277906	 2.0815691421	 0.272349
H	-2.0283748679	-0.2554857228	 0.8407306057	 0.080717
H	-2.9374581727	-0.9895148535	-1.415092747	 0.104245
H	-1.1602471775	-3.5166678411	-2.4279895847	 0.0942
H	 0.5059004022	-2.817376925	-2.3720238223	 0.124501
H	-2.2444830757	-2.7803030647	 0.5519470329	 0.106092
