14
gdb 19348	4.36456	1.8285	1.53042	2.8945	64.17	-0.2204	-0.0307	0.1897	813.5079	0.106836	-378.615231	-378.608782	-378.607838	-378.645808	24.96	
O	-0.1750510692	 0.0406000505	 0.0840101834	-0.27767
C	-0.0067057583	 1.2357514676	-0.0081043828	 0.057049
C	 1.293359053	 1.8918110872	 0.0188544392	 0.257638
N	 1.4817605012	 3.3242417289	 0.3711294411	-0.332225
C	 1.7638743345	 2.9218070548	-0.993277514	-0.104976
C	 3.1371777878	 2.1846789805	-1.0627744703	-0.05344
N	 3.7299059689	 2.1616092105	 0.2944610321	-0.308719
C	 2.6770870246	 1.1893850435	-0.0686566864	-0.119351
H	-0.8619106707	 1.9400219254	-0.147508184	 0.058802
H	 0.5582182829	 3.760813492	 0.3880512289	 0.240798
H	 1.2149741324	 3.3087853389	-1.8426254821	 0.11714
H	 3.7273190892	 2.0600304486	-1.9601594122	 0.107089
H	 4.6189250517	 1.6675072284	 0.2097195747	 0.237494
H	 2.813050572	 0.1184830032	-0.0248609577	 0.12037
