19
gdb 79159	2.6186	1.84661	1.35689	1.3911	83.01	-0.202	-0.0303	0.1717	996.198	0.159118	-385.790181	-385.78238	-385.781436	-385.822101	31.417	
C	-0.1490094477	 1.346054846	-0.1640839314	-0.471811
C	-0.0172973426	-0.061518187	 0.3195823828	 0.202907
C	-1.0393243285	-0.9382240709	 0.4601320966	-0.040653
C	-1.7711079209	-1.3382087424	-0.8345160265	-0.264995
C	-0.7111565564	-2.4997158065	-0.8247714127	-0.077917
C	 0.7118555326	-2.243349743	-0.1565251903	-0.089953
C	-0.5220265534	-2.3735603883	 0.6561616402	-0.114412
C	 1.3020844408	-0.8600986198	 0.1375212096	 0.060761
O	 2.1027231525	-0.3140708257	-0.8972980452	-0.423531
H	 0.5990643237	 1.5905225936	-0.9227371118	 0.127173
H	-1.1537338742	 1.54135393	-0.5542364714	 0.119785
H	 0.0090713253	 2.0479186051	 0.6666956231	 0.134334
H	-2.7709103611	-1.7748206171	-0.7247336554	 0.106013
H	-1.7775947426	-0.6065292376	-1.6490055788	 0.096148
H	-0.8261363159	-3.4275623465	-1.3819700247	 0.088712
H	 1.3872792859	-3.0887249753	-0.2767390041	 0.083241
H	-0.7423225493	-3.0651454476	 1.4583925803	 0.09077
H	 1.9709090616	-0.911398584	 1.0068843964	 0.092569
H	 1.6286010302	-0.4497484331	-1.7258035568	 0.280859
