21
gdb 72499	2.46157	1.76004	1.4598	0.6209	76.6	-0.243	0.0706	0.3136	1002.6319	0.18561	-424.246107	-424.238502	-424.237557	-424.277536	31.69	
O	-0.0343274141	 1.3843385637	-0.0664492635	-0.492673
C	 0.0165828543	-0.0280379103	 0.0171702791	 0.381582
C	 0.6561540014	-0.5850958762	 1.3143679782	-0.254053
C	-0.0535058712	-1.9489729663	 1.5565674361	-0.205615
C	-1.0541799437	-2.0834586088	 0.3775598724	-0.02791
C	-1.3980352517	-0.6158731126	 0.0662875889	-0.250652
C	-0.3572995842	-2.685598206	-0.8524430777	-0.07681
O	 0.8668037357	-2.0210105608	-1.1379098161	-0.249389
C	 0.7241225984	-0.6127612743	-1.2232455066	-0.122572
H	 0.8679359971	 1.7202395491	-0.028491445	 0.275467
H	 1.7410016304	-0.6926696491	 1.2207868159	 0.094584
H	 0.4568407425	 0.1219745707	 2.1251305809	 0.099526
H	 0.6513551899	-2.7840610498	 1.5855889226	 0.101936
H	-0.5909934525	-1.9424892277	 2.509102628	 0.096464
H	-1.9290933075	-2.6908180751	 0.6276823401	 0.065229
H	-1.9741707829	-0.1488617833	 0.8721327814	 0.09833
H	-1.9452637141	-0.4800921285	-0.8717514499	 0.094904
H	-0.0893129529	-3.7332761035	-0.6828031912	 0.104417
H	-1.0322439961	-2.6418204262	-1.7241715989	 0.0848
H	 0.1635631283	-0.320100501	-2.1260926503	 0.09141
H	 1.7412510829	-0.2114504542	-1.3088114244	 0.091025
