19
gdb 73380	2.8521	1.62255	1.30791	3.6452	79.17	-0.2303	0.0041	0.2344	1031.5892	0.160503	-385.9037	-385.896118	-385.895174	-385.935436	30.422	
C	 0.0154606333	 1.4516899219	 0.0110662321	-0.489127
C	-0.0246505473	-0.0595286518	 0.0371339222	 0.34581
C	-1.3248329124	-0.7670806771	-0.3706417295	-0.292068
C	-1.2936172693	-2.1215011223	 0.3827323195	-0.220137
C	 0.1791379894	-2.2719036159	 0.799238532	-0.178062
C	 0.6842611759	-0.8302246133	 1.0912047553	-0.119517
C	 1.3012157556	-0.758584392	-0.3372540663	-0.235327
C	 1.1154354996	-2.2334426854	-0.4358352096	 0.432824
O	 1.6456534396	-3.0934791534	-1.0857825625	-0.343053
H	 0.9800246038	 1.834289681	 0.3581958367	 0.121595
H	-0.1519387393	 1.833663441	-1.0017753929	 0.127736
H	-0.7646963044	 1.8682979378	 0.6576323517	 0.123178
H	-2.1906653931	-0.1641001229	-0.0780959893	 0.100675
H	-1.3783613312	-0.8991979165	-1.4562635473	 0.111938
H	-1.9305314062	-2.0849183157	 1.2730236044	 0.103851
H	-1.6323389792	-2.959804302	-0.2322797601	 0.115866
H	 0.3939031069	-3.0674167985	 1.5124428978	 0.090133
H	 1.1210050417	-0.4535246708	 2.0056726726	 0.102798
H	 2.1403895767	-0.179307044	-0.7052872868	 0.100885
