18
gdb 1786	4.95259	1.72555	1.54319	1.7477	64.29	-0.2418	0.0631	0.305	867.5917	0.158678	-326.952797	-326.944295	-326.943351	-326.985399	30.662	
C	-0.0268426286	 1.4434443613	-0.2068912177	-0.400965
C	 0.020157751	-0.0336753192	 0.1044340918	-0.035056
N	 1.3245879413	-0.7103321062	 0.0006832327	-0.366015
C	 0.6580453574	-0.6359190721	 1.313567598	 0.320986
C	 1.3676727978	 0.2009102514	 2.3590287889	-0.462393
C	 0.0293814653	-1.9132900755	 1.8457587654	-0.141307
O	 0.9832968253	-2.8973724235	 2.2239755338	-0.416864
H	 0.868798915	 1.9576181673	 0.1468862886	 0.126489
H	-0.0909418268	 1.5999584167	-1.289129524	 0.122096
H	-0.9037447875	 1.9129836241	 0.2524294461	 0.114113
H	-0.8433074254	-0.5829172978	-0.2730765592	 0.075298
H	 1.2280669105	-1.6452181589	-0.3890654688	 0.230705
H	 1.8542967144	 1.0688127151	 1.9128553221	 0.13404
H	 0.6692833649	 0.5480808357	 3.1292039564	 0.113426
H	 2.154028914	-0.3831571714	 2.8525801899	 0.108865
H	-0.648139498	-1.6761161759	 2.682077289	 0.088841
H	-0.572969669	-2.3833620324	 1.0607309043	 0.101497
H	 1.4688289383	-2.5675783187	 2.9861376729	 0.286245
