16
gdb 105128	2.51186	1.21947	0.95457	3.911	77.28	-0.2838	-0.0181	0.2657	1246.7274	0.121153	-400.706016	-400.696645	-400.6957	-400.740419	33.603	
C	 0.0605081044	 1.4666859294	-0.3836077878	-0.392693
C	-0.0347148666	 0.1386810477	 0.3758869325	-0.269189
C	-1.3957772309	-0.5116970327	 0.2270052381	 0.240853
O	-1.7069108924	-1.0794623019	-1.0464005809	-0.25441
C	-1.5759814831	-1.9848165658	 0.0596653633	-0.224499
C	-0.4626979939	-2.8919128963	 0.0655196146	 0.328661
C	 0.442562295	-3.6819252823	 0.0867515791	-0.38392
C	-2.5007400091	 0.2086156435	 0.8463647505	 0.270683
N	-3.3561742259	 0.7916342619	 1.3602223554	-0.331671
H	 1.0585230684	 1.8979798697	-0.270519909	 0.125098
H	-0.1278468621	 1.3151720341	-1.4502398962	 0.139628
H	-0.6659595075	 2.194034364	-0.0084180046	 0.141485
H	 0.7124965504	-0.5699919373	 0.0095745114	 0.13124
H	 0.1577928573	 0.2917606195	 1.4440557507	 0.124197
H	-2.5222895328	-2.4072836847	 0.3945870143	 0.140982
H	 1.2450602287	-4.3784597891	 0.1011326588	 0.213554
