18
gdb 93581	4.53239	0.99396	0.90806	2.0751	74.9	-0.2474	0.0044	0.2518	1323.8705	0.147803	-439.080991	-439.072506	-439.071562	-439.115127	30.572	
C	 0.2378616052	 1.5551504476	-0.0329483519	-0.38812
C	 0.0599567336	 0.0392428969	 0.0264749156	 0.024292
C	 0.7079975936	-0.7214049693	-1.16503848	-0.122311
O	 1.5578156167	-1.7079376416	-0.5390280062	-0.257737
C	 1.4903669528	-1.4539055358	 0.7934682795	 0.418505
N	 0.7209223286	-0.5346403497	 1.2138596782	-0.331427
C	 2.3262989394	-2.3078709947	 1.6660027346	-0.019818
C	 2.697094906	-3.6784330743	 1.271577734	-0.172353
O	 3.6421582853	-2.6183018892	 1.1995543376	-0.221911
H	 1.3000278768	 1.8153648583	-0.0852973019	 0.123131
H	-0.2642955147	 1.9717017741	-0.9126803682	 0.113405
H	-0.1841452471	 2.0228438885	 0.8601108	 0.132689
H	-1.0119092502	-0.1866315298	 0.0930653652	 0.08972
H	-0.0093470042	-1.2428326232	-1.8032333891	 0.119171
H	 1.3360800559	-0.0750214352	-1.7876873547	 0.116927
H	 2.2490200007	-2.0505199262	 2.7188808658	 0.120716
H	 2.8730622963	-4.417477753	 2.0517418227	 0.121986
H	 2.3551683055	-4.0625958233	 0.3135024788	 0.133135
