17
gdb 3572	4.57747	2.74128	2.30202	0.2625	66.53	-0.2034	0.0798	0.2833	662.318	0.149164	-272.500426	-272.494115	-272.493171	-272.530253	25.219	
C	-0.2077100535	 1.6024403594	-0.0694659997	-0.434111
C	 0.1041751612	 0.1081735355	 0.0287439264	-0.002404
C	 1.3518363571	-0.6653562184	-0.327575906	-0.086071
C	 2.7096757483	-0.1186419284	 0.1947439229	-0.050459
C	 2.6385972557	 1.1540459496	 0.9960279615	-0.300781
C	 2.1746425672	-0.1369380574	 1.6164503734	-0.050453
C	 0.8139749502	-0.6837239777	 1.1016252072	-0.086071
H	 0.4639601077	 2.1246377575	-0.7564898535	 0.12922
H	-1.2245238196	 1.7393577878	-0.4505330109	 0.108395
H	-0.1602499582	 2.1033184154	 0.9014644165	 0.129215
H	-0.7490819654	-0.4854890195	-0.299978194	 0.089231
H	 1.3231410008	-1.467062174	-1.0558743969	 0.082198
H	 3.6519363658	-0.5094230112	-0.1673019275	 0.084922
H	 3.6078197443	 1.4803794901	 1.3649675725	 0.107871
H	 1.9756817377	 1.9715178242	 0.7570896049	 0.112177
H	 2.647791595	-0.5437821274	 2.5008994753	 0.084921
H	 0.3190693157	-1.5013439356	 1.612056908	 0.082198
