15
gdb 15018	2.75121	1.82986	1.25824	1.5896	71.73	-0.2477	0.0235	0.2712	967.1181	0.116887	-325.41802	-325.409805	-325.408861	-325.450671	30.283	
C	 0.0579522679	-1.1930190044	-0.1822698689	-0.444884
C	 0.0496908647	 0.0027825544	-0.0764804751	 0.33784
C	 0.0022714754	 1.4658056819	 0.0428898038	-0.369722
C	 1.353229877	 2.0323011065	 0.1175258418	 0.314729
C	 2.4555785997	 2.5085785128	 0.157077657	-0.441575
C	-0.8331236049	 2.0767032874	-1.0997011187	 0.025165
C	-0.6802726673	 3.4974108174	-1.4854986246	-0.257093
N	-0.2350088875	 2.4168598188	-2.3884108606	-0.309723
H	 0.0735869079	-2.2507924045	-0.2760869163	 0.202985
H	-0.5195290703	 1.7088465329	 0.9810092966	 0.14522
H	 3.4348447487	 2.9170525953	 0.210653164	 0.207402
H	-1.8114891738	 1.6085546748	-1.1740963905	 0.108989
H	-1.5437015077	 4.0593358515	-1.8293284076	 0.119383
H	 0.0778892115	 4.0815055708	-0.9720514843	 0.123579
H	 0.7781932887	 2.3288149343	-2.3264062566	 0.237707
