19
gdb 40133	2.7485	1.57379	1.19328	1.8923	83.69	-0.2158	-0.0213	0.1945	1083.0784	0.160656	-385.881574	-385.873778	-385.872833	-385.914055	30.662	
C	-0.0772173182	 1.5250614714	-0.0733164767	-0.230136
O	 1.1597986768	 0.8163336421	-0.1707918561	-0.269518
C	-0.0457845139	 0.0555065728	-0.0101544516	 0.41143
C	-0.2259260825	-0.6044627437	 1.342813256	-0.330536
C	 0.3178149946	-1.9930096766	 1.5366929862	-0.054504
C	 0.908268111	-2.8264292249	 0.6670649599	-0.081126
C	 1.1623378226	-2.6661908098	-0.7613473892	-0.057496
C	 0.5988566867	-1.7930945648	-1.6051627744	-0.060482
C	-0.4347882211	-0.7584745206	-1.2373748872	-0.34971
H	-0.2143680933	 2.1079665962	 0.8375100173	 0.106388
H	-0.4092236207	 2.0182518448	-0.9865457291	 0.107883
H	 0.2313531005	 0.0527137779	 2.0942078357	 0.121154
H	-1.2999002464	-0.6169819395	 1.5860065374	 0.114267
H	 0.2228630913	-2.3458004099	 2.5623642089	 0.089955
H	 1.2602090454	-3.7712227066	 1.0771756049	 0.08455
H	 1.8781551124	-3.3720295265	-1.1766272931	 0.085651
H	 0.9022043618	-1.8180233229	-2.6478732431	 0.091662
H	-1.4027321394	-1.2438647403	-1.0460274083	 0.115787
H	-0.5864653177	-0.0823442092	-2.0832584374	 0.104779
