17
gdb 130117	4.53587	0.99006	0.86442	2.0406	77.12	-0.2033	0.0209	0.2242	1320.6598	0.139065	-414.178529	-414.170342	-414.169398	-414.211982	30.809	
N	-0.2243859426	 1.1904238958	 0.5740851852	-0.590974
C	-0.0381833026	-0.1071045008	 0.0981607021	 0.383896
N	-0.6723491129	-0.5285952829	-0.9930950305	-0.307437
N	-0.3136051121	-1.8341014774	-1.0948587357	-0.283416
C	 0.5352406677	-2.2405749033	-0.1216099796	 0.444145
C	 0.7393480662	-1.1339820487	 0.6876467614	-0.411277
C	 1.0166473311	-3.6314232542	-0.0508268421	-0.113384
C	 2.2431441846	-3.974886977	 0.7179558389	-0.236752
N	 0.9281828399	-4.3917781683	 1.2187315687	-0.312251
H	 0.6209462827	 1.6097521549	 0.9367502002	 0.244339
H	-0.6411025606	 1.7860033465	-0.1301922757	 0.249843
H	-0.6884899547	-2.3850386888	-1.8474721433	 0.269852
H	 1.3544152267	-1.0700677873	 1.5710710848	 0.094728
H	 0.7757429472	-4.2346003616	-0.9238575343	 0.086982
H	 2.8819589684	-4.784576644	 0.3762243931	 0.123485
H	 2.7664215879	-3.1617969033	 1.2133361755	 0.121024
H	 0.6209014631	-3.7577281296	 1.9533371912	 0.237199
