14
gdb 44835	2.72909	1.85261	1.47413	4.274	61.94	-0.2815	-0.0256	0.2558	887.4017	0.103705	-473.876033	-473.869777	-473.868832	-473.906801	24.823	
N	-0.0468549305	 1.2690343007	-0.0236587647	-0.544827
C	-0.0272022219	 0.0148735929	-0.0131147941	 0.446429
O	 1.1023089018	-0.7922423394	-0.0055690048	-0.244877
C	 0.6038837755	-2.1320428732	 0.0143783246	 0.194309
C	-0.6232915239	-2.0668249043	-0.8961295791	-0.269179
C	-1.2132930171	-0.9388864816	-0.0080361369	-0.26418
C	-1.1287747316	-1.6490895965	 1.3548906251	 0.460224
O	-1.8564144526	-1.6262299656	 2.2944331275	-0.323474
O	 0.0401800136	-2.3860021484	 1.3084264687	-0.231458
H	 0.8996130156	 1.6535812477	-0.0278821891	 0.237743
H	 1.4165562251	-2.828055945	-0.1690760412	 0.126058
H	-0.3873832861	-1.7529741911	-1.9137148759	 0.139082
H	-1.208787358	-2.9869337546	-0.896623053	 0.139525
H	-2.1735471198	-0.4879992015	-0.2297114671	 0.134625
