18
gdb 63569	2.59743	1.50933	1.17569	4.0393	73.76	-0.2398	0.019	0.2587	1091.1912	0.146548	-439.093677	-439.084848	-439.083904	-439.1268	33.526	
C	-0.0915703981	 1.5508613237	-0.0586247255	-0.431955
C	 0.0307174733	 0.0495172087	-0.0038202367	 0.383751
O	-1.1415149882	-0.5646316472	-0.4448522376	-0.474015
C	 1.3589628006	-0.6098528683	-0.271836625	-0.410476
C	 0.7804521956	-0.6255484289	 1.1256366695	 0.081054
C	 1.3009438615	-0.162669557	 2.4981297264	-0.249615
N	 0.7433841165	-1.4261570078	 3.0271568768	-0.350671
C	 0.1961450093	-1.8211627265	 1.8277162001	 0.429899
O	-0.5305471961	-2.7289028987	 1.4915811013	-0.400772
H	 0.8347622007	 2.0370214656	 0.258933578	 0.112589
H	-0.314105814	 1.8668589634	-1.0826544388	 0.135721
H	-0.9084144569	 1.8923144532	 0.5845943976	 0.127039
H	-1.1815144195	-1.4620627789	-0.0780997117	 0.301903
H	 1.3636271547	-1.5540072458	-0.8080969486	 0.13084
H	 2.223332687	 0.0237895661	-0.4453146486	 0.118697
H	 2.3874009106	-0.0849660346	 2.6001998183	 0.120243
H	 0.8207942456	 0.7358815664	 2.8988623268	 0.121488
H	 0.4944569973	-1.6863757035	 3.9700752777	 0.25428
