22
gdb 13632	2.80813	1.56451	1.18067	1.1503	79.01	-0.2449	0.0805	0.3255	1133.5263	0.198378	-350.187024	-350.177226	-350.176282	-350.221669	35.574	
C	-0.1184179151	 1.5150507133	-0.1790023302	-0.23739
O	-0.0762652663	 0.1432669335	 0.1378663006	-0.239773
C	-1.3160175112	-0.5425840425	-0.0116603783	 0.116893
C	-1.6118648701	-0.83460446	-1.4887231139	-0.398607
C	-1.2715081249	-1.8363956489	 0.7883547699	-0.011805
C	 0.0328179885	-2.4898722655	 1.1798761585	-0.290141
C	-0.8859935054	-1.9428221548	 2.2475747354	-0.005148
C	-0.4940371007	-0.7556401535	 3.1011995788	-0.415294
H	 0.8662271167	 1.9283368025	 0.0541409379	 0.125905
H	-0.3274419296	 1.6985083818	-1.2426734568	 0.108384
H	-0.8760922625	 2.0471729672	 0.4173137427	 0.10486
H	-2.1201352166	 0.0996674666	 0.3891539532	 0.06269
H	-2.5819218308	-1.3306900882	-1.5939552066	 0.113703
H	-1.6448202312	 0.0827082431	-2.0833013549	 0.111087
H	-0.8398427676	-1.4899550539	-1.9030462	 0.126786
H	-2.0639157981	-2.5146614369	 0.4818029184	 0.076327
H	 0.1361481372	-3.5637389855	 1.0667192905	 0.099411
H	 0.9323378925	-1.9217047983	 0.9734784695	 0.126953
H	-1.452553647	-2.6963385002	 2.7910887037	 0.075253
H	 0.099235038	-0.0398582158	 2.5308240428	 0.136192
H	-1.3781874075	-0.2338870118	 3.4868489657	 0.1051
H	 0.0962966717	-1.0812990422	 3.9652818029	 0.108615
