17
gdb 74781	3.14256	1.43603	1.4016	4.4568	72.87	-0.2406	-0.0156	0.225	1008.1168	0.137798	-421.871767	-421.864618	-421.863674	-421.903249	28.333	
C	-0.0053555773	 1.4949033782	 0.0498411076	-0.517577
C	-0.0595492226	 0.0081885993	-0.0301242318	 0.350615
C	-0.0738959792	-0.8094105385	-1.0891339152	-0.199202
C	-0.0092367428	-2.2481669167	-0.5715280473	-0.200671
C	-0.8392992447	-2.1054682541	 0.7340376869	-0.234665
C	 0.0285403679	-0.9218898137	 1.1852755337	 0.007275
O	 1.3687702503	-1.5307231189	 1.1631524707	-0.24752
C	 1.3896219104	-2.3551323039	 0.0698995126	 0.45479
O	 2.3452997827	-2.9926112097	-0.259710271	-0.351701
H	 0.9291444824	 1.8243165204	 0.5216863504	 0.14444
H	-0.0656115793	 1.9518493449	-0.9413533285	 0.132718
H	-0.8240676335	 1.8940188085	 0.6615329168	 0.130476
H	-0.0343343659	-0.5400849865	-2.1360986195	 0.114274
H	-0.2316375065	-3.0503222411	-1.2697270218	 0.094615
H	-1.8809726232	-1.8419107279	 0.5469948658	 0.115308
H	-0.7694217403	-2.9626505995	 1.4099494789	 0.117669
H	-0.1192627484	-0.493710971	 2.1745054218	 0.089157
