18
gdb 14179	3.69978	1.72561	1.68063	1.263	67.28	-0.2437	0.0769	0.3206	866.7114	0.153976	-384.928108	-384.920507	-384.919562	-384.959385	29.598	
C	-0.0447048473	 1.592947235	 0.0223255977	-0.475949
C	 0.0498669516	 0.0842519699	 0.0372511588	 0.408597
O	-1.1565047292	-0.558740268	-0.3087447777	-0.472054
C	 1.2960516952	-0.6864248309	-0.3558872651	-0.141996
C	 2.6437859495	 0.0080951232	-0.3008913753	-0.101689
O	 2.7084580418	 0.6682373744	 0.9630924165	-0.256575
C	 1.8690496748	-0.015155935	 1.8943184051	-0.104564
C	 0.791895249	-0.7044884975	 1.0797035346	-0.106728
H	 0.8868693424	 2.0605344854	 0.3442942467	 0.149113
H	-0.2726159407	 1.9505605017	-0.9900624252	 0.102899
H	-0.855257537	 1.9213887061	 0.6807561717	 0.123913
H	-1.3617248331	-0.3219853031	-1.2202751317	 0.277821
H	 1.1732350471	-1.5502725227	-0.9987407779	 0.090448
H	 3.4486002266	-0.7380338491	-0.4000074897	 0.095337
H	 2.7964375091	 0.7747832686	-1.0689025591	 0.105466
H	 2.4387300415	-0.7675250503	 2.4624515596	 0.096257
H	 1.4976179464	 0.7351973856	 2.6008544256	 0.109342
H	 0.2970457322	-1.5767215332	 1.4894123053	 0.100361
