18
gdb 16522	3.58163	2.40562	1.85684	1.4632	70.57	-0.2214	0.0973	0.3187	783.3814	0.155377	-347.780695	-347.774127	-347.773182	-347.810903	26.811	
C	 0.0289528681	 1.4343286606	 0.0069508387	-0.477995
C	-0.0335686779	-0.0657305033	 0.0097666122	 0.47492
O	 0.9552305169	-0.6636993088	-0.8171786726	-0.310362
C	 0.4067666613	-1.8877523794	-1.3189206961	-0.084187
C	-0.7042376125	-2.2334953986	-0.3314907725	-0.072728
C	-0.1197813271	-2.2969504133	 1.1183259997	-0.237348
C	-0.4399321428	-0.8108760445	 1.271632871	-0.125556
C	-1.3068941058	-0.8389079186	 0.0011499197	-0.159596
H	 1.0078924306	 1.7788482464	 0.3554118999	 0.129364
H	-0.1287797319	 1.8269727532	-1.0024253543	 0.12346
H	-0.7351686356	 1.8544311494	 0.6672704529	 0.118065
H	 0.0146510368	-1.7432619399	-2.3381103487	 0.087137
H	 1.2065275579	-2.6354940781	-1.3521897447	 0.103566
H	-1.3658644955	-3.0414685667	-0.6410662669	 0.072846
H	-0.7409331717	-2.9113249861	 1.7748735248	 0.100527
H	 0.9270218566	-2.6055615454	 1.2163438972	 0.096744
H	-0.6235667835	-0.2868552973	 2.203711156	 0.077674
H	-2.2999539139	-0.4615094993	-0.2064579162	 0.083471
