17
gdb 61976	3.80919	0.76409	0.66669	4.5865	71.55	-0.2578	-0.0027	0.2551	1625.8182	0.133887	-455.185445	-455.175107	-455.174163	-455.223231	34.98	
C	-0.1288392713	 1.4457207348	 0.008070494	-0.483627
C	-0.0184806297	-0.0613790299	 0.164994192	 0.40577
O	 0.7847747622	-0.5834487066	 0.9141668323	-0.362712
N	-0.8914910439	-0.7891776452	-0.604835362	-0.316792
C	-0.9906640919	-2.2248012968	-0.5017923564	-0.175992
C	-2.3962108742	-2.628496111	-0.0143490485	-0.021373
O	-3.4133693642	-2.0989875207	-0.8530657117	-0.417383
C	-2.5073707294	-4.0927406664	 0.1065768965	 0.256329
N	-2.5864082543	-5.2444694012	 0.1551550861	-0.305987
H	 0.8714123923	 1.8543282516	-0.1507983098	 0.158177
H	-0.780032088	 1.7544066444	-0.8134845167	 0.115965
H	-0.5112478777	 1.8702424351	 0.9410457033	 0.156099
H	-1.6070764439	-0.3158648361	-1.1322729804	 0.251571
H	-0.7977130732	-2.7059336938	-1.4699298478	 0.116456
H	-0.2253765347	-2.5549193676	 0.2042223733	 0.17093
H	-2.5680426819	-2.1823272636	 0.970644815	 0.15311
H	-3.4262009863	-2.6074797771	-1.6728498193	 0.299459
