19
gdb 55017	3.00414	1.01675	0.91286	3.4967	77.39	-0.248	-0.0192	0.2288	1355.7916	0.157265	-423.012097	-423.002835	-423.00189	-423.047131	33.44	
C	-0.5439459636	 1.4284233537	-0.1525774742	-0.4842
C	 0.0092237808	 0.0314094433	 0.0561473766	 0.394076
O	 0.3336408989	-0.3691011289	 1.1559146337	-0.327722
C	 0.1354547318	-0.8091963624	-1.1733695866	-0.135551
C	 1.1916012458	-1.9003127164	-1.2001483198	-0.29845
C	-0.2459390801	-2.2976176083	-1.1492897758	-0.023087
C	-0.8313794294	-2.9493230665	 0.0601148043	 0.067811
C	-2.2087036771	-3.4589964338	 0.0559502283	-0.184282
O	-1.1022375095	-4.3509986531	-0.082995801	-0.239672
H	 0.0981370337	 1.9898889901	-0.8412690153	 0.141791
H	-1.5361428836	 1.3779506895	-0.615781762	 0.140647
H	-0.6063597141	 1.9517017159	 0.801877536	 0.142537
H	-0.0746764041	-0.2976192185	-2.1065960831	 0.089941
H	 1.746952411	-2.0434963447	-2.1196206897	 0.122068
H	 1.7636071891	-2.0027244063	-0.2840276305	 0.143866
H	-0.6847405448	-2.6542560602	-2.076934305	 0.099487
H	-0.3876389141	-2.6663766708	 1.0105425561	 0.127321
H	-2.7607688103	-3.535114493	 0.9917945054	 0.116611
H	-2.8248387703	-3.3377656197	-0.8350946174	 0.106809
