27
gdb 58187	2.14543	1.21436	0.96862	1.3514	91.7	-0.2558	0.0704	0.3262	1424.0912	0.24896	-390.699996	-390.688203	-390.687259	-390.73607	45.356	
C	-0.6955240665	 1.7948845862	 0.5003233625	-0.415129
C	-0.4073516352	 0.3323643743	 0.1368953889	 0.141509
O	 0.6038561212	-0.1663426399	 1.016013264	-0.428659
C	-1.6779107158	-0.559716063	 0.0820945083	-0.024717
C	-2.6446637253	 0.0172104442	-0.9722731754	-0.416948
C	-1.3941212396	-2.0971605586	-0.1285651605	 0.296055
C	-0.8965890952	-2.7463346631	 1.1821041829	-0.423028
C	-2.693776937	-2.8359963626	-0.5177885222	-0.411023
C	-0.3465974872	-2.3347068247	-1.2340353361	-0.419177
H	 0.2553435439	 2.3120813333	 0.6545607486	 0.122912
H	-1.2470801214	 2.3272294218	-0.2774537971	 0.121948
H	-1.2757999241	 1.8611284811	 1.4300352166	 0.105481
H	 0.0692960439	 0.3103017277	-0.8501382605	 0.090772
H	 0.2676689723	-0.0936344681	 1.9162809414	 0.274831
H	-2.1756874174	-0.4678931867	 1.0612246873	 0.054384
H	-2.2195508908	-0.0436969353	-1.9807144739	 0.115486
H	-3.5977148148	-0.5130559471	-0.9806214548	 0.120105
H	-2.8698984246	 1.0669182424	-0.7736669532	 0.113157
H	-1.6200723962	-2.5957579691	 1.992670633	 0.094645
H	-0.7818962533	-3.8278650554	 1.0467167038	 0.100636
H	 0.0651723795	-2.3405493258	 1.4927107033	 0.12783
H	-3.0457047421	-2.5729044601	-1.5188620177	 0.109933
H	-2.5187624153	-3.9170478579	-0.5090099038	 0.104966
H	-3.5036461696	-2.6296193779	 0.1917171578	 0.104371
H	 0.6363256394	-1.9574205741	-0.9412481896	 0.133092
H	-0.2449867213	-3.4073195017	-1.4325780174	 0.102865
H	-0.6329863277	-1.8570148898	-2.1777693162	 0.103703
