19
gdb 99206	4.96916	0.61213	0.56846	2.7575	73.87	-0.2483	-0.0142	0.2341	1921.9531	0.154246	-460.194658	-460.183679	-460.182735	-460.233007	36.857	
C	-0.0096580402	 1.4877177223	-0.034626918	-0.473774
C	 0.0371801956	-0.0070915761	 0.2221985381	 0.381022
O	 1.0242714527	-0.5495372755	 0.6658413956	-0.296502
C	-1.2367264837	-0.7779959503	-0.0963002816	-0.305615
C	-1.0582704869	-2.2918621726	-0.0590148737	-0.315327
C	-2.35245649	-3.0385410042	 0.2364297906	 0.374342
O	-3.3196385935	-2.5085969702	 0.7248628417	-0.284494
C	-2.3273779199	-4.5222149703	-0.1155451607	-0.169319
O	-3.4992765038	-5.1433423286	 0.3389378036	-0.394543
H	 0.8887158288	 1.962808092	 0.3608221742	 0.143329
H	-0.0733832999	 1.6750859926	-1.1130915375	 0.141643
H	-0.902224906	 1.9334436158	 0.4171541994	 0.140232
H	-1.998168572	-0.4916274371	 0.6419607182	 0.156512
H	-1.6359039731	-0.4374883347	-1.0592623857	 0.118203
H	-0.6087410635	-2.672294652	-0.9837709612	 0.114671
H	-0.3379075044	-2.5417685457	 0.7316614138	 0.156858
H	-2.2063405853	-4.5891166173	-1.2120626556	 0.108937
H	-1.4114865188	-4.9570844778	 0.3214178166	 0.110244
H	-3.4539134061	-6.0745406405	 0.1037268521	 0.29358
