19
gdb 41166	2.92232	1.77058	1.58374	1.9154	80.19	-0.2304	0.0091	0.2395	932.7264	0.1614	-385.776732	-385.770039	-385.769095	-385.807275	28.769	
C	 0.0873718273	 1.5908742009	-0.1686865894	-0.208678
O	 1.545892482	 1.4299532565	 0.0790643758	-0.331178
C	 1.1247912047	 0.2954762369	 0.9322865755	 0.177667
C	 1.1834168653	-1.2435879957	 1.268431245	-0.162984
C	-0.4286300606	-1.049691274	 1.160521797	-0.325371
C	-0.0656650257	 0.052789177	 0.0888641612	 0.235669
C	 0.2544293023	-0.678528839	-1.2470385612	-0.273196
C	 1.1911061175	-1.8448832348	-1.0772593531	-0.062072
C	 1.6585594732	-2.1117197063	 0.1384374343	-0.044204
H	-0.3600727398	 2.2388793815	 0.5942966913	 0.105033
H	-0.1057049157	 1.9763768696	-1.1731369053	 0.110699
H	 0.8400011039	 0.7667555118	 1.8852046646	 0.076132
H	 1.5919690154	-1.5243234258	 2.2401463613	 0.073543
H	-0.9769729498	-1.9285734656	 0.8147449926	 0.110212
H	-0.8633911816	-0.6617366151	 2.0826194631	 0.112433
H	-0.6991200494	-1.0077993502	-1.686190672	 0.103716
H	 0.6924181149	 0.0194645542	-1.9690579715	 0.120608
H	 1.4896811496	-2.4084464471	-1.9562115031	 0.090588
H	 2.3622646663	-2.9128763349	 0.337847744	 0.091383
