23
gdb 96164	2.47191	1.38251	0.97293	1.529	85.02	-0.2581	0.0775	0.3355	1270.8707	0.208497	-388.29508	-388.28662	-388.285676	-388.327596	34.54	
O	-0.0971007232	 1.470005605	 0.0711915915	-0.443021
C	 0.0065039523	 0.0494257984	-0.0216026438	 0.14701
C	 0.7916317637	-0.4970258931	 1.182251797	-0.206945
C	 1.0462627181	-2.0126803907	 1.2386751565	-0.195011
C	-0.2264659835	-2.8733190323	 1.3401589788	-0.21976
C	-0.9249590451	-3.0517958545	 0.0041390392	 0.015752
C	-2.4217652439	-2.9270294436	-0.1435573658	-0.326773
C	-1.5164244945	-1.8625636546	-0.7164896231	-0.000808
C	-1.4330548206	-0.4740358557	-0.1135067731	-0.221964
H	 0.7874664494	 1.824096133	 0.2081000365	 0.275682
H	 0.5370192116	-0.2263726173	-0.9501344229	 0.056176
H	 1.7653170808	 0.014194898	 1.2045141198	 0.076127
H	 0.2606944445	-0.1816036957	 2.0908093484	 0.100274
H	 1.6270790276	-2.32795588	 0.3613076054	 0.092375
H	 1.6835379399	-2.2083982703	 2.1094415914	 0.091027
H	 0.0311589346	-3.861517408	 1.7399729147	 0.093125
H	-0.9078765528	-2.4240404453	 2.0732184345	 0.093277
H	-0.4479780232	-3.7883091915	-0.6385074898	 0.07772
H	-2.9385064153	-3.5951006756	-0.8241775972	 0.106889
H	-2.9934089614	-2.6717090645	 0.7439691219	 0.108237
H	-1.4026143115	-1.8752223441	-1.7977976428	 0.079771
H	-1.8864760076	-0.4488545451	 0.8841942762	 0.093992
H	-2.0040000199	 0.2316516671	-0.7265034532	 0.106846
