20
gdb 106892	2.833	1.30812	1.05603	3.9189	80.21	-0.2318	0.0163	0.248	1210.7821	0.169895	-403.151022	-403.141657	-403.140712	-403.185231	34.384	
C	-0.2384731993	 1.4676956602	 0.1346043408	-0.381855
C	-0.0358303992	-0.0524463051	 0.0588983851	-0.277992
C	 0.7672141007	-0.4958414003	-1.1303214252	 0.386449
C	 0.2416798537	-0.7272697393	-2.5181488153	-0.3281
C	 0.9074532816	-1.8755310978	-1.7508712734	-0.307519
C	 2.4052924631	-1.6099832921	-1.7731602517	 0.423788
O	 3.3921736139	-2.1697185216	-2.1670843761	-0.367056
N	 2.2371102722	-0.3572309227	-1.171244737	-0.141389
C	 3.0201727137	 0.8262805004	-1.4665065802	-0.352395
H	 0.7159527859	 1.9946163282	 0.2299166238	 0.12464
H	-0.7398195156	 1.8433649203	-0.7632144345	 0.12037
H	-0.8515734289	 1.7342728969	 1.0005431594	 0.118155
H	 0.4595968926	-0.4095693281	 0.9694658487	 0.112452
H	-1.0132121331	-0.5476401114	 0.0153775647	 0.106155
H	-0.8366527236	-0.8164213389	-2.6225082587	 0.122342
H	 0.7406780847	-0.2944503705	-3.3803831427	 0.124178
H	 0.3950689229	-2.795187083	-1.5063225697	 0.115764
H	 4.0078740694	 0.4928996838	-1.7954454764	 0.15616
H	 2.569633165	 1.4331405753	-2.2643842919	 0.117435
H	 3.1440041404	 1.4534643659	-0.5784154298	 0.128417
