13
gdb 24795	3.61733	1.24305	0.92514	4.3641	77.87	-0.2472	-0.0742	0.173	1155.3813	0.091261	-415.639969	-415.632874	-415.63193	-415.671787	26.484	
N	-0.0782728371	 1.3337631213	-0.1248192001	-0.524913
C	 0.0166936075	 0.0593296038	 0.0138438582	 0.296793
C	 1.2348512012	-0.7443153625	 0.1277714027	-0.23039
C	 1.1794282342	-2.0753106746	 0.2690687086	 0.061886
O	 0.0262164362	-2.7907175206	 0.319337081	-0.233002
C	-1.1411828425	-2.0869745073	 0.2172731627	 0.263429
C	-1.1982678202	-0.7506711846	 0.0728347481	-0.215106
C	-2.2936829224	-2.9286669966	 0.2810827617	 0.250771
N	-3.2365775102	-3.5967745255	 0.3310926033	-0.312919
H	 0.850148291	 1.7613298919	-0.1493840638	 0.215213
H	 2.2048927828	-0.2613470642	 0.0982152238	 0.12231
H	 2.03762157	-2.7285861126	 0.3586591071	 0.153728
H	-2.1579335205	-0.2558920785	-0.0020994935	 0.1522
