21
gdb 84720	2.56844	1.4011	1.15753	0.2377	94.82	-0.2057	-0.0273	0.1784	1191.736	0.18352	-349.983356	-349.974566	-349.973622	-350.01631	34.335	
C	-0.5276622925	 1.4358022273	-0.0561949157	-0.383508
C	-0.0700928818	-0.0379561428	-0.022587586	-0.08454
C	 0.7341393865	-0.4281954443	-1.2431489558	-0.108259
C	 1.9720312085	 0.0174126954	-1.5284338026	-0.046876
C	 2.8438928042	 0.8048508255	-0.6893589329	-0.177092
C	 2.8554726096	 0.8537646984	 0.6697531449	 0.259902
C	 3.9237030243	 1.6415621045	 1.3918106806	-0.482268
C	 1.9577322697	 0.0814785044	 1.5100538225	-0.096556
C	 0.7266929302	-0.3757700529	 1.2173863426	-0.096168
H	 0.3298371899	 2.1119886723	-0.0736789309	 0.130501
H	-1.1322148016	 1.6268583288	-0.9489689987	 0.108537
H	-1.1315513594	 1.669370985	 0.8269991108	 0.107418
H	-0.9747338166	-0.6555043002	-0.0106777222	 0.072898
H	 0.2520907709	-1.0946393127	-1.9545659648	 0.087969
H	 2.3881139888	-0.2539353873	-2.4974454151	 0.085293
H	 3.6402345421	 1.335491	-1.2079482354	 0.079011
H	 4.6082993595	 2.1284704985	 0.6929190886	 0.119972
H	 3.4824325949	 2.4168493041	 2.0302445988	 0.12818
H	 4.5145175041	 0.9933033058	 2.0510338746	 0.125696
H	 2.3549651829	-0.1671876982	 2.4938330657	 0.081001
H	 0.2428295959	-1.0243026515	 1.9446122609	 0.088891
