18
gdb 62125	3.22547	0.80983	0.68066	4.8194	70.42	-0.25	0.0306	0.2806	1600.9063	0.146075	-476.213685	-476.204017	-476.203072	-476.249915	33.689	
O	-0.0386411384	 1.6487313028	-0.0552977634	-0.435023
C	 0.1615420272	 0.2347105042	-0.0077586697	 0.072724
C	 0.9858264038	-0.2394347277	-1.207238322	-0.165831
N	 0.3781390711	 0.2159747067	-2.4408298599	-0.28057
C	 0.2796571627	-0.5559933086	-3.5541966271	 0.154497
O	 0.716591711	-1.6817727273	-3.6657148757	-0.322474
C	 0.7892762997	-0.1845880377	 1.3040377009	 0.062212
C	-0.0239672129	-0.5750018951	 2.4588613115	-0.176373
O	 0.6429058638	-1.5573779742	 1.6603323703	-0.227881
H	 0.8153175504	 2.0766847071	 0.0802161902	 0.285298
H	-0.8415888012	-0.1989022734	-0.0734309332	 0.10886
H	 2.016906749	 0.1384730304	-1.1137534735	 0.097412
H	 1.0399662424	-1.3301071411	-1.235309418	 0.164691
H	-0.0361166729	 1.135456401	-2.4312191738	 0.252724
H	-0.2565679806	-0.0303845685	-4.3694190359	 0.073844
H	 1.7876600958	 0.2229712986	 1.4891545732	 0.089825
H	 0.3700568196	-0.4472643241	 3.4654937791	 0.121987
H	-1.1094781704	-0.5630907231	 2.375590387	 0.124079
