17
gdb 98706	2.82966	1.10746	0.93451	6.5219	75.65	-0.2608	0.0045	0.2653	1296.3781	0.135712	-418.042528	-418.03311	-418.032165	-418.077896	32.878	
C	-0.2945585508	 1.4793797887	-0.416222723	-0.335869
N	-0.3914187824	 0.0319247095	-0.4482744372	-0.33387
C	-1.2081076202	-0.6635177096	 0.3909738201	 0.450436
O	-1.8915672833	-0.1432526169	 1.2555527205	-0.37615
C	-1.2043220641	-2.153733594	 0.175248209	-0.145185
C	-1.7055559426	-3.0045738605	 1.3066158408	-0.281455
C	-2.5514578504	-2.8790993309	 0.0638245044	-0.167631
C	-3.7998655434	-2.1659584207	 0.070520808	 0.310284
N	-4.8332501142	-1.6488393234	 0.0301483677	-0.339162
H	 0.7429880312	 1.8012348476	-0.2784932505	 0.127935
H	-0.6837880481	 1.9265645283	-1.3376021256	 0.132579
H	-0.8942083146	 1.8262061552	 0.4256200663	 0.178543
H	 0.1038964264	-0.4687652616	-1.1670430555	 0.247317
H	-0.4235778883	-2.5586811169	-0.4606142613	 0.095031
H	-1.232423345	-3.9609885123	 1.4922053648	 0.129451
H	-2.0420953839	-2.4515142265	 2.1751159184	 0.169552
H	-2.5547133064	-3.7299672258	-0.6098217467	 0.138193
