18
gdb 44904	2.76672	1.76794	1.54361	3.1535	77.21	-0.2466	0.0051	0.2517	939.7856	0.151654	-401.986578	-401.979873	-401.978928	-402.01742	27.829	
N	-0.0540804481	 1.2633687517	 0.0002081596	-0.554451
C	-0.0314103788	 0.003442079	-0.0184207885	 0.434877
O	 1.1027127453	-0.7703331004	-0.056577579	-0.257349
C	 0.7259534469	-2.1701640619	-0.1285165731	 0.084617
C	-0.6609859353	-2.1223636222	-0.7830644801	-0.24564
C	-1.2278731095	-0.9358855574	 0.0166230923	-0.14202
C	-1.424025047	-1.376022732	 1.4594146548	-0.068266
C	-0.5599464344	-2.2167083184	 2.0298508051	-0.051845
C	 0.6430630702	-2.7514729145	 1.2895153506	-0.256574
H	 0.8965031399	 1.6385569699	-0.0108108123	 0.220141
H	 1.4925377319	-2.6711301675	-0.7226622179	 0.08813
H	-0.5811154977	-1.8910417117	-1.8490723552	 0.112157
H	-1.2312947234	-3.0434851442	-0.6505578057	 0.111242
H	-2.1158894352	-0.4667956323	-0.4020761741	 0.096104
H	-2.2604928425	-0.9620416379	 2.0122240518	 0.100915
H	-0.6912875168	-2.5291612731	 3.0621964856	 0.094256
H	 0.6094712659	-3.8488559303	 1.2374728169	 0.110367
H	 1.5654663288	-2.5005701667	 1.8289446793	 0.123341
