19
gdb 37532	3.86155	1.65508	1.41741	0.2152	85.26	-0.2283	0.0144	0.2427	958.701	0.161705	-348.661706	-348.655378	-348.654434	-348.691951	27.526	
C	-0.1392725178	 1.614759218	-0.0283339889	-0.267436
C	 1.3721095065	 1.3274129174	-0.0085282822	-0.075046
C	 1.2307670771	 0.1490721587	 0.9987517264	-0.085015
C	-0.0535447236	 0.0789603927	 0.049269376	-0.147814
C	 1.2060055793	-0.0005995155	-0.883600309	 0.400093
C	 1.8182322468	-0.2274453736	-2.2222380543	-0.26976
C	 3.0644825747	-0.6792190466	-2.0029438028	-0.050609
C	 3.4063870855	-0.8317428094	-0.5095343696	-0.330388
C	 1.9910060913	-0.8581633483	 0.0996770777	-0.02579
H	-0.5488713721	 2.1238106762	 0.8503564746	 0.089197
H	-0.5567028049	 2.0398832257	-0.9466313407	 0.091232
H	 2.2024333673	 2.0320410744	-0.0690877699	 0.069432
H	 1.1932442971	 0.2371638975	 2.0869518304	 0.065474
H	-0.8541738975	-0.6601164106	 0.1165635926	 0.070758
H	 1.3941104635	 0.0111041991	-3.1899588462	 0.098007
H	 3.7973645522	-0.8652080765	-2.7815418207	 0.09326
H	 4.0028716387	-1.7245664998	-0.2976938608	 0.099691
H	 4.0000464167	 0.0317251347	-0.1791910984	 0.110338
H	 1.6224765794	-1.8886666642	 0.1755527857	 0.064376
