17
gdb 53102	2.21264	1.14695	0.95566	3.9609	82.44	-0.2338	0.0143	0.2481	1325.4757	0.134589	-380.842236	-380.832106	-380.831161	-380.879063	34.606	
C	 0.0753682669	 1.4790722577	 0.019992118	-0.500658
C	 0.0428956838	 0.0245251621	-0.0027799525	 0.103759
C	 0.0047609143	-1.1794991197	-0.0388704193	 0.071495
C	-0.0370582912	-2.608114869	-0.0538001251	-0.255262
C	-0.405412559	-3.3790272471	 1.2167154595	 0.012249
N	-0.7447154735	-2.7589864049	 2.4578619817	-0.514032
C	-1.3891528859	-3.3528358055	 0.0682321559	-0.213559
C	-2.5995099738	-2.5942058634	 0.1919321414	 0.305164
N	-3.5730427121	-1.9793524258	 0.3071021017	-0.343919
H	 0.6850978157	 1.855899638	 0.8485982645	 0.148262
H	 0.4946473033	 1.8781340963	-0.9100319011	 0.153388
H	-0.9333356255	 1.8909135579	 0.1325565968	 0.160825
H	 0.6647955451	-3.0983414641	-0.7231961117	 0.120533
H	 0.1141547715	-4.3253974043	 1.3399229187	 0.116988
H	 0.0858839578	-2.3725422679	 2.896395742	 0.240826
H	-1.3920768554	-1.9891963549	 2.3184631901	 0.253732
H	-1.4914984319	-4.2574988554	-0.5208601707	 0.140208
