22
gdb 77696	2.53539	1.32275	1.1642	0.7468	82.19	-0.2356	0.0684	0.304	1195.0351	0.192582	-404.316957	-404.30732	-404.306376	-404.350681	37.607	
C	-0.7572372334	 1.01755105	 0.0812122653	-0.440994
C	-0.064887554	-0.3358118509	 0.0574181868	-0.067775
C	 0.8435029318	-0.7273578298	-1.1205447616	 0.346139
C	 0.5020542678	-0.9871372165	-2.5296979656	-0.31638
N	 1.3209080513	 0.1917884314	-2.158423124	-0.363402
C	 1.8184257725	-1.4243417084	-0.1709976516	-0.351433
C	 1.136632384	-0.647567901	 1.0062356424	 0.396924
C	 1.941548744	 0.5660996263	 1.4587822141	-0.453904
O	 0.7058721097	-1.4187893479	 2.1129871609	-0.485268
H	-0.0535108186	 1.8451795285	-0.0542218122	 0.11745
H	-1.5117428404	 1.0860458246	-0.7112323132	 0.114659
H	-1.2735051847	 1.1731936777	 1.0338548002	 0.128646
H	-0.8007953072	-1.1318699433	 0.2191070537	 0.089752
H	 1.0330717479	-1.7518658884	-3.0909920141	 0.115925
H	-0.5252939039	-0.8257824831	-2.8496097194	 0.107285
H	 0.737510798	 1.026091554	-2.1805341358	 0.226752
H	 1.6268682198	-2.4977673572	-0.0874480781	 0.101758
H	 2.8815073478	-1.2439501915	-0.3487252553	 0.10179
H	 2.2589286907	 1.1754774422	 0.6075287247	 0.133178
H	 1.358712383	 1.1903837801	 2.1428803012	 0.120805
H	 2.8501392377	 0.2411494642	 1.9815202423	 0.105136
H	 1.4654503563	-1.5763616711	 2.6843033595	 0.272957
