19
gdb 118829	2.59114	0.87149	0.74394	2.9303	74.47	-0.2433	-0.0222	0.2212	1540.9898	0.155739	-460.146035	-460.135748	-460.134804	-460.181936	36.504	
O	 0.1088288768	 1.4720594076	 0.2600421171	-0.418221
C	 0.0530668345	 0.0555837474	 0.2983340581	-0.063299
C	-1.2929648886	-0.4814429903	-0.2078098111	-0.259374
C	-1.3883272728	-1.9877332862	-0.114536306	 0.418988
O	-0.424175995	-2.5663380243	-0.9489498688	-0.46162
C	-1.7709999843	-2.662941514	 1.1550831811	-0.37048
C	-2.7481427511	-2.7100836156	-0.0264715615	-0.178202
C	-4.0357347064	-1.9898374516	 0.0498329058	 0.157621
O	-5.0314528257	-2.3083946219	-0.5540336291	-0.268992
H	 0.1175488616	 1.742489125	-0.6636028309	 0.283498
H	 0.8737607373	-0.4022160771	-0.2688681504	 0.109703
H	 0.1894657941	-0.2191801636	 1.3500530223	 0.110374
H	-2.0944819735	-0.0103747592	 0.3672367805	 0.112743
H	-1.4318192604	-0.1881683027	-1.2564915091	 0.108809
H	-0.2984929978	-3.488333894	-0.70389841	 0.289012
H	-1.2870260937	-3.594900314	 1.4310381054	 0.12227
H	-2.0551697445	-2.0443712473	 2.0015659614	 0.133126
H	-2.7988442811	-3.6353698829	-0.591883229	 0.106379
H	-4.0392137692	-1.1071609753	 0.7309105842	 0.067665
