16
gdb 74839	2.49922	1.71472	1.10182	3.8993	72.43	-0.2252	-0.0188	0.2063	1074.8021	0.125242	-437.91961	-437.911958	-437.911013	-437.951713	29.359	
C	 0.0152540688	 1.518154488	-0.0224707711	-0.489487
C	-0.0543673644	 0.020508909	-0.0007272814	 0.392359
C	-1.1841990357	-0.6876664488	 0.1618114023	-0.22225
C	-1.1546210242	-2.1561519461	 0.0705463955	 0.018796
O	-0.6870663454	-2.7123093208	-1.1769281403	-0.248713
C	 0.1652935048	-2.8302397741	-0.038835422	-0.118296
C	 1.4051259796	-1.9847624934	-0.0534599697	 0.449687
O	 2.5261263429	-2.4424656125	 0.0330188393	-0.364245
N	 1.1755514381	-0.6235041422	-0.1528142207	-0.415415
H	 0.6964270456	 1.893780578	 0.7508614308	 0.136915
H	 0.3870078939	 1.8787070122	-0.9890019028	 0.144723
H	-0.9708306277	 1.9524047563	 0.1474698009	 0.14373
H	-2.1279354309	-0.1783826275	 0.3052670346	 0.100145
H	-1.9770775509	-2.7152889033	 0.5111781399	 0.101356
H	 0.3268226251	-3.840712784	 0.3291131767	 0.116956
H	 2.0176684903	-0.0654223508	-0.168351032	 0.253739
