17
gdb 15525	3.05917	1.79245	1.16123	5.4592	75.67	-0.2099	-0.0275	0.1824	1007.4273	0.143114	-363.903562	-363.895607	-363.894663	-363.935742	29.556	
N	 0.0868250187	 1.3270514703	 0.2575117776	-0.587452
C	-0.0057533509	-0.0087296563	 0.0072622393	 0.291144
C	-1.1105883184	-0.810364673	-0.021580642	 0.159004
C	-0.7293168591	-2.2454133764	-0.321422308	-0.299571
C	 0.8012143169	-2.2640923995	-0.0930708663	-0.214696
C	 1.2526367662	-0.7976310334	-0.2746303313	-0.298241
C	-2.4742766936	-0.3843171291	 0.1559947046	 0.041583
O	-3.4502166575	-1.1119473144	 0.093076396	-0.302009
H	 0.9373214715	 1.8024138526	 0.0073806409	 0.261186
H	-0.7441433907	 1.8951917581	 0.2422453923	 0.264942
H	-1.2601393922	-2.9564046279	 0.3181734271	 0.117018
H	-0.9876106929	-2.5130405777	-1.3549568823	 0.105734
H	 1.0151764931	-2.5796991441	 0.932807435	 0.11094
H	 1.3279791718	-2.9494607231	-0.76132766	 0.10078
H	 1.5844050995	-0.5943959086	-1.3033356325	 0.118222
H	 2.0789364576	-0.5094055212	 0.3852829627	 0.111681
H	-2.61212072	 0.7051314738	 0.3704747069	 0.019735
