19
gdb 52241	5.22192	0.69094	0.66728	3.1971	76.42	-0.2471	-0.0197	0.2274	1659.3564	0.157591	-422.993634	-422.984797	-422.983853	-423.028615	31.832	
O	-0.6397920353	 0.7525909083	 0.7744606113	-0.237745
C	 0.0058463238	 1.0242229986	-0.2046401862	 0.160066
C	 1.32192926	 1.7667953707	-0.2006003895	-0.274907
C	 1.2710102716	 3.022542524	-1.0893650037	-0.214728
C	 2.6151577574	 3.7346755775	-1.1908490527	-0.00936
C	 3.7920222905	 3.0365863879	-1.9787962437	-0.271863
C	 3.8144774176	 4.2477896304	-2.9188971263	 0.037247
O	 2.5105866633	 4.349024445	-3.5048751104	-0.244136
C	 2.7106468238	 4.8982043997	-2.1970213043	 0.004188
H	-0.3506815784	 0.7369235275	-1.2225772866	 0.071547
H	 1.5816980606	 2.0110811757	 0.83391607	 0.118485
H	 2.0879541023	 1.0807229357	-0.591169954	 0.120398
H	 0.9427733717	 2.7535680414	-2.1000324652	 0.121124
H	 0.5223802099	 3.7179843966	-0.6881230499	 0.109748
H	 2.9621212096	 4.0506973906	-0.2013535617	 0.081017
H	 4.6970167128	 2.92770046	-1.377184513	 0.110078
H	 3.5613876561	 2.0861936335	-2.4678107347	 0.108567
H	 4.6414043158	 4.6704617104	-3.4771833038	 0.107397
H	 2.4655456268	 5.9452047864	-2.0578257557	 0.102875
