17
gdb 2829	4.72428	1.683	1.38335	0.8461	70.9	-0.2398	0.0512	0.291	913.9467	0.147015	-272.543724	-272.53585	-272.534906	-272.575657	29.108	
C	-0.041279582	 1.5289658287	-0.2314405616	-0.374519
C	-0.0442896966	 0.081019635	 0.2718920991	-0.198429
C	-1.4073372173	-0.5676391665	 0.1654601625	 0.019056
C	-1.8625682381	-1.2085047685	-1.1134481136	-0.287589
C	-1.5660230969	-2.083786844	 0.0983509339	-0.204633
C	-0.4255469848	-2.9522185606	 0.1042461037	 0.339718
C	 0.524470331	-3.6910361912	 0.1201653709	-0.478805
H	 0.953776536	 1.9755423394	-0.1416399165	 0.112506
H	-0.3410826226	 1.5817272801	-1.2833411766	 0.11736
H	-0.737829633	 2.15072889	 0.3420229628	 0.112675
H	 0.6829787747	-0.5132595292	-0.2918962114	 0.109903
H	 0.2883372855	 0.0526440947	 1.3173305153	 0.101587
H	-2.1845611745	-0.0725763307	 0.7434671048	 0.087416
H	-2.8983770927	-1.1131452761	-1.4194414024	 0.115782
H	-1.1517133218	-1.2598646981	-1.9310490229	 0.124508
H	-2.434948134	-2.4851864241	 0.6120802608	 0.110439
H	 1.361374457	-4.3439094589	 0.1308248112	 0.193025
