19
gdb 38565	2.64192	2.3332	1.7664	1.7537	76.17	-0.2394	0.0724	0.3118	852.3172	0.164042	-385.888833	-385.882918	-385.881974	-385.918799	26.011	
C	-0.0530952156	 1.4929931786	-0.2324136442	-0.239771
C	 1.3511287044	 2.0064182578	 0.0615356858	-0.055604
C	 2.1271500894	 1.6720668066	 1.3253060544	-0.055604
C	 1.5889149095	 0.7855277046	 2.4416429949	-0.239771
C	 1.0375235642	-0.4744006883	 1.7556776445	 0.102852
O	-0.3552571201	-0.3368529436	 1.4037677924	-0.302903
C	-0.01786002	-0.0196853333	 0.0369593726	 0.102852
C	 1.4801822538	-0.4001489389	 0.2599653313	-0.10464
C	 2.3314746701	 0.8492866847	 0.0677869974	-0.08423
H	-0.8415919494	 1.9597253897	 0.3670857104	 0.111625
H	-0.2807021245	 1.6863259324	-1.2878037212	 0.096496
H	 1.6398836939	 2.9416541174	-0.4081154239	 0.081339
H	 2.8740051515	 2.4099289637	 1.6016836173	 0.081339
H	 2.4190323274	 0.5231376529	 3.1087912078	 0.096496
H	 0.8073407497	 1.2492763343	 3.0524169139	 0.111625
H	 1.2087982634	-1.3935006585	 2.3241831917	 0.073458
H	-0.6247008686	-0.6035313937	-0.6617152159	 0.073458
H	 1.8444994969	-1.3136995955	-0.2054391464	 0.071044
H	 3.2525368441	 0.8352580893	-0.5015053229	 0.07994
