18
gdb 111713	2.59572	1.24746	0.972	4.4347	79.34	-0.2231	0.0147	0.2378	1250.3046	0.14884	-398.078121	-398.069348	-398.068403	-398.112436	32.059	
C	-0.2779914686	 1.3653738765	 0.1040035856	-0.322858
N	 0.2035069398	-0.0023672223	-0.0893879502	-0.297435
C	 0.7951629195	-0.5660920497	 1.084429647	 0.003795
C	 0.1628617904	-1.6343343173	 1.9201634942	-0.093535
N	-0.6648636893	-2.4710938221	 1.0350678747	-0.343115
C	 0.5606374632	-2.9442810752	 0.3089466643	-0.23605
C	 1.4389196002	-1.9523842069	 1.0875494103	 0.141075
C	 2.78510396	-2.1803922962	 1.4806239777	 0.178008
N	 3.880445101	-2.3670949469	 1.8096600697	-0.355532
H	 0.5701800994	 2.0260163343	 0.3129199576	 0.128636
H	-0.745466658	 1.7111797917	-0.8218035844	 0.125601
H	-1.0077954918	 1.4807147866	 0.9225385005	 0.103745
H	-0.5732511331	-0.5970776569	-0.3668824018	 0.23906
H	 1.3884589779	 0.1454670352	 1.6518676209	 0.11839
H	 0.026165433	-1.6048313695	 2.9951934092	 0.113596
H	-1.1079451717	-3.2306559348	 1.5377790349	 0.237847
H	 0.819546192	-3.9789089353	 0.5461454228	 0.130741
H	 0.519651566	-2.8149189212	-0.776908733	 0.12803
