19
gdb 79243	2.38662	1.63325	1.39912	1.6992	74.74	-0.2262	0.0626	0.2888	1032.9049	0.157791	-422.968023	-422.959312	-422.958368	-423.000727	33.991	
C	-0.0003589709	 1.614082357	-0.0266852112	-0.431986
C	 0.0826086054	 0.0930442576	 0.0112004788	-0.022436
C	 0.783128072	-0.6958898104	-1.0985071016	-0.132541
C	 2.2943012772	-0.8248757333	-0.7181743321	-0.155926
C	 2.483288057	-0.1235074019	 0.6257606072	-0.299538
C	 1.0621852728	-0.6502920795	 0.9803067619	 0.281027
O	 0.7049880201	-0.9714111365	 2.2814259404	-0.483461
C	 1.2472254027	-1.7569322544	-0.1582655592	 0.337978
O	 1.0276773492	-3.1059559066	-0.2045383481	-0.450028
H	 0.962457804	 2.0750426214	-0.2641915732	 0.119643
H	-0.7153225468	 1.9420929418	-0.7891744659	 0.118144
H	-0.3436897962	 2.0180286009	 0.9336572693	 0.104224
H	-0.9128410224	-0.3373279446	 0.1701466958	 0.081874
H	 0.4745994931	-0.824927842	-2.1280452226	 0.088249
H	 3.0310107237	-1.0217066504	-1.4858731606	 0.088555
H	 3.2377672233	-0.6282241982	 1.2361874925	 0.096625
H	 2.6541812414	 0.9580813649	 0.6469909369	 0.085679
H	 0.6366822839	-0.1567130968	 2.7920828769	 0.280921
H	 1.6824216106	-3.5413978992	 0.3535244848	 0.292997
