15
gdb 71559	2.7248	1.49701	1.40606	3.4554	67.25	-0.2508	-0.0387	0.2121	974.4948	0.110505	-457.670134	-457.662625	-457.661681	-457.702193	28.723	
O	 0.0640202348	 1.3298446743	-0.1616597157	-0.449298
C	 0.0758857577	-0.0304867431	-0.1217926601	 0.343696
C	 0.6139732557	-0.9511391929	-1.2184405148	-0.319936
C	 0.0979973928	-1.938762566	-0.1460232531	-0.134268
C	 0.5005334967	-1.0064340473	 1.0350044849	-0.001047
O	-0.8075028578	-1.0295007783	 1.6754502428	-0.345504
C	-1.1226570585	-1.0421643799	 0.261601505	 0.301281
C	-2.5179239857	-1.0677346947	-0.2260157224	 0.021269
O	-3.4912296248	-0.9731340669	 0.4782099948	-0.249136
H	-0.3045324973	 1.6551394107	 0.6704289043	 0.305224
H	 0.086698108	-0.9389266356	-2.1747700007	 0.116697
H	 1.6955262761	-0.930422105	-1.3749371992	 0.114148
H	 0.1060463683	-3.0255432147	-0.1391994104	 0.107785
H	 1.3906797423	-1.0219742195	 1.6631150272	 0.106046
H	-2.5958377084	-1.1641555011	-1.3327754926	 0.083042
