19
gdb 118636	2.61163	0.76091	0.62196	2.8534	73.91	-0.2587	-0.0409	0.2178	1738.6183	0.154844	-460.169824	-460.158992	-460.158048	-460.207894	36.027	
O	-0.1155431332	 1.5265494024	 0.0561907526	-0.418147
C	 0.0588915494	 0.1204923981	 0.0363287179	-0.086904
C	-1.3320265787	-0.505847423	 0.0476306043	-0.193392
C	-1.3101844077	-2.046544301	 0.0476224758	-0.092115
C	-2.7425678983	-2.6076054942	 0.2131007889	-0.305118
C	-2.7749752535	-4.101151781	 0.4674574264	 0.155755
O	-3.4315518126	-4.6241130429	 1.3296334494	-0.235164
C	-0.7123981444	-2.5449921401	-1.2576127884	 0.163966
O	 0.2730828169	-3.2269279745	-1.3625547106	-0.248899
H	 0.7528272154	 1.9396210509	 0.0503191948	 0.290839
H	 0.6156638698	-0.2017722377	-0.8582376556	 0.100249
H	 0.6280145913	-0.2291141783	 0.912830304	 0.096626
H	-1.8669988958	-0.1514617959	 0.9350109132	 0.121503
H	-1.8928077361	-0.138369714	-0.8214278963	 0.114766
H	-0.671671491	-2.4111474466	 0.8603830775	 0.105952
H	-3.2667434	-2.1072450701	 1.0318061551	 0.132985
H	-3.31343736	-2.4144427017	-0.7085685486	 0.128021
H	-2.1381253811	-4.7091076688	-0.2148570018	 0.091866
H	-1.2808156503	-2.2107678817	-2.1603941086	 0.077209
