18
gdb 18793	3.58773	2.35849	2.07569	1.1558	70.79	-0.1925	0.073	0.2655	753.3009	0.155902	-343.900969	-343.894558	-343.893614	-343.931105	25.968	
C	-0.1960637408	 1.5254853994	 0.0073217362	-0.332512
N	 0.1060432937	 0.1112522074	 0.0169284945	-0.059872
C	 0.9879661182	-0.498975895	-0.9943722726	-0.01911
C	 2.4295898033	 0.0696123843	-1.0395280002	-0.188057
N	 2.8164658673	-0.665079841	 0.215683476	-0.152306
C	 2.2432252129	 0.0464611363	 1.4115538169	-0.188057
C	 0.8258082497	-0.5191128151	 1.1382988711	-0.01911
C	 1.5144356626	-1.4582835972	 0.1091952198	-0.009883
H	 0.6833785269	 2.1883819371	 0.0803588634	 0.096573
H	-0.7260626661	 1.7751811353	-0.9185102427	 0.122418
H	-0.8601305684	 1.7585214461	 0.8470361135	 0.122419
H	 0.4944427772	-0.7706184718	-1.9323052771	 0.069338
H	 3.0027322034	-0.3272221783	-1.8848168506	 0.106003
H	 2.5661476198	 1.1557400996	-1.0039563219	 0.099237
H	 2.6825544499	-0.3669989252	 2.3261708256	 0.106003
H	 2.3820420529	 1.1328687505	 1.4174412128	 0.099237
H	 0.1965453642	-0.8076107296	 1.9855715268	 0.069337
H	 1.5285869732	-2.5456033926	 0.1000037784	 0.078342
