17
gdb 8445	4.03063	1.94113	1.65569	3.2636	69.85	-0.2524	0.0341	0.2865	834.5278	0.143726	-363.867087	-363.860373	-363.859428	-363.897544	27.101	
C	-0.1121643085	 1.4941718802	 0.0057069018	-0.492488
C	 0.0792168283	 0.0061844719	 0.0351017627	 0.428262
C	 1.0039005121	-0.8080055255	-0.9071393002	-0.26787
C	 0.652694234	-1.9380248471	 0.1221987522	-0.133419
C	 0.6854220677	-0.8071692285	 1.2084428386	-0.26787
C	-0.8363159884	-2.0088614392	-0.1019376641	 0.455528
N	-1.5873409808	-3.0133180234	-0.2145928376	-0.579755
O	-1.2068553605	-0.6808990502	-0.1582276197	-0.297266
H	 0.846385357	 2.0005709764	 0.1497492552	 0.123648
H	-0.5316466188	 1.8102034	-0.9541070163	 0.134651
H	-0.7955063919	 1.8109081303	 0.7993099148	 0.13465
H	 0.6807051367	-0.9322266857	-1.9429527661	 0.113855
H	 2.0498987594	-0.5007616347	-0.8526535829	 0.107639
H	 1.1908130869	-2.8773851121	 0.2035780024	 0.097667
H	 1.7011375064	-0.4998424214	 1.4640848753	 0.107639
H	 0.0715860236	-0.9306274474	 2.1032944924	 0.113855
H	-2.5559595035	-2.7211379237	-0.3605160784	 0.221274
