12
gdb 24860	2.60522	1.87891	1.2698	3.3143	64.03	-0.2843	-0.115	0.1693	925.5392	0.078412	-468.823977	-468.817005	-468.816061	-468.85588	25.299	
N	 0.1943820118	 1.2993799645	 0.4276576674	-0.456835
C	 0.0630729628	 0.0856681675	 0.1336597631	 0.404682
O	-1.22427883	-0.4541063058	 0.1853976513	-0.202252
C	-1.5078937309	-1.503002336	 0.9998884632	 0.40972
O	-2.6103254983	-1.9624933919	 1.0602476002	-0.295669
C	-0.3805800555	-2.0593246069	 1.8382329445	-0.08357
N	 0.8171829515	-2.2792334695	 1.4646020077	-0.180398
C	 1.2838967004	-1.8708902722	 0.2122570625	 0.071314
N	 1.0276664392	-0.7784696664	-0.3945817587	-0.239187
H	 1.1515484126	 1.5997067337	 0.2424579777	 0.249031
H	-0.6876713745	-2.3791329402	 2.8340354825	 0.168514
H	 2.018288641	-2.5478275567	-0.2205090815	 0.154648
