21
gdb 120734	3.18167	0.73113	0.67963	0.5018	76.05	-0.2636	0.0697	0.3332	1735.7408	0.179333	-461.332959	-461.322112	-461.321168	-461.370395	38.13	
C	 0.5239163232	 1.3194257898	 0.2418821118	-0.415617
C	-0.2656893914	 0.0435789918	-0.0507444767	 0.104051
O	-1.6510671007	 0.3046279525	-0.2557856322	-0.441895
C	 0.2155394016	-0.604291413	-1.3310198511	 0.071974
O	 1.4721287765	-1.281240628	-1.2759854257	-0.273243
C	 0.2916962182	-2.0539239284	-1.5633870023	 0.052005
C	-0.1027253422	-3.1213676405	-0.5748693943	-0.213963
C	 0.8236198249	-4.3317459064	-0.6510587913	-0.068475
O	 0.3516723081	-5.2924907547	 0.28071847	-0.422267
H	 1.5879063656	 1.0911385247	 0.3542067159	 0.137916
H	 0.4024229418	 2.0416651418	-0.5720506472	 0.123555
H	 0.1783343539	 1.7859019561	 1.171691148	 0.105882
H	-0.1221143653	-0.6588999286	 0.782417392	 0.072633
H	-1.9590794306	 0.8560333395	 0.4701881181	 0.284507
H	 0.0839437855	 0.0359610864	-2.2065323856	 0.089913
H	 0.2398029254	-2.3716501324	-2.6078392681	 0.088492
H	-0.0881671699	-2.7363591702	 0.4475235912	 0.114797
H	-1.1288437114	-3.4450739723	-0.787067344	 0.116569
H	 0.8250984223	-4.7365113112	-1.676829704	 0.083337
H	 1.8523361174	-4.0158070934	-0.4210957144	 0.103618
H	 0.9541022471	-6.0417631835	 0.27042897	 0.28621
