21
gdb 87191	3.39174	0.98456	0.86898	3.9411	79.82	-0.2338	0.0248	0.2585	1408.5008	0.181036	-420.428211	-420.417683	-420.416739	-420.463965	38.23	
C	 0.0891802641	 1.5142222251	-0.1601551591	-0.40547
C	 0.240975337	 0.0145370041	-0.0646911685	-0.03585
N	 1.6016446058	-0.5204104672	 0.0914430279	-0.365642
C	 0.6259624969	-0.7330617732	 1.1720844916	 0.335797
C	 0.9332909206	-0.0349466891	 2.4823730192	-0.455077
C	 0.059175785	-2.1489504846	 1.3334417745	-0.391242
C	 1.1790096601	-3.1678418703	 1.531245348	 0.416947
N	 1.3334657833	-3.6552683792	 2.7948459264	-0.511365
O	 1.8996680166	-3.5058667024	 0.6084929079	-0.365666
H	 0.7914219071	 2.0317130775	 0.4964822727	 0.125123
H	 0.2878244006	 1.8489524851	-1.1842075482	 0.12214
H	-0.9285460031	 1.8242278859	 0.1023204025	 0.110846
H	-0.4267129261	-0.5323649097	-0.7317617774	 0.075117
H	 1.742535741	-1.3883570263	-0.4214871664	 0.245578
H	 1.4265794072	 0.9227295844	 2.3122760073	 0.133121
H	 0.019075399	 0.1401378005	 3.0620118432	 0.106996
H	 1.608674918	-0.6459502502	 3.0925284807	 0.114379
H	-0.6642567871	-2.1730627672	 2.1561008537	 0.094894
H	-0.4625902802	-2.4485503142	 0.4206742614	 0.126721
H	 0.7647794481	-3.3494454489	 3.5637970307	 0.2603
H	 2.0992819462	-4.2841499	 2.9754442718	 0.262352
