19
gdb 64103	3.26995	1.22327	1.09757	4.9331	71.57	-0.2556	0.0168	0.2724	1163.0768	0.158623	-460.211432	-460.202526	-460.201582	-460.244894	33.783	
C	-0.1473266027	 1.5566384559	 0.0459870375	-0.434686
C	-0.0078797692	 0.0328990121	-0.0056656201	 0.311202
O	-1.2931807915	-0.5880002476	-0.0510362839	-0.460178
C	 0.721595774	-0.4423891685	-1.2639147814	-0.227869
C	 0.8322644386	-1.9680925292	-1.249185421	-0.341433
C	 1.2713007761	-2.5788798042	 0.0718750127	 0.412655
O	 1.7110191913	-3.6919462781	 0.1620847296	-0.325642
O	 1.0887670208	-1.8582557691	 1.2107442503	-0.232431
C	 0.78684003	-0.460338066	 1.2073010148	-0.077804
H	 0.8249811085	 2.056209127	-0.0059921757	 0.122033
H	-0.7584210342	 1.8957227345	-0.7945877236	 0.133697
H	-0.6391966214	 1.8744970905	 0.9730560777	 0.110647
H	-1.7632114004	-0.377490288	 0.7629069562	 0.28263
H	 0.1813689721	-0.1096248335	-2.1554836581	 0.111944
H	 1.7144268449	 0.0205814169	-1.2920335606	 0.105724
H	-0.1517226391	-2.4028343643	-1.4544348814	 0.158979
H	 1.511896358	-2.3426954251	-2.01744262	 0.131477
H	 1.7286553996	 0.0985036439	 1.2843126318	 0.111512
H	 0.2224515647	-0.2830389072	 2.1301746152	 0.107542
