20
gdb 8087	3.45176	2.111	1.70288	1.588	73.67	-0.2321	0.0838	0.3159	861.0143	0.17917	-349.012508	-349.005392	-349.004448	-349.043184	29.167	
C	-0.0862427616	 1.5408174241	 0.0127579409	-0.467906
C	 0.0773908907	 0.0391321751	-0.0263289483	 0.414074
C	 0.7156258648	-0.6349884085	-1.2672562767	-0.294074
C	-0.4014471603	-1.6693421869	-1.0237138444	 0.101936
C	-0.0093544093	-2.7282449858	 0.0073217813	-0.197565
C	 0.9072966782	-2.0874269692	 1.0775070326	-0.219797
C	 0.6003835943	-0.5822745015	 1.2787236069	-0.222148
O	-1.1796945085	-0.6524698202	-0.331249424	-0.328363
H	 0.885848226	 2.0316949007	 0.1294140713	 0.11514
H	-0.5508598104	 1.8987748014	-0.9102183929	 0.119761
H	-0.7211513178	 1.8389955582	 0.8541136513	 0.122877
H	 0.5397209424	-0.0509480235	-2.1725743028	 0.101588
H	 1.7588151538	-0.9551579487	-1.2222291649	 0.094573
H	-0.9373971296	-2.079656732	-1.8842391769	 0.06953
H	-0.9349867956	-3.1077092577	 0.4537420702	 0.107832
H	 0.4946437635	-3.5774141786	-0.4692663222	 0.089809
H	 0.8331769702	-2.6257025065	 2.0270278874	 0.096879
H	 1.9490457647	-2.1923221854	 0.7557796597	 0.101624
H	 1.4961668243	-0.0582340105	 1.6328260768	 0.088656
H	-0.1804883998	-0.4387504545	 2.0339654847	 0.105574
