19
gdb 106355	3.38508	1.24326	1.11005	3.1661	75.2	-0.2304	-0.0165	0.2139	1159.5091	0.158946	-423.029545	-423.021362	-423.020418	-423.062374	31.726	
C	-0.2060345139	 1.5270711482	-0.0439225699	-0.388568
C	 0.0654345862	 0.0185513309	 0.0029800051	-0.289867
C	 0.8056632555	-0.4992118537	-1.2034753517	 0.428491
C	 0.8976368012	-2.0085367821	-1.5582364422	-0.297834
C	 0.956371023	-1.382589031	-2.9688628911	-0.035186
O	 0.1008570143	-0.2982767106	-2.4912415687	-0.333329
C	 2.3203505364	-0.6727527128	-2.9334717583	 0.446342
O	 3.2121750502	-0.6725082053	-3.7334389314	-0.322058
C	 2.2079984822	 0.0427943554	-1.5670789607	-0.388721
H	 0.7221963977	 2.1064663235	-0.0279340222	 0.120351
H	-0.7534141316	 1.7912007056	-0.9530112731	 0.142104
H	-0.8049283238	 1.8365639554	 0.817063182	 0.117562
H	 0.6474644151	-0.2381700458	 0.8974625629	 0.10481
H	-0.8835033409	-0.5250037916	 0.0776721675	 0.107896
H	 1.746090128	-2.5940690571	-1.1935892018	 0.108546
H	-0.0493284298	-2.5235363661	-1.3886258082	 0.118744
H	 0.6331305659	-1.869651665	-3.8860765843	 0.098966
H	 2.2195701983	 1.1284198618	-1.6858151012	 0.137497
H	 3.0123915461	-0.2509588396	-0.8865451128	 0.124252
