16
gdb 125030	2.29781	1.87777	1.04079	5.0031	78.58	-0.2112	-0.0533	0.1578	1092.5018	0.124305	-434.060101	-434.051627	-434.050683	-434.093236	31.77	
C	-0.0042040175	 1.5536316492	 0.0256182861	-0.525369
C	-0.0154914798	 0.0516553559	 0.0121497364	 0.153988
C	-1.1633058221	-0.6772857263	 0.0299774847	 0.216057
N	-2.4286638259	-0.1311579623	 0.115005238	-0.589303
C	-1.0570462246	-2.120501334	 0.0203647493	 0.001463
N	 0.0393241323	-2.7862837373	-0.0111212939	-0.071608
O	 1.2105318158	-2.0554262538	-0.0303539083	-0.292551
C	 1.2495076387	-0.6569935895	-0.0093124797	 0.350368
N	 2.3841114955	-0.0808421212	-0.0173955429	-0.543722
H	 1.0174445053	 1.9143655523	-0.0880695246	 0.177721
H	-0.6122621801	 1.9669015023	-0.7906542577	 0.11752
H	-0.4090433988	 1.9482925182	 0.966144949	 0.134441
H	-2.5141631324	 0.8434078159	-0.1296991376	 0.261739
H	-3.1886154163	-0.6958485879	-0.2322620733	 0.258812
H	-1.9526731277	-2.7368368593	 0.0437658707	 0.127285
H	 3.1364532278	-0.7689159321	-0.0386274061	 0.223159
