20
gdb 112486	3.76994	0.96969	0.81818	3.4437	87.87	-0.2295	-0.0287	0.2008	1471.1668	0.170317	-403.174081	-403.16475	-403.163806	-403.208546	34.002	
C	 0.0979137692	 1.5491652875	 0.1018291697	-0.384407
C	-0.0537607118	 0.0334553775	-0.0448961506	-0.180987
C	 0.6902099821	-0.5216058343	-1.2654883056	 0.065124
O	 2.0940524535	-0.2573434297	-1.1541660271	-0.248981
C	 2.8106128431	-1.4283983902	-1.217835202	 0.394822
C	 1.8385337839	-2.5292687812	-1.3872024933	-0.204812
C	 0.6109575488	-2.0130235138	-1.422889383	-0.093989
N	 4.0689412913	-1.378557567	-1.1292351513	-0.291015
C	 4.8560516838	-2.5878863996	-1.1962554474	-0.32495
H	 1.1521477061	 1.8226130042	 0.1915904077	 0.146058
H	-0.313729037	 2.0736905974	-0.7676052454	 0.114104
H	-0.4284742994	 1.9095299883	 0.990339218	 0.113869
H	 0.3245534372	-0.4775700531	 0.8479671409	 0.109157
H	-1.1131255821	-0.2360211033	-0.1433983345	 0.097087
H	 0.3243813421	-0.008942179	-2.1695155853	 0.097923
H	 2.1122897078	-3.5704272688	-1.4647115474	 0.124052
H	-0.3255227055	-2.5442752674	-1.5359471071	 0.119792
H	 5.445252966	-2.6903497985	-0.276752994	 0.126123
H	 4.2881243459	-3.5195644992	-1.33663695	 0.094395
H	 5.576039885	-2.5078239199	-2.0197464221	 0.126633
