23
gdb 102161	1.57157	1.25529	0.85636	1.9332	87.59	-0.2523	0.0585	0.3108	1489.3814	0.202435	-388.258668	-388.247331	-388.246386	-388.295175	41.441	
C	 0.6153706816	-0.3801519107	 1.4932100067	-0.395696
C	-0.3018135717	-0.0095060669	 0.3162061146	 0.022114
C	-0.7996386436	 1.4375735299	 0.4532427282	-0.400292
C	 0.3259605327	-0.274514334	-1.0754023791	 0.041458
C	 1.7025651752	 0.3670290799	-1.2635285644	-0.102649
O	 2.0367203105	 0.2797382333	-2.644197304	-0.423784
C	 0.4130465549	-1.7830135894	-1.423984487	-0.37806
C	-0.8840927501	-2.4416558279	-1.5050893615	 0.303223
C	-1.963181387	-2.9683686884	-1.5735188731	-0.450126
H	 0.9738927543	-1.4124733766	 1.4317456135	 0.114248
H	 1.4909183287	 0.2767122387	 1.5475247542	 0.111561
H	 0.0761068929	-0.2794802295	 2.4406027699	 0.113642
H	-1.1844324211	-0.6589375477	 0.3696659294	 0.093358
H	 0.0241897355	 2.159929173	 0.4324100934	 0.111506
H	-1.4919196412	 1.6974506714	-0.3541981794	 0.115198
H	-1.3269019649	 1.5759924612	 1.4029830764	 0.11049
H	-0.3312839352	 0.1844628637	-1.8245651494	 0.091549
H	 1.6777256075	 1.4164243018	-0.9352542017	 0.088943
H	 2.4514542102	-0.1538597554	-0.6468675398	 0.08636
H	 2.9357348345	 0.6005913606	-2.7582302247	 0.287494
H	 0.9331481467	-1.8752572696	-2.3831557488	 0.148256
H	 1.0392954504	-2.2996678066	-0.684373447	 0.120593
H	-2.9101129407	-3.4436016609	-1.6400784464	 0.190611
