17
gdb 57937	3.38616	0.97794	0.80223	5.0175	66.73	-0.2595	-0.0036	0.2558	1395.3289	0.133651	-492.335366	-492.325228	-492.324284	-492.371454	35.489	
C	 0.2397530348	 0.8240263814	-0.055221536	-0.390365
C	-0.1157843147	-0.2961791582	 0.9331856497	 0.088267
O	 0.0768455598	 0.1345338898	 2.2549739305	-0.439765
C	-1.5476781435	-0.7677502632	 0.7511504309	 0.396
N	-2.392769741	-0.637093736	 1.6724342261	-0.533056
O	-1.7032299837	-1.3185994478	-0.5131245671	-0.279801
C	-2.9077258183	-1.8248270904	-0.9520834371	 0.512114
N	-2.7449834744	-2.2765194093	-2.2178808932	-0.553229
O	-3.9367910354	-1.8517582802	-0.3223302968	-0.378547
H	 1.2674084504	 1.146415258	 0.1287515666	 0.130948
H	 0.1559235229	 0.4843740602	-1.0910165477	 0.111175
H	-0.4218724654	 1.6821562665	 0.0956195845	 0.126396
H	 0.535143068	-1.1620228243	 0.7275860183	 0.089237
H	-0.7943945184	 0.0719733799	 2.6795903656	 0.295614
H	-3.3130663051	-0.9920156152	 1.421242694	 0.267125
H	-1.8370612378	-2.2943521522	-2.6466089562	 0.276912
H	-3.5185185681	-2.7460159092	-2.6537924821	 0.280976
