19
gdb 97033	2.78229	1.38703	0.95253	1.2073	80.71	-0.2385	-0.0011	0.2375	1232.3563	0.159687	-419.263367	-419.254101	-419.253156	-419.297983	33.172	
C	 0.0405418731	 1.3672064912	 0.3718545008	-0.333551
N	 0.2077430762	-0.0508734618	 0.1211686676	-0.310228
C	 0.6246242958	-0.5689801627	-0.953038062	 0.380738
C	 0.7279096771	-2.0830231052	-1.1033527514	-0.285603
C	 0.9420528156	-2.3280786601	-2.6004528039	-0.344316
C	 1.3098063128	-0.9629839059	-3.1592211291	 0.411412
O	 1.7291279339	-0.708748212	-4.2642347145	-0.369086
N	 1.0708212232	-0.0092995767	-2.1697837323	-0.148686
C	 1.3690546767	 1.3868378133	-2.4544523928	-0.358567
H	-0.2217200572	 1.9716023487	-0.5033930536	 0.109818
H	-0.7579260216	 1.4911659439	 1.1103004387	 0.125832
H	 0.9487967354	 1.7918185878	 0.8196211136	 0.124438
H	 1.581701374	-2.4323788292	-0.5141260983	 0.134982
H	-0.1635406629	-2.5568097129	-0.6917756056	 0.134991
H	 1.7294916363	-3.0455053202	-2.8389306259	 0.138315
H	 0.0326095184	-2.6686951639	-3.106448673	 0.141442
H	 1.980747731	 1.3990312783	-3.3581595688	 0.16568
H	 0.4613680103	 1.9674349683	-2.6424116987	 0.141192
H	 1.920473902	 1.837551819	-1.6283387209	 0.141197
