17
gdb 96918	5.04362	1.13212	1.0942	1.8273	78.18	-0.2398	-0.0118	0.228	1151.3346	0.135096	-417.83197	-417.824226	-417.823282	-417.864417	29.588	
C	-0.0560768638	 1.5259307973	 0.2211442328	-0.341907
N	 0.0114567521	 0.0711055628	 0.2406522493	-0.321764
C	-0.990729851	-0.6010214771	-0.062723988	 0.387959
O	-2.3060878976	-0.1581197434	-0.4625131603	-0.344236
C	-2.5374172877	-1.5583725409	-0.8656972473	 0.331983
C	-3.1881698459	-2.9826702069	-0.7895658645	-0.239623
N	-1.6876965663	-3.237685549	-1.1374119832	-0.162447
C	-1.830053877	-2.0729889813	-2.1238244665	-0.202845
C	-1.4310520996	-2.0778822027	-0.0404512425	-0.1175
H	 0.7635727126	 1.9066484517	-0.3967305759	 0.134698
H	-1.0060957786	 1.9206216156	-0.1543621479	 0.134747
H	 0.1095998841	 1.8992119537	 1.2374831903	 0.136328
H	-3.4870219902	-3.3545872354	 0.1906536647	 0.128204
H	-3.8564099025	-3.3073153844	-1.5900835183	 0.124096
H	-2.4294385576	-2.3173994707	-3.0021833623	 0.109712
H	-0.8737870921	-1.617921226	-2.3886028292	 0.128102
H	-1.6115581291	-2.4529319933	 0.9663545988	 0.114493
