19
gdb 102368	1.80575	1.54624	1.06431	2.6374	72.09	-0.2482	-0.0488	0.1994	1207.7048	0.154728	-460.170627	-460.159833	-460.158888	-460.207061	37.097	
C	-0.0986446099	 1.6621260344	 0.1458692982	-0.414079
C	 0.0009675669	 0.139259425	 0.0034096119	-0.208708
C	 0.7228464509	-0.345006057	-1.266593482	 0.030877
C	 0.7434569237	-1.9010826187	-1.2680784687	-0.103725
O	 1.4103019854	-2.3381601165	-2.4414822025	-0.43225
C	 0.0020200417	 0.0647353348	-2.5519639816	 0.155416
O	-1.1689178613	 0.3404510347	-2.6025811776	-0.260601
C	 2.1876034762	 0.0924162869	-1.32017742	 0.155436
O	 2.831858854	 0.3905673349	-0.3477023369	-0.260608
H	 0.8915962124	 2.1223876304	 0.1901869547	 0.133794
H	-0.6581092241	 2.1027064949	-0.68314518	 0.133817
H	-0.6234881916	 1.9160804617	 1.0714928234	 0.116933
H	 0.5333650461	-0.2718093807	 0.866837533	 0.112887
H	-1.0052718369	-0.2913243966	-0.0002976081	 0.11288
H	 1.2583599986	-2.2385582498	-0.3568812123	 0.115149
H	-0.2959718467	-2.2583604889	-1.2328303535	 0.115135
H	 1.4258584225	-3.2996985592	-2.4466970504	 0.299332
H	 0.62920158	 0.0626599137	-3.4683653137	 0.099172
H	 2.646638212	 0.0890688363	-2.3313317939	 0.099144
