20
gdb 96673	5.14159	0.58502	0.53218	0.8138	89.55	-0.2414	0.0337	0.2751	2113.4907	0.166679	-403.130449	-403.118797	-403.117853	-403.170453	38.227	
C	 0.0816243802	 1.4513462009	-0.1046884302	-0.327098
N	 0.1133569245	 0.0053317486	-0.0659716466	-0.282727
C	 0.5038955123	-0.6038687725	 0.9728744541	 0.418671
C	 0.9838966411	-0.04172494	 2.2925305426	-0.488074
O	 0.5329737327	-1.9581681091	 1.0071599835	-0.24966
C	 0.0992393181	-2.623936543	-0.1909578444	-0.236819
C	 0.1913005721	-4.0605708761	 0.011235423	 0.016634
C	 0.2544981474	-5.2548334647	 0.1433186264	 0.137401
C	 0.3334270351	-6.6983218487	 0.310011377	-0.499041
H	 0.7092656202	 1.8077424086	-0.9304174676	 0.125079
H	-0.9395161417	 1.7879460932	-0.3209086001	 0.125072
H	 0.4150232777	 1.9543799975	 0.8134130921	 0.100278
H	 0.2081749196	 0.5729602221	 2.7582202177	 0.143826
H	 1.2420624298	-0.8557893264	 2.969327355	 0.145521
H	 1.8644800175	 0.5908775771	 2.1480614338	 0.143847
H	-0.9258598183	-2.3137931414	-0.4248820008	 0.138811
H	 0.7201339738	-2.2937281859	-1.0319040396	 0.138806
H	-0.6489691967	-7.1688761399	 0.1932124165	 0.148671
H	 1.0094307673	-7.1494654228	-0.42460375	 0.14868
H	 0.7077498873	-6.9569881075	 1.3066248074	 0.152123
