18
gdb 39803	2.99642	1.66072	1.607	1.9888	75.14	-0.2447	0.0178	0.2625	932.4506	0.150272	-401.92391	-401.917072	-401.916128	-401.954833	28.1	
C	-0.0175788009	 1.4571264166	 0.0118745208	-0.356873
C	 1.3205742635	 0.7384504597	-0.0098970499	-0.349649
C	 0.0489511293	-0.0359245582	-0.0017417308	 0.427794
C	-0.5423444797	-0.9687712117	 1.0539122595	 0.0185
C	-1.6624954077	-1.2758375582	 0.027232246	-0.244094
C	-0.563319758	-0.9897009465	-1.0446089523	-0.096746
N	 0.2987363375	-2.1774332648	-1.1587671602	-0.258727
C	 0.6578492399	-2.6352462248	-0.0317370192	 0.114864
O	 0.3139863362	-2.1306474355	 1.1804338886	-0.240616
H	-0.314125694	 1.9567465696	 0.9294598832	 0.113401
H	-0.3386302224	 1.9638645739	-0.8930180739	 0.117513
H	 1.8971968435	 0.7598725826	-0.9288609731	 0.124418
H	 1.9206846013	 0.7520902739	 0.8944514156	 0.118444
H	-0.7605058864	-0.6326680685	 2.0671949894	 0.087038
H	-2.1046022307	-2.2736917543	 0.0402635101	 0.10883
H	-2.4330808747	-0.5038210644	 0.048487089	 0.113535
H	-0.842200013	-0.6187501332	-2.0308585891	 0.074519
H	 1.2943185763	-3.5107111062	 0.0681163364	 0.127847
