21
gdb 99290	5.40194	0.63493	0.59118	2.3009	81.74	-0.2435	0.0314	0.2749	1919.8754	0.182275	-420.41629	-420.406006	-420.405062	-420.453905	36.04	
C	 0.0899436093	 1.4488062525	-0.2399328935	-0.367138
C	-0.1000722979	-0.0673328599	-0.1803044464	-0.298324
C	-1.5648498475	-0.4557423947	 0.0150371274	 0.423264
O	-2.3529282407	 0.2448223197	 0.6258568197	-0.374153
N	-1.916198697	-1.6610572871	-0.5281276981	-0.32358
C	-3.2336403754	-2.2487921838	-0.3521625834	-0.185197
C	-3.1593928482	-3.6576584028	 0.185972125	 0.024162
C	-4.222901091	-4.6374259056	-0.1322709164	-0.242197
N	-2.8787874944	-4.7897924707	-0.7209642892	-0.322136
H	 1.1522888201	 1.7074629915	-0.2531135631	 0.108552
H	-0.3749116373	 1.8693792403	-1.1367460653	 0.121286
H	-0.3802017736	 1.9176064736	 0.6267220119	 0.146085
H	 0.307515763	-0.5525535072	-1.0750735761	 0.097761
H	 0.4547766996	-0.4796661544	 0.6730997892	 0.130224
H	-1.2109478035	-2.2052916153	-0.9982695167	 0.245474
H	-3.7676766813	-1.588654651	 0.3367623126	 0.154883
H	-3.7880674531	-2.2505302765	-1.3031140683	 0.095574
H	-2.6489811461	-3.7446445472	 1.1430416536	 0.101775
H	-4.4962587706	-5.3980794026	 0.5927061004	 0.125261
H	-5.0377401155	-4.3128602423	-0.7749250346	 0.114306
H	-2.9042301688	-4.4683028365	-1.6873220185	 0.224118
