14
gdb 29233	3.17991	1.39823	0.97119	2.912	70.79	-0.1978	-0.033	0.1649	1115.3065	0.101088	-473.845638	-473.837923	-473.836978	-473.877684	29.805	
O	-0.0925377265	 1.3691548102	 0.0107372816	-0.427843
C	 0.0129602814	 0.0108669984	 0.0030258307	 0.194149
C	 1.1631954333	-0.6860329209	-0.0076824528	-0.054192
O	 1.2231252373	-2.0418526721	-0.0151032726	-0.242091
C	 0.0647711154	-2.8220574363	-0.0120150681	 0.395042
N	 0.1461629774	-4.0916055545	-0.0190849381	-0.555586
C	-1.1822730986	-2.0947405198	-0.0005329695	-0.327217
C	-1.2268848772	-0.7413974682	 0.0067688531	 0.368186
O	-2.3517844291	 0.0000653067	 0.0175607324	-0.413142
H	 0.7897230079	 1.7558920371	 0.0071827373	 0.302041
H	 2.148317617	-0.2344035616	-0.0114076084	 0.122707
H	 1.121813157	-4.3877245453	-0.0266374248	 0.216184
H	-2.0835473282	-2.6961590777	 0.0019095712	 0.112885
H	-3.1157316971	-0.5887488959	 0.0192205779	 0.308877
