17
gdb 47614	2.32864	2.02919	1.22054	3.7332	67.34	-0.2672	0.0045	0.2717	1000.0395	0.13789	-458.987257	-458.980003	-458.979059	-459.019482	27.78	
O	-0.2888429362	 0.544159316	 1.1234999686	-0.33038
C	-0.1753770837	 1.4021617955	 0.2934317319	 0.428758
O	-1.275938936	 1.8945289226	-0.3331565823	-0.223633
C	-1.079172748	 2.9883714686	-1.2414366557	 0.009867
O	-0.2788910138	 3.9782155933	-0.6895474961	-0.23502
C	 1.0501933996	 3.507396063	-0.5208045871	 0.120488
C	 1.7087464921	 3.8811138143	 0.8251959274	-0.243114
C	 2.0989238945	 2.3862050876	 1.0281076113	-0.235252
C	 1.1503603095	 2.0029866417	-0.1408589171	-0.214067
H	-0.6600765619	 2.5989813736	-2.1824548887	 0.102283
H	-2.070479106	 3.4073103886	-1.416389369	 0.138404
H	 1.6524296891	 3.7711003695	-1.3991954165	 0.082424
H	 2.5178830562	 4.6121698871	 0.7899344145	 0.109361
H	 0.9516751594	 4.2186641463	 1.5364575357	 0.127682
H	 3.1456072019	 2.179808597	 0.7973617635	 0.111389
H	 1.8521492842	 1.9325624396	 1.9881287905	 0.136155
H	 1.5689352192	 1.3437841359	-0.9074443408	 0.114655
