21
gdb 95291	2.0601	1.89163	1.40957	0.9165	77.06	-0.2448	0.0715	0.3163	1051.5398	0.182788	-424.226488	-424.217897	-424.216953	-424.259228	33.399	
C	-0.3753820889	 1.4365471655	 0.0980303916	-0.414743
C	 0.1095111707	-0.0064193783	-0.0210498435	-0.026639
C	 1.2007503671	-0.2249777151	-1.0832086496	-0.111831
O	 1.8679723541	-1.433169819	-0.7158619009	-0.264975
C	 1.9061691411	-1.4893389576	 0.6923382547	 0.021138
C	 2.8743051574	-0.5126451536	 1.3890337981	-0.113685
O	 1.7892945992	 0.3600537316	 1.7716042525	-0.332986
C	 0.7865440351	-0.5621740313	 1.2446564975	 0.398208
C	-0.1416546559	-1.0536833486	 2.3352900375	-0.468711
H	 0.4393562036	 2.0820728612	 0.4361917955	 0.138591
H	-0.7400074824	 1.8096845249	-0.8645139899	 0.112864
H	-1.1964974237	 1.5230736769	 0.816548707	 0.116683
H	-0.7337828472	-0.668127836	-0.2567419547	 0.076006
H	 0.8108217678	-0.3565986347	-2.0956354237	 0.1094
H	 1.9016896659	 0.6237379691	-1.0898753425	 0.098634
H	 1.945957127	-2.5363576866	 0.9970417746	 0.085661
H	 3.3976861274	-0.9180829443	 2.2641705665	 0.099715
H	 3.5979063388	-0.024421122	 0.7261410213	 0.106488
H	-0.7492188011	-0.2296054426	 2.7238762236	 0.129177
H	-0.8165025255	-1.8261157453	 1.9519834978	 0.11967
H	 0.4277436796	-1.4710259445	 3.1708121367	 0.121337
