18
gdb 52901	2.3222	1.05371	0.8444	3.4455	83.02	-0.2364	0.0233	0.2598	1441.1145	0.145556	-401.934688	-401.924665	-401.923721	-401.972153	34.786	
C	-0.4664223848	 1.6506477676	-0.0994215457	-0.499667
C	-0.2776224959	 0.2074399898	-0.0919387626	 0.033357
C	-0.1094871319	-0.985523299	-0.0765957348	 0.090242
C	 0.0919776397	-2.4131517472	-0.0830150171	 0.169149
C	-0.1157762389	-3.2006060714	 1.1951571803	-0.267188
C	-1.121865381	-3.3215227274	 0.0915155252	-0.308908
N	 1.1172983556	-2.8962680469	-0.9744379827	-0.344611
C	 2.432453996	-3.0403288706	-0.6288238662	 0.14513
O	 2.8917716091	-2.9268539995	 0.4840741837	-0.311039
H	 0.3505538573	 2.1497012937	-0.6321937732	 0.151726
H	-1.4042411415	 1.933304246	-0.5906682699	 0.14582
H	-0.4887549425	 2.0537437007	 0.9191312944	 0.15139
H	 0.5700921869	-4.0188325218	 1.3691432002	 0.144888
H	-0.3766309059	-2.6270796866	 2.0755946516	 0.133191
H	-2.0831216003	-2.8352465235	 0.2044538691	 0.127965
H	-1.1289878626	-4.2328440611	-0.4958363298	 0.119943
H	 0.9032137868	-2.8928508539	-1.960938202	 0.246811
H	 3.0452524838	-3.3142243187	-1.5127073205	 0.0718
