14
gdb 83085	2.6701	1.78679	1.59406	1.5564	61.	-0.2384	-0.0505	0.1878	870.0119	0.101753	-473.805892	-473.798872	-473.797927	-473.837198	26.901	
O	 0.1593191751	 1.4149450973	-0.045324596	-0.440257
C	 0.0333526368	 0.0335974443	 0.0325543194	 0.145315
C	 0.2131021515	-0.6837307367	 1.4222757403	-0.06949
O	-0.4867632221	 0.0811762492	 2.4395765057	-0.223395
C	-1.7194485654	 0.4492032011	 2.0298995985	 0.106329
N	-2.2594595476	 0.1721116278	 0.912619062	-0.27083
C	-1.393176104	-0.6187363366	-0.004785336	-0.187016
C	-0.762017222	-1.7309395176	 0.8360456305	 0.441715
O	-0.865519448	-2.918971413	 0.9085103287	-0.299536
H	-0.6669577635	 1.8129271349	 0.255602836	 0.30086
H	 0.6998501817	-0.4210631782	-0.7047881681	 0.120426
H	 1.1876863059	-0.9484635998	 1.8245174628	 0.117814
H	-2.2317477996	 1.0426679838	 2.7829928345	 0.152361
H	-1.9049648087	-0.8252524266	-0.9420642582	 0.105704
