23
gdb 121622	4.08635	0.61918	0.55863	2.9725	83.42	-0.2596	-0.0229	0.2366	2051.7564	0.202502	-425.460124	-425.448853	-425.447909	-425.497903	39.852	
C	 0.0772683541	 1.534404142	-0.0907964891	-0.381059
C	-0.0503497152	 0.0322134683	 0.1753431802	-0.171353
C	-1.4790528956	-0.4871417678	-0.0148736486	-0.157726
C	-1.6048428188	-1.9888862634	 0.2495581503	-0.308761
C	-3.0189903972	-2.5196062079	 0.1294072047	 0.352643
O	-3.9900872156	-1.7910868923	 0.0931349121	-0.328961
C	-3.2335914146	-4.0357088677	 0.0380915329	 0.066621
C	-2.6213372493	-4.7889523599	 1.2271047981	-0.402573
O	-4.6039574877	-4.3142972816	-0.059031974	-0.439281
H	 1.1059581676	 1.8790172396	 0.0526655718	 0.112866
H	-0.2170618249	 1.7807479793	-1.1169070888	 0.116698
H	-0.5653237905	 2.1109331129	 0.5835672907	 0.117666
H	 0.6303162076	-0.5172879969	-0.4888792812	 0.09417
H	 0.2832003863	-0.1885549821	 1.1983196656	 0.094687
H	-2.1663390465	 0.0496033179	 0.6479403436	 0.117201
H	-1.8205334871	-0.2708731288	-1.0346320674	 0.106105
H	-0.9529506225	-2.5690951473	-0.4172825193	 0.119739
H	-1.2558277584	-2.2272382726	 1.2652991632	 0.134398
H	-2.7151556621	-4.3630259663	-0.8820893024	 0.086657
H	-3.0420502062	-4.4251543612	 2.1695338524	 0.126714
H	-2.863570272	-5.8504578107	 1.1350107772	 0.137323
H	-1.5328210786	-4.6850790091	 1.2571100486	 0.114861
H	-5.0370039628	-3.4447736643	-0.0748897609	 0.291365
