21
gdb 39114	3.79571	1.0559	0.99019	1.9059	82.51	-0.2278	0.073	0.3008	1288.0786	0.18341	-387.031467	-387.023339	-387.022394	-387.064734	31.705	
C	-0.0154953918	 1.4861377412	 0.0737801945	-0.352401
C	 1.302934638	 0.7981344712	-0.0854227178	 0.04845
O	 1.7844109791	 0.3410885126	 1.179871298	-0.287432
C	 0.6352558511	-0.5391777213	 1.3102736371	-0.138396
C	 0.0375879332	-0.0339710276	-0.0064758597	 0.293953
C	-0.7202767859	-0.8359643715	-1.013886314	-0.0865
C	-0.2685156975	-2.2778038917	-1.3993464279	-0.236018
C	-1.765422447	-2.6801570718	-1.4828902565	-0.210586
C	-2.1096164708	-1.4333230608	-0.6263776089	-0.228066
H	-0.2398812183	 1.9928520314	 1.0090252348	 0.112044
H	-0.4098869255	 1.9652806283	-0.8177360841	 0.111025
H	 2.0276390137	 0.9751681139	-0.8723914918	 0.102518
H	 0.9570251597	-1.5864131965	 1.2797786235	 0.10666
H	 0.0696870422	-0.3546473331	 2.231803692	 0.101529
H	-0.8302276715	-0.2408221121	-1.9278180536	 0.067447
H	 0.3495819177	-2.3913541723	-2.2932471771	 0.097212
H	 0.2332312551	-2.7806535679	-0.5671864508	 0.101622
H	-2.1522299295	-2.589136638	-2.5021047838	 0.102384
H	-2.0498144659	-3.6593908835	-1.0915540543	 0.097318
H	-2.1489135022	-1.6787160644	 0.4400817579	 0.099994
H	-3.001639014	-0.8563342061	-0.8817969876	 0.097242
