19
gdb 39520	3.00672	1.85439	1.50098	1.4169	79.46	-0.2309	0.0011	0.2321	932.0786	0.163043	-385.863283	-385.856689	-385.855745	-385.893864	27.848	
C	-0.0904969739	 1.4836979865	 0.1123767124	-0.271538
C	 1.3634176962	 1.9075353223	 0.1136323363	-0.129562
C	 2.1694302099	 0.9378624681	-0.3368895341	 0.151695
C	 3.5156606987	 0.6228024768	 0.230288565	-0.122495
O	 3.3114814455	-0.4582521526	 1.1725943072	-0.272017
C	 1.9685933098	-0.629919101	 1.64795245	-0.093354
C	 1.001460632	-0.9511889676	 0.4979141978	-0.053799
C	 0.011690618	-0.0043279827	-0.215081417	-0.065942
C	 1.3791782326	-0.2599299138	-0.7842584408	-0.108109
H	-0.5378153776	 1.6825746662	 1.0953389594	 0.111307
H	-0.7171543467	 2.0092638651	-0.622250079	 0.108545
H	 1.7093592829	 2.7912408611	 0.6408857599	 0.092931
H	 4.243133387	 0.2499082583	-0.4996747373	 0.103847
H	 3.9490719184	 1.493121783	 0.7431867897	 0.092243
H	 2.0359874344	-1.4815483713	 2.3299855025	 0.107451
H	 1.6426591376	 0.235986216	 2.2385073767	 0.09403
H	 0.7089651503	-1.9950711774	 0.42458071	 0.088299
H	-0.8555176507	-0.5001880813	-0.6370744531	 0.082944
H	 1.6043347155	-0.7912709457	-1.7026326153	 0.083522
