20
gdb 5823	2.72263	1.66166	1.36137	1.3056	76.24	-0.2622	0.0313	0.2935	1022.8977	0.172966	-348.976539	-348.966519	-348.965575	-349.01022	37.652	
C	-0.0165295827	 1.5452783452	 0.0017540062	-0.413673
C	-0.008965475	 0.0078729529	 0.0586373234	 0.252846
C	 0.7054777209	-0.4634920447	 1.3361206715	-0.425354
C	-1.4531057161	-0.5194943711	 0.0352016346	-0.41555
C	 0.7477364287	-0.5115250237	-1.2059292827	-0.040789
O	 2.0743549443	 0.0079847604	-1.2958693458	-0.430976
C	 0.7596574652	-1.9742723852	-1.3089029832	 0.292764
C	 0.8189306639	-3.1738410121	-1.3750142959	-0.447771
H	 1.0010146198	 1.9387205445	-0.053238576	 0.129489
H	-0.5656766712	 1.9053811487	-0.8757107732	 0.106283
H	-0.5025041985	 1.9584142488	 0.891540169	 0.105455
H	 0.1769767197	-0.1025893428	 2.2241402582	 0.1139
H	 0.7475283081	-1.5559276009	 1.3895966732	 0.121473
H	 1.7282805872	-0.0751160201	 1.384741075	 0.107737
H	-1.9699875616	-0.2189329605	-0.883417288	 0.109757
H	-1.4840593418	-1.6107535358	 0.0978904449	 0.125085
H	-2.0187596861	-0.1143386014	 0.8806766953	 0.111454
H	 0.2283815339	-0.1057824814	-2.0839634749	 0.111179
H	 2.642681567	-0.5514596448	-0.7564848045	 0.287568
H	 0.8613252344	-4.2326534062	-1.4494273572	 0.199124
