16
gdb 123842	3.61117	1.56246	1.12155	3.7231	77.42	-0.2382	-0.0293	0.2089	1032.4704	0.127751	-400.766136	-400.759575	-400.758631	-400.797042	26.249	
C	-0.0427482011	 1.4926571861	 0.0814162481	-0.267023
C	 1.3552010223	 2.1489214437	-0.0113308614	-0.346907
C	 2.193382801	 1.439879143	-1.030468968	 0.102183
C	 3.2462848872	 1.7539015645	-1.8201379517	-0.049722
O	 3.663931812	 0.6694558554	-2.5058566871	-0.175419
N	 2.8656216842	-0.4217581758	-2.1649009654	-0.236363
C	 2.0011108392	 0.0478865482	-1.2944572119	 0.350924
C	 0.9316759694	-0.6996146775	-0.6563058792	-0.142264
C	-0.0141927077	-0.0187433357	 0.0049696309	-0.073595
H	-0.5356872029	 1.8121412386	 1.0052026846	 0.11132
H	-0.6773093856	 1.8626375884	-0.7380892569	 0.125566
H	 1.258138946	 3.2164470472	-0.2295092381	 0.114326
H	 1.8447593866	 2.0734782511	 0.9693248795	 0.123479
H	 3.8006161225	 2.6612624375	-2.0046504376	 0.148052
H	 0.9129623596	-1.7794194988	-0.7490416349	 0.111656
H	-0.8397678327	-0.552801276	 0.4667313591	 0.103786
