19
gdb 91742	3.11547	1.40606	1.33933	1.4207	69.63	-0.2439	0.074	0.3179	1044.3266	0.160658	-460.170559	-460.162782	-460.161838	-460.202585	30.898	
C	-0.2656649416	 1.5531937825	-0.0345487325	-0.415234
C	 0.0313991776	 0.0650565194	 0.0194128353	 0.149262
O	 0.7711495197	-0.3539744115	-1.1516152316	-0.299972
C	 1.8274019283	-1.1686466254	-0.638389982	 0.132496
O	 1.3212981498	-1.7316760535	 0.5500442494	-0.241852
C	 0.9472471373	-0.4711838855	 1.1410563386	 0.018272
C	 2.2967628129	 0.2758768487	 1.1706350738	-0.250723
C	 2.9454102019	-0.216206106	-0.1497139178	 0.119295
O	 4.1603532426	-0.8739731735	 0.1595685719	-0.432783
H	 0.6477732499	 2.1476881605	-0.1133885215	 0.123254
H	-0.8865364957	 1.7764008074	-0.9066255552	 0.132275
H	-0.8145911389	 1.868063471	 0.8595691034	 0.117103
H	-0.9128049952	-0.4958282107	 0.0493745206	 0.083452
H	 2.1025298314	-1.9399549189	-1.3592966442	 0.084161
H	 0.4620921136	-0.6342771352	 2.1021802442	 0.088622
H	 2.2079215748	 1.3606295438	 1.2386253827	 0.107441
H	 2.9033686688	-0.0801939751	 2.0052595302	 0.128019
H	 3.0953580682	 0.5914742635	-0.8765648763	 0.07398
H	 4.5818877347	-1.1328523116	-0.666338789	 0.282931
