12
gdb 24547	3.98281	1.86761	1.27142	3.5943	70.96	-0.2701	-0.1093	0.1608	874.025	0.081674	-431.70075	-431.695192	-431.694248	-431.73064	21.897	
O	-0.0598923019	 1.3099917582	 0.0098599584	-0.165283
C	 1.1250089454	 1.9663756851	 0.0018179141	 0.019975
C	 2.3181950843	 1.3133203724	-0.0134386617	-0.074699
N	 2.4524743315	-0.0520421265	-0.0221906186	-0.307055
C	 1.318972911	-0.6923736936	-0.0145519647	 0.328766
N	 1.0607146792	-2.0372772256	-0.0194002655	-0.315541
C	-0.2602335105	-2.0683080502	-0.0065554264	 0.043018
N	-0.9721345701	-0.8626822372	 0.0070146422	-0.352071
C	 0.012279991	-0.01762492	 0.0019182201	 0.38105
H	 0.9958108175	 3.0388026837	 0.0089279736	 0.163228
H	 3.2321848552	 1.8954682333	-0.0192315056	 0.13934
H	-0.8104531326	-3.0015904695	-0.006256116	 0.139272
