21
gdb 71397	3.20616	1.40771	1.30791	1.5994	81.93	-0.2233	0.0876	0.3108	1102.9519	0.180662	-387.039484	-387.030747	-387.029803	-387.071961	34.826	
C	-0.0760830928	 1.4184437026	-0.0471909391	-0.506603
C	 0.0060130595	-0.0682079041	 0.0079472037	 0.458534
O	-0.5176059004	-0.834920768	-1.0882190368	-0.324794
C	-0.3954703853	-1.9975981692	-0.2252525233	 0.022972
C	-0.3326423534	-1.0809929668	 1.0487427573	-0.203807
C	 1.1329812377	-0.9027140124	 0.6532451138	-0.193306
C	 1.1496272482	-2.2367366226	-0.1136895496	 0.325868
C	 1.4636420158	-3.4255863458	 0.7952781819	-0.443368
C	 1.9325592297	-2.298710619	-1.4212099257	-0.457584
H	 0.5241736575	 1.8099752146	-0.8754764346	 0.132665
H	-1.1106501116	 1.7472623416	-0.1867323235	 0.131603
H	 0.3030661304	 1.8530122549	 0.882567117	 0.125873
H	-1.0993103986	-2.7948955715	-0.4608615357	 0.075885
H	-0.8575410432	-1.0417526219	 1.9929179869	 0.094821
H	 1.9299034412	-0.4499427938	 1.2323539045	 0.078723
H	 0.8831704784	-3.3912564371	 1.7226589954	 0.11415
H	 1.2395277184	-4.3708241842	 0.2872450078	 0.110847
H	 2.5250292242	-3.4428005347	 1.0660032678	 0.113861
H	 3.0081407864	-2.2040455876	-1.2318562237	 0.106364
H	 1.7724935601	-3.2556120209	-1.932267907	 0.106205
H	 1.6251126479	-1.4954852443	-2.0930697273	 0.131091
