14
gdb 128564	6.96377	0.88285	0.78749	7.6926	72.45	-0.2421	-0.0238	0.2183	1357.3724	0.102249	-432.885839	-432.877805	-432.876861	-432.918923	28.633	
C	 0.0096179993	 1.427284555	-0.0314530391	-0.271538
O	-0.0046162934	 0.0052437427	 0.0068423747	-0.257479
C	 0.5766681177	-0.6444936837	-1.0092151086	 0.539496
C	 0.6918900482	-2.0056498482	-1.192955351	-0.460449
C	 1.3878075375	-2.1217060799	-2.419959419	 0.276284
N	 1.6849504053	-0.9372247244	-2.9615629129	-0.297971
N	 1.1774767379	-0.0507266336	-2.0787250438	-0.290856
C	 1.7661370682	-3.3311772526	-3.0703475155	 0.246322
N	 2.0563301745	-4.3343360699	-3.5681446021	-0.339045
H	 1.0362907292	 1.8149738011	-0.0252179435	 0.135664
H	-0.5265708818	 1.806790133	-0.9106071775	 0.135607
H	-0.5033132932	 1.7594593384	 0.8706946709	 0.160968
H	 0.3319748974	-2.786099691	-0.546275298	 0.137553
H	 1.280031593	 0.9303654032	-2.2728614747	 0.285444
