15
gdb 412	5.30044	2.98932	2.47639	2.1168	52.8	-0.2463	0.0724	0.3186	582.3057	0.13149	-287.663174	-287.656474	-287.65553	-287.693286	24.487	
C	-0.0832407409	 1.5737280241	-0.1630897723	-0.46202
C	-0.1024678408	 0.0627349102	-0.0904729686	 0.314868
C	-1.399355043	-0.5473004009	 0.4102614289	-0.095607
O	-1.6064515914	-0.2473844715	 1.7800179427	-0.422802
C	 0.7822125192	-0.7360556384	-0.9724576291	-0.283436
N	 1.0711118653	-0.6414416993	 0.4748435939	-0.357027
H	 0.9074206513	 1.9489304351	-0.440116406	 0.107218
H	-0.8004249195	 1.9406915962	-0.9058221728	 0.123471
H	-0.3610926591	 1.9993946177	 0.8061785043	 0.137445
H	-2.2570343688	-0.1328876734	-0.1308952857	 0.104114
H	-1.381654295	-1.6334849091	 0.2379282892	 0.088209
H	-0.8278293904	-0.5870375018	 2.2382064321	 0.289133
H	 0.4751499263	-1.7212974599	-1.3133848784	 0.117315
H	 1.4287010229	-0.202006161	-1.6642342842	 0.110961
H	 1.8298197039	 0.0193163219	 0.6253473359	 0.228157
