20
gdb 104253	2.23216	1.3016	1.10292	2.8315	79.24	-0.2649	0.0167	0.2816	1225.7782	0.169491	-403.157471	-403.147775	-403.146831	-403.192162	35.339	
C	-0.2344065828	 1.538868574	 0.065437055	-0.400774
C	 0.267409075	 0.1007432163	-0.1004075353	-0.216174
C	 0.8425661729	-0.4934765482	 1.1869917182	 0.425013
C	 2.0840853845	 0.2192865479	 1.6971283472	-0.445696
O	-0.1802589607	-0.5581517724	 2.2264981925	-0.31466
C	-0.2809970653	-1.9850280127	 2.1383482672	-0.081875
C	 0.9478873107	-2.0640719788	 1.1979177768	-0.274064
C	 0.8104271042	-2.7949073475	-0.04734387	 0.287707
N	 0.6935893939	-3.3780789815	-1.0390876591	-0.335487
H	 0.5824395927	 2.2421218853	 0.2527374092	 0.118153
H	-0.7498941847	 1.8684265957	-0.8408480479	 0.119505
H	-0.9379529829	 1.6017552811	 0.9003674334	 0.138465
H	-0.5617717588	-0.5333419247	-0.4329099378	 0.113914
H	 1.0302966572	 0.0442297667	-0.8865185848	 0.110476
H	 1.8603615314	 1.2648051875	 1.9241960186	 0.138262
H	 2.449217845	-0.2515940216	 2.6139140495	 0.121624
H	 2.8805030661	 0.1921893339	 0.9458668099	 0.1265
H	-0.1637872118	-2.4736992247	 3.1107045005	 0.119189
H	-1.2189900349	-2.3138606126	 1.6760604523	 0.121534
H	 1.8486554784	-2.4031646239	 1.7141384546	 0.128387
