16
gdb 97835	4.04896	0.69187	0.62711	1.6526	75.87	-0.26	0.0128	0.2728	1729.6391	0.123454	-437.839037	-437.829863	-437.828919	-437.875257	31.68	
O	 0.2214566308	 1.1854832148	 0.6956848954	-0.399605
C	 0.0001050508	 0.2207909252	-0.3219031737	-0.194891
C	-1.3537650709	-0.3344037291	-0.3136082885	 0.068346
C	-2.4630495695	-0.7986159723	-0.2445705824	 0.075884
C	-3.7963825583	-1.3565384071	-0.190750946	-0.317013
C	-4.4939122207	-1.7497154992	-1.5235901415	-0.08794
O	-4.6252219296	-3.1247101866	-1.055908056	-0.247739
C	-3.9507235721	-2.8502769339	 0.113976677	 0.445144
N	-3.6104784306	-3.5873356704	 1.0640007924	-0.536069
H	-0.0140383176	 0.7777649066	 1.5358487441	 0.29095
H	 0.1875380645	 0.7381739317	-1.269415174	 0.141765
H	 0.7281129763	-0.603806023	-0.2618109895	 0.124238
H	-4.444370278	-0.756440757	 0.4561477382	 0.140431
H	-5.4709296185	-1.2994224315	-1.7096304753	 0.128099
H	-3.8600755294	-1.6934469019	-2.4101910593	 0.134611
H	-3.8960476273	-4.5559057962	 0.9112685091	 0.233789
