14
gdb 594	12.94847	1.75438	1.68147	2.483	50.75	-0.2579	0.0832	0.3412	738.5038	0.118336	-307.526911	-307.520151	-307.519207	-307.557716	22.684	
C	-0.1430183486	 1.3496032064	 0.0815257048	-0.22478
O	-0.0768788828	-0.0560402421	 0.0680943987	-0.231368
C	 0.7991507812	-0.5718477359	 1.0433886367	-0.071931
C	 0.7965361142	-2.0721393237	 0.9446196497	 0.084664
C	 1.1573333723	-2.9110414838	 2.0925112364	-0.181578
O	-0.2031975307	-2.7709483305	 1.6873959536	-0.225737
H	 0.8409033027	 1.8075279934	-0.1104783668	 0.102035
H	-0.8334518882	 1.6516075262	-0.7094130991	 0.130285
H	-0.5161661366	 1.7323482726	 1.0446209869	 0.106483
H	 1.8242467286	-0.1913534785	 0.8820000417	 0.08684
H	 0.4874549468	-0.2732008772	 2.0578880649	 0.094095
H	 0.962328809	-2.4607733954	-0.0604707336	 0.101667
H	 1.6039057108	-3.8899724797	 1.9248735129	 0.116795
H	 1.4124690812	-2.4441574219	 3.0436268832	 0.112531
