16
gdb 45216	2.94956	2.03591	1.55774	3.6608	67.53	-0.2487	-0.003	0.2457	859.0404	0.126829	-437.873725	-437.867481	-437.866537	-437.904294	25.41	
O	-0.0734491133	 0.0223909564	 0.4519302586	-0.329372
C	-0.0871227257	 1.183019991	 0.1377235918	 0.375115
C	-1.3262344562	 2.086001682	-0.0111036986	-0.349923
C	-0.7552211223	 3.4501364597	 0.3351111854	 0.107838
O	-0.2827914032	 3.5300006801	 1.7196510529	-0.319551
C	 1.1105950766	 3.6231165784	 1.3205204473	 0.105326
C	 1.8005453509	 2.2456788607	 1.2686174046	-0.199768
N	 1.0779314264	 1.9739283599	-0.0285951524	-0.131828
C	 0.698749691	 3.4131700573	-0.1468510856	-0.069398
H	-1.7191158749	 2.0735043295	-1.0352260285	 0.1303
H	-2.1109974552	 1.7408870689	 0.6638298427	 0.14709
H	-1.3778296687	 4.3114279996	 0.0788354133	 0.087798
H	 1.6156622032	 4.4886950107	 1.7525357637	 0.090774
H	 2.8820490496	 2.3117351103	 1.1161129105	 0.120205
H	 1.5711046084	 1.5279320951	 2.0589906304	 0.142045
H	 1.0609208836	 3.9374079002	-1.0292188762	 0.093349
