16
gdb 4342	3.67322	1.79568	1.21517	1.5168	75.02	-0.2157	0.0023	0.2179	967.309	0.131796	-346.681578	-346.674252	-346.673308	-346.713486	27.899	
C	 0.0010699565	 1.5085221983	 0.0375973421	-0.492948
C	 0.0037411689	-0.0005329201	-0.0003709939	 0.34741
C	-0.0695200684	-0.69173998	-1.2104197883	-0.221637
C	-0.0453458915	-2.085926959	-1.2269818055	-0.078112
C	 0.0496786737	-2.8118540547	-0.0475174843	-0.206829
C	 0.1209188065	-2.1267530513	 1.1671550502	 0.412493
O	 0.2102856311	-2.8729905787	 2.3056481343	-0.442511
C	 0.0969234507	-0.7332268794	 1.1867795044	-0.349657
H	 0.9989370048	 1.9026163745	 0.2653876728	 0.132346
H	-0.3073842004	 1.9293446883	-0.9228872106	 0.124363
H	-0.6776715085	 1.8897458094	 0.8077418974	 0.126036
H	-0.1462224412	-0.1387373321	-2.1408361209	 0.085207
H	-0.1043132848	-2.613835487	-2.1734405651	 0.094674
H	 0.067025461	-3.8953745965	-0.0431218174	 0.101314
H	 0.2514842776	-2.2821225891	 3.0646784143	 0.295152
H	 0.1505822338	-0.2101074127	 2.1397866203	 0.072698
