15
gdb 132535	3.16428	1.40762	0.98049	1.1716	72.58	-0.225	-0.0229	0.2021	1133.0648	0.113582	-458.175693	-458.167717	-458.166773	-458.208208	29.77	
C	-0.016267658	 1.5284546782	 0.0207632973	-0.502945
C	-0.0142943681	 0.0269189325	-0.0104470173	 0.082986
C	-0.053522325	-0.7358825013	-1.1734249593	-0.046058
N	-0.0512565082	-2.0688058889	-1.2053199442	-0.323307
C	-0.0115741598	-2.6758369202	-0.0117409302	 0.439836
N	-0.0569140357	-4.0376557569	 0.001342311	-0.555675
N	 0.0404735752	-2.0619295125	 1.1866790863	-0.367348
C	 0.0361882108	-0.7550357072	 1.1456757417	 0.286991
F	 0.0894195114	-0.1336853141	 2.3204905117	-0.06292
H	 0.8783962763	 1.9240708723	 0.513445467	 0.138843
H	-0.0489946692	 1.9326302124	-0.9946722352	 0.125876
H	-0.8803601202	 1.920416643	 0.5680260833	 0.139428
H	-0.0861610426	-0.2353799925	-2.1401109082	 0.112807
H	 0.1249900076	-4.506930951	-0.8693855529	 0.265319
H	 0.2004720054	-4.5002369839	 0.8563750988	 0.266167
