18
gdb 10503	2.72019	1.60434	1.17955	3.9867	68.77	-0.2711	0.0052	0.2762	1064.7098	0.151737	-384.954121	-384.945445	-384.944501	-384.987487	31.359	
C	-1.5346658169	-0.1723798711	-0.2209744638	-0.378893
C	-0.0274955612	-0.1386433267	 0.0555591612	-0.2411
C	 0.8023630875	-0.6349674963	-1.1102811469	 0.427414
C	 2.1620078401	-1.2527311136	-0.9091559551	-0.329996
C	 0.9875114759	-2.1006432392	-1.3536154139	-0.304736
O	 0.6047244149	 0.1208962048	-2.3045114764	-0.229885
C	 1.3006539989	 1.2713780781	-2.4239852318	 0.156312
O	 1.1666016861	 2.0086613461	-3.3542024566	-0.27605
H	-1.7853201201	 0.4363011344	-1.0937899356	 0.139636
H	-1.8746284734	-1.1940466811	-0.4181350518	 0.120887
H	-2.0951098144	 0.2119856771	 0.6359204702	 0.115526
H	 0.2832371159	 0.8836287549	 0.3083784309	 0.102707
H	 0.2105094306	-0.7554242297	 0.9297828214	 0.104326
H	 2.9278940004	-1.0436228475	-1.6472344127	 0.128812
H	 2.5293531345	-1.3573509028	 0.1058684016	 0.123388
H	 0.5458908086	-2.792215468	-0.644959522	 0.120954
H	 0.9748581353	-2.4313722568	-2.3852831183	 0.135627
H	 2.0005958773	 1.4399282475	-1.5849448204	 0.085073
