21
gdb 114199	2.62211	1.16098	0.96608	2.7492	78.42	-0.2546	0.0713	0.3259	1298.5631	0.181097	-424.189314	-424.179851	-424.178907	-424.223562	35.544	
C	-0.7083887854	 1.2684949254	-0.0656569479	-0.426353
C	-0.1189376169	-0.1348469186	-0.0225738653	-0.071576
C	 1.0074491063	-0.5898943789	-1.0178565608	-0.007685
C	 1.8666039229	 0.528467489	-1.583168035	-0.085745
O	 2.9426970635	-0.0776136383	-2.2858991529	-0.421049
C	 1.6969187977	-1.3572188947	 0.1524285832	-0.326565
C	 0.8242899463	-0.5504696329	 1.1137729574	 0.457118
C	 1.2240461891	 0.2067781456	 2.3022135637	-0.269196
O	 0.4088763237	-0.9710444034	 2.3990752636	-0.278233
H	 0.0638049745	 2.0428087387	-0.0204315433	 0.114895
H	-1.290318551	 1.4273911345	-0.9797579632	 0.118462
H	-1.3838347196	 1.4235133037	 0.7827205265	 0.124588
H	-0.931258542	-0.8700027141	-0.0660740401	 0.088899
H	 0.6659601192	-1.2160441523	-1.8453765687	 0.07779
H	 1.2648726074	 1.1660734742	-2.2501923611	 0.086506
H	 2.2406594062	 1.1693019113	-0.7677285615	 0.083172
H	 3.5093807212	 0.6195798099	-2.628656825	 0.286092
H	 1.4367884379	-2.4190271036	 0.1704454334	 0.111882
H	 2.781333846	-1.2544706374	 0.2305058845	 0.113133
H	 2.2374032823	 0.1064175395	 2.6901940071	 0.11223
H	 0.7222348405	 1.1405894822	 2.5532799255	 0.111636
