16
gdb 54898	3.77263	1.13582	0.87841	5.2861	79.96	-0.2019	-0.0334	0.1685	1265.021	0.123768	-437.943863	-437.935176	-437.934232	-437.977498	31.757	
C	-0.1854040539	 1.5008932503	 0.0245202892	-0.486171
C	 0.017916904	-0.0052951693	-0.0055694655	 0.282139
O	 1.1284382395	-0.5095835265	-0.0466068325	-0.332125
C	-1.1717593475	-0.8406736289	 0.0169185042	 0.240914
O	-2.425052402	-0.2373089781	 0.0603745459	-0.205169
C	-3.3383632523	-1.2214688566	 0.0707402464	 0.380465
N	-4.6502505365	-0.8227877295	 0.1815143559	-0.594602
H	-4.8321594327	 0.1052433282	-0.174419094	 0.264839
H	-5.3220773814	-1.501119253	-0.1448084369	 0.265503
C	-2.7355758471	-2.4576453204	 0.0350560097	-0.256196
C	-1.3415712533	-2.1982873193	 0.0018547357	-0.213666
H	 0.7904859984	 1.986765961	 0.0064144337	 0.136401
H	-0.7797053207	 1.8295988464	-0.8346128109	 0.134086
H	-0.7338889829	 1.8007884793	 0.9235925902	 0.137709
H	-3.233695478	-3.4135940853	 0.0355192555	 0.108413
H	-0.5369027535	-2.9156194083	-0.0322519665	 0.13746
