15
gdb 28399	3.29433	1.40623	0.98787	3.0507	75.16	-0.1875	-0.0169	0.1706	1121.4948	0.115887	-450.205918	-450.198082	-450.197137	-450.237855	30.554	
N	 0.036573355	 1.3888162286	 0.1234345612	-0.574909
C	-0.0426111801	 0.0074616783	 0.0406516079	 0.453376
N	-1.1912673213	-0.5931234192	 0.0205385292	-0.335038
C	-1.1772610356	-1.9656337157	 0.0324529383	-0.091782
C	-0.0483519216	-2.7351658454	 0.0293626575	 0.155188
N	 0.0029562314	-4.1244528683	 0.0878899569	-0.589112
C	 1.2453205916	-2.0692181066	 0.0168101275	 0.39727
O	 2.3323089172	-2.62850096	-0.0140868592	-0.408591
N	 1.1448529848	-0.6753273394	 0.0444940566	-0.393025
H	 0.7605031564	 1.8228029098	-0.4334970949	 0.253067
H	-0.8688061534	 1.8111193307	-0.0313499916	 0.267126
H	-2.1576247943	-2.4354863147	 0.0348113321	 0.099549
H	-0.7540640225	-4.6069803585	-0.3734191024	 0.246189
H	 0.9146812498	-4.4703896381	-0.1844914103	 0.260886
H	 2.0278404927	-0.1852082915	 0.0994656212	 0.259805
