16
gdb 16630	3.01998	2.35934	1.54082	2.9017	63.66	-0.2469	-0.0208	0.2261	830.7946	0.130328	-383.757844	-383.750719	-383.749774	-383.789274	26.948	
C	 0.2046130015	 1.6115040225	-0.0363975324	-0.396342
C	 0.0723521288	 0.0872547526	-0.0104323054	-0.125083
C	 0.6961711966	-0.647328038	-1.1774611909	 0.036259
O	 2.1283242767	-0.5589531854	-1.1889475615	-0.25925
C	 1.527192397	-1.7669139561	-0.7011480082	 0.039013
C	 1.4948014224	-1.8321787934	 0.806235311	-0.351621
C	 0.7673992846	-0.5407809982	 1.2188873181	 0.390469
O	 0.7370400573	-0.082885769	 2.3297286848	-0.30707
H	 1.2447546133	 1.8953845402	-0.2184065411	 0.137892
H	-0.416677944	 2.0500899116	-0.8224928001	 0.113621
H	-0.1022970725	 2.0250887405	 0.9273161351	 0.140214
H	-0.9914163887	-0.1883752811	 0.0566740189	 0.103284
H	 0.2212314038	-0.6478837578	-2.1553195137	 0.099793
H	 1.7092744932	-2.6551805457	-1.2995718999	 0.102771
H	 0.925061951	-2.700082801	 1.1623961422	 0.131068
H	 2.485037679	-1.8752798114	 1.267655503	 0.144983
