23
gdb 96239	2.21299	1.55974	1.1057	0.8531	87.63	-0.2328	0.0222	0.255	1218.162	0.206573	-388.301489	-388.292225	-388.29128	-388.335137	35.97	
C	 0.0317675932	 1.1702918591	-0.5512601941	-0.405646
C	 0.1599075917	-0.2942661095	-0.1367474297	 0.123399
O	 0.9505897077	-0.9275434762	-1.1367764139	-0.257705
C	 0.7039515526	-2.3058947181	-1.3233892752	-0.068871
C	 1.4015507036	-3.2143930757	-0.3102856821	-0.255723
C	 0.9977231843	-3.0365738786	 1.1331847262	-0.05433
C	 0.7138308027	-1.9071842075	 1.7848630544	-0.081107
C	 0.7339539313	-0.4766491125	 1.285937109	-0.020996
C	 2.1543220547	 0.1089575223	 1.436142485	-0.388242
H	 1.0160333578	 1.6305567935	-0.6700093184	 0.128237
H	-0.4871502123	 1.2396391792	-1.5108200499	 0.117908
H	-0.5331465369	 1.7411551899	 0.1920913072	 0.109121
H	-0.8443276286	-0.7488312667	-0.1427461008	 0.063209
H	-0.3805747975	-2.5005782959	-1.3081085315	 0.087266
H	 1.0714752035	-2.5427149895	-2.3283627004	 0.098517
H	 1.2104149139	-4.2521038794	-0.6120092425	 0.097877
H	 2.4880005793	-3.072489841	-0.4054755954	 0.118443
H	 0.9784949716	-3.9559903026	 1.7158016958	 0.083103
H	 0.494389582	-2.0011615938	 2.8476125725	 0.081741
H	 0.0666936234	 0.0957473708	 1.9449475787	 0.071332
H	 2.8276910146	-0.3412146224	 0.7021265021	 0.130767
H	 2.16223243	 1.1929547958	 1.2894830933	 0.111736
H	 2.5514365875	-0.0952412711	 2.4347024796	 0.109965
