20
gdb 94824	3.81965	1.16294	1.02158	1.6333	82.93	-0.2381	0.0134	0.2515	1234.5557	0.171877	-403.129056	-403.120797	-403.119853	-403.161774	32.482	
C	 0.0611348064	 1.533697736	-0.0659845912	-0.398819
C	 0.0015434286	 0.0099899457	 0.0045571496	 0.087378
O	 0.5993575575	-0.4802904828	-1.1905352723	-0.259968
C	 0.8120222241	-1.8778781377	-1.1620108521	-0.167417
C	 1.8063822018	-2.2640939364	-0.0824887274	 0.289928
C	 2.3676921841	-3.6413688242	-0.108048087	-0.288306
N	 3.2348862356	-2.4952401957	-0.409717368	-0.350677
C	 1.5439816306	-1.5490056325	 1.18983057	-0.098378
C	 0.6866457944	-0.5308282809	 1.2367556355	-0.092809
H	 1.101276385	 1.8711207979	-0.0721028308	 0.130637
H	-0.4260614424	 1.8849202543	-0.9792775392	 0.124787
H	-0.4475040486	 1.9772790981	 0.7950361364	 0.113862
H	-1.0619302356	-0.2990148397	 0.0241172106	 0.072593
H	-0.1415180425	-2.4058358891	-0.9874534993	 0.093204
H	 1.1769747612	-2.1621260978	-2.1552338456	 0.096798
H	 2.5904952411	-4.1551806217	 0.8237637095	 0.117547
H	 2.0566436846	-4.2978341975	-0.9187592953	 0.109339
H	 3.3721058848	-2.4139343708	-1.4151149831	 0.230407
H	 2.0713679084	-1.8889309877	 2.0763914701	 0.095652
H	 0.4600163209	-0.0325998175	 2.1757300798	 0.094241
