14
gdb 17992	4.1538	1.79939	1.52998	5.8497	61.44	-0.2557	0.0096	0.2653	823.8302	0.108593	-378.672451	-378.665855	-378.664911	-378.703563	24.446	
N	 0.0754609128	-1.1340872417	 0.1331291397	-0.320176
C	 0.0490354459	 0.0195631835	 0.0787755281	 0.317054
C	 0.0082412177	 1.476953789	-0.018318127	-0.168837
N	-0.3303876662	 2.1921408837	 1.2445246645	-0.312812
C	 0.8423717141	 3.0910908252	 1.1042549433	-0.062364
C	 2.0654097219	 2.5396248499	 1.8578596397	-0.060745
O	 2.4067663675	 1.6880872341	 0.7254884422	-0.276888
C	 1.3696950084	 2.2435810352	-0.0779056229	 0.104842
H	-0.626503889	 1.754670444	-0.8698996227	 0.119048
H	-1.2295502972	 2.6564122853	 1.2149067047	 0.234942
H	 0.6508014021	 4.1637648658	 1.0939609885	 0.091564
H	 2.8642240401	 3.2651232397	 2.0518406334	 0.108353
H	 1.8377287868	 1.9642744904	 2.7593054215	 0.127482
H	 1.7107157952	 2.582512826	-1.0576600031	 0.098537
