25
gdb 121231	2.92309	0.77918	0.66225	1.3154	89.57	-0.26	0.0781	0.3381	1801.4765	0.228252	-389.482007	-389.47128	-389.470335	-389.51837	39.219	
C	 0.3464031084	 1.522640565	-0.1808984195	-0.380968
C	 0.0933676049	 0.0561943772	 0.1785633154	-0.164248
C	-1.2634026749	-0.4627292163	-0.3156614304	-0.196502
C	-1.5082524413	-1.9231506747	 0.0508936094	 0.029558
C	-1.7177428044	-2.3190032729	 1.5418109176	-0.227125
C	-2.7740733495	-3.3592242456	 1.0815867914	-0.218685
C	-2.8637622521	-2.629022873	-0.2886612979	-0.008277
C	-4.0724778343	-1.7136065661	-0.4006812221	-0.085461
O	-5.2237306409	-2.5429105214	-0.5003903253	-0.42453
H	 1.3205549675	 1.8625905821	 0.1846718663	 0.11023
H	 0.3270093159	 1.6737033102	-1.2661406778	 0.112464
H	-0.418454319	 2.175094068	 0.2552854993	 0.112014
H	 0.8923864923	-0.5687145424	-0.2423255387	 0.093418
H	 0.153177217	-0.0697630791	 1.2672640571	 0.099602
H	-2.0593417318	 0.1689795386	 0.1017781351	 0.087929
H	-1.3184944217	-0.3424986719	-1.4069897132	 0.08997
H	-0.694715378	-2.5292001087	-0.3668904425	 0.068347
H	-0.8503534205	-2.6872737178	 2.0952303365	 0.092085
H	-2.1660829215	-1.5020569222	 2.1174000784	 0.09395
H	-2.3488360508	-4.3616120782	 0.9850797034	 0.096358
H	-3.7029638047	-3.4312684718	 1.6514313536	 0.103731
H	-2.8496203412	-3.2742668284	-1.1723049023	 0.068537
H	-4.1400710671	-1.0553436882	 0.4809223714	 0.080467
H	-3.9749231139	-1.0644976029	-1.2854852275	 0.08337
H	-5.9990005584	-1.9758552096	-0.5442865977	 0.283765
