14
gdb 129714	3.43837	1.29539	0.94414	5.2767	68.81	-0.2169	-0.0398	0.1772	1140.109	0.10125	-470.022858	-470.014401	-470.013457	-470.056027	30.097	
N	 0.1067992319	 1.4280304698	-0.1191021394	-0.616246
C	-0.0176496418	 0.0377197746	-0.0347633283	 0.331957
C	-1.1218179014	-0.7750389062	-0.0645242747	 0.145994
O	-2.4040803711	-0.3122079356	-0.1006246254	-0.45346
C	-0.6144106481	-2.1019516849	-0.0139435434	-0.070424
N	 0.7028415703	-2.1292208458	 0.0474126806	-0.236513
N	 1.0757295129	-0.816294944	 0.0200770235	-0.076107
C	 2.4216060346	-0.4308082265	-0.0125169308	 0.181572
O	 3.351449041	-1.1835370596	 0.0549459082	-0.269575
H	 0.3997127675	 1.8598405812	 0.7519869271	 0.258579
H	-0.7786760952	 1.8370343979	-0.3953280888	 0.265138
H	-2.9932743032	-1.0294108506	-0.3520669713	 0.306255
H	-1.173202611	-3.0285524451	-0.0090121699	 0.121565
H	 2.5043794935	 0.6636577049	-0.1193943174	 0.111264
