17
gdb 109640	2.1953	1.31976	1.06526	5.6182	70.29	-0.2506	0.0146	0.2652	1189.8357	0.134092	-455.110125	-455.100298	-455.099354	-455.144815	35.022	
C	 0.0575265043	 1.0480670309	 0.3117328768	-0.249825
O	-0.2157881053	-0.0658075342	-0.5290300934	-0.253808
C	-1.4335701521	-0.6731689498	-0.2816328669	 0.006457
C	-1.5628109836	-2.0303897671	-0.874496192	 0.047196
O	-0.474969653	-2.5614848169	-1.5468678913	-0.422152
C	-1.4395649074	-1.9071178778	 0.6688341268	 0.065643
N	-0.2335995355	-2.3983837452	 1.257553776	-0.569844
C	-2.6523473701	-2.089280249	 1.4283063595	 0.276189
N	-3.6492386659	-2.1949843906	 2.0074217635	-0.3472
H	 1.0461349219	 1.4188298799	 0.0358433716	 0.142753
H	-0.6834145244	 1.8437545767	 0.1593996494	 0.130761
H	 0.0546412439	 0.7650671794	 1.3719967739	 0.126071
H	-2.2988204264	-0.0122477176	-0.2532218776	 0.117989
H	-2.5186186496	-2.3529786364	-1.2732123872	 0.136136
H	 0.1635218367	-1.8448894362	-1.6647506561	 0.307409
H	 0.2857267086	-2.9336546993	 0.5684286523	 0.247546
H	 0.3624351677	-1.6551146667	 1.6006732049	 0.238679
