16
gdb 8659	2.51149	1.76135	1.38145	3.3792	66.04	-0.2554	-0.0515	0.2039	964.4954	0.127884	-379.925449	-379.916146	-379.915202	-379.95972	32.01	
C	-0.0647848906	 1.4770183063	 0.1370340755	-0.336981
N	 0.1110030535	 0.0297344706	 0.0079253553	-0.31319
C	 0.6497455648	-0.4658605173	-1.2658571652	 0.008597
C	 2.1423614005	-0.194301501	-1.5166129959	-0.422362
C	 0.3571625218	-1.9920087135	-1.1903216273	 0.161824
O	 1.2147797736	-2.8216610652	-1.0811768065	-0.234743
C	-0.1627312013	 0.0618271589	-2.3742466926	 0.2903
N	-0.7896176843	 0.4448547921	-3.2662410071	-0.332881
H	 0.8553550164	 2.0639934725	-0.0064087652	 0.111939
H	-0.8064267695	 1.8208403659	-0.5886178355	 0.158183
H	-0.4517454929	 1.6864344294	 1.1374554133	 0.134225
H	 0.7102546728	-0.3175294323	 0.7498285756	 0.235202
H	 2.730120985	-0.6960753013	-0.7444636707	 0.138083
H	 2.455021241	-0.5883354193	-2.4866819928	 0.147838
H	 2.3481241095	 0.8778431364	-1.4942952499	 0.135794
H	-0.7243279802	-2.2295817223	-1.1747345911	 0.118172
