14
gdb 29016	2.68758	1.60243	1.00406	4.0696	73.96	-0.2535	-0.0736	0.1799	1083.9901	0.102761	-432.940591	-432.932812	-432.931868	-432.973145	28.126	
N	-0.0877053382	 1.3623813833	-0.050160747	-0.56759
C	 0.0167373371	 0.0118099825	-0.0223434114	 0.347048
N	-1.1529267605	-0.655748773	-0.021844558	-0.32194
C	-1.0890746392	-1.9787597524	-0.0108965043	 0.08633
N	 0.0044813368	-2.7533972298	 0.0047199383	-0.279933
C	 1.1540845338	-2.0833918323	 0.001303329	-0.008534
C	 1.2494314324	-0.6899808962	-0.0159663217	 0.063475
C	 2.5729314601	-0.0511707176	-0.0359388581	 0.083698
O	 3.6246264405	-0.6507681114	-0.006565469	-0.269493
H	 0.6975467235	 1.9636167078	 0.1185617545	 0.270431
H	-1.0141032652	 1.7440442327	 0.0490845684	 0.272151
H	-2.0445344159	-2.4994532255	-0.0118320986	 0.125403
H	 2.0747483046	-2.6610476519	 0.0099395941	 0.146318
H	 2.5751765503	 1.0617345638	-0.0885760762	 0.052636
