20
gdb 58122	2.96885	1.02304	0.92556	4.5746	75.29	-0.2684	0.0287	0.2971	1334.2125	0.167359	-440.303917	-440.293189	-440.292245	-440.339225	39.371	
C	 0.110577606	 1.5207234862	-0.0534373811	-0.427061
C	-0.0192485892	 0.0049246173	 0.0643904821	 0.099946
O	 0.7039947252	-0.5088478312	 1.1788924586	-0.431677
C	-1.4944750832	-0.4968061134	 0.0683484577	 0.329468
C	-2.3091295662	 0.078008377	 1.2262084917	-0.426191
O	-2.1448714146	-0.0648600551	-1.1205818834	-0.452091
C	-1.4566327637	-2.0492171276	 0.1313781519	-0.382828
C	-2.7790974435	-2.6648247855	 0.1054813656	 0.274439
N	-3.825113714	-3.1557575983	 0.0899911511	-0.316845
H	 1.158319791	 1.7950335036	-0.2008868027	 0.127268
H	-0.4794807422	 1.8936639812	-0.8932159168	 0.139956
H	-0.2462021067	 2.0204609531	 0.8546456468	 0.115431
H	 0.4611202395	-0.4542344281	-0.8126452632	 0.07627
H	 0.5594242317	 0.0822064359	 1.9252366351	 0.287062
H	-2.4169041381	 1.1588002541	 1.1146819065	 0.132628
H	-3.3092921629	-0.3607650675	 1.2390175776	 0.15634
H	-1.8274168661	-0.136816582	 2.1845199849	 0.11156
H	-1.7048236635	-0.46588554	-1.8789210248	 0.282721
H	-0.8784338591	-2.4314893594	-0.7199864441	 0.134911
H	-0.9198769103	-2.3602622104	 1.0317511865	 0.168691
