19
gdb 78489	3.1744	1.31643	1.28903	2.0958	73.58	-0.2352	0.0727	0.3079	1071.4449	0.160657	-422.983335	-422.975578	-422.974634	-423.01566	30.294	
O	 0.3633376114	 1.1842483774	 0.1042543089	-0.446089
C	 0.1183075859	-0.1915717506	 0.0123004474	 0.15416
C	-1.3080060422	-0.649688747	-0.0024390542	-0.139061
C	-0.4300269199	-0.7115354416	-1.2865850965	-0.151483
C	-0.6046870012	-2.2401298758	-1.3131379487	 0.10782
O	 0.5025195564	-3.0914019276	-1.1140131384	-0.264921
C	 0.6816696984	-3.3452995629	 0.280661136	-0.083005
C	-0.6637500486	-3.0503612595	 0.9964939523	-0.258343
C	-1.4440169064	-2.1825257271	-0.0049007697	-0.060108
H	-0.2981968532	 1.650789922	-0.4181086458	 0.282082
H	 0.8892032062	-0.7138974072	 0.5668099043	 0.102334
H	-2.1070834377	 0.0402992257	 0.2458504197	 0.084729
H	-0.4371819764	-0.0701107254	-2.1619135782	 0.081561
H	-1.1353700253	-2.5754177929	-2.2082208106	 0.084037
H	 0.9923285629	-4.3898545372	 0.3877761942	 0.103813
H	 1.492682935	-2.7209792857	 0.6794613136	 0.103877
H	-1.2039008072	-3.9819707892	 1.1856618526	 0.10785
H	-0.5074579206	-2.5566697361	 1.9592376157	 0.11073
H	-2.4787049576	-2.5066755095	-0.1222759824	 0.080017
