20
gdb 122612	3.70676	0.72474	0.63526	2.2655	76.63	-0.2621	0.0233	0.2854	1731.257	0.170737	-440.279339	-440.26974	-440.268795	-440.314903	34.264	
O	 0.0427527801	 1.4751077494	-0.0141907337	-0.419068
C	 0.0373625285	 0.0574019255	-0.0350364515	-0.058343
C	-1.3740093524	-0.529910241	-0.0290034461	-0.204976
C	-1.3814513794	-2.0605082645	-0.1228134439	-0.217759
C	-2.7886344409	-2.6461951367	-0.0171228408	-0.129582
C	-2.9461126861	-4.1792075494	 0.1028809181	-0.111235
O	-3.5790208346	-4.0200543736	 1.4119818449	-0.252045
C	-3.4304708906	-2.6501520109	 1.3603788232	 0.444051
N	-3.7195035918	-1.7668070459	 2.2031663533	-0.544917
H	-0.4086042201	 1.7561403115	 0.788404559	 0.282302
H	 0.5623198329	-0.2250558014	-0.9551190146	 0.106515
H	 0.6180171936	-0.3580027624	 0.8056647683	 0.085414
H	-1.8937169835	-0.2279495915	 0.8890901879	 0.129317
H	-1.9358400439	-0.0989748958	-0.8669983259	 0.103739
H	-0.9344588048	-2.3801168493	-1.0734751662	 0.102671
H	-0.756296151	-2.4855409674	 0.6736948842	 0.104129
H	-3.4449470242	-2.206766137	-0.7744534762	 0.109105
H	-3.6240048332	-4.66383633	-0.6033716526	 0.121894
H	-2.0151543916	-4.7464278741	 0.1891696246	 0.120336
H	-4.1293372469	-2.1741765454	 3.045681758	 0.228453
