17
gdb 48923	3.80276	1.53151	1.34711	3.1161	75.83	-0.2376	-0.0227	0.2149	958.8445	0.13678	-384.623544	-384.616859	-384.615914	-384.654752	27.02	
O	-0.0667880185	-0.0045192945	 0.1113015739	-0.259229
C	 0.0707633227	 1.172768984	-0.1226430579	 0.031822
C	 1.3597250252	 1.9031291331	-0.06742347	 0.264847
C	 2.7008529812	 1.270465819	 0.3591088437	-0.295783
C	 3.0974184812	 2.7189001217	 0.7338461931	-0.062542
C	 2.9576716686	 3.5800068583	-0.5458409761	-0.06999
C	 1.6146177272	 4.1549980441	-0.1589385869	-0.105637
C	 1.6692833751	 2.9957420833	-1.1282860959	-0.126991
C	 1.5874240053	 3.0955834523	 0.9770328493	-0.102948
H	-0.8067030158	 1.810805732	-0.3817387512	 0.068211
H	 2.5734470742	 0.6341882614	 1.2391085654	 0.116088
H	 3.2884326508	 0.7470202687	-0.3997150842	 0.101317
H	 3.8905408587	 2.95328179	 1.4421777604	 0.07295
H	 3.7296017259	 4.0091020945	-1.1702327138	 0.093343
H	 1.2018589681	 5.1491227388	-0.2590057872	 0.094276
H	 1.4577950331	 2.9739738411	-2.1889654049	 0.095472
H	 1.0979401869	 3.1430320923	 1.9460501024	 0.084794
