24
gdb 113919	3.41535	0.71164	0.67065	2.2567	86.32	-0.2455	0.0693	0.3148	1807.5794	0.216502	-405.526181	-405.515379	-405.514435	-405.563042	39.493	
C	 0.2136613132	 1.4975029559	 0.1082926854	-0.392575
C	 0.0569073517	-0.0285462665	 0.1369737444	 0.038084
C	 0.4420042889	-0.5887714589	 1.5130708943	-0.369014
C	-1.3715051732	-0.4326268231	-0.2799780761	-0.183639
C	-1.5463535135	-1.920002428	-0.5039258215	-0.023395
N	-1.9894045331	-2.756529537	 0.6294432174	-0.344899
C	-2.854581089	-2.6288315139	-0.5624823683	-0.04868
C	-4.199112112	-1.992395181	-0.2925949279	-0.064242
O	-5.0002996256	-2.8361824839	 0.5182895665	-0.423323
H	 1.2339853741	 1.7949160254	 0.3718577716	 0.109489
H	-0.0106053857	 1.9063284209	-0.8827618361	 0.107937
H	-0.4651113107	 1.9736317817	 0.826158932	 0.113115
H	 0.7493140855	-0.4496402621	-0.6076937853	 0.066984
H	-0.216003418	-0.1873738314	 2.2926343714	 0.113911
H	 0.3605459313	-1.6778732758	 1.5486995593	 0.116554
H	 1.4706207292	-0.3150341396	 1.7710340924	 0.104823
H	-2.079737754	-0.0892910086	 0.4819842712	 0.103269
H	-1.6278982014	 0.0901475761	-1.2116181795	 0.092866
H	-0.7735221856	-2.3515781268	-1.1420035296	 0.08063
H	-1.5078159252	-3.6511293742	 0.6246395049	 0.231912
H	-2.9045573476	-3.4951162071	-1.2207068927	 0.086811
H	-4.0702530335	-1.0044719532	 0.170327892	 0.089213
H	-4.7474295253	-1.8510748097	-1.2301471713	 0.106173
H	-4.4661597404	-3.0253693993	 1.2993027855	 0.287997
