23
gdb 84442	3.23068	1.36117	1.20068	0.1602	90.66	-0.2299	0.0225	0.2524	1169.579	0.207099	-351.165016	-351.156597	-351.155653	-351.197151	34.749	
C	-0.196470991	 1.5493967582	-0.0084450129	-0.401591
C	 0.0257701317	 0.0282190131	 0.0064682677	-0.009526
C	 0.754447505	-0.4549790224	-1.2306416125	-0.083567
C	 1.8670308729	-1.1773916216	-1.1012337303	-0.098641
C	 2.3786771714	-1.5058141908	 0.2919062968	 0.311205
C	 3.6429603991	-2.3446054455	 0.2987300313	-0.497748
C	 1.1412996235	-1.9586217856	 1.1360649099	-0.26113
C	 0.7940407579	-0.447869748	 1.2578713368	-0.02792
C	 2.3220238883	-0.1805238118	 1.1190435678	-0.251335
H	 0.7548564462	 2.0908736954	 0.0036156376	 0.118774
H	-0.7424523977	 1.8588772327	-0.9059422547	 0.110645
H	-0.7782225713	 1.8671523974	 0.8636742051	 0.109645
H	-0.969678713	-0.4433977965	 0.0254769457	 0.076003
H	 0.3490030472	-0.1923786149	-2.20459084	 0.081482
H	 2.4198489172	-1.5440174089	-1.9623650066	 0.079589
H	 4.4629482404	-1.8291179173	-0.2154158482	 0.113719
H	 3.9699216954	-2.5576155333	 1.3217515999	 0.108156
H	 3.4854701322	-3.303256186	-0.2098672796	 0.113756
H	 0.4166423438	-2.621709105	 0.6552180541	 0.088807
H	 1.4455375955	-2.3784011338	 2.1001092215	 0.086994
H	 0.2992917296	-0.1090255318	 2.1720806549	 0.05406
H	 2.8286887363	-0.2882491097	 2.0832805008	 0.087953
H	 2.6586671594	 0.7358602962	 0.6277486548	 0.090671
