18
gdb 84351	3.2663	1.272	1.02159	3.6904	77.74	-0.2647	-0.0016	0.2631	1174.3452	0.147683	-401.973837	-401.965144	-401.9642	-402.007105	32.726	
C	 0.0019814502	 1.6093895446	 0.0027191077	-0.398369
C	 0.112884164	 0.0816934916	-0.0166878937	-0.040303
C	 0.9214678214	-0.4869973823	-1.1628753241	-0.059593
C	 1.6684871228	-1.5250580008	-0.8024527665	-0.079612
C	 1.4624910549	-1.849573924	 0.667710867	-0.214431
C	 2.6710256155	-2.211715821	 1.4039271882	 0.258173
N	 3.6134375873	-2.4679854833	 2.0232088072	-0.330368
C	 0.8063679436	-0.5341583647	 1.2289447933	 0.091843
O	 1.7764285533	 0.3788677918	 1.6867738089	-0.420097
H	 0.9886770702	 2.071689225	 0.0578514262	 0.144309
H	-0.5004090788	 1.9598706168	-0.9045044776	 0.110515
H	-0.5803542105	 1.9512523192	 0.863436326	 0.119098
H	-0.9050107338	-0.3342739934	-0.069189843	 0.088471
H	 0.8548710646	-0.0890334256	-2.1695680159	 0.105302
H	 2.3134581835	-2.1164544622	-1.4395967235	 0.11775
H	 0.7551480756	-2.6850849496	 0.7747645907	 0.131365
H	 0.0870449698	-0.7739772312	 2.0239345606	 0.075938
H	 2.2936150364	-0.0389634807	 2.3850393985	 0.300009
