16
gdb 27070	3.18588	1.39232	0.98403	1.145	75.99	-0.1764	0.0234	0.1998	1141.1717	0.128116	-430.286826	-430.27883	-430.277885	-430.31968	30.455	
N	-0.4880830685	 0.3896897056	 1.4472534785	-0.626089
C	-0.1941742932	-0.5100773791	 0.4166724282	 0.214235
C	-0.9160512388	-1.3714650346	-0.3843458802	 0.298563
N	-2.2772683014	-1.7149836658	-0.4153542794	-0.37658
C	-3.3558347088	-1.0433977448	 0.0641798527	 0.084721
N	-3.2965633722	 0.028970641	 0.764822023	-0.476267
N	-0.1052108127	-1.9960346091	-1.3027565828	-0.32289
C	 1.101589896	-1.5310500179	-1.0790433115	 0.004437
N	 1.100289947	-0.6254882307	-0.0639784042	-0.263337
H	-1.5011846088	 0.5454985411	 1.4437820539	 0.265022
H	-0.2223529248	 0.021333558	 2.3569513235	 0.231203
H	-2.4578427453	-2.4876209634	-1.0366637498	 0.258713
H	-4.2903939994	-1.5414868024	-0.2163398556	 0.09363
H	-4.2299709412	 0.3452891446	 1.0089684552	 0.222356
H	 1.9986601679	-1.8209494314	-1.6039291572	 0.127665
H	 1.8709116042	-0.068344601	 0.2655498156	 0.264618
