23
gdb 100809	2.09149	1.0563	0.88181	4.3445	86.68	-0.2282	0.0287	0.2569	1473.5201	0.203656	-384.475122	-384.464026	-384.463082	-384.511653	39.767	
C	 0.3706831369	 1.8149384673	-0.2580701995	-0.381357
C	 0.2099391584	 0.3074366312	-0.0517261088	-0.18506
C	 0.58048925	-0.5326068289	-1.2869762925	 0.058804
C	 0.5699335425	-2.0393329427	-0.9669981069	-0.409277
N	-0.226165605	-0.1505910146	-2.4627190816	-0.052788
C	 0.4025918091	-0.444343768	-3.7422945615	-0.343298
C	-1.6100937813	-0.5952816051	-2.4179681778	-0.298678
C	-2.4664596575	 0.2128722843	-3.2990574224	 0.282544
N	-3.1452010831	 0.83430088	-3.9973513742	-0.310746
H	 1.4126684818	 2.0711875949	-0.4803842958	 0.111319
H	-0.2399674954	 2.1611636125	-1.0952964603	 0.135023
H	 0.0764985982	 2.3683262037	 0.6386769193	 0.111353
H	 0.8455439338	-0.0271644619	 0.7772090777	 0.098654
H	-0.8176294448	 0.0798009533	 0.2624052544	 0.093797
H	 1.6069856443	-0.2584776867	-1.5610148485	 0.082237
H	 1.3080560809	-2.2680704009	-0.1922834101	 0.120289
H	-0.4063675654	-2.3675971716	-0.5934133194	 0.115619
H	 0.8160868098	-2.6413017122	-1.847191313	 0.119595
H	 0.4991044543	-1.5247530199	-3.9551081686	 0.098403
H	-0.1846640404	 0.0028139288	-4.5500745579	 0.144875
H	 1.4010690208	 0.000138547	-3.7680852321	 0.126984
H	-1.7485016548	-1.6549607359	-2.7034847254	 0.129566
H	-1.9973400434	-0.4928025143	-1.4000957949	 0.152143
