19
gdb 65188	3.08158	1.11606	1.04527	3.0317	77.06	-0.2514	0.0037	0.2551	1224.4702	0.158672	-419.171441	-419.162475	-419.161531	-419.20547	33.174	
C	-0.1910376738	 1.5654980412	-0.0209058685	-0.504907
C	-0.1387686765	 0.050828397	-0.0538870711	 0.322498
C	 0.9080357006	-0.6116379885	-0.8843903603	-0.274875
N	 1.0105391298	-0.6216946709	 0.5838619832	-0.345839
C	-1.420155355	-0.7130399495	 0.1699535415	-0.058388
C	-2.6714078049	-0.0730622561	 0.7151734007	-0.259367
N	-2.5946746222	-0.4984346608	-0.6605704729	-0.062981
C	-2.7307952543	 0.3131834951	-1.7668026908	 0.140916
O	-3.5141678236	 1.2282570326	-1.8655457906	-0.301138
H	 0.7768189353	 1.9849603133	-0.3118740404	 0.118606
H	-0.9435112996	 1.971436401	-0.7042219815	 0.154498
H	-0.4268983218	 1.9270677527	 0.9857987689	 0.131701
H	 0.7180280422	-1.5826713396	-1.3340054473	 0.122841
H	 1.5770153473	 0.0270467301	-1.4552467931	 0.116632
H	 1.6866522474	 0.072605932	 0.8927570852	 0.233155
H	-1.236905888	-1.7547422963	 0.4241698003	 0.112892
H	-3.328556989	-0.650714204	 1.3592700077	 0.130599
H	-2.6716583928	 0.9975703891	 0.8968106691	 0.137305
H	-2.0803849612	-0.0198119884	-2.5982047203	 0.085852
