14
gdb 128924	7.16722	0.77117	0.73038	2.0566	68.09	-0.3052	-0.0437	0.2615	1443.5095	0.102935	-429.045362	-429.037598	-429.036654	-429.079331	26.438	
N	-0.0288887025	-1.1389969832	-0.0177071326	-0.28811
C	-0.0349549207	 0.0158845526	-0.0352949235	 0.260736
C	-0.0128021821	 1.4750558616	-0.056034072	-0.341175
C	 1.4271866213	 2.013049464	 0.0685097044	-0.144976
N	 1.4394925889	 3.4631968741	 0.0234041524	 0.142864
N	 1.1403053027	 4.1604207624	-1.0672794825	-0.251107
C	 1.2579745904	 5.4032764412	-0.6183552378	 0.082902
N	 1.6103028195	 5.4571911185	 0.6868296275	-0.200779
N	 1.7193862166	 4.2153374513	 1.0835202796	-0.118953
H	-0.4550551216	 1.8327603215	-0.9911049497	 0.184378
H	-0.6248594643	 1.8584703263	 0.7670654153	 0.175026
H	 1.8741773992	 1.7289601494	 1.0213380402	 0.176313
H	 2.0477664746	 1.6349983211	-0.7464194262	 0.166944
H	 1.0935603779	 6.273328959	-1.232792895	 0.155937
