19
gdb 10683	2.7452	1.80481	1.32985	2.011	77.33	-0.2424	0.043	0.2854	1004.2524	0.163585	-327.868229	-327.859264	-327.85832	-327.901272	33.968	
C	-0.1129944707	 1.5477259129	 0.553792696	-0.385874
C	-0.0625688416	 0.108514074	 0.0140648413	-0.04686
C	 0.9945705408	-0.7186956276	 0.7558072958	-0.419028
C	-1.4761738105	-0.5033201766	 0.0210407666	 0.086955
C	-1.7242577004	-1.9357223578	 0.37349271	-0.279273
N	-2.1265463956	-0.8751356553	 1.304974068	-0.335982
C	-2.3700674633	 0.113206863	-0.9348322973	 0.340895
C	-3.075707103	 0.6256578315	-1.7626766913	-0.429919
H	 0.8625210737	 2.0328881031	 0.4515641645	 0.11101
H	-0.8521028495	 2.1444809645	 0.0133156332	 0.134751
H	-0.3834107241	 1.5599755098	 1.6158628084	 0.113205
H	 0.2363478323	 0.1566281683	-1.0405016273	 0.09077
H	 0.7352970776	-0.8757549815	 1.8099644096	 0.111023
H	 1.1522623448	-1.6967359018	 0.2935989881	 0.122589
H	 1.9516515107	-0.1888801071	 0.7420637959	 0.120609
H	-2.5481378258	-2.4564854201	-0.1048137603	 0.127202
H	-0.8724300297	-2.5599337425	 0.622968479	 0.115125
H	-1.4416239515	-0.8007996768	 2.054809408	 0.230555
H	-3.7145701144	 1.0750857101	-2.4819294082	 0.192245
