16
gdb 79220	2.65426	1.64245	1.28933	2.264	73.37	-0.2492	0.006	0.2552	992.3841	0.126236	-396.867573	-396.860239	-396.859295	-396.8992	28.908	
N	-0.1038476575	 1.5208130499	 0.0197249328	-0.53034
C	-0.0342594235	 0.0952236582	-0.0835628633	 0.012004
C	-1.3189793374	-0.7209105509	-0.0965473952	-0.060837
C	-0.7303863247	-1.7747591826	-0.9537588212	-0.094275
N	-1.8105796301	-0.9219047511	-1.5089751101	-0.145577
C	-0.8086669124	-0.2309353313	-2.3801339278	-0.19278
C	 0.3152289289	-0.6892382637	-1.4316202851	 0.149158
C	 1.6780967245	-0.865140092	-1.8412741501	 0.133552
N	 2.7832070409	-0.9931563484	-2.1612743848	-0.340472
H	 0.8128246389	 1.9527278959	-0.0109691121	 0.244282
H	-0.6864022664	 1.9428869409	-0.6933786265	 0.239583
H	 0.6262734587	-0.2868776734	 0.6999235955	 0.11213
H	-2.0635819644	-0.8072168474	 0.6830119367	 0.116623
H	-0.7251501528	-2.8551556499	-0.9238481321	 0.120791
H	-0.7811968974	-0.7366904867	-3.3467953289	 0.13533
H	-0.9525364751	 0.8455424925	-2.5264535277	 0.100829
