18
gdb 85248	2.80522	1.54319	1.12919	2.7166	73.05	-0.2212	-0.027	0.1942	1090.7229	0.146607	-439.079332	-439.070868	-439.069923	-439.112041	32.479	
C	 0.0495286361	 1.4799553193	 0.0030010438	-0.318386
N	 0.0672456537	 0.0286617522	 0.0495039021	-0.068166
C	 0.5749229792	-0.6184369172	-1.1619552584	-0.291157
C	 1.1490721477	-1.9426435135	-0.6699589693	 0.335639
O	 1.2151157598	-2.9924930557	-1.2663421493	-0.347007
C	 1.4750524426	-1.7962648728	 0.7739204228	 0.338439
O	 1.5709071714	-2.9620042534	 1.5060765559	-0.477473
C	 2.2695935758	-0.5642737985	 1.1806174301	-0.363212
C	 0.7560366564	-0.534490405	 1.1954225525	-0.079134
H	 1.0535852312	 1.9287236742	-0.109306315	 0.09764
H	-0.5675409489	 1.8128634308	-0.8373785877	 0.125263
H	-0.3961631831	 1.8698681584	 0.9232062119	 0.12548
H	-0.2140378164	-0.7902920313	-1.9003453881	 0.139982
H	 1.3748715797	-0.0432664595	-1.6641000712	 0.113849
H	 1.5213163211	-3.6763312898	 0.8526509627	 0.297396
H	 2.7625736709	-0.6761876413	 2.1404631386	 0.136215
H	 2.8255988386	 0.0007615143	 0.4396249276	 0.119844
H	 0.2345007741	-0.4751258713	 2.1448875809	 0.114789
