23
gdb 101118	3.09141	1.07857	0.9268	1.4702	85.89	-0.2286	0.0854	0.314	1389.534	0.204641	-388.25723	-388.247548	-388.246604	-388.29189	36.658	
C	 0.1406564493	 1.4688675959	 0.0294769302	-0.397249
C	-0.0210584018	-0.0473669888	-0.1123811874	-0.166928
C	-1.4804276708	-0.5437500751	-0.0184235075	-0.084681
C	-2.3581804487	-0.04628104	-1.1739799615	-0.410747
C	-1.4887034223	-2.0437676971	 0.0910045407	 0.508399
C	-1.476924838	-3.0675143933	-1.0045693336	-0.333326
C	-2.5470558423	-3.1294278365	 0.0725648044	-0.206627
C	-1.9066154501	-3.601817851	 1.3682282303	-0.088296
O	-0.8593938839	-2.6008153332	 1.2625382077	-0.33394
H	 1.1986443027	 1.7490322478	 0.0206612543	 0.112819
H	-0.348002464	 2.0140782655	-0.7842234945	 0.114457
H	-0.2876730939	 1.8253767975	 0.9732026606	 0.114122
H	 0.4036033844	-0.3798952428	-1.0689070747	 0.092776
H	 0.5572471903	-0.5474502961	 0.6719946759	 0.12037
H	-1.9012838662	-0.1614515437	 0.9229027295	 0.077722
H	-2.4473500715	 1.0427745273	-1.153969265	 0.120715
H	-1.9354140223	-0.3261172609	-2.1451213523	 0.118035
H	-3.3701228247	-0.459719981	-1.1117667008	 0.114243
H	-1.8374304143	-2.7370846322	-1.9732444483	 0.114132
H	-0.6840256007	-3.8105467259	-1.0363713623	 0.110047
H	-3.6062724716	-3.08686992	-0.1432753783	 0.097462
H	-2.5213798493	-3.4225080336	 2.2580660826	 0.10546
H	-1.5051112106	-4.6223479129	 1.3973193798	 0.101036
