22
gdb 116682	2.76155	0.88263	0.74259	2.8515	87.77	-0.2302	0.0191	0.2493	1641.5406	0.191475	-404.33092	-404.320228	-404.319284	-404.367843	37.885	
C	 0.6815778187	-0.2167912499	 1.6108703191	-0.37152
C	 0.2425271628	-0.203266364	 0.1430886522	-0.220573
C	-1.2444311485	-0.4779681276	-0.0448275405	 0.353868
C	-1.6949841078	-1.1419697186	-1.3316173751	-0.333456
C	-1.6958871106	-1.9131355552	-0.0251740638	-0.279023
N	-2.0655469676	 0.4846491929	 0.6459736626	-0.270451
C	-2.7874360534	 1.2664491308	-0.0254581221	 0.116818
O	-3.538428792	 2.1991532992	 0.5934023383	-0.19224
C	-4.3522105814	 2.995280734	-0.2587914945	-0.249533
H	 1.7505946526	 0.000360744	 1.7004263197	 0.102045
H	 0.1260425712	 0.5273169225	 2.1864065439	 0.138145
H	 0.4962528266	-1.195325164	 2.0661564954	 0.112592
H	 0.479405074	 0.7704364254	-0.3054489961	 0.090884
H	 0.8078147441	-0.9530689493	-0.423206811	 0.088591
H	-2.6611688249	-0.8846092412	-1.7506211643	 0.103609
H	-0.9439563958	-1.3836904592	-2.0765326954	 0.108372
H	-0.9489074384	-2.686013023	 0.1242165977	 0.107349
H	-2.6598197617	-2.1241621621	 0.4247328959	 0.115165
H	-2.8710683607	 1.2675622139	-1.1216064793	 0.079508
H	-3.7516181264	 3.536204693	-1.0004172298	 0.126861
H	-5.1049986946	 2.3889721899	-0.7774120974	 0.126553
H	-4.8574425563	 3.7165622188	 0.3845343345	 0.146433
