15
gdb 125347	3.38438	1.73127	1.1536	2.0442	73.12	-0.2029	0.0016	0.2045	997.1173	0.116045	-413.021947	-413.014836	-413.013891	-413.053365	26.965	
C	-0.0341066782	 1.5256633612	 0.0526083259	-0.500098
C	-0.0071022864	 0.0403279541	-0.022918681	 0.235819
C	-0.0223470691	-0.8481094311	-1.0751902433	-0.15487
N	 0.014649831	-2.1798346008	-0.6875301467	-0.406553
C	 0.0519612227	-2.0852323146	 0.6170488878	 0.5048
N	 0.1003482219	-2.868445397	 1.7310039444	-0.360717
N	 0.1234654256	-2.114325588	 2.8715888591	-0.203396
C	 0.0868508339	-0.8708183783	 2.470399039	 0.00573
N	 0.0416944361	-0.789903803	 1.0977071565	-0.077649
H	 0.8579534035	 1.9357655885	 0.543451356	 0.129145
H	-0.0743116326	 1.940789891	-0.9572913261	 0.142633
H	-0.9090813947	 1.9003501021	 0.5992999413	 0.129173
H	-0.0588339706	-0.5870891182	-2.1234911819	 0.110116
H	 0.1271754884	-3.8698176756	 1.7908124595	 0.288306
H	 0.0913204687	-0.0245287603	 3.1360863795	 0.15756
