19
gdb 94329	2.67652	1.23473	1.09835	1.7466	82.21	-0.2566	0.019	0.2756	1208.8943	0.156783	-385.829419	-385.820273	-385.819329	-385.863604	34.345	
C	-0.2768087503	 1.413571478	 0.1424617124	-0.391537
C	 0.0364273745	-0.0667205092	-0.0579098338	-0.091274
C	 1.3178561845	-0.375243446	-0.9012417736	-0.229972
C	 2.0907837902	-0.7504400701	 0.4011556218	-0.323245
C	 0.7488992977	-0.7229467713	 1.1327385984	 0.472393
O	 0.5651250178	-0.3603425218	 2.4852859362	-0.277733
C	 0.2037493782	-1.7037940381	 2.0931460261	-0.279583
C	-1.1919451304	-2.0443802826	 2.1096580285	 0.351119
C	-2.3546735201	-2.351096494	 2.1061160556	-0.431982
H	 0.6135293286	 1.9727365584	 0.4504150633	 0.115959
H	-0.6498852889	 1.858387128	-0.7857290806	 0.11285
H	-1.0354356278	 1.5466160331	 0.9190173367	 0.13235
H	-0.8640264517	-0.5987232722	-0.3794471157	 0.084308
H	 1.1891463852	-1.2225534386	-1.5778029017	 0.107063
H	 1.7210222315	 0.4670866231	-1.4674048638	 0.103346
H	 2.6430006656	-1.693063682	 0.4072325693	 0.107823
H	 2.7543296084	 0.0458452743	 0.749861314	 0.119988
H	 0.8773094181	-2.4685262929	 2.4794426292	 0.115118
H	-3.382845141	-2.6171692661	 2.1132826179	 0.203007
