19
gdb 41354	2.81783	1.8855	1.6802	1.4475	73.79	-0.2376	0.0671	0.3046	902.2066	0.162394	-422.975647	-422.969144	-422.968199	-423.006089	27.871	
C	 0.0158191913	 1.553914961	 0.250886918	-0.301985
C	 1.5605847769	 1.4219729217	-0.0748804083	-0.328444
C	 1.1434795557	 0.2270445332	-0.9583373413	 0.398844
C	 0.5373499585	 0.6378977886	-2.3222155552	-0.120471
O	-0.720314449	-0.0707458684	-2.3623885509	-0.275177
C	-0.7273583148	-0.8533582363	-1.1717975297	-0.00139
C	 0.4633204695	-1.8783743087	-1.2873148053	-0.099403
O	 1.6843194197	-1.0786920615	-1.1313023857	-0.348371
C	-0.0929789298	 0.0337650549	-0.1021632335	 0.018066
H	-0.242730088	 1.8201231249	 1.2760222204	 0.108486
H	-0.5091207114	 2.220143578	-0.4340980308	 0.126064
H	 2.0714213312	 2.262329837	-0.5501935476	 0.104391
H	 2.1179883241	 1.1075553651	 0.8102103656	 0.11953
H	 0.349884641	 1.7102108172	-2.4404537579	 0.098178
H	 1.1944210985	 0.2990081171	-3.1304777604	 0.108407
H	-1.7091504218	-1.3110291963	-1.0486353945	 0.082891
H	 0.4421344841	-2.6567991154	-0.5156069181	 0.104691
H	 0.4564062685	-2.3443891572	-2.2770071366	 0.115913
H	 0.1649657258	-0.5460669948	 0.7877262318	 0.089781
