16
gdb 127624	3.42187	1.68133	1.13551	3.7261	77.75	-0.1946	0.0272	0.2218	1024.8605	0.127396	-396.954665	-396.946985	-396.946041	-396.98751	28.425	
C	 0.0519824935	 1.4170203077	-0.002703058	-0.344659
N	 0.0370396951	-0.0232552871	 0.0366929829	-0.113956
N	-0.0100673508	-0.7533523893	-1.1269309458	-0.274295
C	-0.0126992362	-2.0333529128	-0.7693369247	-0.15356
C	 0.0325689191	-2.1823332687	 0.6410276468	 0.217619
C	 0.062673755	-0.8654427779	 1.0937413351	 0.469546
N	 0.1089526374	-0.8320604573	 2.4572662314	-0.424661
C	 0.1078645024	-2.1635883499	 2.8915161036	-0.059417
C	 0.0622455987	-3.0093600588	 1.8141608568	-0.334926
H	 0.9643426521	 1.82031605	 0.4529380847	 0.130091
H	 0.0198779471	 1.7103540994	-1.0516182293	 0.166712
H	-0.8182689317	 1.8404320419	 0.5130953895	 0.130056
H	-0.0469638604	-2.7890980337	-1.5402769378	 0.108537
H	 0.1363505554	-0.0251461955	 3.0529963566	 0.263104
H	 0.1406594858	-2.3791778878	 3.9477651545	 0.119658
H	 0.0519120876	-4.0865926601	 1.8697097138	 0.100151
