19
gdb 101048	2.22225	1.17333	1.03439	3.9764	75.63	-0.2707	0.0166	0.2873	1266.1602	0.158156	-419.187163	-419.177289	-419.176345	-419.222039	35.667	
C	-0.0724583396	 1.6180635487	 0.4790598804	-0.425877
C	-0.047480586	 0.14126337	 0.0659043102	-0.073299
C	 0.8737872271	-0.6968258064	 0.9745083763	-0.084898
O	 2.2244925935	-0.2719974373	 0.9142559626	-0.418555
C	-1.4501008408	-0.463167649	 0.0241691782	 0.154168
C	-2.2538283152	-0.3870326912	-1.2343626338	-0.269868
N	-1.7116937116	-1.6723650221	-0.7887933655	-0.336879
C	-2.1640616054	-0.4427345365	 1.2883590421	 0.2937
N	-2.7106377146	-0.3847916426	 2.3056200315	-0.349985
H	 0.9386307733	 2.0339746269	 0.4571563839	 0.119687
H	-0.6897706671	 2.2111046632	-0.2019050188	 0.125589
H	-0.4763717417	 1.7388185011	 1.4900703829	 0.141712
H	 0.3536920326	 0.0701984837	-0.9539651782	 0.083996
H	 0.4893637087	-0.6846663035	 2.0047768427	 0.116922
H	 0.8672985644	-1.740331025	 0.6411577732	 0.115608
H	 2.329917833	 0.4852622039	 1.4967926997	 0.290859
H	-3.3343724319	-0.302884896	-1.1783407377	 0.145179
H	-1.7918921127	 0.1237482279	-2.0753743438	 0.127538
H	-0.869060416	-1.9031731157	-1.3112904358	 0.244403
