14
gdb 4706	4.77034	1.49576	1.14682	4.266	70.99	-0.2364	-0.054	0.1825	991.1672	0.106894	-382.593064	-382.585815	-382.58487	-382.62487	25.876	
C	 0.1102964659	 1.4557782972	 0.0406731367	-0.492806
C	-0.061420604	-0.0185666268	-0.0180681012	 0.359299
C	-1.1567447094	-0.8251650384	-0.1832351008	-0.253538
C	-0.6761082731	-2.1608413607	-0.1520375156	-0.223178
C	 0.6809859046	-2.0824433635	 0.0301296555	 0.249771
O	 1.0553270391	-0.7696985564	 0.1118863082	-0.185652
C	 1.6862302094	-3.122249812	 0.1383076507	 0.063381
O	 2.8740687945	-2.94841	 0.3003300549	-0.284988
H	 0.7800350344	 1.8065324375	-0.7519570345	 0.152311
H	-0.8557298236	 1.9505100819	-0.0762667637	 0.140552
H	 0.5466286407	 1.7640781273	 0.996918335	 0.152303
H	-2.1752948811	-0.4937515221	-0.310376174	 0.119763
H	-1.2490658842	-3.0704091968	-0.2503200433	 0.128966
H	 1.2463638969	-4.1409847773	 0.0550469122	 0.073816
