16
gdb 35876	2.28708	1.80111	1.17591	3.039	68.33	-0.2711	0.0038	0.2749	1033.9454	0.124559	-437.871491	-437.86366	-437.862716	-437.904532	29.041	
N	-0.1363558492	-1.1108749937	-0.4474773487	-0.327128
C	-0.1053701869	 0.0205221481	-0.2161863586	 0.29062
C	-0.0610291219	 1.4683655839	 0.0439917351	-0.106273
O	-0.4889764839	 1.7721916113	 1.3662269583	-0.25572
C	 0.6363707461	 2.3187027496	 2.0428708984	 0.005832
O	 1.4134873245	 2.9483041571	 1.058577037	-0.259715
C	 1.3616550559	 2.0651740237	-0.0336895226	 0.39595
C	 2.5905480602	 1.2924612686	-0.4216444877	-0.337318
C	 2.0770056028	 2.4380234773	-1.2811396505	-0.3348
H	-0.7412836645	 1.9642994447	-0.6586513081	 0.140522
H	 0.2888172231	 3.0627459238	 2.7625031193	 0.133239
H	 1.2029597348	 1.5176601659	 2.5451499653	 0.104864
H	 3.4792195598	 1.4761193316	 0.1711688457	 0.132448
H	 2.4766280601	 0.2786294921	-0.7885625855	 0.147537
H	 1.6104846909	 2.2001614491	-2.2313543463	 0.131202
H	 2.6279239383	 3.3715167171	-1.2641467309	 0.138739
