18
gdb 107449	3.07957	1.41056	1.18301	2.9286	70.76	-0.245	0.0579	0.3029	1075.904	0.148466	-439.033408	-439.025658	-439.024714	-439.065655	30.349	
O	 0.1308762701	 1.3610854207	 0.1806982296	-0.412673
C	 0.0764402013	-0.0234407052	-0.1265411174	-0.172771
C	-1.3307516159	-0.5516282827	-0.1554485727	 0.277764
N	-2.0140763007	-0.9529824981	 1.1012243853	-0.355824
C	-1.7066961245	-1.9742837878	 0.0813020895	-0.104811
C	-2.8716189305	-2.3548322269	-0.8347005937	-0.252577
C	-3.206325149	-1.0826634917	-1.6107954027	 0.031609
O	-3.6659308122	 0.0088750416	-0.8116077349	-0.234403
C	-2.2927382776	-0.0018351104	-1.1982897448	-0.008219
H	-0.3884831307	 1.5058228546	 0.9791264598	 0.29003
H	 0.542502875	-0.1209509009	-1.1139705664	 0.11616
H	 0.6779729974	-0.6233221251	 0.5771956848	 0.082724
H	-1.3171637092	-1.0260063269	 1.8426019979	 0.222817
H	-0.9604223685	-2.7270522153	 0.3201285877	 0.088959
H	-2.5538798138	-3.1366644696	-1.5337896956	 0.105191
H	-3.7336260745	-2.7305101395	-0.2752482653	 0.12741
H	-3.6502713785	-1.1505519433	-2.6019019567	 0.094927
H	-1.9699498081	 0.8115294566	-1.8416463743	 0.103687
