19
gdb 13796	4.07422	1.24168	1.13142	1.6316	74.38	-0.2264	-0.0236	0.2028	1150.0325	0.163367	-365.055954	-365.046851	-365.045907	-365.090018	32.538	
C	-0.2308637281	 1.630346423	-0.4492181469	-0.373582
C	-0.4394711061	 0.1200185088	-0.36900618	-0.130555
N	 0.5972157573	-0.5527685311	-1.1596667332	-0.080006
C	 1.8390505941	-0.901591001	-0.5162798939	-0.238041
C	 0.8945258044	-1.9845669373	-0.9558013769	-0.108836
C	 0.2137937548	-2.8072622766	 0.1008453889	 0.386114
C	-0.2109098562	-4.1981216947	-0.3310420348	-0.485972
O	 0.008931591	-2.3946674451	 1.2242516268	-0.320859
H	 0.7233844408	 1.9188624627	 0.0038819269	 0.117795
H	-0.2278754087	 1.9692400436	-1.4891378718	 0.123149
H	-1.0284993236	 2.1532346394	 0.0871230539	 0.114053
H	-0.4538512454	-0.2131319024	 0.6752067599	 0.129197
H	-1.4063390945	-0.1467401749	-0.8119728307	 0.098652
H	 2.7482703767	-0.7315793688	-1.0875714352	 0.117783
H	 1.918315311	-0.7619731551	 0.5608554403	 0.132966
H	 1.0957870351	-2.5117213465	-1.8856265108	 0.090001
H	 0.6516871794	-4.7607182778	-0.7068292403	 0.141172
H	-0.6603933798	-4.7274555234	 0.5094208862	 0.142299
H	-0.9291542221	-4.1345037429	-1.1569204584	 0.144671
