14
gdb 75859	3.4826	1.26215	0.9588	6.6658	74.59	-0.2377	-0.0522	0.1855	1138.8766	0.102036	-432.893914	-432.885827	-432.884882	-432.926858	29.617	
O	 0.0508946473	 1.4010574961	-0.1059317621	-0.415765
C	-0.0037279825	-0.0025749842	-0.0371134142	-0.046498
C	 0.6079490406	-0.525914508	 1.2725997736	 0.384391
N	 1.7527645631	-0.1605574897	 1.6736655007	-0.541654
N	-0.3480458916	-1.3571425646	 1.8518795419	-0.344315
C	-1.5361714138	-1.3015312822	 1.1376055776	-0.087249
C	-1.425393544	-0.5333778167	 0.0353862084	 0.124274
C	-2.4240925112	-0.3077228123	-0.9329191323	 0.206649
N	-3.2360932982	-0.1160000361	-1.738281887	-0.342897
H	 0.9273033311	 1.649665045	 0.2195363028	 0.299875
H	 0.5273445442	-0.4609574305	-0.8875646172	 0.114871
H	 2.0043945586	-0.5447826653	 2.584819842	 0.221506
H	-0.2752528436	-1.7275135125	 2.7855907447	 0.266054
H	-2.3960539599	-1.8607532888	 1.477976171	 0.160758
