21
gdb 60572	3.57377	0.95434	0.84636	1.4058	79.12	-0.2586	0.0833	0.342	1431.3337	0.181351	-424.188204	-424.17868	-424.177736	-424.223026	35.464	
C	 0.002569626	 1.5155848608	-0.2841168801	-0.401539
C	-0.0034319019	 0.0321447369	 0.0173477438	-0.005626
C	 1.2595798433	-0.7918823212	-0.0548652246	-0.307112
C	 0.5870591183	-0.5477997205	 1.2790630739	-0.006672
C	 1.2483885022	 0.317170547	 2.3357314605	 0.072394
O	 0.3002846424	 1.0305700774	 3.1133203983	-0.442262
C	 2.1271897316	-0.537150494	 3.2413082323	 0.068761
C	 2.4338537391	-0.1361638797	 4.6161270538	-0.189633
O	 1.4261318076	-1.1263778316	 4.3469856399	-0.253838
H	 0.9512815002	 1.9865204884	-0.0111355182	 0.113606
H	-0.150131711	 1.6911217502	-1.3545889852	 0.111891
H	-0.791430615	 2.0338830779	 0.2628320797	 0.129899
H	-0.9031649989	-0.4744682515	-0.3232396728	 0.084052
H	 1.2249488497	-1.7870812044	-0.48425304	 0.110114
H	 2.1863955914	-0.2593158436	-0.2509209343	 0.105928
H	 0.051263682	-1.3939060727	 1.7047310577	 0.086676
H	 1.8797253327	 1.0734799842	 1.8548374271	 0.088574
H	-0.0588004855	 0.385901282	 3.7389560871	 0.287254
H	 2.8077776793	-1.2168532004	 2.7288015304	 0.1003
H	 3.3307029517	-0.515817132	 5.1017593991	 0.118198
H	 2.0539461248	 0.8133394066	 4.9841165817	 0.129036
