16
gdb 81517	2.3104	1.97732	1.21879	4.5817	70.15	-0.2496	0.0252	0.2747	991.9672	0.124832	-433.986622	-433.978584	-433.97764	-434.018761	31.184	
N	 0.1717709939	 1.4413482264	-0.0053635282	-0.57677
C	 0.0848522764	 0.0027519625	-0.0446525599	 0.259837
C	 1.0907609539	-0.4831241737	-0.9889475039	 0.248598
N	 1.9046059736	-0.7410723022	-1.767460114	-0.3476
C	-0.0557627909	-0.6911219962	 1.3501514214	-0.120932
N	-1.4536374712	-0.0987853731	 1.3877705537	-0.349345
C	-1.3316978927	-0.7256421852	 0.0100222032	-0.114767
C	-0.6712248096	-1.9572560578	 0.6652418133	 0.124582
O	 0.0548213609	-2.8115212205	-0.1605628849	-0.409937
H	 0.1109856488	 1.8350898151	-0.9378577718	 0.241094
H	-0.593460159	 1.793229815	 0.5616482102	 0.253754
H	 0.6307556073	-0.6071957784	 2.1937367626	 0.099106
H	-2.059061441	-0.6797485577	 1.9750669076	 0.220128
H	-2.1381801857	-0.6829205527	-0.7225094338	 0.097886
H	-1.3489181685	-2.5020154149	 1.338633807	 0.077923
H	 0.6911598438	-3.3063874567	 0.3661413875	 0.296443
