20
gdb 84230	2.84939	1.61192	1.39408	0.6479	85.87	-0.206	-0.0403	0.1657	1043.0311	0.17011	-365.899411	-365.891235	-365.89029	-365.931543	32.626	
C	 0.0347474232	 1.5150064235	-0.0860361254	-0.398485
C	 0.0082067623	-0.0117712893	-0.0766096245	 0.036225
C	 0.8359658681	-0.5802769857	-1.234568109	-0.121938
C	 1.632763341	-1.5428298912	-0.735401529	-0.020869
C	 2.9991860639	-1.0656159962	-0.2283594201	-0.275047
C	 2.1893103669	-0.8929462678	 1.1250816474	-0.103456
N	 0.6815949727	-0.5913779956	 1.1281011649	-0.163958
C	 1.1755819097	-1.8871147171	 0.711548806	 0.314081
C	 0.7308077502	-3.2002328116	 1.27408595	-0.519157
H	 1.0608318767	 1.8888248912	-0.1667436309	 0.119884
H	-0.5425250964	 1.9111657669	-0.9269395701	 0.11803
H	-0.3942623162	 1.8964185146	 0.8446455351	 0.130454
H	-1.0348369909	-0.3514837602	-0.0151271181	 0.088896
H	 1.1429819146	 0.075218419	-2.0461757627	 0.097426
H	 3.7695426891	-1.8273986335	-0.0594810381	 0.10951
H	 3.4329974061	-0.1939425389	-0.7245166626	 0.105421
H	 2.6535976986	-0.7719491108	 2.0989897169	 0.103584
H	-0.2213957028	-3.5165435646	 0.8335562714	 0.125203
H	 1.4669952362	-3.9850295085	 1.070171906	 0.122912
H	 0.5959568169	-3.1212669841	 2.3564366628	 0.131283
