13
gdb 132675	3.22409	1.37103	0.96196	1.2663	64.24	-0.2184	-0.0221	0.1963	1087.4341	0.089805	-497.92339	-497.916269	-497.915324	-497.954824	27.755	
O	 0.0687691006	 1.38661434	-0.1021789632	-0.445389
C	 0.0589801084	 0.0275687207	-0.0754231758	 0.282097
C	-0.0206306572	-0.7154023217	-1.2426306032	-0.149706
C	-0.0283878186	-2.109832867	-1.1741993552	-0.274711
C	 0.0457940461	-2.682418333	 0.0836393632	 0.320767
F	 0.0418082625	-4.0085486952	 0.2036343321	-0.075762
N	 0.1226122111	-2.0029334763	 1.2145000006	-0.40437
C	 0.1285540949	-0.6851689235	 1.13096692	 0.32696
O	 0.206610772	 0.0483146498	 2.2703501229	-0.441991
H	 0.1309974836	 1.6991881052	 0.8088786346	 0.311386
H	-0.075843339	-0.1993334664	-2.1941948439	 0.125172
H	-0.089275484	-2.7292694692	-2.0589127018	 0.116975
H	 0.2489396795	-0.5754161636	 3.0070863298	 0.308571
