13
gdb 46834	2.79469	1.66886	1.19209	4.2641	64.98	-0.2666	-0.03	0.2366	985.8436	0.08809	-456.537795	-456.530421	-456.529477	-456.569737	27.563	
O	-0.0330892934	 0.0128657791	 0.2305797311	-0.318882
C	-0.01037244	 1.1826914411	 0.0029321564	 0.405417
O	-1.133464447	 1.9333563384	-0.1704198122	-0.232972
C	-0.8392025141	 3.2636338084	-0.6273297658	-0.106839
C	 0.6597843326	 3.4183054317	-0.5058111639	-0.06773
O	 1.1175751539	 3.1760507837	 0.8157502262	-0.277762
C	 1.2018129185	 2.0935514141	-0.1488240253	 0.125777
C	 2.4838779335	 1.5671581493	-0.4851744552	 0.213463
C	 3.5516076352	 1.0998936921	-0.7736998627	-0.357883
H	-1.1725140394	 3.3653120326	-1.6655637757	 0.133698
H	-1.3848438372	 3.9714427712	 0.0027373568	 0.1448
H	 1.2112702777	 4.1434633551	-1.0957020264	 0.132814
H	 4.4970799798	 0.6835601133	-1.0220326133	 0.206098
