21
gdb 80071	2.4345	1.72222	1.46162	0.3356	87.05	-0.2215	0.0232	0.2447	1030.2896	0.185528	-349.941716	-349.934098	-349.933154	-349.973295	31.676	
C	-0.0995323466	 1.5555081325	-0.0698229695	-0.418532
C	 0.0153158915	 0.0475735847	 0.0065522239	-0.018431
C	 1.3082796218	-0.7107578103	-0.2863014187	-0.104263
C	 2.6050307671	-0.0050981695	-0.3854456807	-0.07105
C	 3.2944869115	 0.4418289803	 0.6723690511	-0.077402
C	 2.8486565841	 0.2720162637	 2.0738833783	-0.065349
C	 1.7413091913	 1.1340779643	 2.6556534049	-0.308038
C	 1.4587662756	-0.3007436215	 2.2891357368	-0.033317
C	 0.6718243002	-0.7773082366	 1.0949955276	-0.065916
H	 0.8696571223	 2.0507134389	 0.0174436912	 0.129318
H	-0.5218157216	 1.8418440497	-1.039546495	 0.110043
H	-0.7614147438	 1.9535488481	 0.7067586603	 0.117631
H	-0.8618037803	-0.4511140433	-0.4005016266	 0.082477
H	 1.2105639876	-1.5733153553	-0.9407476695	 0.081154
H	 3.0132390565	 0.1354921079	-1.3836390445	 0.083083
H	 4.2518060962	 0.9335706207	 0.5163019559	 0.083898
H	 3.6296288336	-0.0186984213	 2.7715723381	 0.084016
H	 1.8028363906	 1.3691868644	 3.7131387829	 0.106882
H	 1.3419232437	 1.9319291076	 2.0469002692	 0.119408
H	 1.3645098237	-0.9692341256	 3.1386293744	 0.082907
H	 0.1426887149	-1.7011993894	 1.3068464101	 0.081479
