16
gdb 128211	2.13003	1.72779	1.01305	5.757	74.9	-0.2346	-0.0414	0.1932	1141.3081	0.125644	-434.087993	-434.079729	-434.078785	-434.121276	29.649	
C	-0.6900805324	 0.7184040598	-0.1283890114	-0.338679
N	 0.6749767623	 0.1663694492	-0.1291799744	-0.391537
C	 1.0789040353	-0.5103168179	 1.0253381351	 0.416554
C	 1.8843185915	-0.1513359527	 2.0757483443	-0.329823
C	 1.9178851177	-1.2990158735	 2.914008925	 0.033468
N	 1.1931704604	-2.2941794954	 2.4475525012	-0.234416
N	 0.6857656326	-1.8202954185	 1.2694254831	-0.070999
C	-0.0279066429	-2.647672076	 0.3895415835	 0.181249
O	-0.3659838381	-3.7709310136	 0.6317070435	-0.266173
H	-0.8628919124	 1.4419014441	 0.68091493	 0.123878
H	-0.8690236196	 1.2078838997	-1.0887081981	 0.134533
H	-1.4174040395	-0.0899094857	-0.0224354747	 0.142007
H	 1.3458848654	 0.8918966477	-0.3483394539	 0.246025
H	 2.3630473508	 0.8025054485	 2.2297504581	 0.110251
H	 2.443580515	-1.4193294188	 3.8511851947	 0.125819
H	-0.2192312461	-2.122930207	-0.5604806661	 0.117843
