18
gdb 66594	3.00465	1.87261	1.58736	2.4287	73.06	-0.2145	0.0667	0.2812	899.4271	0.150097	-401.882942	-401.876229	-401.875285	-401.913691	28.022	
O	-0.0511764044	 1.3551638531	-0.1843117189	-0.467915
C	 0.0195670381	-0.0080465669	 0.0007225961	 0.375158
C	 1.1726491269	-0.8795088455	-0.5716859783	-0.179226
C	-0.2574712791	-1.0670975378	-1.0094996498	-0.090435
N	-0.432457008	-2.0574062666	 0.1482923585	-0.1863
C	 1.0925359558	-2.1518552817	 0.2604266094	 0.021168
C	 1.4505821406	-2.0398243819	 1.7415268854	-0.228837
C	 0.3066332457	-1.1549863604	 2.3244549931	-0.237725
C	-0.574382574	-0.875035891	 1.1083807252	-0.047564
H	 0.679357919	 1.771152313	 0.2866217102	 0.287799
H	 1.9948774821	-0.4244226685	-1.1118999758	 0.085264
H	-0.7643610143	-1.1006185816	-1.9626146749	 0.104428
H	 1.467985929	-3.0477450144	-0.2394520572	 0.073989
H	 1.4650688904	-3.0259271409	 2.2146641135	 0.107677
H	 2.4419965865	-1.5978969941	 1.8787375282	 0.099698
H	-0.2496461301	-1.686787701	 3.1014582763	 0.108697
H	 0.674390812	-0.2258153039	 2.7708523078	 0.096369
H	-1.6243053261	-0.6622367599	 1.3202845611	 0.077754
