22
gdb 80419	2.38583	1.73539	1.25439	0.7536	80.74	-0.223	0.0672	0.2903	1091.864	0.19492	-404.31898	-404.310219	-404.309274	-404.351524	35.241	
C	-0.1251393972	 1.5419630905	 0.1242496096	-0.411043
C	 0.0759192392	 0.0355020361	 0.0366523614	 0.05063
C	 0.9670060524	-0.5262094554	-1.1386518529	-0.014824
C	 1.6149391067	 0.4647535988	-2.1035433155	-0.417135
C	 1.9638033682	-1.294030156	-0.2477072496	 0.385023
O	 2.9461953088	-1.9652244818	-0.9691519275	-0.487978
C	 1.0062141604	-1.937780535	 0.7927783142	-0.243965
N	 0.7690119648	-0.5162294184	 1.2579873515	-0.133204
C	 2.2203013883	-0.2750044355	 0.8992745182	-0.251979
H	 0.8169720707	 2.0945675727	 0.1760452162	 0.115896
H	-0.675363397	 1.9087233733	-0.7479437876	 0.115239
H	-0.7036973326	 1.7820031984	 1.0208401439	 0.125612
H	-0.9133364985	-0.4328184685	 0.006790539	 0.075127
H	 0.3937847682	-1.248473641	-1.731339071	 0.071523
H	 2.2334787348	 1.208922893	-1.5929239391	 0.110723
H	 2.2601372285	-0.0713852758	-2.8057470007	 0.129576
H	 0.8599621543	 1.004317116	-2.6840092038	 0.110761
H	 3.5438103613	-2.3955808953	-0.3492040027	 0.281161
H	 0.1158833138	-2.4706974607	 0.4451266732	 0.097958
H	 1.5150783813	-2.5110531857	 1.5733268643	 0.093689
H	 2.8666436186	-0.6615936445	 1.6925588096	 0.095771
H	 2.4931959052	 0.7563263849	 0.6684279194	 0.101438
