14
gdb 80118	2.99482	1.52822	1.29185	0.8104	68.98	-0.2407	-0.0055	0.2352	977.4912	0.099842	-436.630799	-436.623055	-436.622111	-436.662863	29.283	
O	-0.1310186095	 1.4060868603	-0.1073402068	-0.420156
C	-0.0752368381	 0.0277898463	-0.0079490068	 0.034583
C	-0.4453727325	-0.6878436268	 1.2655801532	-0.154606
N	-1.1922498043	 0.0966799815	 2.2147577537	-0.275341
C	-2.2800053929	 0.415100434	 1.6290402405	 0.094167
O	-2.5219650497	-0.0525436609	 0.3865729385	-0.226648
C	-1.3608728229	-0.79293113	 0.0112539191	 0.210011
C	-1.5903205915	-1.9265816369	-0.8141489982	 0.207108
C	-1.7419839728	-2.8901187441	-1.5177022175	-0.368083
H	-0.1156442781	 1.7712839816	 0.7864185601	 0.302096
H	 0.7219273064	-0.4294123969	-0.5881698211	 0.123953
H	 0.1618210232	-1.4976890958	 1.6513429297	 0.119932
H	-3.066387657	 1.0347315772	 2.0421598275	 0.154873
H	-1.8864372004	-3.7390295095	-2.1393161719	 0.19811
