19
gdb 91198	3.05481	1.52042	1.15894	2.4947	76.55	-0.2413	0.0142	0.2555	1076.53	0.161195	-423.016478	-423.008892	-423.007947	-423.048408	30.413	
O	 0.0553549579	 1.3855389837	-0.1596877818	-0.438125
C	 0.010131929	-0.0066852984	-0.0683835367	 0.153279
C	 0.3910558096	-0.7137436638	 1.2680997183	-0.290186
C	-0.8132723552	-1.6877830064	 1.0311318309	-0.054136
C	-1.737171646	-2.0287290106	 2.1546975713	-0.076323
C	-2.9151161589	-1.4205871915	 2.2798496814	-0.0794
C	-3.3401555949	-0.3229653796	 1.3408408646	-0.11979
O	-2.2521313114	 0.2620420502	 0.6423924012	-0.28519
C	-1.3907463558	-0.672505607	 0.0124940805	 0.054091
H	-0.7032202333	 1.7047700423	 0.3466559686	 0.290035
H	 0.5873992422	-0.4126868319	-0.9046738303	 0.086908
H	 1.3906137452	-1.1459081558	 1.3455803682	 0.099364
H	 0.2113289717	-0.0584218634	 2.1234385016	 0.107325
H	-0.4747424541	-2.595542455	 0.5201826066	 0.081607
H	-1.4276506079	-2.7931210809	 2.8630425041	 0.093158
H	-3.6121886489	-1.6851529275	 3.0699897772	 0.095039
H	-4.0951112044	-0.6958292802	 0.6258622821	 0.103925
H	-3.8100836584	 0.495725603	 1.897379362	 0.118558
H	-1.8525106164	-1.0624223173	-0.90488077	 0.059859
