20
gdb 87860	3.30137	1.26622	1.16502	2.2355	77.87	-0.2312	0.0802	0.3113	1146.4006	0.171536	-403.116408	-403.10832	-403.107376	-403.148945	31.812	
C	-0.288176408	 1.5178441023	 0.4073101466	-0.422616
C	-0.1904535126	 0.0151234126	 0.3815771413	-0.005853
O	 0.9557527545	-0.5528551772	-0.271291213	-0.308443
C	 0.8054205066	-0.7737008176	 1.1290753141	 0.409265
C	 1.8429907818	-0.1986083753	 2.0939044798	-0.322553
C	 1.7027131159	-1.0771004563	 3.3241348342	-0.013101
C	 0.3326827611	-1.2990258283	 3.8541387738	-0.245784
N	 0.9590072458	-2.3184170822	 2.9992486783	-0.099492
C	 0.5575795525	-2.2171555147	 1.5890709429	-0.24499
H	 0.6781934213	 1.9765571067	 0.6281605521	 0.129751
H	-0.6253620769	 1.8916372424	-0.5650866383	 0.132004
H	-1.0140598028	 1.8443991524	 1.1604353627	 0.121377
H	-1.1244836811	-0.4954108732	 0.1333676316	 0.086312
H	 2.84153465	-0.3072877611	 1.6557189277	 0.121582
H	 1.6909582679	 0.8624215782	 2.3090459709	 0.111598
H	 2.5605562771	-1.1908700894	 3.980182193	 0.093317
H	 0.1916547659	-1.6007619104	 4.8878135668	 0.116918
H	-0.4793521098	-0.7008443382	 3.4442461015	 0.110267
H	-0.4810497458	-2.5358751173	 1.4572688949	 0.109834
H	 1.1923704566	-2.8896223235	 1.0004064792	 0.12061
