16
gdb 5833	2.73675	1.87131	1.45465	1.1422	61.45	-0.2479	-0.1049	0.1429	915.0731	0.126274	-420.898031	-420.888934	-420.88799	-420.931554	32.439	
C	 0.1011509978	 1.4827348682	-0.1696412692	-0.442258
C	 0.01910721	-0.0306728375	 0.1028901679	 0.239553
C	 0.6615001876	-0.3958793186	 1.4377021072	-0.394545
O	-1.3335172051	-0.4744795064	 0.1610956274	-0.463337
C	 0.7191341119	-0.7784987683	-1.0434921165	 0.285529
O	 1.8229579535	-1.2657378622	-0.9894916705	-0.284079
C	-0.0200670559	-0.9062705877	-2.391496332	 0.096434
O	-1.077887957	-0.390678599	-2.6541926947	-0.240059
H	 1.1394974372	 1.8283910946	-0.1803697979	 0.129634
H	-0.3594656056	 1.7385274752	-1.1282041883	 0.131294
H	-0.4361806315	 2.0112461314	 0.6230451451	 0.136133
H	 0.1699130353	 0.1605274092	 2.239490384	 0.123192
H	 0.5441445796	-1.4643679332	 1.6333497056	 0.130933
H	 1.7270759852	-0.1600993961	 1.4328023239	 0.131381
H	-1.763478524	-0.2045906781	-0.6610133319	 0.29633
H	 0.557484701	-1.5058184416	-3.1254942402	 0.123865
