20
gdb 121388	4.41445	0.80505	0.7141	2.429	76.58	-0.2431	0.0208	0.2639	1566.5392	0.172249	-440.294916	-440.28591	-440.284966	-440.32935	32.979	
O	 0.1275544708	 1.4311736351	 0.1576164732	-0.421866
C	 0.0792861182	 0.0132574738	 0.0687788166	-0.068112
C	-1.3532553696	-0.5226950327	 0.0367850269	-0.201509
C	-1.4248326576	-2.0525168566	-0.042293503	 0.042317
C	-2.8565083651	-2.5805851537	 0.1184023361	-0.242164
C	-2.8792921071	-4.0671250464	-0.209013833	-0.079884
O	-2.3254063402	-4.322058655	-1.5106162265	-0.225099
C	-1.3154196237	-3.5057325623	-1.8914151392	 0.131903
N	-0.8257226665	-2.4975109094	-1.3066704277	-0.279634
H	-0.2024645807	 1.7850546679	-0.6741387501	 0.279381
H	 0.6324900719	-0.3604447061	-0.8023679139	 0.113862
H	 0.5931714643	-0.3545026498	 0.9646976188	 0.10246
H	-1.8825953592	-0.1743829617	 0.9318424753	 0.09701
H	-1.8786419469	-0.1040671255	-0.8328780521	 0.087423
H	-0.8076763912	-2.4613542054	 0.7729441373	 0.085133
H	-3.23045512	-2.4181310156	 1.134599618	 0.107215
H	-3.5242907981	-2.0453282505	-0.5675176276	 0.112492
H	-2.2979737544	-4.637255659	 0.5271613432	 0.114189
H	-3.8931006437	-4.4736131423	-0.2338085078	 0.120369
H	-0.9266807812	-3.8328907149	-2.8546597543	 0.124514
