17
gdb 131874	5.46923	0.81033	0.73882	3.2767	71.2	-0.2232	0.0245	0.2477	1498.2707	0.137273	-455.151154	-455.142627	-455.141683	-455.185408	30.947	
O	-0.0480709159	 1.4150363035	-0.0549626728	-0.421196
C	-0.0263729036	 0.0025685741	 0.0093769336	-0.067984
C	-1.4252350462	-0.5858046677	 0.037569106	-0.070317
O	-2.047664214	-0.1832511209	-1.189493882	-0.293901
C	-3.3377477766	-0.531150334	-1.3516655496	 0.460046
N	-4.0091746471	-1.2467281162	-0.4590344276	-0.317587
N	-5.2423545064	-1.3679235956	-1.01174489	-0.207966
C	-5.3479699541	-0.75235303	-2.2108137958	 0.002364
C	-4.1209025895	-0.1869978843	-2.4788378366	-0.334946
H	-0.6245009121	 1.639980559	-0.7940553835	 0.290468
H	 0.5318513405	-0.4316102526	-0.835495246	 0.09371
H	 0.4972722025	-0.269668046	 0.9316262478	 0.111182
H	-1.4044288427	-1.6800356939	 0.1075724356	 0.111569
H	-2.0006245367	-0.195266174	 0.8842915403	 0.12248
H	-5.9475947257	-1.8786194626	-0.5111083959	 0.275406
H	-6.2681948627	-0.7610657432	-2.7736330351	 0.137307
H	-3.8244587897	 0.3827871846	-3.3426781686	 0.109364
