17
gdb 95652	2.02272	1.96621	1.19968	2.8042	63.92	-0.2815	-0.0051	0.2764	1039.8306	0.136024	-496.133519	-496.125261	-496.124317	-496.166634	30.972	
C	 0.9630647621	 1.3681339425	-0.160454929	-0.386674
C	 0.0494933537	 0.1557865517	-0.102038343	 0.095215
O	 0.2846855069	-0.6183133209	-1.2954876615	-0.245485
C	 0.2245661232	-1.9857885847	-1.1208070993	 0.007177
O	 1.274155815	-2.4491139216	-0.2435620726	-0.212265
C	 1.3948722751	-1.7458229186	 0.8923441829	 0.418779
O	 2.3063921292	-1.9152858742	 1.6609640517	-0.353802
C	 0.2884273721	-0.7296915981	 1.1578912704	-0.047498
O	 0.5877962202	 0.0263356598	 2.2932275358	-0.434295
H	 2.0137935284	 1.0652092306	-0.1234939706	 0.129989
H	 0.7919316758	 1.9079786812	-1.095285107	 0.127209
H	 0.762679898	 2.0313694825	 0.682059638	 0.141928
H	-1.0001916762	 0.4785460425	-0.1058835543	 0.092402
H	-0.7417865514	-2.3274239093	-0.7198380528	 0.111049
H	 0.4210669574	-2.4596406185	-2.0824986238	 0.144822
H	-0.6277564041	-1.3189014536	 1.3343828464	 0.110278
H	 1.4045684547	-0.3599059212	 2.6496796588	 0.30117
