21
gdb 68787	2.37615	1.44273	1.3264	2.1428	79.16	-0.2174	0.0642	0.2816	1125.1063	0.179854	-424.206521	-424.196801	-424.195857	-424.240005	37.881	
C	-0.0086303772	 1.579293082	 0.1339154903	-0.504033
C	-0.0257802704	 0.0812186473	 0.0672847677	 0.270547
C	 1.1609219933	-0.7420112653	-0.403331318	-0.393732
C	 0.6226007841	-0.992046048	 0.9621241033	 0.380428
O	 1.4336859131	-0.9094406643	 2.0719444565	-0.467977
C	-0.6578965405	-1.8311236337	 0.9477684118	 0.333888
C	-0.592643499	-3.3000941939	 0.5593919596	-0.466464
O	-1.1992336607	-1.6757654808	 2.2616470716	-0.496921
C	-1.2843881758	-0.7944714437	-0.0519722979	-0.339373
H	 0.9670942289	 1.9417298347	 0.4741138651	 0.124232
H	-0.207112264	 2.0321779824	-0.8455239438	 0.11651
H	-0.7665286275	 1.9542795032	 0.8314702326	 0.115384
H	 1.0702452097	-1.4694389978	-1.2090294138	 0.096683
H	 2.1063330062	-0.207140805	-0.395031181	 0.118957
H	 0.8365893804	-0.9091333459	 2.8319734935	 0.29401
H	-0.0063538339	-3.8613051195	 1.293287549	 0.129475
H	-1.598279516	-3.7378072622	 0.513619873	 0.104894
H	-0.1347050316	-3.4311624461	-0.4249934937	 0.122704
H	-2.0210974643	-2.1737589837	 2.3146042042	 0.2796
H	-2.1750627514	-0.3346764981	 0.3838824472	 0.096883
H	-1.5200982734	-1.1653710212	-1.0565722375	 0.084303
