23
gdb 103622	2.55049	1.15673	0.9684	1.572	81.04	-0.2514	0.0646	0.316	1329.1285	0.203672	-425.413546	-425.403055	-425.40211	-425.448246	39.796	
C	 0.5825216434	 1.6631432757	-0.1664899741	-0.423723
C	 0.1235602685	 0.2459023681	 0.1634508976	-0.083574
C	 0.7752863058	-0.8595845168	-0.7342068754	 0.159352
O	 1.2974801963	-0.517746755	-1.995511112	-0.435125
C	 1.736142831	-1.2155299392	 0.4258431751	-0.307981
C	 0.7984231355	-0.4444552058	 1.4060614081	 0.330969
C	 1.4751005565	 0.4351704623	 2.4539945325	-0.46107
C	-0.1993115228	-1.3889110508	 2.0781423483	-0.11927
O	 0.5083031346	-2.2338735676	 2.9750663512	-0.425046
H	 1.6744207175	 1.7585400835	-0.1870703481	 0.103183
H	 0.2073045094	 1.9610852122	-1.1503884068	 0.1259
H	 0.212932189	 2.3831416487	 0.569818382	 0.119194
H	-0.9726461687	 0.2260369553	 0.1811060055	 0.058946
H	 0.0683521564	-1.668993189	-0.9337356077	 0.087072
H	 1.994791183	 0.1328417146	-1.8653152994	 0.277783
H	 1.9247846484	-2.2697403184	 0.6389489133	 0.109671
H	 2.7004205262	-0.7074822897	 0.3110499076	 0.083447
H	 2.220525777	 1.0995361676	 2.0086312169	 0.10413
H	 0.7431638821	 1.0586533697	 2.9817957808	 0.105779
H	 1.9764142378	-0.1896140574	 3.1979981645	 0.135378
H	-0.9579589688	-0.790215223	 2.6100745922	 0.082343
H	-0.7285352544	-1.9847250566	 1.3179588133	 0.084884
H	-0.1218558138	-2.8278474084	 3.3924710747	 0.287759
