17
gdb 89295	2.17913	1.80664	1.18994	4.4611	68.56	-0.2361	-0.0181	0.218	1042.4866	0.133548	-458.943429	-458.934839	-458.933894	-458.977006	32.586	
O	 0.0658015406	 1.1755260983	-0.5660500749	-0.416391
C	-0.0075080226	-0.1238804192	-0.0273372785	 0.121903
C	 0.1493081246	-0.2636740858	 1.52152318	-0.338593
C	-1.3403903623	-0.6790756158	 1.6229654355	 0.411515
O	-1.6649463381	-1.8598765998	 2.2934966775	-0.479005
C	-2.3422417618	 0.5114759512	 1.7534168003	-0.423448
C	-2.4959095212	 0.4964735716	 0.2184821247	 0.452728
O	-3.2127953659	 1.0797401945	-0.5383057524	-0.299845
C	-1.477302532	-0.6362583615	 0.0531512352	-0.240672
H	 0.9859829611	 1.4581341645	-0.5539852764	 0.2886
H	 0.6360732125	-0.821048872	-0.5776101602	 0.084535
H	 0.8168181569	-1.0824764833	 1.8014509553	 0.107538
H	 0.4427268677	 0.6488163556	 2.0483097189	 0.095978
H	-1.5828316189	-1.7047478451	 3.2411923984	 0.281695
H	-3.272456392	 0.2141249401	 2.2489813532	 0.132754
H	-1.9780014056	 1.4444786254	 2.1921239287	 0.123015
H	-1.7472946431	-1.4845413887	-0.5748814153	 0.097694
