18
gdb 24585	4.92272	1.00193	0.95823	1.1053	78.79	-0.2331	0.0063	0.2393	1276.0144	0.150049	-401.974543	-401.966934	-401.96599	-402.008495	28.429	
C	-0.0524238545	 1.5524084617	 0.0129569635	-0.216522
C	 1.4975400057	 1.5253671649	-0.0313969928	-0.221729
C	 1.4557508273	 0.0754161521	 0.5483395792	-0.096025
C	-0.0366948839	 0.0037193217	 0.0927387289	-0.221713
C	 2.4057187241	-0.9265425908	 0.0093155862	 0.390381
N	 2.6218075986	-1.246374041	-1.230327626	-0.311385
C	 3.6005575398	-2.2286795091	-1.1777526376	-0.11361
C	 3.9310815721	-2.4555689608	 0.1140261661	-0.049166
O	 3.1717462634	-1.6261939402	 0.8908789075	-0.172898
H	-0.4251291642	 2.0036963206	 0.9370979992	 0.102354
H	-0.5733362501	 2.0087513604	-0.8310922714	 0.102157
H	 1.8743625071	 1.5090774436	-1.056697942	 0.127175
H	 2.0474792259	 2.2748423775	 0.5422945858	 0.100327
H	 1.5349943274	 0.0844903641	 1.6377838504	 0.089111
H	-0.7398193556	-0.4896498847	 0.7676168735	 0.100321
H	-0.1054172966	-0.4545629816	-0.8965844218	 0.127205
H	 3.9897694198	-2.6944187874	-2.0692155396	 0.121643
H	 4.6177810737	-3.105534261	 0.6278432209	 0.142376
