20
gdb 89402	2.82755	1.41377	1.10177	1.8496	73.96	-0.237	0.0504	0.2874	1145.5081	0.171606	-440.269505	-440.260616	-440.259672	-440.303005	34.181	
C	-0.1618729556	 1.4976770933	 0.0136635168	-0.472341
C	 0.0640129309	 0.0088362205	 0.0990233389	 0.347401
C	-0.899802082	-0.9346042693	-0.6235097537	-0.350659
C	-1.2126303697	-2.0550479977	 0.3959872131	 0.128944
O	-1.4852692673	-3.3307917568	-0.1657530447	-0.444354
C	-0.0193705869	-2.0852666767	 1.3998045725	 0.05276
O	 0.9404915588	-3.0555469771	 1.0004688417	-0.438804
C	 0.5803920883	-0.6889029329	 1.3249719743	-0.08317
N	 1.4614680525	-0.4264385334	 0.1821926536	-0.354992
H	 0.5820786016	 2.029936201	 0.6113020358	 0.130365
H	-0.0726575662	 1.8483018689	-1.0210701688	 0.119869
H	-1.1609849698	 1.7668592207	 0.3742313701	 0.112067
H	-1.8118226655	-0.4231877259	-0.9439949477	 0.111551
H	-0.4383308227	-1.3459525943	-1.5326542168	 0.094778
H	-2.1148138825	-1.7834540112	 0.9543123072	 0.096357
H	-0.8939703954	-3.4466496192	-0.9171599454	 0.283376
H	-0.3738981727	-2.3054121875	 2.4161551881	 0.06932
H	 0.4327942805	-3.8600623483	 0.8308752289	 0.280967
H	 0.8282925999	-0.1658537239	 2.2439970885	 0.086513
H	 1.6237408937	-1.3017538505	-0.3123352523	 0.230053
