15
gdb 32042	2.89389	1.47795	0.98443	4.048	76.57	-0.2112	-0.0551	0.156	1136.45	0.112662	-453.957465	-453.949453	-453.948509	-453.990593	29.023	
C	-0.100705848	 1.4450937346	 0.0097959713	-0.247186
O	-0.0448232035	 0.0138573132	 0.0052668825	-0.250023
C	-1.1814370108	-0.6757665005	 0.0116347571	 0.452324
C	-1.2284306945	-2.0314750888	 0.0084031481	-0.194747
N	-2.4360245052	-2.6864036859	 0.0152991942	-0.210817
C	-3.5260001982	-1.9948749814	 0.0249293865	-0.039947
C	-3.5694598333	-0.5403420156	 0.0291242408	 0.347692
N	-4.6250540977	 0.158493461	 0.0385367151	-0.519961
O	-2.2993703885	 0.0714771861	 0.0216224087	-0.260523
H	 0.9392588325	 1.7699896209	 0.0032230971	 0.149344
H	-0.616454641	 1.8218600841	-0.877514044	 0.144675
H	-0.6035723465	 1.8167170696	 0.9066198393	 0.144672
H	-0.3194856543	-2.6156872557	 0.0003629183	 0.123388
H	-4.4865067573	-2.5004897398	 0.0304411627	 0.136652
H	-4.4177613838	 1.1568071383	 0.0396986924	 0.224458
