20
gdb 10770	2.55779	1.98773	1.34163	2.7454	74.93	-0.2319	-0.0113	0.2205	1004.5983	0.175141	-349.026836	-349.017643	-349.016698	-349.060385	33.564	
C	-0.2516342878	 1.5658487151	-0.0255378218	-0.394384
C	 0.0137911008	 0.0642973864	 0.0114788928	-0.043046
C	 1.2084540082	-0.4180772981	-0.8965518995	-0.086994
C	 1.7009155622	 0.3729936857	-2.0993579981	-0.41521
C	 2.0536298394	-0.4312717331	 0.3850385965	 0.373422
O	 3.2248159141	-0.2936291847	 0.6029287868	-0.31108
C	 0.8057227517	-0.4356402508	 1.2792858705	-0.086995
C	 0.8327961754	 0.3351331223	 2.5908619031	-0.41521
H	 0.6584188155	 2.1505902856	 0.1476415322	 0.123856
H	-0.6559962532	 1.8674594921	-0.9969508796	 0.118917
H	-0.9777778049	 1.8534314902	 0.7413600484	 0.118916
H	-0.9179423373	-0.4785816878	-0.1653599538	 0.07054
H	 1.0251102482	-1.4613428726	-1.1857507536	 0.099237
H	 1.896544073	 1.4181082907	-1.8444925135	 0.124266
H	 2.6377977474	-0.054138666	-2.4693023546	 0.133525
H	 0.9734118056	 0.3519797796	-2.9171251543	 0.116605
H	 0.5340360005	-1.4827585512	 1.4673901818	 0.099238
H	 1.103618601	 1.3835394645	 2.4392367319	 0.124266
H	-0.1391172989	 0.3034212369	 3.0936785858	 0.116605
H	 1.576481209	-0.1004009549	 3.2648737688	 0.133526
