21
gdb 58159	3.30397	0.70284	0.60273	4.001	91.57	-0.2621	-0.057	0.2051	1858.9741	0.178959	-387.082124	-387.070954	-387.07001	-387.120431	38.67	
C	-0.0527164389	 1.5590208417	-0.0299514477	-0.404082
C	 0.0245505413	 0.0262474424	-0.0405293178	 0.049243
C	 0.7452727968	-0.4618809664	-1.3041896258	-0.396869
C	 0.7100944914	-0.5250025226	 1.2444588686	-0.151631
C	 0.0379430632	-0.0560108567	 2.5555743007	-0.404169
C	 0.7648593616	-1.9848797042	 1.2390910571	 0.102921
C	 0.7964116405	-3.1933107327	 1.2732441566	 0.032018
C	 0.8111801197	-4.6319950185	 1.2834802396	 0.014147
O	 1.5466842445	-5.3092369332	 1.965680423	-0.231177
H	 0.9450379117	 2.0022902943	 0.0754297178	 0.115137
H	-0.4749848321	 1.9218729591	-0.9721221166	 0.117017
H	-0.6795222023	 1.9424193163	 0.7789420385	 0.119491
H	-0.9989250442	-0.3726544667	-0.0522501876	 0.083278
H	 1.7698392875	-0.0726433343	-1.344926464	 0.114443
H	 0.7993742524	-1.5529693234	-1.3420434694	 0.12694
H	 0.2249113558	-0.1163557036	-2.2027584195	 0.11462
H	 1.747468097	-0.1574267065	 1.2489287404	 0.11282
H	 0.5159923758	-0.5237889522	 3.4194493267	 0.135552
H	 0.1194507282	 1.0272502677	 2.6659365325	 0.126593
H	-1.0218657231	-0.328509118	 2.5653686724	 0.128763
H	 0.0737122934	-5.0971995025	 0.5972194545	 0.094946
