17
gdb 86694	2.11014	1.4374	0.93136	5.2594	74.69	-0.2534	-0.0391	0.2143	1239.8217	0.134428	-417.996847	-417.987749	-417.986805	-418.031425	31.884	
C	-0.0142875957	 1.4956486769	 0.0301807199	-0.336384
N	-0.0021528385	 0.0523302831	 0.1396005672	-0.058047
C	-1.2329258202	-0.6670509002	 0.5078768405	-0.190576
C	-0.3675336964	-1.6857508912	 1.3108320247	-0.138189
C	-0.0474014934	-2.9260103173	 0.5090378505	 0.173147
O	-0.2876801617	-4.0421828097	 0.8868614236	-0.245985
C	 0.7270963194	-0.5685665955	 1.2543714242	-0.13583
C	 2.1209356452	-0.9277051226	 0.9829563932	 0.300128
N	 3.2232791654	-1.2064515703	 0.7767886008	-0.318184
H	 0.9997473177	 1.8565146698	-0.1668448409	 0.14429
H	-0.6469349161	 1.7910230657	-0.8121436276	 0.136823
H	-0.3930690077	 1.9933992395	 0.9414372442	 0.101778
H	-1.9000574253	-0.097851262	 1.1741403347	 0.106383
H	-1.812690104	-1.0481303498	-0.3389312119	 0.126202
H	-0.7168974763	-1.9662147295	 2.3027918495	 0.11257
H	 0.407478676	-2.7284461984	-0.4859176611	 0.107067
H	 0.7004997116	 0.0255091515	 2.1835365085	 0.114807
