17
gdb 37121	3.68299	1.62281	1.52818	2.1611	69.52	-0.2077	0.0595	0.2672	907.765	0.136808	-421.728354	-421.721731	-421.720787	-421.758966	27.526	
C	 0.0197750675	 1.4835622956	-0.0873924147	-0.39981
C	 1.3674593534	 0.7862891057	 0.0222636433	 0.141058
C	 1.9818409394	 0.4797071726	 1.3700067219	-0.312396
C	 0.797519343	-0.1280007761	 2.1795795791	-0.09347
O	-0.1142769809	-0.6894183008	 1.2204449463	-0.284048
C	 0.0640091499	-0.0104034628	 0.0248827506	 0.324427
C	 0.5269969875	-0.7636481831	-1.2577558467	-0.051178
O	 0.7527468258	 0.2237134655	-2.2672031503	-0.228763
C	 1.7680814222	 0.0162873173	-1.2796203327	-0.03017
H	-0.3115004062	 2.0142777427	 0.7988243909	 0.122623
H	-0.2553353082	 1.9449759529	-1.0269198448	 0.142971
H	 2.7765021948	-0.2640201663	 1.2436132218	 0.111722
H	 2.4170718451	 1.3391077527	 1.8891238909	 0.112802
H	 1.093993536	-0.9228385171	 2.8700106676	 0.115025
H	 0.2879415888	 0.6524959702	 2.7603880214	 0.106803
H	 0.2670871947	-1.7688731653	-1.5664562635	 0.113853
H	 2.7695992773	-0.2026863738	-1.6327159313	 0.108551
