21
gdb 91154	2.35827	1.76503	1.35125	1.5886	83.09	-0.2367	0.0132	0.2499	1052.5053	0.184133	-387.088988	-387.080899	-387.079955	-387.121061	32.869	
C	-1.1223925832	 1.0960787514	 0.1503105959	-0.413558
C	-0.1065273333	-0.0410972178	-0.0286870764	-0.017695
C	 0.8876640956	 0.1125453201	-1.1686470543	-0.088081
C	 2.1063075736	-0.3404214521	-0.857764158	-0.10638
C	 2.1876956392	-0.8489891267	 0.5632185917	-0.067527
C	 2.9680314548	 0.0576483681	 1.5554234535	-0.25928
C	 1.6536411205	 0.8449764069	 1.8308599777	 0.123596
O	 1.6026080413	 2.1213559032	 1.2257722954	-0.424577
C	 0.8381026744	-0.3278223688	 1.1560836638	-0.060071
H	-0.6326439488	 2.0397899136	 0.393083793	 0.141718
H	-1.7148971669	 1.2283055543	-0.7618359705	 0.104776
H	-1.8197784469	 0.8598122074	 0.9611356524	 0.110002
H	-0.6887698375	-0.9563282349	-0.225913621	 0.082361
H	 0.5968948166	 0.5011555728	-2.1402490129	 0.092302
H	 2.9529774416	-0.3699898469	-1.5369647386	 0.093056
H	 2.4136191234	-1.9199152402	 0.6082680934	 0.070099
H	 3.326032259	-0.4909359525	 2.4315636465	 0.099442
H	 3.7916599994	 0.6564201046	 1.1549586433	 0.095471
H	 1.4125029023	 1.0158031627	 2.8827179935	 0.084459
H	 1.8385003935	 2.0095019181	 0.297166234	 0.276924
H	 0.3879169314	-0.9695168133	 1.9171495478	 0.062963
