21
gdb 114697	3.79894	1.08413	0.97008	1.0283	78.96	-0.2386	0.0946	0.3332	1322.9244	0.181036	-424.221393	-424.212237	-424.211293	-424.255273	34.711	
C	 0.1040548715	 1.4426263754	-0.1736982584	-0.385578
C	-0.0103596857	-0.0758053223	-0.0184202663	-0.202918
C	-1.4487408439	-0.5483790859	 0.0190434711	 0.224017
O	-2.1062055778	-0.2615844105	-1.2127682785	-0.274058
C	-3.0847057206	-1.2612079992	-1.3628647337	 0.019911
C	-2.5978143741	-2.5776309249	-1.9355197051	-0.35754
C	-2.7161273973	-2.3770610633	-0.437750462	 0.397237
C	-3.6424100131	-3.1661469049	 0.4424318176	-0.466956
O	-1.5098497693	-1.9591589098	 0.1795369237	-0.309272
H	 1.1524095953	 1.7529650676	-0.1960093564	 0.114603
H	-0.3716614937	 1.7741288568	-1.1004733256	 0.137338
H	-0.3803360914	 1.9659117826	 0.6581599579	 0.114605
H	 0.4861919037	-0.591610732	-0.8470407932	 0.109056
H	 0.4713080245	-0.4082202472	 0.9077673508	 0.10865
H	-2.0066291656	-0.0630989048	 0.8422603492	 0.062059
H	-4.0964077911	-0.9022779471	-1.5230918272	 0.100976
H	-3.3302250539	-3.2156134566	-2.4211650803	 0.110273
H	-1.6011719211	-2.5912463345	-2.3605898376	 0.12321
H	-4.5705354725	-3.4004840626	-0.087102799	 0.118805
H	-3.1775300516	-4.1108380685	 0.7434134252	 0.131396
H	-3.8924221824	-2.6051922683	 1.3487329678	 0.124187
