21
gdb 37888	2.94697	2.04768	1.65188	0.2357	85.2	-0.2641	0.0931	0.3572	913.0531	0.187486	-349.920099	-349.913898	-349.912953	-349.950159	27.765	
C	-0.0722742716	 1.5442038732	 0.0068501903	-0.333983
C	 1.4693102288	 1.2624878734	 0.0175764669	-0.089943
C	 1.2199208799	 0.0490489134	 0.9527789193	-0.019588
C	 2.1900491999	-1.0842649413	 0.6095213292	-0.248205
C	 1.8566177967	-1.1918785433	-0.8983721141	-0.058756
C	 0.5928105168	-2.0969090449	-1.0819627955	-0.204672
C	-0.615188589	-1.3036079167	-0.4413845758	-0.356532
C	 0.0751244788	 0.0090061883	-0.1250655787	 0.347838
C	 1.255016989	 0.2091053003	-1.1133414778	-0.006942
H	-0.5028347681	 1.9334403068	 0.9345727153	 0.087352
H	-0.4674874721	 2.0785840335	-0.8624952865	 0.088178
H	 2.2672211145	 2.0033352949	 0.1024494337	 0.06279
H	 0.9564575862	 0.2332236289	 1.9968024482	 0.054246
H	 3.2343842508	-0.8096060442	 0.7960355627	 0.091005
H	 1.9847046231	-2.0099196742	 1.1577623803	 0.088395
H	 2.6893068387	-1.4979524093	-1.5346987159	 0.052478
H	 0.4041908282	-2.2574644696	-2.1486885224	 0.09594
H	 0.7335641528	-3.0833099914	-0.6292666543	 0.094802
H	-1.4363277198	-1.1887031518	-1.1556321751	 0.100798
H	-1.0185965693	-1.8034931562	 0.4446834041	 0.097928
H	 1.0320584756	 0.5413736303	-2.1297625839	 0.056872
