20
gdb 56259	5.3526	0.61775	0.59639	2.5985	77.22	-0.243	0.0335	0.2765	1887.136	0.169181	-440.299077	-440.288674	-440.28773	-440.337163	35.529	
C	-0.085829491	 1.3914320855	-0.1130687428	-0.481329
C	-0.234094458	-0.1173887574	-0.2375178636	 0.405058
O	-1.1762183262	-0.7210716802	 0.2466662895	-0.380188
N	 0.7602212735	-0.7513649311	-0.9248406297	-0.309226
C	 0.7361340303	-2.1872251956	-1.149757852	-0.15738
C	-0.1562249077	-2.6028271321	-2.3309297735	-0.220627
C	-0.1473871648	-4.0968635877	-2.5320648654	 0.100053
C	-0.173973107	-4.7148920014	-3.8623960375	-0.17968
O	 1.0407559862	-4.6520997912	-3.1134328079	-0.241552
H	 0.8578645101	 1.776689468	-0.508194223	 0.109805
H	-0.9135242826	 1.8731661917	-0.6414644027	 0.151137
H	-0.1702010968	 1.6644658812	 0.9414996144	 0.153827
H	 1.4880366489	-0.2058464765	-1.3539486238	 0.245248
H	 1.761027867	-2.528485289	-1.3210782468	 0.119904
H	 0.3683251209	-2.6572733605	-0.2328981	 0.136055
H	-1.1787420603	-2.2640951221	-2.1311916905	 0.129913
H	 0.1896711147	-2.1117849153	-3.2476349185	 0.094247
H	-0.5379403618	-4.6835150821	-1.6980030685	 0.097594
H	-0.5943742526	-5.7114102312	-3.9909912368	 0.115388
H	-0.2118175028	-4.0794887131	-4.7467039308	 0.111753
