16
gdb 11808	3.42434	1.81747	1.38971	2.4176	65.6	-0.2441	-0.0291	0.215	901.1735	0.128984	-383.724546	-383.716734	-383.715789	-383.75683	28.972	
O	 0.5252928668	 0.8151683421	-0.7294813425	-0.420089
C	 0.149567547	-0.3404988124	-0.0443522162	-0.00766
C	 0.080239768	-0.3270580755	 1.4975490416	 0.339782
O	 0.6370702597	 0.3371632454	 2.3235043233	-0.294738
C	-1.193131377	-1.1980082865	 1.4983063039	-0.422497
C	-1.3301269461	-0.8054232546	 0.0171706911	 0.298743
C	-2.4546690416	-0.0181877845	-0.585818753	-0.310836
C	-2.142223965	-1.4164114392	-1.077518416	-0.334718
H	 0.3126113261	 1.5742481323	-0.1744801957	 0.294011
H	 0.7905780164	-1.1581957096	-0.3995555333	 0.11461
H	-0.9742569429	-2.2598503379	 1.6559744917	 0.130733
H	-1.9749420117	-0.8855129304	 2.1945937534	 0.132726
H	-3.3557070434	 0.1304351667	 0.0004064286	 0.116218
H	-2.1851685976	 0.8129494332	-1.2296720946	 0.124399
H	-1.6820196074	-1.5202703212	-2.0552613624	 0.122218
H	-2.8325979314	-2.213201758	-0.8198321299	 0.117098
