23
gdb 92371	2.09503	1.8784	1.48089	1.488	83.96	-0.2322	0.0769	0.3091	1058.6998	0.207675	-388.319483	-388.311153	-388.310208	-388.351612	34.244	
C	-0.2463738456	 1.5304641722	-0.0375428735	-0.418595
C	 0.0299348208	 0.0355635066	 0.0229670722	 0.144429
O	 0.7152025889	-0.3866590072	-1.1771316785	-0.304162
C	 1.8296053767	-1.1872162048	-0.752637248	 0.106988
C	 2.9163951213	-0.23619253	-0.2166585418	-0.21917
C	 2.2899149838	 0.2258611283	 1.1369670891	-0.24829
C	 0.921683569	-0.5082500692	 1.1714358765	 0.28468
C	 0.2428147433	-0.5494185985	 2.5299405353	-0.489066
C	 1.311061444	-1.8601667711	 0.5226170442	-0.261039
H	 0.6741755609	 2.1129565074	-0.1264893515	 0.120198
H	-0.8656051645	 1.7532883493	-0.9113371591	 0.12522
H	-0.7891778962	 1.8631710692	 0.8537073236	 0.111443
H	-0.9394075081	-0.4884122385	 0.0679796876	 0.062297
H	 2.1283856733	-1.8260257858	-1.5850033049	 0.067593
H	 3.8705835259	-0.7528560609	-0.0713446325	 0.091783
H	 3.0800304439	 0.5858650393	-0.9171823709	 0.103398
H	 2.8982312632	-0.096784177	 1.988245032	 0.092386
H	 2.1880069274	 1.3108376999	 1.214246761	 0.098407
H	 0.010150905	 0.4577768026	 2.8935983152	 0.116646
H	-0.6962090165	-1.1127089237	 2.4889848814	 0.113547
H	 0.887408031	-1.0261249292	 3.2761764298	 0.113944
H	 0.4578719497	-2.5199875804	 0.3413647947	 0.09665
H	 2.0809814627	-2.4013527284	 1.080780998	 0.090713
