19
gdb 31142	1.92249	1.78209	0.99071	2.4065	79.79	-0.1817	0.0527	0.2344	1215.2984	0.158847	-419.228733	-419.218707	-419.217763	-419.264098	36.17	
C	 0.1563307011	 1.4148867981	-0.3063462338	-0.321062
N	-0.1015366361	 0.0092391364	 0.0307575427	-0.391843
C	 0.626996192	-0.46779198	 1.1525530523	 0.084938
C	 1.781047409	-1.2282473105	 1.0967795022	 0.290516
C	 2.51967926	-1.7332990004	-0.0949392975	-0.508323
N	 2.1736173033	-1.4721129471	 2.3861078671	-0.314099
C	 1.2886785828	-0.8965168011	 3.2832470902	-0.234538
C	 0.3259470612	-0.2644258532	 2.5342755658	 0.248985
O	-0.7721443749	 0.4455458771	 2.9378008466	-0.456926
H	 1.2051765825	 1.5284252051	-0.5969989148	 0.118257
H	-0.4639666047	 1.6983263471	-1.1630414837	 0.107174
H	-0.0450244847	 2.114991825	 0.5190007543	 0.109981
H	-1.0948509814	-0.1068658476	 0.2024505709	 0.225538
H	 3.4865410166	-1.2336865474	-0.2386770502	 0.120955
H	 2.7143861856	-2.811015832	-0.0317075956	 0.117197
H	 1.9095024714	-1.5479539442	-0.9821202704	 0.15211
H	 2.980908535	-2.0089882219	 2.6464150318	 0.25434
H	 1.4218052608	-0.9898156786	 4.3487129541	 0.103736
H	-0.8250342794	 0.4198179952	 3.897623828	 0.293065
