17
gdb 53453	4.61076	0.45339	0.41599	0.4077	104.86	-0.228	-0.0029	0.2251	2593.8216	0.132279	-347.490654	-347.479466	-347.478522	-347.535399	36.268	
C	 0.1264981315	 1.528655234	 0.0329613091	-0.496195
C	 0.0695539383	 0.075151902	-0.021904919	 0.069232
C	 0.0179994713	-1.125493084	-0.0669367508	 0.084579
C	-0.0408439438	-2.5882773817	-0.1220016405	-0.53314
C	-1.4008324142	-3.1229998776	-0.0675093699	 0.316095
C	-2.5224459746	-3.5736698427	-0.022954495	-0.211791
C	-3.783863557	-4.0804157064	 0.0271681492	-0.200426
C	-4.9057568066	-4.5320459488	 0.0717186873	 0.25305
C	-6.2519645344	-5.0729850998	 0.1251796523	-0.518155
H	 0.7026509046	 1.8726170364	 0.8989066613	 0.148332
H	 0.5970062999	 1.9433480932	-0.8652451623	 0.148336
H	-0.877677006	 1.9595742569	 0.1103793795	 0.152208
H	 0.4496646986	-2.943032074	-1.0401278574	 0.160567
H	 0.5469627159	-3.0126399763	 0.704924073	 0.160567
H	-6.2524933385	-6.1536441294	-0.0573352476	 0.155413
H	-6.7102085069	-4.9011417488	 1.1057857361	 0.155612
H	-6.896577368	-4.6081121829	-0.6294550853	 0.155718
