17
gdb 61977	3.95165	0.76188	0.66926	4.7565	70.17	-0.2715	-0.0029	0.2686	1622.2351	0.133969	-455.183841	-455.173562	-455.172618	-455.221161	34.585	
C	-0.192714439	 1.439918187	-0.0104435229	-0.480639
C	 0.0690962578	-0.0449976359	-0.0088565577	 0.428033
O	 1.1458544898	-0.5784933584	-0.0315253081	-0.333535
O	-1.100217759	-0.7371076081	 0.0245191838	-0.251614
C	-0.9779693381	-2.1648469709	 0.0343168638	-0.070642
C	-2.4192332459	-2.7032125235	-0.0273828348	-0.137725
N	-3.1890412938	-2.304904904	-1.2051654266	-0.503398
C	-2.3858138251	-4.1691600654	 0.0762243643	 0.2863
N	-2.3241025731	-5.3197638495	 0.1528085858	-0.307271
H	 0.7558682229	 1.9736238155	-0.0459909615	 0.156419
H	-0.8080320983	 1.7136722504	-0.8721563335	 0.150945
H	-0.7471487245	 1.7233807682	 0.8886871639	 0.155265
H	-0.3941414546	-2.4987382641	-0.8289972984	 0.135186
H	-0.4621630461	-2.4917385381	 0.942550492	 0.139948
H	-2.9509975739	-2.3242193788	 0.854833494	 0.14504
H	-3.1578268234	-1.2918942338	-1.2723035916	 0.246275
H	-2.7515146756	-2.6722960707	-2.0460163026	 0.241412
