16
gdb 44756	2.76078	1.69365	1.25136	3.0324	76.41	-0.2597	0.0247	0.2844	1000.0017	0.125043	-400.704875	-400.697594	-400.69665	-400.736407	29.253	
N	-0.0305114569	 1.2267103876	-0.0289264826	-0.566974
C	-0.0375009661	-0.0288881063	-0.0115313559	 0.427765
O	 1.0518924518	-0.8748202616	-0.0189719943	-0.263048
C	 0.4165910167	-2.186726582	 0.0102019267	 0.066611
C	-0.6970855173	-2.0351556292	-1.0449548501	-0.266249
C	-1.2195251232	-0.9888795834	 0.0223763382	 0.093022
C	-0.6595363808	-2.0056588297	 1.0991324546	-0.266249
C	-2.5569813033	-0.4709776193	 0.0386741886	 0.095866
C	-3.6904229405	-0.0728150793	 0.053024392	-0.328868
H	 0.9272619549	 1.5818585145	-0.0505852866	 0.227236
H	 1.179060454	-2.9608226985	 0.0074988534	 0.101358
H	-0.4153486614	-1.6559159007	-2.0284673557	 0.12515
H	-1.3560336373	-2.9004779414	-1.1204111928	 0.122262
H	-1.3150211514	-2.868261903	 1.2213803341	 0.122262
H	-0.3437241221	-1.5996495687	 2.061376841	 0.12515
H	-4.6853893473	 0.2973485509	 0.0652711794	 0.184707
