17
gdb 68032	2.66848	1.78619	1.34883	3.342	66.41	-0.2555	0.0647	0.3202	956.2028	0.135369	-458.906385	-458.898985	-458.898041	-458.937535	30.792	
O	-0.1276703585	 1.3816414038	 0.0480218953	-0.487385
C	 0.0458169005	 0.0036658772	 0.0548144742	 0.379664
C	 0.9494954225	-0.7793997357	-0.9706178395	-0.357335
C	 0.7461560335	-1.9120070032	 0.1051185214	 0.379665
O	 1.501872931	-3.0757332259	 0.1650564905	-0.487385
C	 0.7821408224	-0.7841755427	 1.1777607628	-0.358571
C	-0.7678021654	-2.1603325135	-0.0685283633	 0.005884
O	-1.6031673455	-1.6612241598	 0.986543572	-0.254141
C	-1.2685073358	-0.7907253301	-0.1044937585	 0.005884
H	 0.7351769151	 1.8022287431	 0.119138778	 0.281858
H	 0.5594108646	-0.9484620936	-1.9780870643	 0.101375
H	 1.978247103	-0.404393927	-1.012046209	 0.08225
H	 2.4312659659	-2.837239444	 0.2412528841	 0.281858
H	 1.7998984545	-0.4083397081	 1.320828204	 0.078114
H	 0.2723886909	-0.9456688534	 2.1246714957	 0.128961
H	-1.139321882	-3.0016658984	-0.6428620782	 0.109653
H	-2.0850633969	-0.4147365486	-0.7107907352	 0.109652
