17
gdb 33047	5.00358	0.8417	0.75209	3.9544	71.99	-0.1892	0.0484	0.2375	1495.7237	0.135732	-455.19347	-455.184346	-455.183402	-455.228379	32.641	
C	 0.0869128694	 1.5346421946	 0.0010534244	-0.386912
C	-0.2259577844	 0.1177347376	 0.4393470379	-0.059312
O	 1.0241545597	-0.5450593686	 0.7177890417	-0.277859
C	 0.9188939561	-1.8224952935	 1.1294884531	 0.371124
C	 1.0429092442	-2.3595806147	 2.3591316691	-0.20461
N	 0.8840075817	-3.7442047438	 2.2125771209	-0.334608
C	 0.6841336528	-4.0993235235	 0.8874712853	 0.44665
O	 0.5546051775	-5.208726643	 0.4098936512	-0.431087
N	 0.669270675	-2.867775303	 0.2320546122	-0.403148
H	 0.7070573337	 1.5323790369	-0.8996146097	 0.132153
H	-0.8400797217	 2.0729536712	-0.2167408301	 0.123958
H	 0.6245797386	 2.0710101257	 0.7876283228	 0.133647
H	-0.8437973873	 0.1011399876	 1.3464739405	 0.108498
H	-0.7659129312	-0.4302082156	-0.344375904	 0.104816
H	 1.2126905508	-1.8860648171	 3.3092434245	 0.139299
H	 0.9914114377	-4.436445339	 2.9319399042	 0.268265
H	 0.6740417775	-2.7958670018	-0.770403864	 0.269124
