20
gdb 40199	2.97914	1.55744	1.25908	1.2908	78.23	-0.2401	0.0685	0.3086	1056.1605	0.173592	-403.116803	-403.10928	-403.108336	-403.148825	29.978	
C	 0.0248361486	 1.452364038	-0.026828598	-0.30255
N	 1.2103882997	 0.5920593261	 0.1613393049	-0.365733
C	-0.1266235076	-0.0160615786	 0.0046259562	 0.363953
C	-0.6588031925	-0.8258383568	 1.1778893535	-0.287984
C	-0.3789572476	-2.28578888	 0.7525516972	-0.230744
C	-0.5785690365	-2.3014878668	-0.7737647476	-0.074471
C	-2.0295593985	-2.1643912564	-1.2783573663	-0.07986
O	-1.8394044412	-0.7697671032	-1.6042679866	-0.294772
C	-0.4398742824	-0.8223039301	-1.2367901602	 0.044633
H	-0.2526327618	 2.0410155286	 0.8434095984	 0.118393
H	-0.108577551	 1.9628156479	-0.9774612968	 0.116025
H	 1.7292043654	 0.5324717025	-0.7132222515	 0.225861
H	-0.1736796483	-0.5495658705	 2.1160372919	 0.110532
H	-1.7357725669	-0.6537963176	 1.2853854422	 0.11118
H	 0.6613086677	-2.5394602234	 0.9836401018	 0.110341
H	-1.015201315	-3.0135221015	 1.2659063421	 0.097505
H	 0.0224696	-3.0541456864	-1.2845479769	 0.077025
H	-2.2737561971	-2.7575103852	-2.1685296577	 0.09937
H	-2.8176561842	-2.3090872844	-0.5281097441	 0.099852
H	 0.2076063089	-0.5811271023	-2.0896472126	 0.061443
