19
gdb 101312	2.1188	1.52542	1.02684	2.9354	72.7	-0.2528	-0.0287	0.2242	1197.7374	0.155707	-460.134629	-460.124776	-460.123832	-460.169972	34.858	
C	-0.3650396203	 1.5072558926	-0.8127813024	-0.249306
O	 0.0938858183	 0.3220531914	-0.1863681649	-0.245979
C	 0.8704525434	-0.5185363772	-1.0267728693	 0.085425
C	 1.8805687181	-1.254239809	-0.1498255171	-0.393026
C	 0.0230053496	-1.5069506621	-1.8302085876	 0.049355
O	-0.4569929925	-2.675346	-1.1716283633	-0.239942
C	-1.4281364654	-1.7310859404	-1.6242409983	-0.046175
C	-2.2151206351	-1.0408093181	-0.5464622134	 0.142798
O	-3.1642559152	-0.3384271295	-0.7910718184	-0.264351
H	 0.4784047605	 2.112817796	-1.174615883	 0.110758
H	-1.0420945372	 1.3002649932	-1.6525415364	 0.123256
H	-0.9151571141	 2.0729749091	-0.058166379	 0.140172
H	 1.4072947958	 0.1040842228	-1.7593741772	 0.073325
H	 2.50947189	-0.5345693244	 0.3787995795	 0.124157
H	 1.3543687989	-1.8746373072	 0.5787420441	 0.14466
H	 2.5176974421	-1.9042804081	-0.756877665	 0.120891
H	 0.4010199472	-1.7076439032	-2.8352798841	 0.101792
H	-2.0240293893	-2.0314987899	-2.4867725078	 0.117212
H	-1.8761002149	-1.265610756	 0.4824132634	 0.10498
