12
gdb 978	3.80501	3.40231	1.80937	0.8686	52.74	-0.1809	0.0344	0.2153	645.8036	0.090579	-360.52561	-360.519011	-360.518067	-360.555895	24.081	
N	 0.1488651603	 1.3834772331	-0.1543783597	-0.599592
C	-0.0036997532	 0.0047341572	-0.0597439743	 0.305829
C	-1.1036346501	-0.8011381268	-0.0231713022	 0.167092
O	-2.3951652946	-0.3394769562	 0.0767096769	-0.454942
C	-0.6193220125	-2.1537781889	-0.0167181584	-0.276353
C	 0.7331047166	-2.0631416405	-0.0411903352	-0.019149
O	 1.1233418937	-0.7488259714	-0.0696817747	-0.168652
H	 0.786344404	 1.756979858	 0.5411488332	 0.251922
H	-0.753512924	 1.834733556	-0.0633738362	 0.257875
H	-2.9148712853	-0.7076957083	-0.6453478781	 0.297665
H	-1.2079319669	-3.0574190446	 0.0192678126	 0.10731
H	 1.532577872	-2.7835136976	-0.0359886039	 0.130996
