19
gdb 78251	2.06747	1.73684	1.47756	3.3189	75.19	-0.2451	-0.0409	0.2042	1019.9334	0.158606	-423.002983	-422.994465	-422.993521	-423.035889	32.646	
C	-0.0803738171	 1.6700777248	-0.1035165957	-0.418751
C	 0.0272526611	 0.1484997778	-0.0947910004	-0.001371
C	 0.7475191331	-0.5620278045	-1.2504366167	-0.109008
C	 2.226663135	-0.3260273798	-1.2663896639	 0.124054
O	 2.823846235	 0.8962063924	-0.9695236334	-0.434525
C	 1.6933805841	-1.2908758459	-0.2551537639	-0.14708
C	 1.0008397569	-0.6044106925	 0.9253812597	-0.123994
C	 1.7936524204	 0.2087179965	 1.9080256355	 0.149083
O	 2.9388860735	 0.5785317458	 1.7696924897	-0.264583
H	 0.8990573189	 2.1374368832	-0.2095703996	 0.153521
H	-0.6971900728	 1.9889358608	-0.9510751712	 0.118295
H	-0.5623047362	 2.0392533727	 0.8089211528	 0.105314
H	-0.9689695167	-0.2830853377	 0.0348988167	 0.085167
H	 0.2313561652	-0.969159918	-2.1126238071	 0.088282
H	 2.7094479266	-0.8398863126	-2.0993674468	 0.094328
H	 3.2328617354	 0.8136291875	-0.0937257482	 0.302367
H	 2.001619725	-2.3298291047	-0.2362537409	 0.092871
H	 0.4001871185	-1.3085186016	 1.5107294171	 0.093759
H	 1.2398331741	 0.4807257057	 2.8335945563	 0.092272
