21
gdb 82485	3.1997	1.43673	1.33907	1.2049	81.29	-0.2413	0.0772	0.3186	1062.8004	0.183181	-387.0552	-387.047155	-387.04621	-387.08713	32.86	
C	-0.1544993039	 1.591779306	-0.0067230919	-0.419578
C	 0.0643997469	 0.0863175206	 0.0196000265	 0.050824
C	 1.0845864045	-0.594464754	-0.9346913512	-0.060529
C	 2.5108787326	 0.0186094383	-0.9019193332	-0.301848
C	 2.7819449057	-0.695707952	 0.4460053197	 0.420137
O	 4.0280765362	-1.3011826881	 0.6401639612	-0.48658
C	 2.1061006696	 0.0044119117	 1.6517037167	-0.301835
C	 0.7406460438	-0.6065343592	 1.2351499419	-0.06053
C	 1.4926600083	-1.5606551548	 0.2368306512	-0.089336
H	 0.7766645964	 2.1467205488	 0.1439754212	 0.114576
H	-0.5754193546	 1.9101524095	-0.9673102594	 0.112965
H	-0.8524041597	 1.9004281162	 0.7799958549	 0.112967
H	-0.897705157	-0.4180704386	-0.1357083705	 0.070682
H	 0.7156708776	-0.9233736723	-1.9068058242	 0.062327
H	 3.1334476393	-0.4390294994	-1.6766013987	 0.103185
H	 2.6201326843	 1.1075124188	-0.9515729195	 0.08364
H	 4.6869608602	-0.6055095381	 0.7479840927	 0.273191
H	 2.4593888048	-0.4626763822	 2.5759173869	 0.10319
H	 2.192768375	 1.0925229317	 1.7445278417	 0.083635
H	 0.0897631404	-0.9453424414	 2.0419006292	 0.062327
H	 1.4579387095	-2.6465462116	 0.2252852249	 0.066587
