22
gdb 97370	3.39109	0.7413	0.64278	2.8928	84.08	-0.2458	0.0269	0.2726	1800.5595	0.190135	-441.485605	-441.474256	-441.473312	-441.522784	40.067	
C	-0.0210613865	 1.3965446692	-0.0717242809	-0.314638
N	 0.0507462104	-0.04855869	-0.0316252559	-0.211621
C	-1.0363237854	-0.6798749193	-0.0066797961	 0.134022
O	-1.0538055065	-2.0252257326	 0.0640782734	-0.213896
C	-2.3306471089	-2.6726969039	-0.045198903	 0.101326
C	-2.6929208981	-2.8907009526	-1.5094579044	-0.395817
C	-2.2237745595	-3.9912059575	 0.7446070973	 0.120259
C	-1.8255494609	-3.7770891311	 2.2016863242	-0.420158
O	-3.4417609559	-4.7198949878	 0.6289035277	-0.427998
H	 0.5043332057	 1.7671792864	-0.9593853787	 0.127351
H	-1.0491593256	 1.7956181461	-0.0878240602	 0.093454
H	 0.4946988409	 1.8163907944	 0.7996964279	 0.126764
H	-2.0347463179	-0.2124953833	-0.0219592534	 0.071335
H	-3.0923917078	-2.0425695528	 0.4424872193	 0.068236
H	-3.6187601029	-3.4648663693	-1.5813635056	 0.136701
H	-2.8238626436	-1.9359111151	-2.0273423044	 0.114135
H	-1.8957297814	-3.4463450167	-2.0128206334	 0.131662
H	-1.4696101449	-4.6146239629	 0.2494351934	 0.103206
H	-2.5671439091	-3.1536635924	 2.7193093472	 0.10131
H	-1.7679641646	-4.7389383167	 2.7179985342	 0.125802
H	-0.8583294126	-3.275751563	 2.2726750314	 0.148683
H	-4.079545325	-4.3239350989	 1.23318025	 0.279881
