19
gdb 71679	2.67459	2.2814	1.66485	1.6247	76.93	-0.2361	0.0789	0.315	878.0766	0.161523	-385.838289	-385.831824	-385.83088	-385.868633	27.837	
C	 0.0584419628	 1.4671321976	 0.0127102026	-0.512509
C	 0.007166253	-0.0400485704	-0.039135981	 0.344733
C	-1.3107195815	-0.8475382021	-0.212502385	-0.294318
C	-0.3862106089	-1.9594436244	-0.739028918	-0.066555
C	 0.6700196444	-2.2299216613	 0.3725067044	-0.091231
C	 1.8257040128	-1.5770435681	-0.4310476065	 0.083202
O	 2.1942496943	-0.7031107066	 0.6515687999	-0.300299
C	 0.7992099097	-0.8149906272	 1.041674049	 0.044595
C	 0.6549612978	-0.891064565	-1.2134434691	-0.115588
H	 1.095746703	 1.8085038902	 0.087690871	 0.133554
H	-0.3851553527	 1.9166562154	-0.881897926	 0.112147
H	-0.4886305277	 1.850052532	 0.8829302012	 0.112853
H	-1.9160151205	-1.041236663	 0.6810263819	 0.088773
H	-1.947951959	-0.4300143918	-0.9982922677	 0.098674
H	-0.7306475227	-2.7932801691	-1.3481525494	 0.066922
H	 0.7497443406	-3.1351738873	 0.9704019206	 0.074193
H	 2.658623003	-2.0651587071	-0.9354669999	 0.078846
H	 0.6182224529	-0.5991906198	 2.0949670848	 0.075231
H	 0.7192360186	-0.4727627718	-2.2155354026	 0.066776
