17
gdb 69353	2.88171	1.32839	1.09467	1.3912	74.75	-0.2537	0.0328	0.2866	1127.3292	0.132974	-421.749996	-421.741134	-421.74019	-421.782962	34.537	
O	-0.1926072343	 1.4310973731	-0.0453533854	-0.463193
C	-0.0739627272	 0.0554281622	 0.0133931704	 0.415188
C	-0.289827549	-0.8388389838	-1.1705441765	-0.357215
C	-1.2133511903	-0.9512405055	 0.0256090832	-0.129064
C	-0.521368387	-1.7565687289	 1.1335913607	 0.225125
O	-0.1830867722	-3.066311612	 0.7070146872	-0.467356
C	 0.6547609157	-0.6923024322	 1.1345047566	-0.371126
C	-1.2603736926	-1.7861117393	 2.3912172142	 0.273959
C	-1.8458424188	-1.8366415378	 3.4403637804	-0.450572
H	 0.5218502648	 1.7738509872	-0.593288943	 0.287138
H	-0.7502145872	-0.3467425916	-2.0214096014	 0.113702
H	 0.3945553788	-1.645760367	-1.4132702398	 0.123336
H	-2.2821651494	-0.8022549026	-0.0509807451	 0.101984
H	 0.1718369569	-3.540609926	 1.4668155922	 0.28346
H	 1.6438922011	-1.1011522503	 0.9046782192	 0.094342
H	 0.6864619512	-0.1215336864	 2.0634955958	 0.122423
H	-2.3726190405	-1.8759489091	 4.3618013813	 0.197868
