24
gdb 119912	2.7656	0.85801	0.80858	0.5854	86.86	-0.2122	0.0774	0.2895	1592.9188	0.214158	-405.518209	-405.506765	-405.50582	-405.554815	41.308	
C	 0.4059417209	 0.9035969551	-1.872422908	-0.317941
N	 0.3948172981	-0.2009698443	-0.9271836917	-0.132229
C	 1.5492735081	-0.4633944918	-0.0534429358	-0.048046
C	 2.8356956328	 0.3369083223	-0.0748661112	-0.21168
C	 3.8089998191	-0.1664926373	-1.1378773466	-0.06877
O	 4.9999955704	 0.5980597361	-1.0283711176	-0.422607
C	 0.2542015579	 0.0341599486	 0.5172650836	 0.296784
C	 0.1368646898	 1.4389971099	 1.0834639461	-0.456189
C	-0.6604017427	-0.9633289517	 1.2066957571	-0.434517
H	 0.9549871016	 1.8035892142	-1.5616877673	 0.100934
H	 0.8426797487	 0.5555389484	-2.8148833909	 0.119624
H	-0.6280976181	 1.2002682268	-2.0777509423	 0.12049
H	 1.7373764294	-1.5340106626	 0.058356853	 0.074766
H	 2.6657474826	 1.4028719556	-0.2432116567	 0.106675
H	 3.3261799381	 0.2528248267	 0.9030493349	 0.109419
H	 4.0056256549	-1.2395581002	-0.9800340996	 0.08632
H	 3.3572888216	-0.0632284738	-2.1372357711	 0.091528
H	 5.6167917369	 0.2924417999	-1.6996590244	 0.285588
H	 0.8108280513	 2.1589003195	 0.6182065219	 0.119477
H	-0.8870583422	 1.812414999	 0.9641619645	 0.117657
H	 0.3553737348	 1.4292324938	 2.1568904638	 0.120687
H	-0.4121845995	-1.0554891499	 2.2705207744	 0.108422
H	-1.707393855	-0.6458290534	 1.1343445875	 0.111416
H	-0.5748867293	-1.9475302807	 0.7402744364	 0.122189
