19
gdb 39906	3.98395	1.45847	1.33901	0.9632	88.46	-0.1988	-0.0306	0.1683	1016.7877	0.16021	-348.636555	-348.629672	-348.628728	-348.66744	29.271	
C	-0.1450078828	 1.4476209976	 0.1538024985	-0.317125
C	 1.254110324	 0.9213627782	-0.0255100694	-0.318516
C	 0.083055074	-0.0416377332	 0.0211245022	 0.363865
C	-0.3096970744	-0.971549227	 1.128414341	-0.186438
C	-0.5525624814	-2.1967320084	 0.6093484352	 0.024962
C	-2.0090570566	-2.4829424869	 0.205584762	-0.260385
C	-1.5025011036	-1.9269188844	-1.1760867395	-0.076044
C	-0.0795359868	-2.2838217295	-0.8583011596	-0.115274
C	-0.323480276	-0.86079133	-1.1982863143	-0.118763
H	-0.4306148217	 1.8381076191	 1.1252106023	 0.113562
H	-0.6139383446	 1.9521688109	-0.6850109203	 0.114777
H	 1.7432828487	 1.0769731418	-0.9817645568	 0.112371
H	 1.9235229053	 0.9368533647	 0.8272166839	 0.117629
H	-0.8407385288	-0.5909204044	 1.9976295712	 0.094481
H	-2.2865748313	-3.5360195593	 0.0791295145	 0.103731
H	-2.7900485981	-1.9502322206	 0.7560612126	 0.099211
H	-2.0149586803	-2.114046029	-2.1170583682	 0.08707
H	 0.5859862114	-3.0102881693	-1.305873235	 0.086036
H	-0.1170319171	-0.4838742601	-2.1989247602	 0.07485
