13
gdb 123532	4.08247	1.85142	1.27376	1.9704	75.48	-0.2438	-0.0816	0.1622	888.305	0.093907	-411.809728	-411.804132	-411.803188	-411.839624	22.448	
C	 0.0873505163	 1.3553858775	 0.0088488789	 0.033375
N	 1.3550373392	 1.8062736595	-0.0007663219	-0.254992
N	 2.0854081676	 0.6941342725	-0.0137357575	 0.050268
N	 3.4125412751	 0.7118397422	-0.0263005761	-0.165973
C	 3.960198479	-0.481566882	-0.0379425994	 0.008528
C	 3.2021699608	-1.6848455293	-0.0371681385	-0.045677
N	 1.8896704386	-1.6892647509	-0.024679135	-0.314257
C	 1.3015919502	-0.4811037917	-0.012580016	 0.504095
C	-0.0142296025	-0.0392381727	 0.0023493774	-0.343703
H	-0.7156745923	 2.0778628988	 0.0203823972	 0.131037
H	 5.0441851516	-0.4981123972	-0.0483675391	 0.140056
H	 3.7102071193	-2.6450993945	-0.0471732296	 0.129994
H	-0.8988825329	-0.6527274922	 0.0074915997	 0.127248
