20
gdb 91545	3.03366	1.31621	1.10165	2.2182	79.22	-0.2275	0.0828	0.3104	1174.2344	0.169912	-403.068111	-403.059582	-403.058638	-403.101597	32.878	
C	-0.154955641	 1.4560747944	-0.494156349	-0.413527
C	 0.0945456301	 0.0095443126	-0.1268945092	 0.116087
O	 1.2866478407	-0.5618524608	-0.7540158362	-0.309054
C	 1.7285977287	-1.0494634402	 0.5114898741	 0.049772
C	 2.033106158	 0.0928250988	 1.4450641201	-0.366898
C	 0.6012784186	-0.3970301218	 1.2646692495	 0.276706
N	-0.312269374	-0.8702928622	 2.2516876719	-0.159457
C	 0.1845245027	-1.331259751	 3.5439066362	-0.236243
C	-0.5354715276	-0.0350652898	 3.4368682674	-0.225617
H	 0.673880148	 2.1004577169	-0.1890778833	 0.119172
H	-0.2817053661	 1.5535110642	-1.5770896668	 0.129438
H	-1.0719411091	 1.8120042035	-0.0123403997	 0.121152
H	-0.7714503543	-0.6129836363	-0.382476425	 0.0899
H	 2.1783403223	-2.0346962383	 0.5566078358	 0.106697
H	 2.5053476656	-0.1982644661	 2.3783370552	 0.113706
H	 2.3732976512	 1.0424883388	 1.0416197684	 0.113322
H	-0.315978008	-2.2106922505	 3.9387948654	 0.121663
H	 1.2523414042	-1.2919048669	 3.7441835356	 0.115735
H	 0.0611439264	 0.8695186279	 3.5326329641	 0.11813
H	-1.5681925264	 0.0528878568	 3.7607217257	 0.119316
