16
gdb 18714	3.36388	2.19606	1.5265	1.4602	64.61	-0.2453	-0.0057	0.2396	826.5226	0.131759	-383.728672	-383.72187	-383.720925	-383.759456	26.714	
O	-0.0222849391	 1.4398758973	 0.057398719	-0.438954
C	 0.0282360087	 0.0209950605	-0.0213299924	 0.111324
C	 0.897534962	-0.5735085347	 1.1058712121	-0.288975
C	 0.7564322475	-2.0663293381	 1.2536590359	-0.08896
C	-0.3785990818	-2.700787193	 0.9572597367	-0.043781
C	-1.5541635179	-1.9545722542	 0.4417394127	 0.000141
O	-1.9920261387	-0.8027695182	 1.2064501606	-0.266026
C	-1.3587251813	-0.5838021608	-0.056552506	 0.011078
H	-0.5089991589	 1.6627597553	 0.8595676701	 0.285456
H	 0.4995303012	-0.1899669199	-0.9896399481	 0.097558
H	 1.9401424833	-0.2889354252	 0.9369696727	 0.113595
H	 0.59685167	-0.0955194982	 2.0486928011	 0.121288
H	 1.6036192536	-2.618051231	 1.6511965138	 0.099742
H	-0.4774822085	-3.7736035224	 1.0878741692	 0.094374
H	-2.3790224743	-2.5400607751	 0.0411527931	 0.094824
H	-2.0143243358	-0.1943488024	-0.8358682504	 0.097315
