23
gdb 99987	2.6433	1.09726	0.95147	1.5792	87.57	-0.2555	0.049	0.3046	1379.0041	0.201329	-388.265807	-388.25439	-388.253446	-388.301598	42.7	
C	 0.1121935909	 1.5813443142	 0.2069170258	-0.394055
C	-0.0310097813	 0.0738942019	-0.0259170864	-0.204704
C	 0.6291927863	-0.432933419	-1.3294678515	 0.3683
C	 0.0050477056	 0.1958878977	-2.5768709623	-0.411833
O	 2.0002331117	-0.0274267919	-1.3583646964	-0.455495
C	 0.5747345042	-2.0002578535	-1.3796923342	-0.22018
C	-0.8467507936	-2.6012648636	-1.4225891961	-0.404983
C	 1.371670861	-2.5267395834	-2.48803793	 0.347606
C	 1.9922139933	-2.9949475731	-3.4052459294	-0.466267
H	 1.1590705304	 1.884462039	 0.1288918489	 0.128975
H	-0.460423585	 2.1602741308	-0.5237853446	 0.118009
H	-0.2550654782	 1.8526138778	 1.2012960648	 0.107915
H	 0.4282501397	-0.4649103458	 0.8157617139	 0.080264
H	-1.0919558426	-0.1981331913	-0.0183865682	 0.098934
H	 0.2238817484	 1.2654341931	-2.6017859027	 0.126966
H	 0.4258064565	-0.2569924967	-3.4775981041	 0.134768
H	-1.0802378932	 0.0652489343	-2.5883284612	 0.11082
H	 2.469205795	-0.4972267425	-0.6597209948	 0.274518
H	 1.0444936986	-2.342935851	-0.4439451034	 0.089229
H	-1.4349793039	-2.2966960961	-0.5538050763	 0.119008
H	-1.375109452	-2.2945932048	-2.3287689459	 0.131928
H	-0.7875380841	-3.6925027605	-1.4262340499	 0.128755
H	 2.5564023223	-3.3943229355	-4.211198696	 0.191521
