14
gdb 7942	3.66144	1.84276	1.27354	1.3634	59.29	-0.2597	-0.0191	0.2406	898.4094	0.108578	-415.907199	-415.900007	-415.899063	-415.93892	26.377	
N	 0.1175698086	 1.3994818382	 0.3585287678	-0.508271
C	-0.0624271207	 0.022554179	-0.0610068435	-0.112293
C	-1.5204419646	-0.4143080734	-0.2405402402	-0.302046
C	-1.4518286978	-1.4334311575	-1.3517778268	 0.405656
N	-2.3122058637	-2.2993559905	-1.6419084276	-0.510055
O	-0.258361235	-1.2625189717	-2.0526869216	-0.213788
C	 0.5607098161	-0.3511657505	-1.4151926816	 0.404489
O	 1.5768947554	 0.0397353082	-1.9001558442	-0.317079
H	 1.1116579568	 1.6068922473	 0.4042718768	 0.249099
H	-0.2645010893	 2.0271978863	-0.3447934731	 0.234612
H	 0.4256370413	-0.6234617349	 0.6812336078	 0.132834
H	-1.9891374316	-0.8287579666	 0.6509591485	 0.154805
H	-2.1305205672	 0.4350720565	-0.5714416234	 0.143657
H	-2.0207782383	-2.8547470303	-2.447970079	 0.23838
