17
gdb 7112	6.40545	0.89896	0.85465	2.8605	70.81	-0.2468	0.0091	0.2558	1367.143	0.142313	-397.231709	-397.222468	-397.221524	-397.266695	31.809	
C	 0.6303273904	 1.3996680343	 0.2180147183	-0.373448
C	-0.2416096467	 0.1718607025	-0.0564201005	-0.140453
N	-0.2055885055	-0.8199022609	 1.0103629539	-0.37046
C	 0.7533851889	-1.7983953277	 1.021768488	 0.528469
O	 1.5346391821	-1.9943039454	 0.1089580374	-0.400861
N	 0.741472499	-2.5818616894	 2.1764579668	-0.353936
C	 1.6222463063	-3.6254824932	 2.3826708004	 0.106497
N	 1.5508843601	-4.3260883763	 3.4415013569	-0.480242
H	 1.6777154171	 1.1051782819	 0.326038672	 0.141384
H	 0.556864819	 2.1128808307	-0.6092511618	 0.120408
H	 0.3188859196	 1.91359793	 1.1339564312	 0.109361
H	-1.2854561061	 0.4662936545	-0.2089988616	 0.105786
H	 0.0978642081	-0.3353706386	-0.9615181892	 0.1495
H	-0.674391074	-0.591983307	 1.8728651492	 0.238943
H	 0.0463743896	-2.4459240073	 2.8962601204	 0.251085
H	 2.3250793872	-3.732878051	 1.5543918921	 0.13924
H	 2.2703415549	-5.046107427	 3.4335181064	 0.228728
