15
gdb 8471	3.0116	2.12165	1.59602	2.4822	63.6	-0.257	0.0189	0.2759	839.1533	0.117274	-399.76935	-399.761663	-399.760719	-399.800936	28.888	
C	-0.0882232474	 1.4663079859	 0.0731475773	-0.489741
C	 0.0460447307	-0.0162083473	 0.0873785175	 0.400176
C	 1.1881926064	-0.8796182327	-0.3473071318	-0.391397
C	 0.6011779871	-1.0196354278	 1.0688777893	 0.199971
O	 1.3214583324	-0.8129686089	 2.2166203648	-0.442179
C	-0.7358539133	-1.687281384	 0.9458738237	 0.384389
N	-1.3148335608	-2.6356520585	 1.5223494213	-0.565061
O	-1.1781962635	-0.8129584838	-0.0466154462	-0.304809
H	 0.8679558176	 1.9291372159	 0.3319867775	 0.139649
H	-0.3828956946	 1.8210535303	-0.9200534273	 0.138567
H	-0.8415303837	 1.7927351381	 0.7957176354	 0.142386
H	 1.0425877962	-1.6470863658	-1.1013161067	 0.127281
H	 2.1602896466	-0.3942301046	-0.3436461639	 0.127819
H	 1.8416958107	-1.6041874296	 2.3979503949	 0.301809
H	-2.2648876243	-2.7623639173	 1.1693368642	 0.231139
