14
gdb 129109	5.06508	1.31398	1.05012	1.8278	69.1	-0.2223	-0.0061	0.2162	1049.0876	0.104591	-432.883111	-432.876554	-432.87561	-432.914168	25.505	
N	-0.0671129301	 1.239038504	 0.0076395027	-0.521822
C	-0.0256100305	-0.0158313319	 0.0006795412	 0.396712
C	-1.2593987611	-0.946537427	 0.0025352332	-0.455932
C	-0.5725519313	-2.2691769164	-0.0083131356	 0.299658
C	 0.7804457966	-2.088320103	-0.0148069178	 0.274185
O	 1.1556143088	-0.761028295	-0.0097877054	-0.260286
C	 1.367510353	-3.3602612596	-0.0248333956	-0.145887
N	 0.400463166	-4.2884313159	-0.0245290518	-0.217753
N	-0.7678178442	-3.6069408546	-0.0143954375	-0.325779
H	 0.8720657403	 1.6392948411	 0.0046088528	 0.235718
H	-1.8705451458	-0.7484150053	 0.8891090411	 0.158353
H	-1.8802885021	-0.7390065157	-0.8750700385	 0.158352
H	 2.4033795989	-3.6583932014	-0.0321287736	 0.125892
H	-1.6276612386	-4.1279307695	-0.0124229451	 0.27859
