17
gdb 46412	4.00881	0.85515	0.74474	2.273	76.26	-0.2328	-0.0319	0.2009	1496.149	0.132667	-421.778767	-421.769534	-421.76859	-421.813851	32.937	
O	 0.2182140715	 0.0520988281	-0.0264365209	-0.293159
C	 0.0781299365	 1.2402522376	 0.0152426498	 0.370363
C	-1.1127444974	 2.1811914428	 0.2688458975	-0.342735
C	-0.0744927254	 3.2684667239	 0.6831532043	-0.272903
C	 1.0704503434	 2.4329790933	 0.0506691702	 0.065705
O	 2.230541419	 2.3233028435	 0.820709903	-0.25557
C	 3.2271909218	 1.5051143066	 0.209444536	-0.226471
C	 4.4271872563	 1.5026307033	 1.0328420683	 0.284793
C	 5.4298132462	 1.4826800143	 1.6930540448	-0.416909
H	-1.6485882408	 2.4175278995	-0.6559705147	 0.135586
H	-1.8356485093	 1.8467412935	 1.0154997515	 0.138051
H	-0.2176520775	 4.2716517089	 0.2827087457	 0.115702
H	 0.0555280598	 3.3201076334	 1.7657154062	 0.134924
H	 1.2951091679	 2.7646977804	-0.9791084033	 0.086862
H	 2.8503394546	 0.4815028625	 0.0820695884	 0.155484
H	 3.4651126747	 1.8933127175	-0.7955471936	 0.118442
H	 6.3142765087	 1.467663761	 2.2806577267	 0.201836
