19
gdb 39285	2.6741	2.06389	1.48645	1.5523	72.29	-0.2424	0.0655	0.3079	920.0697	0.163185	-423.022883	-423.016289	-423.015344	-423.053993	27.027	
C	 0.0134443188	 1.5017031572	-0.3311763379	-0.276885
C	 1.5239565806	 1.5460571015	 0.0611071899	-0.042823
C	 1.9012658947	 2.2956859069	 1.3538691672	-0.098134
O	 2.0694586968	 1.3180170739	 2.3833834651	-0.261268
C	 1.4140059413	 0.1175684875	 2.0085476482	 0.07535
C	-0.1031541549	 0.1059261334	 2.3573539024	-0.115964
O	-0.8058542019	-0.3456222202	 1.2078714354	-0.255803
C	-0.0498703699	-0.0085260359	 0.0616475728	 0.111897
C	 1.4422278834	 0.047496403	 0.4706336157	-0.077178
H	-0.642913043	 2.1482829316	 0.2584851977	 0.105955
H	-0.1804140004	 1.6867608764	-1.3900901792	 0.104811
H	 2.1937532322	 1.7827965454	-0.7658128759	 0.078047
H	 2.8461877082	 2.8426998456	 1.2694571535	 0.106458
H	 1.1190627019	 3.0173156434	 1.6324290528	 0.094594
H	 1.9442881901	-0.7011452007	 2.499612396	 0.089011
H	-0.3503995815	-0.5674964505	 3.1822795487	 0.109604
H	-0.4062063133	 1.1237079169	 2.6456804423	 0.099199
H	-0.3496646367	-0.6850622142	-0.7403062546	 0.081844
H	 2.1502201536	-0.6671466912	 0.05445847	 0.071286
