15
gdb 15299	3.50841	1.40772	1.11948	3.3631	68.16	-0.2526	-0.0011	0.2515	1042.0758	0.116993	-362.617987	-362.609848	-362.608903	-362.651112	28.881	
O	-0.164928481	 0.5857396558	-0.4534909337	-0.28917
C	 0.0714112223	 1.687981252	-0.02249693	 0.128784
N	 1.2763010191	 2.0696476485	 0.5440986176	-0.053917
C	 2.5759439457	 1.6766528201	 0.0540736658	-0.254484
C	 2.1630922068	 3.1219289797	 0.0880612437	 0.000868
C	 1.8823070078	 3.8620760328	-1.212939782	-0.376711
C	 0.9159536181	 4.9439421641	-1.0524530163	 0.299376
C	 0.1202169458	 5.8305347393	-0.8961806854	-0.438556
H	-0.6779531703	 2.4989410635	 0.028964458	 0.101485
H	 3.2737473012	 1.2956602302	 0.7942328207	 0.131931
H	 2.6055039092	 1.1757902055	-0.9110342455	 0.137674
H	 2.5564123533	 3.7518030838	 0.8835310357	 0.116263
H	 2.8293378914	 4.2674134564	-1.5922397181	 0.14514
H	 1.5252207196	 3.1495320565	-1.9673673829	 0.146373
H	-0.5848359091	 6.6145870718	-0.7691408874	 0.204942
