20
gdb 111444	2.88915	1.44131	1.1601	2.2505	76.84	-0.2392	0.0628	0.3019	1107.5551	0.173314	-403.107515	-403.099605	-403.098661	-403.140035	31.554	
O	 0.0904673661	 1.4194035797	 0.043996777	-0.428042
C	 0.0467676582	-0.0012879254	-0.0210875886	-0.073366
C	-1.3857357584	-0.5452208501	-0.0171137923	-0.01405
C	-1.482322097	-2.0756857225	-0.1321250968	-0.070769
C	-0.9119504315	-2.9696597111	 0.9454544436	-0.292108
C	-2.3738233686	-2.6021548892	 0.9779984342	-0.036934
C	-2.7679096149	-1.4099749634	 1.8255353336	-0.044372
N	-1.639653487	-0.7240829912	 2.498153579	-0.344468
C	-2.1884065889	-0.1763772039	 1.2350924957	-0.073217
H	-0.1403199364	 1.6699898855	 0.9435915238	 0.284063
H	 0.5437739256	-0.2754374036	-0.9575310123	 0.10453
H	 0.6141841929	-0.4539264214	 0.8021028117	 0.104553
H	-1.9087744318	-0.1036785469	-0.8747042789	 0.078713
H	-1.5473096274	-2.4904529618	-1.1324084056	 0.083057
H	-0.6607120802	-3.9828559854	 0.6498954443	 0.102475
H	-0.2799602524	-2.5440025126	 1.7140222818	 0.139426
H	-3.1268034332	-3.3597431475	 0.7958403772	 0.080674
H	-3.7349933267	-1.4119511795	 2.3166197318	 0.083981
H	-1.9960987439	-0.184473361	 3.2832694256	 0.228732
H	-2.7064498645	 0.7774067312	 1.2676156853	 0.087122
