18
gdb 45199	3.33145	1.60241	1.33575	3.0981	77.1	-0.2191	-0.0219	0.1972	980.7525	0.149543	-401.899856	-401.893104	-401.89216	-401.930772	28.027	
O	-0.0864023282	 0.0046164217	 0.348469631	-0.291011
C	-0.0668599513	 1.1663332722	 0.0883271747	 0.306686
C	-1.1373285061	 2.2402889076	-0.3076352479	-0.306729
N	-0.0052019033	 3.0286989964	-0.8322001036	-0.090705
C	 0.4022233943	 4.4323878991	-0.6125728954	-0.183945
C	 1.7321780359	 4.1477319154	 0.1426665241	-0.039435
C	 1.2075236523	 3.1936975562	 1.2514199847	-0.255801
C	 0.9790075774	 2.2859755744	-0.0080262135	 0.207749
C	 2.3119961983	 2.8445197937	-0.5485185241	-0.304215
H	-1.8829934694	 1.9446064233	-1.050795691	 0.128807
H	-1.6492585779	 2.6416014823	 0.5817271079	 0.112032
H	 0.5325705192	 4.9574156156	-1.5642704075	 0.106923
H	-0.2939012428	 5.0108184808	 0.009416018	 0.100106
H	 2.3737767547	 4.9987996853	 0.3724054543	 0.075828
H	 1.991391211	 2.8090740599	 1.90524933	 0.111037
H	 0.3369677675	 3.5061772079	 1.8338640268	 0.098865
H	 2.4256649255	 2.8316413328	-1.633485209	 0.11202
H	 3.2112632128	 2.4923968456	-0.0424273196	 0.111788
