19
gdb 7687	3.51439	1.72744	1.54561	1.6531	71.66	-0.2281	0.0587	0.2869	922.7315	0.164694	-365.016692	-365.008453	-365.007508	-365.048549	31.904	
C	-0.0899531214	 1.5660971163	 0.0472203946	-0.475711
C	 0.0231052677	 0.0563248479	-0.0640544369	 0.336843
C	-1.1030654617	-0.6799387784	 0.6421886441	-0.442936
C	 0.5813279703	-0.6603732661	-1.2380275846	-0.085768
C	 1.7548959193	 0.0307991669	-1.9095117821	 0.090149
O	 1.4283499806	 1.1828929087	-2.6603062299	-0.4268
C	 2.3989750247	 0.1499311577	-0.498550223	-0.215589
N	 1.301569145	-0.671662161	 0.1211934893	-0.175187
H	 0.5758084672	 2.100600454	-0.6275084192	 0.142682
H	-1.1126100622	 1.8691270906	-0.2001384439	 0.118796
H	 0.1055409971	 1.8832687681	 1.0787515986	 0.114003
H	-2.0671671796	-0.4572501151	 0.1723842515	 0.113183
H	-0.9387735223	-1.7598579203	 0.6163915737	 0.124877
H	-1.1577982423	-0.37289375	 1.6921002808	 0.118308
H	 0.1013626224	-1.5516456049	-1.6325930352	 0.08453
H	 2.3149267011	-0.6838940466	-2.5257264474	 0.083252
H	 2.2206413522	 1.4768132779	-3.1211745184	 0.28509
H	 3.3523226469	-0.3741766187	-0.4013236086	 0.104651
H	 2.500995625	 1.1594263131	-0.0918699833	 0.105626
