17
gdb 108735	3.12123	1.21484	0.93428	0.3939	80.85	-0.2627	-0.0724	0.1903	1251.5807	0.136991	-418.077977	-418.069424	-418.068479	-418.111594	31.504	
C	 0.156615989	 1.5108647452	-0.138506053	-0.382976
C	-0.0639570483	 0.0006396025	 0.0728305594	-0.290611
C	 0.6330650541	-0.5164040369	 1.287741832	 0.212458
C	 0.1504932828	-0.9701058429	 2.4534298929	-0.2673
C	 1.2622954046	-1.3616209012	 3.3459581384	 0.402084
N	 1.1214373421	-1.8295345084	 4.5212969302	-0.523835
N	 2.4265370033	-1.104351894	 2.616200137	-0.40852
C	 2.1361948756	-0.5931131683	 1.3543793082	 0.377851
O	 2.9419685718	-0.2873760449	 0.5059187684	-0.357473
H	 1.2219126489	 1.7301931245	-0.242063822	 0.149225
H	-0.3538617051	 1.8456445732	-1.0460178715	 0.118919
H	-0.2353550562	 2.0861464725	 0.7058013782	 0.120044
H	-1.133825004	-0.2194563151	 0.1460685467	 0.109799
H	 0.3202657972	-0.5352674514	-0.8035318057	 0.128296
H	-0.8806057807	-1.0678713815	 2.7628423836	 0.132251
H	 2.022719065	-2.0321467478	 4.9585053319	 0.218284
H	 3.3666448101	-1.2679042855	 2.937291995	 0.261505
