20
gdb 122755	5.5836	0.51376	0.47735	3.8054	82.14	-0.2945	-0.0837	0.2108	2249.2001	0.168309	-403.182959	-403.172313	-403.171369	-403.220137	36.408	
C	-0.0161761757	 1.6110339835	-0.0000223594	-0.381597
C	 0.0035612103	 0.0803189442	-0.0017726073	-0.166515
C	 0.7037988415	-0.5095768884	-1.230868397	-0.172501
C	 0.7237331756	-2.0415657773	-1.2329950628	-0.189321
C	 1.4248640879	-2.6162980086	-2.4635139515	-0.31085
C	 1.4586507145	-4.125323648	-2.4919378561	 0.286195
O	 0.9932703839	-4.8536076274	-1.6528164109	-0.262126
C	 2.1357251675	-4.7034325323	-3.6786121006	 0.227259
N	 2.6660739106	-5.1399447826	-4.6088221407	-0.295116
H	 1.000078186	 2.0203873797	-0.0119582061	 0.115246
H	-0.5393358461	 2.0015332507	-0.8799665026	 0.115246
H	-0.5217758959	 2.001887608	 0.8881632004	 0.115551
H	 0.5025968675	-0.2827178079	 0.906210101	 0.099347
H	-1.024709422	-0.3014238011	 0.0450594524	 0.099351
H	 0.2055178498	-0.147843101	-2.1412808276	 0.095873
H	 1.733791693	-0.1291489081	-1.279578518	 0.095871
H	 1.2228409932	-2.412365141	-0.3304264737	 0.11791
H	-0.2997946879	-2.4310405181	-1.1893236986	 0.11794
H	 0.9479165443	-2.281981111	-3.396670495	 0.146126
H	 2.4640427222	-2.2640690534	-2.5412631358	 0.14611
