22
gdb 22165	2.18285	0.9172	0.76864	0.7204	82.18	-0.2459	0.0077	0.2536	1613.3851	0.190787	-441.442051	-441.430754	-441.429809	-441.480141	39.301	
C	 0.4124022413	 0.2125451192	-0.2932139029	-0.382612
C	-0.7108479765	-0.812161617	-0.4791020694	-0.188076
C	-1.9038325179	-0.5143611367	 0.4325574339	-0.049524
O	-3.036231526	-1.3447955839	 0.2170202365	-0.243482
C	-3.0334333936	-2.5872942487	 0.8962534593	-0.161116
C	-2.3162758964	-3.6903144585	 0.1488096234	 0.355535
C	-2.7189293224	-3.9817010036	-1.2685979124	-0.480297
N	-1.4216566699	-4.3164120882	 0.8131408735	-0.167023
O	-0.8472274546	-5.3599258062	 0.069560906	-0.397673
H	 1.259424623	-0.00620348	-0.949749874	 0.117259
H	 0.0684219695	 1.2277446604	-0.5212139194	 0.115331
H	 0.7841573661	 0.2133864247	 0.7375885657	 0.116904
H	-1.0589853495	-0.8072963194	-1.5188316244	 0.102608
H	-0.3324289143	-1.8188181272	-0.273976683	 0.115744
H	-1.5945958612	-0.5687845371	 1.4886907333	 0.090421
H	-2.2557075333	 0.5082573788	 0.2489830035	 0.102879
H	-2.603146283	-2.4991121668	 1.9023951888	 0.108913
H	-4.0914860794	-2.8635094964	 0.9989218995	 0.11096
H	-3.2100659542	-3.1093116513	-1.7031856134	 0.140014
H	-1.8503538585	-4.2582574627	-1.8696010154	 0.147523
H	-3.4164854366	-4.8275014871	-1.3011410281	 0.140309
H	-0.1881908827	-5.7042537421	 0.681501569	 0.305403
