19
gdb 14211	2.78849	2.39024	1.84508	1.7666	75.36	-0.216	0.0891	0.3051	842.793	0.165769	-327.862975	-327.855422	-327.854478	-327.894195	29.542	
C	-0.0917429565	 1.4652491647	 0.0414103615	-0.510114
C	 0.0418624017	-0.0278110472	-0.0007069666	 0.278238
C	 0.9196255697	-0.8921741387	-0.8892882755	-0.224766
N	 0.0754413404	-2.0970632858	-0.5249081644	-0.204078
C	 0.409648141	-2.2538590555	 0.9458531844	-0.180952
C	-0.2850942593	-0.9341008871	 1.2160096039	-0.178263
C	-1.0255020144	-1.0865013847	-0.0869404103	 0.338477
C	-2.4538445419	-1.1315935826	-0.502068358	-0.527793
H	 0.7966173837	 1.9345229502	 0.4802537478	 0.122303
H	-0.2251865327	 1.8808971698	-0.9640699354	 0.119453
H	-0.9544942274	 1.7722930515	 0.6427892582	 0.118471
H	 0.7907819923	-0.6654987483	-1.9523243259	 0.100019
H	 1.9886971404	-1.0007893472	-0.667685903	 0.089565
H	-0.1324767116	-3.112441903	 1.3522520864	 0.104308
H	 1.4795898776	-2.3641908405	 1.1588559807	 0.0926
H	-0.6452907142	-0.5085033715	 2.1456446942	 0.082428
H	-3.0038615406	-0.2900422871	-0.0673431798	 0.123284
H	-2.5528423004	-1.073530475	-1.5918145102	 0.12796
H	-2.9379714878	-2.0571747421	-0.1711938779	 0.12886
