16
gdb 126382	2.72666	1.49789	0.97826	1.026	74.37	-0.2464	-0.0734	0.173	1162.1553	0.125719	-434.108793	-434.100776	-434.099832	-434.141971	29.328	
C	-0.0602448677	 1.5570597562	 0.10072097	-0.384797
C	 0.0207005592	 0.0401862082	-0.0409086089	-0.259743
C	 0.7244877158	-0.4412063571	-1.2730299163	 0.218165
N	 1.2132926207	 0.3854081169	-2.1477218915	-0.299417
C	 1.8422274698	-0.1370921706	-3.2483534815	 0.07197
N	 2.0090427989	-1.3961377035	-3.5213599482	-0.180085
N	 1.4991609168	-2.2422751127	-2.6088679946	-0.260012
C	 0.8323881371	-1.909149542	-1.4411946764	 0.397784
O	 0.4040140079	-2.7488615	-0.6700655088	-0.376525
H	 0.9362643813	 2.0053809675	 0.1311194453	 0.129724
H	-0.5917175316	 2.0055808973	-0.7426048065	 0.13003
H	-0.5866901043	 1.8216336841	 1.0216993723	 0.114431
H	 0.5214119868	-0.4203697341	 0.8219581103	 0.140275
H	-0.977617786	-0.4192513474	-0.0350893083	 0.140109
H	 2.2433659499	 0.5675259839	-3.9667834653	 0.138604
H	 1.6225054857	-3.2269695968	-2.8091575317	 0.279486
