16
gdb 63124	2.29109	1.68654	1.2035	2.9861	70.7	-0.2638	0.0059	0.2697	1042.682	0.122652	-437.849875	-437.84136	-437.840416	-437.882684	31.848	
C	 0.003903713	 1.5676019728	-0.0256093732	-0.471807
C	 0.0796677386	 0.0617605872	-0.0057915023	 0.298598
O	-0.9871173024	-0.6115890495	-0.5999460483	-0.444972
C	 1.341175806	-0.7084174297	-0.2015188774	 0.02856
O	 2.4785985715	-0.0241761623	 0.2963697125	-0.276517
C	 1.9753192944	-0.093394276	 1.6575374534	-0.147659
C	 0.6718882931	-0.7372597817	 1.1848462667	 0.060758
C	-0.0857126101	-1.7303764009	 1.8573801993	 0.192987
N	-0.7320372579	-2.5121658552	 2.4170667697	-0.356487
H	 0.9562455498	 2.0180250905	 0.2595293493	 0.145311
H	-0.2399471083	 1.8956790208	-1.0402879337	 0.14265
H	-0.7769740933	 1.9328764138	 0.6499844284	 0.123988
H	-1.7415227934	-0.6037374405	 0.0018943766	 0.301731
H	 1.4703407636	-1.4859285229	-0.9456331262	 0.140454
H	 2.5906915263	-0.7687870682	 2.2592314831	 0.139045
H	 1.9118671394	 0.8889869617	 2.1360280522	 0.123361
