20
gdb 118457	1.62222	1.154	0.77891	2.0307	71.79	-0.2491	0.0225	0.2716	1503.8729	0.168869	-477.444187	-477.432959	-477.432015	-477.481939	38.76	
N	-0.7050603176	 1.2493721351	 0.9553971645	-0.523745
C	-0.3812151913	 0.1533604617	 0.2110267676	 0.403609
O	 0.717348838	 0.0115686141	-0.2952813781	-0.375587
C	-1.5168909764	-0.8521605639	-0.0009958247	-0.112691
C	-2.1992834667	-0.5078274267	-1.347715225	-0.076508
O	-3.3506798935	-1.2893786029	-1.6029050241	-0.419922
C	-0.9750998266	-2.2863278825	 0.0136350864	-0.209222
C	-0.473932368	-2.7359349425	 1.3880940761	-0.071026
O	-0.0154316	-4.0780793702	 1.3862494902	-0.418742
H	 0.0028709473	 1.9486917473	 1.1108694274	 0.261807
H	-1.5867184395	 1.3377270829	 1.4285337099	 0.26157
H	-2.2759472223	-0.7354866375	 0.783683916	 0.074223
H	-2.5424475782	 0.5316582324	-1.3244817138	 0.111398
H	-1.4569833683	-0.5926366046	-2.1542558171	 0.111526
H	-3.0655399319	-2.1693006578	-1.8656575837	 0.289792
H	-1.7576616442	-2.9838757508	-0.3047985971	 0.088126
H	-0.1502636425	-2.3449578565	-0.7067695382	 0.113324
H	 0.3069744005	-2.0479792642	 1.7454177071	 0.10232
H	-1.2944281359	-2.7056675271	 2.1145474296	 0.105975
H	 0.7722122569	-4.1153288961	 0.834107627	 0.283774
