18
gdb 110152	2.54663	1.15082	0.87697	3.123	79.83	-0.2477	0.0228	0.2705	1343.5085	0.145833	-401.941063	-401.931544	-401.930599	-401.975935	34.472	
C	 0.0540482936	 1.5610519759	-0.1156134911	-0.387683
C	-0.1099445357	 0.0477321972	 0.0681345228	-0.201716
C	 0.6988248745	-0.4755212683	 1.2507814344	-0.153566
C	 0.8020359239	-2.0362526273	 1.4424910105	-0.177209
N	 2.2552675902	-1.8795728393	 1.2809136545	-0.320135
C	 2.2382772377	-0.5219899494	 1.0739422823	 0.438149
O	 3.101980453	 0.2763580243	 0.8248898764	-0.364115
C	 0.3566481307	-2.5875795375	 2.7119424373	 0.320455
C	-0.0204406296	-3.0481192539	 3.756211739	-0.431586
H	 1.1077628822	 1.8224979988	-0.2435044901	 0.15313
H	-0.5000954358	 1.9098580834	-0.9919305853	 0.112874
H	-0.3222452073	 2.1055897463	 0.7572319208	 0.116466
H	-1.1673560364	-0.2032324891	 0.2180749428	 0.105363
H	 0.2077817982	-0.4729533307	-0.8444734902	 0.104228
H	 0.415496733	 0.0263724205	 2.1799873041	 0.113643
H	 0.3437282559	-2.5863935993	 0.6117032943	 0.112005
H	 3.0057599757	-2.5539750388	 1.3141930001	 0.255434
H	-0.3513294136	-3.452123963	 4.6811614775	 0.204262
