13
gdb 131096	3.37936	1.14378	1.05088	2.8585	66.09	-0.2798	-0.0513	0.2284	1129.2426	0.087218	-452.671102	-452.66295	-452.662006	-452.704661	29.088	
O	-0.1881781335	 1.3639982757	 0.0648843416	-0.395832
C	 0.0152531387	-0.0361605096	-0.0353264102	-0.177347
C	 0.7592505276	-0.416551772	-1.2412961954	 0.303032
C	 1.3813557934	-0.7042980115	-2.2274390642	-0.435848
C	 0.6837984382	-0.5782605757	 1.2020915627	 0.443046
C	 0.3097971067	-1.4805426861	 2.1470562398	-0.214686
N	 1.3321414777	-1.540120261	 3.065166279	-0.102559
N	 2.2626510849	-0.761024526	 2.7541180383	-0.000705
O	 1.8826937595	-0.1013634839	 1.5239563109	-0.229284
H	 0.6784871462	 1.7876099952	 0.0420725334	 0.301404
H	-0.9891147738	-0.471146071	-0.0792157297	 0.145947
H	 1.9282583752	-0.962573999	-3.1011581537	 0.213949
H	-0.5832302809	-2.0737288151	 2.2402388975	 0.148883
