16
gdb 71449	4.05043	1.43213	1.29613	4.6157	68.7	-0.2258	0.0085	0.2343	987.9896	0.125215	-437.876419	-437.869297	-437.868352	-437.907667	28.344	
C	-0.0854786929	 1.4819336263	 0.0661277985	-0.499924
C	 0.0476515849	-0.0026418682	 0.0605893918	 0.460825
O	-1.1215086832	-0.7832438415	-0.1778283571	-0.329906
C	-0.4980275297	-1.9241398171	 0.5174583314	-0.050137
C	 0.6611300149	-1.0289902299	 0.9859855406	-0.222433
C	 1.2852128325	-0.8177715718	-0.3700107874	-0.095769
N	 1.0862047044	-2.0060346373	-1.1499709946	-0.320033
C	 0.0354004389	-2.7631114078	-0.657231868	 0.443351
O	-0.4141808201	-3.7808474947	-1.1255624778	-0.375645
H	 0.8801884928	 1.9511713479	 0.275974432	 0.128489
H	-0.4315176192	 1.8354368091	-0.9112084709	 0.141057
H	-0.804458315	 1.8099854936	 0.8231167221	 0.137575
H	-1.1769876555	-2.4184370708	 1.2074701244	 0.105547
H	 1.1511232657	-0.9865290872	 1.9492408898	 0.109662
H	 2.2437793198	-0.3206659653	-0.4529861671	 0.111418
H	 1.3092510215	-2.0577037752	-2.1320967277	 0.255921
