21
gdb 58579	2.37295	1.44615	1.25437	2.2641	79.35	-0.2477	0.0065	0.2542	1134.9103	0.181636	-424.239662	-424.230234	-424.22929	-424.273329	36.586	
C	 0.1950831426	 1.4823329803	 0.128200057	-0.414101
C	-0.0370686782	-0.0275622012	 0.1297905666	 0.110765
O	 0.4645370671	-0.6371641318	 1.3132887117	-0.440078
C	-1.5156080962	-0.4330150766	-0.0983750981	 0.367357
O	-1.8496936561	 0.1083028146	-1.3765447343	-0.484639
C	-1.6988599293	-1.9789102394	-0.0255134124	-0.263267
C	-2.3406576836	-2.2816285785	 1.3489741276	-0.257744
C	-2.8630117606	-0.9343784691	 1.7877106979	-0.066855
C	-2.4280755522	 0.057239324	 1.0099532743	-0.174405
H	 1.262714544	 1.6925194098	 0.2344781909	 0.118082
H	-0.1680706354	 1.9270893331	-0.8007932879	 0.135739
H	-0.3259861459	 1.9632229702	 0.9647621537	 0.1015
H	 0.5368861515	-0.4775151534	-0.6884990129	 0.094871
H	-0.0333293091	-0.269781174	 2.0533663964	 0.277042
H	-2.7872175737	-0.0538002765	-1.5247484177	 0.272884
H	-2.3773260078	-2.2726907823	-0.8336073269	 0.090236
H	-0.7571265782	-2.5091456419	-0.1768293275	 0.113453
H	-3.1320123424	-3.0384768674	 1.2979145185	 0.10176
H	-1.5959564216	-2.6575995581	 2.060949149	 0.120534
H	-3.5085313045	-0.8120840904	 2.6518898245	 0.097521
H	-2.6620680404	 1.1090760887	 1.1318972098	 0.099346
