17
gdb 111035	2.73272	1.22179	0.98515	3.1062	76.03	-0.2404	0.0129	0.2534	1216.2583	0.133823	-421.706458	-421.697849	-421.696904	-421.740091	32.45	
O	-0.1022573744	 1.5060987026	-0.2403231242	-0.417531
C	 0.0807525243	 0.1324981927	 0.0781537281	-0.139027
C	-1.2877560109	-0.5139656285	 0.0221699613	 0.012771
C	-2.0192751395	-0.8599343033	-1.3019166256	 0.019178
C	-1.0592507359	-2.0404145207	-1.5656328428	-0.272131
C	-1.4914798415	-2.0627450288	-0.0687074459	 0.320958
O	-2.8839992755	-1.7866832319	-0.5278816293	-0.339907
C	-1.25786508	-3.0623846104	 0.9292541673	 0.072757
C	-1.0261498244	-3.8911117786	 1.7688103265	-0.353552
H	 0.7396369994	 1.9563537726	-0.1246291432	 0.289986
H	 0.7877752112	-0.3436211988	-0.6158684822	 0.089731
H	 0.488051092	 0.0055701195	 1.0937925932	 0.099033
H	-1.9638998112	-0.062171223	 0.7510216914	 0.100835
H	-2.5097376318	-0.1945276745	-2.0090467174	 0.106179
H	-1.4838060199	-2.8493978966	-2.1597825151	 0.118429
H	-0.0139536312	-1.8415692684	-1.806231873	 0.102915
H	-0.8313121708	-4.626364454	 2.5103157408	 0.189376
