17
gdb 66622	2.73637	1.9446	1.47599	2.76	70.6	-0.2357	0.059	0.2947	923.397	0.135401	-421.74206	-421.734724	-421.733779	-421.773397	29.48	
C	 0.0900373234	 1.5696559411	 0.0344594628	-0.525672
C	-0.0090319572	 0.080074936	-0.0121616206	 0.238916
C	 0.90215513	-0.993200358	-0.5660473824	-0.149851
C	 0.5012593819	-1.0047018955	 0.9111717174	-0.142527
C	-0.768878943	-1.8912831387	 0.7832235046	 0.013678
O	-0.4816703546	-2.9433402919	-0.1628130784	-0.287262
C	-0.2473728921	-1.8853913856	-1.1147887447	-0.026215
C	-1.2045664627	-0.9004182676	-0.3389676054	 0.338343
O	-2.5225694268	-0.6133424967	-0.5890832108	-0.466577
H	 1.096152106	 1.8864130446	 0.3295033512	 0.126768
H	-0.1217152489	 2.020843078	-0.9424810737	 0.114616
H	-0.6166060608	 1.9934746235	 0.7569025378	 0.128368
H	 1.927232439	-0.9157891878	-0.9022061613	 0.091362
H	 1.2133093716	-0.9406767273	 1.7228274071	 0.091567
H	-1.3474576532	-2.1990908219	 1.6518941687	 0.086949
H	-0.2868551039	-2.1945148914	-2.1586439352	 0.078449
H	-2.5868368487	-0.1352726306	-1.4236332572	 0.289089
