19
gdb 23072	3.39759	1.09945	1.00937	1.3151	79.6	-0.2167	0.0004	0.2172	1248.6657	0.158729	-419.117325	-419.108735	-419.107791	-419.151061	32.724	
C	-1.1597303504	 0.9182149077	-0.0511366016	-0.413761
C	-0.121267837	-0.1890227996	-0.0152635592	 0.082224
C	 1.062917245	-0.1324857425	-1.0230586568	-0.283309
C	 2.0075797592	-0.2654356974	 0.1998476553	-0.071062
N	 0.8238989823	-0.2688845945	 1.1649235297	-0.154313
C	 1.275945222	 1.0481273471	 1.7334748926	-0.284796
C	 2.4881944039	 1.0179643701	 0.8257605818	 0.414671
N	 3.5408085963	 1.6944686244	 0.6426548439	-0.238168
O	 3.5621647566	 2.8230636428	 1.483098036	-0.39229
H	-0.7126862112	 1.9133472819	-0.1355337327	 0.122169
H	-1.8114199377	 0.7797199915	-0.9203261136	 0.12242
H	-1.7890862016	 0.8964425885	 0.8452780939	 0.127517
H	-0.6414689255	-1.1516321381	-0.0697807192	 0.085554
H	 1.1146556576	-0.9598164717	-1.7335834062	 0.109721
H	 1.1655224581	 0.8072288164	-1.571606912	 0.112427
H	 2.6882707963	-1.1204300647	 0.2163927586	 0.094683
H	 0.5982161901	 1.8971526749	 1.6032722285	 0.124786
H	 1.5138516863	 0.9699597415	 2.8001136913	 0.133347
H	 4.4071528397	 3.2276238216	 1.2592600596	 0.308182
