17
gdb 30065	3.0542	1.40591	1.0191	2.7316	74.88	-0.2257	0.0188	0.2445	1142.8812	0.137337	-418.016316	-418.00809	-418.007146	-418.050212	29.366	
C	-0.2809457635	 1.4904346622	-0.0333013822	-0.346179
N	-0.0833234974	 0.053687494	-0.0043877087	-0.055853
C	-0.096170574	-0.7965085791	-1.068235241	 0.00127
N	 0.152661618	-2.0405386112	-0.7228790473	-0.272647
C	 0.3453843312	-1.9963381896	 0.6341963548	-0.164005
C	 0.2093751408	-0.7140355863	 1.1105972716	 0.290566
C	 0.2877474455	-0.1408337245	 2.4646566377	-0.096682
C	 1.3271424548	-0.5662712694	 3.4109186988	-0.159388
O	 1.4272612093	 0.6976127082	 2.7627582248	-0.232273
H	 0.5564855336	 1.9971510282	 0.4523881146	 0.168963
H	-0.3432628711	 1.8173971885	-1.0726744476	 0.144344
H	-1.2077349724	 1.7728805928	 0.4769151749	 0.141721
H	-0.2858000494	-0.4426291905	-2.0716694014	 0.126811
H	 0.5640092546	-2.8873556388	 1.2039438277	 0.109402
H	-0.6380924647	 0.2559139004	 2.884988385	 0.102941
H	 1.1219147202	-0.5317368985	 4.4797702212	 0.116333
H	 2.0550280444	-1.3117400366	 3.0968424271	 0.124677
