17
gdb 106257	2.6282	1.2554	1.03883	3.3345	69.8	-0.2429	-0.0131	0.2298	1173.9822	0.134315	-458.939911	-458.931127	-458.930183	-458.973577	32.686	
O	 0.1793537398	 1.3593279233	-0.0417947828	-0.406261
C	 0.0627470988	-0.0467392572	 0.1123526957	-0.17013
C	-1.3698324877	-0.4970515232	 0.104558555	 0.265788
C	-2.3952743122	-0.1370014878	 1.1972075739	-0.400411
C	-2.8650198666	-1.6072050788	 1.1526067352	 0.439341
O	-3.5747693232	-2.2630940565	 1.8609270799	-0.321099
C	-1.9342442857	-1.9690191105	 0.0302524154	-0.315194
C	-2.0849601795	-0.9644930418	-1.1048295571	 0.052116
O	-3.3047387358	-0.3885117701	-1.458977487	-0.416339
H	-0.2530995652	 1.6015789769	-0.8677667419	 0.288272
H	 0.6285667834	-0.5909931343	-0.6610979893	 0.089817
H	 0.5272058192	-0.2751246998	 1.0777150444	 0.118748
H	-1.9341449945	 0.0901236312	 2.1626348434	 0.132939
H	-3.1289752457	 0.6300057097	 0.9466320607	 0.137524
H	-1.4351634169	-2.9195719096	-0.1201499748	 0.109768
H	-1.4375038471	-1.2066140778	-1.9508664749	 0.098458
H	-3.875712091	-1.0772140336	-1.8161502758	 0.296664
