17
gdb 106221	3.55512	1.50746	1.30565	0.8665	72.21	-0.2161	-0.0032	0.2129	999.63	0.135475	-421.757414	-421.750056	-421.749112	-421.789114	29.119	
C	-0.3027789698	 1.2612210112	 0.1320206309	-0.255844
O	 0.2510833787	-0.0292213512	-0.0668813292	-0.296935
C	 0.8802536384	-0.5530163755	 1.0476095164	 0.368697
C	 2.1868136973	-0.0630268746	 1.5536894073	-0.145598
C	 2.7426536615	-1.002644773	 2.3334057563	-0.095672
C	 1.7506241888	-2.1256280592	 2.4766593677	 0.026921
O	 0.6363903136	-1.56828257	 3.3112578078	-0.297274
C	-0.0534994874	-1.2599174094	 2.1275674907	 0.036611
C	 0.8283928641	-2.0464226112	 1.2239528541	-0.225096
H	 0.472843711	 2.0108056671	 0.3404901542	 0.114487
H	-0.8136745203	 1.532307572	-0.7943732083	 0.129892
H	-1.0233304255	 1.2673542476	 0.9609518684	 0.11249
H	 2.5618964176	 0.9377356655	 1.3792277669	 0.106196
H	 3.6391677416	-0.9061900559	 2.9312160805	 0.107105
H	 2.0775706254	-3.0843285753	 2.8744161524	 0.088227
H	-1.1199796685	-1.0758669376	 2.1735120255	 0.116023
H	 0.6489875835	-2.7694679903	 0.4385815583	 0.10977
