23
gdb 122651	4.79518	0.67106	0.62279	1.4092	88.96	-0.2293	0.0187	0.248	1882.762	0.205311	-388.303473	-388.293598	-388.292654	-388.339395	35.822	
C	 0.074104775	 1.5519640433	 0.0929590444	-0.378639
C	 0.0835681402	 0.0219090576	 0.0339957699	-0.166487
C	 0.6731139891	-0.5245034991	-1.2702255846	-0.156225
C	 0.6907653284	-2.0548170497	-1.3354107859	-0.192173
C	 1.3113798777	-2.5923129748	-2.630817739	 0.084425
O	 2.6698887212	-2.1478785996	-2.7539948471	-0.276439
C	 3.5477352115	-3.2553413044	-2.9283086521	-0.112945
C	 2.6652700463	-4.4699987524	-2.8595490952	-0.097596
C	 1.4020755354	-4.0939034096	-2.7028680763	-0.093556
H	 1.0885053767	 1.9563230884	 0.0037187524	 0.114604
H	-0.5214711474	 1.9758887468	-0.723393643	 0.112024
H	-0.3477671556	 1.9149187315	 1.0356005161	 0.108338
H	 0.6564929761	-0.3737051254	 0.8833047568	 0.093403
H	-0.9401694265	-0.3564548673	 0.1586787301	 0.089681
H	 0.0990167082	-0.1316529855	-2.1216281975	 0.086547
H	 1.6978638776	-0.1564953806	-1.3971503714	 0.113972
H	 1.2549481811	-2.4622497162	-0.4868018785	 0.094981
H	-0.3332727357	-2.4452384727	-1.2539725683	 0.086168
H	 0.7346916365	-2.19105076	-3.4835392165	 0.075666
H	 4.0705457141	-3.1743962886	-3.8955641827	 0.102559
H	 4.3213638081	-3.248037246	-2.1444164391	 0.104142
H	 3.0413927372	-5.4821758482	-2.9382831913	 0.104605
H	 0.5342361348	-4.7369607775	-2.627865121	 0.102945
