18
gdb 85369	2.33307	1.64975	1.1833	4.0781	81.49	-0.2351	-0.057	0.1781	1087.2037	0.149781	-401.993061	-401.984967	-401.984022	-402.025666	31.279	
C	-0.4144715781	 1.4799188757	-0.0120123715	-0.384641
C	 0.0152724912	-0.0008951236	 0.0309239908	-0.042696
N	 0.7649956678	-0.4195944849	-1.1542762373	-0.324089
C	 1.9853196884	 0.0207418119	-1.60774161	 0.366696
O	 2.315978028	-0.1543708156	-2.7725256288	-0.379922
C	 2.9327726137	 0.6561304295	-0.6593469213	-0.15637
C	 2.9694722251	 0.5772872405	 0.6824116907	-0.085424
C	 2.0169248686	-0.0560488675	 1.5818905052	-0.06527
C	 0.734025136	-0.3337467211	 1.3188167925	-0.070006
H	 0.4560931458	 2.1389388101	 0.0250514357	 0.137441
H	-0.9698738324	 1.6870766294	-0.9319103374	 0.119692
H	-1.0582374484	 1.7134620463	 0.841852285	 0.118844
H	-0.8953785696	-0.6077086369	 0.0060506259	 0.095029
H	 0.2247695922	-0.8329923312	-1.9014149897	 0.2443
H	 3.7515479435	 1.1387277929	-1.1823838482	 0.118198
H	 3.8361082476	 1.0170581486	 1.1722815124	 0.105596
H	 2.3983599839	-0.2925409617	 2.5722059898	 0.099377
H	 0.1310524568	-0.7944401623	 2.0965162663	 0.103244
