25
gdb 70733	2.29672	1.50077	1.12632	0.1699	92.05	-0.2504	0.0846	0.335	1234.8047	0.231655	-352.371491	-352.362717	-352.361773	-352.404106	36.088	
C	-0.0622731404	 1.5130180549	 0.0770129229	-0.460413
C	-0.0198595446	-0.0029721547	-0.0058925293	 0.381153
C	-0.8603199516	-0.7677218033	 0.9931924518	-0.365699
C	 0.6454578266	-0.7424520559	 1.1339033595	-0.023315
C	 1.4948054846	-1.9801441888	 0.9019891068	-0.225075
C	 2.7549115108	-1.7101617769	 0.0585490377	-0.175115
C	 2.499904638	-1.6291666338	-1.4555289644	-0.177494
C	 1.5880891825	-0.4940081493	-1.9496845651	-0.180272
C	 0.1410580172	-0.5502464615	-1.4208213949	-0.27327
H	 0.8348881218	 1.9688320089	-0.3577287639	 0.113651
H	-0.929734843	 1.9122789809	-0.462713513	 0.110898
H	-0.1319260277	 1.8523806093	 1.1154696067	 0.10954
H	-1.4611046908	-0.2063604006	 1.702037544	 0.10168
H	-1.3160382807	-1.6989770559	 0.669286649	 0.102575
H	 1.0295049084	-0.1008662791	 1.9249134765	 0.073442
H	 1.7866288641	-2.3894989487	 1.8770728377	 0.090982
H	 0.9024098851	-2.7665760809	 0.4176235368	 0.089614
H	 3.2331316566	-0.7842198005	 0.4064906955	 0.088824
H	 3.482468758	-2.5122489071	 0.2353553904	 0.086371
H	 3.4673733294	-1.5401041952	-1.9659563037	 0.087667
H	 2.0740813923	-2.587509598	-1.7870141528	 0.089025
H	 2.0362335226	 0.4753315711	-1.6946303485	 0.092363
H	 1.5662769407	-0.5339559204	-3.0458724749	 0.086797
H	-0.216264505	-1.5857701304	-1.4722481379	 0.088569
H	-0.514167865	 0.0229944758	-2.0896374471	 0.087503
