16
gdb 48582	4.19864	1.19577	1.11058	2.7469	69.64	-0.2428	-0.0456	0.1973	1080.8142	0.124435	-437.875197	-437.867722	-437.866778	-437.907446	28.495	
O	 0.0211716323	-0.0461749105	 0.2602956726	-0.247638
C	 0.0686159146	 1.0927459341	-0.1315604628	 0.058955
C	 1.3157878247	 1.9141461969	-0.1161003048	 0.232901
C	 1.5935041942	 2.8878560885	 1.0852950785	-0.284453
C	 3.0471550263	 2.6126018811	 0.6123191286	-0.119851
N	 2.6283099183	 1.2259009808	 0.156682828	-0.354223
C	 3.0349822622	 3.3026452671	-0.7575866086	 0.47597
O	 3.822841036	 4.0616490555	-1.2421488147	-0.31861
C	 1.7023356681	 2.7674000902	-1.3412986207	-0.379811
H	-0.8382617585	 1.6206215663	-0.5030932814	 0.083626
H	 1.1910723833	 3.9058838892	 1.0560769773	 0.115554
H	 1.382684966	 2.4124585187	 2.0458099156	 0.125703
H	 3.9296848973	 2.7311463402	 1.2363913713	 0.097461
H	 2.4953788244	 0.639270291	 0.9819496918	 0.234533
H	 1.8777257365	 2.1653585128	-2.2354011869	 0.149651
H	 1.0056778144	 3.5767665981	-1.5742706437	 0.130233
