15
gdb 21238	3.38202	1.87606	1.22534	3.1902	64.82	-0.2195	-0.0068	0.2127	954.8287	0.118113	-399.784153	-399.77626	-399.775315	-399.817085	27.475	
C	 0.1570130779	 1.3908108524	 0.1737633988	-0.25431
O	 0.1263476518	-0.0254073375	 0.1316107048	-0.265861
C	 0.6622332835	-0.5934876138	-0.9753368472	 0.15409
C	 0.730228286	-1.9377990824	-1.2089742039	 0.32738
C	 0.2918612702	-3.1188648276	-0.4243020456	-0.50062
O	 1.3240792204	-2.1390770002	-2.4043750287	-0.207483
N	 1.6582258284	-0.9233681798	-2.979649451	-0.142097
C	 1.2620628799	-0.0087877376	-2.1250340509	-0.078403
H	 1.186764599	 1.7709213606	 0.1451060672	 0.126157
H	-0.4101242739	 1.8294073818	-0.6579100401	 0.126157
H	-0.3067252159	 1.6821790346	 1.1172019837	 0.140493
H	-0.4421035951	-3.7149369218	-0.9772375428	 0.147503
H	 1.1364083799	-3.773368673	-0.183254353	 0.1475
H	-0.1649658888	-2.7824295023	 0.5086827897	 0.150364
H	 1.4188499668	 1.0332878863	-2.3605817211	 0.12913
