21
gdb 115728	2.83308	1.15159	0.95116	2.7536	78.46	-0.2426	0.0781	0.3207	1322.5166	0.181819	-424.185202	-424.175919	-424.174974	-424.220029	33.717	
C	 0.1969863314	 1.502576856	 0.1948860606	-0.387913
C	-0.2366353627	 0.0795815556	-0.1708342208	-0.194462
C	 0.6578639905	-0.5221587723	-1.2438596312	 0.145543
O	 2.0314216427	-0.6615392163	-0.8026475237	-0.291492
C	 2.0117730164	-2.0887623432	-0.9921415573	-0.092151
C	 0.5699594341	-2.0502194644	-1.5396951441	-0.108313
C	-0.4824061649	-2.8698215655	-0.8405049976	 0.070236
C	-0.221030667	-4.2267913918	-0.3425404833	-0.189735
O	-0.318002214	-3.1212949857	 0.5579149755	-0.224101
H	 1.2355774135	 1.5060909626	 0.5371206653	 0.138561
H	 0.1247795754	 2.1751507549	-0.6673655853	 0.109363
H	-0.4283538202	 1.9128853623	 0.9931138855	 0.110747
H	-0.2145295355	-0.562003274	 0.7157478557	 0.127012
H	-1.2712936268	 0.0827598434	-0.5401592001	 0.088614
H	 0.6153876344	 0.0978828042	-2.1514395994	 0.068069
H	 2.7832862667	-2.4214344478	-1.6963450175	 0.097184
H	 2.1245531519	-2.6248761175	-0.0427326827	 0.114594
H	 0.507133899	-2.2578185825	-2.6122257351	 0.08553
H	-1.5105788176	-2.6343813158	-1.1219545083	 0.096425
H	-1.0328316307	-4.9499455758	-0.284445184	 0.119491
H	 0.7750762533	-4.6553698866	-0.4470044122	 0.116795
