16
gdb 24193	4.10924	1.60249	1.39798	2.0868	73.94	-0.2079	0.0069	0.2148	923.8065	0.128081	-400.718886	-400.712773	-400.711828	-400.749985	24.749	
C	-0.0357219337	 1.5747745975	-0.0630857833	-0.20371
C	 1.5317911416	 1.3675125189	-0.0076711079	-0.181698
C	 1.1906869039	 0.1671761992	 0.9649266065	-0.203709
C	-0.0536237786	-0.0028224384	 0.0073809371	-0.155483
C	 0.6797306306	-0.3163426046	-1.2968855646	 0.259373
C	 1.6912949072	 0.570779365	-1.2888403252	 0.331474
O	 2.4402132222	 0.4108217526	-2.4016615537	-0.211209
C	 1.7926523765	-0.6240816405	-3.0457284341	 0.003225
N	 0.7419348219	-1.0935858003	-2.43595506	-0.36488
H	-0.4263303287	 2.0468234416	 0.8440408922	 0.100409
H	-0.4496024534	 2.0457340562	-0.9572495866	 0.10601
H	 2.2245069391	 2.1631982857	 0.2554256561	 0.085346
H	 1.9052601902	-0.65704133	 1.0166731036	 0.106006
H	 0.9140046532	 0.5084849391	 1.9675430591	 0.100423
H	-0.9393765491	-0.5627111309	 0.2974346868	 0.083129
H	 2.221557177	-0.9355990111	-3.9838557061	 0.145293
