15
gdb 76296	2.52567	1.63907	1.134	2.0818	64.16	-0.2689	-0.0239	0.245	1034.6845	0.113744	-491.123916	-491.116025	-491.115081	-491.156328	30.047	
O	-0.1452514776	 1.4687054482	-0.5433032318	-0.436654
C	 0.0570318372	 0.1461600016	-0.0955422289	 0.047167
C	-1.2971992291	-0.5914514054	-0.0388450781	-0.008813
O	-2.3554905605	 0.2507759344	 0.3392966022	-0.442332
C	-1.4660462381	-1.0887727924	-1.477165732	 0.393057
O	-2.5213774637	-1.3108804254	-2.0222669094	-0.368963
N	-0.1995090509	-1.205792424	-2.0001046661	-0.367012
C	 0.7950554738	-0.6138024333	-1.199736317	 0.393819
N	 2.0511927405	-0.6455510273	-1.3281371718	-0.516548
H	-1.029915913	 1.7115057129	-0.2303190191	 0.297136
H	 0.623191171	 0.1133044648	 0.8412310849	 0.100273
H	-1.2273113777	-1.468056212	 0.6231805198	 0.116119
H	-3.0937472446	 0.0385387278	-0.251571868	 0.307071
H	-0.0332982707	-1.5704293825	-2.9274524865	 0.267743
H	 2.3461991335	-1.1824082376	-2.1463176481	 0.217939
