21
gdb 35543	2.39318	1.55111	1.39686	0.7251	85.98	-0.2544	0.048	0.3024	1071.2132	0.184256	-349.927522	-349.919387	-349.918443	-349.960017	32.685	
C	-0.0478270539	-1.1683996364	 0.4810579737	-0.502539
C	-0.0243248789	 0.0168863	 0.2748864843	 0.355507
C	-0.0129112403	 1.4497960766	-0.0096366495	-0.167247
C	-0.7441822651	 2.2999336622	 1.0726247624	-0.236644
C	 0.3201013334	 2.6611233545	 2.1190358692	 0.007167
C	 0.7265977231	 1.5529195858	 3.1360121062	-0.224748
C	 2.1054479208	 1.4021091405	 2.4321967217	-0.224754
C	 1.7125000746	 2.508882244	 1.408356659	 0.007159
C	 1.4194826107	 2.0634300282	-0.0317256739	-0.23663
H	-0.0676093521	-2.2135041868	 0.6671203584	 0.194356
H	-0.4948005613	 1.5905042461	-0.9839095518	 0.101041
H	-1.1145602608	 3.2135944157	 0.5937131425	 0.095583
H	-1.606808338	 1.7770790157	 1.4946937981	 0.107502
H	 0.1154538171	 3.6303487711	 2.5790072625	 0.060554
H	 0.783030604	 1.900435546	 4.1706015326	 0.09189
H	 0.0988940959	 0.6595621183	 3.1076153656	 0.108119
H	 2.9629319503	 1.6619636072	 3.0579143658	 0.091886
H	 2.2879300147	 0.4201491552	 1.9901981567	 0.108142
H	 2.3650869605	 3.3843689362	 1.4308478058	 0.060553
H	 2.1614602703	 1.3651877126	-0.4286776023	 0.107515
H	 1.404025445	 2.9383117172	-0.6917681771	 0.095586
