16
gdb 13804	3.17394	1.84477	1.28351	4.8609	62.07	-0.2481	0.027	0.2751	934.3344	0.131365	-417.068563	-417.060695	-417.059751	-417.100714	29.41	
N	-0.0193325039	 0.9845217538	-0.1506659071	-0.527069
C	-0.1254066376	-0.3807076777	-0.08428773	 0.424031
O	 0.7528247544	-1.1291848219	-0.4873735325	-0.392714
N	-1.2976512019	-0.8213164115	 0.5293625579	-0.11629
C	-2.6465962787	-0.5450059232	 0.0544574744	-0.273748
C	-2.0941219176	-1.939760759	 0.0493854357	-0.013518
C	-1.7395367015	-2.6284228532	-1.2548946898	-0.072395
O	-0.6402887064	-3.4926589989	-1.1136181035	-0.424762
H	 0.9041157077	 1.3348453471	-0.349392236	 0.268548
H	-0.5959360716	 1.5450488623	 0.4552552013	 0.264605
H	-3.3649156708	-0.2380277813	 0.8099776111	 0.125892
H	-2.7465171887	-0.0452878876	-0.9068811086	 0.132436
H	-2.4019829592	-2.6151276522	 0.8452323315	 0.109993
H	-2.5937332721	-3.2375079465	-1.5734559763	 0.107718
H	-1.5726139663	-1.8659155351	-2.0337882371	 0.085436
H	 0.1056943242	-2.914697345	-0.8783017712	 0.301837
