12
gdb 869	6.96249	2.21142	1.69608	0.7781	52.25	-0.2163	0.0262	0.2425	695.4339	0.091041	-360.557411	-360.551281	-360.550336	-360.587232	22.317	
C	 0.0671720935	 1.4667766949	 0.1027757074	-0.491402
C	-0.0680487682	-0.0035607377	-0.0203108603	 0.326256
C	-1.0695513327	-0.8678475764	-0.2929405052	-0.190347
N	-0.5940599017	-2.1839270036	-0.2719042053	-0.380851
C	 0.6561882849	-2.031169202	 0.0104628953	 0.468974
O	 1.5965810891	-2.9627689805	 0.1570437785	-0.398946
O	 1.0771967598	-0.7703224142	 0.1814294363	-0.199203
H	 0.7838368982	 1.8709729964	-0.6213570888	 0.140903
H	-0.9023186664	 1.9365669379	-0.0789585415	 0.140638
H	 0.4074211598	 1.7608730661	 1.1022949986	 0.140936
H	-2.1035878152	-0.6465323032	-0.5050154567	 0.121124
H	 1.1648605689	-3.8137530577	 0.0084117916	 0.32192
