17
gdb 20169	3.40973	2.81801	2.04408	1.2037	66.18	-0.2152	0.0708	0.286	713.0748	0.145406	-363.815695	-363.809832	-363.808887	-363.845653	23.747	
C	-0.0463122026	 1.4994895913	-0.0349510962	-0.180192
C	 1.5070285319	 1.5451125388	 0.0255919713	-0.054259
C	 2.1243720581	 1.8841653579	 1.3778873501	-0.088997
O	 1.7962620176	 0.8086839011	 2.2603240428	-0.274904
C	 1.4453883498	-0.3560285858	 1.521777875	 0.099511
C	-0.0846113356	-0.5532971848	 1.3689999504	-0.190277
N	-0.0731198472	-0.0049530531	-0.0279137851	-0.143918
C	 1.4484166488	 0.0026867891	 0.0168054697	-0.024188
H	-0.5751358709	 1.9663250213	 0.8037497771	 0.103818
H	-0.4623280483	 1.8875526825	-0.9689934063	 0.108282
H	 2.0008443594	 2.0456398835	-0.8084066329	 0.078454
H	 3.2174234112	 1.9842432035	 1.2914776277	 0.094315
H	 1.7316126039	 2.8112852411	 1.8108193803	 0.107475
H	 2.0335676558	-1.2071434265	 1.8771785219	 0.078687
H	-0.3842482939	-1.6058874667	 1.3504717921	 0.105539
H	-0.7073223875	-0.0093929948	 2.0855053009	 0.107755
H	 2.0052276195	-0.5972991184	-0.7034999288	 0.072898
