18
gdb 6913	5.04512	1.07956	0.9967	2.1141	74.6	-0.2563	0.052	0.3083	1218.3238	0.149928	-347.761524	-347.752225	-347.751281	-347.795602	33.718	
C	 0.0718772934	 1.4977916117	-0.1547706445	-0.454821
C	-0.0664222564	 0.0148906588	 0.1174581851	 0.392781
C	-1.206417632	-0.6587250788	-0.6187880696	-0.45163
O	 1.1639293312	-0.7359409941	 0.1169312815	-0.288357
C	 0.449140987	-0.6171931368	 1.3468222076	 0.017575
C	 1.1297061571	 0.1243269969	 2.4884169572	-0.389466
C	 2.0277884819	-0.7389961811	 3.2487666099	 0.299907
C	 2.7533079991	-1.4693833426	 3.8681547512	-0.437878
H	 0.9368490476	 1.9314278965	 0.3488429858	 0.127121
H	 0.1924789212	 1.6677604937	-1.2302064342	 0.127375
H	-0.8266456955	 2.0356965636	 0.1668446742	 0.121402
H	-1.0914903498	-0.5276762337	-1.7003714463	 0.125636
H	-1.2282050867	-1.7300171028	-0.4055840768	 0.128851
H	-2.169469897	-0.2239893998	-0.329748421	 0.119306
H	-0.034462762	-1.5420858882	 1.6679635837	 0.092849
H	 1.686842168	 0.9802728569	 2.0962437251	 0.138757
H	 0.3565614936	 0.5266131758	 3.157443245	 0.133607
H	 3.4038864692	-2.1072417459	 4.413205436	 0.196984
