23
gdb 114126	3.32128	0.98795	0.86532	1.394	86.53	-0.2275	0.0832	0.3107	1479.3533	0.204346	-388.265753	-388.255923	-388.254978	-388.300622	36.904	
C	-0.0978123637	 1.4816341399	-0.2063755432	-0.377713
C	-0.0100710792	 0.0061518119	 0.1977861085	-0.200957
C	-1.346064227	-0.7047024676	 0.0781268783	 0.156939
O	-1.8964943655	-0.7009907855	-1.2768500989	-0.350446
C	-2.1327896669	-2.118716073	-1.2002393957	 0.505619
C	-3.4154384757	-2.6319847774	-1.7762410658	-0.288609
C	-3.4879682678	-2.4315414426	-3.2965925128	-0.374697
C	-0.8240421734	-2.8407677092	-1.1011633199	-0.340953
C	-1.4461217714	-2.2274739677	 0.1433532772	-0.239225
H	 0.876897478	 1.9722111263	-0.1278691171	 0.109798
H	-0.4459199753	 1.5732351342	-1.2390352394	 0.13675
H	-0.7998740996	 2.027970725	 0.4333760529	 0.1116
H	 0.7344187291	-0.5065826595	-0.4209603423	 0.098756
H	 0.3269256698	-0.0842271935	 1.2390649882	 0.09579
H	-2.0790588938	-0.2369091894	 0.7512517584	 0.074586
H	-3.5089457652	-3.6959290162	-1.5283605008	 0.099339
H	-4.2547760488	-2.1155485828	-1.2944819997	 0.104302
H	-4.4463000087	-2.7801068229	-3.6926818902	 0.109086
H	-3.3790791055	-1.3727561016	-3.5483608543	 0.136695
H	-2.6890365489	-2.9815580805	-3.8040833862	 0.117364
H	-0.8836651624	-3.9247082267	-1.1329638451	 0.110227
H	 0.0681358149	-2.4188124836	-1.5542106058	 0.11168
H	-1.701469533	-2.8082715476	 1.0199765137	 0.09407
