21
gdb 38660	2.86089	1.72796	1.43332	0.2992	85.4	-0.2333	0.0286	0.2619	1001.5557	0.18659	-349.969957	-349.96294	-349.961996	-350.001135	29.596	
C	 0.302044706	 1.678032172	 0.4900807801	-0.290612
C	 1.3701203494	 0.765495756	-0.058885026	-0.02523
C	 2.307008439	 0.0907423026	 0.9329440223	-0.242571
C	 1.400969599	-0.6814364778	 1.9359299338	-0.055445
C	 1.1247507684	-0.0201839873	 3.2657159206	-0.074276
C	-0.1760926094	 0.0632423595	 3.5403143175	-0.06021
C	-1.0355162755	-0.5096128051	 2.4395927993	-0.269543
C	-0.0255795737	-0.786086333	 1.2891945525	-0.024557
C	-0.0307624092	 0.2404842805	 0.1601147247	-0.036798
H	 0.3573189752	 1.9857995686	 1.528043942	 0.117668
H	-0.0912920563	 2.4372005736	-0.1781184149	 0.102686
H	 1.7421722363	 0.9582764033	-1.0596414648	 0.075455
H	 2.9545084034	-0.6120294393	 0.3968089144	 0.094007
H	 2.967670688	 0.7996744254	 1.4456135284	 0.095169
H	 1.8351388489	-1.6733956131	 2.1155946267	 0.076671
H	 1.9243898084	 0.3106675778	 3.9211551057	 0.086187
H	-0.5967817097	 0.4753457405	 4.4518297841	 0.087438
H	-1.535581912	-1.4290906623	 2.7732925554	 0.099871
H	-1.8323802424	 0.1773723226	 2.129059512	 0.104065
H	-0.1912583384	-1.7771253353	 0.8569194252	 0.065156
H	-0.6941172956	 0.0600557707	-0.6795182791	 0.07487
