15
gdb 85806	2.72379	1.22417	1.11381	1.7256	68.87	-0.2402	-0.0453	0.1949	1132.6754	0.108596	-457.714286	-457.704945	-457.704001	-457.748461	33.851	
O	 0.9071444527	 0.2231390938	 1.0135158291	-0.423279
C	 0.0982284055	-0.4512377566	 0.1051635135	 0.054037
C	-1.4264815389	-0.1071347162	-0.0688599349	-0.307211
C	-1.3125434226	-0.342395736	-1.602526814	 0.101238
O	-1.5928132852	-1.7172999699	-1.8475877441	-0.461298
C	-1.9896169826	 0.5569269001	-2.5131261124	 0.270135
C	-2.5144368248	 1.3018462594	-3.2976727064	-0.418504
C	 0.2355208611	-0.1349866515	-1.3927822095	 0.284988
O	 1.1039279271	 0.3586866384	-2.0477808593	-0.291221
H	 1.1497542146	 1.0751296624	 0.6326332173	 0.293975
H	 0.2046702356	-1.5250378128	 0.287115917	 0.137631
H	-2.1358050939	-0.7625063305	 0.435488867	 0.134176
H	-1.6341460385	 0.9399211219	 0.159398223	 0.127069
H	-1.4079771864	-1.8914007455	-2.778086765	 0.294049
H	-2.9858548339	 1.9614199829	-3.9842469014	 0.204214
