19
gdb 68554	2.39105	1.88271	1.5317	1.1911	79.69	-0.2247	0.0115	0.2362	966.1932	0.159194	-385.83452	-385.826814	-385.82587	-385.866027	31.891	
O	-0.1210086083	 1.4090729302	 0.0261121304	-0.493574
C	-0.0214706248	 0.0234820102	-0.0117512698	 0.291866
C	 0.3811095074	-0.8034490765	-1.2914974269	-0.271209
C	-0.3406738712	-1.9363109685	-0.4788304793	-0.181058
C	 0.572996621	-2.0158814701	 0.7561691044	-0.076241
C	 0.7830680035	-0.7346735987	 1.0665418892	-0.164221
C	-1.3185457336	-0.815281718	-0.0279761305	 0.434976
C	-2.5011220602	-0.7991622681	 0.8714012041	-0.370931
C	-2.6371964773	-0.4221713073	-0.6011900958	-0.359193
H	 0.7664622176	 1.782003717	 0.0444690067	 0.281248
H	-0.167381733	-0.4915681921	-2.1843919196	 0.101065
H	 1.4469535847	-0.9389646743	-1.4915625768	 0.083561
H	-0.6863975953	-2.8548827791	-0.9486868359	 0.065981
H	 0.9242271303	-2.9164979461	 1.2397358318	 0.101312
H	 1.3407517699	-0.2834558578	 1.8758825043	 0.097161
H	-2.9229561767	-1.745899848	 1.1937429333	 0.108553
H	-2.5773159753	-0.0019816856	 1.6040411295	 0.117853
H	-2.7949295251	 0.6246953704	-0.8403986407	 0.124733
H	-3.1521081537	-1.1169594077	-1.2578057583	 0.108115
