19
gdb 41341	3.0811	1.85943	1.53406	1.7649	73.53	-0.248	0.0787	0.3267	921.2157	0.162517	-423.017361	-423.010813	-423.009869	-423.047921	27.765	
C	-0.0323361322	 1.5191188717	 0.1788833321	-0.247486
C	 1.5024079386	 1.526800919	-0.1382164513	-0.33402
C	 1.3067616959	 0.1593106043	-0.7907555904	 0.386857
C	 2.0976775521	-1.1309168742	-0.9226294328	-0.161306
O	 1.1753571487	-1.8933550254	-1.7363637135	-0.290856
C	 0.1796915518	-0.9512506998	-2.1724783673	 0.195476
C	-0.9009701219	-0.7781387736	-1.0765326038	-0.270951
C	-0.0367339566	-0.0299090773	-0.0361982878	-0.01165
O	 0.840881895	 0.292613181	-2.1539910746	-0.286682
H	-0.3320030757	 1.8775911643	 1.1654230669	 0.099817
H	-0.6078039625	 2.0460169099	-0.5842913984	 0.117244
H	 1.8982182106	 2.3160962474	-0.7797865402	 0.115401
H	 2.1061040017	 1.4604932141	 0.7706773368	 0.110236
H	 3.0562490018	-1.0166895893	-1.4435405809	 0.102091
H	 2.2534548468	-1.6447167876	 0.0313642191	 0.102019
H	-0.153270792	-1.2177590318	-3.1759058397	 0.088443
H	-1.7423233365	-0.1880175654	-1.4535430025	 0.102149
H	-1.2776409625	-1.7378764863	-0.716202196	 0.107618
H	 0.0629886371	-0.565403701	 0.9102501641	 0.0756
