13
gdb 2162	3.57354	3.32165	1.96525	2.7333	49.55	-0.2742	0.0009	0.2751	646.5752	0.102021	-381.630276	-381.623783	-381.622839	-381.661018	22.584	
C	 0.021422043	 1.5119404421	-0.0550450621	-0.402896
C	-0.0378802279	-0.0144301124	 0.0056842733	-0.026179
O	 0.6242459633	-0.6496669178	-1.0825415773	-0.256379
C	 1.8612678321	-1.1255545558	-0.6116841387	 0.027972
O	 1.76413212	-1.2549779638	 0.8036542338	-0.216327
C	 0.6753737343	-0.5650549521	 1.2386547945	 0.419602
O	 0.3865884029	-0.4364399103	 2.3899793047	-0.33102
H	 1.0560494176	 1.8681619636	-0.0634514272	 0.128056
H	-0.4765668673	 1.8690852893	-0.9594724207	 0.13567
H	-0.4819609145	 1.9328077682	 0.8196319979	 0.147595
H	-1.0791906757	-0.3524723472	 0.0141700295	 0.125819
H	 2.0623312265	-2.1085145822	-1.0473977812	 0.13432
H	 2.6837549558	-0.4318068416	-0.8416335265	 0.113766
