18
gdb 72022	2.86883	2.09126	1.86768	0.3668	72.38	-0.2366	0.0875	0.3241	841.6448	0.15044	-401.916872	-401.910608	-401.909664	-401.947045	26.912	
C	-0.0350995112	 1.4854938822	 0.0085724259	-0.497842
C	 0.0345674811	-0.0166612821	-0.0455893608	 0.319153
C	 0.8620690718	-0.7335601609	-1.1128161704	-0.253716
C	 0.6772866384	-2.110582955	-0.4478833417	 0.03563
O	 1.2594143008	-1.8774168944	 0.8478517342	-0.253415
C	 0.3679895608	-0.8517969552	 1.2670438843	 0.001886
C	-1.0419592637	-1.440525927	 1.1271117179	-0.057655
C	-0.8522685117	-2.1176414174	-0.1742896204	-0.059027
N	-1.3310593204	-0.6974975234	-0.139791944	-0.180617
H	 0.9604792723	 1.9146947182	 0.1615335284	 0.119612
H	-0.4456970308	 1.8876173599	-0.9231389692	 0.129253
H	-0.6814856027	 1.8180129977	 0.8272327044	 0.123922
H	 0.3970107782	-0.6512913913	-2.0990741238	 0.108876
H	 1.9122650454	-0.4359588243	-1.1528640306	 0.106006
H	 1.1108340822	-2.9948924855	-0.9092678347	 0.08226
H	 0.7095590785	-0.3688220441	 2.1795700081	 0.082064
H	-1.7918702708	-1.6668806421	 1.8761241133	 0.094276
H	-1.5351544283	-2.8567162651	-0.5716351508	 0.099334
