18
gdb 40734	4.83617	1.06863	0.9675	1.0948	72.02	-0.2452	0.0772	0.3224	1235.4953	0.14833	-439.026386	-439.018729	-439.017785	-439.059165	29.364	
C	 0.0236682414	 1.483773662	-0.0455912637	-0.236208
N	 1.199738397	 0.6020978252	-0.0396923578	-0.312366
C	-0.1442488476	 0.0118955149	 0.0209260933	-0.032072
C	-0.4939864257	-0.6652114609	 1.3125632405	 0.233913
O	-1.9028654258	-0.6206616846	 1.5227307144	-0.276914
C	-2.2239531071	-1.7798154653	 2.2550038053	 0.063405
C	-2.4011650488	-3.0437854212	 1.4425279187	-0.324998
C	-1.0711807779	-2.7129484738	 2.083950617	 0.061821
O	-0.1458340134	-2.0448285031	 1.2594702761	-0.27602
H	-0.0996432914	 2.0848296407	 0.8509872816	 0.125001
H	-0.2656817439	 1.9808995066	-0.9671999624	 0.116192
H	 1.5796197254	 0.5053433201	-0.9767522966	 0.237744
H	-0.5351743173	-0.4961263531	-0.8572551514	 0.092253
H	 0.0314430375	-0.1798008155	 2.1523950389	 0.076882
H	-2.753857007	-1.6089582299	 3.1855016727	 0.105167
H	-2.9863757272	-3.846073039	 1.8811648376	 0.114601
H	-2.4730200644	-2.9363586326	 0.3665049124	 0.125642
H	-0.6387191938	-3.3199454705	 2.8715858533	 0.105959
