20
gdb 22685	3.2092	0.86672	0.74014	1.5215	78.94	-0.2522	-0.0015	0.2508	1555.5958	0.169662	-440.222903	-440.213146	-440.212202	-440.258247	35.955	
O	 0.3282505844	 0.9065103007	 0.8620916903	-0.420547
C	 0.0036592174	 0.0205659735	-0.1927837417	-0.136627
C	-1.444409573	-0.4410770337	-0.1440264894	 0.341623
C	-1.7783921512	-1.9088529041	-0.0544631972	-0.30797
C	-1.3589933479	-2.6922522358	-1.2890754619	 0.029149
C	 0.0007465397	-3.3431104432	-1.3896773931	-0.255672
C	-1.2340704426	-4.192532071	-1.2228795711	-0.277473
N	-2.4400419336	 0.3603842203	-0.1713704235	-0.170734
O	-2.018792393	 1.7099986912	-0.2839008903	-0.414657
H	-0.2833343363	 1.6483094486	 0.7767342782	 0.296177
H	 0.1925612437	 0.4736671635	-1.1793470257	 0.10914
H	 0.6701057652	-0.8387033864	-0.0959775523	 0.114438
H	-1.2797923247	-2.3337631002	 0.827576332	 0.109747
H	-2.8577736011	-2.0038320872	 0.1003176273	 0.120743
H	-1.7622469542	-2.2932628076	-2.2161073374	 0.092525
H	 0.5046687712	-3.3433122756	-2.3497949602	 0.11535
H	 0.670665481	-3.2622341826	-0.5397733663	 0.115264
H	-1.3917482227	-4.6701409581	-0.2611942563	 0.113943
H	-1.580209878	-4.7752402907	-2.0690746223	 0.114847
H	-2.8539003543	 2.1873320685	-0.2521861092	 0.310736
