13
gdb 127784	3.66833	1.72628	1.18267	3.9438	66.73	-0.2614	-0.0585	0.2029	947.7013	0.092867	-445.061656	-445.054999	-445.054055	-445.093032	24.381	
C	 0.00400374	 1.4426323559	-0.0275614542	-0.343522
N	-0.0057588643	 0.0008867424	 0.0778434247	-0.115359
N	-0.0734254142	-0.782832733	-1.0600281809	-0.119794
N	-0.0723912634	-2.0411549442	-0.7627615952	-0.27369
C	-0.0031597279	-2.1165036917	 0.605008444	 0.364868
N	 0.0382700309	-3.0139562331	 1.5995500846	-0.29539
N	 0.1005454576	-2.2113394473	 2.6574160906	-0.077634
N	 0.1068230243	-0.87424376	 2.4775403781	-0.345766
C	 0.0391340741	-0.828053403	 1.1467271962	 0.423396
H	 0.9223323886	 1.8541146007	 0.4009566953	 0.153795
H	-0.046763187	 1.6888263665	-1.0883897344	 0.171703
H	-0.8579143902	 1.8728001268	 0.490464819	 0.153778
H	 0.1435515514	-2.5946726199	 3.5894673321	 0.303616
