20
gdb 83428	2.8905	1.30444	1.12634	3.0814	79.13	-0.2256	0.0688	0.2944	1175.1162	0.170737	-403.07852	-403.06997	-403.069025	-403.111886	32.486	
C	 0.0135882772	 1.5901279831	 0.5910465825	-0.430559
C	 0.1027752943	 0.0813271257	 0.5859685801	-0.024299
N	 0.9982293953	-0.7130664261	-0.2936391523	-0.196848
C	 2.316921198	 0.011595725	-0.3643497783	-0.150337
C	 2.5338386957	-0.0821066572	 1.1651207325	-0.32724
C	 1.1508468785	-0.7363002815	 1.2322493847	 0.32021
C	 0.8616160315	-1.9440431476	 2.0509206728	-0.035428
C	 0.1014186621	-1.8566666958	 3.3094520761	-0.177387
O	-0.4942778024	-2.3831390205	 2.1255811518	-0.222723
H	 0.977916426	 2.0864147641	 0.7202278477	 0.120629
H	-0.4290475829	 1.9499308739	-0.3442642831	 0.129821
H	-0.6362392843	 1.9162155646	 1.4098544686	 0.123371
H	-0.869283286	-0.4055711488	 0.6107141777	 0.114903
H	 3.024367529	-0.5840031921	-0.9441290429	 0.111357
H	 2.2596797545	 1.0107649451	-0.8060286403	 0.104588
H	 3.3374026698	-0.772716591	 1.4312950468	 0.110762
H	 2.6710994648	 0.8418674855	 1.7351920493	 0.102879
H	 1.5833160848	-2.7570613046	 1.9503066254	 0.095681
H	 0.2861585846	-2.5787248095	 4.1033347646	 0.117445
H	-0.2812928204	-0.8899261122	 3.6334774863	 0.113175
