13
gdb 1456	8.09329	1.43488	1.2358	4.4142	52.59	-0.246	-0.0325	0.2135	903.9591	0.101317	-377.811306	-377.803457	-377.802513	-377.844248	25.834	
N	 0.3357773536	 1.4056900284	-0.0437752613	-0.4834
C	 0.0301430928	-0.0072447889	 0.0394449034	-0.277301
C	-1.4691434299	-0.3496915379	-0.0270456351	 0.398264
O	-2.328152753	 0.4851313602	-0.1393849136	-0.299012
N	-1.7196196164	-1.7284214506	 0.057047743	-0.346684
C	-2.9489073039	-2.3850263966	 0.0296253976	 0.168229
O	-4.0287411157	-1.8755422564	-0.072655419	-0.248601
H	-0.0618457385	 1.7777598567	-0.9022213134	 0.240817
H	-0.1591945451	 1.8930937569	 0.6984580247	 0.240818
H	 0.5432911553	-0.5419680876	-0.7716834922	 0.131566
H	 0.4371038766	-0.4161488548	 0.974517435	 0.131569
H	-0.9116555891	-2.3284443979	 0.1493641102	 0.257455
H	-2.7952547565	-3.4805583114	 0.1178917206	 0.08628
