15
gdb 54367	3.93052	1.4754	1.26471	2.5014	68.49	-0.229	0.0136	0.2426	970.6404	0.112694	-416.71713	-416.709786	-416.708842	-416.749172	28.084	
N	-0.1180966271	 1.2525529575	 0.2263634496	-0.546997
C	 0.0153338916	-0.072386707	-0.0484226459	 0.263842
O	 1.0676564817	-0.63248386	-0.2999999099	-0.377966
C	-1.2731288165	-0.7981824404	-0.0136059614	 0.335377
C	-1.8401861803	-1.8665619937	-0.9250667279	-0.158129
C	-3.2394110098	-1.2794327567	-0.6031331099	-0.05301
C	-3.0430723974	-1.5585886319	 0.8433751634	-0.05301
C	-1.6390769743	-2.1526121022	 0.5568322846	-0.158109
N	-2.6513035384	-0.2136595808	 0.2862394926	-0.236699
H	 0.6988745159	 1.8394738907	 0.2271855443	 0.262579
H	-1.0255394701	 1.6421665053	 0.4234806629	 0.274729
H	-1.3902588552	-2.3342479004	-1.7878601904	 0.118486
H	-4.1322538834	-1.1140488531	-1.1932588836	 0.10521
H	-3.7447837308	-1.6649491095	 1.6613342817	 0.105213
H	-1.0062204258	-2.880470188	 1.0419022398	 0.118484
