20
gdb 61303	5.33718	0.68051	0.63419	4.6846	80.14	-0.2766	0.0316	0.3081	1722.874	0.16952	-403.14784	-403.138014	-403.13707	-403.183552	34.99	
C	-0.138143893	 1.5490327493	 0.0326978351	-0.398708
C	-0.0140173885	 0.0213866261	-0.0157180836	 0.020299
C	 0.7794704002	-0.5181090219	 1.2002160074	-0.350448
C	 2.1494181442	-0.0135167797	 1.2625161226	 0.26472
N	 3.2324599082	 0.3887627371	 1.293665129	-0.312055
C	-1.3832262167	-0.6825094788	-0.0758730025	-0.227346
C	-2.1583105518	-0.3920460996	-1.339339106	 0.08396
C	-3.6258615668	-0.3964883089	-1.3745093033	-0.181946
O	-2.8970773752	 0.831984036	-1.3913130136	-0.227594
H	 0.8484595213	 2.0200886666	 0.0629207456	 0.137729
H	-0.6768097655	 1.9280194573	-0.8377289269	 0.147102
H	-0.6928132168	 1.8649078067	 0.9240876828	 0.116641
H	 0.548872857	-0.2553643788	-0.9172674811	 0.095839
H	 0.266525165	-0.2452749418	 2.1310526964	 0.149605
H	 0.8206024741	-1.6131986729	 1.1720504919	 0.146057
H	-1.2369903171	-1.7696100324	-0.010229733	 0.102032
H	-1.9929731088	-0.387451881	 0.7874955466	 0.106465
H	-1.6333248634	-0.6247446269	-2.2685710709	 0.094427
H	-4.1469975485	-0.6456590403	-2.2975540306	 0.118343
H	-4.1819928577	-0.5965603859	-0.459340046	 0.114877
