19
gdb 99615	2.24531	1.32535	1.0458	1.8868	78.06	-0.2464	0.0335	0.2798	1241.3152	0.155482	-422.957743	-422.947735	-422.946791	-422.99261	36.884	
C	 0.1218649861	 1.3522573674	 0.03867223	-0.238041
O	-0.2001638134	 0.0149527143	-0.2884932444	-0.251221
C	 0.6688752871	-0.5921124637	-1.2396438955	-0.154266
C	 2.0494402735	-0.6898296831	-0.7465729725	 0.363474
C	 3.1825805402	-0.75609841	-0.351679033	-0.471555
C	 0.0604987775	-1.9581013949	-1.5175418793	 0.451971
O	-0.0905101842	-2.7338051327	-0.3682024987	-0.47319
C	-0.9671648219	-2.0864177891	-2.6155774003	-0.336261
C	 0.4145687328	-2.6993496365	-2.7622160344	-0.311826
H	 1.1178900396	 1.4315099406	 0.4924139654	 0.125978
H	 0.0871026618	 2.0001773116	-0.8502875235	 0.107145
H	-0.6298733743	 1.6921642424	 0.7543577326	 0.129997
H	 0.6685289894	-0.0023138861	-2.171080611	 0.091273
H	 4.1829501105	-0.8302754277	-0.0023536133	 0.200074
H	-0.5530331811	-2.1758808682	 0.2700304549	 0.289882
H	-1.7919487769	-2.7620157147	-2.4217069249	 0.120312
H	-1.2161221322	-1.2150427935	-3.2117885802	 0.110588
H	 1.11619544	-2.249066533	-3.455989319	 0.117003
H	 0.4985848654	-3.775399313	-2.6647741731	 0.128663
