24
gdb 63650	3.88388	0.80053	0.76833	1.0068	90.98	-0.2289	0.0856	0.3145	1636.349	0.216064	-368.37327	-368.363151	-368.362207	-368.408514	38.202	
C	-0.0548332718	 1.5048114716	-0.1484888566	-0.452625
C	 0.0422558648	-0.0015360138	 0.0182660026	 0.334758
C	-1.0786480432	-0.7579574017	-0.6718975585	-0.446405
C	 1.4118687195	-0.6432657926	 0.0326953505	-0.327056
C	 0.583457514	-0.6017102969	 1.2995488257	-0.01691
C	 1.0036624414	 0.2177512241	 2.5000947783	-0.181182
N	 1.7705412566	-0.6030301971	 3.4359590628	-0.057761
C	 3.215255912	-0.6352966921	 3.2432080321	-0.212999
C	 2.6158296105	 0.1123496169	 4.3835535431	-0.221801
H	 0.785841586	 2.0319922092	 0.309300443	 0.112367
H	-0.0681154777	 1.7705097301	-1.2122653604	 0.112434
H	-0.9775147139	 1.8958324732	 0.2973404323	 0.112911
H	-1.0878513384	-0.5509609762	-1.7489957375	 0.111027
H	-0.9718461313	-1.8392296879	-0.5412230783	 0.112214
H	-2.0579890095	-0.4685669502	-0.2717411586	 0.112105
H	 1.5492735088	-1.5956855019	-0.4691557972	 0.104756
H	 2.2746166505	 0.0140353767	-0.0251676273	 0.100251
H	 0.1291091362	-1.5451418868	 1.5917637539	 0.087528
H	 1.5719329737	 1.1102665737	 2.1837016351	 0.074059
H	 0.117679683	 0.5782074506	 3.0391075056	 0.102034
H	 3.6954436135	-1.5968856315	 3.4007610667	 0.114328
H	 3.636832518	-0.0448354385	 2.4312293126	 0.106725
H	 2.6388741225	 1.2002343258	 4.3295082437	 0.104971
H	 2.6469325447	-0.2923664346	 5.3913464664	 0.114271
