15
gdb 19146	3.02535	1.94082	1.38341	3.4697	61.6	-0.2531	-0.0442	0.2089	891.5617	0.117792	-399.749622	-399.742071	-399.741127	-399.781922	27.144	
O	-0.8604553367	 1.0969287881	-0.3675413265	-0.245031
C	 0.2254838976	 0.8602629675	 0.0913474604	 0.126768
C	 1.4149128625	 1.7701306792	-0.039428377	 0.262777
C	 2.2412162118	 1.9112869463	 1.1841666659	-0.210455
O	 2.6673830943	 1.0833620014	 0.1118424861	-0.26168
C	 1.3518032797	 2.8369577132	-1.0893232712	-0.065313
C	 2.5818573595	 3.5418366494	-1.5175880838	-0.252194
N	 1.9306016191	 2.5754317185	-2.4190644829	-0.317237
H	 0.4447613393	-0.0637360394	 0.6716440689	 0.091068
H	 2.7916777369	 2.8400860099	 1.3160413912	 0.134969
H	 1.9658079562	 1.3848917995	 2.0972955301	 0.130409
H	 0.3947356357	 3.3488790539	-1.1216166464	 0.116503
H	 2.5231485194	 4.5793138348	-1.8330297864	 0.123832
H	 3.5206718391	 3.2517360635	-1.0541482459	 0.123055
H	 2.4526935456	 1.7013792541	-2.3857178527	 0.242528
