20
gdb 19425	3.71296	1.89481	1.58109	0.1893	78.21	-0.2417	0.0896	0.3313	897.3689	0.179639	-311.85957	-311.852681	-311.851737	-311.890231	28.631	
C	-0.0463613975	 1.501809249	 0.0110161203	-0.324181
C	 1.2790974128	 0.7754953181	-0.0533997848	-0.318369
C	-0.0134008475	-0.0021636605	 0.0036944086	 0.414687
C	-0.3809779947	-0.821897805	 1.2432099675	-0.314941
C	-0.3101871103	-2.2959776159	 0.7748322071	-0.214146
C	-0.6287802899	-2.2485912959	-0.714944782	-0.025841
C	-1.8189640599	-1.4321202262	-1.1564722181	-0.302097
C	-0.435621146	-0.8226446503	-1.1881281024	-0.097325
H	-0.3074609097	 2.0048191599	 0.9369943632	 0.10529
H	-0.3920757937	 2.0120618202	-0.8821565391	 0.108501
H	 1.8269924634	 0.7964534098	-0.9904641537	 0.106453
H	 1.9108793757	 0.7851766874	 0.8292696947	 0.105762
H	 0.278300585	-0.6179577561	 2.0915099243	 0.094916
H	-1.3978984128	-0.5759041414	 1.5697877152	 0.102662
H	 0.7049001018	-2.687826852	 0.9095676106	 0.09936
H	-0.9855917793	-2.9444064601	 1.3435037178	 0.093455
H	-0.3286768533	-3.0879143862	-1.3327483505	 0.077492
H	-2.2643838369	-1.6897306278	-2.1114174052	 0.105517
H	-2.5352270444	-1.0845500645	-0.4186044417	 0.107979
H	 0.0102941172	-0.5979846925	-2.151402002	 0.074828
