17
gdb 15417	4.96278	0.98389	0.92689	2.5521	67.79	-0.2508	-0.0381	0.2127	1247.6584	0.140794	-400.965608	-400.957192	-400.956248	-400.999224	29.995	
O	 0.352570557	 1.2697029207	-0.3625799452	-0.418453
C	 0.1686318895	-0.0898079437	-0.0376423453	-0.045023
C	-1.2981517882	-0.3980753325	 0.2666841298	-0.165555
N	-2.0832928919	-0.016694794	-0.9137628494	-0.090576
C	-2.561565142	-1.0425614158	-1.8055190727	-0.252423
C	-3.5332192042	-0.2384364231	-0.9798201577	-0.089331
C	-4.2722413643	-0.9436188143	 0.1012763158	 0.158163
O	-5.4208130264	-0.7067766096	 0.3816066163	-0.258357
H	-0.3558667737	 1.4833625432	-0.9840100241	 0.287787
H	 0.5165497143	-0.7522943434	-0.8489167172	 0.085315
H	 0.7808406018	-0.3028625827	 0.8450365169	 0.10992
H	-1.4093370427	-1.4567151071	 0.5452046996	 0.095155
H	-1.6292046429	 0.2195924513	 1.1082693917	 0.125275
H	-2.494018597	-0.8446610547	-2.8714564762	 0.137738
H	-2.4094530227	-2.083377631	-1.5184049328	 0.124398
H	-4.0997676103	 0.5608573069	-1.4502091575	 0.118736
H	-3.6966282162	-1.72923262	 0.638354058	 0.07723
