16
gdb 44687	3.38794	1.48572	1.13919	4.9453	70.04	-0.2321	-0.0089	0.2231	1038.8912	0.126674	-437.902448	-437.895306	-437.894362	-437.934313	27.379	
O	-0.0733886518	 0.0813245178	 0.2659969524	-0.329001
C	 0.0094499887	 1.2333510415	-0.0118470851	 0.471171
O	-0.9893813014	 2.0711063218	-0.4370731845	-0.260859
C	-0.043400743	 3.1995732222	-0.5893178098	 0.11229
C	-0.3691751958	 4.425277852	 0.1869307589	-0.098937
C	 0.47913262	 4.8903268736	 1.1020449471	-0.025751
C	 1.7144294868	 4.1323028758	 1.5065189207	-0.219149
N	 1.5324466841	 2.7017032934	 1.2866132397	-0.295515
C	 1.100503943	 2.3220410187	-0.0454561661	-0.22347
H	 0.0424425124	 3.4196996091	-1.6582187178	 0.105744
H	-1.272485959	 4.9647568057	-0.0810078582	 0.10825
H	 0.2985569404	 5.8417315464	 1.5934658869	 0.106965
H	 2.5904046974	 4.5629217883	 0.9810546933	 0.099262
H	 1.8985323599	 4.2832239713	 2.5763069291	 0.122736
H	 2.347282122	 2.1730661712	 1.5682652134	 0.235783
H	 1.9089074462	 2.1284589512	-0.7652925698	 0.090481
