16
gdb 44403	3.58051	1.52138	1.48351	3.5168	74.27	-0.2299	-0.0412	0.1887	924.5285	0.125175	-400.629368	-400.622784	-400.62184	-400.660124	27.351	
O	-0.0370273639	-0.0292356455	-0.117014236	-0.279781
C	-0.0658019062	 1.1557728493	-0.0391136582	 0.314542
C	-1.2429571691	 2.2232578684	 0.2026392047	-0.389903
C	-0.169731047	 2.9539219791	 1.0478279479	 0.025642
C	 0.8957675939	 4.1279966216	 1.0058439241	-0.123293
N	 1.9324258174	 2.9840461733	 1.1097827639	-0.375235
C	 0.9236960886	 2.3380961312	 0.1670157731	 0.1318
C	 0.9303325485	 3.3010290142	-1.0588940678	-0.150363
C	 0.9242777923	 4.5002892223	-0.4778442177	-0.064481
H	-1.5232191924	 2.7124512986	-0.7323437493	 0.136522
H	-2.1264538797	 1.8444957623	 0.7182188046	 0.127922
H	-0.1345698707	 2.5052329819	 2.0432297208	 0.115621
H	 0.9468270639	 4.8988367363	 1.7746470644	 0.083634
H	 2.7924073946	 3.2368486924	 0.6187396988	 0.210133
H	 0.9456999816	 3.0073464832	-2.098439656	 0.118488
H	 0.9343846281	 5.4949119112	-0.8994093273	 0.118752
