21
gdb 101653	3.87143	0.66801	0.65412	2.9724	76.76	-0.2683	-0.0368	0.2316	1760.9917	0.179008	-461.367922	-461.357015	-461.356071	-461.404861	38.441	
C	-0.0776925656	 1.5766843295	-0.1228818406	-0.401107
C	 0.0285911512	 0.0487805132	-0.042088338	 0.043706
C	 0.7601119321	-0.5133534161	-1.262831268	-0.083812
O	 0.0292485937	-0.1573448678	-2.4266663162	-0.421988
C	 0.7238125451	-0.4361384607	 1.2413466639	-0.224697
C	-0.0819941645	-0.1417326394	 2.5211041113	 0.03979
O	-1.3549296383	-0.7268884618	 2.4743136184	-0.430994
C	 0.676755954	-0.6312700826	 3.7358197389	 0.139341
O	 0.2000339882	-1.4272655253	 4.5089283424	-0.262719
H	 0.9115110167	 2.0451563458	-0.0400551069	 0.101328
H	-0.5089595993	 1.8701194366	-1.0820117692	 0.139486
H	-0.7114939766	 1.9836015219	 0.6703079671	 0.117647
H	-0.9822423314	-0.3750074265	-0.0518207807	 0.111035
H	 1.7864368306	-0.1084047148	-1.2988422707	 0.078595
H	 0.8427260304	-1.608186304	-1.1694132562	 0.084334
H	 0.515000143	-0.4681126706	-3.1957152002	 0.287227
H	 0.8785887674	-1.5214379078	 1.1867003161	 0.103919
H	 1.7154199534	 0.0303016811	 1.328789915	 0.092375
H	-0.1692835411	 0.9540667364	 2.6368563838	 0.095771
H	-1.4068440692	-1.3022423502	 3.253934978	 0.294205
H	 1.6985421701	-0.2221226468	 3.8759239216	 0.096557
