13
gdb 5342	5.88567	1.5855	1.24903	2.2261	76.94	-0.2443	-0.0432	0.2011	905.8986	0.09735	-324.352265	-324.345922	-324.344978	-324.382658	24.334	
C	 0.0247136582	-1.1930612562	-0.0035931467	-0.37213
C	-0.0165229781	 0.0095239652	 0.0031838959	 0.227501
C	-0.0231219546	 1.4403732725	 0.0108574951	 0.172667
N	-1.2202850094	 2.0540089657	 0.0300701418	-0.308284
C	-1.2278089801	 3.3856847026	 0.0372534618	-0.005397
C	-0.0774051345	 4.1727163008	 0.0261313584	-0.114153
C	 1.1571408741	 3.5323326545	 0.0062993078	-0.081616
C	 1.1896537484	 2.1445731764	-0.0015143713	-0.159483
H	 0.0429384688	-2.2548489582	-0.0092729606	 0.196755
H	-2.2098855731	 3.8529028816	 0.0528147378	 0.111025
H	-0.1534087266	 5.2540705941	 0.0328973041	 0.107576
H	 2.0799708172	 4.1027332824	-0.0029398412	 0.1122
H	 2.1257952995	 1.5995809087	-0.0168584129	 0.113339
