16
gdb 72059	2.46847	1.67092	1.30128	5.5685	75.23	-0.2548	0.0173	0.2721	1003.8108	0.125087	-400.711314	-400.703783	-400.702839	-400.743235	29.2	
O	-0.2925508427	 1.2860455151	-0.1143405614	-0.4516
C	-0.0449906829	-0.0601535459	-0.0475614007	 0.345137
C	 0.9252402947	-0.8688958858	-0.9070840541	-0.291216
C	 0.1132683842	-2.1152838739	-0.4524128713	-0.123646
C	 0.3841632663	-2.2147572315	 1.0749631196	-0.233917
C	-0.3736055735	-0.8949513206	 1.1926962444	-0.187976
C	-1.1064632196	-1.1494205832	-0.1305863721	 0.241488
C	-2.4725916652	-1.1343055119	-0.4744912416	 0.124097
N	-3.5937910078	-1.1355359949	-0.7679953058	-0.370719
H	 0.2111304706	 1.7342136318	 0.5741627079	 0.296202
H	 0.777163168	-0.6480866164	-1.9667202396	 0.123374
H	 1.9924735853	-0.8486554504	-0.6599728711	 0.09636
H	 0.0519195169	-2.9995150755	-1.0800112911	 0.100178
H	-0.1686641422	-3.0358088738	 1.5379011059	 0.119644
H	 1.4316873154	-2.2442124799	 1.393507154	 0.099819
H	-0.8064743475	-0.4262162331	 2.067533787	 0.112774
