12
gdb 129993	7.29292	0.87314	0.78801	5.6656	59.22	-0.2596	-0.026	0.2336	1319.5386	0.077384	-505.964632	-505.956895	-505.955951	-505.997519	27.213	
N	-0.029411129	 1.2863146182	 0.2388521199	-0.591708
C	-0.0378159006	-0.0439759481	 0.0175000182	 0.534686
N	-1.0693830172	-0.8493074676	 0.0322735345	-0.392019
C	-0.4572214155	-2.0418322058	-0.1988176899	 0.463794
O	-1.195031565	-3.1668611693	-0.275810434	-0.215585
C	-0.6002840563	-4.3615985842	 0.0844612276	 0.168779
O	-1.1580019008	-5.3932975859	-0.0931011266	-0.23909
N	 0.841334533	-2.0298382672	-0.3652293351	-0.233269
O	 1.1365085916	-0.6483582007	-0.2008515821	-0.209422
H	 0.7824943513	 1.8071261569	-0.0489196292	 0.284658
H	-0.9189978192	 1.754711883	 0.1906274631	 0.290139
H	 0.3879388976	-4.2113474292	 0.5421864037	 0.139036
