15
gdb 80206	2.21929	1.62912	1.2355	5.474	72.51	-0.2586	-0.0483	0.2103	1044.5948	0.111463	-416.783252	-416.775067	-416.774123	-416.816169	29.897	
C	-0.0927389875	 1.483946969	 0.0797044565	-0.334546
N	 0.1202733676	 0.048576636	-0.1001778999	-0.111404
C	 0.6916547553	-0.5440529571	-1.2686130374	-0.087323
C	 1.7779701106	 0.3276884789	-1.9199834181	-0.377273
C	 2.5322554013	 0.2800375012	-0.567773787	 0.35993
O	 3.6154779786	 0.6253156832	-0.2111389177	-0.272104
C	 1.4326083425	-0.5699228439	 0.0845997818	 0.08244
C	 1.6095427681	-1.5967763742	 1.0635314403	 0.221188
N	 1.7918887276	-2.4244876166	 1.8500967291	-0.337567
H	 0.6849541406	 2.1328006873	-0.3415600197	 0.127262
H	-1.0505787389	 1.7403097361	-0.3811428586	 0.143268
H	-0.1641064273	 1.6818620033	 1.1516662608	 0.15378
H	 0.1909195455	-1.3897989357	-1.7251918694	 0.138812
H	 2.3638875816	-0.19692862	-2.6801689782	 0.15322
H	 1.4722933844	 1.3003863225	-2.3105470825	 0.140317
