19
gdb 98017	4.08971	0.6121	0.54642	4.5137	85.28	-0.2666	-0.0591	0.2074	2020.1476	0.155747	-423.020816	-423.010069	-423.009124	-423.059235	37.065	
C	-0.2098681182	 1.5974169659	-0.1331944316	-0.379216
C	 0.019072208	 0.0725509896	-0.085195663	-0.14407
C	-1.2856408131	-0.693476733	 0.2130997037	-0.377802
C	 0.6407164077	-0.4035354395	-1.3176691886	 0.2248
C	 1.1357032405	-0.8101897912	-2.3422911741	-0.069209
C	 1.7553173932	-1.2540097442	-3.5609748039	 0.190302
O	 1.4887705385	-2.3085465868	-4.1088910992	-0.317262
C	 2.7999103456	-0.3312263449	-4.1781848537	-0.135424
O	 3.3185133654	-0.8780391109	-5.3511647797	-0.421375
H	 0.7255245775	 2.1325659948	-0.3147289876	 0.129528
H	-0.9125908217	 1.8570235609	-0.9304849955	 0.131731
H	-0.6278736629	 1.9409783709	 0.8175946202	 0.122591
H	 0.7290900246	-0.1360414876	 0.7279060367	 0.122328
H	-2.0261339389	-0.5136629833	-0.5718234078	 0.132292
H	-1.106351046	-1.769715018	 0.271328729	 0.134517
H	-1.7058171284	-0.3579692611	 1.1659575226	 0.120547
H	 2.3250715889	 0.6471787471	-4.3595317105	 0.120396
H	 3.5873923569	-0.1575059962	-3.426290852	 0.120652
H	 2.8572763028	-1.7263106824	-5.4579802651	 0.294674
