16
gdb 11767	4.69763	1.68134	1.54238	1.2238	70.81	-0.2442	0.0394	0.2836	852.4408	0.131371	-346.547281	-346.540668	-346.539724	-346.577738	26.734	
C	 0.0009223555	-1.1907825796	-0.0398572271	-0.349818
C	 0.0120867909	 0.0116486431	-0.0083213866	 0.062822
C	 0.0217275884	 1.4483240068	 0.025661028	 0.199618
C	-0.314835564	 2.2920119617	 1.3107063893	-0.264206
C	 0.3573972989	 3.3957463749	 0.4621511254	 0.079596
C	 1.3341763935	 2.3131482199	-0.0517114734	-0.264205
O	-0.5520458143	 3.5728134439	-0.6358508437	-0.278081
C	-0.8404236374	 2.2101888543	-1.0060164262	-0.112177
H	-0.0066693206	-2.2522537464	-0.0652374964	 0.181513
H	-1.3673119418	 2.4250492032	 1.5697226827	 0.107944
H	 0.2717882124	 1.9764909351	 2.1739128953	 0.112229
H	 0.6646463567	 4.3649125535	 0.8490655751	 0.085653
H	 2.0760256664	 1.999618439	 0.6832476342	 0.112227
H	 1.7848946586	 2.465446994	-1.0346420313	 0.107944
H	-0.5325841296	 2.018027357	-2.039486735	 0.10947
H	-1.9103475137	 2.0003764498	-0.9011629704	 0.109471
