18
gdb 106697	2.52011	1.50564	1.17357	1.967	71.42	-0.24	0.0678	0.3078	1100.8188	0.146446	-439.006542	-438.997994	-438.997049	-439.039769	32.419	
C	 0.1189890248	 1.4477079068	-0.0270266354	-0.505146
C	-0.0296632543	-0.0272657696	 0.1512023475	 0.357428
O	 1.1110843572	-0.8809654314	-0.0546199432	-0.342314
C	 0.4234613935	-0.9585912494	 1.2167407807	 0.352616
C	 1.2448596794	-0.7493183408	 2.4467978938	-0.182762
O	 2.1261483252	-1.8391254411	 2.6798267233	-0.416446
C	-0.8134147524	-1.8160986058	 1.0092098493	-0.142633
N	-1.9715482671	-0.9140804992	 1.2564600446	-0.345145
C	-1.2733783803	-0.884224581	-0.0571470988	-0.139614
H	 1.0436276791	 1.8067947974	 0.4315655275	 0.133262
H	 0.1464338508	 1.7083332667	-1.0909137222	 0.131036
H	-0.7292191227	 1.965332025	 0.4306343484	 0.14257
H	 1.7920897618	 0.2014508722	 2.3664597382	 0.094546
H	 0.5878509467	-0.6898212745	 3.3198310077	 0.127578
H	 2.6829202681	-1.9177759594	 1.8970077554	 0.29289
H	-0.90613263	-2.8930475805	 1.0557743173	 0.108391
H	-2.8192719317	-1.4713349466	 1.1361355673	 0.2301
H	-1.7872277282	-1.1136526288	-0.9820671413	 0.103643
