18
gdb 79477	2.25169	1.90982	1.22884	1.7717	83.71	-0.2337	0.0203	0.254	1053.0271	0.146749	-364.682449	-364.674522	-364.673577	-364.714559	31.358	
C	-0.1733036257	 1.6135914511	-0.0173174705	-0.433235
C	-0.0248619003	 0.1033867128	 0.0016663481	-0.047508
C	 1.1998974547	-0.5639310278	-0.6353542368	-0.043456
C	 2.1600282702	-0.2479894237	 0.5502197724	-0.117725
C	 2.5152853607	-1.7254320964	 0.6348953337	-0.1944
N	 1.0384175218	-1.8234945256	 0.261190923	-0.190262
C	 0.7445890412	-0.5678926804	 1.1604679519	 0.269629
C	 0.3869303695	-0.6797047991	 2.5406640658	 0.105799
C	 0.0806622529	-0.7479501972	 3.7023719748	-0.365608
H	 0.7718345986	 2.1183221322	 0.2077268935	 0.118179
H	-0.5121398122	 1.9587433045	-0.9997487616	 0.121699
H	-0.9115731854	 1.9396673586	 0.722364288	 0.129551
H	-0.9643528303	-0.4112277774	-0.2283825337	 0.089591
H	 1.4675386731	-0.6796433502	-1.6863456001	 0.08499
H	 2.7696345355	 0.6439951242	 0.7228284386	 0.074443
H	 3.1795812382	-2.1374330217	-0.1313573122	 0.101692
H	 2.745419502	-2.1479470822	 1.617208637	 0.112288
H	-0.1918410044	-0.8141853815	 4.7266344281	 0.184332
