23
gdb 58569	2.09466	1.44388	1.18051	2.0401	81.17	-0.2514	0.0608	0.3122	1214.799	0.203861	-425.422975	-425.41278	-425.411836	-425.457267	39.441	
C	 0.2944782067	 1.5612309517	 0.2328605191	-0.416672
C	 0.2232852643	 0.0335759865	 0.1072349606	 0.101807
O	-1.0913721865	-0.4210630501	 0.398597485	-0.442059
C	 0.6408148357	-0.4885511107	-1.2793316613	 0.357728
O	-0.3540230647	-0.1040761079	-2.2293254868	-0.492515
C	 2.1255316681	-0.2303414585	-1.6660197998	-0.29525
C	 2.4458623454	-1.6983965699	-1.2817855522	-0.236964
C	 0.9283754126	-2.0206640728	-1.3623764569	 0.016241
C	 0.3237716818	-3.0209025049	-0.3886527397	-0.407014
H	 1.3134236562	 1.9422536845	 0.1154080846	 0.114969
H	-0.3459350752	 2.0499034023	-0.5114335094	 0.098166
H	-0.0734627314	 1.8580952048	 1.2179614109	 0.130506
H	 0.8791646933	-0.4097149838	 0.8665236197	 0.081212
H	-1.5756978293	-0.3366884012	-0.4341029286	 0.280878
H	-0.28547197	 0.8468680741	-2.3711999042	 0.280006
H	 2.2097048745	-0.0614411279	-2.7429575095	 0.105164
H	 2.6617856906	 0.5620440243	-1.138889673	 0.095716
H	 3.112246693	-2.256823527	-1.9421917511	 0.099787
H	 2.8254322526	-1.7806982594	-0.2586070382	 0.101184
H	 0.6831335973	-2.3131516202	-2.3892117902	 0.08261
H	 0.5381919994	-2.7606857461	 0.6520794966	 0.11765
H	-0.7625442358	-3.0812018184	-0.4923022575	 0.122632
H	 0.7400925514	-4.0177644594	-0.5747706682	 0.104219
