23
gdb 104616	2.34035	1.12201	0.90511	1.4812	82.41	-0.2434	0.0726	0.316	1423.5658	0.202705	-425.402872	-425.392107	-425.391163	-425.438808	39.716	
C	 0.8611786203	 1.0426468064	 0.4145666372	-0.247834
O	 0.051457613	-0.0152000887	-0.0581277275	-0.287646
C	 0.486847514	-0.5997450561	-1.2618807328	 0.452545
C	 0.2514685737	 0.2444451155	-2.5010270189	-0.264922
C	-1.2286869456	 0.5290498165	-2.7727916803	 0.140374
C	-1.4261938496	 1.6341387661	-3.8114665276	-0.403277
O	-1.8023415686	-0.6991099881	-3.2237026533	-0.433908
C	 1.6891926023	-1.5118458569	-1.1802924466	-0.343201
C	 0.2906832673	-2.0815804239	-1.3161787583	-0.29862
H	 1.9107821426	 0.7346425245	 0.5219170871	 0.106545
H	 0.8265840852	 1.9260237649	-0.2392133404	 0.103551
H	 0.4713957676	 1.3251146707	 1.3958089566	 0.123502
H	 0.786547741	 1.1971945203	-2.4085547682	 0.091937
H	 0.6694733481	-0.266367297	-3.375700438	 0.104415
H	-1.6955938548	 0.8334432108	-1.8238115205	 0.080502
H	-2.4920586561	 1.7914279436	-4.0129384764	 0.101951
H	-1.0105929911	 2.5856544126	-3.462934819	 0.11078
H	-0.9399618657	 1.3648937633	-4.754888418	 0.121125
H	-2.7553105178	-0.5793553762	-3.2779526347	 0.279546
H	 2.3636027189	-1.5652790244	-2.0285689363	 0.107906
H	 2.1697706485	-1.6111983304	-0.2133300671	 0.11241
H	-0.1412649454	-2.5404186289	-0.4344920755	 0.116329
H	-0.0163754979	-2.5156885946	-2.2590018814	 0.12599
