15
gdb 67678	2.71835	1.88662	1.37858	2.97	65.17	-0.2322	-0.0062	0.226	916.1329	0.113012	-457.7445	-457.737459	-457.736515	-457.775856	27.549	
O	 0.1323889684	 1.3734568498	-0.1735301987	-0.448999
C	 0.1355939077	 0.018444827	-0.0721357942	 0.301087
C	-0.2675972373	-0.8607168524	-1.223871674	-0.140361
C	 0.5615504306	-2.1181284705	-1.4783729762	-0.102523
O	 0.4890872216	-2.8691212603	-0.2634103805	-0.25976
C	-0.0808653952	-2.0264619413	 0.7298927836	-0.041024
C	-1.0547993779	-1.0688163024	 0.0290429264	-0.170237
C	 0.7675546818	-0.75721976	 1.0252993171	 0.327007
O	 1.3983404514	-0.3660411148	 1.9761314896	-0.358196
H	 0.3582771431	 1.7197863963	 0.7013411307	 0.30795
H	-0.7190259573	-0.3288251562	-2.0541361692	 0.121142
H	 0.1396904469	-2.7221113518	-2.2901675619	 0.113812
H	 1.6050806694	-1.8806125077	-1.7197891632	 0.114282
H	-0.397519897	-2.62148395	 1.5835883785	 0.10932
H	-2.1074792862	-0.9027834356	 0.2004861719	 0.126501
