18
gdb 83115	2.27504	1.77562	1.48952	2.4512	71.61	-0.2475	0.0279	0.2754	987.3152	0.147787	-439.078569	-439.070193	-439.069249	-439.11125	31.762	
C	 0.0409123746	 1.5429709227	 0.0322538997	-0.452132
C	 0.0358263205	 0.0410884634	 0.1163905722	 0.34975
O	-1.203716873	-0.4832397271	-0.325250141	-0.273179
C	-1.7801311442	-1.4808281363	 0.4123278586	 0.107085
N	-1.3074292248	-2.157217536	 1.3610018327	-0.252719
C	 0.0607095325	-1.9207351066	 1.8067801386	-0.170936
C	 0.761214311	-0.7168470999	 1.1987024888	-0.177139
C	 1.2449982362	-0.7870967798	-0.2415656553	 0.052082
O	 1.0667349336	-1.9889035314	-0.922564314	-0.420132
H	 1.0330010048	 1.9341044144	 0.2740066954	 0.123166
H	-0.2229476576	 1.8743517706	-0.9773579806	 0.129633
H	-0.6788301067	 1.975469673	 0.7349780155	 0.12943
H	-2.7895002713	-1.6543616923	 0.0448099597	 0.123942
H	 0.0318608201	-1.8047029848	 2.8953297195	 0.115473
H	 0.6289629308	-2.8369523257	 1.6064491181	 0.131789
H	 1.3562735446	-0.1196969834	 1.8828085697	 0.095094
H	 2.158733246	-0.2551009122	-0.5020360962	 0.092014
H	 0.345219483	-1.8688832186	-1.5511519514	 0.296781
