17
gdb 29828	3.7407	1.0663	0.83641	5.7436	81.85	-0.2031	-0.0203	0.1828	1328.7203	0.136599	-418.055959	-418.047051	-418.046107	-418.089653	32.289	
C	-0.0433393964	 1.4436434719	 0.0154206023	-0.34556
N	-0.0163671378	-0.0052948599	 0.0042329054	-0.022465
C	-0.0046700419	-0.8020771934	-1.1023969368	-0.175459
C	-0.0002091081	-2.1239254463	-0.6898970151	 0.189887
C	 0.0018574127	-3.2759771233	-1.5730983604	 0.074622
O	 0.0032230381	-4.4358839882	-1.2139151696	-0.300441
C	 0.0127272848	-2.1187123474	 0.7406948136	-0.36005
C	 0.0053858403	-0.807543712	 1.1398680989	 0.309646
N	-0.0739746304	-0.1995389736	 2.4056402766	-0.608051
H	 0.9640887114	 1.8693893939	 0.0946819984	 0.135403
H	-0.5019404505	 1.8036123111	-0.9074870349	 0.143659
H	-0.6341055414	 1.7816591677	 0.8692280502	 0.162766
H	 0.0019358501	-0.3775292432	-2.0943833724	 0.131556
H	 0.002877284	-3.0169844052	-2.658024239	 0.04721
H	 0.0278645167	-2.9898600896	 1.3759896559	 0.114842
H	-0.3248918611	-0.8811691128	 3.1107258088	 0.255111
H	 0.7966237394	 0.2398373405	 2.690897398	 0.247322
