19
gdb 84473	3.82017	1.16599	1.01489	3.354	82.52	-0.2375	-0.015	0.2225	1211.059	0.15915	-385.90562	-385.897328	-385.896384	-385.938356	31.982	
C	-0.1196271598	 1.6279421375	 0.0377950353	-0.391909
C	 0.0297244775	 0.0992297884	 0.0057020712	-0.044426
C	 0.7973624927	-0.4324751911	-1.1920885042	-0.084403
C	 1.7577533221	-1.2931310588	-0.8536874931	-0.16421
C	 1.8598714461	-1.4473462113	 0.6263178059	 0.233766
C	 2.2359011686	-0.1670320648	 1.3845367155	-0.32428
C	 0.7943394839	-0.4899274081	 1.1994540741	-0.097825
C	 2.1663134319	-2.7438804717	 1.2541957329	 0.074571
O	 2.4207055461	-3.7592576531	 0.6512561056	-0.26991
H	 0.8559344733	 2.1226855388	 0.064673589	 0.119378
H	-0.6515466299	 1.9834001739	-0.8506837166	 0.117956
H	-0.6868295291	 1.9480575107	 0.9173970255	 0.118175
H	-0.9828370933	-0.3304332997	-0.0029521994	 0.09039
H	 0.5659170642	-0.1177082176	-2.2039428184	 0.098539
H	 2.411626641	-1.8291963776	-1.5295560697	 0.116719
H	 2.642619343	-0.289617948	 2.3840180323	 0.12196
H	 2.7038299085	 0.6115748212	 0.7929606665	 0.128917
H	 0.2322703191	-0.7841015425	 2.078827581	 0.097923
H	 2.1563425539	-2.7227050964	 2.3700760065	 0.058668
