15
gdb 44304	3.94209	1.76639	1.56295	4.5771	66.15	-0.2501	0.007	0.2571	841.6763	0.115689	-420.61694	-420.611311	-420.610367	-420.646841	23.745	
O	-0.0409484798	-0.0333503591	-0.1906969108	-0.344862
C	-0.0069485449	 1.1512475526	-0.0349787256	 0.452866
O	-1.1412553644	 1.9113349981	 0.1373304864	-0.244512
C	-0.7325989914	 3.2672981768	 0.3450060093	 0.103012
C	 0.0193420612	 3.5179087214	 1.6536154729	-0.096364
C	 1.1942887642	 4.1448238628	 0.9332498441	-0.118062
C	 1.3220239586	 2.7371933744	 1.4534864363	-0.067752
C	 1.1759966228	 2.1026701953	 0.0440830257	-0.201585
C	 0.6259705394	 3.4933051818	-0.3753963363	-0.088587
H	-1.5617254994	 3.9321544311	 0.1114026304	 0.098304
H	-0.3789158493	 3.7334757141	 2.6351962968	 0.102746
H	 1.7569212798	 5.0440601361	 1.1283059307	 0.107926
H	 1.8959080653	 2.3622165511	 2.2890679277	 0.108387
H	 2.0924245116	 1.7339025211	-0.4095371014	 0.099185
H	 0.6867150063	 3.8634067222	-1.3951438061	 0.0893
