18
gdb 18018	4.32023	1.54526	1.38692	2.2011	67.65	-0.238	0.0731	0.3112	953.5424	0.153875	-384.889248	-384.881679	-384.880735	-384.92147	28.003	
C	-0.0150725109	 1.524820047	 0.2257579456	-0.237446
O	 0.5347403248	 0.2694861984	-0.1069723491	-0.237995
C	 0.7776828514	-0.5446128717	 1.0079059056	 0.137601
C	-0.4420622919	-1.2245054824	 1.7244548814	-0.276984
C	 0.1862152863	-2.6072906737	 1.4223869772	 0.116734
O	-0.3329528354	-3.1968561742	 0.2173834021	-0.291372
C	 0.7221730089	-2.6007559185	-0.5801147461	-0.079739
C	 1.3573986241	-1.9308535073	 0.6509640797	-0.125061
H	 0.6552522535	 2.0976110519	 0.8858864287	 0.104512
H	-0.1512874934	 2.0779144628	-0.7064272451	 0.128961
H	-0.9900376125	 1.4273942259	 0.7257111511	 0.111565
H	 1.4167766465	-0.0137905822	 1.7306033334	 0.065303
H	-0.5421403519	-0.9739683155	 2.7835447106	 0.098342
H	-1.4021153358	-1.0897099569	 1.2211214141	 0.11595
H	 0.2890663609	-3.3293047888	 2.2359402403	 0.074801
H	 1.3452323603	-3.3722404704	-1.0478100017	 0.099328
H	 0.3383859929	-1.9223327807	-1.3481670969	 0.119908
H	 2.4176152922	-2.1020581834	 0.8302052091	 0.075592
