19
gdb 32932	4.28631	0.92418	0.83955	3.566	79.82	-0.2045	0.0384	0.2429	1442.76	0.159087	-419.245869	-419.236459	-419.235515	-419.281347	33.626	
C	-0.1991297519	 1.0370571504	-1.0602850711	-0.378781
C	-0.0521836406	 0.1695771713	 0.1803952039	-0.070147
O	 1.1017946673	-0.6937868773	 0.1196189633	-0.285189
C	 0.984294194	-1.7828891482	-0.6709511307	 0.337602
C	 1.251106354	-2.0299101344	-1.9899629325	-0.1959
N	 1.0149081907	-3.3575892327	-2.2820803731	-0.291877
C	 0.6131675136	-3.9163152365	-1.1618909027	 0.346055
C	 0.2474424685	-5.3514183671	-0.9821847962	-0.496096
N	 0.5699954999	-2.9969779174	-0.1465757413	-0.342907
H	 0.6951417708	 1.6489666762	-1.2091139167	 0.129161
H	-0.3532646728	 0.4207131916	-1.950161013	 0.137264
H	-1.0616724914	 1.7026468631	-0.9509103169	 0.117313
H	 0.1103526092	 0.7838505616	 1.0704645609	 0.113052
H	-0.9525777806	-0.4374753271	 0.3437177654	 0.099101
H	 1.6085198393	-1.334978726	-2.733447648	 0.106857
H	 0.8844212159	-5.8481910508	-0.240714309	 0.128739
H	-0.7930037308	-5.4740887439	-0.6585261729	 0.127439
H	 0.3726942292	-5.8601527597	-1.9389369928	 0.156928
H	 0.3471651457	-3.1607405931	 0.8212976035	 0.261384
