20
gdb 80552	2.84993	1.33161	1.19014	1.777	80.54	-0.2113	0.0097	0.221	1137.0559	0.17173	-403.122022	-403.113568	-403.112624	-403.154822	33.147	
C	-0.3261023735	 1.4889745569	 0.0864284518	-0.4208
C	-0.0225794557	 0.0121823536	-0.0088944167	 0.011932
C	 0.6221923004	-0.6041162196	-1.2131977543	-0.079853
C	 1.1285795458	 0.2048827735	-2.3483961807	-0.073067
C	 2.3675566821	 0.6938832306	-2.3281554182	-0.10223
C	 3.2854684452	 0.4726461387	-1.1474602632	 0.072171
O	 4.1952475815	 1.5532154754	-0.961728446	-0.429042
C	 2.4843924043	 0.3743769923	 0.1567879144	-0.165936
N	 1.3401187133	-0.5451852366	 0.0649930159	-0.132624
H	 0.2700650174	 2.0868668275	-0.6060966821	 0.131957
H	-1.382419242	 1.658291501	-0.1477990141	 0.119159
H	-0.1517642754	 1.8620819726	 1.1022345	 0.124959
H	-0.7405255661	-0.6100033755	 0.5254646266	 0.086041
H	 0.3018415121	-1.6105770258	-1.4889850944	 0.092331
H	 0.4777647599	 0.3437364204	-3.2083675353	 0.093574
H	 2.7678458889	 1.2594534448	-3.166513246	 0.086114
H	 3.8451233207	-0.4658809976	-1.2984465958	 0.083209
H	 4.8249315471	 1.5436416585	-1.6891988088	 0.283296
H	 3.1416024932	 0.0188922287	 0.9572998221	 0.106954
H	 2.1860355009	 1.3956913706	 0.4191211048	 0.111853
