22
gdb 15824	3.85765	0.97881	0.83158	1.3035	78.65	-0.2611	0.0809	0.342	1422.547	0.199061	-350.190574	-350.180836	-350.179892	-350.225424	35.41	
C	 0.1917320474	 1.4305059898	 0.1121861714	-0.393912
C	-0.0466659491	-0.0842445822	 0.0044533903	 0.003179
C	-1.5400555868	-0.4557789018	 0.0404703219	-0.160787
C	-2.2555990425	-0.1081479113	 1.3405188562	-0.085973
O	-3.5757350554	-0.6284348726	 1.2558630547	-0.4214
C	 0.6012013398	-0.6351473297	-1.2549514613	 0.049557
C	 2.0718834199	-0.9627154884	-1.2867971963	-0.279941
C	 1.0473051762	-2.0721645309	-1.329868857	-0.274823
H	 1.259763114	 1.6594018913	 0.0448386734	 0.114816
H	-0.3147524079	 1.962064452	-0.7024156871	 0.11193
H	-0.1787558114	 1.8406845516	 1.0564400123	 0.110161
H	 0.4431489665	-0.5677440274	 0.8635366537	 0.06288
H	-2.0649911066	 0.0340019587	-0.7902330255	 0.097749
H	-1.6467833291	-1.5349043376	-0.1188531546	 0.106877
H	-1.7097019065	-0.5476528556	 2.1928100298	 0.080079
H	-2.2742556018	 0.981588803	 1.4939310549	 0.085481
H	-4.0480948167	-0.3790446982	 2.0553674895	 0.283562
H	 0.1914744699	-0.2205250037	-2.1743308704	 0.076963
H	 2.6355976893	-0.7447402598	-2.1872553973	 0.108489
H	 2.6387501508	-0.8371346003	-0.3693897067	 0.107232
H	 0.9311645785	-2.6847082656	-0.4411101457	 0.108423
H	 0.9099693316	-2.6134193311	-2.2594479963	 0.109458
