20
gdb 23053	3.03586	1.07585	0.92494	1.0017	85.29	-0.2258	0.0082	0.234	1343.6264	0.169318	-403.089853	-403.080477	-403.079533	-403.124137	35.139	
C	-0.110053273	 1.4058218932	-0.1634949199	-0.406172
C	 0.0754938962	-0.0883039133	-0.031178974	-0.048309
C	 1.4453624255	-0.702223905	-0.1020062334	-0.344493
C	 0.7064239907	-0.6731805198	 1.2157870878	 0.270963
C	 1.0898109262	 0.0361508819	 2.5325649035	-0.321234
C	 0.5539809304	-1.2064747279	 3.3227843166	-0.323314
C	 0.2183609906	-1.8480891619	 1.9882117016	 0.364286
N	-0.2752392083	-2.9455776391	 1.5902030152	-0.263456
O	-0.6018664831	-3.7769275788	 2.6825914342	-0.395126
H	 0.7263677702	 1.9507485893	 0.2859635318	 0.116615
H	-0.1692511777	 1.7007206869	-1.2169571537	 0.121292
H	-1.029769872	 1.7409159579	 0.3286495696	 0.119378
H	-0.7310622594	-0.6920163514	-0.4396353229	 0.100519
H	 1.5629531735	-1.6697508793	-0.578172277	 0.125874
H	 2.295863168	-0.033976446	-0.2051932798	 0.110175
H	 2.1592362596	 0.2205169299	 2.6583292157	 0.106921
H	 0.5480750953	 0.9642995214	 2.7303532359	 0.107212
H	 1.2980088823	-1.7524845761	 3.9089095484	 0.127684
H	-0.3137238138	-1.0202101543	 3.9615278012	 0.127071
H	-0.9542105711	-4.5573593575	 2.2422024692	 0.304114
