21
gdb 71936	2.62168	1.94569	1.4557	1.4693	80.96	-0.2347	0.0796	0.3144	987.6652	0.184334	-387.080509	-387.073006	-387.072061	-387.112076	30.949	
C	 0.0669994328	 1.5015534602	 0.0790975186	-0.456953
C	-0.0164786859	-0.0078386724	-0.0297871557	 0.427925
C	 0.313066979	-0.6587839608	-1.4113522739	-0.268609
C	-0.9601010827	-1.5304322407	-1.3050207985	-0.028132
C	-0.8188724871	-2.7802560651	-0.3914474222	-0.239815
C	-1.1989502241	-1.9332702919	 0.8651631072	-0.033452
C	-0.0497443098	-1.5182719669	 1.7745478222	-0.09568
O	 0.7490122122	-0.6085478099	 1.0237186949	-0.310773
C	-1.4144455595	-0.7016924349	-0.0521192648	-0.105668
H	 1.1085350516	 1.831466976	 0.0052484017	 0.124169
H	-0.5042085078	 1.9861752088	-0.7189497577	 0.109341
H	-0.3280678426	 1.8397591991	 1.0427554246	 0.115388
H	 0.2404197805	 0.065663596	-2.2281435048	 0.09272
H	 1.2780053906	-1.1695348472	-1.4689231145	 0.096893
H	-1.5652452027	-1.6473888533	-2.2040156771	 0.063196
H	-1.5666832397	-3.5457406399	-0.6125036504	 0.099671
H	 0.1670146462	-3.255734526	-0.3733676216	 0.097236
H	-2.0629429647	-2.3029530417	 1.4203237362	 0.069361
H	-0.4340201546	-1.0324448905	 2.6862687032	 0.085131
H	 0.586088011	-2.3570567817	 2.0812890751	 0.101257
H	-2.3139443927	-0.0910288574	 0.0174620975	 0.056793
