18
gdb 49812	3.40767	1.21262	0.91992	3.0746	85.12	-0.2124	-0.0106	0.2018	1245.9948	0.150184	-401.987884	-401.979986	-401.979042	-402.020671	30.108	
O	 0.0333681505	 0.0285527994	-1.0162109112	-0.318958
C	 0.0263489444	 1.1743861992	-0.6386830214	 0.159288
N	 1.0260282552	 1.774907389	 0.1255011507	-0.12076
C	 2.1261522883	 0.9689496505	 0.473461525	 0.029706
C	 3.2842025398	 1.3198973019	 1.0359692854	-0.117874
C	 3.7736225535	 2.6751688308	 1.4585683595	-0.27073
C	 2.7233613431	 3.5491715077	 2.171021606	-0.270014
C	 1.5162373603	 3.8826363725	 1.3431934761	-0.11793
C	 0.8285644389	 3.114737341	 0.4953597682	 0.033248
H	-0.7926592703	 1.8801139475	-0.8625075369	 0.093344
H	 1.9406311217	-0.0599606703	 0.1934998635	 0.144402
H	 3.9716556306	 0.4941077576	 1.1957914488	 0.098964
H	 4.6330175737	 2.5448684547	 2.1253705634	 0.103799
H	 4.1514367087	 3.225465881	 0.5868237935	 0.121282
H	 2.4164188932	 3.0423498227	 3.0953617422	 0.121905
H	 3.1987327565	 4.4845358571	 2.4869801382	 0.103211
H	 1.1320039393	 4.8934110596	 1.4447193941	 0.095241
H	-0.0374166274	 3.5392197679	-0.0023284052	 0.111877
