12
gdb 130819	4.48239	1.08803	0.87551	3.4079	65.12	-0.2655	-0.1215	0.144	1191.5739	0.076391	-472.620175	-472.61262	-472.611675	-472.653507	25.833	
O	-0.1051375184	 0.0466716452	 0.0028158547	-0.204274
C	-0.0346679134	 1.2436868006	 0.0085566383	 0.082823
C	 1.3420266567	 1.9544507618	-0.0020039764	 0.19077
O	 2.3706296007	 1.3207523508	-0.0165788643	-0.26682
C	 1.3477127169	 3.4291744385	 0.0056447358	 0.34362
C	 2.377574231	 4.325389136	-0.0006548255	-0.300453
C	 1.720911844	 5.5781526879	 0.012908394	 0.035445
N	 0.4118894307	 5.4503198321	 0.0262539	-0.112185
O	 0.1690100663	 4.0916871466	 0.021624085	-0.20678
H	-0.927490143	 1.8979185051	 0.0215792769	 0.124755
H	 3.4313507012	 4.1056488637	-0.0130370688	 0.159395
H	 2.1487587773	 6.5701799017	 0.0135639301	 0.153705
