17
gdb 6102	4.67266	0.99054	0.88675	2.3941	61.38	-0.2682	0.0542	0.3224	1287.761	0.14037	-438.180702	-438.17124	-438.170296	-438.216111	33.168	
C	-0.0298226604	 0.6771195487	-0.7350864052	-0.398846
C	 0.0706154133	-0.1469150147	 0.5455948655	 0.106698
O	 0.412341303	 0.64943301	 1.6734783797	-0.427813
C	-1.2120687621	-0.9191841572	 0.8566963041	-0.071829
O	-1.4364549354	-1.8581996748	-0.2036644651	-0.262655
C	-2.6699158781	-2.4252058033	-0.2299383659	 0.499648
N	-2.7643276035	-3.2762048937	-1.2960848412	-0.563617
O	-3.5568139959	-2.1832472972	 0.553480002	-0.394156
H	 0.9098803778	 1.2028513925	-0.9233293599	 0.125396
H	-0.2573164549	 0.0373087847	-1.5916741344	 0.130869
H	-0.8316138698	 1.4223846684	-0.6519528255	 0.107011
H	 0.8907248059	-0.8680137277	 0.4499403773	 0.098379
H	-0.2218379486	 1.3733291499	 1.7263016092	 0.2807
H	-1.1072512679	-1.4495854778	 1.8081921776	 0.122044
H	-2.0721388861	-0.2450917469	 0.9370589113	 0.115204
H	-1.9181284636	-3.5860385089	-1.7429886617	 0.263721
H	-3.5494236738	-3.904326982	-1.2897605577	 0.269248
