18
gdb 49019	3.0288	1.5541	1.2972	3.0783	75.29	-0.2264	-0.0296	0.1967	1014.471	0.147918	-401.88155	-401.874077	-401.873132	-401.913574	29.449	
O	-0.7816438769	 0.9716893997	-0.58561315	-0.255784
C	 0.2745794774	 0.8345854268	-0.0233852228	 0.111197
C	 1.3594389919	 1.8771736191	 0.0341889496	 0.268924
C	 1.324709797	 3.0241445357	-1.00258904	-0.324371
C	 2.7131950097	 2.5157966981	-1.4862951892	-0.172205
N	 2.6846401035	 1.3734464613	-0.5004863324	-0.170574
C	 3.3064902713	 1.5928040828	 0.8230050708	-0.005087
C	 3.1690847408	 2.9839225913	 1.374585289	-0.308084
C	 1.9831907535	 2.0611814267	 1.4330149609	-0.136102
H	 0.5452878047	-0.1151617634	 0.4906245552	 0.083381
H	 0.5129862463	 2.9115872391	-1.7222355636	 0.132802
H	 1.2982108451	 4.0342804872	-0.5899577924	 0.111021
H	 2.7384746594	 2.1450811962	-2.5138628789	 0.114813
H	 3.5507251872	 3.2037916633	-1.3413933996	 0.110466
H	 4.048674107	 0.8945468807	 1.1930525103	 0.100695
H	 3.6623143885	 3.1262789673	 2.3312806291	 0.122005
H	 3.1761751885	 3.8668040621	 0.7445219864	 0.118143
H	 1.5066602452	 1.7827154457	 2.3648617575	 0.09876
