20
gdb 40927	3.72428	1.29705	1.18128	2.853	77.91	-0.2102	0.0686	0.2788	1117.744	0.171988	-403.080749	-403.07293	-403.071986	-403.113867	30.136	
C	 0.2123255386	 1.493246774	-0.3537632307	-0.074724
C	 1.6656900212	 1.3821067543	 0.1411137093	-0.360549
C	 1.2058943171	 0.0469008601	 0.7615481428	 0.434416
C	 1.8573565874	-1.3285913078	 0.4789107602	-0.24515
N	 1.9595165518	-1.6444133116	 1.936300408	-0.12602
C	 3.2443623341	-1.1775799637	 2.5516747716	-0.163252
C	 2.595215463	 0.1530756001	 3.0191653567	-0.254658
C	 1.3267503951	-0.3032316844	 2.2655227346	-0.046937
O	-0.1308277681	 0.2318774187	 0.2563864434	-0.312046
H	-0.3732201849	 2.3217482481	 0.0621494413	 0.104488
H	 0.0736770341	 1.4717087992	-1.4410858244	 0.105004
H	 2.4247062048	 1.2904659295	-0.6383276048	 0.112251
H	 1.9785813508	 2.1443354629	 0.8575328481	 0.113886
H	 1.1728218951	-2.0075802069	-0.0395501356	 0.11726
H	 2.8165821866	-1.3130758737	-0.0531983501	 0.095126
H	 3.5801216333	-1.8391508795	 3.3555219097	 0.107576
H	 4.0646424101	-1.0721385571	 1.8314582937	 0.095425
H	 2.4587879144	 0.2285785559	 4.0997447252	 0.111338
H	 3.062493672	 1.0764736374	 2.6665361628	 0.10231
H	 0.3736191237	-0.3020249856	 2.8018319983	 0.084256
