15
gdb 25891	4.49974	1.01663	0.83678	2.8841	70.53	-0.1981	-0.0125	0.1856	1294.693	0.113665	-454.005079	-453.996684	-453.99574	-454.038332	31.283	
N	-0.0575105509	 1.3226823427	-0.1556593678	-0.540982
C	 0.0341101182	-0.0453036268	-0.0147808598	 0.300526
O	 1.1002151398	-0.6121061184	 0.1401390394	-0.35708
C	-1.2543833007	-0.774745132	-0.0249498348	 0.197333
C	-2.5164036506	-0.2898810587	 0.1338229238	-0.138629
O	-3.4199994005	-1.3149074042	 0.0913528203	-0.177169
C	-2.712714864	-2.463074717	-0.0924084696	 0.405199
N	-3.4816014496	-3.6051322959	-0.244936145	-0.59326
C	-1.3796358347	-2.2013631243	-0.163440644	-0.387652
H	 0.8218109512	 1.7984424286	-0.2897554571	 0.257012
H	-0.8532526821	 1.7137164253	-0.6329498143	 0.252698
H	-2.9291040699	 0.6841891957	 0.3339651697	 0.139876
H	-4.3180866975	-3.5969106322	 0.3251053629	 0.25804
H	-2.9526039501	-4.4530789828	-0.096362195	 0.260743
H	-0.5696686986	-2.8986914399	-0.2941230787	 0.123345
