21
gdb 47841	2.34451	1.51825	1.0558	2.877	84.31	-0.2274	-0.0135	0.2139	1187.1151	0.184682	-387.120898	-387.112514	-387.11157	-387.153845	32.832	
O	 0.0342573909	-0.1445916257	-0.1956082262	-0.30107
C	 0.0133548044	 1.0505835914	-0.0124157339	 0.382765
C	-1.315002164	 1.8013556423	 0.0928226738	-0.2875
C	-1.7166655826	 2.5787547634	-1.1938639892	-0.19042
C	-1.4006866	 4.0835920739	-1.2043236877	-0.187589
C	 0.0521134283	 4.4706772457	-0.8355161909	-0.248154
C	 1.0868723663	 3.7038698678	-1.6077700783	-0.030307
C	 1.6322316886	 2.553813735	-1.2068071261	-0.066771
C	 1.3202198339	 1.8499517755	 0.097343155	-0.342567
H	-2.0631712001	 1.0322540848	 0.298049289	 0.121314
H	-1.293128568	 2.4840098306	 0.951476211	 0.102106
H	-1.2572278839	 2.0937229532	-2.0605266357	 0.116115
H	-2.7980373425	 2.470109571	-1.3280292156	 0.105333
H	-1.636180799	 4.4721106788	-2.2026680953	 0.100866
H	-2.0730534697	 4.6004958351	-0.5079017191	 0.098345
H	 0.1749547679	 5.5471193294	-0.9994007874	 0.101204
H	 0.1952791919	 4.3068582123	 0.2387202092	 0.101253
H	 1.3653054444	 4.0990249416	-2.5827137695	 0.089078
H	 2.3267928367	 2.0372520813	-1.8635608635	 0.101089
H	 1.2336756641	 2.5722850721	 0.916673095	 0.114085
H	 2.1110005225	 1.1385288606	 0.3430600553	 0.120824
