21
gdb 94460	2.67736	1.42644	1.20636	1.0562	78.06	-0.2448	0.0839	0.3287	1137.0545	0.182977	-424.221623	-424.21295	-424.212006	-424.255365	32.749	
C	-0.6751333491	 1.2081722344	-0.0042364659	-0.427167
C	 0.1476490669	-0.0666178303	-0.1038578491	 0.002989
C	 1.5577491414	-0.0498659537	-0.759045175	-0.24308
C	 2.0176491623	-1.1009756045	 0.2876818487	-0.292809
C	 0.7987970394	-0.7108354438	 1.1585106583	 0.396845
C	 1.0880022343	 0.1981606042	 2.3641848299	-0.166132
O	 0.0213600751	-0.0885214525	 3.2566858068	-0.238062
C	-0.1834195151	-1.4685464172	 3.1024628792	 0.011597
O	 0.0491035613	-1.7743667218	 1.7409054595	-0.30385
H	-0.080230902	 2.0500832485	 0.366793877	 0.110703
H	-1.0680870252	 1.4973183649	-0.9848912535	 0.115079
H	-1.5258516189	 1.0754754565	 0.6726178241	 0.127787
H	-0.4515525851	-0.8580188691	-0.5677100672	 0.085515
H	 1.6266001568	-0.3247730168	-1.8132100627	 0.101417
H	 2.0581090159	 0.9137192823	-0.6182374623	 0.098044
H	 1.9079086358	-2.1239491221	-0.0802007109	 0.116115
H	 3.0103989665	-0.9884199084	 0.7329240607	 0.093726
H	 2.0584592017	-0.0648291946	 2.8162783645	 0.092751
H	 1.0768816082	 1.266357779	 2.1441775347	 0.120347
H	 0.5137074039	-2.043812663	 3.7389727549	 0.082872
H	-1.2179927341	-1.706192672	 3.3705032683	 0.115314
