16
gdb 132604	3.10487	1.31155	0.92401	2.4588	78.37	-0.1774	0.0082	0.1856	1191.5169	0.125564	-442.096962	-442.088858	-442.087914	-442.129094	31.916	
N	-0.0006246906	 1.4299446953	 0.1234542466	-0.594853
C	 0.0017199929	 0.0274762362	 0.0460264416	 0.312446
C	-1.1925107031	-0.7010610984	 0.04732678	-0.179935
C	-1.1843726456	-2.092317293	 0.0433956103	-0.168055
C	 0.0088903515	-2.8178319872	 0.0309337519	 0.147157
N	 0.0600126704	-4.2200832369	 0.0860160357	-0.600216
C	 1.1859911954	-2.066718958	 0.0222177355	 0.270879
F	 2.3539328718	-2.7400742285	-0.0097917706	-0.100424
C	 1.2072069883	-0.6851031621	 0.0316174074	-0.326562
H	 0.8167584266	 1.8627204267	-0.2842441831	 0.24275
H	-0.8403566704	 1.8530328746	-0.2472137452	 0.242431
H	-2.1410623493	-0.1730405086	 0.0581693549	 0.080588
H	-2.1263836633	-2.6325375586	 0.0503913457	 0.087988
H	-0.7057987094	-4.6694435163	-0.3970164759	 0.24316
H	 0.9461517204	-4.5867536483	-0.2336828743	 0.248454
H	 2.1655529943	-0.1772364369	 0.0271654896	 0.094194
