17
gdb 126633	4.9819	0.8389	0.75776	1.8575	71.53	-0.2554	-0.0204	0.2351	1501.9647	0.136962	-451.323058	-451.314458	-451.313514	-451.357387	30.635	
C	-0.0017628437	 1.5166357443	 0.005305379	-0.383485
C	 0.0713656232	-0.0116858556	-0.0214778076	-0.180952
C	 0.701462699	-0.5674374105	 1.2589011469	-0.129379
N	 0.7930058172	-2.0196145933	 1.2478325286	 0.14613
N	 0.04526398	-2.7889102141	 2.0147297595	-0.13004
N	 0.3667601374	-4.0303360751	 1.7188774937	-0.306531
C	 1.3146844899	-3.9368909504	 0.761796311	 0.480525
O	 1.9045745347	-4.9899424185	 0.1945359816	-0.397935
N	 1.614796784	-2.6882262084	 0.4323109878	-0.326135
H	 0.9948293932	 1.961988688	 0.096790844	 0.123242
H	-0.4533629903	 1.899423416	-0.9138439672	 0.126299
H	-0.6052963301	 1.8736906557	 0.8468573587	 0.122349
H	-0.9314122261	-0.4389706615	-0.1345524503	 0.117948
H	 0.6620917098	-0.3513574902	-0.8781810419	 0.132478
H	 1.7127846629	-0.1729824725	 1.3967695621	 0.138484
H	 0.1054100783	-0.3175964843	 2.1392618631	 0.14769
H	 1.5245940908	-5.7795704597	 0.600123771	 0.319314
