21
gdb 63892	2.71439	1.67822	1.50795	1.399	81.31	-0.2331	0.0191	0.2522	996.4339	0.184294	-387.103265	-387.095484	-387.09454	-387.134682	32.901	
C	-0.1506488257	 1.5637949076	-0.0071417244	-0.461927
C	 0.0238096459	 0.0470742077	-0.0124496721	 0.433671
O	-1.2634636034	-0.5813556669	 0.0171546285	-0.486148
C	 0.8948192784	-0.4963438623	-1.1988056004	-0.26487
C	 1.9905018471	-1.3507654386	-0.4795811867	-0.057648
C	 1.1701206763	-1.9261804486	 0.6999964913	-0.217659
C	 0.7842415498	-0.5251627628	 1.2338045261	-0.068311
C	 2.155893734	 0.1328566552	 1.2820192632	-0.092171
C	 2.8740711071	-0.3594937322	 0.268244421	-0.078239
H	 0.8139959934	 2.0769501314	 0.0239521618	 0.120447
H	-0.6723162085	 1.8944061254	-0.9143910595	 0.100398
H	-0.7458775027	 1.8760134834	 0.8568113712	 0.117887
H	-1.7605861697	-0.2686035496	-0.7459324463	 0.271356
H	 0.2705482553	-1.122631684	-1.8434226833	 0.090902
H	 1.3276848928	 0.2999875165	-1.8098446738	 0.092526
H	 2.5049413541	-2.06067189	-1.1283091051	 0.056464
H	 0.3050994199	-2.5166258633	 0.3902985554	 0.107411
H	 1.7835842803	-2.4908699344	 1.4059845486	 0.089787
H	 0.1824537605	-0.4756090488	 2.1413974535	 0.061892
H	 2.4391718293	 0.9210322505	 1.9682355172	 0.093251
H	 3.8638479059	-0.0541958163	-0.0487559361	 0.090981
