16
gdb 128754	6.63119	0.7613	0.69211	2.8125	79.32	-0.213	-0.0051	0.2079	1579.3284	0.12517	-434.079978	-434.071378	-434.070434	-434.114514	29.941	
C	 0.0546309751	 1.3672639185	 0.0188227935	-0.250178
O	-0.205338729	-0.0249854213	-0.1278854598	-0.189729
C	 0.5185654336	-0.654540076	-1.065405031	 0.131566
N	 0.407589322	-1.9074180808	-1.2087965727	-0.330576
C	 1.1171791249	-2.520245437	-2.2381768193	 0.411019
N	 1.5303351144	-1.8843447077	-3.3411618045	-0.308508
N	 2.1582115932	-2.8386496679	-4.0567630778	-0.185691
C	 2.143972861	-4.054070559	-3.457292354	-0.014723
C	 1.4707182423	-3.8917627606	-2.2681878921	-0.294369
H	 1.0704151269	 1.5460463948	 0.3906741514	 0.130673
H	-0.0843320433	 1.9020017669	-0.9281026853	 0.132119
H	-0.6650416313	 1.7382084784	 0.7492393293	 0.146745
H	 1.1726121667	-0.0130683911	-1.6680691372	 0.107711
H	 2.5207800074	-2.6042415119	-4.9646434035	 0.273074
H	 2.5991818186	-4.9171341072	-3.9169430925	 0.132054
H	 1.2631937377	-4.6328318881	-1.5149455246	 0.108814
