16
gdb 34771	2.14185	1.8334	1.21763	4.3559	77.9	-0.2621	0.0229	0.285	1034.6665	0.124174	-363.559702	-363.551702	-363.550757	-363.592318	30.401	
C	-0.1625005056	-1.2506881962	-0.2857946548	-0.437673
C	-0.0727115807	-0.0634151184	-0.1219142353	 0.323192
C	 0.0148171178	 1.3718890057	 0.0639990281	-0.185109
C	-0.1840592251	 2.0055363963	 1.4967286295	-0.266347
C	 1.138894645	 2.7584894714	 1.3184535541	-0.07005
C	 2.2839165113	 1.7804456759	 1.1613608496	-0.171086
C	 2.3485048754	 0.5315494728	 1.8760971698	 0.301246
N	 2.4226491193	-0.4480630426	 2.4865545724	-0.346251
C	 1.3834687486	 2.0756635391	-0.0205212426	-0.078939
H	-0.221915664	-2.3036006226	-0.4106207367	 0.202453
H	-0.6696424263	 1.8691626196	-0.6304294966	 0.117164
H	-1.0576941718	 2.6566253706	 1.5391433041	 0.118826
H	-0.2170310296	 1.298282337	 2.3278031795	 0.138578
H	 1.3325608204	 3.7819640027	 1.6134773815	 0.107906
H	 3.2542542269	 2.2606883962	 1.0705695638	 0.137355
H	 1.8170981885	 2.4672169824	-0.9326727563	 0.108733
