20
gdb 87830	2.81683	1.34965	1.15561	1.3598	79.51	-0.2379	0.0691	0.307	1165.5208	0.169336	-403.091974	-403.083043	-403.082099	-403.125249	34.178	
C	-0.1442732383	 1.4794867771	-0.0570866828	-0.391618
C	 0.0276386634	-0.0151130883	 0.0557768099	-0.072115
N	 1.4110312517	-0.537101797	-0.0749591775	-0.393048
C	 0.7063281198	-0.6561749353	 1.1998557617	 0.305251
C	 1.2840355458	-0.0904125533	 2.5211681208	-0.333601
C	 0.8770712533	-1.4201953609	 3.1787699595	-0.046466
O	-0.5375867452	-1.5714104562	 2.986145847	-0.287672
C	 0.3433874381	-1.9591269477	 1.9130299023	 0.335317
C	 0.2283332602	-3.3382666843	 1.3528176319	-0.521421
H	 0.6846644163	 1.9999479077	 0.4296603133	 0.12667
H	-0.1685864833	 1.792107782	-1.1065266551	 0.119156
H	-1.0800009499	 1.7982221886	 0.4144939769	 0.120618
H	-0.7602776372	-0.6029988856	-0.415224045	 0.08082
H	 1.409972904	-1.4272968886	-0.5688825284	 0.227164
H	 2.3651042097	 0.053694607	 2.4531269886	 0.117134
H	 0.8093976579	 0.7994697438	 2.9412946777	 0.11122
H	 1.3196048896	-1.9271372907	 4.0289524247	 0.102648
H	-0.6456040997	-3.4250864992	 0.6967167704	 0.132078
H	 1.1178355999	-3.6023832635	 0.7711006817	 0.126631
H	 0.1152832039	-4.0651303956	 2.1611280225	 0.141235
