16
gdb 26085	3.3526	1.18684	1.01656	4.629	74.26	-0.2377	0.0049	0.2425	1172.7749	0.125712	-396.972155	-396.963941	-396.962996	-397.006154	29.531	
C	-0.185105491	 1.4892842543	 0.0823900202	-0.381629
C	 0.0950031415	-0.0198523417	-0.0468541021	-0.131367
C	 0.8612307892	-0.3040572884	-1.2709998482	 0.290011
N	 1.4503841493	-0.4921297494	-2.2461436101	-0.30848
N	 0.7770221846	-0.5638470827	 1.1212852861	 0.007276
C	 0.1573457831	-1.1098017454	 2.2293994069	-0.122842
C	 1.1639815769	-1.3755390603	 3.1168470537	-0.091589
N	 2.3821693272	-1.0092324363	 2.5922923528	-0.270844
C	 2.1167045353	-0.5233118942	 1.4036708384	 0.014967
H	 0.7513398103	 2.0456738993	 0.1617183161	 0.153171
H	-0.7364266128	 1.8488644239	-0.7899518725	 0.147176
H	-0.7796840934	 1.6691621419	 0.9809002394	 0.144285
H	-0.8569519857	-0.5545552502	-0.1350232689	 0.151823
H	-0.9101241561	-1.2542232965	 2.2653803874	 0.131036
H	 1.083165968	-1.8173821622	 4.0981964216	 0.116755
H	 2.8368622538	-0.1479508521	 0.6918802491	 0.150251
