22
gdb 63438	4.07852	0.75866	0.74897	3.0207	84.27	-0.2261	-0.0234	0.2027	1624.6125	0.191406	-404.337976	-404.327905	-404.32696	-404.37351	36.835	
C	-0.0365926036	 1.5337821348	-0.0410663416	-0.434446
C	-0.101775455	 0.0059699191	-0.0378719159	 0.327533
C	-1.4946271361	-0.5002829067	-0.3900947327	-0.455379
C	 1.0909380372	-0.6336640716	-0.8114574877	-0.205066
N	 1.8216200139	-0.7535954157	 0.4646333382	-0.084877
C	 2.662283674	-1.9018819016	 0.6961939052	-0.236636
C	 3.5007114478	-1.7273332762	 1.9529799288	 0.157891
O	 3.8322138158	-2.6235344121	 2.683613646	-0.237032
C	 0.5650750218	-0.6090257849	 1.2285120074	-0.211235
H	 0.9685834824	 1.8807235864	 0.2158258963	 0.126727
H	-0.2944370382	 1.9344748542	-1.0279453286	 0.112014
H	-0.7398157549	 1.957609854	 0.6847161698	 0.112637
H	-1.7993293353	-0.1521882777	-1.3839243001	 0.116275
H	-1.5387742579	-1.5940420113	-0.3899393955	 0.11236
H	-2.2380713519	-0.1345771637	 0.3275663062	 0.11718
H	 0.8212483496	-1.606450561	-1.2536777871	 0.08302
H	 1.5941916509	-0.0251987473	-1.5721848629	 0.098412
H	 2.1223343571	-2.8640890948	 0.758199689	 0.101466
H	 3.3749069422	-1.982336068	-0.1390568502	 0.128918
H	 3.8019951803	-0.6709867908	 2.1366233749	 0.082886
H	 0.6376180195	 0.0180828268	 2.1244932499	 0.101122
H	 0.1156559404	-1.5766284919	 1.5069393306	 0.086231
