19
gdb 75216	2.72231	1.52037	1.20951	2.5022	76.68	-0.2378	0.014	0.2518	1092.172	0.158888	-423.021829	-423.013412	-423.012468	-423.054625	32.408	
C	 0.2583201975	 1.4310050645	 0.0676147653	-0.500267
C	 0.0020092266	-0.0395219031	-0.0199825177	 0.330402
C	 0.0062137419	-0.8103958471	-1.1135284101	-0.17096
C	-0.2644844954	-2.2697929043	-0.8401663474	-0.350348
C	-0.3384612203	-2.3388525097	 0.7000968845	 0.365474
O	-1.326391253	-3.1950162992	 1.214930874	-0.483178
C	 0.9827057945	-2.5110241053	 1.4763797364	-0.103636
O	 0.9434629667	-1.1548971088	 1.9720368352	-0.293983
C	-0.2611106607	-0.8688772347	 1.2093016416	-0.044597
H	 1.1114877522	 1.6300884918	 0.7269444006	 0.144334
H	 0.4707551582	 1.8667209557	-0.9124974674	 0.121373
H	-0.6017598082	 1.95875482	 0.498976171	 0.124786
H	 0.1891470761	-0.4400202252	-2.1180429481	 0.091545
H	-1.2116441166	-2.6049884155	-1.289141555	 0.095604
H	 0.5107448761	-2.9302863684	-1.2487362247	 0.11368
H	-2.1568203866	-3.0057397542	 0.7649775993	 0.277553
H	 0.9151036536	-3.2464173873	 2.2850071828	 0.112616
H	 1.873673485	-2.7055623073	 0.8669545919	 0.097567
H	-1.0591763976	-0.4943007019	 1.862142028	 0.072036
