19
gdb 66634	3.33622	1.81684	1.66057	1.5234	76.86	-0.2426	0.0974	0.34	903.5361	0.162297	-385.874326	-385.867877	-385.866932	-385.904734	27.676	
C	-0.0073016761	 1.5159524578	-0.0312835611	-0.527024
C	-0.0094613289	 0.0175322681	-0.0043866381	 0.368803
C	 0.4997713711	-1.0243983767	-0.9731549323	-0.142931
C	 1.1416106425	-0.8806260971	 0.4038443181	-0.132419
C	 0.5299094427	-1.9838466618	 1.3173920381	 0.047073
C	 0.062130081	-3.0508422171	 0.3048727855	-0.21118
C	-0.6203363519	-2.0171157168	-0.6024751803	-0.08334
C	-1.1345632776	-0.9350134317	 0.4576570856	-0.006861
O	-0.7342973118	-1.4282811947	 1.7298895858	-0.253876
H	 0.9459941015	 1.9028054316	-0.4068498985	 0.118906
H	-0.8003192039	 1.9076723497	-0.6786424667	 0.117745
H	-0.16086742	 1.9266317305	 0.97314859	 0.128147
H	 1.0230236863	-0.9151721733	-1.9151293563	 0.08161
H	 2.1390870063	-0.4828569949	 0.5329027021	 0.084924
H	 1.1071649043	-2.2954790241	 2.1855581013	 0.072469
H	 0.8850611701	-3.5659584457	-0.1990667673	 0.094925
H	-0.6147671617	-3.7741368262	 0.7661952002	 0.100631
H	-1.3116510693	-2.354078814	-1.3713857027	 0.067792
H	-2.1738410147	-0.6126950138	 0.4644560467	 0.074606
