14
gdb 53891	4.56286	0.76052	0.65505	3.1841	60.29	-0.262	-0.0581	0.2039	1575.2791	0.097651	-511.019565	-511.009943	-511.008999	-511.05661	31.763	
N	-0.034474043	 1.2789629046	-0.0445438693	-0.513111
C	 0.0681216944	-0.0666638322	 0.0451235443	 0.296905
O	 1.0911848068	-0.7117309142	 0.0714039885	-0.33192
C	-1.3360303911	-0.7101407002	 0.1126264582	 0.385666
O	-2.3636717266	-0.0771352034	 0.085000726	-0.364718
O	-1.2547445838	-2.036330454	 0.2018402341	-0.2165
C	-2.5000719507	-2.7402139182	 0.2629367243	-0.161528
C	-2.1909719263	-4.2237407604	 0.1654367793	 0.136393
O	-3.0386799749	-5.0671767497	 0.2756178458	-0.22945
H	 0.8007925621	 1.8367790316	-0.0975068236	 0.27476
H	-0.9450328057	 1.7078956979	-0.0589458887	 0.284084
H	-3.0223228372	-2.520505403	 1.2000692337	 0.16077
H	-3.1551283464	-2.4336116585	-0.559970527	 0.163231
H	-1.1218957774	-4.4594697903	-0.0215931257	 0.115418
