14
gdb 128064	4.63416	1.05652	0.86516	2.4048	66.78	-0.2439	-0.0884	0.1555	1255.2409	0.1005	-466.132245	-466.123754	-466.12281	-466.166403	28.986	
C	 0.005496146	 1.4277020268	 0.0277881229	-0.314191
N	-0.066241802	-0.0172441274	-0.0523149867	-0.319256
C	-1.2608908745	-0.6649704782	 0.0091756689	 0.318781
N	-2.3786542774	-0.041571166	 0.058251695	-0.544047
C	-1.1486811459	-2.1437906755	 0.0002834745	 0.391441
N	-0.0398843466	-2.8273714912	-0.0331477441	-0.16687
O	-0.4259672181	-4.1195572086	-0.0186451027	-0.137693
N	-1.8244428488	-4.1665233036	 0.0241353913	 0.051377
N	-2.2462323216	-2.9865073266	 0.0358464801	-0.206786
H	 1.0422034998	 1.7364097979	-0.1171630045	 0.125867
H	-0.6173198708	 1.8788627587	-0.7495973189	 0.153889
H	-0.351782532	 1.8001955144	 0.9954886997	 0.138877
H	 0.7741751387	-0.5603624763	 0.0441867403	 0.2677
H	-3.1558773967	-0.6984526644	 0.0681974042	 0.240909
