22
gdb 108627	2.58345	1.30842	0.96314	1.349	89.56	-0.2145	0.0259	0.2404	1312.5781	0.19463	-367.210381	-367.201131	-367.200187	-367.244561	35.166	
C	 0.1066473108	 1.5284797397	 0.3688396404	-0.371438
C	-0.021701699	 0.0525995649	-0.0511299277	-0.289719
C	-1.4399573061	-0.4372511749	-0.1039533881	 0.216551
C	-2.1209424351	-0.8859187489	-1.1725818948	 0.249678
C	-1.679554253	-0.9936231912	-2.5990041193	-0.509243
C	-3.4733543763	-1.3744241557	-0.7555443127	-0.134163
N	-3.3946246509	-2.5410217562	 0.175528829	-0.338422
C	-3.5718018267	-1.1720178	 0.7103763318	-0.042307
C	-2.2769520322	-0.5186178219	 1.1687968806	-0.30238
H	 1.1569023816	 1.8354852357	 0.393323239	 0.11118
H	-0.4220094351	 2.1816740121	-0.3327730548	 0.11716
H	-0.3123367578	 1.7012511287	 1.3650744119	 0.118615
H	 0.4627356627	-0.0878645691	-1.0226825739	 0.099561
H	 0.5433792158	-0.5649849291	 0.6614820503	 0.104275
H	-0.6863103708	-0.5705461811	-2.7658936489	 0.122585
H	-1.6594494364	-2.0418409508	-2.9241764069	 0.131933
H	-2.3785299666	-0.4734575612	-3.2669543837	 0.119821
H	-4.3248959582	-1.3035205093	-1.425836738	 0.079023
H	-4.3047215125	-3.0003710001	 0.1908870609	 0.222243
H	-4.5088001397	-0.9225916042	 1.1965097382	 0.082552
H	-1.7734860915	-1.1088548898	 1.9450683011	 0.112028
H	-2.4663609932	 0.4746951827	 1.5973102256	 0.100468
