17
gdb 128815	4.87043	0.82064	0.72027	2.042	72.11	-0.2169	0.0374	0.2543	1536.0977	0.135975	-455.147757	-455.138702	-455.137758	-455.182412	32.205	
C	 0.1965601598	 1.4251026857	 0.0000423681	-0.218853
O	 0.3148596742	 0.0287102294	-0.1202822879	-0.234477
C	 0.5015681437	-0.6087441756	 1.1291184632	-0.167078
C	 0.5488728255	-2.0877016983	 0.9182828599	 0.359441
N	 1.4439812013	-2.827533218	 1.5608538627	-0.306367
N	 1.1691518763	-4.0989244386	 1.1643235944	-0.253828
C	 0.1417625521	-4.1557334854	 0.2886074046	 0.459285
O	-0.2263096924	-5.3606686888	-0.197804355	-0.429705
C	-0.304373441	-2.8660516709	 0.0961408663	-0.434241
H	 1.1026798625	 1.8779683377	 0.4331625657	 0.104887
H	 0.0468703655	 1.8286896366	-1.0044128573	 0.124933
H	-0.661122703	 1.7114803334	 0.630569572	 0.100799
H	 1.4347960188	-0.2833131867	 1.613594923	 0.107081
H	-0.3285112068	-0.3416011952	 1.8078366541	 0.092548
H	 1.7224297431	-4.8672297218	 1.5025262187	 0.276416
H	-0.9585700218	-5.2342609462	-0.8089169777	 0.314018
H	-1.1004589079	-2.5269283073	-0.5450644347	 0.105142
