20
gdb 67652	2.93065	1.88134	1.6404	1.2677	81.27	-0.2278	0.0844	0.3122	931.2717	0.173652	-365.968546	-365.961724	-365.96078	-365.999241	28.991	
C	-0.0305500667	 1.5267807393	-0.027456446	-0.495146
C	 0.0725532779	 0.031329846	-0.0068737384	 0.326047
C	 0.545494167	-0.9681086989	-1.0316258267	-0.125942
C	 0.9444060776	-1.9331353596	 0.1139733759	-0.054006
C	-0.3897023669	-2.5710716931	 0.6812905302	-0.052124
C	-0.2501581212	-1.7025248102	 1.9633511838	-0.247239
C	 0.701348985	-0.7999796802	 1.1537945085	-0.074788
C	-1.4660833714	-1.9567083027	-0.223541005	-0.159752
N	-0.8790978046	-0.7470666914	-0.8228090225	-0.144404
H	 0.9308909332	 1.9899265666	 0.2202261001	 0.114418
H	-0.3435727766	 1.874676579	-1.0152175042	 0.130859
H	-0.7686121683	 1.8784810635	 0.7037974245	 0.119192
H	 0.9832643265	-0.8528019853	-2.0173599487	 0.083876
H	 1.8576961669	-2.5215441241	 0.0808958512	 0.065788
H	-0.4650480727	-3.6537890649	 0.7942605398	 0.064588
H	-1.1687159406	-1.2705973162	 2.3753073867	 0.089026
H	 0.2885375032	-2.2203182433	 2.7625409884	 0.094645
H	 1.5276207127	-0.2813119765	 1.6439400125	 0.063767
H	-1.736773223	-2.6266131424	-1.0478224816	 0.09938
H	-2.380598138	-1.7060898755	 0.3242707214	 0.101815
