15
gdb 80105	2.76618	1.54969	1.28064	3.3341	70.5	-0.2716	-0.0185	0.2532	1002.896	0.113251	-416.813853	-416.806168	-416.805224	-416.846144	28.431	
C	-0.0804444076	 1.5478148752	 0.0449130026	-0.419092
C	 0.0848536752	 0.0473800882	 0.0088178549	-0.092989
C	 1.3907789138	-0.6724450358	-0.2565384546	-0.080058
N	 2.6162399964	 0.0476836458	-0.0495399222	-0.23747
C	 2.6358410409	 0.3822846235	 1.1756250723	 0.086562
O	 1.613717913	-0.0157577878	 1.984250074	-0.233994
C	 0.7230350542	-0.7328528558	 1.1398693206	 0.245602
C	 0.1040307398	-1.8660882236	 1.7547906501	 0.238391
N	-0.4193865749	-2.7891295674	 2.2153259792	-0.338375
H	 0.8168655531	 2.0565769862	 0.4010234498	 0.140567
H	-0.2966609446	 1.9210785179	-0.960483277	 0.137018
H	-0.9115464976	 1.8267281121	 0.6992105864	 0.137919
H	-0.7614860992	-0.4911302007	-0.4093062082	 0.124434
H	 1.4208487629	-1.5080076218	-0.9446605679	 0.130986
H	 3.3997917145	 0.9663836539	 1.67297468	 0.160498
