15
gdb 35656	3.67997	1.01236	0.88803	3.5767	80.47	-0.256	-0.052	0.204	1275.912	0.11316	-379.643723	-379.635456	-379.634512	-379.677195	30.245	
C	 0.1767668274	-1.132519957	 0.3197001957	-0.466473
C	 0.0357941348	 0.0443005042	 0.1232059503	 0.383868
C	-0.0978714661	 1.4832360197	-0.138876756	-0.241025
N	-0.7972494265	 2.2090585542	 0.948694514	-0.29245
C	 0.2129363963	 2.9489986043	 1.7212318391	-0.266731
C	 1.4500709201	 2.9523301358	 0.8304995314	 0.201275
C	 1.2754811779	 2.1364282384	-0.2120061468	-0.164656
C	 2.6211655552	 3.6906762016	 1.1414474569	 0.205169
N	 3.5535230962	 4.3162731949	 1.4271037012	-0.328581
H	 0.2875429185	-2.1729929096	 0.5028639166	 0.206263
H	-0.6506958237	 1.6076224071	-1.0789851683	 0.11958
H	-1.4379518399	 2.8685684465	 0.5257321464	 0.234314
H	-0.1376463078	 3.9559306194	 1.9670503249	 0.129997
H	 0.4399830315	 2.4455234353	 2.6706541883	 0.140397
H	 2.0049427162	 1.9011267651	-0.9751856338	 0.139053
