20
gdb 62069	4.68264	0.66091	0.62629	3.2648	77.24	-0.2522	-0.0299	0.2223	1792.8728	0.168109	-440.251866	-440.241727	-440.240783	-440.288548	35.203	
C	 0.2110819139	 1.3318453913	-0.3675829841	-0.406347
C	 0.057272764	-0.1460629133	-0.0087172373	 0.04859
O	 0.8307445008	-0.5648704561	 1.0978500557	-0.26301
C	 2.2175376683	-0.7084725018	 0.8471927419	-0.087045
C	 2.851262291	-1.3890271947	 2.0285051679	 0.019112
C	 4.2547521644	-1.0648192846	 2.3869576969	-0.247091
N	 3.1473401382	-0.6313142469	 3.2518531058	-0.303126
C	-1.3862753114	-0.5001159455	 0.3411665989	 0.148255
O	-2.3489603717	-0.0066764374	-0.183506036	-0.244483
H	 1.1961716812	 1.5443870657	-0.7903548146	 0.117759
H	-0.551822909	 1.601799483	-1.1015730626	 0.146875
H	 0.0687141944	 1.9501788924	 0.5235312433	 0.131008
H	 0.3106477339	-0.7634563675	-0.892727686	 0.09389
H	 2.3738788341	-1.3068459885	-0.0668426134	 0.094959
H	 2.6936550876	 0.2721050236	 0.6837737085	 0.086139
H	 2.4783525037	-2.3928327287	 2.2194249188	 0.100416
H	 4.8967908198	-1.8314670293	 2.8103045238	 0.123996
H	 4.7755044701	-0.3221213813	 1.7867860498	 0.111005
H	 2.949344475	 0.3556946073	 3.1027274693	 0.232429
H	-1.4664602982	-1.2818425178	 1.1273268833	 0.09667
