21
gdb 2550	3.37774	1.84685	1.30211	0.971	71.16	-0.2427	0.0838	0.3265	1006.5324	0.192655	-312.120708	-312.111188	-312.110244	-312.15483	33.384	
C	-0.5548185941	 1.1442393942	 0.3577077421	-0.390793
C	-0.2010263579	-0.3064733327	 0.02376989	-0.166271
C	 0.6121017928	-0.4617929857	-1.2664860915	 0.137586
C	 0.9752767853	-1.9255185899	-1.5416302004	-0.166235
C	 1.8178595833	-2.1249057311	-2.8032056968	-0.390838
O	-0.1543108374	 0.0441871087	-2.3646012904	-0.252511
C	 0.4232954224	 1.1267288742	-3.057229644	-0.234409
H	 0.3454755162	 1.7507917759	 0.5099333327	 0.10701
H	-1.1341395189	 1.5945752692	-0.4529285991	 0.128648
H	-1.1521608622	 1.2042173431	 1.2726338548	 0.109704
H	 0.3662467603	-0.7549106912	 0.8490339122	 0.089774
H	-1.1208377904	-0.8954399422	-0.0814022468	 0.101683
H	 1.5406424627	 0.1248497526	-1.1752649549	 0.060155
H	 1.5069452445	-2.3224309567	-0.6676864276	 0.089794
H	 0.0422983541	-2.4966436656	-1.6275028649	 0.101655
H	 1.2885430433	-1.7475062734	-3.6823801601	 0.128631
H	 2.7766347035	-1.59839343	-2.7315023204	 0.107044
H	 2.0345716892	-3.1845817988	-2.9694611481	 0.10973
H	 0.5700669258	 2.004586667	-2.410263207	 0.103634
H	 1.3930993535	 0.8646883759	-3.5060492473	 0.103685
H	-0.2675310359	 1.3998241264	-3.8602357524	 0.122321
