20
gdb 61829	1.99271	1.41925	0.94129	3.0634	76.24	-0.2542	0.0245	0.2787	1290.203	0.168847	-440.297981	-440.287841	-440.286897	-440.333847	36.048	
C	-0.3868907492	 1.5261043752	-0.4173510036	-0.414908
C	 0.0629709377	 0.1439596751	 0.0589524257	 0.002104
N	 0.9579783666	 0.2716317104	 1.2077026331	-0.278743
C	 1.9577705364	-0.6062541977	 1.4808882592	 0.157379
O	 2.2395055664	-1.578913233	 0.811847407	-0.324343
C	-1.1365015957	-0.719470775	 0.4237316827	 0.075851
O	-2.0230866813	-1.0769927888	-0.6353773491	-0.267937
C	-1.3077891835	-2.1292278412	 0.0385942671	 0.076387
C	-0.3226773187	-2.9353683878	-0.7655556737	-0.414608
H	 0.4702264591	 2.1347851475	-0.7182982966	 0.124266
H	-1.0616701914	 1.417638696	-1.2693891516	 0.150687
H	-0.930246148	 2.0594177447	 0.372632838	 0.112634
H	 0.6368920216	-0.3474386353	-0.728963709	 0.116707
H	 0.8056848933	 1.0325403877	 1.8515171655	 0.246738
H	 2.5129043003	-0.3243654723	 2.39801507	 0.075892
H	-1.642762104	-0.3808889293	 1.3333491731	 0.075213
H	-1.947602648	-2.7225760577	 0.6954424122	 0.08836
H	 0.1761080756	-2.3219290717	-1.5177040929	 0.129667
H	 0.4449821298	-3.3589499379	-0.1127529815	 0.151249
H	-0.8398259069	-3.7506303688	-1.2818415654	 0.117404
