19
gdb 9359	7.5203	0.75714	0.70956	2.5996	70.66	-0.2435	0.0342	0.2778	1610.1742	0.163475	-402.222232	-402.212025	-402.211081	-402.259099	33.697	
C	 0.0622325912	 1.4161866382	 0.156312591	-0.333325
N	 0.2357585035	-0.014818977	 0.0036042203	-0.314563
C	 0.3803201568	-0.6139701761	-1.2142190478	 0.419163
O	 0.4079843359	 0.0095978264	-2.2622293419	-0.378308
C	 0.4845463808	-2.1347944646	-1.1670064558	-0.33455
C	 1.318978953	-2.6760195004	-2.3206133947	-0.042536
O	 1.277182317	-4.0858032026	-2.2611757615	-0.23614
C	 2.0036290766	-4.6936377776	-3.3014933969	-0.22852
H	 0.8560854829	 1.8505784909	 0.7740646978	 0.124699
H	 0.1066950056	 1.854403039	-0.8413027267	 0.172185
H	-0.905786763	 1.6573196011	 0.61020312	 0.12486
H	 0.2232756788	-0.5951940977	 0.8254440499	 0.245084
H	 0.8971136032	-2.4784590388	-0.2121904374	 0.105544
H	-0.5272862475	-2.5520780481	-1.2430644356	 0.13816
H	 0.9165487666	-2.3022768494	-3.2724975233	 0.115451
H	 2.3587283199	-2.3153543084	-2.2462431702	 0.089973
H	 1.6132520248	-4.4118305967	-4.2922295963	 0.10592
H	 3.0715318128	-4.4240849025	-3.2673622888	 0.102693
H	 1.9094823611	-5.7755657057	-3.1791769722	 0.124211
