15
gdb 128108	2.23653	1.57155	0.93074	5.7398	76.04	-0.2187	0.0052	0.2239	1188.3774	0.1149	-413.023147	-413.014709	-413.013765	-413.056623	30.089	
C	-0.036882918	 1.4414890446	 0.1094552969	-0.347809
N	-0.026768316	 0.0178339903	-0.1683006563	-0.397947
C	-1.1549802375	-0.7384336723	-0.0576743563	 0.41486
C	-1.3036443606	-2.1313464083	-0.0053460049	 0.002705
C	-2.7108114411	-2.3331920515	 0.0553156848	-0.075614
N	-3.3810294026	-1.2007048976	 0.0467390411	-0.231626
N	-2.4088102227	-0.2357996707	-0.0180722198	-0.276169
C	-0.2473676766	-3.0611358203	-0.0047503417	 0.174802
N	 0.6535295952	-3.7929923742	-0.0012665682	-0.371415
H	 0.9770868883	 1.8280560426	-0.0013407782	 0.15107
H	-0.6670334533	 1.9697097399	-0.6159739636	 0.138653
H	-0.3929973212	 1.6807116217	 1.1222315818	 0.133233
H	 0.8270871945	-0.4796199017	 0.0311788628	 0.272017
H	-3.2324559904	-3.2771135092	 0.1057771916	 0.135012
H	-2.686113258	 0.7295795067	-0.04583095	 0.278228
