21
gdb 77891	2.12505	1.56417	1.37951	2.6413	78.21	-0.2302	0.0583	0.2885	1100.936	0.181528	-424.199857	-424.190499	-424.189555	-424.233004	36.523	
C	-0.1846788902	 1.5878304226	 0.0575077993	-0.430933
C	 0.059270566	 0.0813449855	 0.0319906792	-0.070491
C	 1.1791449564	-0.527679887	-0.8890297452	 0.070115
O	 2.1021333956	 0.3617868703	-1.5233221613	-0.43277
C	 1.7918185295	-1.2436424297	 0.3033357	-0.187437
C	 2.1649069483	-0.2517625821	 1.3618668752	 0.081118
O	 2.7320990839	 1.0004076091	 1.1030108011	-0.438863
C	 0.7094711485	-0.6096546025	 1.2428305705	 0.286115
C	-0.0738996297	-1.242484325	 2.3579743848	-0.498575
H	 0.7158392919	 2.1351997226	 0.3373451191	 0.142614
H	-0.5333411772	 1.9482746695	-0.9186428978	 0.095931
H	-0.9653688535	 1.8337629368	 0.785426041	 0.117885
H	-0.8798136553	-0.4309400553	-0.2089304072	 0.068354
H	 0.7622677785	-1.214580356	-1.6344289237	 0.077743
H	 1.6179833545	 0.9027431166	-2.156368001	 0.289619
H	 2.1922655938	-2.2507867018	 0.2757648106	 0.083131
H	 2.630984041	-0.7103072851	 2.2330184494	 0.093569
H	 2.8110755903	 1.0750738901	 0.1410590751	 0.295546
H	-0.5635942413	-0.4808699385	 2.9770608383	 0.124676
H	-0.8557744298	-1.9084513761	 1.9733691425	 0.113204
H	 0.573294989	-1.832206624	 3.0155305801	 0.119449
