13
gdb 128708	7.29572	0.92661	0.82649	0.3094	71.57	-0.2621	-0.0599	0.2022	1307.9717	0.088284	-452.702078	-452.694137	-452.693193	-452.734877	28.161	
C	-0.0129073214	 1.3838758019	 0.0137697748	-0.249513
O	 0.0170182478	-0.0485980077	-0.0240035238	-0.248794
C	 0.6164970455	-0.5812769662	-1.0749008227	 0.427042
N	 1.1661428731	 0.1105649403	-2.0503999277	-0.216814
O	 1.654524272	-0.8893121079	-2.8998335773	-0.205129
C	 1.3343922434	-2.0640325611	-2.3261875864	 0.291228
N	 0.6946201443	-1.942373165	-1.1980370373	-0.366306
C	 1.7176399646	-3.2505436644	-2.9879495402	 0.247082
C	 2.0490930597	-4.2535559946	-3.5604347633	-0.335372
H	 1.0031139671	 1.7891589362	 0.0240297029	 0.148433
H	-0.5466611637	 1.7799636946	-0.8550705524	 0.148415
H	-0.5361752215	 1.6427671157	 0.9335313099	 0.144055
H	 2.3396996191	-5.1443688818	-4.0623083865	 0.215674
