15
gdb 68939	2.28906	1.67563	1.18096	2.6308	67.35	-0.2688	-0.0503	0.2184	1040.4667	0.110302	-457.779011	-457.770725	-457.769781	-457.812069	30.003	
C	 0.1015298562	 1.4059443812	 0.181503838	-0.48643
C	 0.0940179834	-0.0757820372	 0.038273568	 0.420423
C	 1.150146194	-0.9791783176	-0.4246539967	-0.360326
C	 0.595481918	-1.1763721692	 1.0113296338	-0.061066
C	 1.4464934529	-1.0350883273	 2.2017731794	 0.070156
O	 2.5005315853	-0.4399828445	 2.1978433293	-0.277292
C	-0.8123242909	-1.6839776122	 0.8952539169	 0.425864
O	-1.4965752565	-2.5043814939	 1.4114409288	-0.320704
O	-1.1915980891	-0.7500970855	-0.0667416565	-0.28721
H	 1.0964340031	 1.7399152038	 0.4872629979	 0.159513
H	-0.1471017466	 1.8817190355	-0.7728010227	 0.150326
H	-0.628730363	 1.7260053411	 0.9290545353	 0.148075
H	 0.9339652242	-1.7401358992	-1.1667638122	 0.147101
H	 2.1642050676	-0.5911486531	-0.4040248739	 0.16479
H	 1.0400168714	-1.498234952	 3.1237785646	 0.106778
