21
gdb 99719	1.84255	1.67549	0.9557	1.442	82.43	-0.2435	-0.0071	0.2364	1288.7759	0.181333	-420.452699	-420.442447	-420.441503	-420.488311	37.481	
C	 0.4438296292	 1.2273495937	-0.1935691795	-0.379853
C	 0.1035816311	-0.2539185047	-0.0176517993	-0.146351
N	-1.3480518351	-0.52070985	 0.0343037162	-0.136764
C	-1.9902209321	-0.6923755959	-1.2183882111	 0.357518
C	-3.4285805872	-1.1529853332	-1.2625732448	-0.436632
N	-1.2808208358	-0.4760380116	-2.2593448294	-0.505879
C	-2.0346054738	-0.4929818722	 1.249687853	 0.404031
C	-1.1965013037	-0.3754295734	 2.5159615411	-0.504226
O	-3.2448329626	-0.5664145581	 1.3333476532	-0.353933
H	 1.5304799564	 1.3583911909	-0.2187590518	 0.116867
H	 0.0300518962	 1.5962711048	-1.1336555932	 0.150351
H	 0.0493518658	 1.8356504303	 0.6269547451	 0.112897
H	 0.4951892537	-0.817537079	-0.8636823702	 0.144139
H	 0.5600158532	-0.6511497914	 0.8885272891	 0.105526
H	-4.1075284873	-0.3772453072	-0.9068293159	 0.161512
H	-3.6726560141	-1.4067490674	-2.2975594697	 0.104216
H	-3.5996076982	-2.0214630652	-0.624465411	 0.146795
H	-1.8264258486	-0.6675218112	-3.096751284	 0.218511
H	-0.5642087001	 0.5160543982	 2.5209126409	 0.145983
H	-1.8959592175	-0.3252719398	 3.3495470531	 0.148035
H	-0.5465407297	-1.2461822375	 2.6487478483	 0.147259
