15
gdb 27924	2.40205	1.41756	0.89645	5.9843	72.71	-0.2211	-0.0317	0.1894	1218.3228	0.112761	-454.008429	-454.000038	-453.999094	-454.041576	30.45	
C	-0.0471670849	 1.5193605808	 0.0825963119	-0.509848
C	 0.00705231	 0.0343916262	-0.0322799309	 0.261834
C	-0.014339549	-0.8416990656	-1.1012168134	 0.091867
C	-0.1035668577	-0.4812387003	-2.5107369105	 0.078775
O	-0.1202354055	-1.2570108205	-3.4395485624	-0.279342
N	 0.0632500143	-2.1630514742	-0.6589213937	-0.397155
C	 0.1285565059	-2.0694988229	 0.6309913251	 0.446121
O	 0.2168164308	-3.0665409647	 1.5216377404	-0.421916
N	 0.1001952624	-0.7782457867	 1.0816584141	-0.35557
H	 0.8495888434	 1.9190208	 0.571478447	 0.140834
H	-0.1199097073	 1.9789971073	-0.9036291435	 0.15659
H	-0.9147513011	 1.8470967422	 0.6680879216	 0.140723
H	-0.1587673769	 0.6176376063	-2.6874404012	 0.05085
H	 0.2221343611	-3.8871841026	 1.0116200872	 0.321175
H	 0.1376815744	-0.4874319353	 2.0450643186	 0.275061
