21
gdb 114114	4.35801	0.89273	0.83496	2.6501	79.91	-0.2437	0.0799	0.3236	1483.2098	0.18028	-424.182539	-424.172908	-424.171964	-424.217376	35.191	
C	-0.0228525067	 1.5304328841	-0.2071218486	-0.378893
C	-0.0004548209	 0.0262766561	 0.0994199155	-0.299443
C	-1.3750592486	-0.5488786982	 0.2430853278	 0.434442
C	-2.4044646326	-0.3252666622	 1.3682192335	-0.348069
C	-2.9167965652	-1.7935944747	 1.0899102886	 0.150749
O	-4.2508724019	-2.0108158695	 0.7422177462	-0.239957
C	-5.1363605515	-1.8993485651	 1.8335504967	-0.234578
C	-1.9267027818	-1.884407153	-0.0686176071	-0.102615
O	-2.1535680641	-0.7714967152	-0.9414937516	-0.283188
H	 0.9929371347	 1.9214739532	-0.3151334523	 0.114186
H	-0.5656115275	 1.7261132454	-1.1364297999	 0.136273
H	-0.5145749634	 2.0914425851	 0.5944619812	 0.119355
H	 0.5175882022	-0.5116808576	-0.7021897522	 0.111617
H	 0.5593063131	-0.1580050385	 1.025088021	 0.101163
H	-1.9783675418	-0.1986827794	 2.3662830328	 0.100954
H	-3.1242080648	 0.4687040387	 1.1584866466	 0.113222
H	-2.6106185599	-2.4591907093	 1.9135034873	 0.066669
H	-5.1242147446	-0.8901682986	 2.2719804812	 0.108751
H	-6.1411893946	-2.1076983138	 1.4590148904	 0.129841
H	-4.8955438713	-2.6228112419	 2.6289854842	 0.101972
H	-1.469537339	-2.7676845559	-0.5010389912	 0.09755
