14
gdb 60757	3.63543	0.875	0.80653	4.0717	64.31	-0.2809	-0.0754	0.2055	1371.834	0.097467	-473.851909	-473.84278	-473.841835	-473.887155	31.273	
O	-0.9302394456	 0.0556666274	 0.013985642	-0.420096
C	 0.2517270346	-0.5588536881	-0.3910771187	-0.047027
C	 1.1878714775	 0.4496177597	-1.0549216557	 0.133805
O	 0.8340356882	 1.5906128687	-1.2112842001	-0.246011
C	 1.0135816049	-1.2447315452	 0.7593051646	 0.331384
O	 1.9840026685	-1.9160912777	 0.5323370381	-0.269859
C	 0.4493338409	-0.9841638908	 2.1585385547	-0.450046
C	 1.2212881577	-1.6246504262	 3.2140700189	 0.284865
N	 1.8210892901	-2.1244638401	 4.064226795	-0.289892
H	-0.8714283107	 0.9742904181	-0.3003351017	 0.304591
H	 0.071525198	-1.3539879694	-1.1349201146	 0.146386
H	 2.176012002	 0.0688535811	-1.3661419058	 0.142661
H	 0.3991109025	 0.0992338055	 2.3198330282	 0.183332
H	-0.5939789987	-1.318830803	 2.1824280549	 0.195906
