27
gdb 122965	5.44067	0.50059	0.47805	0.831	94.73	-0.2483	0.0867	0.3351	2465.41	0.249392	-390.701755	-390.689536	-390.688592	-390.740426	42.989	
C	-0.0572920198	 1.5139344309	 0.0389498474	-0.381971
C	 0.01021256	-0.0134862029	-0.0288897189	-0.182507
C	 0.7385559214	-0.5104695048	-1.2704438272	-0.028852
O	 0.7512377424	-1.9207577041	-1.2585739944	-0.251028
C	 1.4005458963	-2.4897311311	-2.3754096388	-0.055188
C	 1.3082496787	-4.0145108132	-2.2939547804	 0.024324
C	-0.1570356362	-4.4698652668	-2.2981022504	-0.389138
C	 2.1370590792	-4.6480920732	-3.425567456	-0.168978
C	 2.2612510129	-6.1729954353	-3.3447678079	-0.390164
H	 0.9441892454	 1.9580184417	 0.0592212114	 0.115622
H	-0.5855721006	 1.9294570851	-0.8263863316	 0.115643
H	-0.5842048445	 1.844888714	 0.9385129732	 0.116508
H	 0.5197250571	-0.4119350665	 0.85597929	 0.105665
H	-0.9996929377	-0.4395991793	-0.0253889606	 0.105381
H	 0.2381825328	-0.1388855077	-2.1824616952	 0.080389
H	 1.7706171232	-0.1171199125	-1.2918550373	 0.079901
H	 0.9342550964	-2.1317956005	-3.3116059799	 0.077663
H	 2.4577888439	-2.1731948681	-2.4015679808	 0.078217
H	 1.7575042141	-4.3062687545	-1.3339403668	 0.077677
H	-0.2486069544	-5.5430026062	-2.1094381622	 0.10989
H	-0.7203646096	-3.9384117003	-1.5280188839	 0.130112
H	-0.62684161	-4.2586830798	-3.2671455846	 0.1039
H	 1.6954707889	-4.3695717997	-4.3927525309	 0.092084
H	 3.1437028345	-4.2099454901	-3.4143664797	 0.090777
H	 2.6956941946	-6.4835130266	-2.3877800669	 0.113712
H	 1.2902356475	-6.6669460027	-3.4443732	 0.119524
H	 2.9071288135	-6.5546867859	-4.1417135176	 0.110836
