17
gdb 110820	2.41431	1.35484	1.06133	5.3227	72.1	-0.2427	0.0076	0.2502	1153.6653	0.136708	-417.954588	-417.946161	-417.945217	-417.988381	31.149	
O	-0.0817190593	 1.4219751389	-0.3998121861	-0.418597
C	 0.0061601653	 0.1246166077	 0.1724881422	-0.105484
C	-1.339032462	-0.5718690616	 0.1499990861	-0.021471
C	-1.9149976696	-1.2503954162	-1.0534864531	-0.045666
N	-0.8180876088	-1.8892022433	-1.8228778825	-0.329142
C	-0.6227080743	-2.8619084037	-0.6976397982	-0.139912
C	 0.7621574096	-3.0768378987	-0.2654085772	 0.309811
N	 1.844575259	-3.2746255597	 0.0882467017	-0.329511
C	-1.5925460736	-2.0656510873	 0.194990373	-0.134902
H	-0.2152264449	 1.3030148017	-1.3459328346	 0.287009
H	 0.7701892273	-0.4793075603	-0.3278045585	 0.121513
H	 0.3272476445	 0.2713702836	 1.2085069441	 0.116812
H	-2.1020155953	-0.0400740154	 0.715681518	 0.105353
H	-2.8634194109	-1.0008170504	-1.5129590808	 0.107186
H	-1.1575370544	-2.3702525076	-2.6483914988	 0.235951
H	-1.0577768217	-3.8410379287	-0.9247419902	 0.12979
H	-2.2293715711	-2.5285242788	 0.9366375348	 0.111259
