18
gdb 15604	3.51824	1.56046	1.28688	3.8055	68.07	-0.2396	-0.0136	0.2259	984.4185	0.153984	-384.961524	-384.953345	-384.952401	-384.995145	29.63	
O	-0.1387238979	 1.4235130142	 0.5164181363	-0.441006
C	 0.0308086061	 0.0867920527	 0.0472303172	 0.103566
C	 0.7174701974	-0.7956511663	 1.0966919533	-0.231767
C	-0.3676704052	-0.9862695937	 2.1724645554	-0.193356
C	-1.710756342	-1.0016589684	 1.3897309814	-0.231599
C	-1.3765154351	-0.5425788704	-0.0608857442	-0.063404
C	-2.4105264522	 0.4023635506	-0.6354752833	 0.155634
O	-2.954928073	 0.2497079799	-1.6995558064	-0.264125
H	 0.7338474486	 1.8034273614	 0.6578252851	 0.286639
H	 0.5472366291	 0.0834404717	-0.922089893	 0.073571
H	 0.9905011601	-1.7536172663	 0.6378200824	 0.103035
H	 1.639149301	-0.3437185189	 1.4799776565	 0.088547
H	-0.2176979059	-1.8946713283	 2.760940752	 0.099569
H	-0.3496430092	-0.1418575683	 2.8658049614	 0.111296
H	-2.1656782372	-1.9950125152	 1.3725644947	 0.111207
H	-2.4398923212	-0.3301629458	 1.8542333661	 0.109809
H	-1.3132888701	-1.4001797487	-0.7362294961	 0.091938
H	-2.6508012733	 1.2680398296	 0.0175104812	 0.090444
