15
gdb 29760	5.14848	1.21446	1.11002	3.8562	71.72	-0.2181	0.0152	0.2332	1059.6407	0.114599	-416.761236	-416.754468	-416.753524	-416.792397	26.589	
O	-0.0672161956	 1.2768893448	-0.2496567212	-0.416288
C	-0.0899561589	-0.0986206848	-0.0573645601	 0.09093
C	-0.4816595992	-0.5785295764	 1.3316351907	-0.089118
C	-1.4805567388	-0.6559437017	 0.1698699953	-0.244477
C	-1.3464625259	-2.158599795	 0.2939067909	 0.227427
C	-1.2335340724	-3.4477547782	-0.1606309601	-0.191195
N	-0.3283735232	-4.1194048621	 0.6427578283	-0.257281
C	 0.1612557699	-3.2458677536	 1.5032647888	-0.029203
N	-0.4852268573	-2.0510539624	 1.3671637626	-0.003941
H	 0.807007262	 1.6043965693	-0.0112264986	 0.297826
H	 0.6280859964	-0.6837394518	-0.633660178	 0.117375
H	-0.4876348153	 0.0357847743	 2.2210668731	 0.128877
H	-2.365452109	-0.0575970691	 0.0091944273	 0.125404
H	-1.7485098346	-3.9525747206	-0.9623524581	 0.11149
H	 0.8885512616	-3.4583178328	 2.271496519	 0.132174
