18
gdb 20184	3.32242	2.58423	1.98714	1.44	70.24	-0.2339	0.0888	0.3227	751.1113	0.157439	-347.775915	-347.769914	-347.76897	-347.805626	25.093	
C	-0.0052689763	 1.5832100478	 0.0091839404	-0.234708
C	 1.5246925458	 1.5956152996	-0.0781678848	-0.070622
C	 2.1933515141	 0.7243810899	 0.9633937079	-0.028293
C	 1.6945959339	 0.4346827507	 2.3677456651	-0.102639
O	 0.2903140444	 0.2674365692	 2.4717003409	-0.244898
C	-0.2727685566	-0.5481162191	 1.4550866137	-0.085763
C	 0.0350362044	 0.0179657323	 0.0719974248	-0.037999
C	 1.5513965928	 0.0710042002	-0.2228902024	-0.089893
H	-0.4726125451	 2.1032409355	 0.8482956162	 0.106748
H	-0.4545232247	 1.9274253313	-0.9258661897	 0.096546
H	 2.1065760372	 2.3272231005	-0.6271836212	 0.080869
H	 3.2791277744	 0.7714446027	 0.9102439037	 0.08511
H	 2.2084993364	-0.4740549809	 2.7302491089	 0.083963
H	 1.9451698916	 1.2509370242	 3.054343207	 0.106392
H	 0.0962899489	-1.5856088898	 1.5338892516	 0.083276
H	-1.3495273305	-0.5547285345	 1.6536810845	 0.103659
H	-0.5613693481	-0.4764080703	-0.6972556132	 0.070019
H	 2.0854191975	-0.5506620493	-0.9312400934	 0.078234
