19
gdb 84556	2.81676	1.76729	1.36474	1.4222	80.25	-0.2396	0.0044	0.2439	984.4488	0.161376	-385.81654	-385.809547	-385.808603	-385.847499	29.511	
O	-0.0504194936	 1.4413505199	 0.0125568787	-0.430429
C	 0.0147218635	 0.0270443031	-0.0370491845	-0.06075
C	 0.671317444	-0.6126665699	 1.2060151309	-0.096077
C	 0.0377498402	-1.7030584816	 1.6628082902	-0.163407
C	-1.0649100356	-2.0718395275	 0.6965970245	-0.007965
C	-2.6236916462	-1.8673644329	 0.7097822416	-0.090836
C	-2.3836577549	-0.3977047864	 1.1144798186	-0.2631
C	-1.3142643221	-0.7125964633	 0.006855564	 0.331681
C	-2.4669925392	-1.3967375524	-0.7892005708	-0.319154
H	-0.5765388707	 1.6758450735	 0.7853987935	 0.281751
H	 0.5943571499	-0.1996769022	-0.9411921208	 0.098589
H	 1.5634078472	-0.1700559165	 1.6382894326	 0.100494
H	 0.3546787612	-2.2906556777	 2.5181971952	 0.095321
H	-0.7470407822	-2.8864205581	 0.0326473131	 0.076283
H	-3.3921399658	-2.5406114287	 1.0940195185	 0.071225
H	-3.1644180065	 0.3157147248	 0.8370430155	 0.090026
H	-2.0163688498	-0.2193528739	 2.1265107499	 0.095342
H	-2.175737448	-2.1591034365	-1.5165586739	 0.094923
H	-3.2640975913	-0.7557551236	-1.174222167	 0.096083
