15
gdb 23910	2.8466	1.91845	1.63503	2.1259	53.66	-0.2988	0.0915	0.3903	836.8148	0.114662	-494.172009	-494.16424	-494.163296	-494.204231	28.848	
C	-0.1127994609	 1.4975354538	 0.1872746992	-0.478314
C	 0.0332887418	-0.0030544556	 0.0253226583	 0.192011
C	 1.3683662309	-0.5939044334	-0.3567746255	-0.30299
C	 0.8260700587	-0.7969768786	 1.0346462776	-0.302993
C	-1.190077177	-0.6659541349	-0.5480902472	 0.251532
F	-1.4926737142	-0.1744862205	-1.7632809664	-0.08395
F	-1.0408106963	-1.9954296374	-0.6841946679	-0.086417
F	-2.2691175303	-0.4657439061	 0.2299878883	-0.083951
H	 0.8026761039	 1.9220736404	 0.6069237474	 0.120466
H	-0.3022469884	 1.9790612059	-0.7766632652	 0.135095
H	-0.9413471363	 1.7402537212	 0.8592377551	 0.135101
H	 1.3784973978	-1.4484720894	-1.0221888011	 0.132942
H	 2.1884723586	 0.1008917456	-0.4990426747	 0.119263
H	 1.2718983313	-0.242375272	 1.8526962416	 0.119263
H	 0.4743139104	-1.7870584089	 1.2976616306	 0.132942
