18
gdb 88882	3.18785	0.88987	0.78759	4.8736	86.5	-0.2382	-0.0386	0.1997	1486.5403	0.146641	-398.130583	-398.120927	-398.119983	-398.165867	35.012	
C	-0.1609730262	 1.6110269009	-0.1701235722	-0.403047
C	-0.0144510754	 0.1093194472	-0.0793552359	-0.007112
C	 1.3334917207	-0.545567989	-0.12182232	-0.299355
C	 0.5427645786	-0.5572622495	 1.1773700357	 0.012304
N	 1.0242145851	 0.2817919951	 2.2088826183	-0.25089
C	 0.8139046946	 0.0077243698	 3.4361179541	 0.24518
N	 0.1613830821	-1.0871356041	 3.9908389426	-0.561789
C	 1.3657042683	 0.9148794572	 4.4242388933	 0.271383
N	 1.7831560282	 1.6195252582	 5.2404124038	-0.323596
H	 0.648275911	 2.1166839466	 0.3600695431	 0.143135
H	-0.1457544417	 1.9348320463	-1.216374135	 0.116153
H	-1.1076254695	 1.944134418	 0.269222221	 0.114613
H	-0.821183258	-0.4530608867	-0.5431962237	 0.088039
H	 1.4551889327	-1.4865428129	-0.6464759583	 0.114996
H	 2.203142379	 0.1017401928	-0.1286936905	 0.130659
H	 0.0969055386	-1.5160910104	 1.4419866764	 0.071464
H	-0.5432872166	-1.5245135862	 3.4173801928	 0.266599
H	-0.1095635016	-0.9935702336	 4.9577533844	 0.271263
