25
gdb 60249	2.86183	0.84232	0.78328	1.7891	89.	-0.239	0.0767	0.3157	1647.2725	0.227333	-389.485796	-389.475013	-389.474069	-389.522519	39.387	
C	-0.1724471446	 1.5564852304	 0.0813325767	-0.383357
C	-0.0237677844	 0.0289478812	 0.0292666323	 0.040123
C	-1.3987884173	-0.646094142	 0.1289803417	-0.390001
C	 0.7170098777	-0.4498161749	-1.2362380454	-0.193498
C	 2.1879939847	-0.0470439307	-1.3009711947	-0.065659
C	 3.1505749463	-0.8524826746	-0.3983955018	-0.077286
O	 3.7810040065	-1.4720721771	-1.5355501709	-0.292413
C	 3.0572524873	-0.6233209513	-2.4593095129	 0.145511
C	 2.4344720132	-1.4049674433	-3.5989987219	-0.402791
H	 0.793694901	 2.0695598697	 0.0811510034	 0.113879
H	-0.7437469319	 1.9205203888	-0.781326232	 0.111344
H	-0.7068872431	 1.8651985435	 0.9857226122	 0.111603
H	 0.5660245447	-0.2841046038	 0.9033334599	 0.074328
H	-2.0278262667	-0.3798468611	-0.7291848615	 0.111746
H	-1.3086437932	-1.737244359	 0.1483082436	 0.110488
H	-1.9286613469	-0.3360761974	 1.0357062971	 0.109392
H	 0.6443618014	-1.5433689143	-1.2879832597	 0.096456
H	 0.1893910779	-0.0653466047	-2.1206486507	 0.090976
H	 2.2895992942	 1.036040452	-1.2008935838	 0.07339
H	 3.8588933378	-0.2507486309	 0.1868540183	 0.093009
H	 2.6865386871	-1.5937988003	 0.2652520486	 0.096062
H	 3.7325441749	 0.1411854081	-2.8730911666	 0.066313
H	 1.7497914835	-2.1752705331	-3.2357495581	 0.121081
H	 1.8879932224	-0.7369017039	-4.273640022	 0.11386
H	 3.2226185573	-1.8978103513	-4.1772605819	 0.125444
