18
gdb 4067	7.43925	0.97485	0.89306	0.8978	73.79	-0.2197	0.0058	0.2255	1289.8062	0.152306	-381.050515	-381.04192	-381.040976	-381.083748	31.231	
C	-0.0220323828	 1.4928337837	-0.1095885059	-0.380092
C	 0.0867797045	-0.0293864431	-0.0662888525	-0.121911
N	 0.7446504422	-0.4857442977	 1.1438531189	-0.078003
C	 2.2098030783	-0.2494233756	 1.2712317582	-0.261594
C	 2.3393665009	-1.6820756664	 1.7318916191	 0.412397
C	 0.9086537596	-1.9515516214	 1.3244847129	-0.263032
N	 3.2920394209	-2.3074744173	 2.2752212629	-0.231632
O	 2.92845562	-3.6408283151	 2.5429662928	-0.393827
H	 0.9682929412	 1.9607617701	-0.108989271	 0.119337
H	-0.5409637913	 1.8169036469	-1.0166643879	 0.114486
H	-0.570987041	 1.863302212	 0.7607569944	 0.12703
H	-0.9163117465	-0.4725841101	-0.0836788562	 0.104823
H	 0.60856221	-0.3916195987	-0.9759216281	 0.072897
H	 2.7169584745	-0.0666124135	 0.3089009824	 0.106639
H	 2.4939886437	 0.5388901468	 1.9755738736	 0.126005
H	 0.2500386379	-2.4046578549	 2.0728322098	 0.128741
H	 0.8401704925	-2.5360237288	 0.3920960646	 0.10974
H	 3.7225362354	-3.986799207	 2.9641757423	 0.307996
