24
gdb 101708	3.53937	0.71272	0.66922	1.6062	86.82	-0.2245	0.0755	0.2999	1795.6063	0.215582	-405.516239	-405.505343	-405.504399	-405.55267	39.78	
C	 0.0097711007	 1.4794030981	 0.3280545737	-0.402975
C	-0.0681272549	-0.0109005013	-0.022240931	 0.018555
C	-1.5074854781	-0.5403324332	 0.0474611535	-0.068651
O	-2.0939857722	-0.424933576	 1.3342577605	-0.425169
C	 0.5256437233	-0.2965164894	-1.4106395131	-0.147921
N	 1.9429488754	 0.0474596681	-1.4468141445	-0.080992
C	 2.9117061436	-1.0177154855	-1.2055545406	-0.255014
C	 2.7831614896	-0.4022294388	-2.5581291137	 0.032008
C	 2.2519599878	-1.1897162481	-3.7367294467	-0.412823
H	 1.0319439734	 1.8435000439	 0.2069107172	 0.139346
H	-0.6377596692	 2.0715088498	-0.3321260692	 0.103825
H	-0.2961246175	 1.664931389	 1.3631039399	 0.103087
H	 0.5192501325	-0.573703685	 0.7161646879	 0.08301
H	-2.1240774914	-0.0351740249	-0.7161548796	 0.080407
H	-1.5222631587	-1.6110575996	-0.1847250882	 0.103788
H	-2.205137797	 0.5112374075	 1.5243173486	 0.28367
H	 0.3353241202	-1.3518594022	-1.6698137485	 0.078191
H	 0.010188543	 0.3156200169	-2.1631853725	 0.096904
H	 3.7444892847	-0.7753391201	-0.5501307796	 0.111972
H	 2.5286278984	-2.0325066632	-1.0926950672	 0.103477
H	 3.5263104797	 0.3443707784	-2.8376956516	 0.088459
H	 1.5759014845	-1.9927169407	-3.4341040481	 0.121531
H	 1.716318502	-0.5400322145	-4.438037924	 0.122508
H	 3.0845802102	-1.6463616593	-4.2822352135	 0.122804
