18
gdb 24135	4.82293	0.99403	0.90692	1.5887	79.72	-0.1751	0.0433	0.2184	1312.2754	0.148428	-401.948999	-401.940702	-401.939758	-401.983246	31.142	
C	-0.465003365	 0.9547971011	-0.1726755811	-0.251142
C	 0.9836125578	 1.0867879783	 0.2322017273	-0.289343
C	 0.4108599143	-0.2706983275	-0.0594059424	 0.046576
N	 0.2513952622	-1.1975867446	 1.0264175714	-0.408306
C	-0.9207331716	-1.9025734571	 1.2014123126	 0.446656
C	-1.5275946353	-2.4504242856	 2.2966139436	-0.312555
C	-2.682878693	-3.1395143263	 1.7914381467	-0.155005
C	-2.696414968	-2.9524220648	 0.4511727274	-0.038443
O	-1.6105804644	-2.1933862672	 0.0737706532	-0.173591
H	-1.2160941312	 1.0959784698	 0.5960645215	 0.121647
H	-0.7617440837	 1.2821334972	-1.1626889556	 0.117298
H	 1.6920824332	 1.5048204101	-0.4738511613	 0.120136
H	 1.1942480233	 1.3330154496	 1.2684280057	 0.111495
H	 0.7113078548	-0.7367336256	-0.9938030488	 0.103242
H	 0.7134110228	-0.9533429063	 1.8870080582	 0.244518
H	-1.2020042612	-2.3719725074	 3.3212777045	 0.089414
H	-3.4095273469	-3.692745191	 2.3662310863	 0.103237
H	-3.353331098	-3.2458864528	-0.3488389194	 0.124166
