25
gdb 122133	2.10181	0.74187	0.58302	1.3618	87.1	-0.2464	0.0781	0.3245	2003.3544	0.226146	-426.614444	-426.602404	-426.60146	-426.653139	41.668	
C	-0.0917396491	 1.8046253537	-0.8855828	-0.387337
C	 0.0546167566	 0.3498010552	-0.424961439	-0.18849
C	 0.8146992076	-0.5672092617	-1.4046398218	 0.043911
C	 2.3155287593	-0.2653255764	-1.3875998608	-0.090855
O	 2.9276878425	-0.9748119074	-2.4565440099	-0.422074
C	 0.5738490664	-2.0606423706	-1.1138669018	-0.213591
C	-0.771537302	-2.574205609	-1.6106513451	-0.058837
O	-0.8917212951	-3.9346915712	-1.2510452595	-0.228509
C	-2.0979901577	-4.5102996661	-1.6847472347	-0.226092
H	 0.8762644634	 2.2973487402	-1.0189791484	 0.117556
H	-0.6245791409	 1.8617794796	-1.8412062981	 0.116442
H	-0.6578016928	 2.3907297172	-0.1546902931	 0.112254
H	 0.5559218005	 0.3183922007	 0.5526588098	 0.093424
H	-0.9459961615	-0.0633870077	-0.255452897	 0.099213
H	 0.4677495129	-0.3528937194	-2.4262588002	 0.07604
H	 2.4876056135	 0.8161139428	-1.4927221203	 0.083444
H	 2.7350261924	-0.5722111506	-0.4146852968	 0.083489
H	 3.8796147393	-0.8596552008	-2.3891173747	 0.286424
H	 1.3601263823	-2.6492182036	-1.5945599905	 0.121563
H	 0.6445408505	-2.2467786202	-0.0342722897	 0.094481
H	-1.6087341909	-1.9970473371	-1.1804423202	 0.079559
H	-0.8378867504	-2.4611112363	-2.7072978313	 0.084879
H	-2.9753795448	-4.0042667207	-1.2493372872	 0.098804
H	-2.1979938438	-4.4775635464	-2.7819470073	 0.100745
H	-2.0994602881	-5.5548417743	-1.3627427022	 0.123556
