18
gdb 53230	3.16269	0.84869	0.77796	2.238	83.54	-0.2319	-0.0257	0.2062	1566.1063	0.144989	-401.919548	-401.909543	-401.908599	-401.956145	34.64	
C	-0.0174563065	 1.5409587823	 0.0922578435	-0.500699
C	 0.0127353667	 0.0866672436	 0.0668520012	 0.117084
C	 0.0375405493	-1.1171962591	 0.0530923135	 0.09925
C	 0.0305944401	-2.5640626365	 0.0184409549	-0.317224
N	 0.2592648499	-3.2837854267	 1.3100987476	-0.320846
C	-0.8686759389	-4.232220684	 1.0899929257	-0.070988
C	-1.8095991342	-4.4371947803	 2.2672519599	-0.388768
C	-1.3328583509	-3.3195946733	-0.0563029529	 0.388671
O	-2.329276089	-3.1999513102	-0.696104983	-0.280318
H	 0.731777018	 1.9698596938	-0.5821508702	 0.148445
H	-0.9983465113	 1.9210827655	-0.2137185796	 0.153582
H	 0.1850047131	 1.9205003312	 1.0998137761	 0.15222
H	 0.6675521843	-2.9287796185	-0.8045343695	 0.114367
H	 1.1718749706	-3.7199698367	 1.3744629171	 0.224471
H	-0.5585541553	-5.2050853122	 0.6748042196	 0.094825
H	-2.1237106382	-3.4733787394	 2.6756822762	 0.13337
H	-2.696877995	-4.9926109533	 1.9479042555	 0.130829
H	-1.3163600725	-5.003296776	 3.0633504344	 0.121727
