19
gdb 73374	2.45828	2.24169	1.61291	1.8963	73.54	-0.2252	0.0848	0.31	904.8974	0.161284	-423.013397	-423.00653	-423.005586	-423.04415	28.844	
C	-0.0472425924	 1.4506262424	 0.0291476639	-0.485524
C	 0.0638297931	-0.0543967349	 0.043324545	 0.370159
C	 0.7254653362	-0.7211886068	-1.1680640207	-0.091804
O	 0.8020264275	-2.105413412	-0.7913716467	-0.278934
C	 0.489580652	-2.1543145446	 0.5783612868	 0.12807
C	-0.9844859462	-1.7866898669	 0.978162478	 0.05248
C	-0.3973252719	-1.0940134931	 2.2283512886	-0.262364
C	 0.7516605631	-0.7748578163	 1.2431378191	-0.143893
O	-1.254278038	-0.6774007454	 0.1084368787	-0.316021
H	 0.9400317224	 1.912727221	-0.0706885435	 0.118741
H	-0.6675231558	 1.7793005996	-0.8105414321	 0.131259
H	-0.5098851375	 1.812558623	 0.9513295845	 0.127415
H	 0.1044203183	-0.617663105	-2.0630248074	 0.112034
H	 1.7330866123	-0.3309413868	-1.3769087759	 0.085587
H	 0.9101920619	-3.0461600758	 1.0409453709	 0.088129
H	-1.8251361008	-2.4784242364	 0.9859296643	 0.080973
H	-0.9802945674	-0.2700213585	 2.6432966155	 0.106785
H	-0.0861796739	-1.7866423708	 3.0138197591	 0.103218
H	 1.740135687	-0.4271227728	 1.539966532	 0.07369
