18
gdb 26142	2.64813	1.32989	1.07855	3.1228	75.63	-0.1949	0.0319	0.2268	1182.4414	0.147881	-435.28518	-435.276021	-435.275076	-435.319527	33.453	
C	 0.0447993247	 1.4967080232	-0.0201922401	-0.330178
N	-0.0081371773	 0.050936332	 0.1513981479	-0.151908
C	 0.8337531169	-0.4436979296	 1.2326265903	-0.330181
C	-1.2709568905	-0.5327216906	 0.0426401241	 0.215546
C	-1.8143502571	-1.36623547	-0.9066594931	 0.290599
O	-1.2001757933	-1.8323296513	-2.0159335428	-0.434848
N	-3.1042704543	-1.7023992246	-0.6148939781	-0.340642
C	-3.3776071968	-1.0824403474	 0.5180551864	 0.008761
N	-2.3223742167	-0.3656679227	 0.963953613	-0.291969
H	 1.0828273866	 1.8088440448	-0.1798191789	 0.119996
H	-0.5401730588	 1.7800111322	-0.8980528928	 0.133502
H	-0.3404137028	 2.0616584083	 0.8496963145	 0.083682
H	 0.5308852488	-0.080728712	 2.2330226076	 0.083679
H	 0.807745256	-1.5356275191	 1.2428278668	 0.133497
H	 1.8683041546	-0.123102942	 1.0672891752	 0.120003
H	-1.8505645415	-2.386241532	-2.4644485266	 0.297366
H	-4.3198530594	-1.1264319365	 1.043598388	 0.128518
H	-2.2869549192	 0.1895270374	 1.8020047788	 0.26458
