15
gdb 128345	4.78662	0.94931	0.8003	3.3412	80.89	-0.2213	-0.037	0.1843	1373.1246	0.112014	-416.764823	-416.756333	-416.755388	-416.798289	30.861	
C	 0.086193883	 1.4127315999	 0.1405532393	-0.331708
N	-0.0184595514	 0.0109607401	-0.2270661131	-0.390513
C	-1.2133078271	-0.6526154344	-0.0823959323	 0.447999
N	-1.2398441222	-1.9647933859	 0.0775412977	-0.229066
O	-2.5876921872	-2.3160108845	 0.1186598804	-0.219554
C	-3.3358406283	-1.1991913634	 0.0000632942	 0.326168
C	-2.5297329029	-0.1057698278	-0.1284622758	-0.444679
C	-4.7378298954	-1.3376368929	 0.0245236645	 0.241337
C	-5.9357088713	-1.4497972588	 0.044824361	-0.377207
H	 1.1044730881	 1.7518779645	-0.0611524071	 0.13481
H	-0.5870610094	 2.0148307553	-0.4774268611	 0.138325
H	-0.1456388045	 1.6119037041	 1.1974575135	 0.1223
H	 0.7743529781	-0.561184142	 0.0261813277	 0.25155
H	-2.8358589091	 0.9191161582	-0.2437870887	 0.126682
H	-6.9928978004	-1.5516596226	 0.06258471	 0.203556
