16
gdb 33889	3.51568	1.50937	1.32805	4.5039	72.69	-0.2785	-0.0014	0.2771	968.1173	0.126472	-400.712589	-400.706017	-400.705072	-400.743494	26.722	
N	 0.0464078119	-1.0962541093	-0.0399191295	-0.33797
C	 0.0527611308	 0.0593869119	 0.0001389929	 0.229355
C	 0.019332186	 1.491148998	 0.0839329811	 0.295984
O	 0.3555528176	 2.2307012477	-1.1029568935	-0.280184
C	 1.1901911368	 2.3865123507	 0.0508020879	-0.012853
C	 0.7558637389	 3.4687509657	 1.0606779281	-0.08341
C	-0.7317806	 3.7051178878	 0.6782889474	-0.223917
C	-0.8832071075	 2.2219614208	 1.1123943614	-0.122137
C	 0.1972034144	 2.5463951707	 2.2038195839	-0.224795
H	 2.2155109344	 2.0485887031	-0.0503881927	 0.127953
H	 1.4513563931	 4.283958378	 1.2529203458	 0.081535
H	-1.2243159315	 4.3736527954	 1.385457865	 0.108707
H	-0.9697423865	 3.9736810276	-0.3486211599	 0.128811
H	-1.8432500399	 1.7660205401	 1.3455149435	 0.088705
H	 0.8285834115	 1.7256584603	 2.5557453952	 0.112484
H	-0.2043521801	 3.1066943113	 3.0509643134	 0.111731
