21
gdb 93895	2.72493	1.44685	1.16041	2.4932	77.21	-0.2564	0.0771	0.3336	1140.6971	0.183982	-424.229278	-424.220883	-424.219939	-424.262	33.336	
C	-0.0946508033	 1.5371481543	 0.0433979444	-0.404918
C	 0.0344805006	 0.0094174898	-0.017373289	 0.000808
C	 0.6728222928	-0.4684531547	-1.3327057974	-0.216143
C	 0.9448074476	-1.975411766	-1.3117757472	-0.232223
C	 1.9706392486	-2.3689320173	-0.2364096624	 0.120499
O	 3.3016183504	-2.0875263665	-0.6467381539	-0.44291
C	 1.6944780143	-1.6775195898	 1.0985539665	-0.012658
O	 2.2240045441	-0.3397220268	 1.1711213881	-0.272316
C	 0.7973491407	-0.5130998185	 1.1836647126	 0.072031
H	 0.8943445477	 2.0065036881	 0.0280270647	 0.129991
H	-0.6630786939	 1.9146994724	-0.8124441903	 0.11464
H	-0.6065241687	 1.861111431	 0.9557960516	 0.111883
H	-0.9736559498	-0.4272588052	 0.0506752743	 0.077553
H	 0.0113570042	-0.2107643665	-2.1665287548	 0.094906
H	 1.6111250543	 0.0729050341	-1.5017679567	 0.105275
H	 0.006299421	-2.5139199132	-1.1200002418	 0.087991
H	 1.3237490605	-2.3186129617	-2.2793521233	 0.105957
H	 1.9247699587	-3.4532302947	-0.0832542935	 0.079292
H	 3.4792830059	-1.1798644489	-0.3684965894	 0.294552
H	 1.8825154443	-2.2629346517	 1.9978075574	 0.097639
H	 0.3483618502	-0.2879486181	 2.1529942701	 0.088155
