20
gdb 60035	2.77265	0.94596	0.81621	5.8746	77.83	-0.2508	-0.036	0.2148	1478.2595	0.168213	-440.332015	-440.321665	-440.320721	-440.368045	36.294	
C	-0.0769481309	 1.5469386236	-0.0049507305	-0.390078
C	 0.0218186836	 0.0160522983	 0.0091265656	 0.034666
C	 0.8987398944	-0.4774801648	 1.1657898449	-0.395273
C	-1.3932488614	-0.589931961	 0.0511886743	-0.203857
N	-1.4321082819	-2.0520248878	-0.0665594935	-0.084895
C	-1.5927384909	-2.8261439116	 1.0920169216	 0.162803
O	-1.6111426283	-4.0228342749	 1.1556005672	-0.264385
C	-1.3313945227	-2.6037941448	-1.3514522719	 0.16491
O	-1.2987698749	-3.7685415232	-1.6327666124	-0.262342
H	 0.9160879062	 1.9997216566	-0.0777709422	 0.124089
H	-0.6720799742	 1.9062413893	-0.851187944	 0.116638
H	-0.543328075	 1.9196897036	 0.9148073574	 0.11924
H	 0.4860971127	-0.3057545253	-0.9337840981	 0.086696
H	 1.9041662776	-0.0520076642	 1.094879335	 0.124361
H	 0.4795819526	-0.1759159681	 2.1334198416	 0.11526
H	 1.0012009794	-1.566530192	 1.1655635206	 0.133706
H	-1.8861558669	-0.3170475634	 0.9905093466	 0.123724
H	-2.0013717266	-0.1639354081	-0.7538749489	 0.124077
H	-1.7149847365	-2.1704191587	 1.9772122873	 0.086052
H	-1.2923278163	-1.7970884835	-2.1115550408	 0.084606
