16
gdb 128367	6.62028	0.89148	0.79413	3.5151	71.36	-0.222	0.0314	0.2535	1427.8475	0.123087	-471.186202	-471.176874	-471.175929	-471.221851	31.633	
C	-0.0799300627	 1.3509647647	-0.1166275546	-0.329113
N	-0.0044201939	-0.0940608262	 0.0436742253	-0.394449
C	 0.6547965366	-0.6112811825	 1.1038155473	 0.523841
N	 1.0921626792	 0.0286102971	 2.1365713416	-0.242104
O	 1.626709298	-1.0225316133	 2.9641244352	-0.260706
C	 1.4728198928	-2.2116436309	 2.3229692766	 0.538689
O	 0.8486207937	-1.9497508573	 1.1144764513	-0.236823
N	 1.7915402921	-3.366199348	 2.671006407	-0.366994
C	 2.4415393642	-3.5601302469	 3.9581439653	-0.332812
H	 0.8969048307	 1.8046184339	-0.3256479928	 0.139763
H	-0.7665653887	 1.5757140979	-0.9341596579	 0.138113
H	-0.4707896715	 1.7909092967	 0.8034673144	 0.168135
H	 0.0281525268	-0.6613733935	-0.7890733414	 0.267989
H	 2.0440477643	-4.46867635	 4.4201580564	 0.12865
H	 3.5171326861	-3.7159254765	 3.8113465038	 0.129142
H	 2.3089347121	-2.7245648052	 4.6556145926	 0.12868
