18
gdb 26489	3.67522	1.22583	1.03095	0.9953	79.35	-0.1947	0.0402	0.2349	1176.4409	0.148839	-401.968597	-401.960527	-401.959583	-402.001609	31.764	
O	-0.0686209036	 1.3381992479	-0.1416430069	-0.46695
C	-0.0316157122	-0.0647729993	 0.0185179029	 0.291043
C	-0.3269800423	-0.5061934237	 1.429260857	-0.287726
C	-1.3283176932	-0.7679371602	 0.32481059	-0.326358
C	 1.0178309056	-0.7240738963	-0.7911695247	 0.250891
C	 1.1134516006	-1.9593380657	-1.3988905774	-0.256343
C	 2.3973510085	-2.0421572477	-2.0066967331	-0.143316
C	 3.0462422479	-0.8540205389	-1.7614978928	-0.094342
N	 2.2036669545	-0.0670990519	-1.020651536	-0.287024
H	-0.3602463853	 1.5147270452	-1.0442205885	 0.281781
H	 0.2382170229	-1.3428409043	 1.822029973	 0.122978
H	-0.5600295379	 0.2778348327	 2.1409451596	 0.122603
H	-2.2203482693	-0.1520267637	 0.3082253278	 0.115561
H	-1.4664766013	-1.7846216621	-0.0250769217	 0.12135
H	 0.3475074504	-2.7195228614	-1.4091842432	 0.088653
H	 2.7926885414	-2.8746569459	-2.5682054401	 0.091331
H	 4.0209380938	-0.5014343603	-2.058245323	 0.11334
H	 2.3775424596	 0.8714018057	-0.7038072731	 0.262528
