16
gdb 21152	3.36293	1.84925	1.21804	5.7055	68.46	-0.2016	0.0233	0.2249	975.5566	0.13134	-376.098666	-376.090398	-376.089454	-376.131854	29.07	
C	 0.1250091575	 1.4615699772	 0.0932771251	-0.343255
N	-0.1939682694	 0.0530696594	-0.0791033395	-0.385612
C	 0.5289766344	-0.7021566321	-0.9826387317	 0.332495
C	 0.6942704014	-2.0727616968	-1.1074902062	 0.231341
C	 0.1645999921	-3.1709993975	-0.2460215176	-0.515804
N	 1.4604875664	-2.3001186068	-2.2125216948	-0.240661
N	 1.7836333696	-1.180782756	-2.7820428158	-0.14698
N	 1.2176270113	-0.1913573397	-2.0313837628	-0.245552
H	 1.1827950005	 1.6489024364	 0.3349088467	 0.124212
H	-0.1249443724	 2.0183273826	-0.8171535054	 0.134575
H	-0.4921103113	 1.8674642625	 0.8971396772	 0.139951
H	-0.3543210816	-0.4390933665	 0.7874321717	 0.250806
H	-0.9308017741	-3.2253613197	-0.2653435214	 0.126652
H	 0.5545339674	-4.1252842225	-0.6066538276	 0.151749
H	 0.4682598142	-3.0613128997	 0.8032329086	 0.114171
H	 1.3454067239	 0.7686632592	-2.3033686064	 0.271912
