15
gdb 34059	4.3869	1.42109	1.21457	1.9633	78.84	-0.2448	-0.0515	0.1934	993.6219	0.112441	-379.5308	-379.523836	-379.522892	-379.56189	27.863	
C	-0.05540658	-1.1805856672	-0.10924958	-0.403797
C	-0.0190761289	 0.0203065897	-0.0466766531	 0.276486
C	-0.0054477516	 1.4428890691	 0.0879180086	 0.046202
C	-1.3560810544	 2.2627376859	 0.2459065501	-0.298014
C	-0.4276656268	 3.3321692611	-0.2754656898	 0.136936
N	 0.1267524974	 4.1511296673	 0.5268668864	-0.187195
C	 1.5153988049	 3.6382582755	 0.6659178109	-0.189826
C	 1.3514522056	 2.2189472874	 0.1062656847	-0.081177
N	 0.4446669503	 2.3616078836	-1.022219004	-0.150447
H	-0.0824424403	-2.2400800775	-0.1796932984	 0.200707
H	-2.0803184439	 1.8282647964	-0.4465408973	 0.141248
H	-1.7803709221	 2.448238836	 1.2309580735	 0.139169
H	 2.2773817172	 4.1811217929	 0.0880494566	 0.126243
H	 1.7836706436	 3.699424277	 1.7245555558	 0.130359
H	 2.220872839	 1.5830477129	-0.0449156241	 0.113107
