17
gdb 45543	4.39268	1.2586	1.02157	5.952	77.19	-0.2142	0.0008	0.215	1126.4728	0.14013	-418.063948	-418.056834	-418.05589	-418.095356	28.414	
O	-0.0194492096	-0.0623959384	-0.3345993874	-0.387169
C	 0.0066673107	 1.1265462527	-0.1059696027	 0.417602
N	-1.152672116	 1.9109148651	 0.136108537	-0.369822
C	-0.8107345488	 3.3126011444	 0.0794732244	-0.023358
C	-1.1782956881	 4.2932074678	 1.2089278129	-0.245705
C	-0.0016791879	 5.3034102032	 1.1309039457	-0.173046
N	 1.1272386676	 4.5030243568	 0.6111765681	-0.386641
C	 0.6937111679	 3.2758110883	 0.2151328156	 0.447584
C	 1.1693499244	 2.0296705887	 0.035880179	-0.440465
H	-1.9979903339	 1.5805782913	-0.3058273941	 0.237832
H	-1.0838302251	 3.7604903544	-0.889626834	 0.099059
H	-2.1504200739	 4.7760377633	 1.0887713841	 0.107404
H	-1.164066591	 3.761165345	 2.1650511239	 0.123928
H	-0.2327909522	 6.130471006	 0.4476611988	 0.117553
H	 0.2461023155	 5.73787932	 2.1034766525	 0.119776
H	 2.0436281778	 4.6180216263	 1.011395757	 0.253084
H	 2.1843176927	 1.6678119952	 0.0910651892	 0.102384
