19
gdb 22929	2.42217	1.3403	1.10261	1.1556	80.73	-0.2243	0.0046	0.2289	1194.4017	0.15732	-419.126356	-419.117001	-419.116057	-419.160202	34.902	
C	-0.0605770974	 1.5673406236	-0.0120270815	-0.432732
C	 0.0868953548	 0.0670107577	 0.1170847305	-0.017741
N	 1.2902574105	-0.7054936016	-0.2490094915	-0.188067
C	 2.4855851376	 0.1181299022	 0.168059934	-0.260843
C	 2.016459423	 0.0724564248	 1.6047112126	 0.369598
N	 2.5145818044	 0.2702710004	 2.7527755364	-0.264111
O	 3.7764641312	 0.8876977879	 2.6482044399	-0.391717
C	 0.7826858403	-0.6626245147	 1.2172370937	 0.22295
C	 0.2080668994	-1.8339268614	 1.9561259525	-0.492242
H	 0.7379634163	 2.1248123001	 0.4806444837	 0.135437
H	-0.089147892	 1.8610985541	-1.0671661838	 0.128422
H	-1.0059493085	 1.8784369073	 0.4438974152	 0.127936
H	-0.7930946813	-0.4707103288	-0.2348865099	 0.098928
H	 3.4077095369	-0.4491399505	 0.017111802	 0.138009
H	 2.5789733844	 1.0882163591	-0.3262617095	 0.123382
H	 4.0469070919	 0.9531739201	 3.5702494384	 0.30771
H	-0.3422250724	-1.4952181118	 2.8406666163	 0.13382
H	-0.4811996509	-2.3917408676	 1.3164618348	 0.129281
H	 0.9989769516	-2.511043681	 2.2923358261	 0.131979
