21
gdb 113153	2.45567	1.1347	0.93398	2.1543	80.02	-0.2417	-0.0139	0.2278	1356.1002	0.179498	-424.233286	-424.222781	-424.221837	-424.268985	38.117	
C	-0.3286472589	 1.3828664314	 0.0896814782	-0.488006
C	 0.4548757453	 0.0921897197	-0.0806307425	 0.32726
O	 1.2343591185	-0.2694796067	 0.7789871099	-0.319343
C	 0.2202973594	-0.709357435	-1.334877501	 0.201922
C	-0.4936403864	-0.0279112204	-2.490412519	-0.484911
C	 1.2875504081	-1.7427836093	-1.6679185253	-0.302702
C	-0.0371326467	-2.217127895	-1.1722346896	-0.003137
C	-0.1857513372	-2.9049865609	 0.1621059418	-0.124899
O	 0.0428354999	-4.2929874636	-0.0665258183	-0.424167
H	-0.0849641602	 2.0958959223	-0.7050926587	 0.141051
H	-1.4062959401	 1.1959229029	 0.0263513595	 0.138839
H	-0.0859350315	 1.8202343372	 1.0583466067	 0.140249
H	 0.0489263437	 0.859579557	-2.8347229491	 0.121714
H	-0.571347117	-0.7108958093	-3.3410190424	 0.121897
H	-1.5103880818	 0.2814978665	-2.2267078393	 0.120095
H	 1.5381877827	-1.8744257619	-2.7148265505	 0.111574
H	 2.1199219664	-1.7936641905	-0.9753126101	 0.138291
H	-0.7172435093	-2.6140611919	-1.9222158414	 0.095731
H	 0.5265705261	-2.490622427	 0.8829289388	 0.124476
H	-1.2024402584	-2.7376221682	 0.5556461171	 0.078284
H	 0.0437999476	-4.7340000673	 0.7880133053	 0.285783
