21
gdb 119613	4.07074	0.96817	0.89254	1.3575	79.14	-0.2477	0.0884	0.3361	1395.2493	0.182371	-424.209474	-424.20055	-424.199606	-424.243483	33.55	
C	-0.1391324238	 1.5283283788	-0.1347231873	-0.386118
C	-0.0566051108	 0.0139927969	-0.2106403546	-0.05841
O	-1.2802412119	-0.5210318592	 0.2851120723	-0.298577
C	-1.3745741105	-1.9007445185	 0.1997035002	 0.425565
C	-1.685942844	-2.5805939579	-1.1103653261	-0.346587
C	-2.7105339446	-2.5612491192	 0.0081343417	-0.138191
C	-2.7141354141	-3.7552287998	 0.9404707838	-0.090922
O	-1.3409108193	-3.9968541582	 1.2551660107	-0.256821
C	-0.6523391182	-2.7527551744	 1.2393696572	-0.146663
H	 0.7855440651	 1.9790167803	-0.5073430193	 0.115879
H	-0.97399138	 1.8975299174	-0.7371944937	 0.126262
H	-0.2926682859	 1.853781544	 0.8980552197	 0.128017
H	 0.1028064114	-0.3194640677	-1.2469595034	 0.093965
H	 0.7916231234	-0.35564009	 0.3857286385	 0.093473
H	-1.8904252315	-1.9294445223	-1.9529064246	 0.114955
H	-1.1898612778	-3.5156862292	-1.3519871617	 0.120851
H	-3.6054368767	-1.9622278077	-0.1069112585	 0.099924
H	-3.2962482393	-3.5267227811	 1.8478310129	 0.094761
H	-3.1078504237	-4.6771969991	 0.5001626843	 0.108537
H	 0.3970424529	-2.9697081833	 1.0142227866	 0.104691
H	-0.7059999309	-2.2353427999	 2.2115887414	 0.095409
