16
gdb 85199	2.6544	1.20719	0.89282	6.2447	68.99	-0.2857	-0.0081	0.2776	1258.7234	0.123628	-437.928691	-437.919961	-437.919017	-437.962988	30.798	
C	 0.1326376298	 1.4881902463	-0.2600440277	-0.407305
C	-0.0733514653	 0.037248196	 0.1158667576	 0.116502
O	 0.5977461814	-0.8703650454	-0.8298993558	-0.251181
C	 1.376165821	-1.4214994086	 0.1543214424	 0.460145
O	 2.2267935744	-2.2413872752	 0.0430175167	-0.307163
C	 0.7398586392	-0.5920434122	 1.2778021381	-0.215734
C	 1.6773236811	 0.2889113523	 2.1162216049	-0.368932
C	 2.3874416223	-0.478195238	 3.1381524613	 0.275973
N	 2.9313733334	-1.0787738456	 3.9610673436	-0.291313
H	 1.1936760068	 1.7396283541	-0.3399489533	 0.133402
H	-0.3348143017	 1.6902972804	-1.2275265797	 0.14688
H	-0.331006725	 2.1454304691	 0.4829421044	 0.131726
H	-1.1369396518	-0.2132260891	 0.1518027758	 0.109792
H	 0.1268362107	-1.2132375902	 1.9350054051	 0.138549
H	 2.4138948146	 0.7948666401	 1.4843066303	 0.165969
H	 1.0966723788	 1.0709686861	 2.6191466363	 0.162689
