15
gdb 112148	3.2812	1.13778	0.87885	3.8348	62.49	-0.2619	-0.0894	0.1725	1238.2913	0.111773	-494.944228	-494.935966	-494.935022	-494.978141	29.663	
O	 0.0053421724	 1.4432172233	-0.0033960865	-0.415083
C	 0.0464815655	 0.0406632017	-0.105748007	-0.065327
C	-1.336691069	-0.5844706497	 0.0072819724	 0.090984
C	-1.3680320658	-2.1169191659	-0.0587866595	-0.388072
C	-2.2470120889	-2.5166763969	 1.1108156741	 0.286228
O	-2.721879203	-3.5842543032	 1.3695120372	-0.258853
C	-2.4330802533	-1.2474685078	 1.9744903397	 0.340336
O	-2.9626399866	-1.1583049979	 3.039578233	-0.303916
O	-1.8660216189	-0.2098495339	 1.3155979641	-0.241542
H	-0.3937627323	 1.6562596877	 0.848093129	 0.300244
H	 0.4656595956	-0.1974933493	-1.0895568957	 0.123572
H	 0.7013175925	-0.413241492	 0.6569639347	 0.098401
H	-2.0019536584	-0.129582596	-0.7330822507	 0.118578
H	-1.7491654333	-2.5113391096	-1.0022138176	 0.159002
H	-0.3700440966	-2.5447444003	 0.1015571229	 0.155449
