21
gdb 92597	2.16624	1.59264	1.43953	1.0422	76.81	-0.2331	0.073	0.306	1070.8885	0.182979	-424.224763	-424.216241	-424.215297	-424.257528	33.832	
C	-0.8327907994	 1.2358991431	-0.0405039034	-0.419629
C	-0.0008747142	-0.0371448495	-0.0879557588	 0.010442
C	 1.3002551915	-0.052322234	-0.9443889267	-0.289376
C	 2.0716494495	-0.7053439381	 0.2406254235	 0.053734
O	 3.1600956464	 0.0200342059	 0.7764130821	-0.257438
C	 2.6142897424	 1.1169516962	 1.5068245726	-0.095272
C	 1.3155863901	 0.5958088113	 2.1415798271	-0.305735
C	 0.8204012968	-0.4852905086	 1.1576604812	 0.384852
O	 0.208963658	-1.5905826571	 1.7829702379	-0.490404
H	-0.2230578406	 2.1137031398	 0.2017571206	 0.11045
H	-1.3027573926	 1.4250467652	-1.0116559347	 0.116938
H	-1.6309364822	 1.1637570468	 0.706321332	 0.122012
H	-0.6403389992	-0.8822991945	-0.3587497493	 0.087835
H	 1.2615607125	-0.6387052232	-1.8644513118	 0.102605
H	 1.6812169061	 0.9432330657	-1.1882756593	 0.103947
H	 2.3860503065	-1.7384364505	 0.0801491088	 0.079631
H	 3.3624861216	 1.4359368975	 2.2368569519	 0.110634
H	 2.4113366222	 1.9681009086	 0.8387508973	 0.095088
H	 1.535607945	 0.1093346768	 3.0990041562	 0.094795
H	 0.5855884816	 1.3852382426	 2.3334285398	 0.110815
H	 0.7840677079	-1.8947027241	 2.4938805628	 0.274078
