19
gdb 35523	3.04744	1.44472	1.34673	4.8789	77.84	-0.2438	0.0303	0.2741	1028.5642	0.16387	-382.094353	-382.087156	-382.086212	-382.125989	29.106	
N	-0.152998403	-1.1563130117	-0.303789817	-0.340257
C	-0.0915507767	-0.013331035	-0.1436720998	 0.311155
C	-0.0072738481	 1.4442402161	 0.0241697911	-0.14958
N	-0.5885646992	 1.8890768508	 1.3221026158	-0.292404
C	 0.465622442	 2.737005907	 1.9342895262	-0.000424
C	 1.5402689805	 1.7819392785	 2.4921616434	-0.188322
C	 2.2262791224	 1.2549465229	 1.1888214397	-0.226315
C	 1.4517974843	 1.9912813099	 0.0717571398	-0.019819
C	 1.1857105696	 3.3640486121	 0.7226609344	-0.228437
H	-0.5343031434	 1.8912394472	-0.8283270532	 0.115555
H	-1.4244151543	 2.4346478913	 1.1485157998	 0.226221
H	 0.0302653279	 3.415331648	 2.6687169653	 0.07037
H	 2.2479086878	 2.3178651777	 3.1311035126	 0.097273
H	 1.0817255298	 0.9846513018	 3.0792620456	 0.118036
H	 3.2841738716	 1.5289988746	 1.1524193741	 0.101161
H	 2.1657234931	 0.1693470006	 1.0862806753	 0.131433
H	 1.9354699983	 1.9836838959	-0.9050847329	 0.080164
H	 0.5427539415	 4.0202732909	 0.1276873462	 0.091604
H	 2.1071191657	 3.8958274814	 0.9765474136	 0.102587
