14
gdb 16144	4.12978	1.82379	1.51674	3.3866	59.01	-0.248	-0.0263	0.2217	822.6601	0.106519	-419.653295	-419.646534	-419.64559	-419.684368	24.951	
O	-0.3002465675	 0.0613385182	 0.1303494074	-0.259153
C	-0.0834052509	 1.2393406537	 0.0154757826	 0.091189
C	 1.2518893746	 1.8542519644	-0.1179842638	 0.311254
C	 1.4960411411	 3.3142513409	 0.2827611234	-0.39528
C	 1.5791593372	 2.917012639	-1.1591129527	 0.044916
O	 2.811054944	 2.5502843812	-1.7039833342	-0.245044
C	 3.3938521194	 1.6111508726	-0.8130509714	 0.004958
O	 2.3450466362	 0.9883275046	-0.0920926742	-0.274006
H	-0.9042293453	 1.993729391	-0.0005149997	 0.071639
H	 0.6199677712	 3.8829490964	 0.5781243211	 0.136099
H	 2.3960854072	 3.5396960395	 0.8425919902	 0.142938
H	 0.8810512189	 3.2810228476	-1.9021318201	 0.130456
H	 3.9378173359	 0.8579029157	-1.3899074578	 0.136083
H	 4.0793311182	 2.1224019553	-0.1191011308	 0.10395
