16
gdb 49494	2.57912	1.45358	1.11362	3.3186	77.01	-0.253	-0.0422	0.2107	1097.5154	0.123112	-400.63228	-400.624352	-400.623408	-400.66497	30.036	
O	-0.2650834531	 0.1013236309	-0.3937210507	-0.238075
C	-0.0245674199	 1.18070754	 0.0843723615	 0.129054
C	 1.261910963	 1.9477079174	-0.0593937058	-0.084742
N	 2.4591313427	 1.3020847358	-0.765309488	-0.158347
C	 1.7139597427	 1.6030743915	-2.0824115764	-0.21368
C	 1.4893923887	 2.9164620909	-1.2831809022	 0.22921
C	 2.9815081635	 2.7435543108	-0.8997342482	-0.198999
C	 0.7618860315	 4.1043619965	-1.6367640836	 0.007748
C	 0.151602446	 5.0982535303	-1.9312779106	-0.332329
H	-0.7795431989	 1.7172997138	 0.7040666284	 0.087266
H	 1.5200515096	 2.383956434	 0.9133927437	 0.09694
H	 2.3786505824	 1.667014405	-2.9464581657	 0.112249
H	 0.8658591681	 0.9481216522	-2.2671608543	 0.145645
H	 3.3231490088	 3.1844724214	 0.0398879681	 0.112281
H	 3.7177950961	 2.8628369125	-1.6973521281	 0.115254
H	-0.3867875212	 5.9755418669	-2.1939431482	 0.190524
