16
gdb 26882	3.08667	1.37992	0.95926	3.8335	77.56	-0.1989	-0.0252	0.1737	1168.2699	0.124595	-437.964759	-437.956205	-437.95526	-437.99853	31.344	
C	-0.0370043098	 1.5640931126	 0.0143076818	-0.491386
C	-0.0077257394	 0.057871507	 0.0037314189	 0.118969
C	-1.1659881643	-0.6761459043	-0.0034902592	 0.439815
O	-2.3663725785	-0.0550485546	-0.0000476484	-0.408667
N	-1.1337580235	-2.0361445042	-0.0112052889	-0.457866
C	 0.0371065494	-2.8490345405	-0.0110348659	 0.419889
O	-0.0897229539	-4.0624448532	-0.017273875	-0.404985
C	 1.2425789559	-2.0622602635	-0.0030197243	-0.281048
C	 1.1957305058	-0.6961760268	 0.0042740044	-0.093219
H	 0.9732030602	 1.9624380006	-0.1102805901	 0.123279
H	-0.6586581296	 1.9656236378	-0.7927523148	 0.13354
H	-0.4383010904	 1.9635514162	 0.9531179407	 0.132443
H	-3.0877849522	-0.6915116691	-0.0446308458	 0.305057
H	-1.9893069912	-2.5765204826	-0.0100930186	 0.247838
H	 2.1785241808	-2.6050595597	-0.0041998594	 0.110812
H	 2.1301036908	-0.1403247256	 0.0085485645	 0.105528
