17
gdb 14195	3.78235	2.24074	2.10275	1.6771	66.83	-0.229	0.0794	0.3084	742.3663	0.144194	-363.813655	-363.807498	-363.806554	-363.843497	25.561	
C	 0.0615729422	 1.491881752	-0.076966863	-0.506444
C	 0.0006495791	-0.0024616356	 0.0332189447	 0.405642
C	-1.3143423179	-0.7881448445	-0.1539912767	-0.24926
C	-0.7167791532	-2.1017366217	 0.3951210218	-0.063318
N	-0.3664806844	-1.7864329444	 1.8111552152	-0.310311
C	 0.6256235429	-0.8709352619	 1.2421639544	-0.10099
C	 0.8153531373	-1.7890017045	 0.0325412224	 0.119043
O	 0.8670980942	-0.7225454312	-0.9079786194	-0.325708
H	 1.0840880242	 1.8520389994	 0.0691525799	 0.128847
H	-0.2795153173	 1.8244726853	-1.0632147386	 0.131235
H	-0.5808071516	 1.9544001112	 0.6794621808	 0.119966
H	-2.1567290456	-0.43809702	 0.4509470343	 0.088794
H	-1.5972383258	-0.8137859912	-1.208827942	 0.109234
H	-1.2122792739	-3.050859631	 0.196771241	 0.074381
H	-1.121916261	-1.3420674292	 2.3336359232	 0.207733
H	 1.4086847018	-0.4391018923	 1.8649816663	 0.079204
H	 1.540418649	-2.5888689703	-0.0958646244	 0.091951
