17
gdb 34994	2.72826	1.65986	1.44123	5.5147	75.55	-0.242	0.0349	0.2769	961.9516	0.138833	-380.848356	-380.841291	-380.840347	-380.879854	28.119	
N	-0.2723388844	-1.1984234375	-0.272388271	-0.36598
C	-0.0310703774	-0.0768282664	-0.1222395106	 0.321991
C	 0.0713257576	 1.3523928773	 0.0150665393	-0.17977
C	 0.4741659745	 2.0807227627	 1.2892350519	-0.070425
C	 1.2814509172	 1.3771305621	 2.3871820361	-0.244892
C	 2.6569057026	 1.0918114223	 1.785985019	-0.029895
N	 2.6272307248	 0.1312410272	 0.6738817211	-0.313088
C	 2.6772665971	 1.5709830337	 0.3746232026	-0.057681
C	 1.3396843126	 2.1971911049	 0.0525432072	-0.055671
H	-0.7440200239	 1.8416333889	-0.5123709474	 0.13219
H	-0.1886746671	 2.8836058283	 1.592319041	 0.100645
H	 1.3838188541	 2.0572109846	 3.2388296061	 0.108997
H	 0.8004160435	 0.4624836369	 2.7479629788	 0.134117
H	 3.5350324754	 1.129133919	 2.4230325043	 0.092361
H	 3.5405872563	-0.2938244369	 0.5397475478	 0.237085
H	 3.5646487009	 1.9891036083	-0.0872034556	 0.09233
H	 1.339699876	 3.0881726846	-0.5642950904	 0.097688
