21
gdb 31801	4.34999	0.93565	0.83164	0.078	94.87	-0.2266	0.0058	0.2324	1481.1099	0.183415	-350.040171	-350.030899	-350.029955	-350.07597	34.108	
C	-0.047810267	 1.5727567722	 0.0642654817	-0.362736
C	-0.0060114358	 0.0353298284	 0.0130542175	-0.289198
C	 0.6955396081	-0.49042484	-1.2186838083	 0.301581
C	-0.0073424457	-0.7361357997	-2.4012346956	-0.183585
C	 0.6432282621	-1.1893640086	-3.5445031686	-0.179925
C	 2.0225650954	-1.4131135975	-3.5496872899	 0.300356
C	 2.7324494952	-1.8796353429	-4.7971333893	-0.492368
C	 2.7248891271	-1.1737141449	-2.3656435735	-0.179979
C	 2.0738667173	-0.7204732706	-1.2225856133	-0.183647
H	 0.9636519366	 1.9914271899	 0.0641131892	 0.119424
H	-0.5734810801	 1.9786224155	-0.8059558134	 0.119421
H	-0.561087455	 1.9224141023	 0.9659042422	 0.110045
H	 0.4983828958	-0.3408664395	 0.9107325933	 0.100816
H	-1.0304477278	-0.3535869209	 0.0454141187	 0.100828
H	-1.0823998641	-0.5788419511	-2.4248807771	 0.085014
H	 0.0687160989	-1.3796296628	-4.446884015	 0.084972
H	 3.0682630697	-1.0311981344	-5.4066674759	 0.13177
H	 3.6187321653	-2.4736130466	-4.5549342125	 0.123584
H	 2.0772260776	-2.4893939475	-5.4263197273	 0.123633
H	 3.7963498463	-1.3515785626	-2.3358939607	 0.08498
H	 2.6452344201	-0.5507875186	-0.313854812	 0.085014
