20
gdb 47538	2.48171	1.66693	1.11889	2.4182	79.84	-0.2534	0.0133	0.2666	1118.7168	0.173227	-403.149424	-403.141546	-403.140602	-403.181818	31.293	
N	-0.0050907425	 1.3608353715	-0.0482221276	-0.470825
C	 0.0166857155	 0.0999526036	 0.026300487	 0.363876
C	-1.2402200261	-0.7314583599	 0.0332654624	-0.238476
C	-1.4257632728	-1.6816939262	 1.2343483658	-0.202144
C	-0.2978957269	-2.7136848201	 1.4017393779	-0.222111
C	 0.9613405652	-2.1128199368	 2.00370264	-0.028722
C	 2.3213814567	-2.3544080659	 1.3760248006	-0.334311
C	 1.6735225846	-1.01053763	 1.267888465	 0.096859
O	 1.200218437	-0.6332098695	-0.0051237968	-0.263379
H	 0.9518444891	 1.720361823	-0.0908267403	 0.220649
H	-2.0861694557	-0.044377973	-0.0382376526	 0.124951
H	-1.2256380703	-1.3361514423	-0.8841362435	 0.118398
H	-1.5304506132	-1.0964689377	 2.1563893664	 0.105751
H	-2.378291871	-2.2043575552	 1.0904845195	 0.099681
H	-0.6400013491	-3.5329629595	 2.0440519025	 0.100562
H	-0.0734533258	-3.1621990505	 0.4272259165	 0.103185
H	 0.9390767794	-2.0064684466	 3.0853447863	 0.090098
H	 3.1933457714	-2.4568755157	 2.0121743364	 0.116254
H	 2.3443981614	-2.9513815147	 0.4707430014	 0.126687
H	 2.0854635331	-0.1794558146	 1.8373198631	 0.093018
