20
gdb 38899	2.66544	1.76489	1.50786	2.2277	77.01	-0.2147	0.0776	0.2923	970.9825	0.174306	-403.107072	-403.099915	-403.098971	-403.138366	29.183	
C	 0.0309994716	 1.5966249223	 0.2372395567	-0.265078
C	 1.2726826889	 0.8015397018	 0.0090971265	-0.002817
C	 2.3190614527	 0.4989286532	 1.0712331479	-0.252705
C	 1.7832078486	 0.1431002886	 2.4623082662	-0.070648
C	 1.2007493855	 1.2802645412	 3.3261639711	-0.088088
O	-0.1421265561	 0.768678359	 3.1834978108	-0.290278
C	 0.3370092092	-0.4209790523	 2.5005866469	 0.118338
C	-0.3557197532	-0.7029976469	 1.1714367669	-0.179982
N	-0.0386407163	 0.1462301457	 0.0215070938	-0.101858
H	-0.1922874248	 1.9720615226	 1.2283030027	 0.14345
H	-0.3689623107	 2.1955304785	-0.5780838694	 0.107026
H	 1.7043051481	 0.8569084286	-0.9901255085	 0.086611
H	 2.9170062552	-0.3451444523	 0.7035224254	 0.107152
H	 3.0167175017	 1.3431297341	 1.1497317814	 0.10751
H	 2.5161826766	-0.4709228981	 2.9889983697	 0.079066
H	 1.5251523956	 1.2759099543	 4.3742561626	 0.102316
H	 1.3016793861	 2.2968646033	 2.9265533855	 0.101733
H	 0.2215250112	-1.2988557024	 3.1515375833	 0.074662
H	-0.1132860614	-1.7355431585	 0.8850047888	 0.104101
H	-1.4398785886	-0.6659747328	 1.3323833216	 0.119487
