18
gdb 8177	2.69418	2.58298	1.75713	1.6836	66.83	-0.2402	0.0719	0.3122	815.5816	0.154063	-384.925167	-384.917766	-384.916822	-384.956251	29.256	
C	-0.0624817317	 1.4974832175	 0.0281281615	-0.509122
C	 0.0376579193	 0.0012280971	-0.0132329219	 0.423823
C	 0.7457397167	-0.8079529499	-1.1272881339	-0.269098
C	-0.2959010916	-1.8302241741	-0.6331941536	 0.076256
C	 0.1863116915	-2.2059717163	 0.7807147973	-0.257285
C	 0.4656616182	-0.7491170484	 1.2740035751	 0.087065
O	 1.8225683724	-0.4544816763	 1.5586704103	-0.441795
O	-1.20064436	-0.7156030797	-0.340933322	-0.338166
H	 0.9062555013	 1.9220499313	 0.3077582734	 0.137785
H	-0.3604636352	 1.9013604108	-0.9430591507	 0.122554
H	-0.8015923491	 1.8097705399	 0.7738459143	 0.124678
H	 0.5017233358	-0.4195986419	-2.1169405935	 0.103679
H	 1.8092417053	-1.0286379052	-1.0220991028	 0.107659
H	-0.7300380737	-2.6012656816	-1.2693610265	 0.076059
H	-0.5964833555	-2.710280278	 1.3515670541	 0.103152
H	 1.0939582559	-2.8165272338	 0.7885128503	 0.096106
H	-0.1837479256	-0.4640638134	 2.1116437792	 0.069568
H	 2.0654623861	-0.900518528	 2.3751785194	 0.287082
