11
gdb 75	10.44045	4.04692	2.98547	3.5648	39.51	-0.2436	0.0599	0.3034	428.404	0.091713	-264.504487	-264.498452	-264.497508	-264.533633	20.274	
C	 0.0092263044	 1.4502181418	-0.0319454346	-0.320553
N	-0.0142948796	-0.0005464555	-0.017826674	-0.3263
C	-1.2157657943	-0.6725240277	 0.04421896	 0.44315
N	-1.0973335188	-2.0464489829	-0.1599774097	-0.559814
O	-2.2859929932	-0.1289371098	 0.2419602655	-0.385845
H	 0.8965903754	 1.818850224	 0.4912094852	 0.11875
H	 0.0023395018	 1.8638850363	-1.0491415461	 0.120168
H	-0.8856268379	 1.7994334649	 0.483532982	 0.167942
H	 0.7525730521	-0.4750663094	-0.4671926488	 0.23865
H	-0.2488233331	-2.4877219407	 0.163756536	 0.244639
H	-1.9341960968	-2.5389839311	 0.1148288047	 0.259213
