19
gdb 108086	2.55788	1.45307	1.19647	0.9742	74.88	-0.223	0.0665	0.2895	1122.7056	0.158315	-422.954357	-422.945957	-422.945012	-422.987333	32.513	
C	 0.1610451687	 1.3946535548	 0.2389763622	-0.375619
C	-0.1315344462	-0.0527473532	-0.1784166574	-0.304531
C	 0.6069187521	-0.4738515902	-1.4163425875	 0.260899
C	 0.4601384426	 0.0272887414	-2.8561796556	-0.283954
C	 1.3974488823	-1.1435466091	-3.2420087757	-0.014595
O	 2.6717853934	-0.7786247652	-2.6483210232	-0.287632
C	 2.0787236666	-1.0136409523	-1.3756511021	-0.053193
C	 0.96362359	-1.8699725541	-1.8822019426	 0.258457
O	 0.3978394456	-3.0665330366	-1.5393317954	-0.449626
H	 1.2270671214	 1.5381888385	 0.4426487424	 0.118798
H	-0.1222229193	 2.0989420051	-0.5500694659	 0.120399
H	-0.3963408963	 1.6629966115	 1.1415534571	 0.111774
H	 0.1288905583	-0.7354120625	 0.6408564178	 0.101854
H	-1.2104348583	-0.1786911477	-0.338305695	 0.104351
H	-0.5577892325	-0.12580479	-3.225919851	 0.103973
H	 0.8201225611	 1.0276998538	-3.1163438791	 0.099856
H	 1.48221492	-1.5383965815	-4.2524727413	 0.085724
H	 2.6975119257	-1.0265785805	-0.4877274633	 0.10791
H	 1.0644036649	-3.758669612	-1.6247955146	 0.295154
