16
gdb 128431	4.50384	1.13637	0.92633	1.4625	74.49	-0.2556	-0.0192	0.2364	1228.5174	0.125783	-434.08487	-434.076805	-434.07586	-434.118259	29.107	
C	 0.0614275648	 1.2916789906	-0.0941165116	-0.225139
O	-0.0870467427	-0.1288219439	-0.1758362639	-0.210431
C	-1.3081145664	-0.5940891078	 0.0667302586	 0.527355
N	-2.3136920805	 0.1483200356	 0.2768822116	-0.572957
N	-1.3089498689	-2.0117451642	 0.0291040466	-0.064523
C	-2.3941441602	-2.8141599815	-0.1984506384	-0.019616
C	-1.9516344603	-4.1090499989	-0.1259596376	-0.243787
C	-0.5674942134	-3.994192978	 0.1548729634	 0.010075
N	-0.1780080187	-2.7335727266	 0.2453538988	-0.237779
H	 1.1197515742	 1.4808645245	-0.2731003237	 0.13735
H	-0.5540195621	 1.7869057338	-0.8493810374	 0.143091
H	-0.2364565831	 1.6532523022	 0.8933009953	 0.143542
H	-3.145636669	-0.3857520788	 0.5074859092	 0.229849
H	-3.3640678175	-2.4021094695	-0.4228181584	 0.144662
H	-2.5339875144	-5.0050872352	-0.2656725884	 0.115565
H	 0.1558854582	-4.7843767023	 0.2956801558	 0.122742
