21
gdb 75503	2.59362	1.44418	1.00824	1.8211	83.81	-0.2317	0.0239	0.2555	1222.9442	0.183923	-387.088544	-387.080267	-387.079323	-387.121101	32.846	
C	 0.2920464512	 1.5441684581	 0.0633629141	-0.471285
C	-0.0004793618	 0.0658854117	-0.0163445545	 0.303387
C	 0.0047136673	-0.5621111779	-1.1984250272	-0.118346
C	-0.2136060711	-2.0147706971	-1.5554623784	-0.250691
C	-0.2810069747	-3.0212699241	-0.395501468	-0.254116
C	-1.4652303794	-2.7340262515	 0.5000252565	 0.075368
O	-1.2918062555	-2.8313368738	 1.918667668	-0.26817
C	-1.4618396535	-1.53129483	 1.3344785852	 0.064341
C	-0.2628751195	-0.5989911336	 1.331147499	-0.346689
H	 1.1567829896	 1.7400844534	 0.7112891869	 0.123024
H	 0.5019167782	 1.9742661756	-0.9192911028	 0.117623
H	-0.55191373	 2.0910027437	 0.5045031625	 0.120314
H	 0.2050110731	 0.0583491323	-2.0721552646	 0.074945
H	-1.1330464435	-2.092151849	-2.1573052199	 0.107425
H	 0.5901418774	-2.3174802989	-2.2404596911	 0.106339
H	-0.3477038832	-4.0386511956	-0.7969637613	 0.097957
H	 0.6362981036	-2.9776155547	 0.1981206844	 0.11462
H	-2.4269139918	-3.1086184041	 0.1450460843	 0.085603
H	-2.4195032375	-1.0654277669	 1.5680194343	 0.089912
H	 0.6156966103	-1.1670946943	 1.6562229206	 0.127974
H	-0.4096335693	 0.1764769367	 2.0907299622	 0.100463
