14
gdb 19384	3.17678	2.32475	1.59707	3.8511	62.68	-0.2441	-0.0271	0.217	794.4099	0.106664	-382.497026	-382.490447	-382.489502	-382.527745	25.003	
O	-0.0048138089	 0.0253782694	-0.1209548746	-0.308554
C	-0.0429037377	 1.2099116052	 0.0393993588	 0.357132
C	-1.1272839635	 2.2540123564	-0.0402434523	-0.177094
C	-0.984251878	 3.226351405	 1.1207307053	-0.293216
C	-0.0321773048	 3.3593016083	-0.0175405554	-0.148221
C	 1.0484375738	 2.298338781	 0.1386274749	 0.339044
C	 2.3740594088	 2.3202082802	 0.760026191	-0.264009
O	 2.2071928966	 2.2315015307	-0.6626565899	-0.268046
H	-2.0390204722	 2.1885014194	-0.6189747458	 0.119859
H	-1.7779566357	 3.9642239972	 1.1758928316	 0.134228
H	-0.6352961326	 2.8760199853	 2.0880820824	 0.128646
H	 0.0383905167	 4.2248124178	-0.6612974291	 0.123466
H	 2.7757259495	 3.2647708245	 1.1240033736	 0.12331
H	 2.759458148	 1.4209472696	 1.2370932592	 0.133455
