14
gdb 13740	3.43749	1.69803	1.31972	5.4619	63.67	-0.2669	-0.0131	0.2538	923.7769	0.10574	-378.730228	-378.722118	-378.721174	-378.763403	27.839	
C	-0.0607723711	 1.335020408	-0.0736407665	-0.479387
C	-0.0708274631	-0.1780106912	-0.0224516951	 0.387811
O	 0.8456542212	-0.8825725319	-0.3629299482	-0.310274
N	-1.2382369875	-0.7177479253	 0.5497961287	-0.085879
C	-2.5974259127	-0.5529291875	 0.1016087776	-0.246969
C	-1.9165650838	-1.9065525488	 0.0890791555	-0.151005
C	-1.592082287	-2.4994866592	-1.1895645688	 0.306684
N	-1.3831308846	-3.000137167	-2.2099083143	-0.321068
H	 0.9555449883	 1.6759230444	-0.2687109723	 0.158408
H	-0.7121655105	 1.6868946672	-0.8814977568	 0.147283
H	-0.4326118707	 1.7628562517	 0.8611395379	 0.147441
H	-3.3414347322	-0.3436688976	 0.8654158602	 0.143824
H	-2.7738406443	-0.0905166927	-0.8666592561	 0.151725
H	-2.1664619321	-2.6298522299	 0.8605223581	 0.151405
