22
gdb 121277	4.00132	0.84846	0.76653	2.1732	81.46	-0.2271	0.0774	0.3044	1529.0391	0.195812	-404.325942	-404.316986	-404.316042	-404.360047	34.01	
O	-0.0892912839	 1.4764538769	-0.0874310552	-0.420926
C	 0.0218566949	 0.0634109545	-0.0040181245	-0.074578
C	-1.3883981723	-0.5142671573	 0.0065423415	-0.187839
C	-1.4234328362	-2.0458692517	 0.0312666234	 0.017666
C	-0.863348816	-2.7032160376	 1.3160568378	-0.25621
C	-1.6405380606	-4.0361009026	 1.4182904781	-0.157796
N	-2.9362972485	-3.869690694	 0.7289387107	-0.100843
C	-3.6688192786	-2.6668305893	 1.1524761158	-0.24884
C	-2.8264622973	-2.6360250095	-0.0717361474	-0.02979
H	 0.7968677052	 1.8494305809	-0.0772301322	 0.284928
H	 0.5819699982	-0.3439313446	-0.8626583501	 0.082328
H	 0.5611233597	-0.2384034762	 0.9079995117	 0.086714
H	-1.9274201458	-0.1137732004	 0.8736677282	 0.103512
H	-1.9108149691	-0.1440647197	-0.8839422925	 0.105339
H	-0.8538740037	-2.4191812614	-0.8318892927	 0.073229
H	 0.2171801459	-2.8614527068	 1.2738531573	 0.101322
H	-1.0548950293	-2.0627403124	 2.1836824463	 0.104308
H	-1.101677308	-4.836409628	 0.8990375109	 0.106128
H	-1.7995790425	-4.3629657885	 2.4508753612	 0.104078
H	-4.7484984441	-2.7431485854	 1.0628318239	 0.114102
H	-3.3319618829	-2.1282188986	 2.0350299113	 0.106939
H	-3.3011331049	-2.6494491687	-1.0494483835	 0.086229
