18
gdb 78652	2.92104	1.55688	1.18423	2.3161	76.5	-0.2315	-0.0028	0.2287	1081.853	0.146558	-401.911221	-401.902986	-401.902042	-401.943704	31.439	
C	-0.1976587883	 1.4223479192	 0.0009157406	-0.404201
C	 0.0653573995	-0.0641098177	-0.1334776547	 0.067735
C	 1.3128026678	-0.4812824286	-0.9386860329	-0.224393
C	 2.0497207124	-0.5113914126	 0.4541863416	-0.097944
N	 0.7401774901	-0.5929978412	 1.1212388067	-0.178709
C	 1.4299246537	-1.8689726685	 0.7222659015	 0.196982
C	 1.7160858133	-2.9063969731	 1.7577210463	-0.50797
C	 1.2853150794	-2.0142085649	-0.7693744468	 0.398881
O	 1.3679061768	-2.9447835798	-1.5204509563	-0.336588
H	 0.7219593189	 1.9688266342	 0.2323588662	 0.122068
H	-0.6103360822	 1.8228664528	-0.9304443087	 0.121161
H	-0.9165290911	 1.6074357254	 0.8051738722	 0.131203
H	-0.8604334873	-0.6001418408	-0.3788119839	 0.085527
H	 1.6265771016	-0.0219753485	-1.8724872884	 0.094153
H	 2.9582330148	-0.0815344576	 0.8527485705	 0.118065
H	 2.0451766641	-2.4408355959	 2.6901715381	 0.136261
H	 0.818206762	-3.494342955	 1.9725528519	 0.139311
H	 2.4939830544	-3.5911992273	 1.4075459763	 0.138459
