17
gdb 94530	2.4306	1.36908	1.12049	2.0995	68.82	-0.2437	-0.1003	0.1433	1137.0831	0.133234	-458.954434	-458.94521	-458.944266	-458.989719	31.822	
C	-0.1284936716	 1.6960446515	 0.2294875196	-0.434925
C	 0.0002475401	 0.1914749904	 0.0477944926	-0.036752
C	 1.2360655731	-0.3447503828	-0.71059592	-0.077395
O	 1.6050500989	-1.2031847907	 0.3904595607	-0.272483
C	 0.5546737615	-0.6962529102	 1.2140398068	 0.024971
C	 1.0650971687	 0.0409840383	 2.4363132369	 0.268049
O	 2.2168861809	 0.3439450553	 2.6324764176	-0.269046
C	 0.0110463646	 0.4383131186	 3.4776149431	 0.079789
O	-1.1706010459	 0.2704548276	 3.3182178215	-0.220825
H	 0.7957052391	 2.1352658364	 0.6201709796	 0.132693
H	-0.3411958267	 2.1746485555	-0.7321321926	 0.126026
H	-0.9462865818	 1.945387968	 0.912311328	 0.138043
H	-0.9350039537	-0.2234136892	-0.3333813245	 0.099266
H	 1.0393012513	-0.9154001535	-1.6248129586	 0.109422
H	 2.009383459	 0.4073037357	-0.9122289389	 0.110786
H	-0.1362903605	-1.4816894276	 1.5460023659	 0.108274
H	 0.4482243531	 0.9146245768	 4.3806802323	 0.114108
