18
gdb 12531	3.40413	1.95482	1.31317	0.9788	77.21	-0.2169	-0.0268	0.1901	950.5423	0.154584	-347.808496	-347.800995	-347.800051	-347.8403	28.88	
C	-0.2377815134	 1.4627297619	-0.0072272043	-0.401224
C	 0.0559076557	-0.0339736526	 0.0196308347	 0.06758
O	 0.7165216921	-0.3497726964	-1.2114031332	-0.248434
C	 0.5089880166	-1.6511391432	-1.6974706723	-0.132723
C	 0.9617335473	-2.7868161895	-0.8250833568	-0.078339
C	 1.4080107458	-2.7559295636	 0.4394907033	-0.07621
C	 1.4865866222	-1.6213195567	 1.3541360147	-0.079942
C	 0.8944319201	-0.428842284	 1.2116847053	-0.064969
H	 0.6963256496	 2.0276265804	-0.0844719135	 0.129712
H	-0.8641103807	 1.7135029087	-0.8664483312	 0.119195
H	-0.7543258205	 1.7700104534	 0.9072733747	 0.114318
H	-0.8975801751	-0.5877126592	 0.0564624767	 0.08167
H	-0.5512102429	-1.8123443892	-1.9719960702	 0.094925
H	 1.0708836225	-1.693009784	-2.6408207182	 0.120284
H	 0.9390523689	-3.7502784034	-1.3330044665	 0.09176
H	 1.742803256	-3.7013110958	 0.8615450668	 0.086565
H	 2.063222052	-1.7976079671	 2.2593872189	 0.088545
H	 1.0267047438	 0.3220894603	 1.986663591	 0.087287
