15
gdb 129912	3.37876	1.61798	1.09627	3.3951	73.43	-0.1758	0.0329	0.2087	1025.3506	0.116594	-413.003137	-412.995632	-412.994688	-413.034639	29.119	
N	 0.0130168127	 1.4310665949	 0.1843907528	-0.607357
C	 0.0178806673	 0.0329669029	 0.045969317	 0.06316
C	-1.0631637208	-0.8109094511	-0.0086944474	-0.150227
N	-0.6269341468	-2.1558800082	-0.1229282435	-0.430333
C	 0.733632483	-2.1126963375	-0.061805866	 0.451749
C	 1.1923598565	-0.8011194982	 0.0107818173	 0.218758
C	 2.6044097711	-0.940527021	 0.0122921789	-0.169293
N	 2.971535095	-2.2155560808	-0.0482168929	-0.230456
N	 1.8051094237	-2.9369319629	-0.102676218	-0.359643
H	 0.7270008822	 1.8750465625	-0.380066182	 0.243315
H	-0.884294024	 1.8403376488	-0.0435315839	 0.238184
H	-2.1180911896	-0.5880684185	-0.0219615819	 0.104263
H	-1.1994294044	-2.9435970787	 0.1258905503	 0.256582
H	 3.3710238598	-0.1810271868	 0.0604894005	 0.104943
H	 1.8557984942	-3.9389803454	-0.1261790613	 0.266356
