17
gdb 63448	1.90197	1.77653	1.07868	3.2846	81.03	-0.2625	-0.0076	0.2549	1146.077	0.132976	-380.828885	-380.819268	-380.818324	-380.862783	35.504	
C	-0.0761121126	 1.5231366299	-0.0205098565	-0.442018
C	-0.0440970795	 0.0098651	 0.0070789287	 0.275006
C	-1.2636202332	-0.666173329	-0.5844896106	-0.472813
N	 1.2756874385	-0.5766860549	-0.2111249197	-0.367887
C	 0.6932067394	-0.6681860099	 1.162425425	-0.062914
C	 1.3446230009	 0.0877920452	 2.2017056991	 0.312977
C	 1.8622640837	 0.7113051728	 3.0880699068	-0.41372
C	 0.2092672719	-1.9627094152	 1.5954944604	 0.241986
N	-0.1684191669	-3.0041234142	 1.9288268177	-0.348665
H	 0.8398732704	 1.9448088038	 0.3938179509	 0.147171
H	-0.1786622117	 1.8674091579	-1.0550186101	 0.127747
H	-0.9295673716	 1.9015226759	 0.5505977342	 0.128792
H	-1.33489721	-0.4200701936	-1.6496405875	 0.132578
H	-1.2261214133	-1.7530646922	-0.4824635606	 0.145443
H	-2.1783160502	-0.3119319344	-0.0993200779	 0.139945
H	 1.2008475358	-1.4880641352	-0.6609210266	 0.249033
H	 2.3298930386	 1.2598610232	 3.8685055267	 0.207339
