19
gdb 54420	2.50141	1.46828	1.13975	2.519	77.47	-0.2471	-0.026	0.2212	1147.5095	0.156109	-423.023918	-423.014516	-423.013572	-423.058402	34.418	
C	-0.9975120593	 0.8853215706	 0.1572749674	-0.492084
C	 0.2882850765	 0.1115282253	-0.0422597506	 0.276112
O	 1.2407676229	 0.213934729	 0.7026681102	-0.307715
C	 0.3751536535	-0.7997632034	-1.2145194131	 0.263342
C	 1.636411763	-1.4559205646	-1.7840325997	-0.291478
C	 0.7563853733	-2.6632469601	-2.2499344896	-0.278504
C	-0.4736729601	-1.960116463	-1.6474986983	 0.328521
C	-1.7074044655	-2.5979405586	-1.0965300148	-0.499053
O	-0.5804682343	-0.6908573531	-2.286967829	-0.311917
H	-1.2083663507	 1.4999063471	-0.7231832861	 0.154632
H	-1.8480368622	 0.2051891917	 0.2716108592	 0.141526
H	-0.9051489279	 1.5110911278	 1.0456308106	 0.138855
H	 2.137706463	-0.879842676	-2.5644258568	 0.11267
H	 2.3489085299	-1.7188377214	-1.0018143004	 0.132125
H	 0.6904285497	-2.8418502938	-3.3257714903	 0.112722
H	 1.011197706	-3.5950673529	-1.7399292629	 0.111091
H	-1.4505242693	-3.376285488	-0.3716215438	 0.13391
H	-2.3551276659	-1.8633710516	-0.613070429	 0.137098
H	-2.2780686827	-3.0685681552	-1.9057668431	 0.138145
