27
gdb 110097	1.65099	1.26077	0.90867	0.1123	97.22	-0.2488	0.0785	0.3272	1534.1386	0.249694	-353.56249	-353.55076	-353.549815	-353.599226	43.304	
C	 2.2070566634	 2.5558511873	-0.8106420278	-0.383878
C	 1.1353015178	 1.4893729846	-0.5509484313	-0.201497
C	 1.31930323	 0.2506563002	-1.4089401873	-0.041274
C	 2.0560443303	-1.0052573301	-0.9584327023	-0.041258
C	 2.6998098029	-1.1772731332	 0.4055205053	-0.201541
C	 4.1942790491	-0.8308053671	 0.4044527169	-0.38386
C	 0.5569202333	-1.0440859541	-1.1933213732	 0.282603
C	-0.3976209438	-1.1827756056	-0.0194289489	-0.449754
C	 0.0707551512	-1.7743206013	-2.4337919873	-0.447291
H	 3.2091442663	 2.1777742852	-0.5843186719	 0.124213
H	 2.2037468278	 2.8692031092	-1.8605644777	 0.113274
H	 2.0371867515	 3.4464718544	-0.1971642778	 0.107865
H	 1.1323955041	 1.234017791	 0.5135018016	 0.094587
H	 0.1462770025	 1.921503735	-0.7554123535	 0.095454
H	 1.4711814001	 0.5036093619	-2.4579155316	 0.068367
H	 2.6381384195	-1.4857818341	-1.7443514369	 0.068371
H	 2.1903404918	-0.5702152332	 1.1606293217	 0.094591
H	 2.5763085684	-2.2195952043	 0.7295952756	 0.095453
H	 4.6381361912	-0.9861800483	 1.3930202331	 0.107865
H	 4.7424971152	-1.4564250185	-0.3087045494	 0.113273
H	 4.3615306716	 0.2132600603	 0.1210930318	 0.124219
H	-0.0566841663	-0.6620999058	 0.8771395297	 0.112444
H	-1.3859328107	-0.7827667321	-0.2763615428	 0.110733
H	-0.5334174311	-2.2384702101	 0.2448539223	 0.110722
H	-0.0470684808	-2.8479816426	-2.2412149287	 0.108819
H	-0.9025316366	-1.3903961928	-2.76398919	 0.108816
H	 0.7726091613	-1.6609057358	-3.2661000095	 0.108685
