18
gdb 57440	2.67689	1.21985	1.05759	4.5428	72.68	-0.2799	-0.0047	0.2752	1196.3746	0.144314	-439.071333	-439.061577	-439.060633	-439.106129	35.71	
C	 0.1918638002	 1.5709560685	-0.100919834	-0.431242
C	-0.1098269481	 0.0721969578	 0.0472686029	 0.294059
C	 0.5222954753	-0.4812090802	 1.3216626749	-0.422022
O	-1.517542102	-0.1499794962	 0.1606933753	-0.447666
C	 0.3541219507	-0.619668941	-1.2374958473	 0.059991
O	 1.736948782	-0.9087537191	-1.4275445857	-0.234635
C	 0.8217830558	-2.0100689654	-1.4241068648	-0.106044
C	 0.9557336904	-3.0016081669	-0.3801575189	 0.309503
N	 1.0611311441	-3.8548012665	 0.3923132091	-0.329523
H	 1.269371646	 1.7487518995	-0.1662042009	 0.140707
H	-0.269408379	 1.9802262258	-1.0084817809	 0.106058
H	-0.202629205	 2.1143552395	 0.7617855732	 0.131123
H	 0.2790678996	 0.1770092161	 2.1594719637	 0.119007
H	 0.1338111354	-1.4745130957	 1.5472558438	 0.155956
H	 1.6085393397	-0.5384983153	 1.2223495088	 0.135181
H	-1.9691218958	 0.4204947194	-0.470838838	 0.281168
H	-0.1226156159	-0.1956768831	-2.1269401294	 0.095833
H	 0.6592262465	-2.4618618972	-2.4026271419	 0.142545
