21
gdb 85932	2.72066	1.29836	1.10027	3.9284	79.94	-0.2303	0.0619	0.2922	1219.743	0.182775	-420.472868	-420.463324	-420.46238	-420.506661	35.991	
C	-0.0429321977	 1.3892384748	 0.1507777335	-0.338347
N	-0.023742004	-0.0527170593	 0.1513072762	-0.10308
C	-1.1660693129	-0.8466732649	-0.2511762447	-0.192966
C	-0.6288474872	-2.301397639	-0.1542072941	 0.275995
C	-0.8790423466	-2.8859354292	 1.246919332	-0.417808
C	-1.2143154555	-3.2082925625	-1.2378110756	-0.424594
N	 0.8005972375	-2.0531646071	-0.3808024491	-0.378248
C	 1.1565668622	-0.7565313786	-0.0232065944	 0.444792
O	 2.2822489655	-0.32254574	 0.1030600963	-0.427811
H	 0.9710337885	 1.7324477229	 0.3635754835	 0.163758
H	-0.3594746696	 1.7967750345	-0.8211746095	 0.112462
H	-0.7228435465	 1.7713657044	 0.9205915758	 0.118698
H	-2.0260193395	-0.6850063411	 0.4083987688	 0.107416
H	-1.4795238975	-0.609959719	-1.2809952414	 0.096095
H	-1.9478191393	-3.0540479272	 1.4163330031	 0.116757
H	-0.3677307463	-3.8480572128	 1.3602231729	 0.113684
H	-0.5084160448	-2.2071247133	 2.0204548419	 0.131878
H	-0.9863391106	-2.8170689117	-2.2325684095	 0.125296
H	-0.8006997435	-4.2198991544	-1.1659262241	 0.115848
H	-2.301597832	-3.2866907745	-1.1315606	 0.117565
H	 1.4737898698	-2.770503882	-0.1550283415	 0.242609
