16
gdb 132507	3.10898	1.37296	0.95866	2.86	77.34	-0.2083	-0.0095	0.1988	1170.9261	0.125022	-442.116052	-442.107942	-442.106997	-442.148719	30.815	
C	-0.009992468	 1.5346427663	 0.033801706	-0.50007
C	-0.0138962315	 0.0316027636	-0.0256100495	 0.102168
C	-0.0475481662	-0.7053269194	-1.2100116601	-0.130952
C	-0.0498182637	-2.0925691396	-1.192858142	-0.194785
C	-0.0147523874	-2.7400864834	 0.0500727843	 0.380449
N	-0.0691537443	-4.1153481326	 0.1630054238	-0.568034
N	 0.0251074585	-2.0556831633	 1.2031840395	-0.385928
C	 0.0204053154	-0.7465790488	 1.1309974718	 0.279788
F	 0.0602152587	-0.1075619499	 2.3042950362	-0.075713
H	 0.8843208695	 1.9170009001	 0.5378490455	 0.136289
H	-0.0388860378	 1.9614062119	-0.9722738866	 0.119174
H	-0.8725606692	 1.919017344	 0.5889828534	 0.137128
H	-0.0730177019	-0.1793327564	-2.1600534862	 0.103132
H	-0.0841138118	-2.6653239405	-2.112519433	 0.087793
H	 0.272197207	-4.6494549103	-0.6201757348	 0.251468
H	 0.2200193627	-4.4648487016	 1.0642013117	 0.258092
