18
gdb 72202	3.36175	1.89573	1.6407	0.8154	73.76	-0.2019	0.0679	0.2698	882.3271	0.149505	-401.881774	-401.875253	-401.874309	-401.912213	27.535	
C	 0.0161969859	 1.450051238	-0.0381805501	-0.481532
C	 0.0387001728	-0.0478212776	 0.0235097105	 0.448454
O	-0.188069363	-0.6600113297	-1.2300578028	-0.29641
C	-0.1007393146	-2.0590301281	-1.0156100318	 0.054508
C	-1.336264849	-2.5392422827	-0.229953172	-0.184537
N	-0.629167077	-2.2371482306	 1.0651522564	-0.150233
C	-0.4428729722	-0.7757934173	 1.2725502333	-0.117236
C	 1.0285587372	-0.8234839519	 0.8420089283	-0.179453
C	 0.7048531058	-2.2275615794	 0.3378764296	-0.035211
H	 0.767024334	 1.8175287352	-0.7448083758	 0.130604
H	-0.9650106777	 1.8089416805	-0.3637101587	 0.131282
H	 0.2293249867	 1.8770712624	 0.9456112643	 0.124562
H	 0.200209058	-2.5458863356	-1.9457305748	 0.07724
H	-2.2647983084	-1.9912296952	-0.4090983752	 0.109681
H	-1.5157417584	-3.6167392612	-0.2981138381	 0.105014
H	-0.9241286255	-0.2682129664	 2.1031581517	 0.089487
H	 1.9371832087	-0.4530937624	 1.2964036525	 0.095123
H	 1.3717267867	-3.0758907581	 0.4833968926	 0.078659
