19
gdb 108444	2.21547	1.73905	1.21929	2.1867	75.73	-0.2221	-0.0249	0.1972	1088.8713	0.157725	-423.006931	-422.998089	-422.997145	-423.040897	32.637	
C	-0.1178925934	 1.4290614238	-0.1117296388	-0.271419
O	-0.0941326735	 0.0061674247	-0.0904076027	-0.292254
C	 0.6782232745	-0.5577257101	-1.0963946721	 0.338397
C	 0.1468617746	-0.5004150835	-2.5692491467	-0.304567
C	 0.2486031567	-2.0524909679	-2.6667510121	-0.220865
C	 0.8413779194	-2.1215319369	-1.2376995834	-0.103621
C	 2.38862498	-1.9766126382	-1.177049206	-0.356535
C	 2.2154118641	-0.4558755569	-0.9876863278	 0.339713
O	 2.9703385996	 0.4385472346	-0.7291951728	-0.304485
H	 0.8861013984	 1.8471937262	 0.0174681348	 0.144376
H	-0.544396123	 1.8100907267	-1.0507596898	 0.108938
H	-0.7557230053	 1.7426227503	 0.7172925238	 0.127972
H	-0.8826643244	-0.1359463604	-2.5898859097	 0.120195
H	 0.7392930323	 0.0807435466	-3.2795826812	 0.11017
H	-0.7260561723	-2.5360997414	-2.7582504141	 0.111207
H	 0.897045031	-2.441089647	-3.4562491983	 0.102801
H	 0.3929998181	-2.8061483839	-0.5202052768	 0.085504
H	 2.8510168494	-2.4359980837	-0.297332535	 0.138568
H	 2.9521091337	-2.2862411426	-2.0621442313	 0.125904
