19
gdb 90366	2.32732	1.54929	1.31868	4.295	75.03	-0.2659	0.0119	0.2779	1081.6439	0.158475	-423.055031	-423.046448	-423.045504	-423.088049	32.624	
C	 0.4051815281	 1.5503118171	 0.0376396313	-0.41097
C	 0.1184905948	 0.0563227499	 0.0431052456	-0.021509
C	 0.9315886667	-0.8702604494	-0.9178671207	-0.261486
C	 1.35246637	-1.76467631	 0.2941307416	-0.285709
C	 2.6044496251	-1.2255765511	 0.9659425213	 0.449088
O	 3.7798534911	-1.4027766868	 0.9289579851	-0.331018
O	 1.9225765843	-0.3104821713	 1.7388978068	-0.288196
C	 0.6127030191	-0.7878978788	 1.2516275153	 0.436086
C	-0.3016888474	-1.1484295115	 2.3883930753	-0.480403
H	 1.4655670409	 1.7477454833	 0.215607622	 0.137871
H	 0.1314055287	 1.9906428228	-0.9268294555	 0.117988
H	-0.1673687461	 2.0678660641	 0.8147948253	 0.119433
H	-0.9546009899	-0.1191554572	-0.0901368234	 0.079036
H	 0.3187260745	-1.3986034461	-1.6496607297	 0.115207
H	 1.7651927216	-0.3969945353	-1.4419775904	 0.123025
H	 1.2104141481	-2.841934183	 0.2413270528	 0.104167
H	-0.5700216365	-0.2549866075	 2.9625498666	 0.137659
H	-1.2239894516	-1.5986082524	 2.0089883354	 0.12557
H	 0.1799049685	-1.8572443968	 3.0682867055	 0.134162
