14
gdb 21039	3.73734	1.87333	1.26102	1.1035	62.18	-0.1953	0.0118	0.2072	914.5018	0.108357	-412.042003	-412.034119	-412.033175	-412.074171	28.153	
C	 0.0799499674	 1.3189755035	 0.015781951	-0.304655
N	-0.0201091429	-0.1197467016	 0.0023052753	 0.132977
N	-0.0037303488	-0.8200932872	-1.1392597044	-0.30922
C	 0.0970503963	-2.0863870431	-0.7436495508	 0.269702
N	 0.1852304704	-3.168054615	-1.613921562	-0.599132
C	 0.1557465018	-2.0927374733	 0.665678016	 0.319157
O	 0.2313753034	-3.1900041601	 1.4509402518	-0.437609
N	 0.0924961622	-0.8499210139	 1.1168912851	-0.330219
H	 1.1243700633	 1.6517891568	-0.0174223327	 0.138607
H	-0.4467721226	 1.7070702695	-0.8568651631	 0.15235
H	-0.3853743192	 1.6899035764	 0.9299158203	 0.15024
H	-0.1843949278	-2.9526670007	-2.5304415127	 0.254747
H	-0.239401937	-4.0066641496	-1.2408576897	 0.255909
H	 0.2402677535	-2.8925079718	 2.368457776	 0.307147
