23
gdb 104887	2.28481	1.31253	1.0467	1.709	80.74	-0.2465	0.0688	0.3153	1273.0616	0.206074	-425.429545	-425.419703	-425.418758	-425.464374	36.794	
C	 0.8042099668	-0.6721793609	-1.4030126604	-0.396715
C	 0.116249744	-0.1238876491	-0.148588417	-0.232813
C	-1.3802296914	-0.4603560499	-0.0127549631	 0.328237
C	-2.1855271114	-0.0075153214	-1.2379124539	-0.126167
O	-1.9238477788	 1.3698760523	-1.4725298465	-0.42835
C	-1.6706751549	-1.9697633305	 0.2482230506	-0.302988
C	-2.5574545156	-1.9716715183	 1.5153294048	-0.07355
O	-3.0567266111	-0.6490613843	 1.6464757611	-0.249356
C	-1.9910781669	 0.1969888315	 1.2486493546	-0.128577
H	 1.8774889163	-0.4596864561	-1.3748795429	 0.111745
H	 0.685874988	-1.7576610877	-1.4936734162	 0.111336
H	 0.4036058499	-0.2106976179	-2.3103077167	 0.125908
H	 0.6294513691	-0.5043047869	 0.74400848	 0.086557
H	 0.2293796996	 0.9655113504	-0.131400415	 0.115066
H	-1.9101859088	-0.6152785924	-2.1134217015	 0.084431
H	-3.2529299726	-0.1815461561	-1.0341741336	 0.097435
H	-2.5073883276	 1.6740168071	-2.1731465177	 0.288907
H	-2.1924635365	-2.4244233991	-0.5996744856	 0.100797
H	-0.7500358018	-2.5389429064	 0.4021622293	 0.101324
H	-3.4116562724	-2.6512605274	 1.4577647585	 0.105176
H	-1.9622696197	-2.2438222083	 2.4022538909	 0.08722
H	-1.2336100637	 0.2706858127	 2.0474957426	 0.075591
H	-2.3931370803	 1.1929101488	 1.0523374577	 0.118785
