17
gdb 74026	2.87701	1.51822	1.05005	2.5692	77.27	-0.2417	-0.0484	0.1933	1113.7065	0.135594	-421.823958	-421.815856	-421.814912	-421.857104	29.908	
C	-0.0169464509	 1.5016861767	 0.0163224632	-0.494871
C	-0.0303118076	 0.0138615965	 0.1325027637	 0.070719
C	-1.0268860417	-0.8608900348	 0.294031823	 0.102681
C	-2.4104224195	-1.2428637758	-0.1608907489	-0.151821
O	-1.8434300409	-2.5060996922	-0.6367010487	-0.303439
C	-0.6377700613	-2.2961374173	 0.1799097407	 0.100981
C	 0.7731008069	-2.2632925806	-0.3980372997	-0.375295
C	 1.2159988908	-0.7990857125	-0.1023696723	 0.331334
O	 2.3417565036	-0.3724588571	-0.17317299	-0.314414
H	 0.5761270004	 1.9401199783	 0.8270038265	 0.149617
H	 0.4617432501	 1.8142486151	-0.9177410662	 0.144596
H	-1.0238131568	 1.9236027305	 0.0598481923	 0.123502
H	-3.1540687138	-1.4129765292	 0.628378736	 0.117192
H	-2.8527792781	-0.6458164457	-0.9648034813	 0.129151
H	-0.7120743067	-2.9032914322	 1.0907154473	 0.094433
H	 1.476347707	-2.9955864019	 0.0028072906	 0.12508
H	 0.7342526684	-2.3785657377	-1.4869624161	 0.150554
