19
gdb 109015	3.32065	1.18788	0.98269	2.2105	76.85	-0.2139	0.0214	0.2353	1243.6843	0.159628	-419.205479	-419.196702	-419.195758	-419.238826	33.546	
C	 0.5017552252	 1.4276412623	 0.0635094216	-0.493287
C	 0.1750253897	-0.0399551011	 0.0247381353	 0.347837
C	-1.0804276735	-0.6254851529	 0.6156512395	-0.330319
C	 0.2584318859	-1.0603996953	 1.1821960175	-0.056448
N	 0.867596849	-2.2546462372	 0.6623480735	-0.296427
C	 1.0811482682	-2.0469786046	-0.5909940406	 0.298895
C	 1.7052987062	-3.038303876	-1.5298855591	-0.165593
O	 2.6747808339	-2.4199153909	-2.3733975661	-0.418748
N	 0.6878691036	-0.8156183005	-1.0823169023	-0.359562
H	 1.5827570582	 1.5983930933	 0.0027713512	 0.118341
H	 0.0232318826	 1.9681244511	-0.7621804176	 0.125138
H	 0.1431579315	 1.871791343	 0.9959200559	 0.129374
H	-1.6725049299	 0.0285030831	 1.2472396365	 0.109365
H	-1.6497351633	-1.3374797342	 0.0268137148	 0.113816
H	 0.4964057458	-0.8046017574	 2.2096871817	 0.088003
H	 2.1196665879	-3.8640111259	-0.9407688021	 0.123764
H	 0.94759753	-3.4477663784	-2.2063984601	 0.130002
H	 3.4326007405	-2.1947329891	-1.8235185843	 0.29037
H	 1.2214465186	-0.3907411793	-1.8255458653	 0.245479
