13
gdb 1910	5.83122	2.19878	1.89626	4.0266	55.15	-0.2383	-0.0084	0.2299	667.7782	0.100746	-344.436348	-344.430001	-344.429057	-344.466377	23.88	
O	 0.0671897662	 1.4005470248	 0.1528812975	-0.448329
C	 0.0242240181	 0.0314893824	 0.0581138194	 0.43118
C	-0.2447311716	-0.7546260518	-1.161072958	-0.348838
C	-1.199820615	-0.9650716597	 0.029337006	-0.257909
C	-0.5092390368	-1.757692246	 1.0875623525	 0.437682
O	-0.8434649744	-2.6695684899	 1.7912879939	-0.318589
C	 0.7292255509	-0.8192514861	 1.1144617548	-0.404838
H	-0.1875511296	 1.7871187413	-0.6908851401	 0.293515
H	-0.722468232	-0.2118695202	-1.9742777527	 0.117994
H	 0.4168145998	-1.5499648882	-1.497711279	 0.127001
H	-2.2667830887	-0.820666326	-0.0895652888	 0.111344
H	 1.7107156989	-1.2315567468	 0.8617896514	 0.117671
H	 0.7823587642	-0.3132008036	 2.082751673	 0.142116
