20
gdb 92204	3.01156	1.72652	1.42071	0.8469	77.11	-0.2156	0.0665	0.2822	985.542	0.173374	-403.112441	-403.105268	-403.104324	-403.143851	29.447	
C	 0.0866756908	 1.5649835405	-0.0934676847	-0.409392
C	 0.0456220341	 0.0439348966	-0.0232731779	 0.060916
C	 0.63612091	-0.7028279523	-1.2641610148	-0.266558
C	 1.2958096178	-1.9594649797	-0.677358882	 0.113644
O	 2.7274692396	-1.7964495823	-0.4443327451	-0.309268
C	 2.5377840652	-1.6586926791	 0.976351991	 0.100641
C	 2.1771443083	-0.2109473644	 1.3622351144	-0.201502
N	 0.7131898086	-0.5113640398	 1.1698669249	-0.110728
C	 1.0263352523	-1.9275445396	 0.8503797105	-0.077062
H	 1.1075336942	 1.9381565739	-0.2248122934	 0.119141
H	-0.5042739809	 1.9211317821	-0.9428575352	 0.118497
H	-0.3248993815	 2.0059591763	 0.8191921983	 0.124897
H	-1.0062263794	-0.2607963243	 0.070480593	 0.078607
H	-0.1424446113	-0.9477071189	-1.9932172361	 0.097771
H	 1.3969576486	-0.1076957407	-1.7787150522	 0.112581
H	 1.1043724654	-2.8801399786	-1.236094959	 0.077969
H	 3.2711274517	-2.2212766116	 1.5556217907	 0.080733
H	 2.3838727012	 0.0613290088	 2.4026187887	 0.105384
H	 2.6157536186	 0.5400582812	 0.6985983173	 0.10909
H	 0.4323070368	-2.699534078	 1.3395561515	 0.074637
