23
gdb 113941	3.52297	0.80526	0.7638	0.9209	86.91	-0.234	0.0835	0.3175	1647.9789	0.204244	-388.252882	-388.242974	-388.24203	-388.288738	36.845	
C	 0.1332343934	 1.2870876924	-0.5310722643	-0.372284
C	-0.1495184219	 0.1098696633	 0.4084388354	-0.185605
C	-1.4571496479	-0.5885143547	 0.0930272344	-0.031631
C	-1.51772042	-1.6442598094	-0.9987831232	-0.320382
C	-1.6765636266	-2.0258178694	 0.4528376922	 0.110481
O	-0.6405238967	-2.6802096512	 1.1261125057	-0.251606
C	-0.6907292801	-4.0724178598	 1.0172334969	 0.157019
C	 0.0442824233	-4.7708387756	-0.0968967417	-0.283496
C	 0.5712747306	-4.8072369165	 1.3257544515	-0.294291
H	 1.0794932222	 1.7764724887	-0.2795035013	 0.108869
H	 0.1917134681	 0.9546021794	-1.5729411101	 0.115197
H	-0.6582709573	 2.0425852203	-0.4706456056	 0.110514
H	 0.6664437317	-0.6177525486	 0.3581769086	 0.105072
H	-0.1727716777	 0.4649179881	 1.4467848993	 0.097589
H	-2.3353701907	 0.0471754435	 0.1841427231	 0.081095
H	-2.3809681392	-1.6917231222	-1.6539767247	 0.1067
H	-0.5766923444	-1.9075968812	-1.4694548805	 0.114296
H	-2.6697903428	-2.3228601802	 0.7925695883	 0.082264
H	-1.6342435494	-4.5055424319	 1.3510126919	 0.083
H	-0.3868452398	-5.6710387381	-0.521382689	 0.111209
H	 0.5812154372	-4.1474591627	-0.801804791	 0.117759
H	 1.4407246593	-4.1975879257	 1.5441068887	 0.124637
H	 0.5103309787	-5.7313649684	 1.8891631052	 0.113594
