18
gdb 84939	2.63154	1.62154	1.05845	1.6458	75.76	-0.236	0.0016	0.2376	1121.9628	0.150398	-435.3111	-435.302603	-435.301659	-435.344738	31.098	
C	 0.6367095667	 1.3778330203	-0.0271810288	-0.327062
N	 0.033811493	 0.0381990932	 0.0126431948	-0.156097
C	-0.4222684644	-0.4808433207	-1.2099100725	 0.11857
N	-1.0001199981	-1.5502597399	-1.5653669439	-0.269959
C	-1.3487183062	-2.6430322081	-0.6880309213	-0.136476
C	-0.4733825916	-2.8000928929	 0.5521772415	-0.19533
N	-0.6477901779	-1.7007011049	 1.4854626643	-0.349504
C	-0.2211712596	-0.4131757753	 1.3226016005	 0.465398
O	-0.0614476368	 0.3381022248	 2.2689279936	-0.401923
H	 0.9666474192	 1.5849059232	-1.0455849475	 0.126392
H	-0.074010574	 2.1455893641	 0.2914691257	 0.144181
H	 1.4941470829	 1.41597779	 0.6446864498	 0.151446
H	-0.2094094012	 0.2325331608	-2.0076037553	 0.110203
H	-2.3955083546	-2.535625404	-0.3738799882	 0.11888
H	-1.2959724668	-3.5666903626	-1.2785951178	 0.10787
H	-0.7506408486	-3.7169027992	 1.0798241341	 0.116865
H	 0.5778907888	-2.9046699346	 0.2490461275	 0.120623
H	-0.7423333108	-1.9251481443	 2.4633246935	 0.255924
