16
gdb 98061	3.17101	1.01195	0.89298	3.5091	68.26	-0.2382	-0.0805	0.1577	1345.0178	0.120616	-475.076388	-475.065987	-475.065043	-475.113496	34.213	
C	-0.0108793239	 1.2514825259	-0.3708825668	-0.337163
N	-0.0734261549	-0.0837516498	 0.1879899711	-0.309292
C	-1.1334722133	-0.9000918551	 0.0421339479	 0.324964
O	-2.1684180654	-0.6663473667	-0.5625887914	-0.369808
C	-0.9370888909	-2.261855506	 0.7270325925	 0.234407
O	 0.1072809366	-2.5915469245	 1.235354886	-0.300559
C	-2.1908184028	-3.1612324722	 0.755052699	 0.347219
C	-2.4905525456	-3.9603337357	-0.4842632057	-0.505417
O	-2.8376372227	-3.1793163093	 1.772675973	-0.28054
H	 0.1339958635	 1.9992127276	 0.4155784948	 0.140243
H	 0.8071802461	 1.338684671	-1.0938046294	 0.138129
H	-0.9575488486	 1.4433251774	-0.8777750564	 0.173077
H	 0.7040560573	-0.4636735086	 0.709847125	 0.269589
H	-1.616460691	-4.5536359748	-0.7759801686	 0.149159
H	-3.3472413572	-4.6129853776	-0.3085597086	 0.150654
H	-2.7062911973	-3.2628070215	-1.3009128923	 0.175339
