18
gdb 119668	3.87503	1.10194	0.99944	1.219	72.97	-0.2368	0.0599	0.2967	1240.5018	0.146354	-438.948091	-438.939937	-438.938993	-438.981543	30.254	
C	-0.0371057073	 1.3255767777	 0.005162776	-0.219038
O	-0.0922338941	-0.0814211994	 0.0303179993	-0.234064
C	 0.7407903032	-0.6400534823	 1.0196490452	-0.229805
C	 0.650335411	-2.1270315253	 0.9506699079	 0.509711
O	 1.2490713531	-2.8718857521	-0.1531557405	-0.352942
C	 0.6646519466	-3.9107136252	 0.6811484602	 0.06574
C	 1.0049162961	-3.1974757105	 2.0312758902	-0.134158
N	-0.3961975189	-3.197781205	 2.5631342235	-0.351009
C	-0.5892137912	-3.0661215937	 1.0809422528	-0.111338
H	 0.9789007773	 1.6906924609	-0.2130941457	 0.106496
H	-0.711147311	 1.6630928694	-0.7854324453	 0.130112
H	-0.3613216378	 1.7647507248	 0.9621429606	 0.105029
H	 1.7896486869	-0.3298736255	 0.8773959207	 0.10151
H	 0.4292820046	-0.3251206584	 2.0299997616	 0.112256
H	 0.7643415323	-4.9520283343	 0.3721730643	 0.096056
H	 1.89673167	-3.2745091664	 2.6546306855	 0.091384
H	-0.6565589227	-4.1374282546	 2.8720784099	 0.213695
H	-1.559661258	-2.9817028303	 0.5933310438	 0.100363
