18
gdb 86892	3.21126	1.08654	0.92004	2.9508	72.18	-0.2747	0.0322	0.3069	1259.537	0.147923	-439.103182	-439.094177	-439.093233	-439.137373	33.236	
O	 0.0617175441	 1.4308326396	-0.4196011948	-0.431443
C	-0.1229818318	 0.054594726	-0.1876724962	 0.146657
C	 0.6389476394	-0.5095567092	 1.034225332	-0.269784
C	-0.253173972	-1.6827172169	 1.5644554451	-0.122662
C	-1.501438288	-1.7062662301	 0.6258937231	-0.257716
C	-1.5912259773	-0.2602414484	 0.1223934489	 0.084052
O	-2.0081407312	 0.6208157616	 1.1543530818	-0.426314
C	 0.4363620363	-2.9671326331	 1.6135558042	 0.258391
N	 0.9843336167	-3.9851361566	 1.6390306608	-0.330048
H	 0.9805284724	 1.5731230436	-0.666716523	 0.287618
H	 0.1428344527	-0.5310183737	-1.0823594907	 0.074515
H	 1.6477447404	-0.8418456271	 0.7811068078	 0.117089
H	 0.712920136	 0.2744977835	 1.7900210856	 0.134081
H	-0.580332745	-1.4455942855	 2.5797792419	 0.135522
H	-1.3397709727	-2.3924935123	-0.2112792222	 0.125566
H	-2.4047332952	-2.0299540141	 1.1491646843	 0.109406
H	-2.2257053332	-0.1584317183	-0.7676031097	 0.077214
H	-2.9361431314	 0.4464024211	 1.3383727211	 0.287855
