16
gdb 14574	14.1043	0.63186	0.61259	3.5719	72.45	-0.2551	0.0177	0.2727	1697.8147	0.129195	-342.748777	-342.739721	-342.738777	-342.783319	31.092	
C	-0.0352916783	-1.2098110703	-0.0157038016	-0.436488
C	-0.0329479246	-0.0083780866	 0.0052799556	 0.293616
C	 0.0054432342	 1.4475574691	 0.0312141091	-0.365263
C	 1.4403632269	 1.996424174	-0.0333207571	-0.122053
N	 1.4196847681	 3.4546177904	 0.0147192375	-0.298686
C	 2.7574948293	 4.0343128934	 0.0160622861	-0.262724
C	 2.697290746	 5.4986181806	 0.0143080912	 0.256443
N	 2.6512207012	 6.652266474	-0.0111851752	-0.295
H	-0.0526618572	-2.2713652048	-0.0326588146	 0.199554
H	-0.5738927488	 1.8445356093	-0.8137583193	 0.130617
H	-0.4755628277	 1.8279880452	 0.9395807904	 0.148808
H	 2.0019104241	 1.6333288869	 0.8352933724	 0.123977
H	 1.9468316422	 1.5950358846	-0.9284950376	 0.100551
H	 0.8969903797	 3.8209233136	-0.7754063311	 0.232535
H	 3.2807075756	 3.71151739	 0.9249207031	 0.159871
H	 3.3893225193	 3.7196766606	-0.835087599	 0.134242
