23
gdb 119748	2.74234	0.94477	0.7485	1.9496	90.35	-0.2186	0.0278	0.2465	1610.54	0.204728	-388.310334	-388.299989	-388.299045	-388.346538	36.919	
C	 0.0545264355	 1.5975144996	-0.1861429159	-0.379184
C	 0.0469079945	 0.067124083	-0.1885475355	-0.157987
C	-1.3455056227	-0.5195725441	 0.121580381	-0.305827
C	-1.387456341	-2.0178866025	 0.1226323895	 0.199548
C	-1.579126424	-2.8624695089	 1.1400921321	 0.179471
C	-1.812211044	-2.5824405163	 2.5897629484	-0.501623
C	-1.5478419042	-4.2782067536	 0.6237209319	-0.139716
O	-1.3032208941	-4.1824785889	-0.773055182	-0.264164
C	-1.2167786759	-2.8139313298	-1.1487714838	-0.149372
H	 1.0518607473	 1.9910849588	-0.405277351	 0.113538
H	-0.6345823467	 1.9983438863	-0.9379047507	 0.114944
H	-0.2535776134	 1.9940493206	 0.7878508961	 0.114092
H	 0.3909962129	-0.2991054637	-1.1632316191	 0.102275
H	 0.764008624	-0.3114900464	 0.5498546797	 0.10125
H	-1.6853039888	-0.1339660462	 1.0896076003	 0.100072
H	-2.0576939989	-0.1379823147	-0.6251582931	 0.101365
H	-2.7631353677	-3.0144518016	 2.927265284	 0.127971
H	-1.0279648966	-3.0341873918	 3.2108121245	 0.128621
H	-1.8342482466	-1.5118834172	 2.8068339607	 0.126945
H	-0.7567078288	-4.8801632935	 1.1016775081	 0.09661
H	-2.5005329022	-4.8043636255	 0.8076455213	 0.095253
H	-1.9998526085	-2.5735414338	-1.8887523769	 0.09546
H	-0.2487478201	-2.6290652898	-1.6415173095	 0.100458
