18
gdb 46915	3.36447	1.37169	1.06221	4.2965	72.45	-0.248	0.01	0.258	1114.2943	0.149482	-439.085678	-439.07808	-439.077136	-439.118102	29.445	
O	 0.0420851554	 0.2317023059	-0.7761184941	-0.310161
C	 0.022070911	 1.2407589429	-0.1250537319	 0.382775
C	-1.3230413255	 1.9003685411	 0.2090047424	-0.307038
C	-1.450126609	 2.9786756337	 1.2848331479	-0.192117
N	-0.7774929673	 4.20032965	 0.8499156948	-0.071203
C	-0.0021944537	 4.9444416374	 1.8329690796	-0.260566
C	 0.6844901004	 4.125717016	 0.7914654244	-0.016696
C	 1.3680868256	 2.8439036714	 1.1865974639	-0.097772
O	 1.2159404717	 1.7916263017	 0.2212693567	-0.226886
H	-1.6672160852	 2.3270711405	-0.741307724	 0.155498
H	-1.9970790854	 1.0678963105	 0.4270112367	 0.140847
H	-2.5125317037	 3.2130116491	 1.4131753097	 0.116472
H	-1.098564494	 2.6069420772	 2.2598121429	 0.094046
H	-0.0346111032	 6.0262893351	 1.7440190214	 0.126484
H	 0.0201391147	 4.5731300303	 2.8571101317	 0.113704
H	 1.118906861	 4.6237302208	-0.0730295471	 0.106734
H	 2.4488483274	 2.9976793479	 1.2393811384	 0.13091
H	 1.0410743001	 2.4935330285	 2.1698657166	 0.114969
