19
gdb 68259	2.34042	1.51316	1.44666	2.9902	80.42	-0.2649	0.0276	0.2925	1048.6728	0.15984	-382.036825	-382.028201	-382.027257	-382.069516	33.547	
C	-0.0317170991	 1.4888480584	 0.020895086	-0.52378
C	 0.0389356605	-0.0133674991	 0.0116128761	 0.315802
C	 0.6790852576	-0.9423367975	-1.067280362	-0.286034
C	 0.0779683966	-1.9035156947	-0.0047184402	-0.077414
C	 0.6766015998	-0.9620771349	 1.0772870449	-0.276997
C	-1.1984011864	-0.9983905137	 0.0044504077	 0.169234
N	-2.0300440732	-1.0253663578	 1.1984306073	-0.56948
C	-2.0169396987	-0.9978143015	-1.2184119251	 0.206633
N	-2.7290129389	-0.9860578318	-2.1310274293	-0.354734
H	 0.9739891157	 1.922030325	 0.0179547758	 0.128253
H	-0.5631756186	 1.8635637765	-0.8604126623	 0.134838
H	-0.5490905217	 1.8536958703	 0.914830443	 0.125528
H	 0.2298144509	-0.9427028348	-2.062553487	 0.12442
H	 1.7692957693	-0.9200980614	-1.120494948	 0.098961
H	 0.0754961486	-2.9935897406	-0.0202816726	 0.084335
H	 1.767471861	-0.9392397913	 1.1267516951	 0.093537
H	 0.2130254808	-0.9797605123	 2.0608719538	 0.121732
H	-2.6805174857	-0.2446212355	 1.1863959113	 0.242516
H	-2.5985164584	-1.8677785132	 1.2075135055	 0.242651
