15
gdb 130061	3.96558	0.99016	0.90695	4.7367	73.62	-0.2137	0.0045	0.2182	1275.0307	0.114581	-413.012886	-413.004702	-413.003757	-413.046697	29.742	
N	 0.0062852739	 1.3899707084	-0.0493719769	-0.58572
C	 0.0376175128	 0.0011690256	-0.0140300677	 0.394157
N	-1.0573848175	-0.713352775	-0.2543373471	-0.34311
N	-0.6645248775	-2.006848151	-0.0773042113	 0.053712
C	-1.6551115747	-3.050712006	-0.1382392643	-0.288043
C	-2.3094212036	-3.3191876818	 1.1546954951	 0.277294
N	-2.8159765157	-3.5491341439	 2.1665704833	-0.295281
C	 0.6408954253	-2.1046639168	 0.2762473966	-0.007092
C	 1.1428380117	-0.825924625	 0.3224125578	-0.300516
H	 0.8480520469	 1.8101969468	-0.4169339441	 0.249144
H	-0.8152737713	 1.7434300283	-0.5215166366	 0.254251
H	-2.4136614952	-2.7513180535	-0.8662376777	 0.181238
H	-1.1890015215	-3.9749458019	-0.4937814378	 0.165909
H	 1.1037552075	-3.0609064297	 0.4654727244	 0.137945
H	 2.150533949	-0.5261403446	 0.5593231862	 0.106113
