19
gdb 89699	3.64878	1.19571	1.09601	1.2048	82.13	-0.2504	0.0476	0.2979	1154.4604	0.159751	-385.847341	-385.839274	-385.83833	-385.87951	32.666	
O	-0.0654464952	 1.3997504042	-0.0262540995	-0.443425
C	-0.0278223656	-0.016935502	 0.0133580173	 0.133576
C	 0.4923901906	-0.6096779847	 1.3660256172	-0.301037
C	-0.7970228953	-1.3338955977	 1.8337190536	 0.265198
C	-1.2378573589	-2.0285895017	 0.4991579151	-0.268576
C	-1.4620585246	-0.5634177109	 0.0378831562	-0.051601
C	-1.8932147051	-0.2653940595	 1.5001443574	-0.256972
C	-0.7585205182	-2.0328165751	 3.0926163585	 0.050195
C	-0.7272381184	-2.6179313871	 4.1435398375	-0.349431
H	 0.8384764371	 1.7257059391	 0.0219322223	 0.282388
H	 0.5352317905	-0.4087846682	-0.8455796293	 0.063234
H	 1.3278523039	-1.3043438306	 1.244748418	 0.102671
H	 0.7911296243	 0.1846862213	 2.0554099527	 0.105174
H	-0.4921625711	-2.6369296117	-0.0217563242	 0.094457
H	-2.1703829762	-2.5843174384	 0.6110379558	 0.109828
H	-2.0923510153	-0.3127901409	-0.8138645106	 0.070653
H	-2.8965261223	-0.6292783352	 1.7277862374	 0.104295
H	-1.7483006422	 0.7470724553	 1.8800340665	 0.11219
H	-0.7015387579	-3.1330170464	 5.0715010582	 0.177182
