16
gdb 13901	3.12635	1.66831	1.55618	3.4859	62.79	-0.2397	-0.034	0.2057	905.6775	0.128204	-420.87741	-420.869137	-420.868192	-420.910118	30.519	
C	 0.0454955125	 1.4084696652	 0.0440479932	-0.48111
C	 0.0103329279	-0.0997049095	-0.0311956459	 0.441672
O	 1.0596387382	-0.750613014	-0.1078955432	-0.410147
C	-1.2874820531	-0.7655580385	-0.0111661688	-0.292464
C	-1.3882478453	-2.1112001128	-0.8166794675	 0.090889
O	-0.3593434525	-2.5162203676	-1.6361549565	-0.416447
C	-1.3269329139	-2.1862617205	 0.6595295715	 0.090895
O	-0.235484826	-2.6678308254	 1.3458594645	-0.416441
H	 1.0777048281	 1.7589510736	 0.0192021738	 0.147244
H	-0.5131904189	 1.8414643567	-0.7931409125	 0.148767
H	-0.4405986831	 1.7521472598	 0.9638798989	 0.148757
H	-2.1704544748	-0.1407297907	 0.0572772037	 0.098603
H	-2.3516146552	-2.2657253226	-1.2929801296	 0.122356
H	 0.4695270757	-2.1661436484	-1.2687331706	 0.302535
H	-2.2482401219	-2.3922620896	 1.1957862976	 0.122358
H	 0.5616254622	-2.2789591956	 0.9484051213	 0.302534
