14
gdb 12951	2.75301	2.25195	1.69204	1.3638	59.07	-0.2471	0.01	0.2572	800.8458	0.107159	-415.810238	-415.802984	-415.80204	-415.841408	27.726	
N	-0.1075828709	 1.5104393355	-0.1307265691	-0.598672
C	-0.0223806183	 0.1049372312	-0.030497302	 0.123757
C	-0.3564853834	-0.8051932296	-1.2330802992	 0.098101
O	 0.4815889421	-1.7671410708	-1.7678069894	-0.422391
C	-1.111277976	-0.9903802739	 0.024816184	-0.023072
O	-0.2818217336	-1.7844916508	 0.9199739273	-0.29771
C	 0.6524846554	-0.7362845297	 1.0062478079	 0.381457
N	 1.6285298217	-0.5867904719	 1.7745141195	-0.554089
H	-0.118929276	 1.9450986937	 0.7865421007	 0.246071
H	 0.6841395763	 1.8888344691	-0.6406342754	 0.249499
H	-0.8700196764	-0.2413614422	-2.0068334716	 0.132508
H	 0.6249782661	-2.4325326457	-1.0821678642	 0.301122
H	-2.173611441	-0.9636169865	 0.2267461918	 0.129162
H	 1.7451806842	-1.3844693983	 2.4010564597	 0.234257
