12
gdb 80790	2.05934	1.88026	1.18244	3.9439	61.74	-0.2821	-0.061	0.2211	989.3898	0.075837	-472.556791	-472.549336	-472.548392	-472.588932	27.447	
O	 0.1389258207	 1.3699279797	-0.1365442182	-0.427676
C	 0.1137421227	-0.0033040342	-0.0783110527	 0.170759
C	-0.0218584488	-0.6671567908	 1.3324364527	-0.144863
O	-1.4367404715	-0.1833995107	 1.3573138406	-0.337814
C	-1.3044198586	-0.7010238478	-0.038564516	 0.113834
C	-2.4099888445	-0.5915264879	-0.9376944393	 0.17429
N	-3.2784363916	-0.5239542008	-1.6981000071	-0.326492
C	-0.5955932651	-1.9214857624	 0.6470698455	 0.471954
O	-0.6099593397	-3.1003761133	 0.6845732944	-0.273948
H	-0.5264967432	 1.6956989298	 0.4871884196	 0.304982
H	 0.8509598238	-0.4094771037	-0.7729783358	 0.13423
H	 0.5704728359	-0.532628488	 2.2327141263	 0.140744
