22
gdb 104764	2.111	1.23401	0.99833	3.8323	83.89	-0.2463	0.0083	0.2546	1337.475	0.192314	-404.354114	-404.343802	-404.342858	-404.389462	37.451	
C	 0.1180540975	 1.3009519474	-0.5132268344	-0.386651
C	-0.1274157277	-0.1311862961	-0.024124319	-0.23076
C	 0.9004271849	-0.6215689103	 0.9883555615	 0.291827
C	 0.933862052	 0.1606549297	 2.3023877318	-0.245501
C	 1.6641912117	-0.4822428557	 3.486257809	-0.416792
C	 1.2798703385	-2.0840352782	 0.9523336905	-0.291829
N	 2.1481814405	-1.0816083053	 0.3844330349	-0.07564
C	 3.4535223971	-0.838088872	 0.7475669088	 0.138818
O	 4.2696371609	-1.6852213375	 1.0269094859	-0.304018
H	 1.1222669405	 1.3952974705	-0.9394610771	 0.126258
H	-0.6021167705	 1.5716005703	-1.2907436339	 0.1191
H	 0.0212676959	 2.0340771587	 0.293325797	 0.119031
H	-1.1253491039	-0.209263097	 0.4258115231	 0.100343
H	-0.1123860675	-0.8105464519	-0.8827479117	 0.105852
H	 1.3646320236	 1.1495098958	 2.102902512	 0.114202
H	-0.1082698292	 0.3493885683	 2.5890204093	 0.108706
H	 1.677960555	 0.2109534363	 4.3325524561	 0.119512
H	 1.1631111784	-1.3959077698	 3.818755186	 0.124794
H	 2.7027715329	-0.7343354524	 3.2538736798	 0.149176
H	 1.6229949821	-2.5658100506	 1.8625295944	 0.135159
H	 0.7825300371	-2.7426783608	 0.2443223903	 0.119543
H	 3.7020907902	 0.2392433806	 0.6787043756	 0.07887
