25
gdb 104446	2.81758	1.14703	1.04101	1.2862	88.22	-0.241	0.0769	0.3178	1331.4563	0.230065	-389.510856	-389.501255	-389.50031	-389.544668	37.777	
C	 0.1565632448	 1.5532537098	 0.0552163834	-0.404553
C	-0.0409128337	 0.0321180768	 0.0163316461	-0.199855
C	-1.4964591341	-0.4876933135	-0.0440778375	 0.262277
C	-2.2196922862	 0.0342633535	-1.298442292	-0.42112
C	-1.4527806273	-2.0374479761	-0.0487030096	-0.219372
C	-2.8312488977	-2.6750157713	 0.1797351593	-0.222823
C	-3.4960388129	-2.0537856657	 1.4079860012	-0.062808
O	-3.5583851103	-0.6414239826	 1.3055556174	-0.249572
C	-2.2711431721	-0.0542707362	 1.220158701	-0.090091
H	 1.2235389255	 1.7927166818	 0.1043908366	 0.11331
H	-0.2456892668	 2.0445342039	-0.8355072759	 0.120212
H	-0.3177591475	 2.0088123891	 0.9302773294	 0.119382
H	 0.4976107352	-0.3732581306	-0.8508918334	 0.091219
H	 0.4433209637	-0.4064392909	 0.8991771016	 0.090147
H	-1.7217941557	-0.3121613248	-2.2110909563	 0.103815
H	-3.2578601209	-0.3039936167	-1.3241980584	 0.125499
H	-2.2387518895	 1.1279796714	-1.3219996233	 0.111658
H	-1.0135958751	-2.3942091157	-0.9882341934	 0.089642
H	-0.7775984253	-2.3669354518	 0.7534857725	 0.087428
H	-3.4762986504	-2.5237998782	-0.6927950192	 0.105713
H	-2.7327358436	-3.75799415	 0.3193825002	 0.091765
H	-4.5277067886	-2.3985344737	 1.5252435189	 0.101695
H	-2.9387442837	-2.3382298895	 2.3187451348	 0.080036
H	-1.6813201878	-0.3133143055	 2.118144336	 0.075427
H	-2.4385990399	 1.0265412064	 1.2287669309	 0.100969
