16
gdb 132352	1.94894	1.72919	0.92206	1.4465	76.81	-0.2158	-0.0068	0.209	1199.0168	0.124623	-442.112038	-442.103858	-442.102914	-442.145048	31.06	
C	-0.0249838154	 1.4831890275	 0.0471275912	-0.465158
C	 0.0040667916	-0.0214953517	-0.0169514734	 0.347238
C	 0.1579207131	-0.6879286765	-1.2301147619	-0.347764
C	 0.1734441908	-2.0778372271	-1.1914663681	 0.357987
F	 0.3220741997	-2.7587512076	-2.3283954218	-0.076365
C	 0.0379553534	-2.7687175602	-0.0069061499	-0.358862
C	-0.1121971135	-1.9973238964	 1.1595011951	 0.396934
N	-0.3059695788	-2.6010300594	 2.3853316683	-0.565556
N	-0.1232545666	-0.6605695455	 1.1543371209	-0.393278
H	 0.1212454562	 1.9346973881	-0.936709462	 0.118152
H	-0.9829438728	 1.8261827612	 0.4515541433	 0.139582
H	 0.7545088856	 1.848429178	 0.7230934662	 0.137684
H	 0.2664558905	-0.1615303336	-2.1690592174	 0.102901
H	 0.0410918031	-3.8513858342	 0.0093588969	 0.099777
H	 0.0628086347	-3.5307830353	 2.5051886074	 0.251405
H	-0.1584080116	-1.9836406472	 3.1695068253	 0.255324
