17
gdb 111725	2.17401	1.45546	1.07493	4.1634	74.17	-0.2427	-0.0012	0.2415	1152.8536	0.136858	-417.961103	-417.95259	-417.951646	-417.995275	31.308	
O	 0.0477675369	 1.2557401508	 0.467286712	-0.415642
C	 0.022848868	-0.0049043206	-0.177505982	-0.08884
C	-1.3565694853	-0.6307278796	-0.1332056441	-0.080201
C	-1.6544449686	-2.1088086637	-0.1513978668	-0.166937
C	-0.6490522667	-2.9119068366	 0.6827256457	-0.18468
N	-0.7891142005	-1.9561849985	 1.8353972958	-0.374103
C	-1.9006118198	-1.279575894	 1.1201442007	 0.224394
C	-3.1118569725	-0.9035756587	 1.7675420648	 0.187208
N	-4.0883954261	-0.6093019414	 2.3162978617	-0.344832
H	-0.0753938826	 1.0956611483	 1.4092000956	 0.292783
H	 0.2966150588	 0.1812311694	-1.2213825273	 0.116214
H	 0.7696543742	-0.6851593014	 0.2475689736	 0.109903
H	-2.1168780905	-0.0532838567	-0.653585064	 0.120973
H	-2.3785959982	-2.5377351277	-0.8313175321	 0.121613
H	-1.0343323642	-3.9086029711	 0.9150227686	 0.12208
H	 0.3731129026	-3.0016423163	 0.3025388916	 0.119169
H	-1.1277905755	-2.4337803423	 2.6639018462	 0.240898
