17
gdb 40554	3.83164	1.20522	1.03207	3.4179	75.09	-0.2397	-0.0075	0.2322	1161.5645	0.13618	-421.786737	-421.779301	-421.778356	-421.819132	28.486	
C	 0.1887429709	 1.462079982	-0.0339365852	-0.190472
O	 1.1939864879	 0.4693165062	-0.1937902736	-0.226868
C	-0.1601127301	 0.0283600977	-0.0000319221	-0.038073
C	-0.4610090712	-0.6883286597	 1.2506097867	 0.368089
C	-1.3505006178	-1.6779099232	 1.4079823969	-0.20303
C	-1.4379544083	-2.1615935446	 2.8399278925	-0.287627
C	-0.3546859994	-1.3489643135	 3.5398954539	 0.038875
O	 0.9612753536	-1.5789864318	 3.0362431847	-0.250526
C	 0.2370923873	-0.4286322466	 2.553029251	-0.076206
H	 0.2306832727	 2.0323005323	 0.8932379057	 0.114362
H	-0.0490186452	 2.0441859207	-0.9237400389	 0.119619
H	-0.62494175	-0.3876643644	-0.8941560056	 0.093394
H	-1.9324394319	-2.1203470504	 0.6065074533	 0.099798
H	-2.4260036008	-1.9657514885	 3.276863569	 0.114153
H	-1.2582754728	-3.2398026652	 2.928752424	 0.129064
H	-0.419095795	-1.1278880221	 4.601833288	 0.096412
H	 0.6822887402	 0.530162851	 2.7979830998	 0.099037
