19
gdb 117461	4.70626	0.72242	0.66493	4.0316	74.67	-0.2478	0.0106	0.2584	1705.1042	0.158455	-456.378892	-456.368701	-456.367756	-456.415783	35.012	
C	 0.3330424752	 0.8078837908	 0.4748411989	-0.390321
C	-0.0605627981	-0.4707374385	-0.2404755047	-0.031438
O	-1.4085407017	-0.7869298485	 0.1461069569	-0.244371
C	-1.9416112763	-1.8996787871	-0.3975646372	 0.389714
N	-1.2979050821	-2.6444847696	-1.1945846684	-0.526838
C	-3.37151345	-2.1029775304	 0.0957766616	-0.266805
N	-3.5237415482	-3.2837480734	 0.9347884918	-0.260013
C	-3.6954010289	-4.5230115526	 0.4089945869	 0.159547
O	-3.7448175375	-4.7689401958	-0.7800179899	-0.324652
H	 1.3569970326	 1.0838329566	 0.2060217709	 0.122264
H	-0.3298874875	 1.6322520705	 0.1966235848	 0.126586
H	 0.2852117148	 0.6801757823	 1.5602323887	 0.123672
H	-0.0192203248	-0.3651790435	-1.3295057185	 0.122317
H	 0.5908622282	-1.3102421977	 0.0240167563	 0.120517
H	-1.8819620036	-3.4261666665	-1.4912050976	 0.248103
H	-3.6976361784	-1.2260222891	 0.6571942375	 0.128714
H	-4.0230307535	-2.2340459901	-0.7719766419	 0.156397
H	-3.4029202929	-3.1934521414	 1.9306156723	 0.257707
H	-3.8034363572	-5.2982534559	 1.1914968317	 0.088899
