16
gdb 131864	5.68476	0.76635	0.69085	6.0582	68.41	-0.2316	-0.0285	0.203	1544.3272	0.124605	-471.148074	-471.139574	-471.13863	-471.1825	30.048	
O	 0.0184313248	 1.367491512	-0.3481513497	-0.419068
C	-0.0239260073	 0.011405017	 0.0749169144	-0.089564
C	-1.4905209813	-0.3841751875	 0.1467274924	-0.137996
N	-2.0917096854	-0.2149490551	-1.1675231699	-0.388903
C	-3.4041177599	-0.5436508943	-1.3811306936	 0.407949
N	-4.1312730257	-0.0112449933	-2.3371714365	-0.19964
O	-5.3525266674	-0.6506251159	-2.2663351144	-0.152011
N	-5.3803146603	-1.5605921261	-1.2610707528	-0.062966
C	-4.2043887194	-1.517378265	-0.7021087598	-0.097413
H	 0.9260506112	 1.5954159801	-0.5678287297	 0.29819
H	 0.495386052	-0.6446925612	-0.6382440794	 0.107031
H	 0.4360660069	-0.1187322781	 1.0653245192	 0.100689
H	-1.5569706597	-1.4339257821	 0.4527719838	 0.116109
H	-1.9906049872	 0.2240545702	 0.9166986728	 0.116559
H	-1.8042849839	 0.6448014049	-1.6168403444	 0.262343
H	-3.9641102375	-2.1531149557	 0.1348157574	 0.138693
