19
gdb 94665	3.75529	0.74339	0.66694	4.9057	73.53	-0.2438	-0.0142	0.2296	1653.0164	0.156763	-460.145215	-460.135403	-460.134459	-460.181669	33.825	
O	 0.1464924953	 1.3851426588	-0.2080778168	-0.421265
C	 0.1104184072	 0.016007218	 0.1110181874	 0.04179
C	-0.2066010918	-0.3762866866	 1.5723633772	-0.098759
O	-1.3986837878	-1.0792956335	 1.1641347231	-0.291642
C	-1.2446057832	-0.6579699862	-0.2151189913	 0.118108
C	-2.3783059107	 0.2464741211	-0.6757654998	-0.208201
C	-3.7340229154	-0.473658102	-0.5756841453	-0.277785
C	-4.8890313064	 0.4607042961	-0.8409813241	 0.157817
O	-5.7521811103	 0.2840306202	-1.6617830209	-0.240663
H	 1.031255629	 1.719690453	-0.0341204278	 0.292541
H	 0.9710479782	-0.5165590808	-0.310714862	 0.0827
H	 0.5075648025	-1.038381582	 2.0759068304	 0.102187
H	-0.4284316129	 0.4852386545	 2.2150618467	 0.104295
H	-1.1676420853	-1.5336474448	-0.8732754064	 0.079918
H	-2.385594364	 1.154440335	-0.0638990511	 0.117165
H	-2.1852938949	 0.5615606179	-1.7077613716	 0.116677
H	-3.8002980344	-1.3205817604	-1.265238687	 0.116205
H	-3.83810699	-0.8542050986	 0.4501518715	 0.140369
H	-4.8915602851	 1.3729332901	-0.1973003421	 0.068542
