19
gdb 81990	2.46601	1.44192	1.28135	1.1398	81.48	-0.2485	0.0335	0.282	1102.1341	0.156967	-385.825235	-385.816105	-385.815161	-385.858449	35.39	
C	-0.1492288226	 1.5530861979	-0.0060473015	-0.410098
C	 0.0365211121	 0.0443921161	-0.0684773602	-0.056504
C	 0.7392195869	-0.5880818221	-1.2763467712	-0.044033
C	 2.1829120471	-0.182204433	-1.3459251479	-0.302156
C	 1.7786720705	-1.2511415431	-0.3703423538	-0.066394
C	 1.1476998307	-0.6147309614	 0.8728375441	 0.195618
O	 2.0383913604	 0.2780519634	 1.5246935317	-0.464113
C	 0.5871202832	-1.5750351462	 1.8159783981	 0.258405
C	 0.1151452073	-2.3365247497	 2.6187661813	-0.442102
H	 0.7966448029	 2.0857594932	-0.1288960367	 0.127816
H	-0.8341569669	 1.8862062602	-0.7933374634	 0.115421
H	-0.5787071787	 1.8556994087	 0.9556923376	 0.109401
H	-0.9159173607	-0.4582393198	 0.1188628282	 0.083743
H	 0.2264994802	-1.0226764216	-2.1254294148	 0.084482
H	 2.7235815525	-0.548934815	-2.2125069856	 0.110873
H	 2.5190832814	 0.7840958931	-0.9863276333	 0.127339
H	 2.1815558614	-2.2551242276	-0.3971913861	 0.093588
H	 1.6358168628	 0.5407507045	 2.3596242079	 0.282799
H	-0.2945643106	-3.0176737276	 3.3231415259	 0.195914
