18
gdb 6576	3.83864	1.6634	1.46394	3.0926	67.91	-0.2422	0.0717	0.3139	933.163	0.150967	-384.909452	-384.901086	-384.900142	-384.941485	32.093	
C	 0.0731659044	 1.5438922441	 0.0039764647	-0.501801
C	-0.085396391	 0.0623859384	 0.1080615919	 0.430346
C	-1.3673406222	-0.7805635137	-0.0116895023	-0.36986
C	-0.7138481714	-1.811667481	 0.9964249029	 0.405586
C	-1.3939542149	-1.8233398049	 2.3624984028	-0.45383
O	-0.4712098062	-3.1171720982	 0.5244511425	-0.472443
C	 0.5524346141	-0.9433418492	 0.9810750861	-0.072101
O	 0.9716573981	-0.7780275671	-0.3756882608	-0.283417
H	 1.0882151982	 1.8392892107	 0.2824361823	 0.134501
H	-0.1108982723	 1.8826776165	-1.0219488953	 0.131615
H	-0.6370091052	 2.0595061435	 0.6587220218	 0.121851
H	-2.2684117877	-0.3034027638	 0.3830864414	 0.097031
H	-1.5508624142	-1.1696424326	-1.0153341488	 0.106986
H	-2.3934181678	-2.2695144722	 2.291548285	 0.110858
H	-0.8049080612	-2.4127066286	 3.0722752242	 0.126769
H	-1.5113298148	-0.8115525521	 2.7629903476	 0.119553
H	-1.3023585343	-3.6034596144	 0.5469973964	 0.276307
H	 1.3101090884	-0.8517731856	 1.7531634377	 0.092047
