18
gdb 39081	3.52684	1.76647	1.52395	1.649	73.91	-0.2459	0.0088	0.2546	903.8106	0.151874	-401.935244	-401.929106	-401.928161	-401.965338	26.403	
C	-0.0782660031	 1.5790758426	 0.1484242811	-0.267305
C	 1.4503825066	 1.4230719326	-0.0241044348	-0.087429
C	 1.7955753317	 0.6090234041	 1.2647024384	-0.214559
C	 0.6102661463	-0.4429613284	 1.2880587472	-0.316609
C	-0.035967973	 0.010366653	-0.0117351712	 0.385174
N	-1.0839096735	-0.5983846787	-0.8133259219	-0.354926
C	-0.7226065914	-0.3116605596	-2.0009856397	 0.077774
O	 0.4703127655	 0.3367584449	-2.2209815534	-0.262179
C	 1.1670636817	 0.2287030692	-0.9582565426	 0.11365
H	-0.4470924107	 1.9827570847	 1.094021686	 0.094948
H	-0.56790474	 2.0656039698	-0.6939739513	 0.115793
H	 2.1142260723	 2.2507081435	-0.2724999036	 0.071018
H	 2.7723843218	 0.1210646679	 1.2005066537	 0.105183
H	 1.800319304	 1.2552408226	 2.1459002063	 0.107992
H	 0.9677189317	-1.4749712553	 1.2461238783	 0.106827
H	-0.0354444036	-0.3348743825	 2.1625282083	 0.109172
H	-1.2840360956	-0.5208680352	-2.9047808698	 0.138625
H	 1.9478704291	-0.5319101251	-1.0679200809	 0.076849
