21
gdb 57958	3.62439	0.88061	0.80336	1.7623	80.16	-0.263	0.0166	0.2796	1538.3695	0.180038	-424.254142	-424.243878	-424.242934	-424.291094	36.559	
C	-0.009186895	 1.4702018586	 0.1482692749	-0.391134
C	 0.0195732912	-0.0702553745	 0.0823654544	-0.086462
C	 0.556718276	-0.5784290227	-1.2571296969	-0.38315
C	 0.854456164	-0.6056475985	 1.2354217449	 0.448829
O	 1.9701974034	-1.0515397214	 1.150982802	-0.359388
O	 0.1698544981	-0.5063231524	 2.4025526366	-0.255887
C	 0.8538000313	-0.9248625333	 3.5701857006	 0.15116
C	 1.3055454152	 0.1324550498	 4.5317161177	-0.280559
C	 0.1040425089	-0.7393899596	 4.8469839134	-0.298923
H	 0.9975988836	 1.8821919295	 0.0218219194	 0.127876
H	-0.6396447133	 1.8698350099	-0.651569292	 0.119557
H	-0.4063564975	 1.8173704654	 1.1053428393	 0.126848
H	-1.0037851859	-0.4311268951	 0.2372855117	 0.099428
H	 1.5911990137	-0.2571577957	-1.4042342051	 0.133764
H	 0.5418683324	-1.6706806226	-1.3039352949	 0.121909
H	-0.0501526765	-0.1900174662	-2.0805228702	 0.10829
H	 1.4715082017	-1.7993314238	 3.4108469521	 0.123204
H	 2.2325468943	-0.0273069589	 5.0705487224	 0.123176
H	 1.1081652034	 1.1625065356	 4.2576227942	 0.123487
H	-0.8737302582	-0.276553115	 4.7772902864	 0.126766
H	 0.1915993393	-1.504643529	 5.6097640792	 0.121208
