23
gdb 110211	2.2358	1.308	1.12578	1.4798	87.02	-0.2339	0.0747	0.3086	1258.9723	0.204223	-388.266144	-388.255957	-388.255012	-388.300797	38.185	
C	-0.3814633878	 1.5983216578	-0.1471301259	-0.491822
C	-0.1254864972	 0.1216351609	-0.0329653176	 0.31208
C	 0.2524782709	-0.7704440796	-1.2237965107	-0.281837
C	 1.1762961448	-1.6115283724	-0.2857818244	-0.278753
C	 0.7879155131	-0.7056302166	 0.8929019506	 0.27727
C	 1.7522210207	-0.3141223166	 1.9792462872	-0.50044
C	-0.7192841652	-0.7687593679	 1.0388447202	-0.074783
C	-1.3971847998	-0.1418739375	 2.2283684029	-0.132806
O	-2.7093861496	 0.2428528776	 1.8278063808	-0.42128
H	 0.4212161527	 2.0929958409	-0.7067657373	 0.106622
H	-1.3236413253	 1.7884674854	-0.6743786829	 0.127266
H	-0.4537083681	 2.0871185044	 0.8283615917	 0.114868
H	-0.5763931354	-1.2978956673	-1.7087038614	 0.092568
H	 0.8195510925	-0.23676942	-1.9916069727	 0.095044
H	 0.9359409325	-2.6747502742	-0.1741052639	 0.089569
H	 2.2322835748	-1.5225279102	-0.556034683	 0.09526
H	 2.6989079194	 0.0351334953	 1.5505622501	 0.114695
H	 1.3670787949	 0.4866397042	 2.6168655488	 0.116683
H	 1.9845246138	-1.168104611	 2.6285089565	 0.117786
H	-1.2242675368	-1.6804981407	 0.7146725625	 0.070925
H	-1.4374086533	-0.8696051765	 3.054754083	 0.086684
H	-0.8312125804	 0.7270127168	 2.5938935979	 0.081281
H	-3.1761212512	 0.5619465371	 2.6062013577	 0.283119
