20
gdb 115191	4.05901	0.98086	0.86879	5.7038	86.34	-0.2057	-0.0235	0.1822	1378.1812	0.172279	-403.189998	-403.181212	-403.180267	-403.223843	32.963	
C	 0.0845152216	 1.653055957	-0.3413333855	-0.378601
C	 0.0434859557	 0.1687525175	 0.0443691956	-0.16507
N	 0.5904733589	-0.73473949	-0.9588496947	-0.037269
C	-0.1429274404	-0.9116869493	-2.2110586405	-0.177705
C	 0.2986238826	-2.1881428739	-2.9256877057	-0.325548
C	 1.8243778652	-2.2699930566	-3.0835229843	 0.369379
O	 2.3318082696	-2.8653112926	-4.0188585978	-0.360834
C	 2.5631950772	-1.6683825751	-1.9878796768	-0.271496
C	 1.9218600033	-1.0085791161	-0.9854253856	 0.049681
H	 1.1125378662	 1.9820418974	-0.5226369727	 0.129539
H	-0.4998364648	 1.8500454383	-1.2449348853	 0.129509
H	-0.3328978598	 2.2630499722	 0.4658520875	 0.123934
H	 0.6016946057	 0.0095033431	 0.9726702146	 0.119011
H	-0.9909749591	-0.1346314863	 0.2447093322	 0.113915
H	-1.213956366	-0.9370038773	-1.9861831714	 0.111541
H	 0.0363247466	-0.045892096	-2.8695944058	 0.112243
H	-0.0152996438	-3.0670139366	-2.3463615402	 0.124408
H	-0.1675411855	-2.2603770789	-3.9107667739	 0.123647
H	 3.6327403423	-1.8260008309	-1.9359894487	 0.09467
H	 2.4719122843	-0.6572425461	-0.1157928609	 0.115047
