20
gdb 64351	2.49544	1.42437	1.14337	3.8316	75.19	-0.2121	-0.0111	0.201	1147.5858	0.171026	-440.309306	-440.300385	-440.299441	-440.342488	34.719	
C	-0.0208942398	 1.5566645002	 0.0247063447	-0.435868
C	-0.0108350581	 0.028574353	-0.0234560518	 0.322874
O	-1.352378591	-0.4799544264	-0.041495916	-0.457332
C	 0.738795631	-0.5054248166	-1.2658284753	-0.195857
N	 0.7399863622	-1.9618289139	-1.3532226551	-0.281966
C	 1.3696808522	-2.5797924496	-0.1810253595	-0.263982
C	 0.812117036	-2.0846406145	 1.1546220925	 0.381273
O	 0.5707499094	-2.8268348038	 2.0764695738	-0.305455
C	 0.6182338467	-0.5741949062	 1.2455290328	-0.304038
H	 0.9952677955	 1.9622501435	 0.0579917991	 0.120246
H	-0.5123080572	 1.9685831342	-0.8653541473	 0.107408
H	-0.5637542923	 1.9075028746	 0.9071797877	 0.130077
H	-1.8279734199	-0.0383125975	-0.7540873351	 0.278382
H	 0.270523091	-0.1003488935	-2.1721031654	 0.091488
H	 1.7780312036	-0.1501316793	-1.2565963122	 0.10161
H	-0.2300403707	-2.2649223222	-1.3856117447	 0.225416
H	 1.265100898	-3.6664163791	-0.2243224697	 0.126109
H	 2.4457295594	-2.3489851534	-0.2063988285	 0.117783
H	 1.6117697343	-0.1277964782	 1.3883462396	 0.115966
H	 0.0129361097	-0.3463931912	 2.1262253905	 0.125865
