18
gdb 8275	5.81826	0.98546	0.90512	1.7901	73.96	-0.2529	0.0531	0.306	1266.1559	0.152322	-347.758099	-347.74956	-347.748616	-347.791392	31.868	
O	-0.1983430094	 1.4755905163	-0.0402705787	-0.430343
C	-0.0265917138	 0.0785127597	 0.002272052	 0.146326
C	 0.3134234285	-0.599899564	 1.360108833	-0.293216
C	-0.7348740217	-1.6931193988	 1.0119505469	 0.044777
C	-1.626969618	-2.2228737815	 2.1397600912	-0.370459
C	-2.6574218516	-3.1399483809	 1.6650402181	 0.303373
C	-3.4948759465	-3.8930771324	 1.2445824167	-0.449995
C	-1.3471928171	-0.7152366833	-0.0287588386	-0.240396
H	 0.6707661577	 1.889096779	-0.0309048026	 0.281238
H	 0.6589937897	-0.2625173257	-0.7869594389	 0.066049
H	 1.3443276116	-0.909527735	 1.5503611278	 0.092483
H	-0.0332532193	 0.0340497211	 2.1831017053	 0.103563
H	-0.2578449616	-2.5382278401	 0.5063796779	 0.082518
H	-1.005195763	-2.7278867729	 2.8913997752	 0.127765
H	-2.0994950951	-1.375280072	 2.6540393566	 0.125962
H	-4.2401794606	-4.558078766	 0.8850035993	 0.193735
H	-2.1444432172	-0.1118219976	 0.4169720678	 0.112392
H	-1.6920671526	-1.114818346	-0.983780309	 0.104227
