18
gdb 128317	3.24663	1.21075	0.89476	0.9293	76.81	-0.1883	0.0389	0.2272	1297.6722	0.147547	-435.280734	-435.270829	-435.269885	-435.315732	34.974	
C	-0.0924763511	 1.4278111948	-0.0038104513	-0.309472
N	-0.0001305258	-0.0202581898	-0.1312300229	-0.393549
C	-1.1862589536	-0.7428523883	-0.0555469163	 0.329683
N	-2.3893472045	-0.1811587147	-0.0786285744	-0.318374
N	-3.2485410971	-1.2373513848	-0.0521536189	-0.291299
C	-2.6287397462	-2.4470980099	-0.0100397422	 0.31706
C	-3.3365664058	-3.7579828869	 0.0318765084	-0.508619
C	-1.2807119656	-2.158925409	-0.0154953604	 0.053879
O	-0.2461735127	-3.0604859684	 0.0585637311	-0.458885
H	 0.9100200746	 1.854929714	-0.0874253565	 0.111243
H	-0.7091566747	 1.8206806726	-0.8158571894	 0.143979
H	-0.5471053278	 1.7556124465	 0.9424949001	 0.11611
H	 0.7140089606	-0.4251746408	 0.4604872418	 0.233827
H	-4.2356859939	-1.0542291913	-0.0462721827	 0.26396
H	-4.0507358906	-3.8627777149	-0.792833026	 0.129661
H	-2.6019063614	-4.5622455739	-0.0491504076	 0.150334
H	-3.8883744987	-3.9013733264	 0.9685225928	 0.134104
H	 0.3470450045	-2.8976023988	-0.6839969856	 0.296356
