19
gdb 1750	5.03099	1.49612	1.3424	1.7103	67.57	-0.2586	0.0878	0.3464	983.3492	0.16985	-310.911571	-310.903132	-310.902188	-310.944459	30.425	
C	 0.1371029679	 1.5711106559	 0.0249776672	-0.381603
C	 0.2210387509	 0.0426001562	 0.0430026989	-0.16458
C	 0.4275197979	-0.5528178142	-1.357386938	-0.24248
C	 0.6077296107	-2.061237962	-1.3634592866	 0.430751
C	-0.5716701839	-2.9013050256	-0.9205121169	-0.460936
C	 1.6155100776	-2.6587575039	-2.2531896076	-0.231661
O	 1.8794928	-2.5052642047	-0.856560888	-0.277776
H	 1.0532942413	 2.0130218919	-0.3822965479	 0.115529
H	-0.6987544418	 1.9160137603	-0.5942791239	 0.111811
H	-0.007093373	 1.9738600471	 1.0323015607	 0.112463
H	 1.0507540728	-0.2779934767	 0.6838338295	 0.11478
H	-0.693307652	-0.3639797171	 0.4918019821	 0.096217
H	-0.4237852078	-0.2919063041	-2.001226534	 0.09349
H	 1.3157923642	-0.0966273762	-1.8098312375	 0.098436
H	-1.441629976	-2.7180646015	-1.5607867231	 0.118265
H	-0.3236422557	-3.9644742701	-0.9664217174	 0.125216
H	-0.8581838103	-2.666784584	 0.1092704372	 0.128972
H	 1.4947308379	-3.6864294824	-2.5956037509	 0.1064
H	 2.2025307193	-2.0210115489	-2.9137286636	 0.106705
