18
gdb 87699	2.96348	1.18636	1.01717	2.9207	74.79	-0.2331	-0.0378	0.1953	1222.8835	0.145164	-439.048316	-439.039037	-439.038092	-439.082782	33.516	
C	 0.1005127357	 1.4186192975	-0.4475540848	-0.319201
N	 0.2302971839	-0.0115678526	-0.1943224616	-0.118132
C	 1.5650369335	-0.5304132492	 0.0283358845	-0.297368
C	 0.5855694157	-0.4114007698	 1.1567530051	 0.232854
C	 0.7401388961	 0.4165646205	 2.4546423662	-0.360306
C	 0.39187722	-0.8603681151	 3.2786978197	 0.045103
O	-0.5993129712	-0.723440628	 4.2629200165	-0.437137
C	-0.0513282805	-1.5250750507	 1.9546594475	 0.307329
O	-0.7526147441	-2.4688267347	 1.7242405815	-0.313538
H	 0.8403812656	 2.0337321905	 0.088554594	 0.107343
H	 0.2179673646	 1.5943967262	-1.5208203275	 0.133576
H	-0.9013355707	 1.7465891644	-0.1554864544	 0.133997
H	 1.7787126185	-1.5033282322	-0.406227146	 0.133475
H	 2.4009223863	 0.1698229612	 0.0471010779	 0.115319
H	 1.7130870732	 0.8673983448	 2.6521029379	 0.114329
H	-0.0469954099	 1.1664184518	 2.5684038197	 0.128407
H	 1.3007776127	-1.338631095	 3.6765428056	 0.095651
H	-1.1685847695	-1.5001714898	 4.1994286981	 0.298296
