17
gdb 18859	3.40217	2.59473	2.17585	0.5397	72.27	-0.2035	0.0099	0.2134	722.1042	0.143879	-326.675628	-326.669405	-326.668461	-326.705449	25.835	
C	-0.0603703411	 1.543590862	-0.0401391589	-0.324202
N	 0.1022129934	 0.096832765	-0.0140834795	-0.069944
C	 0.6549720777	-0.5667277597	-1.1601642282	-0.018065
C	 2.2532543323	-0.6012079786	-1.1692354972	-0.101975
C	 2.9477599293	 0.3259910199	-0.2508415088	-0.072287
C	 2.3738140088	 0.2773751644	 0.9634037968	-0.114896
C	 1.1458455233	-0.5916451044	 0.8724055065	-0.053672
C	 1.4193778733	-1.5431865496	-0.3371486732	-0.114882
H	 0.8432341127	 2.0996322451	-0.3290973474	 0.104363
H	-0.8524326858	 1.7810117784	-0.7593067265	 0.116536
H	-0.3867470663	 1.8925819265	 0.9452366326	 0.11522
H	 0.1047566064	-0.6664498222	-2.089503176	 0.097751
H	 2.7017227548	-0.9492020798	-2.0922354849	 0.081632
H	 3.7512786328	 0.9858831481	-0.5555661175	 0.096209
H	 2.6063119033	 0.9108992295	 1.810194316	 0.093729
H	 0.7177543346	-0.9781478702	 1.797271667	 0.071557
H	 1.4499639904	-2.6247701846	-0.3479368508	 0.092926
