17
gdb 66090	2.44743	1.27352	1.05701	3.7391	70.46	-0.2525	-0.0546	0.1978	1172.7983	0.133279	-458.967428	-458.958506	-458.957561	-459.001666	32.302	
O	 0.1225194182	 1.422273542	-0.498647916	-0.47176
C	 0.0118421788	 0.0996140299	-0.090001367	 0.330081
C	 0.0000116689	-0.1618815758	 1.4479243121	-0.286565
C	-1.2093235805	-1.1125537959	 1.2709172031	-0.244533
C	-1.4255519767	-0.5716130401	-0.1768435293	-0.178095
C	-2.5114757892	 0.4736348774	-0.2714849919	 0.185196
O	-3.3362254591	 0.5097818624	-1.1461731575	-0.252026
C	 1.0233089493	-0.7559610331	-0.8163174606	 0.122002
O	 1.7554750391	-0.2935653956	-1.6573132925	-0.27451
H	 0.7747639437	 1.4290151083	-1.2189867292	 0.296874
H	 0.910961529	-0.5652459148	 1.8972525733	 0.113388
H	-0.2613348651	 0.7663792089	 1.9601476298	 0.134932
H	-0.9346460519	-2.1693094664	 1.2719977592	 0.120108
H	-2.043100908	-0.9758114595	 1.9631203437	 0.120699
H	-1.579850707	-1.3022007015	-0.9738378286	 0.096879
H	-2.5123740683	 1.2201140814	 0.5532370325	 0.08338
H	 1.0529220889	-1.8297390876	-0.5420522212	 0.10395
