16
gdb 50838	3.8201	0.99628	0.85981	5.3666	67.44	-0.2466	-0.0348	0.2118	1315.4691	0.123971	-475.048814	-475.040187	-475.039243	-475.08358	29.678	
O	-0.5113166216	 0.314592524	-0.3152045085	-0.251886
C	 0.4832609527	 0.567558442	-0.9360440551	 0.166229
N	 1.6197315844	 1.2075837208	-0.4521993809	-0.347268
C	 1.8486620611	 1.7076358771	 0.8261440764	 0.37673
O	 1.0915724546	 1.6507265274	 1.7613961622	-0.317167
C	 3.221872291	 2.3688179015	 0.9553782729	 0.039891
C	 4.2603465659	 1.6003199427	 1.8056399377	-0.279518
C	 5.0753126646	 1.5396009924	 0.4979174509	-0.070546
O	 4.0463965326	 2.2641938061	-0.2284532881	-0.303697
H	 0.617440882	 0.3108921846	-2.00673758	 0.088073
H	 2.3928770073	 1.3528558751	-1.0917592346	 0.271177
H	 3.060666029	 3.4122565833	 1.2486101451	 0.123027
H	 4.7089760791	 2.1785384338	 2.6127023202	 0.130182
H	 3.912106723	 0.6445026894	 2.197331216	 0.137038
H	 6.0203880152	 2.0917766884	 0.4986529895	 0.120789
H	 5.2413361191	 0.5420993112	 0.0769878663	 0.116945
