21
gdb 57253	2.17319	1.43174	1.27914	1.1907	83.83	-0.2494	0.0488	0.2982	1153.0694	0.178957	-387.044765	-387.034651	-387.033707	-387.078825	39.519	
C	 0.252206741	 1.4600571297	 0.0415828529	-0.401192
C	 0.0455281331	-0.0731371956	 0.0007839311	 0.005557
C	 0.5327035513	-0.6965784031	 1.3261272075	-0.433697
C	-1.3868840806	-0.3685378925	-0.1627100803	 0.33054
C	-2.5519108331	-0.6193313189	-0.3303508136	-0.502887
C	 0.762076607	-0.6345070411	-1.2492448603	 0.442628
O	 0.2368238888	-0.1196738727	-2.4455397352	-0.476058
C	 2.2433489543	-0.8337436532	-1.3040314249	-0.322108
C	 1.3133661875	-2.0354439629	-1.319729567	-0.330394
H	 1.3088880246	 1.6846615536	 0.2170682246	 0.114045
H	-0.0434744862	 1.9082550455	-0.9080959331	 0.137204
H	-0.3379859522	 1.9082699778	 0.8453320981	 0.114874
H	 0.0075411138	-0.2304116518	 2.1639713372	 0.127027
H	 0.3358636264	-1.7699036744	 1.3663582426	 0.129129
H	 1.6040347447	-0.5255635927	 1.4654873876	 0.119263
H	-3.5843050503	-0.8360537303	-0.4544826181	 0.198151
H	-0.6926674963	-0.3817743568	-2.4783635511	 0.28232
H	 2.7240839466	-0.5553848272	-2.2345587979	 0.12545
H	 2.8391122484	-0.6592240604	-0.4156324008	 0.112746
H	 1.2890287556	-2.6742778863	-0.445029558	 0.111787
H	 1.1821764255	-2.5495056767	-2.2648881913	 0.115614
