15
gdb 60879	2.25881	1.38718	1.15543	1.2747	67.66	-0.2687	-0.0467	0.222	1107.2451	0.108441	-457.702094	-457.69304	-457.692096	-457.736333	32.56	
O	 0.4408249449	 1.602586394	 0.0037888471	-0.426301
C	 0.096385321	 0.256988931	 0.1156084577	-0.024533
C	 0.4450062013	-0.4939737332	-1.1619216761	 0.133256
O	 0.9244677364	 0.0798470263	-2.1084289227	-0.259378
C	 0.7878984163	-0.4070575633	 1.3136791169	 0.149239
C	 0.0694164174	-0.4768440059	 2.6000552625	-0.213331
O	 0.1438095579	-1.6185689006	 1.7480526385	-0.266583
C	 2.2290586993	-0.4176282821	 1.278241937	 0.310855
C	 3.4282833241	-0.4225281353	 1.2053579882	-0.403786
H	 0.8515397885	 1.6942350331	-0.8717662217	 0.300496
H	-0.9880713088	 0.1308105165	 0.2752043459	 0.106235
H	 0.2325330447	-1.5794900271	-1.1693128232	 0.123851
H	 0.6438165966	-0.5454001051	 3.5207347741	 0.13531
H	-0.9099969925	-0.0077753451	 2.6801165697	 0.127682
H	 4.489288123	-0.4272440532	 1.1500204062	 0.206988
