14
gdb 12041	3.96158	1.75447	1.5658	2.8262	61.31	-0.2572	0.0131	0.2703	823.909	0.107353	-378.681403	-378.674344	-378.673399	-378.712465	26.743	
N	 0.0856031275	 1.4608899271	-0.0117381216	-0.554716
C	 0.0415754809	 0.0124634162	-0.0029606207	 0.134359
C	 0.2497515363	-0.6449813643	 1.4266621876	-0.287127
C	-1.1444566781	-1.2600059443	 1.3045996628	 0.046949
O	-2.0633515982	-0.1744863236	 1.0834456227	-0.249901
C	-1.3561382885	-0.7012236621	-0.0357309166	-0.021097
C	 0.9481612353	-0.5380135576	-1.0078794557	 0.257518
N	 1.6282555697	-0.9980296932	-1.821288433	-0.3301
H	-0.0734199729	 1.8202667302	-0.9488476265	 0.24124
H	-0.6733681868	 1.7947125902	 0.577776048	 0.248857
H	 1.0592470411	-1.3761136911	 1.4340690111	 0.140766
H	 0.3860962539	 0.0766942907	 2.2342483845	 0.129345
H	-1.5404281938	-2.1590986997	 1.7585480261	 0.121362
H	-1.9250550463	-1.0442128986	-0.8921797885	 0.122546
