21
gdb 105784	2.1586	1.449	1.18762	1.6192	78.52	-0.2403	-0.0261	0.2143	1178.7461	0.181471	-424.241174	-424.231699	-424.230755	-424.276113	34.677	
C	 0.3990051913	 1.3204656188	 0.1780836209	-0.258993
O	 0.2351283407	-0.0857906082	 0.1921614511	-0.2919
C	-1.0978386412	-0.5402528747	-0.0153277785	 0.340015
C	-1.7401832071	-0.1146236993	-1.3553679926	-0.264506
C	-2.5598087309	-1.3370657239	-1.7945030794	-0.212543
C	-1.6591714629	-2.5198866057	-1.4062377383	-0.19878
C	-1.0510991184	-2.1033544067	-0.0503873127	-0.278096
C	-1.9396745373	-0.1297446062	 1.1931541642	 0.100007
O	-3.0852648641	 0.2386900487	 1.1572560284	-0.251087
H	 1.4467592575	 1.5163834639	 0.416852982	 0.131861
H	 0.1738364446	 1.7540803512	-0.8054478989	 0.115873
H	-0.2310293732	 1.8232521954	 0.9269230755	 0.11448
H	-2.3433247522	 0.7903841166	-1.2591699343	 0.111216
H	-0.9340987968	 0.0746379354	-2.0731187283	 0.104331
H	-3.4975474581	-1.3698957798	-1.2290854851	 0.118971
H	-2.8143526523	-1.3182900985	-2.8578846111	 0.096632
H	-2.1939084163	-3.4717522326	-1.3514271555	 0.099248
H	-0.8625895649	-2.6370734532	-2.1498182707	 0.104333
H	-0.0146996536	-2.4210171765	 0.0809036849	 0.123262
H	-1.6260703176	-2.5272432593	 0.7808865182	 0.10844
H	-1.3855459971	-0.2341658855	 2.1552636504	 0.087235
