17
gdb 128340	1.99067	1.69673	0.96052	1.1335	71.79	-0.2028	0.0053	0.2081	1200.5566	0.137883	-451.320251	-451.311327	-451.310383	-451.354133	32.029	
C	 0.1746717967	 1.3144877701	 0.1343994496	-0.318946
N	-0.0314195877	-0.1141679454	-0.0310363804	-0.385098
C	 0.5888957975	-0.7614190862	-1.0740876037	 0.3263
N	 1.1556734582	-0.1433486861	-2.1111685349	-0.304308
N	 1.576564861	-1.1686397104	-2.8693845608	-0.097807
N	 1.349730306	-2.3833021536	-2.4027578402	-0.265717
C	 0.7074775572	-2.1654433704	-1.2555382663	 0.202939
C	 0.2272049524	-3.2420454476	-0.3408480763	-0.194779
O	 0.5927670104	-2.9809773303	 1.0193319986	-0.415648
H	 1.2299291443	 1.5876234151	 0.2843382409	 0.115142
H	-0.178910998	 1.8411413888	-0.7558798486	 0.145805
H	-0.4064024921	 1.6575883988	 0.9933534655	 0.120729
H	-0.0131767772	-0.6640288706	 0.8168052435	 0.249503
H	 2.0526593595	-1.0141801172	-3.7413500961	 0.28767
H	-0.8676005185	-3.2858006794	-0.3267999376	 0.127302
H	 0.5963397598	-4.2159374667	-0.6866604233	 0.119573
H	 1.5555079006	-2.9643489486	 1.0570421499	 0.287341
