17
gdb 27233	2.19806	1.96159	1.0708	3.947	78.77	-0.1859	0.0272	0.2131	1107.5776	0.136964	-418.001818	-417.993853	-417.992909	-418.034367	29.961	
C	 0.0904424768	 1.4972008331	 0.1202275647	-0.495287
C	-0.0712945946	 0.0266525711	 0.0836046987	 0.193464
C	-1.0911408709	-0.83337664	 0.0211169789	 0.175225
C	-2.4659843325	-1.2872336515	-0.4358908155	-0.362124
C	-1.7672209136	-2.6750151436	-0.705090548	-0.164068
N	-0.5822977983	-2.1373584245	 0.0009536276	-0.086861
C	 0.7917668157	-2.0900984379	-0.1135014352	 0.427269
N	 1.5999522257	-3.0395068036	-0.3294998009	-0.595365
O	 1.10743218	-0.7483376117	 0.108692542	-0.264217
H	 0.7198813662	 1.8493171238	-0.7052354326	 0.139588
H	-0.887067955	 1.9795603059	 0.0424932162	 0.133019
H	 0.5606295784	 1.8297542819	 1.0534934043	 0.141874
H	-3.2268790579	-1.3251426024	 0.346812341	 0.133702
H	-2.8712223557	-0.7795324842	-1.3118988349	 0.133581
H	-2.2069387937	-3.5536114491	-0.2301787724	 0.131678
H	-1.5781241993	-2.8752317073	-1.7638021358	 0.134687
H	 2.5569827885	-2.69586881	-0.3525966982	 0.223836
