18
gdb 70636	2.39897	1.62513	1.2022	4.8621	75.67	-0.2783	0.0163	0.2946	1074.6473	0.14817	-401.956776	-401.948562	-401.947618	-401.989465	31.177	
C	-0.1957072305	 1.3742303541	-0.1249158702	-0.495123
C	 0.0129414088	-0.1069906889	 0.0588412752	 0.327801
C	-0.7246961361	-0.9001931358	 1.1082246456	-0.330312
C	 0.7724313111	-0.7416062389	 1.2029686404	-0.110653
C	 1.5926263897	-1.8643728296	 0.6015247214	-0.099293
O	 0.9885227845	-2.1433853542	-0.6661887368	-0.26399
C	 0.4303347245	-0.9344125949	-1.1616601082	-0.074947
C	-0.6824260179	-1.2621434782	-2.0652165648	 0.286827
N	-1.5680407657	-1.4675454857	-2.7775143291	-0.323242
H	 0.6876806862	 1.8527496582	-0.5634606479	 0.122034
H	-1.0478648755	 1.573625725	-0.7840180453	 0.142011
H	-0.3983788749	 1.8598673009	 0.8337175952	 0.126764
H	-1.3320110085	-0.3340128802	 1.8053930007	 0.118962
H	-1.1241147331	-1.8741334003	 0.8431300132	 0.136799
H	 1.2095799603	-0.1359265438	 1.9883297781	 0.098548
H	 2.6407248878	-1.5525354101	 0.4749689213	 0.102723
H	 1.5731863065	-2.7991461629	 1.1699558295	 0.122306
H	 1.1747542928	-0.3631314448	-1.7421247482	 0.112785
