17
gdb 10101	2.16389	1.68843	0.99356	3.159	73.15	-0.2658	0.0168	0.2826	1172.886	0.139321	-363.825955	-363.816601	-363.815656	-363.860684	32.548	
C	 0.5226181581	 1.5185738012	 0.2166305292	-0.396063
C	 0.2152004615	 0.026415205	 0.0805280332	-0.183307
C	-1.2884395222	-0.2654444312	-0.0059949346	-0.082122
O	-1.7724572464	 0.3905924002	-1.191335442	-0.184519
C	-3.1120567635	 0.5059536196	-1.3154996896	 0.133028
N	-3.5984351445	 1.0733640356	-2.3314270376	-0.440209
C	-1.5726941326	-1.7011965627	-0.0398548492	 0.340779
C	-1.8006881138	-2.8806391816	-0.065510501	-0.446265
H	 1.6023203148	 1.6840879259	 0.2695701256	 0.117997
H	 0.1314688495	 2.0761366034	-0.6374187123	 0.147667
H	 0.0766018805	 1.9343050343	 1.1272532219	 0.113286
H	 0.6884703399	-0.3860366651	-0.8164719248	 0.126404
H	 0.6101435658	-0.5317390315	 0.9358047569	 0.113873
H	-1.7881930198	 0.1773630823	 0.8688894968	 0.10849
H	-3.6719921267	 0.0734004265	-0.4762246213	 0.095151
H	-4.6143608938	 1.0853804701	-2.2682641225	 0.229842
H	-2.0044891567	-3.9229512721	-0.0914809688	 0.205968
