17
gdb 83490	2.98885	1.52836	1.47265	4.5273	67.13	-0.2512	0.0026	0.2537	968.6481	0.137738	-459.001173	-458.993967	-458.993023	-459.032662	28.209	
C	-0.110967366	 1.5379291653	 0.0192421597	-0.438765
C	 0.0493895147	 0.0228178295	 0.0300027822	-0.008911
C	 1.0709403267	-0.5995665634	-0.9515409783	 0.053074
C	 2.3961848622	-0.059976343	-0.4104616864	-0.091525
O	 2.1759953556	-0.06311208	 1.0132166102	-0.277525
C	 0.8397872277	-0.5722713014	 1.2079082133	-0.060643
C	 0.8840296775	-2.0456774219	 0.7815433837	 0.460566
O	 0.8341612194	-3.0589045086	 1.4081681341	-0.344174
O	 1.0357682757	-2.0039392786	-0.5871158669	-0.243843
H	 0.8106826112	 2.0439001634	 0.3160185507	 0.143012
H	-0.398716811	 1.8958727316	-0.9749211076	 0.123812
H	-0.8963292523	 1.8409027346	 0.7180353027	 0.131195
H	-0.9165738678	-0.4759176268	-0.0947161915	 0.102848
H	 0.8952861701	-0.5070298921	-2.0214224246	 0.102656
H	 3.2309559927	-0.7203913062	-0.6645951571	 0.127368
H	 2.6162578007	 0.9565788464	-0.7549909784	 0.112768
H	 0.5282546128	-0.3913852587	 2.2330470942	 0.108086
