18
gdb 26186	3.9633	0.97082	0.93977	1.198	74.62	-0.2126	0.0101	0.2227	1329.2418	0.147223	-439.131419	-439.122428	-439.121484	-439.165714	33.129	
C	-0.0637586828	 1.5151224132	-0.0463196623	-0.39123
C	-0.0480073357	-0.0229878632	 0.0335227885	-0.076824
C	 0.7079755835	-0.51232492	 1.2831715263	-0.391216
C	-1.4350165448	-0.5804287991	-0.0110958813	 0.408939
N	-1.9568949117	-1.3700741904	-0.9047850328	-0.396388
C	-3.25158952	-1.5774247973	-0.471619474	 0.317122
O	-4.1056342951	-2.3578589687	-1.1599323098	-0.43022
C	-3.4682470724	-0.8984200063	 0.680845371	-0.157935
O	-2.2872888005	-0.2497480066	 0.9811579753	-0.183687
H	 0.9593216689	 1.9032631007	-0.0512203338	 0.116414
H	-0.5652856287	 1.8599370283	-0.9551121032	 0.125196
H	-0.58655	 1.9430697283	 0.8142747988	 0.130883
H	 0.4480221962	-0.4190303398	-0.8581937111	 0.107211
H	 0.7534572181	-1.6046334062	 1.3165990141	 0.125256
H	 1.7319914546	-0.1266369932	 1.2798517728	 0.11643
H	 0.2154221177	-0.16398691	 2.1959639878	 0.130822
H	-3.620239471	-2.6810497421	-1.9286279342	 0.305918
H	-4.2940045364	-0.7680108675	 1.354425228	 0.143309
