15
gdb 123762	4.82186	1.06903	0.95667	3.5025	66.59	-0.2637	-0.0403	0.2235	1189.184	0.113108	-453.896649	-453.889262	-453.888317	-453.92991	26.372	
C	-0.2433870128	 0.9769840817	 0.2269492835	-0.063665
C	 1.0544279539	 1.2486900042	-0.5579221167	-0.285821
C	 1.7311877576	 0.4194298484	 0.567403845	 0.036565
O	 0.4505413265	 0.1132259569	 1.1597737074	-0.290308
C	 2.4608485506	-0.8233025957	 0.1995782353	 0.238758
C	 2.0440902911	-2.116189928	 0.1935855865	-0.03693
O	 3.0480646247	-2.8915026398	-0.209529331	-0.161443
N	 4.1488406107	-2.0175591953	-0.4684549103	-0.004349
N	 3.7746354934	-0.8434663636	-0.2179125673	-0.187207
H	-0.6735687002	 1.8498558832	 0.7319496657	 0.111551
H	-1.0388862318	 0.4440182964	-0.3045344362	 0.112843
H	 1.1017105446	 0.780961429	-1.5417454452	 0.123196
H	 1.3704033043	 2.2891449105	-0.6322325692	 0.123262
H	 2.3529951173	 1.0291558326	 1.2362548816	 0.102547
H	 1.1129026101	-2.5884212807	 0.4549089508	 0.181001
