22
gdb 117772	2.4997	0.95978	0.84068	3.9959	82.74	-0.2413	0.0278	0.2691	1514.3328	0.193721	-400.537049	-400.525999	-400.525055	-400.573126	40.048	
C	-0.0328808152	 1.6164669999	-0.0208644596	-0.381615
C	 0.0218311069	 0.0860942014	-0.0019811703	-0.193107
C	-1.3717994736	-0.5501355926	 0.0189879678	-0.191105
C	-1.3957578147	-2.1014603313	 0.0421928401	 0.05
N	-0.7056095547	-2.7168030519	 1.1896553227	-0.529596
C	-2.8763182512	-2.6062039585	 0.0730403994	-0.155764
N	-3.0660550682	-4.0424055674	 0.02513062	-0.507518
C	-0.7649720302	-2.6169101498	-1.1871894202	 0.302974
N	-0.2966229452	-3.0072796777	-2.1692602568	-0.35126
H	 0.9727319599	 2.0470776056	-0.0328740546	 0.118919
H	-0.5627883026	 1.9827166406	-0.9067118298	 0.121657
H	-0.5526806596	 2.0074100454	 0.8609574049	 0.115033
H	 0.5712202168	-0.2734232188	-0.8803966926	 0.124317
H	 0.5904565541	-0.244280111	 0.8763756557	 0.088176
H	-1.9219443503	-0.2087636641	 0.90689314	 0.095812
H	-1.9439326348	-0.2042816345	-0.8511313513	 0.112482
H	 0.296050596	-2.5627764295	 1.1355592812	 0.246113
H	-1.0281777746	-2.2667121784	 2.0428202145	 0.234102
H	-3.3100282467	-2.2201889082	 1.0054893395	 0.103608
H	-3.4255984665	-2.1402617275	-0.7510200159	 0.117402
H	-2.7928214007	-4.397920266	-0.8868071236	 0.23975
H	-2.4400427148	-4.4750254859	 0.6996523291	 0.239619
