20
gdb 58734	2.95898	1.40672	1.21172	2.2043	77.99	-0.2365	0.0629	0.2994	1111.2658	0.171115	-403.080317	-403.071893	-403.070949	-403.113467	32.597	
C	 0.0564851204	 1.4798242794	-0.2291294414	-0.414739
C	 0.0016411206	-0.0081863528	 0.1212624048	-0.047984
O	 0.7236129619	-0.2941285931	 1.3193392413	-0.421541
C	-1.4000261798	-0.5283188034	 0.2010877577	 0.386938
C	-2.007698227	-1.8714458817	 0.0630007294	-0.095422
C	-2.9070014968	-1.665927542	 1.2788984159	-0.238536
C	-2.7024402982	-0.1472040178	 1.0334312448	-0.146418
C	-3.3551863984	 0.0499992005	-0.3424779153	-0.146545
N	-2.2873351871	-0.7989345643	-0.9674312005	-0.19753
H	 1.0953102452	 1.8164184381	-0.2804123129	 0.125058
H	-0.424793641	 1.6678353367	-1.1933791237	 0.134705
H	-0.4612824402	 2.0780137338	 0.5311634391	 0.105723
H	 0.5131364616	-0.5806351457	-0.6617638469	 0.102383
H	 0.3626881434	 0.2655429826	 2.0157519325	 0.278074
H	-1.5672154314	-2.7844099421	-0.3156915721	 0.100983
H	-3.9343102557	-2.0461770503	 1.2561466822	 0.094029
H	-2.4028963956	-2.0060550321	 2.1868285134	 0.110695
H	-2.8052573232	 0.5717706693	 1.8449285508	 0.068507
H	-4.382359432	-0.307586534	-0.4837420871	 0.094892
H	-3.2603251668	 1.0654058091	-0.735415892	 0.10673
