15
gdb 54820	3.37385	1.46198	1.32719	3.8001	65.24	-0.2426	0.0139	0.2565	973.0891	0.114161	-453.964129	-453.956686	-453.955742	-453.996416	28.163	
N	-0.0433907548	 1.269707089	 0.519098543	-0.537485
C	 0.0378967357	 0.1396641307	-0.2588601241	 0.437267
O	 1.0411777791	-0.133997797	-0.8894812851	-0.36584
C	-1.2202226838	-0.6731886684	-0.2713200777	-0.207965
C	-1.5942306777	-1.6477500524	-1.3698681551	 0.041259
O	-0.564986304	-2.1141488166	-2.2155482016	-0.187921
C	 0.2855143082	-2.7887301928	-1.3988122502	 0.134889
N	-0.0228877624	-2.9226336011	-0.1710591889	-0.255845
C	-1.2514323983	-2.1919108541	-0.0040554132	-0.052372
H	 0.8212517505	 1.7652154625	 0.6719590241	 0.260106
H	-0.7595735731	 1.3674484234	 1.2187267582	 0.255565
H	-2.0928853769	-0.1725803534	 0.1378677985	 0.096115
H	-2.559232789	-1.6035648254	-1.8572155676	 0.12059
H	 1.1743359281	-3.1704448838	-1.8822685104	 0.151768
H	-1.9556350116	-2.5666634604	 0.7283017001	 0.109868
