21
gdb 36845	4.19509	1.04056	0.99918	1.022	83.25	-0.2421	0.095	0.337	1291.1656	0.183009	-387.018175	-387.01013	-387.009186	-387.051595	31.875	
C	-0.3494113912	 1.0122063667	-0.3109479215	-0.281026
C	 1.0265905416	 1.0903627848	 0.322008576	-0.291699
C	 0.4009343778	-0.239771694	 0.0614021878	 0.112704
O	 0.0066236175	-0.9640557749	 1.1919148734	-0.299182
C	-0.9898033952	-1.8934299119	 0.9614099169	 0.449425
C	-0.9643161914	-3.1264934808	-0.0006540804	-0.280432
C	-2.3163100505	-3.1838744042	 0.7662691642	-0.055677
C	-1.5283939198	-2.8310614458	 2.0632140158	-0.272055
C	-2.4689330543	-1.6569281464	 0.5132166077	-0.272444
H	-1.1940383791	 1.2793075404	 0.3134920489	 0.121712
H	-0.460104642	 1.2606959164	-1.3608787158	 0.111503
H	 1.8701839178	 1.3944210746	-0.2871016991	 0.113573
H	 1.0761846063	 1.4026304018	 1.3588145344	 0.126415
H	 0.8038002477	-0.8564873683	-0.7406923294	 0.090578
H	-1.0220236308	-2.924502899	-1.0735792994	 0.089132
H	-0.2360763348	-3.9089704889	 0.228611852	 0.091713
H	-3.0896509299	-3.94010851	 0.6586368752	 0.08116
H	-0.8367525279	-3.5888894449	 2.4403422517	 0.092538
H	-2.0953791103	-2.3595091818	 2.8700880233	 0.091711
H	-3.107118498	-1.1060836501	 1.2094624683	 0.08911
H	-2.6308573136	-1.3460266937	-0.5217002902	 0.091241
