16
gdb 115472	3.76863	0.97142	0.81277	1.8057	68.92	-0.2661	-0.0817	0.1844	1350.7676	0.124163	-475.034538	-475.026034	-475.02509	-475.068681	29.91	
O	-0.071370198	 1.4342556026	-0.2565200818	-0.417065
C	 0.0187447452	 0.0508906527	-0.0173714721	-0.057125
C	-1.3587572119	-0.6205964203	-0.0747020949	-0.013457
C	-1.3537539737	-2.134940722	 0.2579429956	-0.135092
O	-2.2550652514	-2.2539483437	 1.3885798572	-0.238186
C	-2.6403609781	-0.9972222939	 1.6772282227	 0.319071
C	-3.5489326477	-0.791378708	 2.8453445289	 0.1047
O	-3.9585614008	-1.6795291396	 3.5440528132	-0.230773
N	-2.2307713876	-0.0279078906	 0.9576381611	-0.317831
H	-0.7537585925	 1.7696884868	 0.3379609904	 0.297771
H	 0.6687638191	-0.3687765659	-0.7933466627	 0.113642
H	 0.4788255424	-0.1722332143	 0.9605600094	 0.089766
H	-1.7969350211	-0.4109460009	-1.0569218621	 0.108996
H	-1.7337368808	-2.7666550112	-0.5471909771	 0.13372
H	-0.3707487069	-2.5036369709	 0.5698251779	 0.127082
H	-3.8039703163	 0.2752959391	 2.9947496844	 0.114781
