21
gdb 103677	3.54268	0.83699	0.78223	3.3758	79.98	-0.245	-0.0223	0.2227	1512.1583	0.180168	-424.223856	-424.213873	-424.212929	-424.259377	36.508	
C	-0.2499266621	 1.5885047177	 0.0359003244	-0.466588
C	-0.0182670764	 0.0772024714	 0.0107712459	 0.33896
C	-1.3213655413	-0.68654375	-0.2211936831	-0.128491
O	-1.9015808315	-0.4360590891	-1.4922202889	-0.421194
C	 1.1668619596	-0.331603997	-0.9164742006	-0.282904
C	 2.0974785125	-0.4484291461	 0.3320122997	-0.057137
C	 0.8190007327	-0.4238994878	 1.2278814585	-0.304049
C	 2.9410095907	-1.6879067745	 0.4163510291	 0.160859
O	 4.1304846383	-1.7159123931	 0.6015979076	-0.25372
H	 0.681172746	 2.1331163752	 0.2222732942	 0.123869
H	-0.6426916256	 1.9431065747	-0.9238792707	 0.113018
H	-0.9605166867	 1.8668037478	 0.8235104679	 0.114695
H	-1.1227059708	-1.7640596728	-0.1982230836	 0.102129
H	-2.0294455557	-0.4694041049	 0.5960575715	 0.086556
H	-2.2662957472	 0.4537712887	-1.4862953477	 0.286698
H	 0.9960340279	-1.2991378725	-1.3992116561	 0.109335
H	 1.4772490764	 0.383733737	-1.6807552577	 0.111004
H	 2.7360620127	 0.4248472182	 0.4748591022	 0.091274
H	 0.8596154824	 0.2189116528	 2.110143119	 0.110137
H	 0.5242277612	-1.4305511711	 1.5460677609	 0.102601
H	 2.3583458271	-2.6336276347	 0.2872310175	 0.062947
