14
gdb 56477	2.83446	1.02627	0.83818	2.5701	65.82	-0.282	-0.0513	0.2307	1336.1146	0.099804	-470.028501	-470.019199	-470.018255	-470.063813	31.392	
N	-0.2478527103	 1.4029829054	 0.0139272827	-0.498172
C	-0.044810792	-0.034069142	 0.0519615616	-0.218463
C	 0.6991859626	-0.5881571557	-1.103410226	 0.258233
N	 1.2738453044	-0.9632412223	-2.0336276865	-0.308711
C	 0.7317715762	-0.3893134929	 1.3283475508	 0.496426
O	 1.4268964818	 0.3796423323	 1.9272907618	-0.32863
O	 0.5182759991	-1.6886381219	 1.6498492756	-0.200555
C	 1.2093637342	-2.2162757799	 2.7272299618	 0.120646
N	 0.9538450927	-3.4006354822	 3.0485618887	-0.404353
H	 0.6307005233	 1.8716884154	 0.2144001867	 0.259294
H	-0.5623906738	 1.6934247402	-0.9053332815	 0.253855
H	-1.0097836407	-0.5511168445	 0.0969817278	 0.166238
H	 1.9096631522	-1.5070906192	 3.1671921187	 0.154121
H	 1.5261645301	-3.6796473927	 3.8442437579	 0.25007
