17
gdb 85841	2.88612	1.28175	1.15257	3.9509	69.	-0.2662	0.0205	0.2867	1101.8171	0.136352	-455.136653	-455.128046	-455.127102	-455.169539	33.137	
N	 0.186366853	 1.0917794096	-0.5080762418	-0.52805
C	 0.1314948917	-0.2295509578	 0.0666926608	-0.059978
C	 0.2682146191	-0.3260649478	 1.6257091709	 0.110663
O	 0.0122764388	 0.9010376647	 2.2735031696	-0.438516
C	-0.9205883553	-1.3235982173	 1.6331586453	-0.291026
C	-1.3425474567	-0.7806479906	 0.2441073951	 0.248294
O	-2.2080253583	 0.3231304188	 0.3895201495	-0.470091
C	-1.8357778644	-1.7367012401	-0.7512732635	 0.229227
N	-2.182346776	-2.5005006605	-1.5471396562	-0.339644
H	 0.5068100591	 1.7565881653	 0.1897904823	 0.254135
H	 0.7719324641	 1.1493622253	-1.3300054666	 0.250832
H	 0.7651460146	-0.9587577988	-0.4436169845	 0.097207
H	 1.2274924769	-0.6825591012	 2.0053500306	 0.095503
H	-0.9103865223	 1.1271527692	 2.0913173622	 0.290973
H	-0.5931228782	-2.3645109758	 1.5878810569	 0.12877
H	-1.6632666648	-1.2023969232	 2.4237861775	 0.130166
H	-1.8317854914	 0.9970605601	-0.2120449582	 0.291536
