15
gdb 57042	3.22391	1.08353	1.00455	4.2448	66.6	-0.2742	-0.0517	0.2225	1188.7301	0.111947	-453.938179	-453.929729	-453.928785	-453.972001	30.284	
O	 0.1177653387	 1.4816182455	-0.0099298286	-0.411507
C	 0.0296407275	 0.082114558	-0.0401794366	-0.015571
C	 0.6598908164	-0.4811021149	-1.2578135245	 0.257099
N	 1.1787146837	-0.9290367122	-2.1881900898	-0.314802
C	 0.6850380543	-0.5226575929	 1.2171155415	-0.138956
N	 1.9248917577	 0.1962621658	 1.6062405132	-0.336896
C	 1.4605633676	 0.4307049097	 3.003113931	-0.28506
C	 0.0795417025	-0.0890784911	 2.5737488556	 0.403345
O	-1.0065515594	-0.1399627458	 3.0571888514	-0.27091
H	 1.019529236	 1.6671703595	 0.302231574	 0.296463
H	-1.0323949731	-0.1878337006	-0.045291831	 0.155811
H	 0.7691789668	-1.6133253243	 1.1312318304	 0.124772
H	 2.7792289751	-0.3394568621	 1.5183054348	 0.246943
H	 1.9237272347	-0.2075699853	 3.7667755262	 0.14009
H	 1.5094043012	 1.4734749005	 3.3317159524	 0.149179
