18
gdb 6489	3.76826	1.43289	1.3419	1.6576	68.38	-0.2602	0.0168	0.277	1021.0059	0.150956	-384.970718	-384.961752	-384.960808	-385.004659	32.177	
C	 1.6457299341	 0.9941911096	-2.2300190922	-0.476891
C	 1.5015926415	-0.4953899684	-2.0230186148	 0.414844
O	 2.346577872	-1.3192437577	-2.2591169256	-0.349989
O	 0.2724137807	-0.7789281302	-1.5247351008	-0.287405
C	-0.0329978916	-2.1501585497	-1.2646263314	 0.470415
C	 0.658189537	-2.7072511532	-0.0449901932	-0.463882
C	-1.4590346328	-2.4925107934	-1.5775041731	-0.320475
C	-0.3361763373	-3.002777869	-2.4598413433	-0.297519
H	 0.8569350999	 1.3615360374	-2.8923450501	 0.147175
H	 1.5354629742	 1.5159366168	-1.2749476762	 0.149686
H	 2.6242941788	 1.2075933798	-2.6582282436	 0.146788
H	 0.4389529935	-2.0930373073	 0.8348343881	 0.120165
H	 0.3061189579	-3.7232466749	 0.1545787569	 0.117949
H	 1.7396530879	-2.7397729903	-0.1949952886	 0.148781
H	-1.9705063359	-3.1889880411	-0.922397309	 0.114785
H	-2.0806143657	-1.6965614605	-1.9709986085	 0.122322
H	-0.222193389	-2.5513339309	-3.4379675452	 0.123009
H	-0.0663896051	-4.0519864071	-2.4147339793	 0.12024
