16
gdb 45108	2.58997	2.05078	1.39343	5.134	67.96	-0.2613	0.0162	0.2775	918.8481	0.126181	-437.875704	-437.868905	-437.867961	-437.90698	26.989	
O	-0.2006575477	 0.2841916361	 0.7685029037	-0.337891
C	-0.0710960732	 1.2758166677	 0.1093024645	 0.404837
O	-1.134966173	 1.791234106	-0.5848799244	-0.235325
C	-1.2707973179	 3.1881948831	-0.7284764079	 0.132131
C	-1.1458544905	 4.0425869592	 0.4974376789	-0.345574
C	-0.057517477	 4.0668470174	-0.561484005	-0.082212
C	 1.2372642707	 3.3280633761	-0.4251568932	-0.021579
C	 1.7848998748	 2.78464144	 0.8579546792	-0.257043
N	 1.1521496434	 1.9060989093	-0.1213612141	-0.132515
H	-2.0178323385	 3.4011022223	-1.482568293	 0.120564
H	-1.7714087809	 4.9228692551	 0.5914023074	 0.129197
H	-0.9614101747	 3.5266744791	 1.4346436141	 0.139336
H	-0.0052593546	 4.9554399303	-1.180373827	 0.1051
H	 1.9538313365	 3.5532163227	-1.2122949477	 0.110508
H	 2.8561701631	 2.6524585739	 0.9757989733	 0.134832
H	 1.2429894392	 2.9868797617	 1.7773513711	 0.135633
