18
gdb 15060	2.91709	1.47417	1.04372	1.5497	73.73	-0.2566	0.0457	0.3023	1131.1715	0.152295	-347.750846	-347.742051	-347.741106	-347.784343	32.464	
O	 0.0229874897	 1.3755217108	 0.081798138	-0.422002
C	-0.0617893129	-0.0310592733	 0.1282147148	-0.057566
C	-1.5081422275	-0.5500023753	-0.06274239	-0.207305
C	-2.0354703912	-0.0556399502	-1.33579048	 0.310897
C	-2.4087513422	 0.3754230369	-2.3955369449	-0.462291
C	-1.5708398688	-2.0676888439	 0.0306859479	 0.033495
C	-1.6388500327	-2.7328065491	 1.382951724	-0.278443
C	-2.836575036	-2.7562758147	 0.4653955965	-0.267302
H	-0.3504536023	 1.6526482091	-0.7638366483	 0.285041
H	 0.5873785319	-0.5058484576	-0.6247701183	 0.090271
H	 0.2943358329	-0.334784684	 1.1168643798	 0.113377
H	-2.1129225244	-0.1222472673	 0.7487810344	 0.107425
H	-2.7706979187	 0.7401706577	-3.3250917084	 0.199327
H	-0.9857723586	-2.5765838976	-0.7303350483	 0.092492
H	-1.0819944357	-3.6506822332	 1.5338987399	 0.114966
H	-1.687497793	-2.0951078061	 2.2599399564	 0.115229
H	-3.6865001984	-2.1340873398	 0.7256549826	 0.117062
H	-3.1027733223	-3.6909687824	-0.0149221762	 0.115326
