17
gdb 3261	3.36984	3.2805	1.77597	0.0455	70.9	-0.2308	0.0243	0.255	736.4051	0.150639	-272.591906	-272.585348	-272.584404	-272.622713	24.94	
C	-0.0907528516	 1.426536532	 0.1490261879	-0.241457
C	 1.1982800939	 2.262945629	 0.0804674782	-0.241436
C	 2.2961202474	 1.8427158658	 1.0238945651	-0.062565
C	 2.7094857833	 0.6112544982	 1.3198642101	-0.034121
C	 2.2573096384	-0.7252701744	 0.7993143214	-0.298083
C	 1.0171278677	-0.8723890578	-0.038594395	-0.034137
C	 0.0398371203	-0.0059150122	-0.3014560807	-0.062571
H	-0.4767675741	 1.4586519151	 1.1772775461	 0.112826
H	-0.8523574513	 1.9164888124	-0.4687248951	 0.095126
H	 1.5715876989	 2.2500045165	-0.9528854799	 0.112827
H	 0.9421239718	 3.3080743023	 0.2897828344	 0.095125
H	 2.8195983603	 2.6624703909	 1.5127063334	 0.079797
H	 3.5353180062	 0.5265463736	 2.0255203639	 0.0809
H	 3.1014436354	-1.1608089384	 0.2383439266	 0.118525
H	 2.1547791648	-1.4090625794	 1.658902075	 0.118541
H	 0.9113551119	-1.8735342511	-0.4552951699	 0.080903
H	-0.7840987334	-0.3719191625	-0.9114788115	 0.079801
