17
gdb 74173	2.79157	1.23821	0.93156	2.1127	77.9	-0.245	-0.0595	0.1856	1229.9813	0.134356	-421.881338	-421.872542	-421.871598	-421.915861	31.428	
C	-0.0939571057	 1.4554838151	 0.1708805255	-0.490641
C	-0.0096776093	-0.0279257554	 0.0334220275	 0.312147
C	 0.0359437347	-0.7523975287	-1.095827358	-0.29396
C	 0.0568217969	-2.2011164311	-0.8106593659	 0.395254
O	 0.1219722249	-3.1090709617	-1.6048627633	-0.327764
C	-0.0417502662	-2.3501397977	 0.719174451	-0.377487
C	 0.046132309	-0.9185620332	 1.2753399521	-0.162194
C	 1.3682654965	-0.6524018197	 1.9900034796	 0.153505
O	 1.5050753744	 0.1077001213	 2.9108972511	-0.244933
H	 0.6851547851	 1.8343939843	 0.8416564163	 0.157871
H	-0.0098356342	 1.9580323593	-0.7949245753	 0.137488
H	-1.0515161985	 1.7385872861	 0.6263448517	 0.14685
H	 0.0319565194	-0.361221007	-2.1056811511	 0.117243
H	-0.9950060368	-2.8229346287	 0.9725450736	 0.143835
H	 0.7477951453	-3.0152278307	 1.0830051075	 0.134219
H	-0.7540981221	-0.6559995323	 1.9748393355	 0.108073
H	 2.2330163166	-1.2075928599	 1.5581328721	 0.090493
