13
gdb 17426	3.27133	2.68461	1.85662	1.2406	57.51	-0.2427	-0.0147	0.228	702.5719	0.095601	-398.54115	-398.535008	-398.534064	-398.571165	24.047	
O	 0.0818503072	 1.4577852685	-0.0456287347	-0.461574
C	-0.0289513614	 0.1009519037	-0.0738276878	 0.268696
C	 0.4131964791	-0.7612894895	-1.2528568566	-0.19927
N	-0.5210274301	-1.8524819994	-0.7718170723	-0.130335
C	-0.4209022081	-1.8766033578	 0.724740268	-0.170161
C	-1.3104259971	-0.892200583	-0.0072618129	-0.132085
C	 0.4085893157	-0.7124064925	 1.1508438492	 0.367172
O	 0.9396142697	-0.3466156673	 2.1658781407	-0.353598
H	 0.33721479	 1.7089263878	 0.8547511627	 0.30221
H	 0.0428809877	-0.4135415698	-2.2193535194	 0.131112
H	 1.4707802977	-1.0383186026	-1.3228008668	 0.117794
H	-0.6823947617	-2.7904858953	 1.2385256654	 0.130348
H	-2.3863039987	-0.7880908128	 0.0155836545	 0.129692
