20
gdb 105796	2.3582	1.44232	1.17465	2.2028	78.72	-0.2219	0.0581	0.28	1151.0535	0.17051	-403.044012	-403.035224	-403.03428	-403.077443	33.707	
C	-0.0355700714	 1.5918573333	 0.0899262452	-0.444178
C	 0.143240592	 0.0753802337	 0.0956774621	-0.072671
C	 1.272556349	-0.8493013651	-0.3289641079	-0.098819
N	 2.7145668559	-0.5779893571	 0.0370720351	-0.135591
C	 2.8430351125	 0.7291855945	 0.7037537777	-0.255542
C	 2.2522688276	-0.3985166079	 1.4612192845	-0.089436
C	 0.8057862687	-0.8184731743	 1.1163615535	 0.273708
C	 0.0957858727	-1.8568810899	 1.9308750049	-0.171125
O	-0.3518499899	-1.3573700378	 3.1865366374	-0.413641
H	 0.3946104336	 2.0577308763	-0.8028282489	 0.13256
H	-1.1043903426	 1.8290172419	 0.0915259397	 0.113817
H	 0.3991971097	 2.0707789632	 0.9697706487	 0.133242
H	-0.7682769992	-0.4207606343	-0.2429055206	 0.094559
H	 1.1161076575	-1.6029329107	-1.0918361126	 0.101906
H	 3.8813635578	 0.9543298412	 0.9358632968	 0.122668
H	 2.2749726718	 1.5802645288	 0.3623102047	 0.124505
H	 2.7863989967	-0.8813366639	 2.2738429706	 0.104602
H	-0.7350391528	-2.2798596694	 1.3433404219	 0.085286
H	 0.7743215882	-2.682055451	 2.1762464637	 0.113905
H	-0.9112512976	-0.5941911216	 3.0075047835	 0.280244
