21
gdb 60240	3.00189	0.92136	0.83959	3.3593	79.82	-0.2362	-0.015	0.2213	1484.7863	0.180309	-424.240273	-424.230342	-424.229398	-424.275771	36.421	
C	 0.2319046101	 1.5316218994	 0.1857893864	-0.408037
C	 0.0487771217	 0.0232473554	 0.0296876345	 0.134814
O	 0.8012217766	-0.6935810952	 1.009832049	-0.4308
C	-1.4317429433	-0.3911169324	 0.0630986945	-0.231407
C	-1.6209598599	-1.8819606288	-0.1966458532	-0.074891
C	-3.0447644675	-2.5268035409	-0.1845088768	-0.268049
C	-2.7245730721	-3.2861201333	-1.508465402	-0.331997
C	-1.4921654445	-2.3778403807	-1.6470622086	 0.393758
O	-0.7901206054	-2.0614144621	-2.5657175072	-0.303225
H	 1.2951161942	 1.7861584961	 0.1858563999	 0.125925
H	-0.2559253822	 2.0762275729	-0.6288162249	 0.120143
H	-0.2055879399	 1.8825973719	 1.1297135087	 0.102218
H	 0.4718198694	-0.297779678	-0.9280509504	 0.120451
H	 0.5313580288	-0.3696196773	 1.8768653484	 0.274131
H	-1.8551785647	-0.130463491	 1.0445602308	 0.085393
H	-1.9881703969	 0.1917648608	-0.6819693344	 0.098593
H	-0.9289450415	-2.4462656759	 0.43996498	 0.115974
H	-3.28714651	-3.1434986569	 0.6818495345	 0.107348
H	-3.8328991275	-1.7815488288	-0.3200269117	 0.110431
H	-2.4365953255	-4.3302494049	-1.3480474279	 0.13229
H	-3.4502610398	-3.2467527604	-2.3242635496	 0.126939
