17
gdb 67109	2.60851	2.10153	1.75844	1.1391	70.94	-0.2341	0.0648	0.2989	858.0064	0.136017	-421.704612	-421.697819	-421.696874	-421.735363	27.891	
C	-0.0650228983	 1.5321833011	-0.0970518802	-0.533751
C	-0.1163830064	 0.0357051324	-0.1102401195	 0.29679
C	 0.8263445189	-0.9641371481	-0.8290475477	-0.065589
O	 1.8741568897	-0.9211888528	 0.261504011	-0.392115
C	 0.59130087	-0.9168923172	 0.9171399711	 0.375858
C	-0.1798604268	-0.8696727267	 2.2161358269	-0.180179
O	-1.4983689304	-0.888445674	 1.6098932208	-0.299854
C	-1.2701209129	-0.9393162121	 0.1597420774	 0.005397
C	-0.110626393	-1.913354006	-0.052766523	-0.116283
H	 0.9708034655	 1.8714564322	 0.0108355764	 0.137136
H	-0.4695670263	 1.9592171677	-1.0206711579	 0.125685
H	-0.6497061377	 1.9300729757	 0.7390546618	 0.133923
H	 1.2106564972	-1.0001103128	-1.8464354453	 0.100798
H	-0.0468710923	-1.7424815553	 2.8633288333	 0.117537
H	-0.0406645827	 0.0498999933	 2.7947350758	 0.115727
H	-2.2400148253	-0.9609246811	-0.3319459324	 0.086164
H	-0.0658482893	-2.9974116462	 0.0202990716	 0.092757
