20
gdb 54758	2.59353	1.39331	1.1575	3.8907	80.33	-0.2323	-0.0218	0.2105	1163.131	0.16954	-403.089769	-403.08076	-403.079816	-403.123807	33.733	
C	-0.0574213009	 1.5141173315	-0.3845390193	-0.485802
C	 0.0811163117	 0.0698235845	 0.0711339372	 0.357449
O	 1.1567568363	-0.4128325708	 0.3448162241	-0.295775
C	-1.2257525793	-0.6940261125	 0.1419521392	-0.089765
N	-1.1985171921	-2.2143003159	 0.3537888409	-0.147963
C	-0.9189415953	-1.895820394	 1.8389187145	-0.212559
C	-2.0130752362	-0.8557713247	 1.4937102938	 0.287485
C	-2.6404332429	 0.2110881373	 2.3554686393	-0.520989
C	-2.67609841	-2.038871667	 0.7525915688	-0.20188
H	 0.8908616153	 2.0353594157	-0.2492750712	 0.144215
H	-0.3370613633	 1.5436085765	-1.4443830156	 0.146335
H	-0.8524206235	 2.0276007435	 0.1677845318	 0.136324
H	-1.8524982062	-0.4059203096	-0.7115103456	 0.076664
H	-1.2065339207	-2.7112999027	 2.5085558067	 0.096202
H	 0.0981496436	-1.5596390316	 2.0266246127	 0.136438
H	-1.8872175936	 0.9098827878	 2.7353525074	 0.126035
H	-3.3861050969	 0.7856450733	 1.7950092916	 0.121561
H	-3.1435252393	-0.2375941115	 3.2189718595	 0.127597
H	-3.3393279445	-1.8205726783	-0.0900186107	 0.097145
H	-3.0559280622	-2.8677186816	 1.3564117649	 0.101282
