20
gdb 59006	3.16549	1.02144	0.93423	3.7747	82.18	-0.2095	0.0049	0.2144	1359.2197	0.170385	-403.210985	-403.201596	-403.200652	-403.245315	35.048	
C	 0.0001299329	 1.5583273872	 0.0074422651	-0.38692
C	 0.0031498673	 0.0178023343	 0.0393578049	-0.091729
C	 0.7735873666	-0.5132825113	 1.2635473236	-0.386877
C	-1.3880498495	-0.5415396917	-0.0262815523	 0.399575
C	-1.9569634702	-1.3195178058	-0.9575299733	-0.254832
C	-3.3801360082	-1.6112342339	-0.5628262056	-0.38322
C	-3.543722856	-0.862623702	 0.7712407294	 0.401792
O	-4.514396638	-0.7893079592	 1.4882716036	-0.37035
N	-2.3165594292	-0.2652492276	 0.9997897208	-0.373443
H	 1.0251001056	 1.9416369804	-0.0030348614	 0.11907
H	-0.5169193458	 1.9333661685	-0.8801151198	 0.126237
H	-0.4988571964	 1.9782142841	 0.8878767273	 0.11233
H	 0.5139861043	-0.3383959132	-0.8626984049	 0.091949
H	 0.8054218424	-1.606321837	 1.265635812	 0.126231
H	 1.8017526494	-0.1385059762	 1.2592346245	 0.119047
H	 0.3098138246	-0.1902254994	 2.202165064	 0.112348
H	-1.4695903475	-1.6799606018	-1.8510032132	 0.098614
H	-4.12668276	-1.2456355701	-1.277942827	 0.142136
H	-3.5926656543	-2.6760180345	-0.4097089708	 0.142103
H	-2.1410840982	 0.2962065892	 1.8161766332	 0.25594
