22
gdb 97381	2.70183	0.98412	0.82956	2.9073	87.38	-0.2432	0.0278	0.271	1514.0498	0.191027	-404.338233	-404.327714	-404.32677	-404.373709	38.385	
C	 1.2675666891	-2.48000815	 3.0140045669	-0.314082
N	 0.7355476949	-2.1151088279	 1.7181767071	-0.212042
C	-0.3726279666	-2.6102264748	 1.3901762064	 0.122297
O	-0.9165208376	-2.3354665783	 0.1820292144	-0.24398
C	-2.2331562973	-2.8153082309	-0.0364249176	 0.406844
C	-3.2888868479	-2.0489032267	 0.7268511849	-0.449105
C	-2.4852135843	-3.2378495935	-1.4521554643	-0.345745
C	-2.407100588	-4.2860083152	-0.357156832	-0.045928
C	-1.2531648937	-5.2634273122	-0.3274190133	-0.420599
H	 1.4371724516	-1.5759958679	 3.6101486875	 0.126583
H	 0.6181528884	-3.1581131728	 3.5926648593	 0.092895
H	 2.2429398297	-2.9646045528	 2.8894794774	 0.126508
H	-0.969126098	-3.2920166134	 2.0143692947	 0.079374
H	-3.2355539263	-0.9833408795	 0.4810257569	 0.134471
H	-4.2875288628	-2.4124086734	 0.4696397217	 0.121343
H	-3.1621592168	-2.1534612582	 1.8099444181	 0.119046
H	-3.4443174685	-2.9994102384	-1.8985785402	 0.11233
H	-1.6392584457	-3.17427726	-2.1280171609	 0.12838
H	-3.3593230209	-4.7038965003	-0.0385194619	 0.085823
H	-0.3168865483	-4.7800513171	-0.6178455781	 0.139472
H	-1.1137066492	-5.6933007041	 0.6708373036	 0.115542
H	-1.4330493917	-6.0911462826	-1.0217041407	 0.120576
