20
gdb 12830	3.0578	2.19392	1.67607	0.3925	80.96	-0.2199	0.024	0.2439	878.8795	0.178442	-311.860632	-311.853262	-311.852318	-311.891662	29.77	
C	-0.1048067836	 1.5729866168	-0.1424337963	-0.454136
C	-0.0445227157	 0.0461034903	-0.0361111818	 0.319446
C	 1.1537706451	-0.5592034816	-0.8642110469	-0.28162
C	 2.0021730829	-0.6173455966	 0.4627644841	-0.327395
C	 0.6740258956	-0.5052907202	 1.1742575878	 0.289229
C	-0.1282238462	-1.0935768026	 2.0540887606	-0.237274
C	-1.5782761562	-0.9171414468	 1.6043777573	-0.240116
C	-1.4402824291	-0.6116254132	 0.0760276624	-0.293405
H	 0.8839226806	 2.0286178554	-0.0227272835	 0.11025
H	-0.4938513521	 1.8764349728	-1.1215038949	 0.11175
H	-0.7605089185	 1.9968622133	 0.6258101789	 0.115873
H	 0.9310837665	-1.5605540302	-1.240692956	 0.103091
H	 1.5537502683	 0.055998288	-1.6753234411	 0.093564
H	 2.6045007558	-1.5086141331	 0.6530106966	 0.108404
H	 2.6415289445	 0.2652924338	 0.5678507681	 0.111076
H	 0.1581202742	-1.694269241	 2.910105933	 0.087204
H	-2.1736708964	-1.818046568	 1.7889668222	 0.098779
H	-2.0865120364	-0.1011207901	 2.1376382772	 0.102005
H	-2.253279056	 0.0134818858	-0.3073284714	 0.087436
H	-1.4597596132	-1.5561702927	-0.4789955263	 0.095839
