18
gdb 55901	2.53523	1.07163	0.8843	5.7524	74.75	-0.2427	-0.0182	0.2245	1362.6149	0.145114	-439.114401	-439.104499	-439.103554	-439.151705	34.154	
C	-0.1273575482	 1.4509705645	 0.050150049	-0.492677
C	-0.2739490937	-0.0246474817	-0.2841285876	 0.401903
O	 0.3131071725	-0.5622344694	-1.2007938747	-0.352494
N	-1.1235908839	-0.7249293599	 0.5413984595	-0.323733
C	-1.2186596078	-2.1498752066	 0.4650692923	 0.046641
C	-2.4698234738	-2.8007626798	 0.9390597783	-0.349651
C	-2.1449105417	-2.8136408813	-0.5516008764	-0.087682
C	-2.9821946588	-1.9965116311	-1.4598818096	 0.178457
O	-3.3217045806	-2.3442033076	-2.5632545469	-0.266301
H	 0.0562111967	 2.0010508758	-0.8734096059	 0.15902
H	-1.0055455407	 1.8636699807	 0.5545086121	 0.120771
H	 0.7412537742	 1.5901893973	 0.702708898	 0.150937
H	-1.4778214761	-0.2736718469	 1.3697044825	 0.24845
H	-0.2801955817	-2.6775342469	 0.6137644162	 0.123145
H	-2.4069805714	-3.7389961891	 1.4767071458	 0.137917
H	-3.2832758705	-2.1525825445	 1.2518279383	 0.125809
H	-1.7966991559	-3.7438600737	-0.9848849901	 0.115956
H	-3.3006439186	-1.01655342	-1.039069881	 0.06353
