18
gdb 91684	3.32179	1.2927	1.14106	2.0519	77.94	-0.2267	0.0381	0.2648	1110.9821	0.148353	-401.867491	-401.859645	-401.858701	-401.899512	31.385	
O	-0.1612262466	 1.4108930589	-0.000089921	-0.437088
C	-0.0383881405	-0.0012438046	 0.0139366557	 0.096088
C	 0.4195758536	-0.6037699823	 1.3926053411	-0.213826
N	-0.7691268759	-1.391024587	 1.8282138469	-0.125676
C	-1.1093959434	-2.0620862515	 0.505180977	-0.202638
C	-1.4283397379	-0.643029197	-0.0152635055	-0.03435
C	-1.8754851078	-0.3891289388	 1.4623118899	-0.185726
C	-3.2069905348	-0.8297502772	 1.8258794138	 0.322724
C	-4.3257535821	-1.1573952643	 2.1195009995	-0.402702
H	 0.7185948823	 1.792597992	 0.0749190326	 0.285692
H	 0.5831320822	-0.3435752235	-0.8251707043	 0.069201
H	 1.2850696931	-1.2667886462	 1.3143430794	 0.105694
H	 0.6391808791	 0.18781639	 2.1146884827	 0.107121
H	-0.286079405	-2.6218074139	 0.0514176324	 0.098981
H	-1.987136074	-2.6978347281	 0.6194578602	 0.129823
H	-2.0652381016	-0.4305528311	-0.8736298752	 0.080865
H	-1.6899847408	 0.6174402443	 1.8454750606	 0.113393
H	-5.3102185199	-1.4515898496	 2.3877533543	 0.192425
