20
gdb 24580	4.7636	0.95319	0.90799	1.8212	87.2	-0.192	0.0469	0.2389	1357.6187	0.173815	-366.040947	-366.032912	-366.031967	-366.074955	31.106	
C	-0.042277354	 1.6206901112	 0.0568752922	-0.215498
C	 1.5047536727	 1.5471958938	 0.1383827452	-0.218181
C	 1.3810199959	 0.0352621838	 0.5160023492	-0.0855
C	-0.06616451	 0.0754796968	-0.0738809247	-0.218174
C	 2.3707335789	-0.9459231894	-0.005338535	 0.311028
C	 2.8012452064	-1.2191118232	-1.2897287349	-0.226215
C	 3.7666721973	-2.2601686638	-1.2183973863	-0.136558
C	 3.9050808457	-2.6011406815	 0.106779235	-0.103859
N	 3.0566241744	-1.7999886393	 0.8285923948	-0.29914
H	-0.4829999492	 1.9549697562	 1.0008723926	 0.09885
H	-0.480528482	 2.2055425762	-0.7547821551	 0.09661
H	 1.9683015253	 1.6592307939	-0.8456843929	 0.108387
H	 2.0214512137	 2.2027796064	 0.8440385164	 0.094146
H	 1.3198830345	-0.0568855251	 1.6073053837	 0.054207
H	-0.843000565	-0.4807720652	 0.4569957564	 0.094132
H	-0.0620291803	-0.2429340973	-1.1200233745	 0.108384
H	 2.4579699875	-0.7223373275	-2.1849619644	 0.08428
H	 4.2980481767	-2.707240795	-2.0446181892	 0.088534
H	 4.5264929854	-3.3356185225	 0.5932071856	 0.110824
H	 2.9455490663	-1.8267761387	 1.827437436	 0.253742
