20
gdb 76303	2.67143	1.31751	1.12511	3.5594	79.22	-0.2724	0.0226	0.295	1170.9212	0.170064	-403.160012	-403.150418	-403.149474	-403.194008	35.777	
C	-1.0671994641	 0.9683986251	 0.1616965176	-0.415194
C	-0.0586933049	-0.1634683078	 0.0430532051	 0.014079
C	 0.82352403	-0.3223908152	-1.243333023	-0.025719
C	 1.0843012475	 0.9433740871	-2.0514441547	-0.407152
C	 1.9986623138	-0.7663761459	-0.2965949865	-0.190971
C	 3.342672162	-0.2775531315	-0.5299609471	 0.270825
N	 4.4091295504	 0.1499121578	-0.6682680775	-0.3412
C	 1.2276311536	-0.1143273791	 0.9089742529	 0.093653
O	 1.5969192395	 1.2202666139	 1.1526982277	-0.416348
H	-0.5933873534	 1.9441797527	 0.0415070074	 0.140743
H	-1.8517312522	 0.8673024063	-0.5956629361	 0.114745
H	-1.550082327	 0.9525623825	 1.1442519996	 0.119176
H	-0.5566494636	-1.1197363919	 0.2393493844	 0.078552
H	 0.496845492	-1.1238637417	-1.911501033	 0.079752
H	 1.4425420796	 1.7577297954	-1.418041348	 0.144744
H	 1.8380192294	 0.7585392241	-2.8234652746	 0.127323
H	 0.1673065416	 1.2728789626	-2.5499909762	 0.116984
H	 2.0234430323	-1.8545296621	-0.1897754246	 0.121091
H	 1.2290310047	-0.7054291512	 1.8343356295	 0.075386
H	 2.5256429889	 1.2433774089	 1.411990547	 0.299533
