17
gdb 43012	2.59743	2.01328	1.30833	2.8852	72.07	-0.2368	-0.007	0.2298	957.431	0.138278	-417.975686	-417.96874	-417.967796	-418.006961	27.67	
O	-0.0186197283	 0.0842977766	 0.7874475001	-0.335392
C	-0.0442629639	 1.2004850867	 0.3285994552	 0.330684
C	-1.2982897735	 1.9757834271	-0.0282445088	-0.098358
C	-2.2044342229	 2.4783011258	 1.0313781705	-0.245576
N	-1.3174620961	 3.4091656141	 0.3184410215	-0.09596
C	-0.105634693	 3.8130806714	 1.0624665964	-0.200288
C	 1.1205833259	 3.3529469437	 0.2979788659	-0.01128
C	 2.0923770212	 2.3919964225	 0.9245553549	-0.252646
N	 1.0949871094	 1.9330878601	-0.0228723513	-0.0715
H	-1.7051894135	 1.7366404147	-1.0083908942	 0.124414
H	-3.2647825387	 2.590062886	 0.8262247842	 0.125874
H	-1.9631988949	 2.232850704	 2.0637978538	 0.124652
H	-0.1184801514	 4.8993209125	 1.1850630365	 0.121327
H	-0.0823600059	 3.3657713666	 2.0690706791	 0.103086
H	 1.4699377158	 3.9970350044	-0.5056593979	 0.111017
H	 3.120550689	 2.3622362305	 0.5762154029	 0.133761
H	 1.9497655207	 2.1229870834	 1.9681822711	 0.136185
