15
gdb 2384	4.68142	2.0391	1.8451	2.7156	58.92	-0.2241	0.0152	0.2393	743.3879	0.124759	-341.836362	-341.828722	-341.827778	-341.86803	27.277	
C	-0.9046399601	 1.0578697744	 0.5407759766	-0.326086
N	-0.1084255031	-0.1242396859	 0.2133115844	-0.085287
C	 1.1082736284	 0.0522419188	-0.5476406551	-0.234305
C	 1.1769040866	-0.3652134624	 0.8879015177	-0.104972
C	 1.7484909513	 0.6188899951	 1.8729398853	 0.417308
N	 2.2218913266	 0.0467597766	 3.0188769838	-0.534771
O	 1.7989770079	 1.821686012	 1.6777887953	-0.373171
H	-0.3108799691	 1.9557577886	 0.7419922293	 0.148986
H	-1.5765686062	 1.2469558338	-0.3020659138	 0.120317
H	-1.5198858192	 0.8356203162	 1.4186685995	 0.116893
H	 1.3003879183	-0.680643506	-1.3273328906	 0.11386
H	 1.4450535516	 1.0670242098	-0.7505734597	 0.13607
H	 1.3457421959	-1.4143408856	 1.1252103999	 0.081062
H	 2.088179397	-0.9263775769	 3.2286795668	 0.261566
H	 2.5759399541	 0.6538811414	 3.7397299307	 0.26253
