19
gdb 31138	1.98571	1.66716	0.96978	1.0507	78.92	-0.1635	0.056	0.2196	1228.2523	0.159008	-419.23857	-419.228551	-419.227607	-419.273153	36.771	
C	 0.160342395	 1.603626821	 0.1616134725	-0.361937
C	-0.0904115002	 0.1044431885	-0.0835468235	-0.327146
C	 0.6484849148	-0.4496348367	-1.2660491769	 0.097141
C	 0.122206637	-0.8160183245	-2.4863626781	 0.307023
O	-1.149655251	-0.8365184801	-2.9672008612	-0.439006
N	 1.1168649783	-1.2319049923	-3.3113438793	-0.307074
C	 2.3324066408	-1.1576041708	-2.6324157308	-0.183233
C	 2.0660503301	-0.6715895434	-1.3772614212	 0.166864
N	 2.9940145725	-0.3468100078	-0.3620911482	-0.605732
H	 1.2287538131	 1.7919109111	 0.2991435434	 0.139159
H	-0.17219678	 2.198188611	-0.6951972434	 0.111344
H	-0.371702569	 1.9560145235	 1.0520642447	 0.0998
H	 0.176482761	-0.4534204685	 0.8260446294	 0.095201
H	-1.1703401103	-0.06776039	-0.2041078228	 0.071361
H	-1.7299106756	-0.4731927524	-2.291165717	 0.303286
H	 0.9754307027	-1.5573859721	-4.2501466807	 0.261041
H	 3.2558748315	-1.4399855593	-3.1088462003	 0.101129
H	 3.9059239347	-0.7480490603	-0.5454786887	 0.234598
H	 2.6859700848	-0.673235077	 0.5474181821	 0.236181
