16
gdb 56464	2.71912	1.04342	0.83162	0.8597	74.11	-0.2688	-0.0309	0.238	1384.3964	0.120951	-437.882616	-437.872795	-437.871851	-437.918571	33.915	
C	 0.5528882587	 1.7928824744	-0.5334438357	-0.389104
C	 0.1145045902	 0.4839699937	 0.1430638275	-0.25821
C	 0.2844333455	-0.6768193665	-0.7300563697	 0.331642
C	 0.4490968453	-1.6162063697	-1.4602159134	-0.468024
C	 0.8983597625	 0.2502567093	 1.4374854033	 0.470963
O	 1.9115489147	 0.8073555583	 1.7518578809	-0.331467
O	 0.2628910286	-0.6926596942	 2.1985325614	-0.20237
C	 0.8613324111	-1.0868350959	 3.3732305031	 0.117477
N	 0.2468200702	-1.912591876	 4.0937360666	-0.414472
H	 1.6160695411	 1.7577508423	-0.7766484241	 0.148444
H	-0.0162680445	 1.9423422459	-1.4531527956	 0.130743
H	 0.3808366392	 2.6412689738	 0.1335883066	 0.12859
H	-0.943129883	 0.5448516468	 0.4299167775	 0.141524
H	 0.5815218336	-2.4525360471	-2.101337054	 0.206686
H	 1.830593524	-0.614984467	 3.5340647845	 0.145358
H	 0.7988158027	-2.1242867382	 4.9238847009	 0.242219
