12
gdb 42523	4.01095	1.0673	0.89367	3.8517	68.21	-0.28	-0.0707	0.2093	1203.4601	0.074622	-435.438306	-435.430058	-435.429114	-435.472072	28.773	
O	-0.0183489871	 0.0424975585	-0.3378754934	-0.228786
C	 0.0960212523	 1.2076314115	-0.1812476046	 0.349381
C	-0.8482478203	 2.4366637449	-0.0672099696	-0.164933
O	 0.3288806616	 3.2897032521	 0.0596578828	-0.278063
C	 1.2784378865	 2.2129493414	-0.0199608979	-0.123355
C	 2.0975480858	 2.0545122974	 1.1761586826	 0.288646
N	 2.7352780522	 1.9107759459	 2.1290238483	-0.302339
C	-1.6839284288	 2.7299364124	-1.2079701103	 0.322322
C	-2.372112048	 2.9503422973	-2.1675903084	-0.410941
H	-1.426537158	 2.4304240433	 0.8664994491	 0.159179
H	 1.9160681933	 2.2835204574	-0.9102968251	 0.168002
H	-2.9861145095	 3.1510531776	-3.0116028535	 0.220888
