20
gdb 39053	2.43956	1.95699	1.32648	1.3537	83.18	-0.2187	0.0136	0.2323	1013.1317	0.174786	-365.979204	-365.972031	-365.971087	-366.010296	30.174	
C	 0.0120753493	 1.5835643128	 0.1502280539	-0.311671
C	 1.283127389	 0.794523072	-0.0429189118	-0.005449
C	 2.3502530229	 0.7002854635	 1.0402803867	-0.287999
C	 2.7962618401	-0.7272262906	 1.28103194	-0.089642
C	 1.9979973295	-1.7166456159	 1.6890943537	-0.007458
C	 0.5481238736	-1.6260382991	 2.006059729	-0.075598
N	 0.0167262872	-0.3644302724	 2.5788071108	-0.342256
C	-0.4278415475	-0.7710203982	 1.2446265023	-0.044993
C	-0.042355911	 0.0727196372	 0.0694352455	 0.001124
H	-0.1463250745	 2.0175984687	 1.1319053823	 0.121186
H	-0.3847944313	 2.1634983251	-0.6759908619	 0.103597
H	 1.690875592	 0.7983072956	-1.0502820028	 0.079838
H	 3.2074412778	 1.314405602	 0.7450397861	 0.089142
H	 1.9660564357	 1.1166884561	 1.974415961	 0.138677
H	 3.8420766394	-0.9615871977	 1.0965661865	 0.084362
H	 2.4234136555	-2.7105213198	 1.8083684734	 0.078966
H	 0.1312804714	-2.5441334228	 2.4152232932	 0.078128
H	-0.6949380687	-0.5706591226	 3.2732322022	 0.232092
H	-1.4345824067	-1.1813623731	 1.1689041283	 0.07992
H	-0.4177417736	-0.3358574809	-0.8653712284	 0.078033
