19
gdb 90395	2.21662	1.5362	1.33793	3.7845	80.93	-0.2183	0.0291	0.2474	1085.2646	0.158551	-382.045134	-382.036103	-382.035158	-382.0785	33.642	
C	-0.3909138544	 1.3977188672	 0.0359907069	-0.356944
N	 0.0918419955	 0.0267751233	-0.0082430733	-0.111852
C	 1.1268552257	-0.4013195721	-0.9844192785	-0.195793
C	 1.8677849989	-1.1177772466	 0.1473737104	-0.155065
C	 2.2945099609	-0.1072403683	 1.2027147091	-0.237112
C	 2.7907402965	 1.1975242033	 0.8670120522	 0.307921
N	 3.2007017015	 2.2451050963	 0.5919082425	-0.36405
C	 0.8242124215	-0.5637941163	 1.0964406182	 0.340921
C	 0.1031744211	-1.1436055352	 2.2777208428	-0.481949
H	 0.3992703554	 2.1556361448	 0.1280361942	 0.137595
H	-0.9617934535	 1.6028570854	-0.8755205517	 0.123808
H	-1.0758593006	 1.5059229305	 0.8832683341	 0.122876
H	 0.7213061195	-1.0689591903	-1.7510791033	 0.114638
H	 1.6838688964	 0.4107318772	-1.4685445357	 0.123191
H	 2.3133642017	-2.1028434841	 0.1024896812	 0.107423
H	 2.8102377287	-0.5569272138	 2.0465286069	 0.129805
H	-0.3358091191	-0.3526892286	 2.8963634013	 0.133658
H	-0.705292217	-1.7984682268	 1.9397450974	 0.135768
H	 0.7827691714	-1.7207546659	 2.9111798055	 0.125161
