15
gdb 57031	2.25234	1.47143	1.22145	5.6865	64.52	-0.2743	-0.0164	0.2579	1061.1137	0.113246	-453.964944	-453.956501	-453.955557	-453.998591	30.018	
N	-0.1481641415	 1.5551458744	-0.1271305832	-0.496892
C	-0.0250313529	 0.107500435	 0.018572876	-0.155038
C	-1.3441070404	-0.4716631626	 0.3329162765	 0.311088
N	-2.3622206098	-0.9666474742	 0.5622263961	-0.318744
C	 0.5956958502	-0.5945514065	-1.2144792955	-0.217174
C	 0.4253598247	-2.1058169773	-1.4725010237	-0.106357
O	-0.2813006883	-1.8133622006	-2.7261478545	-0.23186
C	-0.2041363218	-0.4670873323	-2.5167410218	 0.475536
O	-0.6617792656	 0.4148559102	-3.1717170576	-0.324304
H	 0.7759749925	 1.9734001416	-0.1640864143	 0.242281
H	-0.6121839587	 1.7724659709	-1.0058435129	 0.265384
H	 0.6140558769	-0.088523236	 0.8881327628	 0.143243
H	 1.6232176917	-0.2403665531	-1.3305068265	 0.124561
H	 1.3376695593	-2.6716652892	-1.6653935743	 0.133557
H	-0.2327106662	-2.6383564704	-0.7843503772	 0.154718
