16
gdb 105861	2.13691	1.64504	1.29595	4.2635	65.79	-0.2328	0.0025	0.2354	1042.3503	0.122628	-474.984335	-474.975599	-474.974655	-475.017989	31.661	
C	 0.0438068317	 1.3513272625	 0.1928471335	-0.266924
O	 0.0364515261	-0.0356332841	-0.1481759283	-0.274943
C	-1.2140591055	-0.5824404977	-0.1177682849	 0.252989
C	-1.8670881127	-1.1020831631	 1.1549394654	 0.014185
O	-3.1402447466	-0.6725271348	 1.5211127382	-0.41298
C	-1.6235830609	-2.0503387408	 0.0064921774	-0.163192
N	-2.6070827739	-1.8555158885	-1.065090179	-0.338856
C	-2.2998900704	-0.4824649804	-1.1943719931	 0.36588
O	-2.7451796165	 0.3763758501	-1.8970760783	-0.340405
H	 1.0801868706	 1.6842563787	 0.1152500488	 0.132302
H	-0.5814986189	 1.928450114	-0.4971196168	 0.148039
H	-0.3146981135	 1.5069490939	 1.2191040908	 0.118756
H	-1.1421398863	-1.1874253981	 1.9675243977	 0.105474
H	-3.535312911	-1.3440223607	 2.0884246532	 0.292885
H	-0.9952464511	-2.9312519133	 0.0319996964	 0.123849
H	-3.5710847014	-2.1531541477	-0.9609214008	 0.24294
