23
gdb 109270	3.00802	1.09885	0.87928	0.3074	93.53	-0.2253	0.0263	0.2516	1419.7771	0.206937	-351.173108	-351.163751	-351.162807	-351.207823	35.545	
C	 0.5302144461	 1.2163166181	 0.2152349551	-0.369784
C	 0.0108351584	-0.2274692191	 0.0961158502	-0.276387
C	-1.4812515158	-0.3119900601	-0.1300583601	 0.332687
C	-1.983814975	-0.7206172807	-1.2966362079	-0.15385
C	-3.4457325804	-0.8292895651	-1.6628781987	-0.311925
C	-4.393907959	-1.4610451612	-0.6691224096	-0.04253
C	-4.2936458586	-1.5865048527	 0.6541983829	-0.042323
C	-3.2185215324	-1.0776381976	 1.5782763641	-0.238002
C	-2.373330876	 0.0844810066	 1.0292215269	-0.30234
H	 1.608010277	 1.228655334	 0.4061560659	 0.110932
H	 0.3410028322	 1.7728918709	-0.7081358138	 0.118426
H	 0.042876769	 1.755689206	 1.0338859047	 0.11775
H	 0.5349944479	-0.7316287077	-0.7231004056	 0.097056
H	 0.270184668	-0.7723954128	 1.0154870634	 0.096231
H	-1.2872034368	-0.9887240725	-2.0890552118	 0.073905
H	-3.833626452	 0.167882881	-1.9363290317	 0.119739
H	-3.5219059065	-1.4057254667	-2.5928035354	 0.106754
H	-5.2902864859	-1.8703267408	-1.1331058556	 0.080794
H	-5.1027784214	-2.1133120964	 1.1583946698	 0.078067
H	-3.7006102372	-0.751607528	 2.5097887198	 0.096322
H	-2.5557474896	-1.9054285364	 1.8708289206	 0.108038
H	-1.7625020552	 0.4851328664	 1.8451779133	 0.092273
H	-3.0511492967	 0.8940664148	 0.7280842935	 0.108167
