15
gdb 131480	3.93509	1.19641	1.05718	3.8461	70.16	-0.2492	-0.0431	0.2061	1112.3263	0.112203	-453.903784	-453.89619	-453.895246	-453.936207	28.665	
O	 0.1498416809	 1.4179237481	 0.1056656356	-0.417188
C	 0.0418789968	 0.0394301334	 0.0784140434	 0.152901
C	-0.4717929225	-0.7699738734	 1.2196141083	-0.341737
C	-1.3106860684	-0.6790977612	-0.0619018407	-0.20583
C	-2.541872055	 0.1011907642	-0.0660499279	 0.463748
C	-3.7143032543	-0.0204383802	-0.7594890568	-0.228023
N	-4.5193820011	 1.0216142328	-0.3783835595	-0.091055
N	-3.9682595032	 1.7579934481	 0.4628469105	-0.015578
O	-2.6302858612	 1.1812002307	 0.7122438578	-0.269728
H	-0.6081013888	 1.788231491	 0.5753958131	 0.30463
H	 0.8465163616	-0.3803423233	-0.515929811	 0.124527
H	-0.0126316853	-1.725966994	 1.4454225256	 0.130312
H	-0.8590168899	-0.2345353161	 2.0800325483	 0.141266
H	-1.3438522177	-1.5507880926	-0.7051042204	 0.110634
H	-4.028129332	-0.7557377975	-1.4794358961	 0.141121
