16
gdb 75936	2.77546	1.59392	1.14702	1.9261	64.46	-0.2619	-0.0051	0.2568	1034.8722	0.125125	-475.029626	-475.021833	-475.020889	-475.062003	29.479	
O	 0.3213259899	 1.0555962568	-0.6713002679	-0.435791
C	 0.0264808777	-0.1836046117	-0.0946148775	-0.087917
C	 0.4222561029	-0.2503066443	 1.3792707132	 0.422186
O	 1.312842183	 0.3702938111	 1.889038048	-0.354743
O	-0.4034779858	-1.0848449393	 2.0418300039	-0.218823
C	-1.4696772637	-1.5298347211	 1.1636641856	-0.142397
C	-1.4418676595	-0.553916843	-0.0036226868	 0.287246
C	-2.5148331546	 0.4239507887	-0.2892388434	-0.280096
N	-2.3234644784	-0.7751860237	-1.1370662609	-0.382091
H	 0.9870480055	 1.46605604	-0.1000511476	 0.302129
H	 0.5677104976	-0.9957491187	-0.6155797771	 0.106976
H	-1.2601068085	-2.5560911927	 0.8431464433	 0.13118
H	-2.4001279767	-1.5138969	 1.7329329283	 0.139329
H	-3.424967971	 0.4211001778	 0.3039471621	 0.123978
H	-2.2087532234	 1.3886863691	-0.6801085955	 0.142524
H	-1.8552244551	-0.515021799	-2.0026135076	 0.246309
