20
gdb 76311	2.44684	1.35912	1.10715	2.6121	78.15	-0.271	0.0294	0.3003	1170.9555	0.170012	-403.158563	-403.148825	-403.147881	-403.19293	35.946	
C	 0.7526208294	 1.569937061	-0.0353561611	-0.428346
C	 0.1453481946	 0.173171195	 0.0316172088	-0.046926
C	 0.7730254856	-0.8907004178	-0.9283688187	 0.134065
O	 1.5125922608	-0.4647329245	-2.0406167001	-0.420789
C	 1.5109988447	-1.5705312875	 0.2718792238	-0.046923
C	 3.0110399879	-1.3136711149	 0.3619690704	-0.428334
C	 0.5937099114	-0.7325158296	 1.2388731461	-0.177207
C	 1.2189707256	-0.0857604222	 2.37844188	 0.285448
N	 1.7325496146	 0.4392448965	 3.272375197	-0.34327
H	 1.8377606458	 1.5701387432	 0.1096557122	 0.124494
H	 0.5392243072	 2.0238796252	-1.0075850836	 0.131971
H	 0.331383196	 2.2128241096	 0.7426683917	 0.139821
H	-0.941688317	 0.2535711529	-0.051935302	 0.086924
H	 0.0021924214	-1.5505027743	-1.33548107	 0.095255
H	 2.2125057036	 0.1247516649	-1.7417839986	 0.287463
H	 1.3291034613	-2.645837464	 0.3475531142	 0.086926
H	 3.2616745241	-0.2479620427	 0.3602020956	 0.12449
H	 3.4204217092	-1.7313534535	 1.2860994501	 0.139823
H	 3.522141765	-1.7847608506	-0.4828253008	 0.131969
H	-0.2412358512	-1.3361474169	 1.603910345	 0.123146
