18
gdb 73825	2.2433	1.56082	1.36895	3.5342	79.42	-0.2252	0.0073	0.2325	1068.3207	0.147162	-401.934578	-401.926064	-401.92512	-401.967659	31.82	
C	 0.0430120283	 1.4556840766	 0.1082397905	-0.515007
C	-0.0830716445	-0.028297352	 0.0383564435	 0.217771
C	-0.0934242527	-0.8792043888	-1.0179013995	 0.217771
C	 0.0176000646	-0.6327122674	-2.4841541459	-0.515007
C	-0.0566164122	-2.2522435182	-0.3486607676	-0.224142
N	-0.9255436186	-2.1185029141	 0.8595269948	-0.287618
C	-0.0410884388	-0.9748669434	 1.2369880467	-0.224141
C	 1.1085678848	-1.9091422121	 0.6709506975	 0.45779
O	 2.2429300299	-2.1755980263	 0.8744953316	-0.305322
H	 0.9817059893	 1.746907273	 0.5966685265	 0.141432
H	 0.0317796648	 1.9115212674	-0.885626185	 0.129002
H	-0.7683279828	 1.9027014309	 0.695465618	 0.13111
H	 0.0138162479	 0.4354830316	-2.7178798371	 0.129001
H	 0.947589853	-1.05689668	-2.8837870468	 0.141432
H	-0.8049067291	-1.103495114	-3.0362206403	 0.13111
H	-0.1164971187	-3.1614063264	-0.9441994011	 0.085279
H	-1.8541186421	-1.7781554864	 0.5944408787	 0.204261
H	-0.085191123	-0.5860233105	 2.2527068654	 0.08528
