16
gdb 45646	3.04064	1.73008	1.29546	3.1275	74.76	-0.2428	-0.0257	0.2172	963.397	0.124898	-400.68927	-400.682325	-400.681381	-400.720705	27.426	
O	-0.0474351624	-0.0029452347	-0.0498885386	-0.283184
C	-0.0121216583	 1.19207458	-0.0101610715	 0.351356
C	-1.2302285943	 2.1537544499	 0.2309251881	-0.350509
C	-0.5959542737	 3.2836588051	 1.032034258	-0.224089
C	 0.7198404269	 3.2553447361	 0.8220679225	 0.256898
C	 2.0922084031	 3.3337544581	 1.4301938858	-0.141246
C	 2.3560070516	 2.006918041	 2.0465263486	-0.223521
N	 2.559266249	 2.1293542071	 0.5923610186	-0.161849
C	 1.1836580273	 2.1658015453	-0.0785335839	-0.099696
H	-1.6425138514	 2.4606632432	-0.7404960517	 0.134882
H	-2.029664576	 1.6327885454	 0.7668652093	 0.134908
H	-1.1448177457	 3.882268678	 1.7492755464	 0.110848
H	 2.7252127346	 4.200510889	 1.5759727864	 0.115061
H	 3.2934269541	 1.8765497319	 2.5794100676	 0.130446
H	 1.5249796071	 1.423238632	 2.4333559827	 0.128167
H	 1.3478624381	 2.4503903426	-1.1249841684	 0.121528
