15
gdb 29425	6.79848	0.8434	0.76335	3.1583	72.94	-0.1975	0.0059	0.2034	1423.0333	0.112759	-453.954261	-453.945866	-453.944922	-453.988004	30.484	
N	-0.0202101387	 1.3567824929	 0.3293671906	-0.605132
C	-0.0007357414	-0.0117753163	 0.0426461807	 0.251812
C	-1.0539866884	-0.8492113212	-0.170028563	-0.104776
O	-0.5969023049	-2.1472556421	-0.3318567891	-0.190434
C	 0.7420707935	-2.0913546632	-0.2122249658	 0.470147
O	 1.4382373943	-3.231566462	-0.3989644905	-0.215329
C	 0.9346867537	-4.3926772144	 0.1218709045	 0.108623
N	 1.5172540656	-5.4729825834	-0.149537103	-0.422946
C	 1.1849035708	-0.8308765532	 0.0178604433	-0.392572
H	 0.7649667401	 1.8533594416	-0.0708276223	 0.24891
H	-0.8817272472	 1.8099127281	 0.0547966548	 0.245924
H	-2.1205152408	-0.7197636784	-0.2180594441	 0.125645
H	 0.0481207554	-4.2361961628	 0.7412584582	 0.122812
H	 1.0487857469	-6.2468165573	 0.3174547018	 0.238651
H	 2.2073273311	-0.5249287485	 0.1652468038	 0.118663
