13
gdb 125536	5.61047	1.36764	1.10719	5.4623	65.51	-0.2606	-0.0312	0.2294	1013.6325	0.091305	-448.922897	-448.91629	-448.915346	-448.954036	24.563	
C	 0.0349126771	 1.4343634922	-0.0139625792	-0.493318
C	-0.0533602954	-0.0426358802	-0.0095287386	 0.401109
N	-1.0981006711	-0.7634301639	-0.2719473879	-0.281803
N	-0.6168709127	-2.0498741725	-0.120649125	 0.002988
C	-0.9488132907	-3.3775134523	-0.1833934667	 0.000611
N	 0.1195866185	-4.085152874	 0.1121055236	-0.213204
N	 1.1964428334	-3.2338815217	 0.3805499471	-0.351654
C	 0.6908265557	-2.0486442513	 0.2247313985	 0.48956
O	 1.0866456736	-0.7518219348	 0.3049258166	-0.225496
H	 0.7842254081	 1.7708716817	-0.7369546448	 0.167146
H	-0.9374953694	 1.8496893296	-0.2785189643	 0.172004
H	 0.3328741099	 1.8029557063	 0.9723297412	 0.167146
H	-1.923983067	-3.7580028492	-0.4338273605	 0.164909
