23
gdb 81963	2.26974	1.61729	1.18339	1.4564	84.05	-0.2515	0.0643	0.3157	1158.0639	0.206479	-388.289593	-388.280335	-388.27939	-388.323014	36.504	
C	 0.3237681484	 1.3808748035	-0.4840265217	-0.398609
C	 0.2732578578	-0.1152086612	-0.1610867204	 0.018732
C	 1.0263658071	-0.9963546664	-1.1551167615	-0.037403
C	 2.5277226545	-1.0956328076	-1.0543950803	-0.290744
C	 1.6564632318	-2.1468757422	-0.4119461923	-0.037379
C	 1.3226689542	-2.0007938267	 1.0580599819	 0.108681
O	 2.4520080605	-2.3445240462	 1.8516753044	-0.427904
C	 0.7933795927	-0.5351645248	 1.2552914821	-0.080782
C	 1.8098817733	 0.4077489505	 1.9146476904	-0.382113
H	 1.3499874987	 1.7600044848	-0.485028882	 0.117756
H	-0.0976354676	 1.5695440405	-1.4773438608	 0.108478
H	-0.2541035431	 1.9701651221	 0.2361741714	 0.108845
H	-0.7796646715	-0.4240266115	-0.2165428419	 0.069961
H	 0.5742166843	-1.1462184135	-2.130513129	 0.07552
H	 3.0564146973	-1.3965644163	-1.9526467597	 0.107286
H	 3.086196985	-0.4057264728	-0.4350541237	 0.118091
H	 1.6755463803	-3.1503132197	-0.8222829231	 0.079329
H	 0.4983454193	-2.6970112093	 1.2800364338	 0.061391
H	 2.162747525	-2.4261631008	 2.7658420904	 0.279605
H	-0.0677217796	-0.5701092933	 1.9334414744	 0.066023
H	 2.7191757001	 0.5534470351	 1.3280966074	 0.126311
H	 1.362576161	 1.3910276013	 2.0878322778	 0.109217
H	 2.1214078005	 0.0120267546	 2.8852431825	 0.099709
