14
gdb 16365	2.7775	2.24351	1.40945	3.6506	59.06	-0.2432	-0.0411	0.2021	852.1638	0.10503	-419.647371	-419.639892	-419.638948	-419.679223	27.316	
O	 0.1844539886	 1.1427957194	-0.5718620134	-0.428718
C	 0.0442501444	-0.1209770481	 0.0264016915	 0.0138
C	 0.0233287976	-0.204761707	 1.5914874779	-0.396932
C	-1.3132343696	-0.973902187	 1.4920160248	 0.332214
O	-1.9756252611	-1.6164828599	 2.2518903681	-0.297682
C	-1.4023064718	-0.6312805975	 0.0141124366	 0.329361
C	-2.5453726291	-0.0354638264	-0.6985180963	-0.23541
O	-2.0543823592	-1.3371577408	-1.0146437629	-0.26192
H	 1.1206222452	 1.3596045089	-0.618315371	 0.29356
H	 0.7280324615	-0.8609665816	-0.4091645257	 0.09511
H	 0.8412037385	-0.7353112004	 2.0829785274	 0.133871
H	-0.1058485257	 0.7806097817	 2.049787001	 0.141806
H	-3.5180048706	-0.007588896	-0.2113011674	 0.136612
H	-2.3378916588	 0.7387252147	-1.4333692504	 0.144328
