18
gdb 95596	2.29903	1.70173	1.02005	4.9798	74.52	-0.2522	-0.0607	0.1915	1151.8096	0.147811	-439.116604	-439.108018	-439.107074	-439.150729	31.692	
C	-0.021092216	 1.56167769	 0.0132413189	-0.404585
C	 0.0474868412	 0.0357873267	-0.0364490812	-0.095806
C	 0.8420470599	-0.5215305995	-1.2257698069	-0.235384
C	 0.8125966983	-2.038293818	-1.1948007406	-0.081477
O	 1.3762153264	-2.5747706124	 0.0094874721	-0.254776
C	 1.1473436667	-1.9837369498	 1.2163379888	 0.290055
N	 1.4330924491	-2.5642992864	 2.3037149378	-0.462205
C	 0.5921741881	-0.5517924464	 1.262703243	 0.327472
O	 0.5958249857	 0.0575513415	 2.300839151	-0.274094
H	 0.9830740949	 1.994347309	 0.066541625	 0.126589
H	-0.5154971291	 1.951767882	-0.8812212328	 0.111834
H	-0.56972065	 1.8950393311	 0.8956392966	 0.144437
H	-0.9779739973	-0.3635983151	-0.1176180019	 0.109073
H	 0.4142264429	-0.1688711655	-2.1706459227	 0.114445
H	 1.8803163685	-0.1686154332	-1.1885799754	 0.119813
H	-0.2194759444	-2.4029184985	-1.2965922991	 0.112066
H	 1.4044701753	-2.4750762912	-2.0026167257	 0.124421
H	 1.7996856598	-3.4997876443	 2.1099969232	 0.228122
