21
gdb 97649	2.30083	0.71579	0.57465	1.1246	84.56	-0.2507	0.0337	0.2844	1943.5585	0.179655	-424.189856	-424.17831	-424.177366	-424.228964	39.478	
C	 0.934349731	-0.2034149733	-1.2549120359	-0.388277
C	 0.0127713635	-0.092992868	-0.0399100964	-0.166236
C	 0.6253106409	-0.6778043855	 1.2541424742	-0.140602
C	-0.2427916621	-0.3617055318	 2.4842918062	-0.088217
O	-0.2786595109	 1.0486620088	 2.6342210374	-0.419435
C	 0.845600814	-2.1195028819	 1.1558872491	 0.036011
C	 0.9851662473	-3.3150875908	 1.0838324417	 0.064005
C	 1.2260905029	-4.7554707836	 1.0000235148	-0.192729
O	 2.2123606368	-5.2209911897	 1.9123432526	-0.40289
H	 1.1861177701	-1.2470097559	-1.4673258927	 0.123522
H	 0.458860094	 0.2177828215	-2.1459160107	 0.112159
H	 1.8717620838	 0.3399292528	-1.0907647753	 0.113407
H	-0.2296514779	 0.9544197854	 0.1605032065	 0.119077
H	-0.934142543	-0.6097153518	-0.2397741177	 0.096655
H	 1.5942474789	-0.1852348972	 1.4216243453	 0.109217
H	-1.2498186749	-0.7802954135	 2.3330182544	 0.094768
H	 0.1921648503	-0.8490241523	 3.3686478055	 0.098724
H	-0.8672230655	 1.2602390233	 3.3641590344	 0.29041
H	 0.3119796486	-5.3075351512	 1.2459085462	 0.137586
H	 1.4851618162	-5.0210882673	-0.0376928333	 0.116255
H	 2.9886670358	-4.6619598481	 1.8031592836	 0.28659
