18
gdb 120249	3.03422	1.02338	0.85372	4.0373	72.41	-0.2383	-0.0234	0.2149	1354.319	0.146961	-439.04272	-439.033888	-439.032944	-439.07701	32.233	
O	 0.1037532908	 1.4263329011	 0.1022908827	-0.419043
C	 0.0254136554	 0.0196021797	-0.068540328	-0.066348
C	-1.3827022598	-0.5216036206	 0.2017262614	-0.231223
C	-1.4625883203	-2.0376697306	 0.0527739158	-0.123706
C	-2.8320474002	-2.7432624987	 0.0942591067	-0.072769
N	-3.593751411	-2.2210995655	-1.0437461018	-0.326924
C	-2.6349727035	-3.3662703227	-1.258737896	-0.186678
C	-1.2783170325	-2.7015543999	-1.3522649024	 0.445809
O	-0.360507377	-2.7675084101	-2.1166862695	-0.313074
H	-0.4281572337	 1.833957396	-0.5884975696	 0.2815
H	 0.362624707	-0.2887090634	-1.0685180022	 0.115588
H	 0.7341238724	-0.4043220214	 0.6522858252	 0.10706
H	-1.6830977366	-0.2290208025	 1.2153203627	 0.104733
H	-2.0962680172	-0.0603805618	-0.4906751792	 0.112076
H	-0.7547447772	-2.5381983286	 0.7275079748	 0.104205
H	-3.3158962828	-3.1810559495	 0.9576222657	 0.109779
H	-4.5231652362	-2.6417118895	-1.0239019807	 0.241811
H	-2.9812379176	-4.3046131619	-1.6722803355	 0.117204
