20
gdb 64094	3.2231	1.249	1.13837	3.052	76.77	-0.2508	0.0183	0.2691	1167.3486	0.170518	-440.300777	-440.29179	-440.290845	-440.33415	34.397	
C	-0.0909011501	 1.5159001526	 0.045693094	-0.422862
C	-0.0542137929	-0.0095540312	-0.0141289721	 0.329133
C	-1.4747881299	-0.5947186046	-0.015834523	-0.432322
C	 0.7507969921	-0.4671277558	-1.2311216244	-0.089956
O	 1.0147164735	-1.8790078345	-1.2201941822	-0.255739
C	 1.409262913	-2.4504460823	-0.0470985947	 0.364845
N	 2.0547705801	-3.5363693793	-0.005393721	-0.509743
C	 0.9210102329	-1.8039352673	 1.2352462642	-0.163116
O	 0.6849606169	-0.4126076944	 1.1471096996	-0.287423
H	 0.9225203392	 1.9194102239	 0.1188609287	 0.127405
H	-0.5746002007	 1.9318270596	-0.8431751068	 0.117004
H	-0.6501898794	 1.8398786765	 0.9274918315	 0.130011
H	-2.0685604983	-0.1416445961	-0.815367272	 0.119376
H	-1.4754039037	-1.6753447617	-0.1777213068	 0.130006
H	-1.9649530581	-0.3836837559	 0.9386370972	 0.127743
H	 0.2142530245	-0.2787821799	-2.1646523554	 0.116617
H	 1.7067564012	 0.0703874995	-1.2578700237	 0.111749
H	 2.2472366231	-3.8691476503	-0.9528096489	 0.220258
H	 0.0122058138	-2.3411232687	 1.5491001678	 0.120875
H	 1.6737585929	-1.95513379	 2.0099826679	 0.146138
