19
gdb 83112	2.63306	1.57799	1.24694	1.2132	83.4	-0.2145	-0.0286	0.1859	1063.191	0.160907	-385.879775	-385.87171	-385.870766	-385.912622	31.432	
O	 0.3909776191	 1.1955620812	-0.0091781346	-0.416077
C	 0.0607057164	-0.1601492833	 0.0678226952	 0.087602
C	-1.3987630985	-0.5626626309	 0.1649006691	-0.081834
C	-2.45255422	 0.5312948094	 0.2259660007	-0.291579
C	-3.4939978459	 0.5274436358	-0.8634905871	-0.068559
C	-3.2510433108	 0.4999169348	-2.1815133567	-0.071717
C	-1.9540576675	 0.4090210491	-2.8457503734	-0.073356
C	-0.818847415	-0.1449096411	-2.3873157851	-0.126832
C	-0.6112300174	-0.8508847897	-1.1004211866	-0.120094
H	 0.3387446553	 1.4655657824	-0.933270724	 0.287094
H	 0.7946687985	-0.7238903141	 0.636917485	 0.096205
H	-1.6141386262	-1.4362518126	 0.7726259976	 0.086093
H	-2.9461315824	 0.481149787	 1.2013532538	 0.103511
H	-1.9325522183	 1.4994042646	 0.2068040132	 0.133753
H	-4.5294375053	 0.6208223543	-0.5439975406	 0.090905
H	-4.1017975665	 0.5906046064	-2.8540002228	 0.085833
H	-1.9304775597	 0.811007155	-3.8576884722	 0.089564
H	 0.0390155013	-0.1582260828	-3.0599980796	 0.092834
H	-0.3042037271	-1.8876195355	-1.2333750121	 0.096653
