21
gdb 95381	2.52166	1.7385	1.33388	2.2953	76.85	-0.2358	0.0655	0.3013	1039.7503	0.185897	-424.243649	-424.23586	-424.234915	-424.275773	31.347	
O	-0.4699069032	 1.4509277403	 0.4169385256	-0.423654
C	-0.0751224727	 0.1286998952	 0.0713035921	 0.083445
C	 0.7129185725	-0.539002693	 1.2082973306	-0.237231
C	-0.3761969357	-0.8432508271	 2.2524774871	-0.216023
C	-1.5618281792	-1.3595535984	 1.4074069289	-0.016981
C	-2.9715227319	-0.8748017465	 1.8037555011	-0.243192
C	-3.2124969011	 0.3053736417	 0.8488962773	-0.0788
O	-2.5387014345	-0.0476121379	-0.3577651122	-0.252959
C	-1.3591992856	-0.7462940933	-0.0187990103	 0.117242
H	 0.3303148011	 1.9650332597	 0.5624854583	 0.281837
H	 0.4747580835	 0.1342656789	-0.8801501485	 0.058101
H	 1.168143754	-1.4687021112	 0.8428649864	 0.097607
H	 1.5254321032	 0.0934388149	 1.5836745077	 0.085145
H	-0.0550990294	-1.5582036253	 3.0145164423	 0.091761
H	-0.6527672707	 0.0843221769	 2.7642688105	 0.104192
H	-1.5279571463	-2.4509188894	 1.3586691393	 0.069606
H	-3.7111552866	-1.6605469759	 1.6231035844	 0.100867
H	-3.0398934138	-0.5844093068	 2.8560094522	 0.097114
H	-4.2667310841	 0.4622998501	 0.603808176	 0.09874
H	-2.7996298492	 1.2365230227	 1.2558742481	 0.107997
H	-1.2055842903	-1.5129113258	-0.7857126871	 0.075187
