18
gdb 71262	2.50735	2.04152	1.4391	2.4806	74.46	-0.2401	-0.0215	0.2186	945.3562	0.14841	-401.943124	-401.935636	-401.934692	-401.974799	29.73	
C	-0.0676764477	 1.5295315674	 0.0729844989	-0.480672
C	-0.0334898313	 0.0245515096	 0.0200790657	 0.207513
C	 0.3088159161	-0.6894833588	-1.3322323782	-0.296038
C	-0.8979034325	-1.5711816885	-1.0588433525	-0.034071
C	-0.9521779512	-2.0663632153	 0.340474453	-0.02757
C	 0.2802817801	-2.0908354103	 1.2149535135	-0.367692
C	 0.8060716208	-0.6536523085	 1.0982882717	 0.400284
O	 1.7095774442	-0.1604194881	 1.7198011114	-0.321598
N	-1.3971307126	-0.6705092878	 0.0511648324	-0.17907
H	 0.9520581819	 1.9255093239	 0.0580498612	 0.136122
H	-0.6253728211	 1.9402440366	-0.7727961687	 0.119566
H	-0.547570748	 1.8667545666	 0.996570879	 0.133185
H	 0.1310894392	-0.0108478104	-2.1693330845	 0.122914
H	 1.2921419787	-1.1551390191	-1.4544219624	 0.110578
H	-1.5741027385	-1.9577635491	-1.8155781466	 0.096236
H	-1.7738126881	-2.733784573	 0.5790184623	 0.102269
H	 0.031031084	-2.3046735552	 2.2593826838	 0.141008
H	 1.0506623958	-2.80702499	 0.9109486102	 0.137037
