23
gdb 101485	3.1857	0.97893	0.80185	1.9243	81.92	-0.2476	0.0792	0.3268	1492.0533	0.205516	-425.423325	-425.413322	-425.412378	-425.459147	36.165	
C	-0.0527648917	 1.4057057343	 0.0395280675	-0.236647
O	 0.1229081439	 0.0103027588	-0.0236404538	-0.245983
C	 0.7274564948	-0.5742568825	 1.1243696075	 0.120567
C	-0.2457111672	-0.6405578996	 2.3058526337	-0.411425
C	 1.2163041032	-1.9585156637	 0.6965311914	 0.016238
C	 2.2426096778	-1.9345657935	-0.4704656349	-0.249247
C	 3.4548852264	-2.7046765317	 0.0905505149	-0.079055
O	 2.948889005	-3.5099568014	 1.1459658123	-0.242437
C	 1.9792687901	-2.7185992	 1.8068161944	-0.107443
H	 0.8922820631	 1.9252489177	 0.2646164634	 0.101358
H	-0.4048050921	 1.7293519539	-0.9434565106	 0.127022
H	-0.797429928	 1.7096981143	 0.7894831837	 0.106408
H	 1.604447485	 0.0337347384	 1.4135095803	 0.058012
H	-0.5915728463	 0.3542870826	 2.5997427529	 0.116501
H	-1.1204706035	-1.2428418309	 2.0402767421	 0.124033
H	 0.2332985691	-1.0905180269	 3.1809787078	 0.122852
H	 0.337642164	-2.5389754145	 0.3975032025	 0.083021
H	 1.8343210188	-2.4308335872	-1.3532811089	 0.109893
H	 2.4994995178	-0.9139836709	-0.7634079796	 0.105663
H	 3.9367966448	-3.3661100725	-0.633838624	 0.106563
H	 4.2158352897	-2.0056649979	 0.4761093903	 0.083693
H	 2.4682548526	-2.0038811422	 2.4938891914	 0.081169
H	 1.3498095027	-3.3851937548	 2.4012098055	 0.109245
