16
gdb 42266	3.32031	1.24741	1.10675	1.422	75.82	-0.2442	-0.0663	0.1778	1119.2184	0.123084	-400.670204	-400.661988	-400.661044	-400.703935	30.33	
O	 0.6219132297	 0.7046447876	-1.0521811249	-0.29447
C	 0.0715446459	 1.0920813886	-0.0415740941	 0.229473
C	 0.6252884652	 0.8472946761	 1.276907268	 0.275163
C	 1.072202614	 0.6700051904	 2.3804354057	-0.405567
C	-1.2582908186	 1.8215868972	-0.0521613813	-0.050259
C	-1.9358268772	 2.1080517788	-1.4108601745	-0.283893
C	-3.070969824	 1.2067448729	-0.9286069016	-0.007598
C	-2.5737889929	-0.1295743978	-0.564857377	-0.245682
N	-2.4225852089	 0.9601293605	 0.430454295	-0.150943
H	 1.4744835438	 0.5024871251	 3.3502063363	 0.217771
H	-1.1997168226	 2.6930969162	 0.60465324	 0.10633
H	-2.2181230714	 3.1555547101	-1.5226113894	 0.113955
H	-1.3971269138	 1.7764357158	-2.3005909666	 0.130261
H	-4.1284175198	 1.4369949669	-1.002926023	 0.100782
H	-3.3002704044	-0.8676192573	-0.2406796901	 0.126728
H	-1.6968845648	-0.5383547911	-1.0604139824	 0.13795
