15
gdb 43260	3.10675	1.50707	1.14014	1.6965	73.68	-0.2561	-0.094	0.1621	1027.9717	0.11396	-420.668612	-420.661527	-420.660583	-420.700273	27.39	
O	 0.0201314519	 0.0079623865	 0.4775827989	-0.331356
C	-0.0094600334	 1.1650588115	 0.1102444104	 0.404234
C	-1.3045219647	 1.8465297852	-0.1639701446	-0.163041
C	-1.3885270205	 2.9835730551	-0.8697328171	-0.162987
C	-0.1941070496	 3.6646220709	-1.4409748564	 0.404226
O	-0.3118324157	 4.5022051323	-2.3123420251	-0.331356
C	 1.1366799845	 3.257014651	-0.9047381983	-0.157609
C	 1.3490748591	 3.3023720347	 0.5919547259	-0.299311
C	 1.2322271881	 1.9637039165	-0.1020146178	-0.15759
H	-2.1868276845	 1.3173034864	 0.1839174224	 0.13184
H	-2.3430783443	 3.4322048045	-1.1288263015	 0.131841
H	 1.9732715203	 3.5346784165	-1.5350675838	 0.123645
H	 2.3316783251	 3.5932229272	 0.9435772138	 0.142951
H	 0.5239921104	 3.6279359451	 1.2146925857	 0.14086
H	 2.1333244034	 1.3682956567	-0.1903852825	 0.123653
