17
gdb 16507	3.81572	2.46365	1.86823	1.5903	71.62	-0.2108	0.0058	0.2166	761.5508	0.143938	-326.690923	-326.684585	-326.683641	-326.720835	26.094	
C	-0.0104806291	 1.4786355425	 0.0301883669	-0.491778
C	 0.0344308511	-0.0282655684	-0.0133582844	 0.313345
C	-0.0181848375	-0.7446223441	-1.3232797319	-0.137851
C	-0.5265913206	-1.9615757516	-1.1305572328	-0.08492
C	-0.7078162104	-2.1535546223	 0.3536059747	-0.06174
C	 0.7074027763	-2.267026196	 1.0150086642	-0.245751
C	 0.6368602957	-0.7581935936	 1.1658977546	-0.077957
N	-0.8561884337	-0.7402628329	 0.9361511978	-0.168441
H	 0.8933376792	 1.9101701069	-0.4136542573	 0.116814
H	-0.8772246866	 1.8541332484	-0.5234400121	 0.126453
H	-0.0892868026	 1.8343729256	 1.060940799	 0.128461
H	 0.3259889619	-0.3110540542	-2.2536577091	 0.101644
H	-0.6454809085	-2.7491824627	-1.8639374277	 0.102838
H	-1.4757924269	-2.8539849517	 0.6789646523	 0.079665
H	 0.6446983709	-2.7439912548	 1.9957471338	 0.113963
H	 1.5177455641	-2.7174860588	 0.4339877777	 0.097823
H	 1.0966096968	-0.1956539623	 1.9745782343	 0.087431
