20
gdb 57627	3.15099	0.9431	0.90456	3.7217	79.47	-0.2807	0.038	0.3187	1380.9774	0.168973	-403.14706	-403.137155	-403.13621	-403.182201	36.074	
C	 0.164858884	 1.5606972385	 0.0762812378	-0.412027
C	-0.0195620354	 0.0268809478	 0.0274467142	 0.075756
C	 0.6539139057	-0.6325419578	 1.2526783527	-0.402996
C	-1.5239883908	-0.3692124348	-0.0762285765	-0.233383
C	-2.3894191705	 0.1152308655	 1.0626379147	 0.072252
C	-3.5259613775	-0.6766001613	 1.5509905039	-0.182259
O	-2.3112166583	-0.6041094007	 2.2981671303	-0.229295
C	 0.6381824751	-0.4750342437	-1.1922964277	 0.266861
N	 1.1473339245	-0.870767882	-2.1518164532	-0.343495
H	 1.2263145575	 1.8189791648	 0.0445429221	 0.13762
H	-0.3292606524	 2.0485112272	-0.7687804811	 0.130143
H	-0.2512010873	 1.9609512347	 1.0044924169	 0.129259
H	 0.178709643	-0.2854138762	 2.1720816522	 0.147853
H	 0.560456588	-1.7207205391	 1.2129738481	 0.133393
H	 1.7171507029	-0.3800711794	 1.2855113125	 0.127711
H	-1.9281475867	 0.0327901247	-1.0132940155	 0.121401
H	-1.5966844887	-1.4598944462	-0.1364579918	 0.121445
H	-2.4507318224	 1.1962362891	 1.1912522384	 0.099645
H	-4.3821753908	-0.1747202503	 1.9987421699	 0.120033
H	-3.7385391196	-1.643906421	 1.097863332	 0.120085
