16
gdb 109496	2.19525	1.71445	1.00004	2.0704	67.36	-0.2537	-0.0492	0.2045	1139.6716	0.12291	-475.030337	-475.021718	-475.020774	-475.06442	30.552	
C	 0.0952069611	 1.5556294354	-0.1171511278	-0.247101
O	 0.1048707465	 0.1468567021	 0.0848552113	-0.231433
C	 0.5263568744	-0.58868656	-1.0135167619	-0.079375
C	 0.9235023657	-2.0158682516	-0.6135098112	 0.355626
O	 1.4729587396	-2.3659877681	 0.3903631979	-0.276225
C	 0.4682538135	-2.9170352345	-1.7586888788	-0.197981
O	-0.3877373072	-2.1176467869	-2.5808241201	-0.239423
C	-0.4946480323	-0.8302336493	-2.1184224816	 0.390732
N	-1.308255661	 0.020604765	-2.5644087715	-0.523082
H	 1.0995602522	 1.9173998916	-0.3850128599	 0.105916
H	-0.6147574747	 1.8419065279	-0.8982924593	 0.15472
H	-0.1986990448	 1.9987254193	 0.8362721181	 0.132828
H	 1.424568895	-0.1434522171	-1.4859758657	 0.120267
H	 1.3244914723	-3.2717202142	-2.3445785151	 0.149257
H	-0.0807050124	-3.7849815561	-1.3804629997	 0.155434
H	-1.9052815281	-0.3867661138	-3.2867756746	 0.229843
