20
gdb 81510	3.12636	1.41499	1.10788	0.8091	87.19	-0.2063	0.0401	0.2463	1144.6526	0.168515	-365.885794	-365.876606	-365.875662	-365.91974	35.418	
C	 0.2664068393	 1.527248459	 0.0914981327	-0.335363
N	 0.1772884111	 0.0684784358	-0.0116801476	-0.102664
C	-0.961721718	-0.7628507786	 0.5349285202	-0.075463
C	-0.0191498009	-1.9735683491	 0.2989048742	-0.220172
C	 0.8002310366	-0.8566307756	 1.0017911375	-0.076603
C	-0.4110687882	-0.6813843582	 2.0217693967	 0.166802
C	-0.6170892267	 0.5887983355	 2.8617603155	-0.483877
C	-0.6698607702	-1.8205636551	 2.8985543401	 0.266507
C	-0.88703339	-2.712304072	 3.6776392929	-0.45048
H	 0.8240531769	 1.8896897891	 0.962442202	 0.116505
H	 0.7814402065	 1.9023922474	-0.8010698173	 0.115286
H	-0.728120567	 1.9869144627	 0.1062879676	 0.121547
H	-1.9926443598	-0.623991402	 0.2017051003	 0.081888
H	-0.2180361841	-2.884822765	 0.857408184	 0.120086
H	 0.2502359321	-2.1374764016	-0.7425179562	 0.103341
H	 1.8676063101	-0.8359263501	 1.232741486	 0.083207
H	-0.6779002109	 1.5003523001	 2.2759226039	 0.123419
H	-1.5489908526	 0.4929176452	 3.4266108494	 0.129341
H	 0.1918913338	 0.6967497853	 3.5918526137	 0.126516
H	-1.0764392281	-3.513380123	 4.3485356943	 0.190175
