23
gdb 83580	2.41829	1.61568	1.53045	1.3623	83.33	-0.2357	0.0738	0.3095	1054.5828	0.209847	-388.317331	-388.309559	-388.308615	-388.348919	32.454	
C	-0.0589507212	 1.5306547373	 0.0237025315	-0.429768
C	 0.0447573799	 0.0036159875	-0.0016885978	 0.030034
C	 0.9011501871	-0.5655815381	-1.1571564754	 0.000173
C	 2.3533653316	-0.2490531981	-0.7070988727	-0.223121
C	 2.2987768818	-0.2774961178	 0.8497489352	-0.24158
C	 0.8231559978	-0.5939450529	 1.1872981553	 0.125738
O	 0.5653873054	-1.9979714544	 1.2642399588	-0.274574
C	 1.0263448749	-2.7340102614	 0.139303047	-0.068111
C	 0.6507045793	-2.0867785871	-1.2029145447	-0.233968
H	 0.9209767644	 2.0169483057	 0.0518698861	 0.116802
H	-0.580936248	 1.8974081946	-0.8665904514	 0.114106
H	-0.6205655193	 1.8698571411	 0.9009617833	 0.114401
H	-0.9658819592	-0.4186258669	-0.0167689584	 0.067459
H	 0.6635380338	-0.1157585141	-2.1264169556	 0.054883
H	 3.0680999772	-0.9719040166	-1.1123454683	 0.095112
H	 2.6627662875	 0.7345088754	-1.0708852223	 0.097631
H	 2.9652937452	-1.0216435528	 1.2930138919	 0.108131
H	 2.5774282653	 0.6904044623	 1.275281595	 0.099449
H	 0.5143799384	-0.1986206077	 2.1588043783	 0.067646
H	 2.1192014621	-2.8614976301	 0.1918688284	 0.087856
H	 0.5849471976	-3.7306553175	 0.2332045705	 0.104069
H	-0.4074747938	-2.2696832847	-1.4233134273	 0.097423
H	 1.2359666723	-2.5595065536	-2.0010480076	 0.09021
