17
gdb 109123	3.03357	1.18055	0.8933	1.3727	70.5	-0.2546	-0.0313	0.2233	1255.4081	0.134619	-458.980969	-458.972093	-458.971149	-459.01488	32.556	
O	 0.1404450979	 1.3645446281	-0.1112467079	-0.40732
C	 0.0175403733	-0.0375901844	 0.0414404357	-0.17215
C	-1.4016539145	-0.5171579256	 0.0896947754	 0.25121
C	-2.5077805642	 0.2335157388	 0.1477524356	-0.180884
C	-3.7810347577	-0.578987152	 0.1541688691	-0.371531
C	-3.2440162893	-1.9676136904	-0.186304686	 0.363882
O	-3.8164367795	-2.8792223143	-0.7254966666	-0.313778
C	-1.7366124513	-1.991310978	 0.1194961668	-0.044851
O	-1.0257475635	-2.7806577861	-0.8053503949	-0.441743
H	-0.199666841	 1.5913286482	-0.9831187932	 0.286052
H	 0.5512145818	-0.5890150424	-0.7478625288	 0.123813
H	 0.5258188973	-0.2855539311	 0.9829493911	 0.127185
H	-2.5001068904	 1.3154405473	 0.1993119766	 0.110107
H	-4.2747726506	-0.5961640277	 1.1365939093	 0.139991
H	-4.5377153895	-0.2611484392	-0.571207612	 0.137955
H	-1.596555115	-2.3878437398	 1.1442150778	 0.096842
H	-1.6677927438	-3.4136732714	-1.1584312478	 0.29522
