23
gdb 95311	2.58122	1.64826	1.44634	1.241	83.58	-0.2429	0.0757	0.3185	1056.5804	0.209683	-388.318582	-388.310735	-388.309791	-388.350401	32.418	
C	-0.2303335348	 1.5651516676	 0.0329248397	-0.414299
C	 0.0457757351	 0.0597606456	-0.0226751832	 0.140241
O	 0.5909474434	-0.3322762084	-1.2878207308	-0.270608
C	 1.9886218107	-0.1207819146	-1.4404894621	-0.08162
C	 2.7902912801	-0.6911918292	-0.2616021579	-0.008698
C	 2.3598700006	-2.1471282442	 0.0409267727	-0.200112
C	 1.1211114511	-2.0058817987	 0.9784207394	-0.211043
C	 0.9114089682	-0.478597521	 1.136238518	-0.007595
C	 2.3515510463	 0.0553184206	 1.0105620991	-0.233844
H	 0.6841037054	 2.1621419053	-0.0213862978	 0.117656
H	-0.8706755531	 1.8530877017	-0.8054792136	 0.122032
H	-0.744666911	 1.8254518599	 0.9641684191	 0.111508
H	-0.9214905202	-0.4572170961	 0.0130864062	 0.077408
H	 2.2540706472	-0.6242201561	-2.3763181607	 0.101621
H	 2.2179624813	 0.9505581677	-1.5640419001	 0.080823
H	 3.8593062875	-0.5979370589	-0.4773254503	 0.058146
H	 2.1218919158	-2.6975600086	-0.8730903078	 0.100637
H	 3.1701208715	-2.6840617715	 0.5430878688	 0.090527
H	 0.2348884628	-2.4957465265	 0.5661165705	 0.099441
H	 1.3187457668	-2.4607632825	 1.9539736197	 0.089466
H	 0.4327851502	-0.2185420239	 2.0854100379	 0.058358
H	 2.9524791964	-0.244627899	 1.8766804661	 0.089345
H	 2.4222001785	 1.1432053806	 0.9212064772	 0.090611
