19
gdb 41432	3.62122	1.8859	1.49417	1.3582	77.82	-0.2302	0.1	0.3302	909.6679	0.16303	-385.854664	-385.848571	-385.847626	-385.884711	26.603	
C	-0.0116453348	 1.5655837583	-0.0300537282	-0.228726
C	 1.5304602428	 1.8580086876	-0.019824552	-0.336482
C	 1.9957411625	 0.421983516	 0.0379273738	 0.519856
O	 3.3214796265	-0.0196183649	 0.0715782957	-0.34494
C	 3.1314523875	-1.4583034917	 0.1206135123	-0.111763
C	 1.596217408	-1.5750866506	 0.1041708417	-0.104671
C	 1.0906875681	-0.4130728299	 1.0033658834	-0.110814
C	-0.027341169	 0.0184604264	 0.025209925	-0.054903
C	 1.1161195455	-0.4809374316	-0.8891727784	-0.110814
H	-0.5209260108	 2.0114108558	 0.8300303535	 0.100412
H	-0.4972452696	 1.9481957113	-0.9331997003	 0.100412
H	 1.8719470474	 2.3773305577	-0.9196955179	 0.106483
H	 1.8481849421	 2.4407862232	 0.8493681404	 0.106483
H	 3.6134548978	-1.920452808	-0.7491485128	 0.104252
H	 3.5894964755	-1.8565172243	 1.0338580434	 0.104252
H	 1.1558689972	-2.572096232	 0.1340053365	 0.06828
H	 1.0930644278	-0.3595691659	 2.0940824594	 0.064856
H	-0.9934198044	-0.4864282188	 0.0303334269	 0.06297
H	 1.1478211098	-0.5056785486	-1.9804627725	 0.064856
