16
gdb 49723	2.79184	1.3708	1.03979	11.8534	78.99	-0.1846	-0.0234	0.1612	1131.83	0.125017	-437.823164	-437.815332	-437.814387	-437.856098	28.844	
O	-0.1908460505	-0.0424056681	 0.0715460068	-0.312203
C	-0.0350131641	 1.1673051336	 0.0283996994	 0.015588
C	 1.2020581283	 1.8813584329	-0.0613019329	 0.050849
C	 1.4534903017	 3.3745187102	-0.0679158655	-0.1519
C	 1.6880149521	 4.0246830857	 1.3378587136	-0.192604
N	 3.1521546588	 3.5737584108	 1.322588729	-0.281379
H	 3.8212043178	 4.3286228883	 1.4620615257	 0.297515
H	 3.382006729	 2.8062649761	 1.9564084127	 0.315471
C	 2.964698962	 3.0472058585	-0.1395357889	-0.141561
C	 2.5817320193	 1.5213468974	-0.0699007449	 0.274889
O	 3.3225003657	 0.5624213257	 0.0363240117	-0.385818
H	-0.9271539168	 1.8487899945	 0.0539620871	 0.011456
H	 0.9656613555	 4.0303363622	-0.7909212969	 0.092179
H	 1.6726323008	 5.1166605058	 1.3719524433	 0.135997
H	 1.1469256439	 3.6017667164	 2.1837229409	 0.159585
H	 3.7030866465	 3.47339509	-0.8168371811	 0.111937
