17
gdb 50598	2.56689	1.65524	1.35922	3.5039	67.07	-0.2469	-0.0305	0.2163	985.057	0.136357	-458.940582	-458.932899	-458.931955	-458.973735	28.075	
O	 0.4048667544	-0.1439205526	 0.0666226822	-0.237322
C	 0.153700391	 1.030882045	 0.0764344139	 0.149696
C	 1.1965414302	 2.1428756959	 0.0839881888	 0.000221
O	 2.4948316437	 1.6666413487	 0.363499709	-0.241122
C	 3.1586407688	 1.3691268466	-0.8633016588	-0.105719
C	 2.6110918039	 2.3771870953	-1.887097023	 0.110039
O	 1.9239314753	 1.7857973249	-3.0107679585	-0.283616
C	 0.6513404882	 2.2830433162	-2.553486333	-0.090489
C	 1.2862461695	 2.8896987813	-1.2769513901	-0.131078
H	-0.8984374574	 1.405112358	 0.0835500431	 0.073982
H	 0.9153766408	 2.8332186829	 0.8905889022	 0.102149
H	 4.2317984643	 1.4645933081	-0.6807092312	 0.111825
H	 2.9324236209	 0.3514081509	-1.2044748607	 0.127782
H	 3.3477263345	 3.1184576245	-2.2116122013	 0.089889
H	 0.237550214	 3.0291051062	-3.2420083807	 0.107777
H	-0.0806948122	 1.4783079026	-2.4212908748	 0.11961
H	 1.1691719203	 3.9660258255	-1.1633970171	 0.096376
