25
gdb 101142	3.25088	0.8485	0.83687	0.2086	95.8	-0.2231	0.0362	0.2593	1602.5304	0.229293	-352.385204	-352.374967	-352.374023	-352.420846	38.182	
C	 0.159235675	 1.4951800987	 0.0827614609	-0.390424
C	 0.0207759608	-0.0243886735	-0.055343397	-0.164626
C	-1.4392302442	-0.5372474996	-0.0366701182	-0.085397
C	-2.2424469672	-0.0439465832	-1.2557775916	-0.396942
C	-1.4859408613	-2.0401804346	 0.0733784573	 0.373324
C	-1.9842184328	-2.742868256	 1.0936388428	-0.196287
C	-1.9192652821	-4.2343671391	 0.8735961396	-0.243022
C	-0.9713482637	-4.3593890797	-0.3464299025	-0.204607
C	-0.9982989093	-2.9688595341	-1.0282431957	-0.305329
H	 1.2131969574	 1.7868152802	 0.1313214461	 0.111152
H	-0.2881377605	 2.0285104442	-0.7616177563	 0.117404
H	-0.326239171	 1.8546188992	 0.9973274552	 0.113026
H	 0.5089707701	-0.3519282818	-0.9823708334	 0.094293
H	 0.563648512	-0.5097612548	 0.7644897448	 0.096021
H	-1.9151841064	-0.1309754613	 0.8666274179	 0.067975
H	-3.2673774335	-0.4263191324	-1.2263644447	 0.115013
H	-2.2945027113	 1.0480394911	-1.284717878	 0.11366
H	-1.7856577983	-0.3808177659	-2.1930666409	 0.11471
H	-2.4323158119	-2.3026003803	 1.9792145668	 0.077061
H	-1.5507433338	-4.7837346391	 1.7477507691	 0.097276
H	-2.9187165791	-4.6405800488	 0.6585799298	 0.100035
H	 0.0439718765	-4.5692339091	 0.005394618	 0.102169
H	-1.2511302369	-5.1703748497	-1.0238513977	 0.092661
H	-1.693645497	-2.9483114113	-1.8796001139	 0.102124
H	-0.0194891216	-2.6850991588	-1.4309882982	 0.098729
