17
gdb 108360	2.9205	1.54881	1.30492	2.8079	66.9	-0.2478	0.0451	0.2929	1002.5033	0.135585	-458.878671	-458.871104	-458.87016	-458.91086	29.342	
O	-0.0381410561	 1.4228499141	 0.0302103426	-0.419678
C	 0.0531185318	 0.0089401602	 0.0312487589	-0.162123
C	-1.3278428837	-0.591262152	-0.030934306	 0.433096
O	-2.132929699	-0.2207454523	 1.1091593328	-0.33812
C	-2.5278820505	-1.6030962724	 1.3312702399	-0.087979
C	-1.7068608868	-2.0852977343	 0.1141352137	-0.216991
C	-2.4067595576	-1.9927394197	-1.2669902014	 0.012979
O	-3.417902825	-0.9908816643	-1.1810623644	-0.22457
C	-2.0753458	-0.5576272304	-1.4003202022	-0.041067
H	-0.6287481348	 1.6554544459	 0.7573150074	 0.299705
H	 0.6397035724	-0.2751128954	-0.8494729548	 0.11059
H	 0.5765800971	-0.3658776916	 0.924228306	 0.093815
H	-2.1587563253	-1.9661091297	 2.2966864257	 0.103764
H	-3.6114062172	-1.7293832926	 1.266113503	 0.122216
H	-0.9618093212	-2.8685764729	 0.2425780447	 0.090985
H	-2.5331836039	-2.7683870529	-2.0133108768	 0.110391
H	-1.8877207003	 0.0704948405	-2.2638519792	 0.112985
