19
gdb 84531	2.37044	1.47801	1.19989	3.4693	81.54	-0.228	-0.0158	0.2122	1115.0827	0.159543	-385.897593	-385.889402	-385.888458	-385.930344	31.57	
C	-0.3515968619	 1.5331914113	-0.0120206122	-0.401531
C	-0.0322989371	 0.0311356118	-0.0179317979	-0.033286
C	 0.6798874566	-0.47504617	-1.2597410576	-0.081575
C	 1.7372419666	-1.2349968508	-0.9643634757	-0.091784
C	 1.9455623671	-1.3340196743	 0.5125430183	-0.112982
C	 2.3375838216	-0.0348160299	 1.237248634	-0.109338
C	 2.9771540609	 1.1100458449	 0.547196251	 0.143495
O	 3.6989691122	 1.8993087031	 1.1133593541	-0.280572
C	 0.8724423391	-0.4704267492	 1.113050149	-0.082009
H	 0.5519729751	 2.1415438359	-0.1096419004	 0.130341
H	-1.0195224028	 1.7901908628	-0.8407209939	 0.116845
H	-0.8494213558	 1.8200107976	 0.9192933855	 0.12219
H	-0.9922689729	-0.5008742681	 0.0730556376	 0.091202
H	 0.3490583812	-0.216843387	-2.2598958288	 0.099523
H	 2.3944086899	-1.7111461886	-1.6828563907	 0.103538
H	 2.2826197118	-2.2640461522	 0.9569887066	 0.100293
H	 2.7344326539	-0.1661266771	 2.2395074284	 0.107793
H	 2.7802917248	 1.1959254676	-0.5397553686	 0.079116
H	 0.4068844797	-0.7325208878	 2.0558842111	 0.098741
