17
gdb 19254	3.21791	1.82217	1.42101	4.0093	68.34	-0.227	-0.0203	0.2067	910.9174	0.14185	-363.823259	-363.815561	-363.814617	-363.855738	28.472	
C	-0.0960067414	 1.5648825679	-0.0171803175	-0.415538
C	 0.0535561246	 0.0508255344	-0.0024303631	 0.009451
C	 0.6813188934	-0.6355559723	-1.2246148411	-0.053843
N	 2.0843779227	-0.1681286439	-1.2951109155	-0.332196
C	 1.7217491438	-1.2880569758	-0.3900847975	-0.077486
C	 1.1880231423	-0.6370644103	 0.8941611524	-0.104634
C	 2.1334903737	 0.2606119206	 1.6512247082	 0.147296
O	 2.0473931304	 0.4748966334	 2.8364789295	-0.263181
H	 0.8228770434	 2.0437361707	-0.3643117851	 0.139025
H	-0.909158887	 1.8616445778	-0.6886461665	 0.113265
H	-0.3308706563	 1.9474160004	 0.9812896276	 0.128927
H	-0.8972280966	-0.426154424	 0.2507680835	 0.08784
H	 0.1748824491	-0.9912888327	-2.1135749347	 0.096265
H	 2.5022675906	-0.5760019051	-2.1302295787	 0.233723
H	 2.1927304412	-2.2580236279	-0.4888814775	 0.101067
H	 0.739928616	-1.3434753299	 1.5950509191	 0.094333
H	 2.9271193898	 0.7298870467	 1.033829847	 0.095687
