17
gdb 83321	2.27432	1.76538	1.47727	3.0553	68.34	-0.2222	-0.0269	0.1953	972.3472	0.134828	-458.946188	-458.937907	-458.936962	-458.978631	31.449	
C	 0.0671882097	 1.5345483443	-0.0283818324	-0.506471
C	 0.016546089	 0.0435334959	 0.0888121862	 0.286205
O	 0.3947770229	-0.6073841894	-1.1411293236	-0.308271
C	 0.3139550052	-2.0213952311	-0.8187319221	-0.072004
C	-0.1788392204	-1.9612761772	 0.6354081749	-0.270513
C	 0.7541560345	-0.8041450216	 1.1702548558	 0.090816
O	 2.13606207	-0.8995773434	 0.9886266816	-0.429777
C	-1.2095317219	-0.8197890443	 0.4904036765	 0.408423
O	-2.3733959241	-0.6608542399	 0.6992879532	-0.313103
H	 1.0911754498	 1.8643390301	-0.22641556	 0.142709
H	-0.5706249145	 1.8704266337	-0.8504717907	 0.142076
H	-0.2827658322	 2.0022325843	 0.8958536664	 0.127702
H	-0.3897688125	-2.5219409158	-1.4916162558	 0.114798
H	 1.3061770914	-2.4735372357	-0.9141361376	 0.113349
H	-0.3737237092	-2.8875592475	 1.170487904	 0.090372
H	 0.4761256049	-0.492974585	 2.1856407302	 0.090808
H	 2.4942227577	-1.4816921674	 1.6662760635	 0.292882
