17
gdb 23569	3.13304	1.50538	1.33199	0.9883	75.67	-0.2335	0.0079	0.2414	996.8892	0.137413	-417.89744	-417.890398	-417.889453	-417.928764	28.638	
O	-0.0886096373	 1.3792591667	 0.1709727196	-0.399514
N	 0.0696145891	-0.0234517399	 0.0836226941	-0.31494
C	-1.0447847016	-0.6004591893	-0.0503476828	 0.471834
C	-1.4437177533	-2.060485742	-0.0363566115	-0.139061
C	-2.5738698494	-1.5432745937	 0.9468088769	-0.226168
C	-2.5367450923	-0.3029888818	-0.0103580101	-0.086094
N	-3.1079740677	-0.9150708837	-1.2568085363	-0.113387
C	-2.1362000069	-1.104952499	-2.3537768723	-0.250025
C	-2.2812286268	-2.161873541	-1.3212391424	-0.027493
H	 0.8224057897	 1.6752382063	 0.2727371002	 0.305937
H	-0.7515237267	-2.860475936	 0.2135698215	 0.089053
H	-3.5122310252	-2.1028532318	 0.9538918705	 0.115155
H	-2.2138983789	-1.3349453692	 1.955466158	 0.118643
H	-2.954881078	 0.6688177389	 0.2337622249	 0.099873
H	-2.606847781	-1.2550286319	-3.3210827716	 0.118684
H	-1.2325580338	-0.5019969642	-2.3749593699	 0.136281
H	-2.8011872499	-3.0909685484	-1.5358624889	 0.101221
