18
gdb 97277	2.64157	1.11118	0.79867	2.2153	80.87	-0.2509	-0.0252	0.2257	1429.1956	0.14591	-435.296869	-435.28696	-435.286016	-435.3324	34.516	
C	-1.9328883573	 0.7995247172	 0.6082484112	-0.315763
N	-1.0175736275	-0.2831944284	 0.308646156	-0.231922
C	-0.3890018648	-0.7946829498	 1.2759752257	 0.129542
N	 0.580254969	-1.813257191	 1.0893541181	-0.173813
C	 1.0363964687	-2.0582912917	-0.2121752856	 0.167874
O	 1.7876046083	-2.944239761	-0.5386817011	-0.316349
C	 1.0058292556	-2.5368852848	 2.2414839938	 0.359298
C	 2.2820292974	-3.3333304507	 2.1414564169	-0.453397
N	 0.2821786709	-2.4290323854	 3.2835323412	-0.488081
H	-1.6204992653	 1.7013377352	 0.0695838524	 0.13255
H	-2.9317453493	 0.5396382235	 0.2411854764	 0.135214
H	-2.0015395838	 1.0378735378	 1.6806576751	 0.107508
H	-0.5080682891	-0.5263154798	 2.3264122947	 0.141685
H	 0.6042811086	-1.3283067695	-0.9088925957	 0.139669
H	 2.5587707267	-3.6732218235	 3.142152742	 0.115397
H	 2.1600754078	-4.1931800147	 1.4814914421	 0.173351
H	 3.0968154651	-2.7384488495	 1.7220041291	 0.149765
H	 0.699324219	-2.9432008839	 4.0569341177	 0.227471
