20
gdb 12503	3.38588	1.74009	1.21284	0.7373	86.25	-0.2024	-0.0147	0.1877	1041.5598	0.178954	-311.894944	-311.887066	-311.886122	-311.927382	30.37	
C	 0.0047819785	 1.5499721699	 0.0417540194	-0.472365
C	 0.0207509065	 0.0462662195	-0.0418630459	 0.288553
C	 0.045074254	-0.5704444343	-1.2364141471	-0.148058
C	 0.0113721505	-1.9924983411	-1.5660444299	-0.055644
C	 0.0860166913	-3.08303775	-0.7877243595	-0.07797
C	 0.2879709	-3.1742986057	 0.6973960301	-0.24791
C	 0.8587846574	-1.9342476942	 1.3908312501	-0.203885
C	-0.007652954	-0.6679318071	 1.2906575558	-0.286834
H	 0.8902116212	 1.9269465177	 0.5715718409	 0.121591
H	-0.025749656	 2.0162542551	-0.9463407434	 0.118383
H	-0.8650014457	 1.9033210945	 0.6123663303	 0.121797
H	 0.0529616752	 0.0772076339	-2.1114780034	 0.070264
H	-0.1133590311	-2.1803578816	-2.6311888818	 0.077136
H	-0.0037707022	-4.0456091451	-1.2883778628	 0.082161
H	-0.6648123895	-3.45625117	 1.1722714852	 0.107461
H	 0.9581920059	-4.0219048073	 0.8981494687	 0.101791
H	 0.9996852179	-2.1749668256	 2.4510080125	 0.091883
H	 1.8540906618	-1.7170042871	 0.9861474612	 0.105558
H	 0.3181775085	 0.0380935661	 2.0641531744	 0.095563
H	-1.04879385	-0.9153263678	 1.546939425	 0.110523
