21
gdb 120934	3.1765	0.97107	0.87819	0.9111	79.71	-0.2441	0.085	0.3291	1435.1589	0.180774	-424.188608	-424.179075	-424.17813	-424.223357	35.562	
C	 0.024372279	 1.517610787	 0.0056000269	-0.38454
C	-0.1600327919	 0.022756443	-0.1941888245	-0.034918
O	 0.9115373076	-0.462324934	-0.982259438	-0.263541
C	 0.8627792128	-1.8457869688	-1.2160259515	 0.068246
C	-0.1268774227	-2.4137796061	-2.3009863287	-0.268926
C	 1.0787136751	-3.017529952	-3.0284916149	-0.106298
C	 2.0145432245	-1.9016718245	-3.4338735873	-0.336839
C	 2.0346857236	-2.3966310254	-2.0147172477	 0.369138
O	 3.1543489452	-2.9705964128	-1.4394321218	-0.463564
H	 0.9731494093	 1.722797578	 0.5096438352	 0.125009
H	 0.0303349138	 2.0354896271	-0.9577955699	 0.125193
H	-0.788415321	 1.9252910904	 0.6141580961	 0.113834
H	-0.1790197088	-0.4985670335	 0.7779039425	 0.085823
H	-1.1235082664	-0.1835065854	-0.6879670791	 0.089346
H	 0.7531636498	-2.3954542877	-0.2693897993	 0.072802
H	-0.8295154861	-3.1466322138	-1.8990902685	 0.102639
H	-0.6779709577	-1.6540333555	-2.8644104986	 0.098607
H	 1.1235212188	-3.9978208	-3.4846730444	 0.094544
H	 2.8758156343	-2.2215159391	-4.0118005899	 0.111369
H	 1.6293501176	-0.9164690529	-3.6836481791	 0.113716
H	 3.8298066234	-2.2888458441	-1.3538482876	 0.28836
