20
gdb 126850	1.8549	1.73419	1.01245	4.8793	81.4	-0.2425	0.0064	0.249	1237.4896	0.171817	-399.343884	-399.334659	-399.333715	-399.378474	33.325	
C	-0.1899266692	 1.626797314	-0.1263228816	-0.380727
C	 0.1350915085	 0.1396034643	 0.0163961298	-0.148869
N	 0.8015576921	-0.4016262466	-1.1607769241	-0.007444
N	 0.0760835638	-0.5971514861	-2.2846986853	-0.160025
N	 0.876469704	-1.0748894555	-3.193641553	-0.191365
C	 2.1204547042	-1.1917476189	-2.6607092561	-0.15889
C	 2.1004767455	-0.7652169972	-1.3497320551	 0.32112
C	 3.1846938418	-0.6806495947	-0.322638017	-0.305671
C	 3.7569703126	 0.734867402	-0.1247746311	-0.377928
H	 0.7188032611	 2.2222517439	-0.2533337169	 0.130191
H	-0.8309301061	 1.7883151185	-0.9959437252	 0.155531
H	-0.7135297262	 1.9819302728	 0.7662212647	 0.122901
H	 0.7814000429	-0.0434693328	 0.8782903205	 0.122463
H	-0.782779691	-0.4366285847	 0.1605415106	 0.141874
H	 2.9500552937	-1.5789994967	-3.2311030177	 0.117351
H	 2.8265997364	-1.0702720119	 0.6384696292	 0.115535
H	 3.9889236841	-1.3529647324	-0.6378400019	 0.125164
H	 4.1397012685	 1.1332879191	-1.0686374264	 0.132476
H	 2.9960502455	 1.4283814207	 0.2457280687	 0.125479
H	 4.5770418778	 0.7193828121	 0.5993298778	 0.120834
