15
gdb 133051	4.94417	1.01919	0.84951	0.9347	72.17	-0.2269	-0.0287	0.1982	1263.1762	0.113091	-461.967614	-461.960031	-461.959087	-461.999946	28.203	
C	 0.0011392268	 1.4015199863	 0.0074487006	-0.230352
O	-0.0183999058	-0.0246723324	 0.0032485545	-0.265925
C	-1.228018367	-0.6203080481	 0.0108388958	 0.456738
N	-2.3258275347	 0.1212886647	 0.0218330774	-0.349964
C	-3.5105601965	-0.5039730881	 0.0291816171	-0.121397
C	-3.6174645573	-1.8810799512	 0.025672279	 0.235506
F	-4.8233596946	-2.4604869427	 0.0333307498	-0.080918
C	-2.4659429231	-2.6651552949	 0.0141415548	-0.194101
C	-1.2417374306	-2.0254032464	 0.0065283667	-0.208869
H	 1.0564733592	 1.6773866452	-0.000274106	 0.127614
H	-0.5039831573	 1.8059137908	-0.8744696387	 0.133933
H	-0.4895459934	 1.8004846688	 0.8999369032	 0.133918
H	-4.40492496	 0.1128935388	 0.0381662312	 0.122442
H	-2.5459251092	-3.7462751505	 0.0113610194	 0.123338
H	-0.3074912563	-2.5726811504	-0.0025422449	 0.118037
