16
gdb 11817	3.47628	1.79663	1.39929	1.2366	66.98	-0.246	-0.0286	0.2174	921.5157	0.128517	-383.728263	-383.720471	-383.719526	-383.760452	28.675	
C	-0.4999425378	 1.41380485	-0.0585367479	-0.404709
C	 0.105275765	 0.0242087538	-0.0327293339	 0.032453
O	 1.3561308608	-0.0831158784	-0.7764816393	-0.333659
C	 2.0853190162	-0.5094563784	 0.3754541927	 0.336036
C	 3.1544231792	-1.5650646687	 0.3552140807	-0.327486
C	 3.5094778831	-0.1299661609	 0.6609968061	-0.324517
C	 0.866017301	-0.4059239176	 1.2379625118	 0.261892
O	 0.6032811107	-0.5672214597	 2.3929975057	-0.299368
H	 0.2147030594	 2.158560292	 0.3024365832	 0.130039
H	-0.7947928929	 1.6806189121	-1.0775393992	 0.134927
H	-1.3890045062	 1.4426654615	 0.5791150923	 0.13593
H	-0.6121231341	-0.7337066187	-0.374170384	 0.110088
H	 3.1568253188	-2.2918486533	 1.1605742993	 0.136696
H	 3.4187800555	-1.950537366	-0.6233739354	 0.137385
H	 4.0116749084	 0.4397290187	-0.1131466863	 0.137243
H	 3.7582249729	 0.1455103235	 1.6803613441	 0.13705
