21
gdb 104362	2.17311	1.4845	1.29972	4.0451	77.47	-0.2588	0.0162	0.275	1139.0196	0.18254	-424.286423	-424.277093	-424.276149	-424.320281	34.922	
C	 0.1152404104	 1.4706314285	 0.1039211899	-0.396967
C	-0.0848752499	-0.0477990345	 0.0738960317	-0.213943
C	-1.5537012724	-0.53717193	-0.0892347378	 0.130641
C	-2.1971073235	 0.0158360985	-1.363816849	-0.442504
C	-1.6218457108	-2.0730352255	 0.0281156259	-0.274642
C	-1.7867846604	-2.3014320478	 1.536905766	-0.092319
O	-2.4427120311	-1.1246968225	 2.0382009439	-0.224926
C	-2.3527384162	-0.1003043926	 1.1485834319	 0.446918
O	-2.8377045634	 0.9739406168	 1.3679490237	-0.354566
H	 1.1657264697	 1.7065017465	 0.2996307497	 0.111777
H	-0.1526889062	 1.9314577702	-0.8510355784	 0.120219
H	-0.4930110843	 1.9388530863	 0.8815520768	 0.148873
H	 0.4898055584	-0.4793121118	-0.7557809932	 0.099778
H	 0.3331817193	-0.483230858	 0.9904715233	 0.101734
H	-1.5848325495	-0.2209130621	-2.2404374115	 0.112292
H	-3.1915815052	-0.4140705427	-1.5184756989	 0.118128
H	-2.3131240784	 1.0996557438	-1.2997205262	 0.145799
H	-2.4981391392	-2.4532982564	-0.506191965	 0.111474
H	-0.7389787661	-2.5770047518	-0.373000273	 0.109634
H	-2.4120181537	-3.1620160384	 1.7844056966	 0.124467
H	-0.8264301774	-2.4112191067	 2.0530965034	 0.118134
