18
gdb 8070	3.55823	1.68003	1.42419	1.7307	68.57	-0.251	0.0849	0.3359	944.4341	0.153323	-384.879764	-384.871963	-384.871019	-384.911817	29.669	
C	 0.129239364	 1.290630727	 0.1613220683	-0.241401
O	-0.3238787295	 0.0229251864	-0.2631912335	-0.264326
C	 0.4806418837	-0.5566390008	-1.2501130479	 0.109101
C	 1.7589259801	-1.3677349012	-0.8582889895	-0.108762
C	 0.8221671434	-2.4258273885	-0.207222318	-0.290958
C	 0.1614711612	-2.039035547	-1.5762846108	 0.367493
O	-0.9791335954	-2.5490698536	-2.1608303432	-0.472821
C	 1.5677664416	-2.12020912	-2.2091709734	-0.261609
H	 1.1151183685	 1.233217741	 0.6450935495	 0.110252
H	 0.1981624036	 1.9969699787	-0.6802434392	 0.107732
H	-0.5972905129	 1.6716130634	 0.8829885232	 0.127205
H	 0.5937089584	 0.1186062436	-2.1115074151	 0.061115
H	 2.6933353574	-0.9824371553	-0.4583924564	 0.078966
H	 1.2166056241	-3.4423838426	-0.1376994872	 0.090521
H	 0.2944872796	-2.1218093196	 0.6964263523	 0.103942
H	-1.7330582439	-2.270741019	-1.6285276254	 0.289216
H	 1.7299109946	-1.5493154045	-3.1278306808	 0.093172
H	 2.0114928017	-3.1158369178	-2.2652152429	 0.101162
