18
gdb 74325	3.55853	0.97941	0.80855	1.6087	79.57	-0.243	0.0248	0.2678	1411.658	0.146522	-401.941308	-401.932133	-401.931189	-401.976062	33.06	
C	 0.0883878951	 1.480908742	 0.0538895567	-0.471685
C	-0.0167009593	-0.0034869755	-0.0195910611	 0.406273
N	-1.0577136596	-0.7001793995	 0.1927019062	-0.300188
C	-0.6796432862	-2.1067600749	 0.0033295177	 0.007443
C	-1.5564128204	-2.7929589278	-1.0659755711	-0.362513
C	-2.9462689825	-2.9571114808	-0.6639428715	 0.315527
C	-4.0868986744	-3.1111929286	-0.3195195358	-0.439516
C	 0.8211280668	-2.0466520848	-0.3972129421	-0.132329
O	 1.1436584845	-0.6430533312	-0.3475746994	-0.252169
H	 0.8306303839	 1.7704977307	 0.8043735695	 0.145976
H	 0.4230736593	 1.8850812063	-0.9065543741	 0.145133
H	-0.880807944	 1.904439687	 0.3139899863	 0.154589
H	-0.8187121028	-2.6414262066	 0.9494239899	 0.098814
H	-1.4987441658	-2.2059325419	-1.9914925114	 0.131509
H	-1.1239935176	-3.7772578568	-1.2913387581	 0.127057
H	-5.0976801556	-3.2332477945	-0.0188946995	 0.194021
H	 1.4799269254	-2.5784339523	 0.2940018263	 0.119223
H	 1.0090944731	-2.4089149009	-1.4142655887	 0.112833
