23
gdb 100698	3.05968	0.75342	0.64501	1.8663	91.59	-0.2478	0.0402	0.288	1841.347	0.202069	-388.274341	-388.262374	-388.26143	-388.313099	41.705	
C	-0.177939525	 1.5532710484	 0.0744063041	-0.39738
C	 0.0037941645	 0.0339695295	 0.0016816728	-0.169246
C	 0.7895764785	-0.4533033846	-1.2292115592	 0.031862
C	 2.2588223176	-0.0143983794	-1.1985579728	-0.403326
C	 0.676890724	-1.9974492802	-1.3518415533	-0.053254
O	-0.6822485543	-2.4407553519	-1.3242344247	-0.421717
C	 1.3613007074	-2.5143356688	-2.5408249549	 0.022525
C	 1.8676491313	-2.9296262365	-3.5525454648	 0.098507
C	 2.4921848102	-3.4487861253	-4.7610294622	-0.501421
H	 0.7758888709	 2.082100331	 0.1665476919	 0.115314
H	-0.6825123632	 1.934136875	-0.8211329036	 0.110746
H	-0.789105557	 1.829574262	 0.9394454415	 0.112292
H	 0.513792038	-0.3191618763	 0.9093447389	 0.08744
H	-0.9766551406	-0.4503539261	-0.0060626035	 0.11298
H	 0.3182428173	-0.0322052609	-2.130250093	 0.063685
H	 2.3453527892	 1.0747613029	-1.1612428671	 0.115528
H	 2.7661576635	-0.4178956743	-0.3134818082	 0.111281
H	 2.7966652473	-0.3646397232	-2.0829925832	 0.124967
H	 1.1282704849	-2.4400953449	-0.4532834254	 0.108249
H	-1.0481365162	-2.2829614443	-2.2015296097	 0.279846
H	 2.0709736509	-4.4212531939	-5.0387081917	 0.151375
H	 2.3512896747	-2.7701603296	-5.6094364548	 0.147907
H	 3.5702939162	-3.5838201386	-4.6205263074	 0.151841
