18
gdb 34583	3.41523	1.1492	0.89108	5.0589	91.83	-0.2343	-0.0661	0.1682	1276.6026	0.150196	-364.852486	-364.844432	-364.843488	-364.885635	30.438	
N	 0.0474647767	-1.1902385662	-0.0271229201	-0.343841
C	-0.0284327333	-0.0328971819	-0.0175415927	 0.218989
C	-0.075974077	 1.3943458725	-0.0124573188	 0.112822
C	-1.2869106024	 1.9899338223	 0.0741703164	-0.117451
C	-1.6216384673	 3.403502233	 0.0591537754	-0.069465
C	-0.8313519937	 4.489130072	 0.1223640037	-0.058329
C	 0.6554831224	 4.5864809625	 0.2880709851	-0.256123
C	 1.390532165	 3.3401973084	 0.7878094814	-0.2137
C	 1.2601604817	 2.1011221435	-0.1128028072	-0.297758
H	-2.1449892841	 1.3254989284	 0.128946224	 0.112402
H	-2.6890160332	 3.591532855	-0.02942358	 0.096074
H	-1.3341749095	 5.4523605304	 0.0544226023	 0.101488
H	 1.0894118247	 4.917041924	-0.66826185	 0.121578
H	 0.8608864941	 5.4132941907	 0.982026116	 0.116153
H	 2.4532572044	 3.589475428	 0.8784454544	 0.106424
H	 1.0429087177	 3.0878269532	 1.7956734128	 0.116397
H	 2.0464994398	 1.3854946772	 0.1438695397	 0.127508
H	 1.440936584	 2.3816173369	-1.1595708425	 0.126833
