20
gdb 119687	4.56601	0.99784	0.96589	2.1246	79.24	-0.2161	0.0823	0.2984	1318.84	0.170803	-403.058332	-403.050031	-403.049087	-403.091844	31.726	
C	 0.0917044028	 1.4912626752	 0.1039705931	-0.387617
C	 0.2510243661	-0.0083981459	-0.0668253229	-0.060998
O	 0.4401315611	-0.585835416	 1.2248473605	-0.294924
C	 0.580139282	-1.9479217002	 1.2129532607	 0.423923
C	-0.48194719	-3.0339196791	 1.1218075828	-0.243227
N	 0.5415254732	-4.0001492758	 1.6909437852	-0.16964
C	 1.5548007328	-4.0856248449	 0.5580391946	-0.174383
C	 1.9205900242	-2.6409196832	 0.8257608462	-0.153152
C	 1.3270278072	-2.7705841025	 2.2061011112	-0.115832
H	 0.981737293	 1.921698537	 0.5716612784	 0.128185
H	-0.0566839027	 1.9703880165	-0.8683280863	 0.116921
H	-0.7708083642	 1.716322065	 0.737515135	 0.12955
H	-0.6406211257	-0.4423481778	-0.5435276062	 0.096612
H	 1.1136858383	-0.2453469481	-0.706930171	 0.095062
H	-1.2863511475	-2.8882480464	 1.8477509495	 0.112286
H	-0.899888443	-3.3310258488	 0.1532825062	 0.09546
H	 2.3430399683	-4.7925618139	 0.8323086053	 0.109777
H	 1.1283221005	-4.3702130196	-0.4110382836	 0.095533
H	 2.7754593777	-2.0498448301	 0.5201714154	 0.091526
H	 1.6825719359	-2.6178227613	 3.2147715261	 0.104937
