19
gdb 56294	6.56653	0.52538	0.49237	1.4681	79.34	-0.2651	0.0154	0.2805	2157.0801	0.155543	-423.035678	-423.024904	-423.02396	-423.073695	36.502	
C	-0.180501025	 1.4536726636	 0.011986572	-0.478593
C	 0.0681163275	-0.0354098112	 0.0014686561	 0.42492
O	 1.147468629	-0.5701391535	-0.0109044478	-0.347935
O	-1.1008178218	-0.7134071161	 0.0078822156	-0.242057
C	-0.9911352734	-2.1467824183	-0.0009049021	-0.063354
C	-2.401721725	-2.7135576968	 0.0101121863	-0.198293
C	-2.3896393646	-4.2551229087	 0.0016488933	-0.357367
C	-3.7297105546	-4.8282206705	 0.0118306845	 0.2901
C	-4.844201088	-5.2776372976	 0.0204617804	-0.42893
H	 0.7728177408	 1.9804323706	 0.0062476188	 0.148595
H	-0.7722131452	 1.7413707961	-0.8616298301	 0.150073
H	-0.7561534959	 1.7315770653	 0.8993991826	 0.150082
H	-0.4328469792	-2.4597420213	-0.8902504627	 0.121026
H	-0.4151741247	-2.4692276419	 0.8736381934	 0.121089
H	-2.9342588594	-2.3553578156	 0.8968099704	 0.122504
H	-2.9518358292	-2.3458549307	-0.8618414391	 0.122509
H	-1.8463847289	-4.6144387359	-0.8824574327	 0.134853
H	-1.8289947546	-4.6239320518	 0.8708618738	 0.13486
H	-5.8239170977	-5.6865827355	 0.0279910774	 0.195919
