18
gdb 72423	2.74039	1.73626	1.39881	3.755	72.83	-0.2516	0.0212	0.2728	981.4929	0.149264	-439.107316	-439.09992	-439.098976	-439.138785	29.718	
C	-0.1179338027	 1.4535988517	 0.0072979128	-0.481127
C	 0.0546528402	-0.0437080682	 0.0054138402	 0.357235
C	 0.8222916463	-0.6776839964	-1.1664774564	-0.097226
O	 1.0469402766	-2.0279604015	-0.7277446219	-0.278864
C	 0.4365528052	-2.1256724509	 0.5756046064	 0.002179
C	 0.7313476639	-0.7550613709	 1.195898104	-0.280292
C	-1.060194512	-2.0004686168	 0.3608926161	 0.452661
N	-1.9439068584	-2.89019787	 0.4728750096	-0.566639
O	-1.2606020398	-0.6882470231	-0.0092804134	-0.294672
H	 0.8568629168	 1.9471518772	 0.0596157801	 0.127726
H	-0.6267632019	 1.787843427	-0.901710552	 0.135838
H	-0.7145163423	 1.7675204418	 0.8677324871	 0.13659
H	 0.222196689	-0.6698753464	-2.0829130345	 0.11532
H	 1.7822323248	-0.181775421	-1.3562108095	 0.104145
H	 0.7664943021	-3.0381947446	 1.0630474425	 0.108046
H	 1.7990165687	-0.5467976107	 1.2857574437	 0.115455
H	 0.2164127767	-0.568981823	 2.1406574187	 0.12127
H	-2.8663165131	-2.5164498143	 0.2382126663	 0.222355
