18
gdb 124859	3.61927	1.27449	1.0249	0.5918	77.54	-0.2398	-0.0023	0.2375	1167.0819	0.149806	-398.128955	-398.120964	-398.12002	-398.161893	30.432	
C	 0.0182476819	 1.5012267213	-0.0451748218	-0.480463
C	 0.0172414514	-0.0149125985	-0.0196096043	 0.249385
C	 1.3417354506	-0.7371685724	-0.1979195166	-0.29212
C	 0.684865704	-0.7139050333	 1.1522727841	-0.292103
C	-1.1901434021	-0.6511137049	-0.5960685825	 0.293358
N	-1.3540579013	-1.9788402755	-0.6532196457	-0.304281
N	-2.5416560973	-2.1204024957	-1.2285450767	-0.067918
N	-3.1799883893	-1.0100844133	-1.5579068635	-0.200029
C	-2.3353744462	-0.0550383567	-1.163271867	-0.153073
H	 0.9398601973	 1.8908906577	 0.3959491804	 0.115443
H	-0.0481742573	 1.885152091	-1.0695618938	 0.121305
H	-0.8228189489	 1.9125334086	 0.5245836087	 0.121303
H	 1.3231427212	-1.6682799365	-0.7519542918	 0.129499
H	 2.224014488	-0.125567597	-0.3554840552	 0.109324
H	 1.1139251338	-0.0862890421	 1.9264152497	 0.109327
H	 0.2249444871	-1.6294055671	 1.5052620899	 0.12949
H	-2.9361678402	-3.0299314201	-1.4049759189	 0.291457
H	-2.5792739928	 0.9856299147	-1.2995576651	 0.120096
