20
gdb 116526	3.14232	0.92632	0.76524	1.4245	81.84	-0.2271	-0.0173	0.2098	1554.1279	0.169847	-436.473833	-436.463486	-436.462542	-436.509693	37.205	
C	 0.2756240953	 1.5904537409	 0.0006693522	-0.369252
C	-0.085874396	 0.1187730272	-0.249818916	-0.149035
N	 0.6568276368	-0.4393945738	-1.3660996576	-0.271562
C	 1.8320600781	-0.892512393	-1.1582704962	 0.289327
N	 2.5514122199	-0.917612999	 0.0149355956	-0.555337
C	 2.6042233844	-1.4771468454	-2.3160385386	 0.396548
N	 3.6925849632	-2.0954802557	-2.0836018705	-0.559792
O	 1.995694255	-1.2582057507	-3.493583171	-0.202742
C	 2.6134990427	-1.7894429808	-4.654734755	-0.265465
H	 1.3261985319	 1.6948926905	 0.2877458064	 0.12369
H	 0.1146863365	 2.1763910233	-0.9085474904	 0.128874
H	-0.3444937192	 2.0110240547	 0.7989146321	 0.107868
H	 0.0479103104	-0.4570521959	 0.684354819	 0.070577
H	-1.1517157049	 0.0492981751	-0.4939007969	 0.102947
H	 2.0416670239	-0.8531628543	 0.8804388944	 0.251195
H	 3.3487341293	-1.5379401623	 0.0008698622	 0.270017
H	 4.1407128387	-2.462654176	-2.9195083621	 0.222726
H	 3.6121042907	-1.3618575704	-4.809380444	 0.130476
H	 2.6926900733	-2.8824115931	-4.6018549618	 0.130964
H	 1.9693380299	-1.5135928613	-5.4898224119	 0.147975
