18
gdb 123402	4.82774	0.87871	0.84	4.8993	77.41	-0.2491	0.0031	0.2522	1399.4221	0.149867	-398.117033	-398.109017	-398.108073	-398.151186	29.566	
C	-0.0931681277	 1.5638002329	-0.1095124413	-0.360133
C	-0.1760574117	 0.050820019	-0.2561449381	 0.036273
C	-0.1687069908	-0.828336306	 0.9661271225	-0.248501
C	-1.4305610854	-0.6773982353	 0.1509498161	-0.275359
C	 1.3052696418	 2.0752645294	 0.0428139952	 0.355
C	 2.0183888887	 2.5658875641	 1.1134774915	-0.151612
N	 3.283642987	 2.8753358007	 0.7124806431	-0.185739
N	 3.4054998494	 2.605639486	-0.5535530492	-0.119302
N	 2.214208468	 2.1214407769	-0.9647810908	-0.232173
H	-0.5747700217	 2.0459577429	-0.9708677737	 0.116091
H	-0.6653259594	 1.8718331023	 0.7718478865	 0.121923
H	 0.34264091	-0.3423177932	-1.1269490494	 0.082464
H	 0.3658294567	-1.7703532185	 0.9225799489	 0.119026
H	-0.1297874414	-0.3432392999	 1.9360770675	 0.116132
H	-2.2407284159	-0.0920906635	 0.5739619771	 0.114244
H	-1.7597886461	-1.5154834477	-0.4530123503	 0.116908
H	 1.6940948351	 2.7143434616	 2.1310456544	 0.118504
H	 2.1011698133	 1.8568710281	-1.9305405	 0.276252
