19
gdb 98890	3.21154	1.17113	0.99157	2.9923	72.55	-0.2208	0.0347	0.2555	1251.7272	0.16044	-456.345242	-456.336052	-456.335108	-456.380233	32.587	
C	-0.2993428241	 1.2542850359	-0.1902695388	-0.309491
N	 0.0769259261	-0.1418588446	-0.0902798162	-0.295798
C	 0.6813785846	-0.7768499491	-1.1371749855	 0.289058
N	 1.0675024669	-0.1585078263	-2.1879047283	-0.536749
C	 0.9276271993	-2.275487548	-0.8736399162	 0.124816
O	-0.1790110992	-2.85357315	-0.1821324148	-0.280331
C	-0.8822643825	-3.6921763839	-1.1022920716	-0.085338
C	-0.2152061942	-3.3946858936	-2.4508993271	-0.12019
O	 1.0985989966	-2.9975501047	-2.0620944418	-0.235743
H	 0.5687523423	 1.8413198052	-0.4984790957	 0.152026
H	-1.0912495041	 1.4264548216	-0.9319913126	 0.121397
H	-0.6416622679	 1.6032114542	 0.7868705523	 0.115441
H	-0.4697316948	-0.7396151867	 0.5091274516	 0.250873
H	 1.5399484315	-0.817021956	-2.8065252578	 0.219801
H	 1.8312051357	-2.4045448646	-0.2658894021	 0.116202
H	-0.754724917	-4.740203274	-0.8058339253	 0.114146
H	-1.9480247256	-3.4442824273	-1.0892486013	 0.115416
H	-0.1308139219	-4.2631967581	-3.1059366286	 0.124545
H	-0.7239661116	-2.5800583	-2.9823635201	 0.11992
