19
gdb 27256	3.06599	1.48481	1.03096	0.9546	82.96	-0.1862	0.0498	0.236	1156.7053	0.16298	-382.113747	-382.105584	-382.104639	-382.146804	31.449	
N	 0.1554321221	 1.4153141326	 0.175280871	-0.609754
C	-0.025775384	 0.0133885537	 0.0738918386	 0.055297
C	-1.1061213252	-0.8197863758	-0.1062948696	 0.267358
C	-2.5886715662	-0.7665395758	-0.3456312686	-0.364785
C	-3.0160827877	-2.2373075849	-0.0473008616	-0.191471
C	-1.7634239225	-3.1294194273	-0.3081348133	-0.348882
C	-0.6366313954	-2.1601705105	-0.0820291024	 0.269313
C	 0.7230627024	-2.1331834062	 0.10793513	-0.263974
N	 1.0792936012	-0.8045523355	 0.2036222997	-0.245801
H	 0.1058487111	 1.86931974	-0.7325718999	 0.239945
H	-0.5676462553	 1.8322155222	 0.7514576564	 0.241281
H	-3.1264616141	-0.0520580929	 0.287596273	 0.093126
H	-2.8210269501	-0.4970127166	-1.3858110792	 0.098789
H	-3.2901786505	-2.3156107677	 1.0101900221	 0.103093
H	-3.8861512315	-2.5499036114	-0.6315964236	 0.089198
H	-1.744541835	-4.0062759925	 0.3474038468	 0.099876
H	-1.7650960748	-3.5088104663	-1.3393967144	 0.101208
H	 1.4639000937	-2.9127433664	 0.1856228308	 0.11195
H	 1.9947931719	-0.4473838888	 0.4179891242	 0.254234
