22
gdb 113102	5.84192	0.63164	0.60716	3.1131	84.56	-0.2263	-0.0229	0.2034	1876.8957	0.192219	-404.334534	-404.32446	-404.323516	-404.370794	35.806	
C	 0.1448769767	 1.4821015725	-0.1148503363	-0.379052
C	 0.1026656564	-0.040901534	 0.0488989359	-0.198617
C	-1.3132518801	-0.5965418248	 0.0747447436	 0.042244
C	-2.1507607771	-0.5915058225	-1.2332924545	-0.182271
N	-2.6376464091	-1.9430992431	-0.8912246174	-0.085349
C	-2.8380923066	-2.9088260996	-1.9437259439	-0.235194
C	-3.5602818525	-4.1441333186	-1.4289213734	 0.157994
O	-3.3807618837	-5.2611721245	-1.8375869264	-0.2373
C	-1.5206316279	-2.1322558243	 0.0600003251	-0.203747
H	 1.1745339627	 1.8517095338	-0.1312570724	 0.115483
H	-0.3348026249	 1.7944125267	-1.0490070008	 0.119331
H	-0.3767156682	 1.9833905551	 0.7079006371	 0.116744
H	 0.6628024537	-0.5154683161	-0.7675269264	 0.09519
H	 0.6163887731	-0.3252878663	 0.9766849126	 0.099631
H	-1.8839519686	-0.1419010654	 0.8907816375	 0.081525
H	-2.9372435466	 0.1610772702	-1.3537316095	 0.102802
H	-1.5040004285	-0.5754697569	-2.1271311429	 0.084445
H	-3.4993678262	-2.4608249674	-2.7013685018	 0.128418
H	-1.9146274831	-3.2248270109	-2.4619720786	 0.10134
H	-4.3005708381	-3.9180458846	-0.6281760125	 0.083246
H	-0.6593140655	-2.6569013577	-0.3878609635	 0.088131
H	-1.7887840459	-2.6323713517	 0.9965435186	 0.105006
