23
gdb 113387	2.62639	0.99218	0.83494	2.224	82.52	-0.2529	0.0761	0.3289	1515.0874	0.203461	-425.415342	-425.404479	-425.403535	-425.451973	39.247	
C	-2.3130020295	-0.5292674108	-3.4391608186	-0.375956
C	-1.4928755623	-0.4484520948	-2.1448084711	-0.223985
C	-2.1775606274	-1.169901134	-1.0091295348	 0.030488
O	-2.1286924511	-2.606527376	-1.0221879427	-0.312917
C	-1.5200107169	-1.9068362651	 0.0909439563	 0.340695
C	-0.0110851741	-2.0353367978	 0.2125546755	-0.261387
C	 0.4654646391	-3.4676430214	 0.4960854822	-0.382641
C	-2.331064847	-2.1245970336	 1.3650831196	-0.121752
O	-2.4451488634	-3.5014998346	 1.6827329281	-0.412704
H	-1.8098155882	-0.0043692968	-4.2562117184	 0.115236
H	-2.4546713325	-1.5719147137	-3.7386447915	 0.134592
H	-3.3034554466	-0.0790725054	-3.3113687445	 0.116052
H	-0.4992312639	-0.871134284	-2.315139818	 0.109922
H	-1.351965137	 0.60104688	-1.8548286799	 0.102468
H	-3.1765153315	-0.7799331082	-0.7924653318	 0.081471
H	 0.4654480753	-1.6754753303	-0.7030159125	 0.101044
H	 0.3188722619	-1.364936323	 1.0167533442	 0.099433
H	 0.0372518417	-3.8576645128	 1.4212661548	 0.141748
H	 0.1629103876	-4.1333903345	-0.318060978	 0.12424
H	 1.5566433542	-3.4984418076	 0.5714822325	 0.105711
H	-1.8433219974	-1.6453621466	 2.2202529364	 0.107352
H	-3.3259453533	-1.6689101724	 1.2472718672	 0.087382
H	-2.7513880376	-3.9302831365	 0.8738923353	 0.293506
