25
gdb 117832	2.37177	1.01623	0.88365	2.0999	85.59	-0.2525	0.0698	0.3223	1508.001	0.226454	-426.61845	-426.60689	-426.605946	-426.654865	42.15	
C	-0.2772525354	 1.5334505232	 0.1183391289	-0.403116
C	 0.0613835877	 0.0422873994	 0.01840981	-0.203394
C	 0.740019294	-0.4194978866	-1.2948287759	 0.246581
C	 0.0146065068	 0.102302931	-2.5459734056	-0.435961
C	 2.2127379006	 0.0556811382	-1.3446988141	-0.083097
O	 3.0519403952	-0.6173857926	-0.4193668243	-0.4361
C	 0.7080867102	-1.9588551676	-1.2850871563	-0.101837
O	 1.6387071414	-2.468251156	-2.2287488149	-0.252857
C	 1.5722377615	-3.8691887863	-2.366484335	-0.231862
H	 0.6081648239	 2.1656648886	-0.0029026336	 0.120236
H	-1.009972956	 1.8386607652	-0.6347212003	 0.116205
H	-0.7033211371	 1.758935197	 1.1008909042	 0.113336
H	 0.7267090356	-0.2345101797	 0.8446670737	 0.113762
H	-0.8630154949	-0.5356251512	 0.1578792143	 0.084682
H	 0.1655435679	 1.1780037164	-2.6814980617	 0.114452
H	 0.3918576155	-0.4046300809	-3.4392152682	 0.123488
H	-1.0645542745	-0.076589935	-2.4828870823	 0.107555
H	 2.5932481695	-0.0556568848	-2.3681208371	 0.094626
H	 2.2652440241	 1.1197328569	-1.092376508	 0.101297
H	 3.189970928	-1.496667678	-0.7897980235	 0.285946
H	 0.9579883174	-2.3366664852	-0.2815305942	 0.092462
H	-0.3072431112	-2.3131250092	-1.5271169753	 0.088508
H	 1.7734921368	-4.3843976738	-1.4140856601	 0.106932
H	 0.5841323392	-4.1928878344	-2.727720045	 0.109512
H	 2.3303866438	-4.1643769345	-3.0959939458	 0.128643
