12
gdb 133464	3.55233	1.21302	1.07362	5.5238	52.56	-0.2513	0.0094	0.2606	1048.1532	0.076235	-563.212078	-563.204959	-563.204015	-563.244757	25.847	
F	-0.5846373063	 0.3131804246	-0.449262848	-0.070928
C	 0.0092297422	 1.4029040421	 0.0565787497	 0.235309
F	 1.2825999273	 1.0716095477	 0.3118428709	-0.071067
F	 0.0191769938	 2.3442676406	-0.9058745791	-0.084023
C	-0.6927330987	 1.9150781848	 1.2683201513	 0.108895
C	-1.2598509306	 3.1510687158	 1.4289682285	-0.173784
N	-1.772415827	 3.1362011723	 2.7021574568	-0.238442
C	-1.4954095831	 1.9116472774	 3.2403716304	 0.015656
N	-0.8425278938	 1.1491320646	 2.3981578916	-0.297794
H	-1.3403203135	 4.0045095713	 0.7785300419	 0.15656
H	-2.2636164931	 3.8913609284	 3.1512295849	 0.276349
H	-1.7935509373	 1.6403492405	 4.2418265612	 0.143268
