22
gdb 122396	6.18705	0.58098	0.5502	2.7576	84.88	-0.2286	-0.0222	0.2064	2032.767	0.192213	-404.344473	-404.334446	-404.333502	-404.380458	36.071	
C	-0.0973785026	 1.565494918	-0.0461518392	-0.379793
C	 0.0111840482	 0.0383557598	-0.0432813894	-0.164414
C	 0.731497451	-0.5080616554	 1.19383189	-0.168014
C	 0.844655727	-2.0326599111	 1.1954136093	-0.148721
N	 1.5039709694	-2.5297566676	 2.3900033375	-0.082614
C	 2.961095573	-2.2947396143	 2.5312380548	-0.290074
C	 3.0955312955	-3.7591718005	 2.9740397127	 0.392479
O	 3.9556004306	-4.4238131599	 3.4655205455	-0.279501
C	 1.6443246925	-3.9972047297	 2.5323365272	-0.286769
H	 0.8934019086	 2.0327995057	-0.0245035661	 0.11466
H	-0.6161951933	 1.9270421907	-0.9393099788	 0.11281
H	-0.6501651968	 1.924604709	 0.8288735076	 0.116106
H	-0.9938440809	-0.400361126	-0.100398864	 0.096702
H	 0.5379139985	-0.2930707287	-0.9479699259	 0.09621
H	 1.7372334925	-0.0693669826	 1.2514679524	 0.095983
H	 0.2072363298	-0.1953284347	 2.1051796364	 0.105836
H	-0.1593212917	-2.4737984809	 1.1614114798	 0.104373
H	 1.3677409912	-2.3667155742	 0.2747962904	 0.072087
H	 3.4904640844	-2.1171765972	 1.5789772206	 0.114191
H	 3.2533310483	-1.5208607014	 3.2482746859	 0.13276
H	 0.9661494578	-4.4704252047	 3.2504669843	 0.13131
H	 1.6046623471	-4.5558817643	 1.5816094488	 0.114393
