16
gdb 42837	2.64253	1.8625	1.66907	1.0717	67.64	-0.2412	-0.0287	0.2125	876.9021	0.125881	-437.843653	-437.837035	-437.836091	-437.8745	26.647	
O	 0.0243658498	-0.01531844	-0.0352618671	-0.311296
C	-0.0152607732	 1.1736922547	 0.041751456	 0.414189
C	-1.0826546407	 2.2743720851	 0.0037739517	-0.03621
C	-1.333310846	 2.8509752751	 1.409144508	-0.181303
N	-0.0924871443	 3.1940982905	 2.1241836992	-0.087202
C	 0.7812273947	 2.1259224006	 2.6019261146	-0.259436
C	 1.1639948508	 2.9316561571	 1.4044475465	-0.027996
C	 0.9844994881	 2.3453137091	 0.0162361731	-0.048786
O	-0.076373424	 3.1050311476	-0.65242316	-0.293218
H	-1.9933349287	 2.1475556879	-0.5861551856	 0.106244
H	-1.9052968018	 3.7771287864	 1.2861105176	 0.130808
H	-1.9344389044	 2.160804197	 2.0115441872	 0.121685
H	 1.2583990278	 2.3205981045	 3.5585694405	 0.123395
H	 0.4931544589	 1.0879198259	 2.4468332932	 0.135093
H	 1.9160966213	 3.7121659206	 1.4912482526	 0.107551
H	 1.9003047817	 2.2784699278	-0.5733871173	 0.106482
