17
gdb 26425	3.27142	1.07583	0.97571	2.6097	76.7	-0.222	-0.0278	0.1941	1251.9094	0.13506	-421.866752	-421.858101	-421.857156	-421.901311	30.908	
C	-0.1106145999	 1.5599170217	-0.0590521415	-0.409049
C	 0.0505175415	 0.0258730852	-0.0057398265	-0.176447
C	-1.3340663278	-0.6214940276	 0.0457523797	 0.163675
O	-1.7907177948	-1.1755567179	 1.0099117475	-0.245891
C	 0.8160582342	-0.5150419565	-1.1693942697	 0.359089
C	 1.8419008015	-1.4032341231	-1.2829398802	-0.285307
C	 2.1166774306	-1.5342954487	-2.6835335861	-0.16675
C	 1.2335119382	-0.7217714498	-3.3167360946	-0.019823
O	 0.4325457593	-0.0939372288	-2.4126241089	-0.18482
H	 0.8705076235	 2.0415712434	-0.0843563629	 0.133043
H	-0.6579119672	 1.8631785228	-0.9556920974	 0.138264
H	-0.6538200767	 1.9182872536	 0.8197190827	 0.130782
H	 0.5685111001	-0.2666535444	 0.9117500128	 0.109354
H	-1.9103710342	-0.5301536812	-0.9028203501	 0.086507
H	 2.3425515348	-1.9020977888	-0.4678916272	 0.115884
H	 2.8706822087	-2.1496840183	-3.1483178177	 0.115723
H	 1.0489420682	-0.4803261216	-4.3503149398	 0.135764
