17
gdb 98250	2.46754	1.21662	0.94758	4.2819	66.43	-0.2661	-0.0424	0.2237	1268.9428	0.131969	-496.14562	-496.135332	-496.134388	-496.182003	34.901	
C	-0.2521620358	 1.3485400701	 0.0308033412	-0.24537
O	-0.2156128312	-0.0752937495	-0.1597830488	-0.232292
C	 0.6995080673	-0.5111264786	-1.0516806247	 0.397221
O	 1.4438460745	 0.1999885574	-1.6660672568	-0.334091
C	 0.6622692207	-2.0495787152	-1.1610144401	-0.066554
O	 1.1001204464	-2.468820288	-2.4085855264	-0.405205
C	 1.5600970272	-2.6484106605	-0.0522540661	 0.359658
C	 1.0810133993	-2.6024061594	 1.3751023486	-0.484219
O	 2.6053367717	-3.1545662404	-0.3910549661	-0.306151
H	 0.7112845674	 1.7124604489	 0.3960137888	 0.145049
H	-0.4849190553	 1.8511515777	-0.9106406514	 0.150684
H	-1.0356551394	 1.5294918954	 0.7662317304	 0.137259
H	-0.3735928278	-2.3684411848	-0.987314647	 0.118828
H	 2.0125641626	-2.7730950116	-2.2728849381	 0.299232
H	 0.6183647832	-1.6408456936	 1.6078417324	 0.157371
H	 0.307216526	-3.3689712776	 1.5065534618	 0.156676
H	 1.9073615931	-2.8162506204	 2.0539100223	 0.151903
