18
gdb 54696	3.45489	1.42103	1.22113	3.7117	74.8	-0.2281	-0.0165	0.2116	1058.3804	0.147184	-401.881744	-401.873829	-401.872885	-401.915103	29.955	
C	 0.1516187206	 1.4873746025	-0.0176825386	-0.483547
C	-0.0755370861	-0.0088849607	 0.1217804749	 0.369429
O	-0.3541960656	-0.5216467456	 1.180898054	-0.296407
C	 0.0536217266	-0.7984956989	-1.1720636915	-0.06125
C	 1.3689991387	-0.889640063	-1.9432583232	-0.116748
C	 2.1009152281	-2.1264988489	-1.3780423676	-0.085136
C	 1.1972123065	-2.6845921442	-0.2922084937	-0.180753
N	-0.0061530468	-2.3123156949	-1.1491350202	-0.179398
C	 0.9718467503	-2.2766915416	-2.3493821019	-0.026208
H	 1.1888803817	 1.6826116101	-0.3136038534	 0.144714
H	-0.4880295762	 1.9098555294	-0.8002581417	 0.13736
H	-0.0526721617	 1.9791575542	 0.934039238	 0.144762
H	-0.7440655227	-0.4503237917	-1.8420515738	 0.103482
H	 1.8852699485	-0.1397739298	-2.5298891826	 0.093621
H	 3.1601235862	-2.2687860616	-1.5541804762	 0.092861
H	 1.248483908	-3.7748514442	-0.2376983598	 0.109957
H	 1.1967225337	-2.2581446299	 0.7108896097	 0.130046
H	 0.82577607	-2.7730921112	-3.2976805923	 0.103217
