21
gdb 101103	3.43373	1.09952	0.98338	2.0557	78.99	-0.2433	0.077	0.3204	1299.959	0.181346	-424.162322	-424.153241	-424.152296	-424.196252	34.779	
C	 0.0351943377	 1.5060461667	-0.1255702262	-0.386925
C	-0.0120526396	-0.004826489	 0.1084980193	-0.18765
C	-1.4384051293	-0.5691720862	 0.0381191844	-0.028814
O	-2.0778973995	-0.2619331396	-1.195716438	-0.434952
C	-1.4681071965	-2.0640285159	 0.2296131783	 0.436229
C	-0.763660984	-3.0145571455	 1.234079511	-0.273256
C	-1.3720108512	-3.8483952906	 0.082491812	 0.049026
C	-2.6790050538	-3.0330083312	 0.1783435741	-0.260838
O	-0.8458825113	-2.8537804729	-0.8844116418	-0.362475
H	 1.0654864735	 1.8738788815	-0.1195140592	 0.10814
H	-0.4174231053	 1.7579658145	-1.0877325404	 0.132694
H	-0.5167569696	 2.0449319554	 0.6530214755	 0.110291
H	 0.600721864	-0.5279455231	-0.6360393693	 0.10903
H	 0.4134480341	-0.2508256191	 1.0896828474	 0.094729
H	-2.0548722322	-0.1039427724	 0.8190162153	 0.088086
H	-1.7270616357	-0.8876409925	-1.842847314	 0.291324
H	 0.3252131508	-2.9612660422	 1.2435963156	 0.1114
H	-1.1987651434	-3.1183963119	 2.2310451165	 0.09781
H	-1.2249307952	-4.9002514808	-0.1605332531	 0.098695
H	-3.2871756308	-3.1370944213	 1.0803342524	 0.095472
H	-3.2708862728	-2.9850553038	-0.7352659197	 0.111985
