20
gdb 31813	4.45446	0.97218	0.85387	1.9089	90.73	-0.2403	-0.0186	0.2218	1431.0285	0.171997	-366.091163	-366.082129	-366.081185	-366.125993	33.031	
C	 0.1078086661	 1.5441224844	 0.1462327968	-0.367302
C	-0.0548202452	 0.0254336644	-0.0261751878	-0.264696
C	 0.695077387	-0.4982665532	-1.2284170809	 0.314877
N	 0.2285043573	-0.1332774711	-2.4299740371	-0.312915
C	 0.8730123931	-0.560653683	-3.5154068893	-0.0734
C	 2.0109641981	-1.3703118708	-3.500611253	 0.264257
C	 2.6802920374	-1.8147141653	-4.7750441331	-0.498322
C	 2.4864244608	-1.7430832965	-2.2424560441	-0.148981
C	 1.8279154992	-1.3069428494	-1.1009036583	-0.162906
H	 1.1548196061	 1.8110878414	 0.3243685624	 0.112403
H	-0.2243157099	 2.0620709861	-0.7573563844	 0.137513
H	-0.4836301488	 1.9072457643	 0.9923134808	 0.109236
H	 0.2856750251	-0.4943999067	 0.8758787428	 0.093969
H	-1.1179499057	-0.2079034789	-0.1536977746	 0.11571
H	 0.4572950964	-0.2417251661	-4.4706040407	 0.09703
H	 3.7229505871	-1.4804013035	-4.818246904	 0.13264
H	 2.6891834883	-2.9069388675	-4.8638634443	 0.132916
H	 2.1652656335	-1.4138018945	-5.6523730612	 0.127939
H	 3.3674005081	-2.3738175026	-2.1578386183	 0.096411
H	 2.1845869161	-1.5900228714	-0.1159850918	 0.09362
