19
gdb 98540	3.74125	1.0766	0.91793	2.0541	77.07	-0.2485	-0.026	0.2225	1322.2903	0.157172	-423.014571	-423.005503	-423.004559	-423.049066	33.117	
C	-0.2429757896	 1.6681687913	-0.717092322	-0.382632
C	-0.3057729077	 0.1556371609	-0.9123617396	-0.287191
C	 0.9931767342	-0.5439702053	-0.552064572	 0.258098
O	 1.9352485941	 0.0248003139	-0.0408805012	-0.318814
C	 1.0892334725	-1.9979684528	-0.8511865133	 0.353123
C	 2.1859031173	-2.9831927787	-0.4280526804	-0.296627
C	 1.9719909674	-3.7465670607	-1.7813391886	-0.242153
C	 0.8838961202	-2.7262850068	-2.1377638289	-0.036072
O	-0.1036608178	-2.7544005604	-1.1176761551	-0.276074
H	 0.011205316	 1.9164679564	 0.3161540982	 0.134394
H	 0.5238794712	 2.1156857192	-1.3552680646	 0.126817
H	-1.2051125757	 2.1276499737	-0.9594525969	 0.110071
H	-1.0974188635	-0.2972251557	-0.300886432	 0.139369
H	-0.5724444925	-0.110324057	-1.9433340632	 0.121715
H	 3.1616513707	-2.5019051214	-0.3584422444	 0.134934
H	 1.9765473723	-3.5338147873	 0.4909109483	 0.11485
H	 2.842351621	-3.6899794331	-2.4382367455	 0.115883
H	 1.6244232562	-4.7802121425	-1.7210079947	 0.118464
H	 0.5831504137	-2.3483146137	-3.1090256439	 0.111845
