17
gdb 35924	3.10446	1.42449	1.0907	5.788	72.58	-0.2631	0.0174	0.2805	1093.6394	0.138374	-417.99046	-417.982926	-417.981981	-418.022663	28.874	
N	-0.0046069599	-1.1157890683	-0.226777897	-0.317534
C	-0.0176110391	 0.0308677389	-0.0931137064	 0.282246
C	 0.0019809821	 1.49899583	 0.0055206597	-0.009988
O	-0.7153351232	 1.8685175702	 1.1633414316	-0.250602
C	-0.6920788497	 3.2755530044	 1.3756277672	-0.076226
C	 0.6988301536	 3.7616555511	 1.7914636716	-0.212481
C	 1.7720209898	 3.1720313939	 0.8863194488	-0.041527
N	 2.2028583085	 1.8022739205	 1.2163010306	-0.308592
C	 1.4344880209	 2.0254427192	-0.0041703567	-0.064553
H	-0.5050717898	 1.8967332722	-0.8924214484	 0.112221
H	-1.0186100868	 3.7926251849	 0.4580540944	 0.09294
H	-1.4328907388	 3.4700449034	 2.1545078108	 0.120958
H	 0.7241213928	 4.8557841962	 1.7471436572	 0.103046
H	 0.9035211961	 3.464599835	 2.8242876052	 0.12922
H	 2.5327687563	 3.8599471959	 0.5258201609	 0.09603
H	 3.184866587	 1.6628797824	 0.9964386324	 0.240389
H	 1.9299949303	 1.94315121	-0.968760222	 0.104452
