17
gdb 53589	4.71871	0.67146	0.62562	1.5898	84.78	-0.2466	0.0167	0.2632	1785.9634	0.132128	-384.607941	-384.597863	-384.596919	-384.645505	34.707	
C	-0.0281186783	 1.430568279	-0.314159624	-0.496841
C	-0.0258416507	 0.0118098543	 0.0123149028	 0.094983
C	-0.0142422102	-1.1621785466	 0.2773278632	 0.043829
C	-0.0313059372	-2.5865159408	 0.5949176947	-0.395994
C	-1.3760435137	-3.2264571727	 0.301061536	 0.084912
O	-1.6326572256	-3.6268328499	-1.0380142372	-0.234987
C	-1.5101598999	-4.6597124925	-0.043036051	-0.157621
C	-0.3783164127	-5.5430755426	-0.1316546951	 0.341792
C	 0.5463146731	-6.3094780867	-0.1871737613	-0.434246
H	 0.8852457342	 1.7167451643	-0.8472913694	 0.14882
H	-0.8786149036	 1.6884258697	-0.9548438707	 0.149874
H	-0.0929265353	 2.0492243993	 0.5877826376	 0.145832
H	 0.7408813162	-3.1208930251	 0.0313451433	 0.147196
H	 0.1958808016	-2.7372653969	 1.6594386532	 0.132896
H	-2.22604268	-2.756239507	 0.7977360078	 0.105111
H	-2.452638252	-5.1492032982	 0.2015729103	 0.11881
H	 1.3655928742	-6.9831110877	-0.2448045704	 0.205633
