19
gdb 82722	2.62084	1.84438	1.35564	3.257	78.2	-0.2298	-0.0077	0.2221	994.9574	0.160911	-385.897538	-385.890147	-385.889203	-385.929141	29.833	
C	-0.1247471152	 1.5977520526	 0.0308082981	-0.411771
C	 0.0455772793	 0.0832923281	-0.0277008449	-0.081335
C	 0.819283695	-0.5212307773	-1.2090141444	-0.069959
C	 2.3361500676	-0.1277138787	-1.1709846689	-0.24716
C	 2.6058722372	-1.4356049805	-0.4347069743	-0.055107
C	 1.2314913898	-1.9575290041	-0.7483605339	-0.097398
C	 1.5841942925	-1.6740263453	 0.6943849063	-0.151405
C	 0.7824474876	-0.5109331859	 1.1882557912	 0.40248
O	 0.6833752372	-0.1281336278	 2.3288036268	-0.344119
H	 0.8324799576	 2.1163850736	-0.0811250658	 0.12074
H	-0.795357561	 1.9547212817	-0.7565544186	 0.110668
H	-0.5422694796	 1.881296556	 1.0008943684	 0.139947
H	-0.9497915495	-0.3885073662	-0.0074667785	 0.10102
H	 0.3234829485	-0.4218722019	-2.1736926414	 0.076026
H	 2.7759143521	-0.144916387	-2.1712807374	 0.107855
H	 2.6091887232	 0.8112396718	-0.678645208	 0.103221
H	 3.5457520044	-1.9729752306	-0.3912239732	 0.096316
H	 0.8971935399	-2.9140010481	-1.1271144831	 0.095453
H	 1.8307034033	-2.4735004905	 1.3819060817	 0.10453
