11
gdb 21385	5.66967	2.27996	1.62606	0.931	56.83	-0.2381	-0.0236	0.2145	693.0054	0.076712	-393.592389	-393.587279	-393.586335	-393.621501	19.719	
N	 0.0153657631	 1.3230090218	 0.0094695562	-0.331277
N	 1.2837890786	 1.8163574304	 0.0000105655	-0.208232
C	 2.1149215202	 0.7681007379	-0.0140366781	-0.152638
C	 1.3495504007	-0.408094058	-0.0134093129	 0.246437
C	 0.0300477005	-0.0290973131	 0.0015415184	 0.375921
N	-0.806347521	-1.1240449772	 0.0033203361	-0.351742
C	 0.0469163638	-2.1057571521	-0.0106326986	 0.053321
O	 1.3767375964	-1.7772994292	-0.0215742215	-0.204337
H	-0.758336841	 1.9642200032	 0.0206621365	 0.283642
H	 3.1807419123	 0.9283145239	-0.0234188167	 0.130529
H	-0.1743837936	-3.1618160177	-0.0145830949	 0.158378
