21
gdb 63688	4.29905	0.63044	0.6076	2.6789	80.99	-0.2463	-0.0199	0.2265	1851.6458	0.178998	-424.223328	-424.212882	-424.211938	-424.259765	37.571	
C	 0.1878266159	 1.5448016074	-0.3471674585	-0.449579
C	 0.0397345343	 0.0697226885	-0.0489864881	 0.382266
O	-1.1334571074	-0.4951275877	-0.5843411237	-0.466116
C	 1.2519979909	-0.8312261822	 0.032319953	-0.351865
C	 0.4180791274	-0.538947675	 1.2706930119	-0.016058
C	 0.9777825545	 0.2468386118	 2.4366092522	-0.239393
C	 1.7939227886	-0.6433270324	 3.3956689728	-0.261932
C	 2.2657982579	 0.1234762183	 4.6081011102	 0.158149
O	 3.4140632232	 0.2442186977	 4.949700116	-0.238104
H	 1.0925029548	 1.96762738	 0.0966820616	 0.12005
H	 0.2502110301	 1.7084657689	-1.430235447	 0.109566
H	-0.6773143784	 2.1019458126	 0.0265361354	 0.127233
H	-1.0577764337	-0.4721967164	-1.5451859793	 0.278997
H	 1.1738530937	-1.8181530276	-0.4096668063	 0.112835
H	 2.2350387347	-0.3743954517	-0.0367605339	 0.108708
H	-0.2472261421	-1.348839059	 1.5600112622	 0.097037
H	 1.618693648	 1.0598462193	 2.0774415605	 0.109507
H	 0.1578140438	 0.7220915313	 2.9917649873	 0.107591
H	 1.1534436028	-1.4642224276	 3.7502459808	 0.118081
H	 2.6605790281	-1.0811181552	 2.8928660863	 0.124701
H	 1.443872403	 0.603105849	 5.1923332165	 0.068325
