19
gdb 97164	3.24299	1.38891	1.07614	3.5798	78.78	-0.2176	0.0492	0.2668	1159.6416	0.16105	-419.20023	-419.191883	-419.190939	-419.234077	30.32	
C	-0.0702396447	 1.4003434809	 0.054257807	-0.323804
N	 0.0952051563	-0.0416150794	 0.0462924091	-0.338913
C	 0.4027409764	-0.6217050897	-1.0279261118	 0.443574
O	 0.5554314738	-0.0197732147	-2.2584466796	-0.256248
C	 1.314208684	-0.8647760601	-3.1326719798	-0.115609
C	 1.3060227378	-2.2452036149	-2.4492194063	 0.009837
C	 2.5676267101	-2.7766526442	-1.7136158015	-0.256477
C	 1.7769936011	-2.5919577513	-0.387189767	-0.168399
N	 0.6432843889	-1.9933720876	-1.1494635845	-0.142324
H	 0.3930297567	 1.9077968782	-0.801191784	 0.11311
H	-1.1376204273	 1.6567125025	 0.0598740905	 0.120239
H	 0.35699232	 1.8049675972	 0.9781070373	 0.114508
H	 0.826576912	-0.8664304351	-4.1105701977	 0.12233
H	 2.3273880256	-0.4578188532	-3.2444601149	 0.111092
H	 0.7894418468	-2.9962449105	-3.0545904197	 0.091731
H	 2.8636777366	-3.7978433192	-1.958669522	 0.11408
H	 3.4379225848	-2.1218664588	-1.807885379	 0.112668
H	 1.4901554635	-3.521988475	 0.1095791529	 0.118824
H	 2.1965861076	-1.905488045	 0.3520120011	 0.129782
