14
gdb 128549	2.74746	1.33786	0.90495	6.2139	70.15	-0.2528	-0.0757	0.1771	1203.3654	0.099927	-473.804503	-473.796404	-473.79546	-473.837892	28.165	
C	 0.0107927707	 1.4391825309	 0.0089304026	-0.261158
O	 0.0190481392	 0.0148417899	 0.0048397534	-0.25309
C	-1.1760481739	-0.5893909399	 0.0126040467	 0.186739
C	-1.379438139	-1.9514284634	 0.0107604812	 0.226222
O	-2.7126726131	-2.1901473013	 0.0204719766	-0.190551
N	-3.3937996103	-1.002077255	 0.0287316164	-0.1047
C	-2.4913055393	-0.0467068533	 0.024112603	-0.080337
C	-0.4294815739	-3.0574101162	 0.0006647079	 0.074203
O	-0.7279678387	-4.2294433995	 0.0000928869	-0.270122
H	 1.0559084576	 1.7484117695	 0.0017648982	 0.154092
H	-0.4927001327	 1.832863302	-0.8819211501	 0.138199
H	-0.4789275427	 1.8277986166	 0.9096269535	 0.138202
H	-2.8119032739	 0.9837840454	 0.0291692794	 0.145129
H	 0.6251904998	-2.7129792356	-0.0065788357	 0.097171
