19
gdb 39306	2.60522	2.0451	1.78583	1.1811	72.15	-0.2341	0.0792	0.3133	874.2883	0.163714	-423.02013	-423.013815	-423.01287	-423.050555	26.819	
C	-0.1755782724	 1.478503855	-0.1848489458	-0.104403
O	 1.0733059431	 2.0607814973	 0.2084851399	-0.277306
C	 1.8775886683	 1.066473571	 0.8501829408	 0.071391
C	 1.5240891156	 0.926859458	 2.339583345	-0.204148
C	 0.1441925994	 0.2383431894	 2.5042221026	-0.231391
C	-0.0346214386	-0.7313162758	 1.3345257852	 0.08227
O	 1.2670975151	-1.3408400868	 1.0647464646	-0.303307
C	 1.5162445038	-0.2666522416	 0.1312328011	 0.080742
C	 0.0116499651	-0.0249636339	-0.0604988445	-0.064339
H	-0.9933466417	 1.8645735723	 0.4396149669	 0.097873
H	-0.3801391659	 1.7746230911	-1.2205233159	 0.104395
H	 2.9171977308	 1.3754562197	 0.7159945789	 0.079621
H	 2.2901785349	 0.3080591811	 2.8152117335	 0.112254
H	 1.5454401541	 1.9106215904	 2.8153312411	 0.102399
H	 0.1016746156	-0.3072765066	 3.4518746206	 0.104758
H	-0.6748854968	 0.9663140347	 2.5206334395	 0.106082
H	-0.8096173171	-1.4849383229	 1.494527395	 0.076772
H	 2.1794638064	-0.5545456734	-0.6862433957	 0.081178
H	-0.4695021898	-0.6138684188	-0.8408018327	 0.085158
