16
gdb 61753	3.04519	1.00112	0.85592	2.7865	69.03	-0.2573	-0.112	0.1453	1342.5904	0.120324	-475.029283	-475.019463	-475.018519	-475.065088	33.176	
C	-0.119223646	 1.7470308713	-0.3710107742	-0.422267
C	 0.157539604	 0.2631882541	-0.1153749798	 0.009434
O	 1.1276333773	 0.1904145285	 0.913250414	-0.179471
C	 1.7073269259	-1.011575511	 1.1381175772	 0.142167
N	 2.5637716117	-1.1271477849	 2.0540063503	-0.438439
C	-1.1182025216	-0.4843435209	 0.2766948728	 0.27602
O	-1.2961567665	-1.0073345302	 1.3487778013	-0.262228
C	-2.2204752321	-0.6200049694	-0.7857485556	 0.087783
O	-2.1016767982	-0.2566422061	-1.9262173996	-0.215447
H	 0.822219271	 2.244534056	-0.6130328395	 0.148111
H	-0.812368036	 1.8676824131	-1.204481842	 0.151749
H	-0.5358038189	 2.2153316323	 0.5247305598	 0.14471
H	 0.5348879783	-0.1950392974	-1.0420565289	 0.117403
H	 1.3694936135	-1.8000865293	 0.4525464631	 0.085551
H	 2.9146403469	-2.0819052629	 2.0859642408	 0.232664
H	-3.1268664493	-1.1248037333	-0.3912520295	 0.122257
