20
gdb 64499	3.3457	1.37487	1.17405	1.2698	78.59	-0.2382	0.0668	0.305	1106.3989	0.172517	-403.058184	-403.050338	-403.049394	-403.091119	31.575	
O	 0.0380115358	 1.4322823294	 0.0300754572	-0.482832
C	 0.0581091865	 0.0136593878	 0.0128692225	 0.44298
C	 1.0981191947	-0.5016435491	-0.9874819391	-0.10112
C	 0.8100641204	-0.5021389788	-2.4453898135	-0.23256
N	 1.7867978717	 0.4426778715	-1.8846408589	-0.331631
C	-0.0604474982	-0.730657909	 1.3875952212	-0.125573
C	-1.491159684	-0.1269116388	 1.5145614325	-0.235106
C	-1.371402948	-0.6066865403	 0.0355639017	-0.078132
C	-0.7190575306	-1.9024849507	 0.5991214713	-0.234123
H	 0.8770936704	 1.7363139816	 0.3944946189	 0.285251
H	 1.7610554594	-1.2728453656	-0.6037250139	 0.096311
H	 1.2241499031	-1.2749513932	-3.0873630216	 0.114965
H	-0.1556450482	-0.1161695694	-2.7632069446	 0.112999
H	 1.3297217976	 1.3474983263	-1.7849695702	 0.231131
H	 0.7065889516	-0.8036990349	 2.16195932	 0.068305
H	-2.1870163712	-0.6911452683	 2.1399846145	 0.088708
H	-1.5647538187	 0.9457385951	 1.6795114745	 0.1099
H	-2.1228049478	-0.5317808985	-0.7519600644	 0.071248
H	-0.0936609587	-2.4918772523	-0.0722800747	 0.103068
H	-1.381127816	-2.5444181728	 1.1838202365	 0.096211
