19
gdb 110135	1.86285	1.40426	0.95659	2.5785	75.01	-0.2391	-0.0186	0.2205	1301.6432	0.155692	-460.123132	-460.113031	-460.112087	-460.158746	34.935	
C	 0.0898789029	 1.072888781	 0.6395737621	-0.242626
O	-0.1593732734	 0.1645736	-0.4197108494	-0.222892
C	-1.3700458749	-0.4854264838	-0.3044949213	 0.059122
C	-1.521521468	-1.7846360755	-0.9924349058	 0.059134
O	-0.4424663546	-2.2631964081	-1.7052356848	-0.222887
C	-0.4631581124	-3.6706807349	-1.8720282565	-0.242634
C	-1.4823433893	-1.7686717091	 0.5563234049	-0.221872
C	-0.2814221003	-2.2767083889	 1.2511901396	 0.161575
O	-0.3154548719	-2.8403518039	 2.3224103021	-0.288137
H	 1.0441260171	 1.5567052026	 0.4230382739	 0.137724
H	-0.6966479897	 1.83874059	 0.7040636216	 0.113754
H	 0.1557300479	 0.5558272063	 1.6069213924	 0.125087
H	-2.2423948217	 0.1700977862	-0.2675422265	 0.102885
H	-2.4972271986	-2.0153634479	-1.4246777319	 0.102887
H	 0.4045417896	-3.9294385469	-2.4816955791	 0.137724
H	-0.3978269631	-4.1920107967	-0.9069420655	 0.125104
H	-1.3772997632	-3.999674138	-2.3872180156	 0.113754
H	-2.413885564	-1.9401794667	 1.0852440548	 0.104683
H	 0.6753980076	-2.1061352359	 0.7190139748	 0.097613
