12
gdb 5444	3.66459	1.99366	1.29447	7.4156	63.83	-0.2209	-0.002	0.2189	852.654	0.086775	-373.754393	-373.747576	-373.746632	-373.785365	25.028	
N	 0.0868848536	 1.3909850611	 0.1626611975	-0.611869
C	 0.0024071612	 0.014584634	 0.0371104555	 0.26768
C	-1.0781084109	-0.8514180066	-0.0037710705	 0.139461
N	-0.6426654885	-2.1691491173	-0.034107552	-0.301311
C	 0.6563953691	-2.1010570794	-0.0222286707	 0.002838
N	 1.1044500969	-0.7965589802	 0.0224733006	-0.289017
C	-2.4342832445	-0.4518744443	-0.0181006358	 0.199684
N	-3.5232086716	-0.0530032762	-0.0324659453	-0.361113
H	 0.6835179125	 1.8400863595	-0.5221944393	 0.259368
H	-0.8289475467	 1.8231878587	 0.1594438371	 0.276986
H	 1.3389637803	-2.9364149458	-0.05405575	 0.142677
H	 2.0587667484	-0.4880195533	 0.1119631329	 0.274614
