19
gdb 101083	2.16456	1.22867	1.05828	1.0663	72.14	-0.2589	-0.0411	0.2178	1242.9548	0.155879	-460.14406	-460.134007	-460.133063	-460.179146	35.773	
C	-0.172096718	 1.6697393931	 0.2380469484	-0.417374
C	-0.1079259571	 0.1432987399	 0.0748877261	-0.048591
C	 0.7356212327	-0.5161767788	 1.172666629	-0.102882
O	 2.072106827	-0.0641946309	 1.0006017483	-0.423808
C	-1.4886144603	-0.481744448	-0.0082929396	 0.291475
C	-2.171988706	-0.6100389137	-1.3169262326	-0.221691
O	-1.586017665	-1.7441150916	-0.7060977219	-0.271369
C	-2.4093227961	-0.468348813	 1.1773941992	 0.126379
O	-2.2321379723	 0.1523106796	 2.1949109266	-0.25679
H	 0.8422559087	 2.0708740685	 0.2850060341	 0.137816
H	-0.6899399473	 2.1368344757	-0.6059811059	 0.104901
H	-0.6971650042	 1.9414126915	 1.1568885438	 0.142471
H	 0.3902327035	-0.0909186647	-0.8740127834	 0.095003
H	 0.3421635191	-0.2413441533	 2.1602068266	 0.112763
H	 0.6727717265	-1.6107983663	 1.0704465488	 0.095902
H	 2.5892773573	-0.3641167233	 1.7531874371	 0.288882
H	-3.2601145421	-0.6143577262	-1.3746659022	 0.123534
H	-1.6568482383	-0.2186504406	-2.1927986282	 0.13137
H	-3.2984795779	-1.1217067479	 1.0323162756	 0.09201
