18
gdb 14893	3.0152	1.82709	1.62795	0.5947	77.53	-0.2382	0.0288	0.267	900.7371	0.154902	-310.654717	-310.647198	-310.646254	-310.686262	29.399	
C	-0.0896683623	-1.2436501921	-0.2077956407	-0.501839
C	-0.0460266444	-0.0463533728	-0.1036946578	 0.357839
C	-0.0010507529	 1.4094934963	 0.0247426527	-0.169439
C	-0.7221650783	 1.8842013209	 1.3090117936	-0.211352
C	-0.0194214049	 1.3683896312	 2.570871273	-0.242978
C	 1.4740970452	 1.5461737774	 2.4942799015	-0.03724
C	 2.1253818121	 1.8076885504	 1.3618382413	-0.04227
C	 1.4549614212	 1.9401228496	 0.0189590468	-0.255101
H	-0.1270444507	-2.3001360353	-0.3064158631	 0.193903
H	-0.5225480442	 1.8349727472	-0.8419484223	 0.100387
H	-0.7162109645	 2.9808279317	 1.308720181	 0.099021
H	-1.7679587899	 1.5636682202	 1.2918753327	 0.102913
H	-0.4133999994	 1.8882274479	 3.4529426146	 0.099761
H	-0.2542236708	 0.3052875863	 2.7215488867	 0.121355
H	 2.0307570138	 1.4429404076	 3.4227641501	 0.082188
H	 3.2050669589	 1.9365441034	 1.3774437595	 0.082893
H	 2.0351711844	 1.4103217368	-0.7448344565	 0.114219
H	 1.4460281467	 2.9955184032	-0.2895009032	 0.10574
