21
gdb 116950	5.68935	0.45769	0.43705	0.7652	84.84	-0.2454	0.057	0.3025	2470.542	0.179428	-424.197705	-424.186285	-424.185341	-424.23608	39.53	
C	-0.8690496624	 0.295419147	 0.0771879904	-0.402905
C	 0.5383470416	-0.0678208772	-0.3892316049	 0.144215
O	 1.2389190326	 1.0677499204	-0.8870614203	-0.434564
C	 1.4203344343	-0.6125874083	 0.7488829134	-0.339246
C	 0.9534192634	-1.8827392686	 1.28963403	 0.059975
C	 0.5489786635	-2.9312803936	 1.7239470387	 0.045733
C	 0.0963223962	-4.2112829634	 2.2544509228	-0.324831
C	 1.2400344608	-5.2180402606	 2.4190246564	-0.062487
O	 0.6709273021	-6.4105837406	 2.9325962065	-0.415709
H	-0.8246587544	 1.0797670075	 0.8400761298	 0.121582
H	-1.4738665799	 0.663787127	-0.7596003885	 0.103474
H	-1.3742347262	-0.5776228592	 0.4994469655	 0.133855
H	 0.4712621313	-0.8448589784	-1.1673973557	 0.074096
H	 0.6821777068	 1.4947937084	-1.5453996659	 0.28137
H	 2.438914437	-0.718869468	 0.3570998706	 0.134085
H	 1.471839265	 0.1478828785	 1.5389645282	 0.128589
H	-0.3871805748	-4.0760500271	 3.2298253969	 0.134679
H	-0.6597175369	-4.6549114919	 1.594838684	 0.13436
H	 1.7239215714	-5.3833130297	 1.4447988033	 0.097196
H	 1.9977901965	-4.8016063155	 3.0993397919	 0.097862
H	 1.3749229423	-7.0545211467	 3.0507286368	 0.288671
