16
gdb 16256	2.89942	2.24941	1.45867	1.8317	60.01	-0.2446	0.0507	0.2952	854.617	0.130328	-420.844507	-420.837096	-420.836152	-420.876477	27.553	
O	 0.0639398372	 1.4195527643	-0.2206881706	-0.426173
C	-0.0030546319	 0.0288009858	 0.0338724326	 0.005745
C	 0.5118004085	-0.3934501555	 1.4243210159	-0.117705
O	-0.2224484801	-1.5630128151	 1.7510607792	-0.245477
C	-1.5629897063	-1.3234085277	 1.3352406946	-0.162452
C	-1.4538519727	-0.4532163081	 0.0867895629	 0.401257
C	-2.5637973383	 0.2828972002	-0.5163505041	-0.240382
O	-2.0472229606	-0.9076168511	-1.1283073968	-0.276315
H	 0.9592012643	 1.6327100655	-0.4999471099	 0.291747
H	 0.5097182691	-0.5423978206	-0.7517351801	 0.094794
H	 1.575007498	-0.6445740271	 1.4527220629	 0.107684
H	 0.3169007032	 0.4270918921	 2.1349422734	 0.09679
H	-2.045874144	-2.2808866456	 1.1263536252	 0.127567
H	-2.1244528298	-0.8033348527	 2.1278882591	 0.098119
H	-3.5633182845	 0.1921474167	-0.0911764437	 0.111951
H	-2.3554706922	 1.2100912189	-1.0442272506	 0.132848
