13
gdb 4949	3.27664	2.45082	1.4021	6.2082	65.51	-0.2008	-0.0239	0.1768	809.8712	0.098253	-394.826906	-394.820317	-394.819373	-394.857663	25.244	
N	-0.0671591247	 1.2600856346	 0.3948022121	-0.491583
C	 0.0069644781	 0.0423565553	 0.0234737137	 0.270672
N	 1.1639645146	-0.6479275272	-0.3238707272	-0.38358
C	 1.2084730949	-1.9768679315	-0.7245489722	-0.04197
C	 0.0765295711	-2.6855659994	-0.7964704946	-0.041855
N	-1.1294286925	-2.0735158201	-0.4664828471	-0.364627
C	-1.2832125865	-0.7625713932	-0.0575992988	 0.403944
O	-2.366873164	-0.2997440909	 0.2128076395	-0.334911
H	 0.8539646782	 1.7041059613	 0.4138451713	 0.202257
H	 2.0279181767	-0.1301844404	-0.2759725235	 0.250407
H	 2.1791169381	-2.38323899	-0.9644519535	 0.133978
H	 0.0394161232	-3.7203052356	-1.0996197386	 0.135202
H	-1.9925782374	-2.5946186228	-0.5156979211	 0.262066
