19
gdb 103787	4.90892	0.71612	0.67914	2.3746	82.45	-0.2458	0.0248	0.2706	1700.8287	0.155605	-422.983824	-422.973164	-422.97222	-423.021117	36.954	
C	 0.2035569605	 1.4606198991	 0.2366130702	-0.502862
C	 0.0582870571	 0.0165785096	 0.1365744757	 0.148856
C	-0.0671601738	-1.1792369025	 0.0615968955	 0.061636
C	-0.1747473788	-2.607877125	-0.0519599797	-0.246113
O	-0.8226486067	-3.3237786855	 1.0225535854	-0.290744
C	-1.4640933948	-3.3075102995	-0.2660249808	 0.362612
C	-2.7691241025	-2.5535593678	-0.3398074557	-0.463682
C	-1.4430318554	-4.6752814775	-0.9253330912	-0.113795
O	-2.3054599222	-5.5739109849	-0.2491147817	-0.415563
H	 1.2544343723	 1.7600882526	 0.1605258003	 0.153215
H	-0.3487073786	 1.9730911599	-0.558725754	 0.152128
H	-0.1781582932	 1.8271447302	 1.19576041	 0.156274
H	 0.7258224034	-3.1040294567	-0.4159679632	 0.106096
H	-2.7253071283	-1.6437532266	 0.2601250933	 0.136137
H	-2.993416237	-2.2809572172	-1.3766484178	 0.121492
H	-3.5794379257	-3.190763198	 0.0251906653	 0.13767
H	-1.8089636369	-4.6116850852	-1.9555478214	 0.111807
H	-0.4107524024	-5.0545843569	-0.9525386446	 0.090685
H	-2.0011306569	-5.605457758	 0.6656587945	 0.294153
