15
gdb 116844	3.58077	0.63331	0.54176	2.6266	74.72	-0.2594	-0.1041	0.1553	1905.7295	0.10876	-457.740878	-457.730732	-457.729788	-457.778782	33.031	
O	 0.0355652298	 1.2841107323	-0.2860663573	-0.412433
C	 0.0902597722	-0.1270374522	-0.2009211406	-0.06553
C	-1.3507373448	-0.6015112051	 0.0275232481	-0.338336
C	-1.4612016594	-2.0441325585	 0.1374062735	 0.051664
C	-1.5294286952	-3.2469146907	 0.2257370697	 0.111097
C	-1.593789624	-4.6756141743	 0.3283818232	 0.10897
O	-2.6071302393	-5.319619354	 0.5093438264	-0.25923
C	-0.2640472686	-5.4362091107	 0.1964114341	 0.082919
O	 0.8009091535	-4.9132342518	 0.0164033055	-0.217686
H	 0.9268787048	 1.6149447523	-0.4298508685	 0.294459
H	 0.4824567535	-0.5813274388	-1.1223690601	 0.109388
H	 0.7226931632	-0.4661426315	 0.6323258479	 0.10939
H	-1.7415995279	-0.1289309056	 0.9372626166	 0.157152
H	-1.9790831984	-0.2428514783	-0.7972635706	 0.15715
H	-0.4099498295	-6.5331228533	 0.2883992521	 0.111025
