19
gdb 82344	2.23154	1.64371	1.27608	4.6697	78.71	-0.2207	0.0301	0.2508	1076.796	0.160657	-382.061894	-382.053645	-382.052701	-382.094734	31.637	
C	-0.4533726479	 1.5939845877	 0.5832155717	-0.341708
N	-0.0225932636	 0.2815510456	 0.1087122355	-0.058067
C	-1.1411601813	-0.595865443	-0.1981540945	 0.034291
C	-0.840200418	-1.9946354546	-0.6552189813	-0.3318
C	-1.21533214	-1.740495418	 0.7910835582	-0.050329
C	-0.0744330467	-1.5340580555	 1.769230806	-0.243281
C	 0.8184869529	-0.4375625021	 1.0857967768	-0.165792
C	 2.0012115195	-1.0240175304	 0.4324042865	 0.322929
N	 2.9402747506	-1.4905530935	-0.0539822315	-0.34581
H	 0.4225642861	 2.2237461638	 0.761833618	 0.129791
H	-1.0516624253	 2.0760229488	-0.1948507922	 0.131536
H	-1.0574198556	 1.5635872674	 1.5076723789	 0.100285
H	-2.0171798223	-0.0855785866	-0.5798620485	 0.094949
H	-1.5896478221	-2.4715943952	-1.277528797	 0.117709
H	 0.1795398738	-2.2662359012	-0.9060392326	 0.14636
H	-2.1570155709	-2.1182971943	 1.1712980554	 0.09111
H	-0.4578693594	-1.1493740988	 2.7191245243	 0.112562
H	 0.502868889	-2.4369904125	 1.9827537845	 0.128608
H	 1.1967419112	 0.2688092123	 1.8305578519	 0.126658
