20
gdb 39342	2.76097	1.79682	1.32541	0.4572	77.5	-0.2384	0.0767	0.3151	1011.6884	0.174566	-403.142866	-403.135481	-403.134537	-403.174956	29.338	
C	-0.0176052405	 1.4750271046	 0.0303603795	-0.068073
C	 1.4711827337	 1.9276809202	 0.0910582694	-0.359752
C	 2.1843406286	 0.5928323748	 0.0580861801	 0.365607
N	 3.6155088657	 0.3797289868	-0.1065101602	-0.41287
C	 2.9553362894	-0.0697088486	 1.1401698319	-0.059637
C	 2.4867652692	-1.50788809	 1.2911868871	-0.233317
C	 1.607285014	-1.7872802162	 0.0423872298	-0.269231
C	 1.187204071	-0.4130994832	-0.495599337	 0.066189
O	-0.0379190062	 0.0419866525	 0.0665840386	-0.272122
H	-0.6106470761	 1.8289101868	 0.8777220865	 0.110051
H	-0.4954701745	 1.833806135	-0.8927203908	 0.094891
H	 1.7372345389	 2.5438336425	-0.7729748084	 0.111911
H	 1.6985369502	 2.5025235736	 0.9917211905	 0.113208
H	 3.8017098818	-0.3985124471	-0.73687255	 0.225369
H	 3.2791073218	 0.4716978328	 2.0248314829	 0.089777
H	 3.3100903638	-2.2239908476	 1.3896776459	 0.101829
H	 1.8914861236	-1.5799390613	 2.2079907631	 0.114754
H	 2.1746324929	-2.3189389196	-0.7281092456	 0.101855
H	 0.7329382029	-2.4008382213	 0.2705369553	 0.122158
H	 1.1245115098	-0.4003425948	-1.5973634686	 0.057404
