16
gdb 27770	2.08228	1.82988	0.9802	3.6092	79.39	-0.2091	-0.0246	0.1845	1161.778	0.125105	-434.128451	-434.120142	-434.119198	-434.161157	31.497	
C	 0.0171362568	 1.5029505289	 0.0067763485	-0.466603
C	-0.0302673491	 0.0048093997	 0.0010899622	 0.310259
C	-1.1873819553	-0.6943106862	-0.0990515846	-0.219104
C	-1.176875931	-2.1319597238	-0.104219707	 0.377078
N	-2.1838443269	-2.895134074	-0.1983038313	-0.543029
O	 0.1171263726	-2.7007306532	 0.0085284483	-0.259675
C	 1.1977930146	-1.9018403287	 0.1093916932	 0.489463
N	 2.3361044332	-2.6247714456	 0.2597398646	-0.559746
N	 1.2063293973	-0.6119839686	 0.1036867422	-0.412063
H	 0.6387212856	 1.8610654502	-0.8210849655	 0.138938
H	-0.9792795201	 1.9404712944	-0.0791542684	 0.125264
H	 0.4869974469	 1.8599752119	 0.929755493	 0.140148
H	-2.1520934335	-0.2137374017	-0.1813265639	 0.112194
H	-1.9051460464	-3.8755849763	-0.1752641076	 0.217384
H	 2.3176269954	-3.5984698716	 0.0081558649	 0.27217
H	 3.1995924901	-2.1203641354	 0.1496350313	 0.277321
