19
gdb 38135	2.74585	1.88128	1.38501	2.0258	79.34	-0.2341	0.0048	0.2389	971.2644	0.162521	-385.86827	-385.861331	-385.860386	-385.899558	28.403	
C	 0.0381033469	 1.5179176645	-0.1407894791	-0.294419
C	 1.3500552921	 0.7508173516	-0.0360402747	-0.081447
C	 2.0997968426	 0.8346449438	 1.2356368483	-0.046402
C	 1.6300427991	 0.3902420289	 2.4043956579	-0.101108
C	 0.3213570391	-0.3144021817	 2.5190192059	 0.091811
O	-0.8078093009	 0.5129824407	 2.941988486	-0.299076
C	-1.6543106229	-0.0977755262	 1.9435613142	-0.08685
C	-0.432668619	-0.7007499334	 1.2190386386	-0.092594
C	 0.0218298864	 0.0170566632	-0.0392832158	-0.038117
H	-0.2488836322	 2.0919107732	 0.7334181496	 0.139325
H	-0.2174052098	 1.9691837698	-1.0935815221	 0.110256
H	 1.9530791819	 0.701367822	-0.9369991038	 0.085758
H	 3.0775914968	 1.3087884846	 1.1939452738	 0.094072
H	 2.2178316984	 0.504616016	 3.3105295356	 0.091302
H	 0.4137720154	-1.1670179766	 3.2084024048	 0.070179
H	-2.3321338649	-0.8428651204	 2.3838585687	 0.091891
H	-2.2405339001	 0.6443358038	 1.3914563256	 0.105028
H	-0.4795166938	-1.775740319	 1.0328331958	 0.073201
H	-0.2154386852	-0.5057932347	-0.9607285393	 0.08719
