21
gdb 103097	2.1653	1.23897	1.16053	1.0625	85.95	-0.2421	0.0384	0.2804	1249.9344	0.178956	-387.04959	-387.039015	-387.038071	-387.084624	39.351	
C	-0.3867249709	 1.4719860864	 0.1114190501	-0.386526
C	 0.2546870253	 0.0914905236	-0.0813475989	-0.239102
C	 0.8505947772	-0.4796132961	 1.1958227743	 0.279323
C	 2.0880582593	 0.2219852536	 1.723034	-0.460425
C	-0.0794015438	-1.0876615347	 2.2110044595	 0.08626
O	-1.4504546835	-1.1187690609	 1.9755402417	-0.42718
C	 0.8383047012	-2.0095958726	 1.4052594332	-0.341755
C	 0.2165964985	-2.9012879191	 0.4774568531	 0.296047
C	-0.374323112	-3.6537715519	-0.2558709588	-0.423914
H	 0.335568127	 2.2191608889	 0.4554952437	 0.11094
H	-0.8066875284	 1.8346457876	-0.8320203309	 0.109438
H	-1.1963223814	 1.4157817879	 0.8443236999	 0.137376
H	-0.4982926691	-0.5973380717	-0.471170792	 0.109229
H	 1.0444213386	 0.1459013518	-0.8419323461	 0.092545
H	 1.8872786612	 1.2784657089	 1.9283354516	 0.125893
H	 2.4392181298	-0.2317729451	 2.6554230977	 0.114285
H	 2.907736325	 0.1696195262	 0.9973759871	 0.121328
H	 0.1655087747	-0.9632819774	 3.2647194823	 0.095224
H	-1.6662109402	-1.9549368081	 1.5416204213	 0.291356
H	 1.694317252	-2.4212500465	 1.9323002027	 0.110641
H	-0.8524012305	-4.3191401708	-0.9315088515	 0.199017
