23
gdb 95380	2.60107	1.54497	1.22841	1.3909	84.29	-0.262	0.0677	0.3297	1129.8607	0.209507	-388.323611	-388.315453	-388.314509	-388.356376	33.079	
O	-0.2873275409	 1.5069682116	 0.898761662	-0.433547
C	-0.0477919747	 0.2728006809	 0.2216623429	 0.101857
C	 0.755867538	-0.691294346	 1.1078624672	-0.231139
C	-0.2656843137	-1.1395033253	 2.1730760999	-0.229237
C	-1.6117755175	-1.2167710995	 1.4118283443	 0.03786
C	-2.8312427238	-0.5262291284	 2.0507801711	-0.217089
C	-3.6892163078	-0.1151814922	 0.8435840804	-0.198645
C	-2.6557559741	 0.4081316177	-0.1770913466	-0.237601
C	-1.394521673	-0.4583570626	 0.0545742983	 0.015371
H	 0.5665441185	 1.8987048142	 1.106212232	 0.280704
H	 0.4421633016	 0.4635043352	-0.7443960535	 0.052771
H	 1.085119157	-1.5458676189	 0.5032900018	 0.094693
H	 1.6566362311	-0.2277676832	 1.5274711433	 0.079123
H	 0.0136862175	-2.085105175	 2.6456019836	 0.089019
H	-0.3246950282	-0.3860764697	 2.9647044954	 0.100686
H	-1.8658229103	-2.2623003505	 1.2054863397	 0.060321
H	-3.3639370147	-1.1625939014	 2.7645210573	 0.084239
H	-2.5015995558	 0.3717627266	 2.5873367552	 0.104193
H	-4.2082638849	-0.9946785999	 0.4410161727	 0.088675
H	-4.4557183855	 0.6259753055	 1.0907178204	 0.088566
H	-3.0193565724	 0.351722412	-1.2070610959	 0.083314
H	-2.4232925942	 1.4547932051	 0.0329578052	 0.122577
H	-1.2671283523	-1.1801358663	-0.7584828766	 0.063288
