20
gdb 92983	3.1716	1.29034	1.03629	2.7267	81.33	-0.2405	0.0196	0.2601	1198.0842	0.171821	-403.1213	-403.113056	-403.112111	-403.154358	32.088	
O	-0.0400639719	 1.3950376516	 0.0519190681	-0.449571
C	-0.0240035384	-0.0175032001	 0.0659758863	 0.127231
C	 0.6479520868	-0.5032454076	 1.3722376792	-0.27063
C	-0.5229100287	-0.7432428039	 2.2938595291	-0.061725
C	-1.6793814862	-0.7733104138	 1.6359079686	-0.071673
C	-1.4796638	-0.5827883923	 0.1494771729	-0.0361
N	-2.4222764339	 0.3643010011	-0.4493511405	-0.08402
C	-2.8441991462	 0.1069145166	-1.8254772953	-0.222798
C	-3.7815787914	-0.106941497	-0.6901151661	-0.224618
H	-0.9607129629	 1.6433060219	-0.1266334403	 0.287015
H	 0.4982554537	-0.3908730781	-0.8263212445	 0.0567
H	 1.221526322	-1.427301071	 1.2141677203	 0.098597
H	 1.347673975	 0.2546752029	 1.7378550873	 0.119063
H	-0.4098311765	-0.8970139378	 3.3616295446	 0.094143
H	-2.6562667952	-0.9528420813	 2.0704658177	 0.092179
H	-1.5368555328	-1.5593235038	-0.3670613773	 0.063956
H	-2.9390858361	 0.98136935	-2.4616272521	 0.124234
H	-2.4447508645	-0.7774122753	-2.3184191	 0.117923
H	-4.0135150459	-1.1368024297	-0.425410681	 0.116521
H	-4.5739007669	 0.6066561875	-0.4842829369	 0.123573
