17
gdb 47074	3.01805	1.62818	1.09486	4.9405	75.66	-0.2243	-0.0619	0.1624	1071.3595	0.138797	-418.040873	-418.033556	-418.032612	-418.072861	27.724	
O	 0.0102541539	 0.0288541469	-0.3624980771	-0.284463
C	 0.0209006948	 1.2087352023	-0.1397375659	 0.326982
C	-1.1947392219	 2.1277512052	 0.0568208283	-0.33259
C	-0.6341656435	 3.5642034834	-0.0445358644	-0.189174
N	 0.7713837702	 3.3836717628	 0.2969602331	-0.081417
C	 1.8744349485	 4.2867373009	-0.0204413089	-0.197527
C	 3.0649198838	 3.2748142199	-0.0249545288	-0.174563
N	 2.4665326763	 1.9339057564	-0.2219710238	-0.331136
C	 1.2186170679	 2.1102488663	-0.0196682721	 0.285898
H	-1.978455214	 1.9032797369	-0.6686440314	 0.142631
H	-1.6028594034	 1.9329045245	 1.0549864833	 0.149252
H	-0.7486630422	 3.9615329283	-1.0662559986	 0.10709
H	-1.1265784893	 4.2615099635	 0.6394208167	 0.119255
H	 1.7232148618	 4.7508801263	-1.0085888091	 0.101453
H	 1.9863631901	 5.0835554295	 0.7193459867	 0.116791
H	 3.8028519792	 3.4853634733	-0.8030996717	 0.120311
H	 3.5923266879	 3.2870367036	 0.9378308437	 0.121206
