17
gdb 42372	3.64739	0.84981	0.72017	6.0532	73.86	-0.2674	-0.0425	0.2248	1512.4141	0.134903	-418.003162	-417.993946	-417.993001	-418.03868	32.155	
O	 0.53836018	 0.257581817	 1.5294653458	-0.260584
C	-0.0525269171	 0.9459529726	 0.7407580224	 0.382963
C	 0.6280592721	 1.5062135683	-0.5250117828	-0.474879
C	 2.0266343705	 1.1192865631	-0.6536478257	 0.294382
N	 3.1364118428	 0.8262073576	-0.7758519354	-0.292013
C	-1.5217798965	 1.3251318058	 0.9214765822	-0.32369
C	-2.396303732	 0.9001759048	-0.24243394	 0.011092
C	-3.6803732788	 1.5834771372	-0.5234076843	-0.243517
N	-2.5387510185	 1.7443058575	-1.4447406424	-0.312578
H	 0.0652849679	 1.180782252	-1.4083208291	 0.199884
H	 0.5515249043	 2.6011186624	-0.509859333	 0.165856
H	-1.8532595104	 0.8529498133	 1.850828021	 0.142802
H	-1.5940206908	 2.4139950418	 1.053195528	 0.114734
H	-2.3325768198	-0.1600395414	-0.4813205002	 0.114595
H	-4.5181300728	 1.020868667	-0.9238036145	 0.132693
H	-3.9582819791	 2.423632019	 0.1078304214	 0.119971
H	-2.1104132817	 2.653794852	-1.2842970433	 0.228288
