20
gdb 101390	3.22433	1.09796	0.89031	2.1741	75.48	-0.2467	0.0248	0.2714	1336.8612	0.170462	-440.291767	-440.282342	-440.281398	-440.326856	33.569	
C	-0.1143132568	 1.4050321621	-0.0286866283	-0.23705
O	-0.0713801767	 0.0092345157	 0.1663824813	-0.251215
C	-1.320701302	-0.6528074564	 0.0384407803	 0.12336
C	-1.7832765412	-0.7729060382	-1.4130077598	-0.41322
C	-1.0969286759	-2.0185253933	 0.6947733686	 0.079359
C	-0.772816158	-1.9528836025	 2.2097589447	-0.197754
N	-1.9153337427	-2.6053190693	 2.8764638646	-0.262048
C	-2.6717154695	-3.0041458473	 1.9447380063	 0.116952
O	-2.3339105729	-2.7796524461	 0.6486261879	-0.234421
H	 0.8795937997	 1.7914987253	 0.2097431978	 0.130523
H	-0.3547187626	 1.6786393936	-1.0655579938	 0.111378
H	-0.850173107	 1.8841145882	 0.6354475699	 0.107274
H	-2.08584095	-0.1153903219	 0.6259659004	 0.071109
H	-2.6983130087	-1.3680306316	-1.463616196	 0.137252
H	-1.9911154118	 0.20727336	-1.8508002348	 0.116315
H	-1.0116355722	-1.2634289131	-2.0153345985	 0.122693
H	-0.3467522869	-2.5723256718	 0.122353562	 0.098013
H	 0.1520345411	-2.4786412363	 2.4654776049	 0.119408
H	-0.6649917842	-0.9212016107	 2.5569532325	 0.12306
H	-3.6075696218	-3.5367437262	 2.0735653899	 0.139012
