15
gdb 124786	3.69249	1.25925	1.03115	2.5735	68.69	-0.2639	-0.1031	0.1608	1124.851	0.112038	-450.101103	-450.092965	-450.092021	-450.134677	29.118	
C	 0.1909589885	 1.520367209	 0.1643672629	-0.400191
C	-0.0954203401	 0.015405641	 0.0096399286	 0.065542
O	-1.4752997648	-0.2457838407	-0.0623940804	-0.43301
C	 0.6421942593	-0.5260963924	-1.1945020535	 0.392853
N	 1.9711508278	-0.6375578023	-1.1520446229	-0.251537
C	 2.4887035892	-1.1155676227	-2.2729446111	 0.110939
N	 1.801570443	-1.4519572799	-3.3743564017	-0.165104
N	 0.4934966397	-1.296196918	-3.3503833453	-0.044892
N	-0.1014219007	-0.8413178578	-2.2624060763	-0.242472
H	 1.2614735728	 1.706568898	 0.2867267732	 0.133412
H	-0.1702867132	 2.0680677204	-0.711672953	 0.125978
H	-0.3398457508	 1.8888381093	 1.044962926	 0.138867
H	 0.3071283329	-0.5060634215	 0.8885971232	 0.11465
H	-1.691894718	-0.3927056771	-0.9938593596	 0.299392
H	 3.5655207943	-1.2533640953	-2.3242056102	 0.155573
