20
gdb 78864	2.7306	1.85285	1.38562	1.5637	82.46	-0.2197	0.0894	0.3092	1000.7543	0.171415	-365.91926	-365.911714	-365.91077	-365.950692	31.278	
C	 0.0032080308	 1.612906877	 0.0275027146	-0.419211
C	 0.1169559342	 0.1003551494	-0.026037357	 0.069728
C	 0.7949388288	-0.6268039901	-1.178278945	-0.112707
C	 1.2901276935	-1.6480691794	-0.2055854754	-0.025316
C	 2.2957435791	-0.7093280951	-0.8088833053	-0.183963
C	 2.4173262567	-0.0686987983	 0.5454816326	 0.429521
C	 3.5785313676	-0.189777393	 1.4759687872	-0.351812
C	 3.0464684156	 1.1776733686	 1.0741417196	-0.346316
N	 1.0793613059	-0.6165149265	 0.9339906276	-0.235038
H	 0.9266087923	 2.1109973221	-0.2726682954	 0.126925
H	-0.7946495684	 1.9427726259	-0.6470310061	 0.112633
H	-0.2578478668	 1.942970771	 1.0387749294	 0.122023
H	-0.8647378567	-0.3475098326	 0.1629628458	 0.077215
H	 0.4604851823	-0.779325855	-2.1978972208	 0.086564
H	 1.2146275411	-2.7211978992	-0.1086680508	 0.098586
H	 3.0552016134	-0.9221728021	-1.5510974035	 0.089966
H	 3.3728164607	-0.5299534245	 2.4850364742	 0.121814
H	 4.5340349048	-0.5080282926	 1.0716237606	 0.108355
H	 3.6401004559	 1.7868079625	 0.3995781236	 0.111136
H	 2.5040201489	 1.7394734919	 1.8265868439	 0.1199
