19
gdb 88138	2.55766	1.55196	1.15645	3.8253	77.79	-0.2347	0.0195	0.2542	1114.9902	0.160198	-419.193906	-419.185583	-419.184639	-419.226822	31.735	
C	-0.1768871018	 1.4529168565	-0.010050684	-0.318256
N	 0.0041726834	 0.0133142934	 0.0855465102	-0.101702
C	 1.330720133	-0.5086511923	-0.2088232049	-0.298726
C	 0.8226240485	-0.526790024	 1.1870669405	 0.239113
C	 1.3756624518	 0.2897101272	 2.3462151899	-0.331122
C	 0.5677720805	-0.2680930644	 3.5273553698	-0.086864
O	 0.2384305093	-1.6219062629	 3.1711406749	-0.246271
C	 0.3149116485	-1.7935124898	 1.8166023341	 0.386963
N	 0.0297363346	-2.8569290257	 1.2019893184	-0.545794
H	 0.7262909616	 2.0456629519	 0.2111574205	 0.099347
H	-0.4885577782	 1.6906177403	-1.0318623566	 0.133101
H	-0.975578333	 1.7705791965	 0.6682768592	 0.123754
H	 1.3591637906	-1.4414999938	-0.7643473654	 0.143308
H	 2.1220459584	 0.2069966955	-0.4348041801	 0.103647
H	 2.4417622532	 0.0815358665	 2.4825639141	 0.123566
H	 1.2557747241	 1.3682147735	 2.2321289459	 0.116535
H	 1.1232149487	-0.2967307669	 4.4671934989	 0.121505
H	-0.3617503974	 0.2926899705	 3.6854524299	 0.115796
H	-0.3095277357	-3.570576782	 1.8484590048	 0.222101
