17
gdb 16815	3.70001	1.88386	1.42981	4.1686	67.5	-0.2478	-0.0074	0.2404	891.2658	0.143081	-363.875586	-363.868399	-363.867455	-363.907011	27.562	
C	-0.2329674627	 1.5666368906	 0.0058022951	-0.401471
C	 0.0629123131	 0.0652897816	 0.0071144925	 0.011306
C	 0.9434360797	-0.4346494486	-1.1519139165	-0.363148
C	 1.8890122705	-1.4828628287	-0.5432544626	 0.38859
O	 2.6041684084	-2.2293789117	-1.1468045058	-0.305106
N	 1.808185746	-1.4575776644	 0.8962865969	-0.139647
C	 2.2416492968	-0.1278307313	 1.418010112	-0.255541
C	 0.8059631175	-0.4297596645	 1.2506278116	-0.024959
H	 0.6925747292	 2.1517452542	 0.0325721504	 0.118057
H	-0.7882868409	 1.8577930332	-0.8913691837	 0.122564
H	-0.8333873832	 1.8511507871	 0.8761793614	 0.120597
H	-0.8907378292	-0.4751099849	-0.0233568259	 0.09054
H	 0.3829672561	-0.871860002	-1.9804177632	 0.140112
H	 1.5618931033	 0.3628274698	-1.5810590662	 0.134131
H	 2.7029739932	-0.1685421574	 2.3992165434	 0.136003
H	 2.7230670245	 0.5538846882	 0.7210934824	 0.126302
H	 0.2160576377	-0.6539901211	 2.134672468	 0.10167
