17
gdb 71274	2.61674	2.0063	1.42768	2.6558	70.85	-0.2482	-0.0226	0.2256	922.6877	0.136977	-421.826689	-421.819678	-421.818734	-421.857774	28.852	
O	 0.0548683443	 1.3988581908	 0.016751772	-0.499287
C	-0.0275995932	 0.0209985325	-0.0074746075	 0.336115
C	 0.2654102401	-0.7191557522	-1.3666372658	-0.300485
C	-0.9312269432	-1.6288733563	-1.0873839003	-0.064365
C	-0.9207428693	-2.1281656646	 0.347640241	-0.051991
C	 0.3682255716	-2.1091218455	 1.16080703	-0.360099
C	 0.8062244682	-0.6485576489	 1.0726032391	 0.364182
O	 1.6249967877	-0.0611894795	 1.7370643989	-0.348253
C	-1.400104943	-0.7270346065	 0.0396376963	-0.1508
H	 0.7344637314	 1.6087424004	 0.6779003387	 0.290253
H	 0.0508234475	-0.0164183509	-2.1747089353	 0.127107
H	 1.2550831083	-1.1643280337	-1.5228204374	 0.097112
H	-1.5275779015	-2.1304805089	-1.8398380709	 0.091685
H	-1.6664233032	-2.8788317621	 0.5816462407	 0.096582
H	 0.1932452931	-2.371751532	 2.2090739728	 0.137301
H	 1.1578765929	-2.7721443843	 0.7896775113	 0.13457
H	-2.3674629417	-0.3042386985	 0.2731613165	 0.100372
