15
gdb 13922	3.61593	1.82807	1.4962	2.9963	61.56	-0.248	-0.0366	0.2114	855.603	0.11861	-399.76069	-399.753515	-399.752571	-399.792557	26.023	
O	-0.0828117064	 0.0247014299	-0.1603814039	-0.283568
C	-0.0807305452	 1.2069671616	 0.0011787071	 0.335645
C	-1.1344736311	 2.2836834765	 0.3101482412	-0.285302
N	-0.0096644787	 3.2444699213	 0.4793382163	-0.372287
C	 1.0009500498	 2.2954148082	-0.0188280881	 0.161045
C	 2.3784088594	 2.1265750833	 0.6515315385	-0.112363
O	 3.0629654327	 2.248904721	-0.6126601111	-0.267414
C	 1.8370919455	 2.5202540787	-1.307004973	-0.123443
H	-1.8050419927	 2.4691310312	-0.5398466563	 0.128247
H	-1.7394977625	 2.1288973601	 1.2095823461	 0.138003
H	-0.0918823386	 4.0983511148	-0.0604855803	 0.226869
H	 2.6234172453	 2.9390660031	 1.3465540506	 0.112783
H	 2.5612171548	 1.1563099225	 1.1272944966	 0.120753
H	 1.6584235998	 1.8190008377	-2.1309191583	 0.120548
H	 1.786865878	 3.55163099	-1.6863444152	 0.100483
