16
gdb 16323	3.13991	2.01299	1.41193	3.3324	65.43	-0.2473	-0.0169	0.2304	885.2223	0.130301	-383.726252	-383.718725	-383.71778	-383.758443	27.966	
O	 0.007766591	 1.4998286637	 0.2402601768	-0.41619
C	 0.0691703951	 0.1075913619	-0.0213233282	-0.183671
C	-1.3103896133	-0.4964576924	 0.0061637901	 0.225172
C	-1.9756325679	-1.1373111988	 1.2162579487	-0.316292
C	-1.8963522878	-1.9411478131	-0.0335984996	-0.118398
C	-3.021164793	-1.5045234337	-0.9906169743	-0.352127
C	-2.3619194817	-0.1023788453	-0.9778903341	 0.36831
O	-2.4771761216	 0.8781139403	-1.6669056163	-0.336404
H	-0.5793388105	 1.8777412161	-0.4269114366	 0.298013
H	 0.5398378015	-0.091551029	-0.9972791942	 0.096424
H	 0.7102818923	-0.3336970571	 0.748846546	 0.109762
H	-1.2718795509	-1.3907508621	 2.0033673144	 0.129575
H	-2.9352828553	-0.7778637617	 1.5787085165	 0.123733
H	-1.3312090238	-2.8600797651	-0.1149955824	 0.111763
H	-2.9643379119	-1.9376565132	-1.9932729439	 0.135668
H	-4.0453627522	-1.5954307003	-0.6171245829	 0.124663
