20
gdb 38829	2.63558	1.93463	1.68379	1.333	76.63	-0.2191	0.08	0.299	916.1343	0.175297	-403.129959	-403.123262	-403.122317	-403.160688	28.321	
C	 0.0410876978	 1.4151522255	-0.3227357732	-0.24843
C	 1.298074501	 0.6723139714	-0.0527330869	-0.018674
C	 2.0111640994	 0.8470251514	 1.288243614	 0.085736
C	 1.8717616918	-0.4657911837	 2.0718200393	-0.24079
C	 0.3955285527	-0.2993702301	 2.4814157927	-0.040265
C	 0.4210622427	 1.1564529466	 2.9620304222	-0.082442
O	 1.375163577	 1.8218837362	 2.1249888996	-0.272464
C	-0.5054630547	-0.5257330214	 1.242041106	-0.165704
N	 0.0016076481	-0.0201537569	-0.0458192641	-0.095977
H	-0.2743958734	 2.1173534011	 0.4436716695	 0.12538
H	-0.2279300299	 1.6896161872	-1.3398054589	 0.108041
H	 1.9528991624	 0.3916295176	-0.8770073972	 0.083998
H	 3.0415923018	 1.1749379312	 1.1283999319	 0.077777
H	 2.060568592	-1.3517410255	 1.4605783764	 0.10864
H	 2.5327254675	-0.4820067055	 2.9431324348	 0.101723
H	 0.081900575	-0.9803154493	 3.277063571	 0.071566
H	-0.5519134163	 1.6549128815	 2.8749250623	 0.09741
H	 0.7483798811	 1.226129728	 4.0085070626	 0.096893
H	-0.6293219871	-1.6086908228	 1.1178655511	 0.105724
H	-1.505966149	-0.1121905725	 1.416566907	 0.101858
