15
gdb 29211	3.20184	1.36589	0.95795	5.5043	73.54	-0.1915	-0.0154	0.1762	1137.7194	0.114223	-454.014578	-454.006512	-454.005568	-454.046748	31.395	
N	 0.0553503094	 1.3749486416	 0.1508004541	-0.584927
C	-0.0010504239	 0.00563896	 0.0593520786	 0.337025
C	-1.1730164531	-0.7097568551	 0.0273892918	-0.378731
C	-1.2169557152	-2.1494484561	-0.0132345522	 0.436487
O	-2.2148759629	-2.85782394	-0.0406848543	-0.424342
N	 0.0605995432	-2.7427603774	-0.0230066235	-0.379978
C	 1.2447954504	-2.0561806182	-0.0020116443	-0.086055
C	 1.2540244686	-0.7027519306	 0.0383898775	 0.251443
O	 2.3831557441	 0.0814547767	 0.0530065373	-0.464613
H	 0.9293319858	 1.8054854199	-0.104782499	 0.268265
H	-0.7720642286	 1.8889602029	-0.1037168292	 0.258307
H	-2.1307095737	-0.2030512825	 0.0378411872	 0.095693
H	 0.0557189059	-3.7511045665	-0.0527628585	 0.255516
H	 2.1528922277	-2.6481091776	-0.0226900012	 0.116097
H	 3.1650712724	-0.4746739972	-0.0140484842	 0.299814
