17
gdb 123491	4.98645	0.91757	0.88156	2.0375	74.47	-0.243	-0.0072	0.2358	1334.6407	0.137027	-417.965436	-417.957697	-417.956753	-417.998963	28.516	
C	-0.1241580158	 1.6195129698	 0.0036629247	-0.278645
N	-0.2475301605	 0.2136205648	-0.3743707311	-0.070327
C	-0.1579500073	-0.7512345573	 0.7188718232	-0.215777
C	-1.4648499302	-0.4586698674	 0.0678994375	-0.21922
C	 1.3161396905	 2.0361586837	 0.0116101176	 0.39757
N	 1.8082825635	 2.6893639057	 1.0378384661	-0.204106
O	 3.1428534929	 2.9357935584	 0.7264926787	-0.164257
C	 3.4072596955	 2.411299766	-0.4797379306	 0.080345
C	 2.3014911518	 1.8235738008	-0.9971316406	-0.316315
H	-0.6722335742	 2.2115663104	-0.7399994308	 0.122663
H	-0.5591037454	 1.8460317091	 0.9907387241	 0.111446
H	 0.3777390895	-1.6685738882	 0.4940078936	 0.119888
H	-0.0036515115	-0.3664215521	 1.7252895033	 0.123414
H	-2.1874660316	 0.1192224544	 0.6418586989	 0.113503
H	-1.9004582564	-1.1581184412	-0.6396814993	 0.119957
H	 4.4197368599	 2.5347471335	-0.8322310706	 0.149823
H	 2.1862154492	 1.3076436495	-1.9346565849	 0.130038
