23
gdb 107747	2.68001	1.36684	1.2137	0.4908	89.47	-0.231	0.0826	0.3137	1194.7929	0.205889	-351.121417	-351.112452	-351.111508	-351.154668	35.261	
C	 0.0138786358	 1.5877883667	 0.0350742875	-0.380074
C	 0.0289777236	 0.054132094	-0.0196949451	-0.302726
C	-1.3534411718	-0.551600659	-0.0021957447	 0.298842
C	-2.2758787448	-0.4388466382	 1.2500608738	-0.272285
C	-2.9178596853	-1.7353813073	 0.7713516114	-0.114913
C	-2.9610756615	-1.680934125	-0.7684502647	-0.114896
C	-2.3446164507	-0.3524150049	-1.1894877855	-0.272294
C	-1.7068120054	-2.1135579988	-0.0474839978	 0.295986
C	-0.8682914553	-3.3471582674	-0.1145709176	-0.528829
H	 1.0303043463	 1.9928485541	 0.02077306	 0.110666
H	-0.5255118188	 2.0095775503	-0.8195278318	 0.120119
H	-0.4757295635	 1.947004725	 0.9463590341	 0.120119
H	 0.5577544495	-0.273234657	-0.9250454534	 0.092787
H	 0.6071959347	-0.3353931624	 0.8290495788	 0.092788
H	-1.7125248939	-0.589808644	 2.1767547141	 0.089876
H	-2.8969151803	 0.4605639742	 1.3427925323	 0.082838
H	-3.575035936	-2.4010239388	 1.3178889094	 0.076508
H	-3.6491038936	-2.307662019	-1.3229724063	 0.076507
H	-2.9681842111	 0.5500035133	-1.183269214	 0.082856
H	-1.8345507602	-0.4362428302	-2.1547421769	 0.089868
H	-0.2467054052	-3.3699192961	-1.0178020405	 0.117749
H	-0.1986743858	-3.4334623296	 0.7496518376	 0.117746
H	-1.5009994565	-4.2419410698	-0.1295604406	 0.120759
