14
gdb 125262	3.09552	1.42151	0.97999	4.2014	68.12	-0.2533	-0.0771	0.1762	1119.3087	0.100175	-473.845012	-473.837213	-473.836268	-473.877394	29.06	
C	-0.0442415452	 1.4883747829	-0.0264607883	-0.476063
C	-0.0601759153	-0.0057539885	 0.0098802724	 0.140789
C	-1.1575550908	-0.773791485	-0.1188419863	-0.243956
C	-1.0088126748	-2.2022448821	-0.0621766652	 0.448666
O	-2.133161615	-2.9315333933	-0.1954945923	-0.40526
N	 0.1041768775	-2.8322083262	 0.1043050894	-0.195748
O	 1.246858419	-2.0458892003	 0.2384895685	-0.258571
C	 1.2415760342	-0.6688435345	 0.2030779524	 0.42296
O	 2.2917961461	-0.0937920601	 0.3308544746	-0.331218
H	 0.6113047097	 1.8399206427	-0.8297649894	 0.160621
H	-1.0468136703	 1.895320673	-0.1726030992	 0.128174
H	 0.3770616566	 1.8845958058	 0.9030783737	 0.160638
H	-2.150555493	-0.3623318648	-0.2638046113	 0.135342
H	-1.8812218988	-3.8649029296	-0.1378119989	 0.313627
