17
gdb 124926	2.31621	1.85477	1.04317	0.5393	81.1	-0.2264	-0.0621	0.1643	1115.1195	0.136152	-414.185309	-414.176601	-414.175657	-414.219035	31.767	
C	 0.0830372054	 1.4945365423	 0.0691489422	-0.485536
C	-0.0275415049	-0.0067177119	 0.0240870379	 0.269105
C	-1.2070477379	-0.684302702	-0.0038909037	 0.185
C	-2.5627183129	-0.0506913934	 0.0056191902	-0.484998
C	-1.1671610604	-2.1393906402	-0.0465869907	 0.363829
N	-2.2236839711	-2.8651170614	-0.0751314336	-0.548373
N	 0.1473803954	-2.619677543	-0.0519427518	-0.309334
N	 1.2895528648	-1.909421048	-0.023338437	-0.047843
N	 1.2174858652	-0.6459051623	 0.0135345567	-0.266921
H	 1.1369581564	 1.7746696932	 0.0853738292	 0.148763
H	-0.3878221584	 1.9593322007	-0.8031762449	 0.139753
H	-0.401232844	 1.9073926646	 0.9600459099	 0.139738
H	-3.1273581296	-0.3611537659	-0.8801179177	 0.153612
H	-3.1393439106	-0.4129052914	 0.8635394666	 0.153618
H	-2.5127208838	 1.0376453597	 0.0382161527	 0.119649
H	-2.0048922318	-3.8618097888	-0.1030827911	 0.201454
H	 0.3101694681	-3.616759142	-0.080310105	 0.268484
