16
gdb 68277	2.45949	1.51872	1.46057	3.7749	69.61	-0.2747	0.015	0.2897	986.2985	0.12362	-437.843048	-437.834961	-437.834017	-437.875214	31.483	
O	 0.1151947442	 1.3239724394	-0.0655333887	-0.460849
C	 0.0961364533	-0.0447012021	-0.0110709324	 0.375337
C	 0.7077925794	-0.9692137084	-1.0867226562	-0.288478
C	 0.07862439	-1.9233068314	-0.0258072478	-0.119396
C	 0.6982998521	-1.0085069988	 1.0696382133	-0.315781
C	-1.1706569591	-0.9753373876	-0.0166945746	 0.261208
O	-1.9587308376	-0.8680518964	 1.1429557198	-0.483342
C	-2.0270423005	-0.9857811396	-1.2062519689	 0.212678
N	-2.7476592775	-1.0194435928	-2.1100036256	-0.344718
H	-0.3472481801	 1.6694070796	 0.7071013434	 0.297756
H	 0.2578953891	-0.9486117674	-2.0806683843	 0.132668
H	 1.7973609824	-0.9773928811	-1.1322104971	 0.111711
H	 0.0541671698	-3.0094303544	-0.049476354	 0.098345
H	 1.7879337714	-1.0162626883	 1.1279379303	 0.105276
H	 0.2258951935	-1.0197933271	 2.0498462126	 0.119259
H	-2.6454463702	-1.5434005737	 1.1207199201	 0.298326
