15
gdb 7129	6.60555	0.83455	0.75879	2.7578	60.32	-0.2746	-0.0284	0.2462	1402.6713	0.11643	-436.953847	-436.944944	-436.943999	-436.988434	29.848	
O	-0.2492520196	 1.4029796717	 0.1265726667	-0.42201
C	 0.0475506073	 0.020264196	 0.0092476139	-0.076775
C	-1.2900087029	-0.706644221	-0.0245654711	-0.255499
C	-1.1671673317	-2.1931996281	-0.1571463085	 0.400607
N	-0.067713787	-2.8111594001	-0.1722025395	-0.485129
O	-2.4289577004	-2.7741091211	-0.3013689214	-0.199239
C	-2.6984560033	-3.9462522748	 0.3422702948	 0.155894
O	-3.6991668548	-4.5591367122	 0.1451398058	-0.247995
H	 0.5817706084	 1.8856860837	 0.1509003347	 0.290383
H	 0.6122259152	-0.2022440408	-0.9070402312	 0.106318
H	 0.6469952678	-0.3442949884	 0.8547928261	 0.106781
H	-1.8636506502	-0.4776215553	 0.8822021279	 0.139542
H	-1.8984969377	-0.3332579691	-0.8568709689	 0.147964
H	-0.1688404426	-3.8142883584	-0.3231182599	 0.234687
H	-1.9106536084	-4.2228856422	 1.0636051108	 0.104469
