16
gdb 21041	3.9273	1.75093	1.22569	2.3841	69.11	-0.1852	0.049	0.2342	961.7164	0.132479	-376.1194	-376.111158	-376.110214	-376.151701	30.279	
C	-0.0305954196	 1.3760905481	-0.0551561384	-0.331194
N	 0.0064126434	-0.0617072098	 0.0240830974	 0.006866
N	 0.0748237229	-0.8120421015	-1.1225755162	-0.362279
C	 0.097329851	-2.0674635101	-0.6934760579	 0.389188
N	 0.2275411994	-3.125819638	-1.59687527	-0.591383
C	 0.055924675	-2.1536651463	 0.7194781104	-0.389073
C	 0.0044970535	-0.8347744504	 1.1358618472	 0.397273
N	-0.1157767477	-0.2684169016	 2.411282512	-0.611206
H	 0.9743261695	 1.8182612182	-0.0722270058	 0.125671
H	-0.54680005	 1.656441592	-0.9746920594	 0.152491
H	-0.5803386632	 1.7700658849	 0.8036544848	 0.141904
H	 0.0248511944	-2.8225842994	-2.5415216165	 0.24535
H	-0.3474322684	-3.9223331572	-1.3559412798	 0.240431
H	 0.0900575321	-3.0345318062	 1.3399755278	 0.08314
H	-0.1137230819	-0.9812248577	 3.1288005263	 0.252879
H	 0.6122541196	 0.405807605	 2.6196473482	 0.249942
