20
gdb 36615	5.00249	0.75006	0.71694	4.1425	84.29	-0.2619	0.0392	0.3011	1592.5837	0.171592	-366.006054	-365.997268	-365.996324	-366.040322	32.762	
N	-0.0004880084	-1.211496215	-0.0894835342	-0.306524
C	-0.0029288283	-0.0562081212	-0.1224933551	 0.256891
C	 0.0220539307	 1.4037990176	-0.1586361774	-0.33577
C	 1.4166884023	 1.986758553	 0.1718932528	-0.325748
C	 1.4103896719	 3.4890253954	 0.1446938418	 0.400192
C	 1.5525329875	 4.2843271424	-1.1279942424	-0.320878
C	 2.5667710713	 4.4783265863	-0.0328459135	-0.12014
C	 1.9898879558	 5.387503369	 1.0576859039	-0.217582
C	 0.8006904776	 4.3869882165	 1.237065534	-0.291671
H	-0.2949445151	 1.7370571313	-1.1530429601	 0.154776
H	-0.7222524315	 1.7816305617	 0.5517263451	 0.15458
H	 1.7273339482	 1.6231152105	 1.1585152371	 0.118801
H	 2.1440507703	 1.5997550559	-0.5501017076	 0.119904
H	 1.9034707596	 3.7231310869	-1.9891374213	 0.111222
H	 0.8486422388	 5.0779305895	-1.3716222289	 0.105154
H	 3.618441402	 4.2707774871	-0.1933716864	 0.089391
H	 2.6170514328	 5.4449760089	 1.9496563024	 0.107386
H	 1.7357536672	 6.4054717239	 0.7449237756	 0.099659
H	-0.2059603264	 4.7719535829	 1.0425325177	 0.095591
H	 0.8066656138	 3.9155363173	 2.2235979065	 0.104765
