11
gdb 131906	4.57544	1.16097	0.92601	3.9319	60.67	-0.26	-0.105	0.155	1118.6306	0.065458	-525.751205	-525.744183	-525.743238	-525.783377	25.158	
O	 0.1027658747	 1.3077332714	-0.0708376775	-0.418437
C	 0.0654180421	-0.0284113196	-0.0483284173	 0.350194
C	-0.013281556	-0.8838726722	-1.1125098175	-0.126788
O	-0.023747477	-2.1538123948	-0.6015210949	-0.12968
C	 0.0483346028	-1.9761025586	 0.7161444172	 0.523849
N	 0.1042638998	-0.74659255	 1.121181824	-0.365461
N	 0.0565675649	-3.1648957579	 1.5458205803	 0.349913
O	-0.0012961705	-4.2384316086	 0.9630381162	-0.345198
O	 0.1205570026	-2.9831026224	 2.7507460204	-0.335881
H	 0.157562262	 1.6135537806	 0.8436392066	 0.32039
H	-0.0647932555	-0.7779348777	-2.1803202876	 0.1771
