17
gdb 127925	4.76011	0.91248	0.79337	1.7558	74.4	-0.1931	0.0101	0.2032	1426.5863	0.136347	-451.326832	-451.317501	-451.316557	-451.361416	33.006	
C	-0.258607359	 1.278191606	 0.1302245652	-0.331968
N	-0.3959678582	-0.1319540049	 0.4418729885	-0.374942
C	 0.554266689	-0.6556306733	 1.1069051785	 0.484264
N	 1.75079008	-0.1492057848	 1.6045677926	-0.315536
N	 2.4455936022	-1.0626961481	 2.3841636825	-0.268383
C	 1.757648098	-2.1556485632	 2.2792244616	 0.34805
C	 2.1224145457	-3.4685920299	 2.8930005382	-0.176831
O	 1.0022419242	-4.0983204382	 3.4987188903	-0.413045
N	 0.6331048041	-1.989027099	 1.5080010492	-0.38538
H	 0.6385335139	 1.4975836778	-0.4728192947	 0.102149
H	-1.1263919771	 1.6078509373	-0.4470269768	 0.122517
H	-0.2092222829	 1.9170483077	 1.029876935	 0.093052
H	 1.9598392064	 0.8265385736	 1.7158912941	 0.274853
H	 2.4617882943	-4.1659164305	 2.1187194523	 0.13621
H	 2.9561309982	-3.3053774349	 3.5866575136	 0.130416
H	 0.7309598492	-3.5597172612	 4.2500544565	 0.293646
H	-0.1083627781	-2.6558259944	 1.3824686233	 0.280929
