19
gdb 46565	2.92137	1.68489	1.31618	2.8566	79.48	-0.2309	-0.0182	0.2128	1006.2228	0.161095	-385.850301	-385.843287	-385.842343	-385.881653	28.933	
O	-0.1399475672	-0.058771029	-0.214925094	-0.31155
C	-0.0388365034	 1.1292614593	-0.0608373286	 0.345133
C	-1.2542635193	 2.1125700755	 0.0239508377	-0.307464
C	-0.7096989681	 3.5497962417	 0.3024161809	-0.365236
C	 0.688102445	 3.2286633319	 0.7951047078	 0.336761
C	 2.1562452936	 3.7491831818	 0.8531813842	-0.309608
C	 2.2223082006	 2.216545691	 1.2072372992	-0.072865
C	 0.9965547445	 2.456045208	 2.1240477954	-0.262003
C	 1.2131588517	 1.9979700516	 0.033571742	-0.095223
H	-1.8367373339	 2.0419956874	-0.8995558543	 0.131387
H	-1.9084018126	 1.755916518	 0.8262889684	 0.136504
H	-0.6710685462	 4.1357867483	-0.6223498775	 0.108508
H	-1.3270375346	 4.0993980079	 1.0186379153	 0.106499
H	 2.6054219878	 4.0534305196	-0.0964014935	 0.095359
H	 2.4129637522	 4.4403219265	 1.6606547946	 0.095385
H	 3.1187230077	 1.6388973862	 1.4325431195	 0.08252
H	 1.1568456435	 3.0723202213	 3.0127083869	 0.091855
H	 0.382621657	 1.5822419389	 2.3579947842	 0.107713
H	 1.6071018417	 2.1891141542	-0.9735892582	 0.086324
