20
gdb 13139	3.81019	1.15149	0.97448	2.292	71.76	-0.2435	0.0626	0.3061	1260.2939	0.175728	-386.121889	-386.112635	-386.111691	-386.156582	32.771	
C	 0.1762091755	 1.4878416861	-0.1159370339	-0.381572
C	 0.0640958905	-0.0307111469	 0.0385821316	-0.169487
C	 0.6940666011	-0.5476775078	 1.3371538579	-0.169964
C	 0.6195032548	-2.0617721284	 1.4421094566	 0.115814
O	 1.3712465152	-2.7363710324	 0.3965347819	-0.292121
C	 2.2860977611	-3.3136279254	 1.3476914594	-0.097465
C	 1.4739452309	-2.7485946338	 2.5349008823	 0.041652
O	 2.1168615593	-1.8442945212	 3.4007756187	-0.421677
H	 1.223990961	 1.8082807878	-0.1199895197	 0.114089
H	-0.2791480125	 1.8279974776	-1.0514353283	 0.109597
H	-0.3239767946	 2.0105036931	 0.7073966969	 0.11057
H	-0.9929994558	-0.3272569848	 0.0038796512	 0.088643
H	 0.5503960179	-0.5295259104	-0.8073451691	 0.116333
H	 1.741651387	-0.2338034044	 1.4004865555	 0.105652
H	 0.1864645098	-0.1130756694	 2.2082852425	 0.097435
H	-0.4288207509	-2.390871346	 1.4222037862	 0.071256
H	 2.3417027377	-4.4054106127	 1.2566686937	 0.095902
H	 3.2948953084	-2.8865999151	 1.27198914	 0.099841
H	 0.9254028519	-3.5152680852	 3.0958081255	 0.07631
H	 2.5925229115	-2.346281191	 4.0692017911	 0.289191
