14
gdb 20356	6.30777	1.44965	1.29915	4.2985	65.42	-0.255	-0.0339	0.2211	916.847	0.107827	-378.691204	-378.684605	-378.683661	-378.722469	24.367	
C	-0.1162706204	 1.468166813	-0.0731331741	-0.261182
C	 1.2750277165	 0.9503875084	 0.1128398579	-0.261182
C	 0.1161671591	-0.0305588027	 0.0332708882	-0.113465
C	-0.314196399	-0.7585150056	 1.2262169707	 0.439974
C	-0.8078161469	-2.0188610003	 1.4112176501	-0.229862
N	-1.0422944621	-2.1666276892	 2.7547045252	-0.103254
N	-0.7411667435	-1.1288470893	 3.3869601105	-0.017365
O	-0.2512779003	-0.1621808601	 2.4149546836	-0.23535
H	-0.5955461975	 1.9485319979	 0.7715994163	 0.142649
H	-0.4071654785	 1.8518295888	-1.0441052225	 0.12696
H	 1.9586760932	 0.9713646392	-0.7278672957	 0.126962
H	 1.7385870512	 1.0798683371	 1.0836004876	 0.142647
H	 0.0234177768	-0.6075923921	-0.8793860602	 0.106177
H	-1.0052850783	-2.8043815751	 0.7027656123	 0.136291
