21
gdb 101122	3.2582	1.08493	0.92892	1.0016	78.93	-0.2335	0.0703	0.3038	1345.0798	0.181132	-424.183049	-424.173635	-424.17269	-424.217446	35.398	
C	 0.0031527511	 1.5161332871	 0.0746415332	-0.38846
C	-0.0635300418	-0.0119607876	 0.0307868402	-0.19331
C	-1.5003379031	-0.5483965551	 0.05939574	-0.00614
O	-2.274207712	-0.1042984121	-1.0494179832	-0.425582
C	-1.518226418	-2.0539110516	 0.1511443685	 0.493155
C	-1.6159064107	-3.037403783	-0.9766646578	-0.345604
C	-2.6104361784	-3.0970618112	 0.1713917041	-0.193116
C	-1.9027872372	-3.6263668339	 1.410651803	-0.089249
O	-0.8344080224	-2.648047436	 1.2662964529	-0.332377
H	 1.0359421218	 1.8686647886	-0.0013134086	 0.1111
H	-0.5713662513	 1.9558704585	-0.7455517809	 0.12271
H	-0.4132178748	 1.899938447	 1.0124069416	 0.117371
H	 0.4288221987	-0.3896806776	-0.8774621845	 0.085942
H	 0.4802897532	-0.4481589289	 0.8757446978	 0.126295
H	-2.0116759721	-0.1432127792	 0.9421153364	 0.093157
H	-1.7666173584	-0.2927993344	-1.8469879974	 0.281049
H	-2.0430820063	-2.6590180222	-1.8993456624	 0.111282
H	-0.8536332591	-3.8036614513	-1.0923352399	 0.111057
H	-3.6777289197	-2.9980543248	 0.030351679	 0.107107
H	-2.4537914157	-3.4557978686	 2.3423824303	 0.109798
H	-1.526454914	-4.6561250337	 1.3862187377	 0.103817
