19
gdb 121589	4.07667	0.71101	0.61234	9.2167	75.57	-0.2277	-0.0297	0.1979	1798.5915	0.158324	-456.39681	-456.386604	-456.38566	-456.434539	35.559	
C	 0.1800174339	 1.5083798346	 0.0080269129	-0.385772
C	 0.0102020952	-0.0118443263	 0.0015100509	-0.200772
C	-1.4593568391	-0.4314257624	 0.0133342527	-0.140795
N	-1.5867361229	-1.8812379124	 0.0067895137	-0.271469
C	-2.6828217768	-2.5919555254	 0.0137063517	 0.303325
N	-3.9207217348	-2.152504265	 0.0282541594	-0.502526
H	-4.5862332311	-2.926515296	 0.0307747927	 0.295148
H	-4.2090739354	-1.1881646584	 0.0362705744	 0.272193
C	-2.5009317303	-4.1631820389	 0.0046460883	 0.39912
O	-1.3075344366	-4.4902238876	-0.0085171703	-0.465139
O	-3.5858210284	-4.7565700081	 0.0125473787	-0.460218
H	 1.2386810412	 1.7801636497	-0.0006600672	 0.131941
H	-0.2882471757	 1.9657053619	-0.8700862479	 0.12446
H	-0.2712900887	 1.9562251819	 0.8997988011	 0.124462
H	 0.4925174077	-0.4403265469	-0.8851557183	 0.124775
H	 0.5093654512	-0.4497525238	 0.8741348651	 0.124789
H	-1.9590910525	-0.0277542165	 0.9050676912	 0.122768
H	-1.9760376667	-0.0182668518	-0.8642819634	 0.122768
H	-0.7773499102	-2.5105169985	-0.0044126558	 0.280941
