12
gdb 130509	4.07085	1.72717	1.21267	1.6331	72.23	-0.2586	-0.1111	0.1475	904.9109	0.079605	-431.612212	-431.606403	-431.605459	-431.64234	22.969	
O	-0.0857989541	 1.2295843041	 0.0094611878	-0.192519
N	 1.0087295515	 2.0642181331	 0.0035719451	-0.067354
C	 2.2008508017	 1.5307682113	-0.0106680432	-0.016741
C	 2.3833949111	 0.1363532176	-0.0199905632	 0.239491
N	 3.4511760791	-0.6205378819	-0.0344077263	-0.333636
C	 2.9513608765	-1.93004677	-0.0366705679	-0.02536
C	 1.5829646359	-2.0215676305	-0.0238739734	-0.238145
C	 1.1484180634	-0.6583443574	-0.0125520004	 0.37019
N	-0.0402352155	-0.1368963591	 0.001613475	-0.162502
H	 3.0205888786	 2.2426261072	-0.0146787496	 0.162378
H	 3.6556564437	-2.751833949	-0.0478514671	 0.1302
H	 0.9654274982	-2.9048252955	-0.0226016869	 0.133998
