16
gdb 113121	2.41168	1.18557	0.89614	4.6949	76.09	-0.2968	-0.0317	0.2651	1305.3019	0.12352	-396.925547	-396.916383	-396.915439	-396.959954	32.381	
C	-0.0237744057	 1.5108551788	-0.2497026866	-0.386351
C	-0.014666976	 0.0802677756	 0.3024642819	-0.202964
C	-1.3916118079	-0.5364260966	 0.2532680961	-0.031567
N	-1.8294437162	-1.1023257302	-1.0132726254	-0.32674
C	-1.6009845215	-2.0349839775	 0.119985321	 0.017629
C	-0.470565968	-2.9286617983	-0.0175300176	 0.291113
N	 0.4435196152	-3.6293140926	-0.1050886466	-0.326604
C	-2.7514595879	-2.5995931547	 0.7885590445	 0.244652
N	-3.6936830814	-3.0238722739	 1.3068586097	-0.318516
H	 0.978818114	 1.9444414341	-0.2084578829	 0.130445
H	-0.3556921862	 1.5216033251	-1.2921240269	 0.13731
H	-0.6919925279	 2.1593420083	 0.3271387752	 0.121124
H	 0.6774843028	-0.5411199998	-0.2733884129	 0.137417
H	 0.3336349797	 0.0740803602	 1.3418991891	 0.121882
H	-2.146696389	-0.0499115475	 0.8698494491	 0.125383
H	-2.8301388139	-0.992436451	-1.1627696677	 0.265787
