15
gdb 3453	4.44274	2.80782	2.08059	1.4206	55.29	-0.2355	0.0702	0.3056	644.2851	0.126287	-345.631685	-345.62552	-345.624576	-345.661471	23.829	
O	 0.3728298076	 1.1762519566	-0.5346032197	-0.431931
C	 0.0080616974	-0.0884737684	-0.0144212612	 0.10917
C	 0.4374287631	-0.2816106307	 1.4676487874	-0.120005
O	-0.5170935836	-1.1371171579	 2.0849928635	-0.254012
C	-1.7160353582	-1.0457965986	 1.3561271132	 0.128473
C	-2.2949413666	 0.3174773235	 1.0922317994	-0.344363
C	-1.4776747376	-0.4038332057	 0.0233772699	-0.107597
H	-0.2217032817	 1.8298266645	-0.1494655772	 0.279868
H	 0.5142288008	-0.8154872996	-0.657443975	 0.098339
H	 1.4245584089	-0.737882258	 1.5768382942	 0.115993
H	 0.4662684165	 0.704065702	 1.9566714075	 0.091658
H	-2.3564723302	-1.9049715289	 1.5146392059	 0.105268
H	-3.3644401071	 0.3855453337	 0.9271001181	 0.11988
H	-1.8714922018	 1.1730407596	 1.6098325808	 0.11371
H	-1.9670270175	-0.7381209221	-0.8830524067	 0.09555
