19
gdb 115404	3.19892	1.04684	0.89489	3.8563	75.58	-0.2147	0.0566	0.2714	1353.3017	0.159669	-456.353552	-456.344057	-456.343113	-456.388714	33.583	
C	-0.0934053882	 1.2689884195	 0.0591337195	-0.327908
N	 0.2674801455	-0.1357784945	 0.0199462621	-0.372105
C	 0.6131023401	-0.6602963086	-1.0713620162	 0.48787
N	 1.0364241232	-1.9755473224	-1.2313826587	-0.351068
C	 0.9379392823	-2.351358103	-2.6322987268	 0.00412
C	-0.4016713666	-3.0029316624	-2.9800428722	-0.085541
O	-0.5180677987	-4.157034354	-2.1631967267	-0.42324
C	 1.1254866248	-0.9705176251	-3.2807611402	-0.107765
O	 0.6519835256	-0.0416640854	-2.3008419201	-0.25488
H	 0.5792794701	 1.8027816189	 0.7420320313	 0.116309
H	-0.0625534089	 1.7723530323	-0.9147606376	 0.115571
H	-1.1049670539	 1.3758325256	 0.4698683912	 0.113292
H	 0.6848376964	-2.6328321534	-0.550694829	 0.259793
H	 1.7444692548	-3.0394674834	-2.9056843642	 0.09734
H	-1.2158647842	-2.2871386686	-2.7887869218	 0.10436
H	-0.4188048451	-3.2612505398	-4.0512444716	 0.090419
H	-1.4141531247	-4.4974336909	-2.2346300009	 0.295652
H	 2.1808238854	-0.7677489633	-3.4942869329	 0.120275
H	 0.5434977821	-0.8371261015	-4.1970325451	 0.117507
