16
gdb 10412	2.65437	1.94632	1.39879	3.3517	64.87	-0.251	0.016	0.267	924.4096	0.130265	-379.89125	-379.883029	-379.882085	-379.924311	28.989	
C	 0.0428750485	 1.5121285939	-0.0414383525	-0.343484
N	-0.0223786903	 0.0659850014	 0.1654422297	-0.326641
C	-1.3417770537	-0.517640622	 0.030600917	 0.101421
C	-1.9720798256	-0.6269699821	-1.4047504854	-0.111686
O	-1.7045694555	-2.0390576822	-1.4484171146	-0.262515
C	-1.3039346487	-2.0683502044	-0.069269123	-0.116882
C	-2.2440781976	 0.0261515701	 1.0479989074	 0.287806
N	-2.9816060932	 0.4483894533	 1.830956479	-0.340325
H	 1.0842447787	 1.8317123391	 0.0426328375	 0.132944
H	-0.3444013403	 1.8490180858	-1.0172507196	 0.107127
H	-0.5288469067	 2.0171426795	 0.7424922164	 0.156328
H	 0.6052040004	-0.40907147	-0.4750539362	 0.234105
H	-3.0437286433	-0.4044599625	-1.4620048873	 0.121347
H	-1.4355952376	-0.0737835071	-2.1840972373	 0.11329
H	-0.3071493688	-2.4991601987	 0.0783496368	 0.119244
H	-2.0278168864	-2.587122494	 0.5684935524	 0.12792
