17
gdb 6317	3.52972	1.19128	1.00925	2.3576	65.39	-0.2511	-0.0203	0.2308	1166.5127	0.139562	-401.052176	-401.042738	-401.041794	-401.087424	32.578	
C	-0.2436990387	 1.7031832741	 0.2314275556	-0.415001
C	 0.0006115588	 0.2114155597	-0.0547120799	-0.06105
C	 0.7680017018	-0.5056439854	 1.0545872126	-0.32437
C	 2.2550994403	-0.15854349	 1.0470401842	 0.411848
N	 2.9307548176	-0.5300750398	 2.1733562984	-0.523788
O	 2.8035689809	 0.4030191509	 0.1165298277	-0.361557
C	-1.3011171029	-0.4863418843	-0.3855327109	 0.14842
O	-1.6709943694	-1.5361913981	 0.0774398441	-0.253884
H	 0.7126346365	 2.2231118754	 0.3179427257	 0.149935
H	-0.81185288	 2.1737533108	-0.5777542568	 0.120313
H	-0.8043123891	 1.8422897751	 1.1624996784	 0.119603
H	 0.6101146364	 0.1605636744	-0.9699088304	 0.130105
H	 0.3359444691	-0.2777040063	 2.036366469	 0.115361
H	 0.6608330695	-1.5895638926	 0.9277451345	 0.1447
H	 2.502875208	-1.0949740651	 2.8862644284	 0.2603
H	 3.932739116	-0.4293572847	 2.1777531717	 0.261351
H	-1.9258307747	 0.0575481962	-1.1320636724	 0.077712
