19
gdb 106138	2.43322	1.51166	1.19058	2.0471	75.22	-0.2283	0.0712	0.2995	1114.7055	0.158462	-422.955274	-422.946765	-422.94582	-422.98839	32.438	
C	-0.1617219015	 1.4314530872	 0.0742806075	-0.507874
C	 0.0044403571	-0.0545601328	-0.0386319286	 0.224105
C	 1.0147757745	-0.8387458435	-0.882117158	-0.282306
C	 0.1815834494	-2.0861516376	-0.4999079607	 0.020064
O	 0.4138535065	-2.2252806848	 0.9323606945	-0.296153
C	-0.3645084948	-1.0412279759	 1.0863241769	-0.015521
C	-1.0601723238	-1.145074776	-0.2387889653	 0.227527
C	-2.4877604818	-1.1453995958	-0.6667579795	-0.214592
O	-3.1742424694	-2.3389224223	-0.3144737786	-0.410806
H	 0.7231108135	 1.8885652101	 0.5321767588	 0.128235
H	-0.30790999	 1.8981301082	-0.906392525	 0.122989
H	-1.0253667717	 1.6924957037	 0.6958771649	 0.119387
H	 0.919738817	-0.59345235	-1.943786989	 0.101332
H	 2.0677568056	-0.8470532658	-0.5813471628	 0.098701
H	 0.2170068432	-3.0285528346	-1.0415381972	 0.092759
H	-0.6993882624	-0.7493416586	 2.0745578391	 0.102881
H	-2.9862946558	-0.252985282	-0.2519901404	 0.090343
H	-2.5684023089	-1.074724178	-1.7577824029	 0.113532
H	-3.0045794168	-2.5012053018	 0.6196897265	 0.285397
