22
gdb 94709	3.30742	1.23757	1.05743	2.5508	82.59	-0.2349	0.0736	0.3084	1242.7515	0.195079	-404.341998	-404.333194	-404.33225	-404.374931	34.729	
C	 0.0669751386	 1.5458690641	 0.0566036359	-0.403889
C	 0.005566036	 0.027836184	-0.0166513595	 0.143908
C	 0.6945995964	-0.5384237094	-1.2683210993	-0.208576
C	 0.9595063004	-2.031177991	-1.1388764623	-0.09138
N	 2.1471259829	-2.4079638228	-0.3392434904	-0.353774
C	 0.8040462326	-2.7147632206	 0.1761725133	 0.29693
C	 0.3462267241	-4.153931221	 0.2438426639	-0.477639
C	 0.3817092624	-1.8526625278	 1.3571335041	-0.115772
O	 0.618110737	-0.4764504258	 1.1641286885	-0.249646
H	 1.1085318629	 1.8767165613	 0.1142135906	 0.128178
H	-0.3912793732	 1.99405709	-0.830503862	 0.110605
H	-0.4582837841	 1.9097767486	 0.943612785	 0.119533
H	-1.0517915245	-0.2947927343	-0.0260439173	 0.055035
H	 0.0625359953	-0.3443765459	-2.1424241615	 0.091845
H	 1.6466801621	-0.0200892714	-1.4278926141	 0.110958
H	 0.7588180746	-2.6285752	-2.0261163927	 0.076633
H	 2.56698192	-3.2518099953	-0.7233095621	 0.221324
H	 0.6427537408	-4.7029628053	-0.6559572944	 0.114103
H	 0.7834984268	-4.6660145634	 1.1097596682	 0.123729
H	-0.7434356716	-4.2240660143	 0.3345703	 0.123423
H	-0.690955785	-2.0311823277	 1.5555148087	 0.077448
H	 0.9432820553	-2.1389612222	 2.2533135574	 0.107023
