18
gdb 37527	3.67949	1.95337	1.70804	2.1173	73.19	-0.2288	0.084	0.3128	838.1928	0.152295	-401.893923	-401.888282	-401.887338	-401.923611	24.79	
C	-0.0422632201	 1.5129213038	 0.0809432146	-0.180658
C	 1.4788504408	 1.483971083	-0.0326798255	-0.070066
C	 1.9830317576	 0.474396507	 1.0679558565	-0.112296
C	 2.4250657312	-0.5132887446	-0.0425862224	 0.144919
O	 2.2124523116	-1.8443933294	 0.3565249357	-0.28056
C	 1.0969021485	-1.7997723996	 1.2635040335	-0.086256
C	 0.6685993656	-0.3345680023	 1.2906029591	-0.018109
N	-0.0018118484	 0.0031461148	-0.0075859105	-0.151264
C	 1.3030630807	 0.1684432545	-0.847570913	-0.046065
H	-0.5206892038	 1.9092176403	 0.9832136633	 0.098425
H	-0.531870017	 1.9219761451	-0.8074820555	 0.108351
H	 2.1176783762	 2.3207873369	-0.3127497698	 0.071064
H	 2.6118591461	 0.7492691771	 1.9121908713	 0.07103
H	 3.4221862502	-0.3973377226	-0.4689867678	 0.085803
H	 0.289714541	-2.4405876662	 0.893582922	 0.116059
H	 1.4164049134	-2.1568816504	 2.2513678106	 0.096301
H	 0.0411662986	-0.0693747281	 2.1424077352	 0.073928
H	 1.1445410879	 0.0863743407	-1.9209650374	 0.079395
