13
gdb 131593	4.68094	1.01926	0.84137	3.3634	60.61	-0.2693	-0.0751	0.1942	1251.798	0.088249	-489.874534	-489.866483	-489.865539	-489.908412	27.415	
O	 0.0093582564	 1.3856020829	 0.0095640481	-0.396531
C	-0.0186265896	-0.0151494016	 0.0025617239	-0.17985
C	-1.4682522362	-0.4776667775	 0.0127608598	 0.303553
O	-2.4125745236	 0.2657922177	 0.0245294866	-0.256909
C	-1.6675800133	-1.9680835538	 0.0070863712	 0.271824
N	-0.6592828024	-2.8049686398	-0.0050128817	-0.156131
O	-1.2673863583	-4.0536719022	-0.006372992	-0.150593
C	-2.5876610058	-3.8206407005	 0.0057162516	 0.113129
N	-2.9086250462	-2.5699231431	 0.0140491942	-0.280657
H	 0.9297486767	 1.6636558206	 0.0038482071	 0.296902
H	 0.4655191505	-0.4560947557	-0.8849138791	 0.128063
H	 0.4809370572	-0.4652510884	 0.8767709546	 0.128091
H	-3.2363668254	-4.6840436986	 0.0067038058	 0.179111
