20
gdb 87775	3.77557	1.05164	1.03689	2.102	80.2	-0.2293	0.0794	0.3086	1259.2818	0.169921	-403.090019	-403.081215	-403.08027	-403.123089	34.447	
C	-0.113510351	 1.4994823415	-0.0472248105	-0.3909
C	-0.0353982491	-0.002771096	 0.0746924762	-0.076852
N	 1.3091331837	-0.608224887	-0.0985447719	-0.397482
C	 0.641539105	-0.6907312699	 1.1972778305	 0.382535
C	 1.2927424807	-0.1432951097	 2.4872791358	-0.376963
C	 0.8382534357	-1.4333178848	 3.1949744831	 0.403025
O	 1.6143644137	-2.1368080469	 4.0974904464	-0.460531
C	-0.6484955003	-1.6172428904	 3.0907032679	-0.341994
C	 0.2340265665	-1.9684578	 1.9039850488	-0.211551
H	 0.7537039753	 1.9690712288	 0.424498244	 0.1267
H	-0.1303447614	 1.8059170471	-1.0988517809	 0.118925
H	-1.0207059725	 1.8848820284	 0.4313568977	 0.111452
H	-0.8717167135	-0.5427379986	-0.3697458978	 0.078678
H	 1.2382776998	-1.4974927213	-0.5886738873	 0.226042
H	 2.3789929608	-0.1006270118	 2.3809538334	 0.122432
H	 0.9219311069	 0.8048483421	 2.8914506627	 0.089938
H	 1.4157437867	-1.8144964907	 4.9836639885	 0.2854
H	-1.0251247818	-2.4795667188	 3.6324513545	 0.112653
H	-1.3297360586	-0.7705023803	 3.0424683258	 0.105321
H	 0.2629747534	-2.9684101317	 1.4864702531	 0.093174
