18
gdb 110493	3.10753	1.47439	1.36526	2.5191	74.71	-0.2306	-0.0052	0.2254	1004.5892	0.149493	-401.889902	-401.882643	-401.881699	-401.921622	29.158	
O	 0.8125642946	-0.6514064755	-1.0597227314	-0.426353
C	 0.1589242896	 0.0358519418	-0.0028985355	-0.083178
C	-1.3012502382	-0.3830625906	 0.0527360117	 0.06289
C	-2.4018692968	 0.2652089458	 0.9861142026	-0.156483
C	-2.0950528264	 1.7345704631	 1.1033810344	-0.094011
C	-2.242333282	 2.3046603315	-0.1003313089	-0.080955
C	-2.7654102279	 1.2988319867	-1.0572438283	-0.06034
C	-3.2820218293	 0.1455885499	-0.2953493901	-0.040111
N	-2.0996082565	-0.0966861193	-1.1784425736	-0.193728
H	 0.2515358552	-0.5509065099	-1.838247954	 0.293523
H	 0.6714737453	-0.249318644	 0.92349974	 0.103243
H	 0.2518652858	 1.1234652767	-0.1171509078	 0.090923
H	-1.346008142	-1.4700745704	 0.1732392516	 0.100396
H	-2.6609740667	-0.2720681598	 1.8962320183	 0.076064
H	-1.647633286	 2.1865810736	 1.9801208576	 0.105581
H	-1.9811758993	 3.3172564396	-0.3796401082	 0.10395
H	-3.194745074	 1.5797177147	-2.0107374673	 0.100621
H	-4.2355743853	-0.3572586939	-0.4228048911	 0.09797
