17
gdb 52744	2.89332	0.82758	0.66451	1.1501	89.31	-0.2496	0.0302	0.2799	1674.1658	0.131181	-347.458075	-347.447344	-347.4464	-347.495826	37.131	
C	-0.065500179	 1.4854035673	 0.0533954079	-0.499527
C	-0.0233713851	 0.0307912931	 0.0167641844	 0.103932
C	 0.0268243389	-1.1709011303	-0.0170408147	 0.061871
C	 0.0487970363	-2.6364854364	-0.0495673719	-0.358356
C	-1.4119768632	-3.1994683183	-0.1020316644	-0.351732
C	-1.4702923745	-4.6456541926	 0.0479860219	 0.308565
C	-1.5033636795	-5.8380961062	 0.1917417778	-0.44064
C	 0.8570638826	-3.1400550562	-1.1639501389	 0.359921
C	 1.5077376518	-3.5569496489	-2.0828837594	-0.466785
H	 0.5250075966	 1.9177387944	-0.7616396298	 0.153483
H	-1.09147361	 1.8559220096	-0.0470948914	 0.149932
H	 0.3363278424	 1.8712953966	 0.9965672627	 0.150545
H	 0.4940849727	-3.0024245963	 0.8859376416	 0.143555
H	-1.9822570851	-2.7137259047	 0.6971888666	 0.141267
H	-1.8656768125	-2.8919701995	-1.0499023685	 0.147423
H	-1.5391809437	-6.8928667151	 0.307659779	 0.197221
H	 2.0882781913	-3.9257904465	-2.8918234828	 0.199325
