15
gdb 56408	3.35442	0.72568	0.6395	1.6511	77.5	-0.2611	-0.0042	0.2569	1697.4189	0.109225	-420.515966	-420.506442	-420.505498	-420.552609	33.095	
O	 0.7465001555	 1.6371758082	-0.2553502126	-0.38727
C	 0.1871183753	 0.356367245	 0.0148996387	-0.23908
C	 0.4664434488	-0.6083845549	-1.0597908612	 0.328604
C	 0.7123686442	-1.3745046953	-1.9514337862	-0.449135
C	 0.6121795	-0.1761333666	 1.317530517	 0.139318
C	 0.9877955987	-0.5919723444	 2.3835231496	 0.072104
C	 1.418890531	-1.0632766979	 3.6712679261	-0.121218
C	 1.6045644676	-2.5033371369	 3.9440900357	-0.157802
O	 2.7267060756	-1.6529459838	 3.7572269137	-0.211486
H	 1.7045825678	 1.5303010627	-0.2879516051	 0.292621
H	-0.8954737813	 0.5358691837	 0.0490143287	 0.152186
H	 0.9247156873	-2.0549490611	-2.7390429557	 0.206127
H	 1.1729394755	-0.4168817544	 4.5128308384	 0.122631
H	 1.450984773	-2.8712818674	 4.9577331612	 0.122997
H	 1.4166188011	-3.2176388771	 3.1450987819	 0.129403
