21
gdb 62445	3.39091	1.15225	1.12995	1.1333	89.06	-0.2332	0.0595	0.2927	1210.3067	0.18273	-349.927284	-349.918273	-349.917329	-349.960622	34.896	
C	 0.0206523383	 1.5656905833	 0.0267516041	-0.474391
C	 0.062737193	 0.0432010564	 0.0286449179	 0.114824
C	-1.1760581207	-0.5450830642	-0.4191749953	 0.269333
C	-2.2178940583	-1.0159560712	-0.7954088465	-0.442299
C	 1.3097700682	-0.7693041506	-0.3327715099	-0.072261
C	 2.6734935106	-0.0912884614	-0.3655719732	-0.2364
C	 2.9117970585	 0.5045964906	 1.0506672322	-0.220318
C	 1.833280917	-0.1116340617	 1.9859064139	-0.236392
C	 0.8028127621	-0.7815705643	 1.0859815092	-0.072279
H	 0.9539331492	 2.0156030042	 0.3642181691	 0.119786
H	-0.1868928618	 1.9366197416	-0.9818793347	 0.127583
H	-0.7812080741	 1.9222571659	 0.6808770905	 0.127585
H	-3.1354189306	-1.4343424151	-1.1268511044	 0.186383
H	 1.1491908395	-1.6165390148	-0.9895064922	 0.092635
H	 3.426909322	-0.8524174045	-0.5955927932	 0.103974
H	 2.7538614372	 0.6713630993	-1.1476809627	 0.103214
H	 3.9204244248	 0.2812053072	 1.4091304546	 0.09915
H	 2.8348003359	 1.5944626644	 1.0325851031	 0.110047
H	 2.2745268446	-0.880302325	 2.6295801895	 0.103976
H	 1.3956773104	 0.6384952707	 2.6534378	 0.103214
H	 0.2670826743	-1.6378837007	 1.4791891182	 0.092635
