19
gdb 38709	2.58347	2.13927	1.59221	2.0226	78.17	-0.2472	0.012	0.2592	902.5202	0.162462	-385.868533	-385.86208	-385.861136	-385.898775	28.184	
C	-0.0640418733	 1.5976219068	-0.1005604887	-0.268939
C	 1.4225415962	 1.9265190725	 0.0833563655	 0.019351
O	 2.4147054059	 1.9153559749	-0.9751731813	-0.318907
C	 2.1723643193	 0.7131879237	-0.2504154686	 0.382656
C	 1.1842537524	-0.2405111183	-0.9315301497	-0.267468
C	 0.0005117099	 0.0344843216	 0.0121895737	-0.049181
C	 0.4858069142	-0.4333057214	 1.3906150553	-0.06358
C	 1.7784362376	-0.477915425	 1.7513305971	-0.050759
C	 2.922512373	 0.0574691592	 0.8813776914	-0.355489
H	-0.6621587702	 2.0713140021	 0.6822980465	 0.102978
H	-0.4710289422	 1.9002778306	-1.0711022523	 0.111748
H	 1.7169139771	 2.5455166352	 0.926660154	 0.094511
H	 0.9907078395	 0.0765393361	-1.9590270862	 0.104647
H	 1.5104479713	-1.2828143287	-0.9223753301	 0.09637
H	-0.9399347985	-0.4592673645	-0.2537420943	 0.059832
H	-0.2681446338	-0.7785059897	 2.0935711079	 0.087419
H	 2.049549295	-0.8682820569	 2.7292758622	 0.090353
H	 3.6030472088	-0.7464997989	 0.5706250586	 0.107966
H	 3.5159914579	 0.7829112309	 1.4507373789	 0.116493
