19
gdb 106053	2.70783	1.57781	1.23985	2.5001	74.3	-0.2246	0.0798	0.3044	1073.1383	0.15774	-422.943691	-422.935262	-422.934318	-422.976671	32.054	
C	 0.0939623613	-0.5527279897	 0.9069246697	-0.254273
O	-0.2408348838	-0.2629775466	-0.4420375348	-0.283691
C	 0.7279739956	-0.5995796287	-1.3489084391	 0.366847
C	 0.3280860872	-1.0748359177	-2.7490232643	 0.029734
O	 1.3908671321	-0.7618627999	-3.6486720961	-0.293118
C	 2.2871792407	-1.1790677229	-2.5757441711	 0.047581
C	 1.1351189309	-1.9853322749	-1.8750536742	-0.237874
C	 2.1537613913	-0.049513592	-1.5062235038	-0.055086
C	 2.3840154896	 1.3957187116	-1.9181798163	-0.422428
H	 0.3288158825	-1.6175350604	 1.0392899588	 0.112624
H	 0.9509701358	 0.0419409312	 1.2497314861	 0.117037
H	-0.779333031	-0.2969694481	 1.5104329839	 0.131191
H	-0.6916857271	-1.1184304023	-3.1075820376	 0.115562
H	 3.2499214803	-1.5458943282	-2.9244612291	 0.085875
H	 1.0124073513	-3.0037603477	-1.5361148904	 0.102327
H	 2.7528780769	-0.3283828034	-0.6318832133	 0.073254
H	 1.8821753772	 1.6019582698	-2.866316283	 0.137404
H	 1.9908286359	 2.0839664488	-1.1626207832	 0.117132
H	 3.4519778035	 1.6085865211	-2.0387502622	 0.109903
