14
gdb 10380	2.57336	2.13653	1.45306	1.9281	64.65	-0.2496	-0.0433	0.2063	875.9317	0.104441	-382.48537	-382.477429	-382.476485	-382.518155	28.047	
O	-0.7931313249	 0.7968183018	 0.4594054412	-0.24035
C	 0.1974963384	 0.8694746657	-0.214988108	 0.123873
C	 1.3310616869	 1.8814556449	 0.0144079896	 0.171376
C	 1.320298127	 2.5566919536	 1.4053830094	-0.336033
C	 2.5289557398	 1.6499066274	 1.7029123495	-0.070265
O	 2.512282526	 1.0987642282	 0.3583547915	-0.314711
C	 1.5003834807	 2.7103386852	-1.1644799902	 0.270935
C	 1.5940652527	 3.3754600881	-2.1619349567	-0.430139
H	 0.4100912888	 0.1677430039	-1.0480966624	 0.106473
H	 1.5314361976	 3.6245084759	 1.386714929	 0.127822
H	 0.4090584821	 2.3570179037	 1.968518313	 0.145171
H	 3.4737812012	 2.1639977028	 1.9053836263	 0.118554
H	 2.3691679269	 0.8725279049	 2.4574125187	 0.118086
H	 1.6918925768	 3.972795694	-3.0352396909	 0.209208
