16
gdb 67349	2.9409	1.95041	1.3718	3.0977	67.6	-0.2459	0.0024	0.2482	913.8103	0.126405	-437.87237	-437.865394	-437.86445	-437.903751	27.566	
N	-0.0788611193	 1.4778567623	 0.0060438165	-0.605657
C	-0.0303450942	 0.0497827808	-0.0258884002	 0.150261
C	 0.0932809073	-0.7953561767	 1.3036496395	-0.106087
C	-1.4039982345	-0.5363528748	 1.5913950648	-0.26555
C	-1.3482387627	-0.8167077139	 0.0715141076	-0.106089
C	-0.3081788246	-1.9343602686	 0.3335613277	 0.123523
O	 0.6279480733	-2.0054095895	-0.7605165144	-0.248511
C	 0.8438568004	-0.6832391535	-1.0356321518	 0.407324
O	 1.5679298355	-0.2659224835	-1.8908335231	-0.353186
H	 0.8574165488	 1.8478991017	 0.1499844012	 0.243219
H	-0.3739742522	 1.8295995233	-0.9013966522	 0.243217
H	 0.9376888438	-0.7839689567	 1.9935847471	 0.089893
H	-1.9231071583	-1.2721430612	 2.2114804492	 0.098612
H	-1.6568817216	 0.4859465972	 1.8695456435	 0.130702
H	-2.1612086912	-0.8298764646	-0.6551744874	 0.089895
H	-0.5818980605	-2.9300028622	 0.6709949319	 0.108434
