21
gdb 108688	1.98126	1.36974	0.87635	3.8264	89.16	-0.2406	-0.0488	0.1918	1375.9707	0.182482	-387.13336	-387.123928	-387.122984	-387.168188	34.391	
C	-0.2045860139	 1.5999351171	-0.1741228843	-0.375041
C	 0.0788053087	 0.098434032	 0.0294547527	-0.300989
C	 0.7687820134	-0.5311229204	-1.1455078954	 0.242657
C	 2.0465349037	-0.957530516	-1.2477362984	 0.139598
C	 2.3387639709	-1.5715650755	-2.6008377163	-0.300425
C	 1.125950697	-1.1340101047	-3.4548012031	-0.218992
C	 0.0149574582	-0.8056035586	-2.430632143	-0.296949
C	 3.0679824419	-0.90322824	-0.2046938518	 0.055735
O	 4.197098683	-1.32877447	-0.3445850298	-0.276471
H	 0.7281241905	 2.1578733412	-0.29915611	 0.127314
H	-0.8232894921	 1.7774093551	-1.0587150515	 0.124139
H	-0.7335287784	 2.009211351	 0.6914598037	 0.121612
H	 0.6628461669	-0.0357224974	 0.9438744837	 0.114826
H	-0.8752479034	-0.421637515	 0.1909256938	 0.111431
H	 3.2979403314	-1.2392078199	-3.0071579634	 0.120973
H	 2.4084950799	-2.6637257668	-2.5121332267	 0.113828
H	 1.3799911637	-0.2283630556	-4.014890664	 0.108243
H	 0.8203093867	-1.8888296632	-4.1830912458	 0.101756
H	-0.6639075497	-1.657371084	-2.2715206913	 0.115439
H	-0.621622467	 0.0311064643	-2.7390912796	 0.110967
H	 2.7605973085	-0.4347413738	 0.7549744004	 0.060351
