20
gdb 79855	2.80522	1.70132	1.23195	1.9567	78.93	-0.2263	0.0694	0.2956	1062.9475	0.171968	-403.093399	-403.08557	-403.084625	-403.125093	31.867	
C	-0.1320801741	 1.5756365607	 0.0122918777	-0.433736
C	-0.0098246983	 0.0622950904	-0.0051091554	 0.026215
C	 1.2319631955	-0.6048656916	-0.6419321743	-0.112315
N	 2.0659655239	-0.1431999913	 0.5455299389	-0.134094
C	 3.0876968108	-1.1992090863	 0.7850708722	-0.160702
C	 2.3213909688	-2.5200454197	 0.551242866	-0.326849
C	 0.965247684	-1.9025805942	 0.2128672296	 0.432413
O	-0.1211541926	-2.7462684232	-0.0112885757	-0.485356
C	 0.7551745438	-0.6636320002	 1.1296340632	-0.077989
H	 0.8163120395	 2.0410094513	 0.2871752803	 0.137598
H	-0.4318973138	 1.9514003427	-0.9725177981	 0.108847
H	-0.8975682388	 1.8944495123	 0.7286382795	 0.1102
H	-0.9472689874	-0.4301403986	-0.2720893373	 0.084507
H	 1.6128953351	-0.5256774799	-1.6641492952	 0.066093
H	 3.9222592033	-1.051841399	 0.0936447992	 0.104815
H	 3.4727192012	-1.1002014708	 1.803843223	 0.107002
H	 2.720757334	-3.1177247409	-0.276337306	 0.090496
H	 2.26468768	-3.1626994231	 1.4348354241	 0.106896
H	 0.1355583443	-3.4100862834	-0.6598328747	 0.284111
H	 0.569329811	-0.6524724856	 2.2066925828	 0.071849
