19
gdb 114193	3.44714	1.11074	0.94364	3.6904	77.75	-0.2435	-0.029	0.2145	1276.7719	0.158682	-423.020091	-423.01124	-423.010295	-423.054116	32.989	
O	-0.4954576245	 1.649911829	-0.1687271543	-0.422832
C	-0.1299108862	 0.3102824817	-0.4243236489	-0.070957
C	-1.2622332775	-0.6450034891	-0.0381956913	-0.123213
C	-0.9816654124	-2.1836338842	 0.0625327073	-0.373077
C	-1.363216703	-2.1355827272	 1.5556883281	 0.248651
C	-2.2494951273	-3.0684743666	 2.3577268782	-0.306811
C	-0.8153685101	-2.8999079507	 2.7402499313	-0.308852
C	-1.5300756718	-0.6509947713	 1.4746630372	 0.344224
O	-1.6935970417	 0.2317605545	 2.2799738082	-0.344313
H	-0.8009337148	 1.6895203541	 0.7476057619	 0.297494
H	 0.0909179352	 0.2370927261	-1.4947169635	 0.110802
H	 0.7881579264	 0.0256757495	 0.1180052675	 0.085056
H	-2.1591843483	-0.3965776534	-0.6142935537	 0.110374
H	-1.6178912882	-2.807748052	-0.5679567117	 0.112386
H	 0.0645935235	-2.4466006561	-0.1178719806	 0.11262
H	-3.0092198614	-2.6066158355	 2.9791694309	 0.137204
H	-2.5508469197	-3.9897850971	 1.8705071484	 0.126721
H	-0.1240215106	-3.7070211416	 2.5225569574	 0.126106
H	-0.5813265175	-2.3169040302	 3.6247552377	 0.13842
