23
gdb 104607	2.22603	1.2033	0.8905	3.2175	81.88	-0.2459	0.0608	0.3067	1400.1217	0.204709	-425.412966	-425.402784	-425.401839	-425.448281	38.781	
C	-2.8539965844	 1.1868812783	-1.7091619512	-0.383571
C	-2.2314853501	-0.2071657349	-1.668605112	 0.155502
O	-1.1246344551	-0.2013935382	-2.5625263336	-0.462804
C	-1.8286059908	-0.6102457275	-0.2394789918	-0.297807
C	-1.6193182963	-2.1069236042	-0.0129691548	 0.334016
C	-0.7638325327	-2.8365002783	-1.0299944598	-0.159491
O	 0.4869186906	-2.1864642077	-1.273981045	-0.41461
C	-1.5393332284	-2.5810784024	 1.4237774282	-0.322232
C	-2.7498444148	-2.9094895611	 0.58523278	-0.302801
H	-3.0428152992	 1.4766550006	-2.7463652721	 0.122502
H	-3.8016785533	 1.2149877452	-1.1612523307	 0.100115
H	-2.172242314	 1.9240094839	-1.271460495	 0.112603
H	-2.9840135825	-0.9310653973	-2.0288661909	 0.059301
H	-0.4046566417	-0.7296730384	-2.1896231651	 0.296402
H	-0.9146439962	-0.0557204207	 0.0146277565	 0.095384
H	-2.5978706347	-0.265428852	 0.4611552904	 0.09415
H	-0.6027707876	-3.8758923856	-0.7094957531	 0.094309
H	-1.258171529	-2.8626432088	-2.0057468973	 0.135291
H	 0.9139038815	-2.0368054725	-0.4231745012	 0.290352
H	-0.8564105738	-3.3894452563	 1.6670782855	 0.108762
H	-1.6476102532	-1.8408417166	 2.2095623777	 0.114855
H	-3.6786431545	-2.3919758729	 0.7994944537	 0.116251
H	-2.8816364098	-3.9371740527	 0.2620049119	 0.113519
