18
gdb 60672	2.03296	1.48185	1.18928	2.7365	75.94	-0.2777	-0.0552	0.2225	1137.2131	0.145305	-401.955067	-401.9455	-401.944556	-401.989786	34.301	
C	 0.0805583758	 1.5048997284	-0.0016317203	-0.40868
C	-0.1052648193	-0.0271566244	 0.0217324736	-0.022373
C	 0.4792541747	-0.6138784989	 1.327739715	 0.132852
O	 1.4549182341	-0.1629199392	 1.8627130341	-0.242956
C	-1.5339217338	-0.3710886484	-0.0175296237	 0.26045
N	-2.6560511827	-0.6479419016	-0.0303815541	-0.330731
C	 0.5884780192	-0.6690171651	-1.1968806048	 0.00769
C	 2.0853107569	-0.8179677006	-1.2606342723	-0.283646
C	 1.2083693632	-2.0430248995	-1.1736443556	-0.283674
H	 1.1378755156	 1.734133419	 0.1370913443	 0.150703
H	-0.2548230725	 1.9104158806	-0.9589743314	 0.13316
H	-0.4896147098	 1.9831437675	 0.7984837514	 0.13846
H	-0.0540178987	-1.4993801012	 1.7296707933	 0.119338
H	 0.0940474715	-0.387859408	-2.121880987	 0.111701
H	 2.5717101882	-0.5916585596	-2.2024434949	 0.122375
H	 2.6609435837	-0.5510901758	-0.3815743411	 0.143786
H	 1.2164891729	-2.6009161513	-0.2436595346	 0.125208
H	 1.0852813809	-2.6644540421	-2.052946472	 0.126337
