15
gdb 18671	3.36556	2.38805	1.55999	2.0712	62.41	-0.2607	0.0113	0.272	795.2007	0.120992	-399.791085	-399.784665	-399.783721	-399.821805	24.763	
N	-0.0702656289	 1.2664001647	 0.1876890776	-0.522661
C	-0.0029465381	 0.0193453449	-0.0091938103	 0.388626
O	 1.1954379318	-0.6349289096	-0.1653831652	-0.244413
C	 1.1336478262	-1.8476411793	-0.9130529695	 0.001258
O	 0.2864784534	-2.7852005311	-0.3271459	-0.232933
C	-1.039513839	-2.3222711547	-0.2639191594	 0.082036
C	-1.495236001	-1.8320936896	 1.0703551985	-0.299968
C	-1.2189471936	-0.8367484032	-0.0544656391	-0.126768
H	 0.8674094675	 1.6732359695	 0.171274289	 0.222109
H	 0.8210209976	-1.6155292688	-1.9425142163	 0.101386
H	 2.1420468024	-2.26243178	-0.9016963596	 0.131626
H	-1.7220785515	-2.8607386484	-0.9158558917	 0.106756
H	-2.5308914753	-1.9695958163	 1.3578044998	 0.126572
H	-0.7734001159	-1.8938956365	 1.8760227442	 0.14127
H	-2.0816943754	-0.3473902616	-0.4874357882	 0.125105
