22
gdb 5993	4.13069	1.00193	0.97778	2.2086	74.65	-0.2537	0.062	0.3157	1328.5921	0.197556	-387.347737	-387.337304	-387.33636	-387.382666	38.13	
C	 0.0899930003	 1.6159837748	-0.0238108314	-0.381665
C	 0.0086664203	 0.08683777	-0.017300387	-0.176749
C	 0.6134735494	-0.5246576388	 1.2523856595	-0.182711
C	 0.6937982381	-2.0589270682	 1.2575364132	 0.361921
C	-0.685561011	-2.7269802561	 1.1258930983	-0.425169
O	 1.5250827352	-2.4324840038	 0.1585067785	-0.477423
C	 1.3832279673	-2.5268035034	 2.5494088896	-0.112
O	 1.6207226129	-3.9275684403	 2.413952976	-0.436092
H	 1.1293730465	 1.9579592819	 0.0354313792	 0.11291
H	-0.3455070834	 2.0336535191	-0.9370482124	 0.109607
H	-0.4475825676	 2.0484086224	 0.8281193978	 0.108472
H	-1.0395939089	-0.2178933435	-0.1170548902	 0.093744
H	 0.5355542179	-0.3196858101	-0.886602689	 0.120272
H	 1.6336199736	-0.1388962813	 1.3758244704	 0.093076
H	 0.0421511355	-0.1961017683	 2.1310459287	 0.085123
H	-1.1142026739	-2.5212739062	 0.1430812873	 0.122266
H	-0.5896254844	-3.8099866064	 1.239706249	 0.124739
H	-1.378635597	-2.3643553502	 1.8930776954	 0.10347
H	 1.7959765927	-3.3420210233	 0.3372797206	 0.281712
H	 2.3304322815	-1.9824039134	 2.6646292885	 0.091995
H	 0.7495202171	-2.3165878108	 3.423825299	 0.088424
H	 2.2635823279	-4.1963809841	 3.0751498289	 0.294078
