18
gdb 73419	2.6641	2.33826	1.61328	1.0772	72.88	-0.2466	0.0728	0.3194	871.9762	0.149757	-401.896849	-401.890231	-401.889287	-401.927409	27.554	
C	 0.0249217821	 1.4471023064	-0.0415868725	-0.48163
C	-0.0174254094	-0.0602023367	-0.0158083306	 0.45233
O	 0.3315903079	-0.5844480226	-1.2909064331	-0.314553
C	-0.1490166743	-1.9369644229	-1.3619105365	-0.100307
C	-0.8571411364	-2.1784906653	-0.0261916752	-0.079611
C	 0.0763906822	-2.1327246323	 1.1857335697	-0.053653
C	 0.6455041174	-0.7532596405	 1.1846903449	-0.109079
N	-0.6630847339	-1.0273921008	 1.8796509734	-0.181226
C	-1.2890307504	-0.7848635829	 0.4862112745	-0.078879
H	 1.0350593176	 1.7969611987	-0.2759198181	 0.128264
H	-0.6558802932	 1.8346810066	-0.8048972913	 0.124762
H	-0.2643508441	 1.8512093487	 0.9325288902	 0.133269
H	-0.8256462765	-2.0285310263	-2.2215511101	 0.101087
H	 0.6926422777	-2.6251667454	-1.5119927215	 0.103392
H	-1.6025338448	-2.972603616	-0.0122412089	 0.084519
H	 0.5200307704	-2.9549764029	 1.7348884368	 0.097634
H	 1.5355302133	-0.4706706836	 1.7352866914	 0.09237
H	-2.2935221556	-0.3786493323	 0.389750277	 0.081311
