20
gdb 69473	4.28036	0.8619	0.81111	3.199	83.18	-0.249	0.0257	0.2747	1484.437	0.169941	-403.120798	-403.111684	-403.11074	-403.155861	33.641	
C	 0.015213494	 1.5630078961	 0.0161014066	-0.499736
C	 0.092144511	 0.0646584625	-0.0095214961	 0.370499
C	-0.8280068251	-0.8293942637	 0.7734411668	-0.332593
C	 0.6565052825	-0.9255398672	 1.0185099899	-0.123097
C	 1.2898809124	-1.7579347762	-0.0880266502	 0.144304
C	 0.7207440128	-0.7610921976	-1.1475631778	-0.323281
O	 2.7103433322	-1.7135433708	 0.005521146	-0.196592
C	 3.400411754	-2.6714601751	-0.6404667376	 0.121617
N	 4.6596118997	-2.6096011857	-0.7093186472	-0.443586
H	 0.9847249608	 2.0158666599	-0.2191795618	 0.124955
H	-0.7127897397	 1.934726717	-0.715408106	 0.120555
H	-0.2947352089	 1.9257340116	 1.0017459753	 0.119326
H	-1.3882346981	-0.3424153219	 1.5657336025	 0.114317
H	-1.36362828	-1.6458451797	 0.2918108942	 0.102322
H	 1.1079353481	-0.751352917	 1.9875195596	 0.099009
H	 0.9592218789	-2.8028432854	-0.160376287	 0.076946
H	 0.0378095437	-1.1599913776	-1.9056501073	 0.091747
H	 1.546653773	-0.2416557762	-1.6388328475	 0.123349
H	 2.7631566413	-3.4657014645	-1.0552360359	 0.082756
H	 5.0180767971	-3.4244320883	-1.2029430462	 0.227184
