19
gdb 84573	2.62516	1.89785	1.45479	1.185	78.84	-0.2403	0.0159	0.2562	956.3961	0.161282	-385.857375	-385.85008	-385.849136	-385.888749	29.945	
O	 0.0929030827	 1.4673704449	-0.1104805856	-0.426006
C	 0.0637126419	 0.0431361827	-0.0174782982	 0.061457
C	 0.6846351331	-0.4945339092	 1.2635573516	-0.10973
C	-0.1546674254	-1.2284056295	 1.9967394088	-0.079281
C	-1.5101180897	-1.3343865173	 1.3571088624	-0.067233
C	-2.6623170054	-0.4247260406	 1.8610101757	-0.070504
C	-2.2211205478	 1.0054406203	 1.9661050181	-0.275065
C	-2.517056292	 0.4488003801	 0.6054739689	-0.032444
C	-1.3960184305	-0.462103972	 0.0676706439	-0.049043
H	 1.013744858	 1.7388583374	-0.1776768032	 0.279391
H	 0.5698115202	-0.3836057332	-0.8986938849	 0.063917
H	 1.7158805966	-0.2745694728	 1.5270730876	 0.08509
H	 0.0899132076	-1.6823037758	 2.952067442	 0.093152
H	-1.8362394653	-2.3641701085	 1.1884251232	 0.073405
H	-3.5649993081	-0.7872345527	 2.3376798367	 0.078964
H	-2.9804776505	 1.6832316653	 2.3441426577	 0.104433
H	-1.2085246005	 1.2686590031	 2.2506821765	 0.11798
H	-3.2969974743	 0.8703226502	-0.0164426863	 0.081113
H	-1.7040587605	-0.9811657322	-0.8405660049	 0.070403
