17
gdb 47017	3.62438	1.31979	1.01491	2.1402	76.48	-0.2423	-0.0546	0.1876	1127.7829	0.137361	-421.834263	-421.826981	-421.826037	-421.866098	28.346	
O	 0.0078911354	-0.062602674	 0.0787681842	-0.328801
C	-0.0033601692	 1.1506775099	 0.0654625271	 0.40257
C	-1.3301558693	 1.9320887111	 0.1330707959	-0.324345
C	-1.2221209417	 3.3423982132	 0.7571268398	-0.263492
C	-0.1477671889	 4.0593818186	-0.0418881315	 0.100009
O	 0.5744433623	 5.1846584817	 0.5377953286	-0.306083
C	 1.8538637381	 4.5561749816	 0.2414221207	-0.166937
C	 1.1270805781	 3.2732413058	-0.0620268416	 0.283428
C	 1.2461387701	 1.9511429237	 0.0276919721	-0.347294
H	-1.7047934412	 2.0167186495	-0.8973206463	 0.128993
H	-2.0432596854	 1.3018146334	 0.6691824722	 0.132571
H	-2.1867509577	 3.8581721822	 0.729192161	 0.110658
H	-0.9035282588	 3.2747969914	 1.8027770701	 0.117631
H	-0.5257771139	 4.3334073473	-1.0392008598	 0.093795
H	 2.3531112761	 5.0349895764	-0.6120877815	 0.121813
H	 2.5329447079	 4.548158591	 1.1011267669	 0.133147
H	 2.185180348	 1.4216328871	 0.151311922	 0.112337
