16
gdb 29928	2.07414	1.8946	1.00255	3.5282	79.76	-0.2396	-0.0278	0.2118	1139.9659	0.125275	-396.996369	-396.98754	-396.986596	-397.030496	30.674	
C	-0.0871896323	 1.447767979	 0.0490822519	-0.345611
N	-0.0119245901	-0.0016414693	 0.0347510662	-0.070953
C	 0.0644597418	-0.814012557	-1.0452527614	 0.004933
N	 0.1201050491	-2.0914903217	-0.7229232763	-0.314518
C	 0.0786297828	-2.1333135744	 0.6422964446	 0.206042
C	 0.1201649289	-3.4126690502	 1.40710125	-0.497462
C	-0.0039438947	-0.8416331102	 1.1421623483	 0.118422
C	-0.0711762643	-0.3578964597	 2.4627611366	 0.210938
N	-0.1267681758	 0.0464195698	 3.5488631318	-0.362228
H	 0.763860841	 1.8728251043	 0.5878917668	 0.163251
H	-0.0727545052	 1.8077969818	-0.9806965326	 0.150573
H	-1.0101018565	 1.7812892845	 0.5310270508	 0.163248
H	 0.0761007146	-0.4172733978	-2.050343794	 0.140966
H	 1.0383752613	-3.9654436687	 1.1836295888	 0.145747
H	 0.0764080543	-3.2307593695	 2.4833421105	 0.140905
H	-0.720236925	-4.0561782408	 1.1274252279	 0.145747
