20
gdb 115158	3.16407	1.11216	0.9096	3.5067	74.74	-0.2404	0.0072	0.2476	1320.3591	0.171987	-440.327255	-440.317958	-440.317014	-440.361661	34.081	
C	-0.1296986646	 1.6970974869	 0.1266325382	-0.39254
C	 0.0014085178	 0.1747909831	 0.2513672199	-0.187796
C	-1.2998739792	-0.5674780841	-0.057753221	-0.002499
C	-1.8106881322	-0.4159841099	-1.5040349014	-0.095619
O	-2.6359910904	-1.5655971779	-1.7590125729	-0.2221
C	-2.38499492	-2.5533589843	-0.8551082374	 0.418291
O	-2.9303848539	-3.6189182502	-0.9002002199	-0.348686
C	-1.2796109194	-2.0965308743	 0.1098390992	-0.143546
N	 0.011650068	-2.7134980611	-0.2241652334	-0.514123
H	 0.8104458792	 2.1924645728	 0.386056251	 0.120761
H	-0.3891506699	 2.0016505722	-0.8932767864	 0.118288
H	-0.9061300535	 2.0858879364	 0.7950642063	 0.11811
H	 0.7966661706	-0.1862528697	-0.409621235	 0.104373
H	 0.3197717483	-0.0870079499	 1.2664703386	 0.110761
H	-2.0880251573	-0.1874919987	 0.6051477494	 0.09083
H	-2.4227989297	 0.4735600904	-1.6642614625	 0.127354
H	-0.988439818	-0.4048804622	-2.2322392699	 0.109453
H	-1.5365078152	-2.405018309	 1.1254152058	 0.108365
H	-0.0849944302	-3.7229918768	-0.148016301	 0.247816
H	 0.2510709996	-2.5324985039	-1.1963873175	 0.232507
