14
gdb 127176	4.46104	1.09449	0.88376	1.4345	68.47	-0.2522	-0.0481	0.2041	1204.3785	0.099882	-470.001165	-469.992899	-469.991955	-470.035252	28.593	
C	-0.0134507335	 1.451981865	-0.0662500025	-0.360929
N	-0.0065533281	-0.0126290477	 0.0076766331	-0.205686
C	-0.0121199604	-0.6379354678	 1.2471474661	 0.17079
O	-0.0226805984	-0.0515724568	 2.2994515118	-0.301598
C	 0.0053465429	-0.749525733	-1.1539619178	 0.524826
C	 0.0138487006	-2.101355046	-1.4203237191	-0.224111
N	 0.0240452929	-2.2186977798	-2.7800887556	-0.083167
N	 0.0231266734	-1.1177982901	-3.3629979405	-0.025388
O	 0.0101824957	-0.0788163579	-2.2902866211	-0.241484
H	 0.8772206381	 1.8084685203	-0.5883255815	 0.157137
H	-0.9003554409	 1.7994837931	-0.6006550034	 0.15713
H	-0.0224230736	 1.8201933666	 0.9577555756	 0.177816
H	-0.0060342742	-1.7365726134	 1.1645426906	 0.111279
H	 0.0133564555	-2.9586437526	-0.7727741458	 0.143384
