18
gdb 47770	2.01471	1.65446	1.22917	2.3149	77.6	-0.2168	-0.0254	0.1914	1092.1305	0.148367	-401.931184	-401.922712	-401.921768	-401.964383	32.23	
O	 0.030440181	-0.0346438999	-0.099782189	-0.307196
C	-0.0079832198	 1.1669219165	-0.0095806281	 0.387664
C	-1.2996775345	 1.9788504399	 0.0298274956	-0.263344
N	-1.3374438484	 3.0097090741	-1.0173469662	-0.284237
C	-0.1601446994	 3.8807849838	-0.9915441152	-0.163716
C	 1.1690262421	 3.1202487678	-1.1050552259	-0.227602
C	 1.279803515	 2.0276504339	-0.0039822324	-0.239245
C	 1.4719139662	 2.6077550003	 1.321644881	 0.326228
C	 1.6129485349	 3.0858048366	 2.4162573622	-0.485391
H	-2.1485259988	 1.3002405112	-0.0805028197	 0.125075
H	-1.3777438435	 2.4756076605	 1.00542503	 0.135858
H	-1.4026051318	 2.5562849679	-1.9246161764	 0.221763
H	-0.2501605637	 4.6073885155	-1.8053753585	 0.10809
H	-0.1797810304	 4.4457095392	-0.0513929904	 0.123588
H	 1.2238926642	 2.6257900049	-2.0830535736	 0.103729
H	 2.023666747	 3.8019368563	-1.0342710219	 0.113085
H	 2.1096710914	 1.3484746092	-0.2257260117	 0.121441
H	 1.7506045584	 3.4999028822	 3.3844980902	 0.204209
