18
gdb 51163	3.92015	1.06637	0.94243	2.5768	77.71	-0.2298	-0.0264	0.2034	1253.4137	0.147202	-401.934939	-401.926802	-401.925858	-401.96864	30.473	
O	-0.6329129359	 0.5591631821	 0.5078126613	-0.238202
C	 0.2661133553	 0.8497244424	-0.2382322204	 0.159288
C	 1.2199556509	 2.0092606706	-0.0365401853	-0.363317
C	 1.1846072661	 2.9662205932	-1.2136531879	 0.283119
C	 1.9557221701	 2.7123724126	-2.47020252	-0.277813
N	 2.399829821	 3.7550350341	-1.5390213833	-0.146212
C	 1.9426881856	 5.1209281693	-1.883969066	-0.213922
C	 0.4332694565	 5.0891894919	-1.784001638	-0.092205
C	 0.0179801539	 3.8870976958	-1.3883736432	-0.129092
H	 0.4525203672	 0.2620679641	-1.1670767277	 0.076833
H	 0.9691659031	 2.5158038099	 0.8998667695	 0.123146
H	 2.2368943162	 1.6051236782	 0.0450054352	 0.131253
H	 2.6317434326	 1.8631449375	-2.541496489	 0.11374
H	 1.489580321	 3.0089827577	-3.4073597159	 0.114808
H	 2.3844074917	 5.8376452796	-1.1790358744	 0.119077
H	 2.3003675191	 5.3991953963	-2.883493573	 0.117629
H	-0.1969915731	 5.9380232312	-2.0216715537	 0.106359
H	-1.0056244816	 3.5824639233	-1.2075846479	 0.115512
