16
gdb 11884	4.4304	1.66232	1.38164	4.1862	65.05	-0.2617	0.0145	0.2762	904.4651	0.131254	-383.777504	-383.770622	-383.769678	-383.8087	26.497	
O	 0.0026131053	 0.060367359	-0.2760913239	-0.332965
C	-0.0677876877	 1.2451379851	-0.1340566402	 0.417241
C	-1.1996817137	 2.0684931868	 0.4754238078	-0.35706
C	-0.8916621983	 3.4996481616	 0.0195340593	-0.304093
C	 0.6120246948	 3.437639768	-0.2011402379	 0.450728
C	 1.4342452158	 4.4875678396	-0.8636273851	-0.33101
C	 1.6215529778	 4.1886237663	 0.6166655627	-0.323891
O	 0.9341039645	 2.0864481862	-0.521132383	-0.249141
H	-2.1664890838	 1.6776441993	 0.1570461502	 0.140355
H	-1.1402467382	 1.9598864038	 1.5642481184	 0.14308
H	-1.4037332934	 3.7197091722	-0.923436328	 0.121214
H	-1.173177714	 4.2657182243	 0.7443779902	 0.116859
H	 2.2112672863	 4.1527744101	-1.5411089169	 0.136271
H	 0.9444823106	 5.41205472	-1.1513923512	 0.120848
H	 1.2631858737	 4.9106203299	 1.3428992277	 0.118112
H	 2.5203143102	 3.6548791779	 0.9034258399	 0.133453
