17
gdb 30124	3.86265	1.20505	1.02653	2.8699	75.57	-0.2055	0.0342	0.2397	1159.4048	0.138337	-418.029311	-418.021684	-418.02074	-418.061616	29.7	
O	 0.0373316467	 1.3392223516	 0.8385698918	-0.421913
C	 0.0373684661	 0.0705804403	 0.2365028123	 0.087158
C	-0.5479945377	-1.0358742121	 1.0438964228	-0.31572
C	-1.2789601333	-0.5511703275	-0.2052958799	-0.146997
C	-2.5545613727	 0.1794953407	-0.1163495393	 0.36059
N	-3.6038797191	-0.0423502705	-0.8840833736	-0.319457
C	-4.5660398225	 0.8454656897	-0.4593870996	-0.093462
C	-4.0959760952	 1.6121541559	 0.5723243156	-0.115781
N	-2.8074040239	 1.1737821405	 0.7882421948	-0.28947
H	-0.0020788662	 1.9971485899	 0.1349058261	 0.296036
H	 0.9182528911	-0.1396649781	-0.3675754833	 0.102479
H	-0.0747670145	-2.010665387	 1.0217596537	 0.125613
H	-0.9834755804	-0.7614188784	 1.9987517686	 0.126695
H	-1.2459230502	-1.1991309844	-1.0732330831	 0.114895
H	-5.5418582537	 0.8776355445	-0.9198209669	 0.101827
H	-4.5362036471	 2.4009742194	 1.1591391567	 0.12164
H	-2.1167901475	 1.5576314755	 1.4136648634	 0.265867
