17
gdb 18865	3.70418	2.33903	1.93383	0.7592	74.47	-0.2073	-0.0327	0.1746	762.6377	0.142723	-326.607339	-326.600808	-326.599864	-326.637523	26.469	
C	 0.1839172382	 1.4934397155	 0.2563282362	-0.409718
C	 0.0150154901	-0.0003469189	 0.0946773718	 0.069233
N	 0.6413681554	-0.67527327	-1.1497316475	-0.170296
C	 2.0685619668	-1.289719059	-0.9800569503	-0.016893
C	 3.0719818131	-0.9630301045	 0.1430717439	-0.265108
C	 2.0923712113	-0.6082944849	 1.2542294622	-0.117926
C	 0.8543387962	-1.0123945611	 0.8913587263	-0.006264
C	 0.8954708604	-1.9015424511	-0.3536640177	-0.069162
H	 1.2366199974	 1.7872538583	 0.2557152607	 0.119742
H	-0.3214801001	 2.0105738521	-0.5655765972	 0.128816
H	-0.2677135901	 1.8317571507	 1.1949111085	 0.125789
H	-1.0469371046	-0.2577691629	 0.0115385657	 0.092938
H	 2.4181017013	-1.5868620279	-1.9649013772	 0.099555
H	 3.7385825124	-1.8272574307	 0.2800165192	 0.116105
H	 3.7140560109	-0.0951906114	-0.0474890613	 0.115208
H	 2.247627436	 0.3040902194	 1.8225456689	 0.095312
H	 0.4053307154	-2.8501911137	-0.5424881423	 0.092669
