18
gdb 54407	3.34264	1.32398	1.18904	3.8684	71.42	-0.2439	0.0224	0.2663	1075.4988	0.148969	-439.094603	-439.086525	-439.085581	-439.128019	30.945	
N	 0.2282423128	 0.9707549759	-0.7701513337	-0.533594
C	-0.0288922586	 0.0556967271	 0.2083856358	 0.270022
O	 0.7206094386	-0.1323423472	 1.1491704109	-0.369696
C	-1.3022507351	-0.7357083055	 0.0464141842	 0.211141
C	-2.3519369198	-0.62492644	-1.1101060489	-0.311694
C	-2.7740739363	-1.9940702917	-0.5167921377	 0.094763
C	-1.2724598886	-2.2725548605	-0.2711905414	-0.251779
O	-3.2700626632	-1.656506707	 0.7852417714	-0.278533
C	-2.2462727586	-0.7560367295	 1.2636284834	-0.100853
H	 1.0434487787	 1.5541052424	-0.6720781408	 0.261835
H	-0.4360831686	 1.1799799065	-1.4936429754	 0.262828
H	-3.0880659521	 0.1820907293	-1.0709904296	 0.104786
H	-1.9054618501	-0.7098419911	-2.1033689328	 0.102402
H	-3.4545562718	-2.6872112855	-1.0077048221	 0.085308
H	-0.7109754492	-2.4997668441	-1.1787943496	 0.106722
H	-1.0099201727	-2.9531876726	 0.5400940894	 0.117865
H	-1.7609804256	-1.152016763	 2.1599592668	 0.125822
H	-2.6826626898	 0.2239581366	 1.4882767501	 0.102654
