12
gdb 130659	3.35504	1.85711	1.20457	2.2779	61.13	-0.2717	-0.0579	0.2138	910.3552	0.080779	-468.843617	-468.83751	-468.836566	-468.874399	22.72	
O	-0.0144934371	-0.0424283241	 0.0025855306	-0.305636
C	 0.0069217088	 1.1521333877	 0.0088865277	 0.411172
C	-1.1891858908	 2.1317137248	 0.0316684708	-0.232278
O	-0.6473246892	 3.4765156346	 0.0311675969	-0.259004
C	 0.677568773	 3.3347049816	 0.0111047615	 0.537442
N	 1.6734395414	 4.1669700522	 0.001168532	-0.379564
C	 2.7402776181	 3.2797031819	-0.019215543	 0.057072
N	 2.4602129555	 1.9909661716	-0.0222884996	-0.245139
N	 1.087537405	 2.0337151054	-0.0019755486	-0.087308
H	-1.8167367096	 1.9993838797	-0.8528399792	 0.176722
H	-1.7907602359	 1.9895772915	 0.9325525283	 0.17672
H	 3.7632558708	 3.6266401129	-0.0322061875	 0.149801
