19
gdb 65109	3.21192	1.34285	1.16348	1.8807	75.54	-0.2424	0.0737	0.3161	1119.3778	0.158018	-422.971004	-422.962659	-422.961715	-423.003909	32.741	
O	 0.413893141	 0.6213380904	-1.3997966154	-0.455037
C	 0.1793110237	-0.2185089668	-0.2977157142	 0.259257
C	 1.38981854	-0.9506160887	 0.202162906	-0.2967
C	 0.774545765	 0.1557282951	 1.0353486373	-0.32919
C	-1.1319904349	-0.915374403	-0.3568668572	 0.390254
C	-1.7695125887	-1.6277544452	-1.5646059759	-0.292551
C	-3.1795332818	-1.2890986218	-0.9639354174	-0.23921
C	-2.4649678206	-0.5970294869	 0.2036793466	-0.062436
O	-1.6129998562	-1.5786913466	 0.8166149478	-0.290048
H	-0.1680657719	 1.3851940832	-1.3130761603	 0.281097
H	 1.2636105848	-1.9731267536	 0.5388128704	 0.127508
H	 2.3214790985	-0.737540865	-0.3086170283	 0.124056
H	 1.3050400066	 1.1004030212	 1.0751088774	 0.111564
H	 0.2306513429	-0.1225644005	 1.9297363322	 0.130237
H	-1.5748068973	-1.110546951	-2.5055505974	 0.11676
H	-1.5134324365	-2.6849538566	-1.6633587419	 0.107313
H	-3.7505267599	-0.5996503432	-1.5903513143	 0.104665
H	-3.8117291433	-2.1337425443	-0.6807440176	 0.112629
H	-2.7975878614	 0.2192602434	 0.8355490121	 0.099832
