21
gdb 63103	2.1688	1.63896	1.16975	0.8255	91.	-0.2253	0.0398	0.2651	1158.8861	0.180752	-349.904484	-349.89513	-349.894186	-349.937698	36.76	
C	-0.0222294787	 1.5336059975	 0.0534608571	-0.463228
C	 0.057125463	 0.0174779565	 0.0328908782	 0.280602
C	-1.1869020491	-0.6258384556	-0.5595829116	-0.46055
C	 1.3295533482	-0.7347229946	-0.2454888762	-0.141516
C	 2.5717550948	-0.0350768751	 0.3122035636	-0.245704
C	 1.9388441575	-0.0523285246	 1.7377228893	-0.300344
C	 0.6934871111	-0.7721247887	 1.1767989397	 0.156884
C	 0.0241843248	-1.8226130021	 1.8641632779	 0.191661
C	-0.5276628675	-2.6980628184	 2.4813841454	-0.429609
H	 0.866729925	 2.0091497853	 0.471395336	 0.119374
H	-0.1546348483	 1.9189599486	-0.9643298057	 0.11625
H	-0.8840461816	 1.8629723278	 0.6445775504	 0.119739
H	-1.3423088493	-0.275728521	-1.5861978562	 0.111821
H	-1.1131724025	-1.7157943616	-0.5764685958	 0.127814
H	-2.0768753718	-0.3648059885	 0.023285774	 0.120993
H	 1.3466278747	-1.5385638156	-0.9730744897	 0.091058
H	 3.4645713227	-0.6607518922	 0.2549696354	 0.107185
H	 2.8091297548	 0.9427684506	-0.1178584643	 0.100379
H	 2.4923910102	-0.6921468187	 2.4266255734	 0.116195
H	 1.7600297515	 0.90998462	 2.2258273223	 0.100074
H	-1.0164578296	-3.4713920795	 3.0196001467	 0.180924
