20
gdb 116402	2.77663	1.33134	0.95475	4.6688	76.07	-0.2232	0.0097	0.2329	1256.8962	0.172286	-440.314186	-440.30532	-440.304376	-440.348143	32.958	
C	-0.1780384187	 1.390237365	 0.1135445026	-0.326943
N	 0.010334974	-0.0581863203	 0.0480227509	-0.285727
C	 0.6239211985	-0.5546575876	-1.174261576	-0.090308
C	 1.2928323829	-1.9114683792	-0.9255977616	-0.242656
C	 1.7721776233	-2.5068382508	-2.2464445387	-0.230586
C	 0.5813077487	-2.6709295899	-3.1759209427	-0.059635
O	-0.184316149	-1.4665986275	-3.3430660747	-0.231162
C	-0.4004294425	-0.5940600046	-2.3242664865	 0.435993
O	-1.3148031096	 0.1776773252	-2.4172758645	-0.313793
H	 0.7485397043	 1.9634881668	-0.0739262498	 0.085588
H	-0.9215708651	 1.6914163463	-0.6241570115	 0.162764
H	-0.547087769	 1.6544359072	 1.1087129927	 0.112641
H	 0.5899634539	-0.3512150929	 0.8269511877	 0.215494
H	 1.4085196696	 0.1344823329	-1.5545273248	 0.086049
H	 2.1244421427	-1.7817893921	-0.2237087795	 0.101765
H	 0.5689388671	-2.5833159965	-0.4467494939	 0.118329
H	 2.5201745876	-1.8517728255	-2.7090840469	 0.113357
H	 2.24353505	-3.4838331125	-2.096207066	 0.109953
H	 0.8869038476	-2.9569736511	-4.1853684811	 0.122808
H	-0.0933354563	-3.4491413929	-2.7946152458	 0.11607
