17
gdb 65671	3.77892	1.09564	0.98061	4.1474	69.17	-0.246	-0.0152	0.2308	1202.5894	0.133024	-458.890326	-458.881922	-458.880978	-458.923813	31.447	
O	 0.1935487671	 1.3834108681	-0.2375294805	-0.475879
C	 0.0579273318	 0.0088245671	-0.0139248543	 0.407288
C	 1.0960380296	-0.6719247879	-0.891242025	-0.325875
C	 2.5035555775	-0.2164904468	-0.5651376197	 0.174118
O	 3.3631895995	-0.0158978232	-1.3816926693	-0.243981
C	-0.1670552835	-0.5546105396	 1.4419705088	-0.016052
C	-1.5994152342	 0.0341924909	 1.4496280278	-0.261281
C	-1.3589914643	-0.6606306669	 0.0869105597	-0.012235
O	-0.7238815692	-1.7748274811	 0.8229267291	-0.29854
H	-0.4211972808	 1.8747313601	 0.3155722709	 0.288606
H	 1.0369763016	-1.7527025827	-0.7259770812	 0.150768
H	 0.9032899745	-0.4664853668	-1.947925831	 0.127594
H	 2.7116779158	-0.1025005936	 0.5245981644	 0.066963
H	 0.5302498623	-0.6843167742	 2.2703985373	 0.103025
H	-2.2944648636	-0.4922778198	 2.103467908	 0.124547
H	-1.7509599954	 1.1170255103	 1.4952921593	 0.088515
H	-2.0711907887	-0.9168167842	-0.6981685044	 0.102419
