23
gdb 119005	2.95734	0.99058	0.94789	1.1187	81.84	-0.2415	0.0861	0.3276	1416.2731	0.204963	-425.428719	-425.418774	-425.41783	-425.464927	36.697	
C	-0.136117917	 1.5607558331	-0.0480308461	-0.380569
C	 0.0138275771	 0.054692139	 0.0997155639	-0.055168
O	-1.284457867	-0.5130816701	 0.0739778343	-0.297862
C	-1.3712677509	-1.9350301029	 0.0069251159	 0.406903
C	-0.7108686987	-2.6182790919	 1.2087814361	-0.451264
C	-2.8832068018	-2.2851836927	-0.0858483506	-0.283389
C	-3.026860253	-2.9898255705	-1.4454158444	-0.079394
O	-1.7340000073	-3.5058064702	-1.7389151725	-0.246414
C	-0.8274009587	-2.494533401	-1.3416473108	-0.127641
H	 0.842946328	 2.0480927995	-0.0129019775	 0.112849
H	-0.6160293884	 1.8082248284	-0.9991064349	 0.124023
H	-0.7536669277	 1.9627679484	 0.7602884564	 0.126475
H	 0.6351856602	-0.3454113139	-0.716811441	 0.089531
H	 0.5280074362	-0.1810096867	 1.0434225413	 0.091647
H	-1.1670453436	-2.2792424843	 2.1441652079	 0.119664
H	-0.8461927296	-3.7012093793	 1.1293450922	 0.127084
H	 0.3642354267	-2.4211631986	 1.2559810046	 0.114365
H	-3.1766214061	-2.9474334664	 0.7322301158	 0.10301
H	-3.4741735207	-1.3706242524	-0.01608079	 0.117303
H	-3.73000895	-3.8260757363	-1.4432278073	 0.10672
H	-3.3384005624	-2.2763424012	-2.2253162666	 0.091689
H	-0.8027764947	-1.6739376035	-2.0780333847	 0.088045
H	 0.1660587695	-2.9453099567	-1.2748104522	 0.102394
