17
gdb 79417	3.12045	1.53677	1.2417	3.92	76.72	-0.2387	0.	0.2387	1032.1569	0.134612	-417.836895	-417.829049	-417.828105	-417.869252	30.071	
C	 0.1020456756	 1.4989616845	 0.4176154472	-0.33953
N	-0.0078638942	 0.242215147	-0.2878406794	-0.121963
C	-1.1772124828	-0.6632256017	-0.3029588799	-0.008145
C	-1.8603369783	-1.5004193091	-1.4624688395	-0.00897
C	-0.5904360481	-1.4355690249	-2.2930461378	-0.230514
C	-0.2165167217	-1.7131093915	-0.8053015055	 0.277395
O	-1.3014627781	-2.7419628358	-0.7648845373	-0.366843
C	 0.9022083875	-0.8701331398	-0.1658261886	 0.301969
N	 2.0749692169	-1.0480986114	 0.2426427048	-0.557347
H	 1.136718664	 1.8525831122	 0.3651562823	 0.133789
H	-0.5328685804	 2.2502593497	-0.0597324945	 0.13917
H	-0.1828472964	 1.4171862517	 1.4775877337	 0.122931
H	-1.6073935533	-0.8495821407	 0.6842285366	 0.101626
H	-2.9097883244	-1.5871382422	-1.7524622275	 0.100013
H	-0.4384062802	-2.2797037447	-2.9637901202	 0.11819
H	-0.2858898946	-0.4747351882	-2.7069227859	 0.113684
H	 2.5003409885	-0.1878251052	 0.5935937115	 0.224546
