21
gdb 120936	3.15543	0.99118	0.87758	2.4655	80.05	-0.2432	0.0815	0.3247	1439.4083	0.17987	-424.188401	-424.178711	-424.177767	-424.223484	35.383	
C	-0.0624857364	 1.4913131441	-0.0615978769	-0.38462
C	-0.0969822699	 0.0099166589	 0.2728350807	-0.034718
O	-1.2642042481	-0.5521093383	-0.2995874748	-0.255293
C	-1.3976267722	-1.9229751438	-0.0790861816	 0.095898
C	-1.8631681522	-2.4575735094	 1.3324497815	-0.293076
C	-3.0441523444	-3.1105359014	 0.6073097133	-0.044377
O	-3.7848823504	-2.04137638	 0.0098544926	-0.281153
C	-2.6510056139	-2.5536375931	-0.7045752477	 0.387881
C	-2.8468918744	-3.0012698622	-2.1159586262	-0.510274
H	 0.8289134463	 1.958838343	 0.3673580711	 0.113093
H	-0.0466450145	 1.6395433814	-1.1450750589	 0.125991
H	-0.9470116567	 1.9940431329	 0.3392268987	 0.130867
H	 0.799320027	-0.4988660875	-0.1217960583	 0.083497
H	-0.0970426472	-0.1390564743	 1.3646603927	 0.091088
H	-0.4928488965	-2.4634427785	-0.4029850612	 0.064685
H	-1.1547428923	-3.153563023	 1.7871710604	 0.100802
H	-2.1579610285	-1.6904039051	 2.051790725	 0.114431
H	-3.5818472168	-4.0213278324	 0.8453867983	 0.101378
H	-2.9177252155	-2.1370663833	-2.7853715779	 0.139914
H	-2.0066049836	-3.6186277906	-2.4497794447	 0.121055
H	-3.7689818895	-3.5810884775	-2.2081017963	 0.132933
