19
gdb 35316	4.34842	1.00597	0.91065	0.8705	89.13	-0.228	0.0175	0.2455	1318.6647	0.159046	-348.718716	-348.710363	-348.709419	-348.751812	32.865	
C	-0.039840132	-1.2477948691	-0.0391458082	-0.47158
C	-0.0167585601	-0.0457013947	-0.0241090495	 0.319732
C	 0.0162652094	 1.4125180138	-0.0003327148	-0.207123
C	-0.6444164258	 2.0388308984	 1.2713241957	-0.31315
C	 0.2291411484	 3.2525792991	 1.6106484423	 0.347443
C	-0.3395171735	 4.654907128	 1.7337998698	-0.310838
C	 0.1652877777	 3.9332216324	 2.9557149249	-0.319061
C	 1.5089321664	 3.0155416139	 0.8929131201	-0.137393
C	 1.4191082207	 2.0096019483	 0.0257574508	-0.090485
H	-0.0599780258	-2.3091541345	-0.0537037673	 0.192733
H	-0.5014990801	 1.7735288053	-0.9023165118	 0.110429
H	-1.6946252753	 2.2919179751	 1.1068174744	 0.105197
H	-0.6006783753	 1.3082578631	 2.0846569896	 0.119021
H	 0.246860305	 5.4804466404	 1.3440308899	 0.112757
H	-1.4117045495	 4.7742074053	 1.6152125713	 0.11386
H	-0.5648219328	 3.5640846127	 3.6691758828	 0.11345
H	 1.0946149409	 4.2681052948	 3.40526331	 0.112427
H	 2.3890458168	 3.6284696868	 1.0568586218	 0.097595
H	 2.203112055	 1.6529723107	-0.6304120719	 0.104984
