19
gdb 83654	2.36114	1.72194	1.26542	2.7096	74.19	-0.2475	0.0516	0.299	1047.9232	0.159164	-422.970339	-422.962287	-422.961343	-423.002972	31.442	
O	 0.7030777655	 0.7918295338	-0.7132920678	-0.423899
C	 0.1728941614	-0.324010245	-0.0489773518	 0.046526
C	 0.2755449258	-0.4747719407	 1.4970947361	-0.061186
C	-0.09239338	 0.7835719411	 2.3341204009	-0.242055
C	-1.5362787165	 0.2363775893	 2.5456320385	-0.21947
C	-1.2407196713	-0.9123773091	 1.5507240244	-0.134602
C	-1.3472423822	-0.51024833	 0.071842678	 0.409009
C	-2.4122155761	 0.2068117936	-0.6364925072	-0.275387
O	-2.132224569	-1.1742157579	-0.899981447	-0.27608
H	 0.3240949726	 1.5850715126	-0.3198950281	 0.281389
H	 0.6098819425	-1.2001845519	-0.539827818	 0.106694
H	 1.0922436299	-1.0872692092	 1.8773117383	 0.072452
H	 0.4896724975	 0.9019886519	 3.2498527254	 0.111665
H	-0.0301293219	 1.7321090513	 1.7890703402	 0.083092
H	-1.6913292897	-0.1283006255	 3.5640959574	 0.106877
H	-2.3664667605	 0.9011249786	 2.2902676953	 0.097401
H	-1.5760602619	-1.9226183093	 1.7853915962	 0.082617
H	-3.3605221731	 0.404784917	-0.1381208199	 0.115657
H	-2.150123043	 0.8937631596	-1.440488611	 0.119302
