18
gdb 37685	3.22357	2.42495	1.98342	1.7127	77.86	-0.2177	0.0653	0.283	776.2667	0.151299	-364.678077	-364.672693	-364.671748	-364.707312	24.732	
C	-0.0263785151	 1.5293304628	 0.2178831723	-0.362021
C	 1.5239548438	 1.4362948069	-0.1020421745	-0.096094
C	 2.1929308573	 0.25593167	 0.7209544481	-0.021532
C	 0.9746275525	-0.5105991033	 1.1738611552	-0.025388
C	 1.197239598	-1.6907420853	 0.224193121	-0.020266
C	-0.2848893133	-1.5001997278	-0.2945559912	-0.356749
C	 0.0503912673	-0.0123581278	 0.0080440884	 0.244456
C	 1.2046647134	 0.2427923491	-1.0070641081	 0.041563
N	 2.2035019836	-0.7253576073	-0.5011353431	-0.188494
H	-0.3703710924	 1.8914980384	 1.1907498768	 0.101961
H	-0.5244080289	 2.08429716	-0.5827077263	 0.110203
H	 2.1135452913	 2.3049391898	-0.3898577345	 0.0754
H	 3.1112660026	 0.3673719352	 1.2944807509	 0.073619
H	 0.5369144821	-0.5571620478	 2.1707574924	 0.067071
H	 1.6078356737	-2.6671878996	 0.475200906	 0.077571
H	-0.5575253784	-1.7643033381	-1.3202449513	 0.104564
H	-0.9612895984	-1.9882332131	 0.4141024172	 0.108407
H	 0.9512123607	 0.2897348578	-2.0675955492	 0.065728
