18
gdb 37416	3.66944	1.82238	1.68373	1.0725	73.21	-0.2343	0.0804	0.3146	858.8517	0.152291	-401.899999	-401.894276	-401.893332	-401.929689	25.549	
C	-0.0454396634	 1.5640028898	 0.0609615496	-0.250065
C	 1.4836101568	 1.3674821555	-0.0042445567	 0.080057
O	 1.7560313558	 0.7621564644	 1.2692485128	-0.288451
C	 0.8765451476	-0.39915254	 1.1951115655	 0.083087
C	 1.7894416061	-1.4952722362	 0.6626653816	-0.039301
N	 1.2392824849	-2.2844615863	-0.4596911999	-0.351574
C	 2.0722287058	-1.0808911632	-0.7332275114	-0.061934
C	 1.2168071615	 0.139832215	-0.9659474641	-0.028318
C	-0.0159156391	 0.0171656883	-0.0057401808	-0.066638
H	-0.4358655505	 2.0544031778	 0.9550979769	 0.09904
H	-0.4733831981	 1.9985457732	-0.8453604915	 0.098863
H	 2.2050085374	 2.158270048	-0.2051619562	 0.076861
H	 0.3936247375	-0.5612274833	 2.1594216063	 0.072017
H	 2.5509791966	-1.9177574464	 1.3081319397	 0.092799
H	 1.8191499515	-3.1119624398	-0.5776414849	 0.23127
H	 3.0513375435	-1.1983943117	-1.1838752585	 0.087752
H	 0.9899042828	 0.4221922267	-1.9935929149	 0.075521
H	-0.8785110666	-0.600798872	-0.2346089136	 0.089015
