20
gdb 77981	2.60239	1.53505	1.30681	2.2828	80.48	-0.2185	-0.0001	0.2184	1079.9748	0.169802	-403.12005	-403.110995	-403.110051	-403.153029	34.844	
C	-0.2765140075	 1.4999216674	 0.0631458893	-0.306867
N	 0.0581873563	 0.0831763516	 0.0904436049	-0.125303
C	 1.364201774	-0.4304433704	-0.2932809389	-0.099963
C	 2.6029566746	 0.4702789014	-0.2968932678	 0.065617
O	 2.47290713	 1.506442809	-1.2669629719	-0.429869
C	 2.6913088246	 0.9551143357	 1.142410568	-0.133627
C	 1.7816579974	 0.3643056311	 1.9167135441	-0.130484
C	 0.8845585164	-0.5488469476	 1.1286476978	 0.291507
C	 0.3406332988	-1.8013958461	 1.7685965919	-0.47718
H	 0.5074432971	 2.171655482	 0.4315778275	 0.1104
H	-0.4973308044	 1.7782208362	-0.9706672571	 0.127466
H	-1.1815034975	 1.6495692325	 0.6619418436	 0.108312
H	 1.347926108	-1.2637770612	-0.9905088936	 0.086577
H	 3.480609219	-0.1528093612	-0.538957353	 0.076736
H	 3.276975932	 2.0352889928	-1.2470324112	 0.283818
H	 3.4042938615	 1.7117938749	 1.4551684366	 0.093052
H	 1.6469771566	 0.5351236232	 2.9798635529	 0.097459
H	-0.3011905616	-1.5559866631	 2.6231263165	 0.116711
H	-0.2590781825	-2.3636166965	 1.04922999	 0.129923
H	 1.1510124572	-2.4420247116	 2.1338440305	 0.115715
