11
gdb 131435	7.42484	0.88119	0.79114	1.4184	55.37	-0.2784	-0.0544	0.2241	1288.8145	0.064986	-525.832668	-525.82521	-525.824265	-525.865704	25.65	
O	 0.1735024698	 1.281105149	-0.0418557567	-0.391352
C	 0.0527504947	-0.0400055581	-0.0649425022	 0.469396
N	-0.1604330074	-0.6837790437	-1.1864235758	-0.201851
O	-0.2258112417	-2.0354039219	-0.7292931874	-0.21976
C	-0.0299815626	-1.9857054699	 0.5845594977	 0.560815
O	-0.0576991134	-3.1122965036	 1.2965481098	-0.224785
C	 0.1372559071	-4.3397826714	 0.6611925955	 0.169371
O	 0.0219246901	-5.344577889	 1.2740149898	-0.216225
N	 0.147110422	-0.8019484673	 1.0760160864	-0.428918
H	 0.325439243	 1.5435596816	 0.8748281455	 0.326749
H	 0.4041163684	-4.2302806457	-0.3972614727	 0.15656
