14
gdb 2171	3.8518	2.93944	1.77902	2.1857	53.	-0.234	-0.0338	0.2002	682.0474	0.114535	-361.721849	-361.715404	-361.71446	-361.752165	23.983	
O	 0.3230181203	 1.2041650239	 0.5190254324	-0.436978
C	-0.0626072135	-0.0485708001	 0.0345375726	 0.060672
C	-1.5574958635	-0.2395235491	-0.2736393289	-0.211326
N	-1.6109727233	-1.3725760019	-1.2213404185	-0.296566
C	-0.4280589164	-1.2489301636	-2.0865623542	-0.279565
C	 0.5554250038	-0.3549469253	-1.3303450483	 0.357112
O	 1.5827244787	 0.1380251725	-1.723682017	-0.32317
H	 1.1339173785	 1.4361660505	 0.0410412085	 0.292478
H	 0.2520258826	-0.8603701711	 0.7193522602	 0.087024
H	-2.1678037091	-0.4476253095	 0.606339395	 0.118314
H	-1.9461656375	 0.6681541953	-0.7518579572	 0.122815
H	-1.5594464973	-2.2408985061	-0.7005502621	 0.227351
H	 0.0115184912	-2.2176545623	-2.3408519723	 0.137257
H	-0.6793535845	-0.7530277832	-3.0343371202	 0.144583
