18
gdb 77132	2.93753	1.08692	0.92926	4.7684	73.87	-0.24	-0.0144	0.2256	1288.8819	0.1458	-439.13648	-439.126783	-439.125838	-439.172062	34.433	
C	-0.4111953771	 1.2256861108	-0.2606586611	-0.418725
C	 0.1994295849	-0.1200376928	 0.0922288482	-0.080002
C	 1.1430425765	-0.8732839199	-0.9155451235	-0.131298
C	 2.0893908418	-1.2442552494	 0.2708775792	-0.348598
C	 1.3619387337	-0.175016333	 1.0932275152	 0.380045
O	 1.6492579391	 0.4792437695	 2.0533038297	-0.299842
C	 0.5041145841	-2.0552742339	-1.6202456513	 0.413073
N	 0.5412119191	-2.0277815819	-2.9816612854	-0.532678
O	-0.0210234457	-2.9610038613	-0.9974104129	-0.371947
H	 0.3522275365	 1.9285803255	-0.6101121019	 0.119486
H	-1.1703518748	 1.1263269698	-1.0428468817	 0.121906
H	-0.8874764432	 1.6665508544	 0.6199745581	 0.141345
H	-0.5648382162	-0.836994165	 0.4195075377	 0.130551
H	 1.6173562269	-0.1727552722	-1.6084566696	 0.068724
H	 1.8545645248	-2.2495885772	 0.6359854878	 0.156938
H	 3.1677223545	-1.1360111035	 0.1403332066	 0.125855
H	 1.0005070052	-1.2974033733	-3.495483164	 0.261142
H	 0.1353978899	-2.7982509866	-3.487582371	 0.264024
