22
gdb 63399	3.41648	1.08755	1.01782	2.2107	82.04	-0.2384	0.0706	0.309	1300.7834	0.193514	-404.318317	-404.308924	-404.30798	-404.352577	35.71	
C	-0.3240991175	 1.5021438378	-0.0197016425	-0.423382
C	 0.1301002312	 0.0470124173	-0.0063780134	 0.437943
C	-0.9263734119	-0.8759143671	 0.5799570031	-0.439244
C	 0.8241710999	-0.4276311101	-1.3089813468	-0.351839
C	 2.1306912682	-0.3492038413	-0.4886974791	 0.111161
O	 1.3961726768	-0.0737334036	 0.725746647	-0.344003
C	 2.9875924244	-1.5859408499	-0.3805236554	-0.00944
C	 3.6815949432	-1.8987959062	 0.8894736264	-0.241159
N	 2.540979671	-2.7226544069	 0.4348385769	-0.326758
H	 0.4579055712	 2.1519487911	-0.4231201868	 0.11832
H	-1.2226570818	 1.6224057451	-0.634506911	 0.115625
H	-0.5551588987	 1.8378962517	 0.9962154677	 0.123998
H	-1.855786115	-0.8102113978	 0.0039734737	 0.118789
H	-0.5925606315	-1.9173432381	 0.5688005594	 0.122595
H	-1.1465990264	-0.5953547189	 1.6151866519	 0.125063
H	 0.555624074	-1.4418532596	-1.6113877712	 0.115367
H	 0.7472277389	 0.2429427729	-2.1662423268	 0.104798
H	 2.7631043406	 0.5068225867	-0.7659691289	 0.07758
H	 3.4619353779	-1.8685447418	-1.3196816255	 0.089503
H	 4.6468006448	-2.3966678411	 0.8768176281	 0.114341
H	 3.5153739925	-1.2266194391	 1.7263906449	 0.125302
H	 1.7249463083	-2.4158857812	 0.9630220485	 0.235442
