15
gdb 98722	2.97999	1.18744	0.996	4.3662	67.6	-0.2819	-0.0022	0.2797	1197.4736	0.11156	-453.956032	-453.947094	-453.946149	-453.990618	30.496	
C	 0.3791580321	 1.126869803	-0.1184906908	-0.235874
O	 0.0599586691	-0.253441345	 0.1126565482	-0.239122
C	 0.5890286716	-0.7689520847	 1.2353317077	 0.499876
O	 1.2995532361	-0.1877457944	 2.0113664576	-0.378212
N	 0.1216511105	-2.0758358613	 1.4172596072	-0.135782
C	 0.1944177412	-3.123484613	 0.4300615782	-0.23386
C	 0.9978514253	-3.1936048786	 1.7100262597	-0.155315
C	 2.4334710943	-3.049109889	 1.6269101204	 0.307826
N	 3.5847142583	-2.9733540676	 1.5605333228	-0.320924
H	 1.4599550277	 1.2621257487	-0.2012298002	 0.15048
H	-0.1139216585	 1.3881785422	-1.0544493662	 0.138268
H	 0.0050142568	 1.7478203132	 0.6988479225	 0.147659
H	-0.6885895714	-3.7472237209	 0.3283488674	 0.145148
H	 0.744359137	-2.9272473915	-0.4856516978	 0.157548
H	 0.6629289798	-3.8405330312	 2.5157327131	 0.152283
