19
gdb 63151	2.31906	1.6751	1.3486	1.9803	75.25	-0.2404	-0.0268	0.2135	1047.4348	0.157743	-423.0145	-423.00571	-423.004766	-423.047788	32.868	
C	 0.1979524228	 1.536700101	-0.0905458987	-0.44857
C	 0.0534669764	 0.0221940295	-0.0197943348	 0.155318
C	-1.3915567714	-0.41907432	 0.2641023071	-0.436809
C	 0.6783010685	-0.8306155025	-1.1709878246	 0.079989
O	 1.8737451513	-0.2567605102	-1.7358597349	-0.286543
C	 2.7262170339	-1.0758982257	-0.9055148529	-0.090047
C	 1.5126023763	-1.6732891976	-0.1559927996	-0.22681
C	 1.0020761289	-0.732719079	 0.947933088	 0.38077
O	 1.2343335987	-0.6286432285	 2.1176917361	-0.311299
H	 1.1934014934	 1.8149461819	-0.4433395482	 0.135548
H	-0.5391198167	 1.9675757448	-0.7769841142	 0.116161
H	 0.0396085847	 1.9770853055	 0.8988151514	 0.130786
H	-2.0622414297	-0.0336919421	-0.5111142801	 0.123822
H	-1.4919094741	-1.5101508619	 0.2855310427	 0.119301
H	-1.7224835531	-0.0351999126	 1.2333393419	 0.138192
H	 0.0045935105	-1.2368293855	-1.9290104521	 0.079035
H	 3.2743470792	-1.812285469	-1.5049014967	 0.114798
H	 3.4370072678	-0.4885015712	-0.31393297	 0.121784
H	 1.4692992524	-2.7498856069	-0.0007735704	 0.104574
