19
gdb 71635	2.71926	1.6502	1.57925	1.437	74.32	-0.2343	0.0748	0.3091	961.7735	0.16148	-422.985713	-422.978479	-422.977534	-423.01697	29.691	
O	 0.0637139255	 1.3379609766	 0.1027751125	-0.477733
C	 0.0455154404	-0.0423779509	 0.0622913087	 0.377613
C	 0.6283565768	-0.9713570261	 1.1410271624	-0.279482
C	 0.0433950334	-1.9216977144	 0.0573500615	-0.128576
C	-1.2108955985	-0.9854969727	-0.0045599014	-0.054137
C	-2.0109489652	-0.9557960079	-1.3037231722	-0.27433
C	-1.1116388028	-1.4355617079	-2.4448955266	-0.068037
O	 0.2076683361	-0.9161144739	-2.3171692817	-0.285598
C	 0.697498204	-0.974938622	-0.9998297721	 0.077853
H	-0.0247700238	 1.6594397335	-0.8018690761	 0.288891
H	 1.7154615863	-0.9683457851	 1.2605732117	 0.093909
H	 0.1127070452	-0.9763526573	 2.1037724228	 0.099896
H	 0.0579579145	-3.0089964663	 0.0766250149	 0.08205
H	-1.8343091511	-0.9782919233	 0.8943294326	 0.065959
H	-2.8980603732	-1.5960808875	-1.2428893445	 0.101465
H	-2.3685172719	 0.0658508492	-1.4884194665	 0.100119
H	-1.0697393546	-2.535505845	-2.4384538041	 0.095738
H	-1.4758019352	-1.1210877343	-3.4265767586	 0.10573
H	 1.789634094	-0.9680761447	-1.0553975734	 0.078669
