17
gdb 96411	2.14632	1.71066	1.22819	2.9773	67.36	-0.2519	0.0096	0.2615	1046.8225	0.137969	-455.142888	-455.134705	-455.133761	-455.175543	30.781	
N	-0.0785532898	 1.4372947652	-0.1592541346	-0.52271
C	-0.0308770989	-0.0112629135	-0.0417860453	-0.011277
C	 0.7909962997	-0.5683663978	 1.1319109581	-0.117575
O	 0.6934193447	-1.9870072159	 1.1790861678	-0.226288
C	-0.6365243743	-2.3939322925	 1.3136512107	 0.001678
O	-1.4422110993	-1.9874514404	 0.2208114222	-0.238778
C	-1.4677977149	-0.5816359509	 0.0528518098	-0.023204
C	-2.2282397496	 0.0788926138	 1.1413465349	 0.269493
N	-2.7992658485	 0.6000539524	 2.000653602	-0.333215
H	-0.346169354	 1.8642988526	 0.7236292889	 0.245663
H	 0.8335481569	 1.8055801075	-0.4074490135	 0.239817
H	 0.3830811766	-0.4212438479	-0.9687981143	 0.110492
H	 1.8505889844	-0.3250666218	 1.0155947156	 0.115062
H	 0.4363347451	-0.126319269	 2.0786962498	 0.107134
H	-0.649820726	-3.4842811939	 1.308542855	 0.131157
H	-1.0657974658	-2.0042985335	 2.2530987272	 0.105983
H	-1.9959944463	-0.3840527144	-0.8834899344	 0.146567
