19
gdb 70062	3.03381	1.57337	1.26803	1.171	81.33	-0.2147	0.0144	0.2291	1038.1859	0.16027	-385.851841	-385.844396	-385.843452	-385.883204	30.905	
O	 0.0437007521	 1.4526411141	 0.2013228201	-0.47655
C	 0.1039723094	 0.0673571612	 0.0406900659	 0.401037
C	-0.5518660359	-0.7227128418	 1.1248653816	-0.316612
C	 0.9651340033	-0.8273985802	 0.9643685868	-0.149187
C	 1.3932338117	-1.9960824391	 0.1295070447	-0.232237
C	 1.0339236443	-1.7932180262	-1.1406331066	 0.258165
C	 0.397168239	-2.4920143307	-2.323216832	-0.308666
C	-0.7351455961	-1.4077885495	-2.185058425	-0.246476
C	 0.2636935777	-0.5143094556	-1.3526309421	-0.116613
H	 0.8422589287	 1.8303541083	-0.184034143	 0.278088
H	-0.9068453491	-0.1241630094	 1.9569603859	 0.121285
H	-1.160594049	-1.5887130883	 0.8860405063	 0.108478
H	 1.5874090501	-0.4005325032	 1.744030112	 0.086632
H	 1.7595507546	-2.9236162327	 0.5566966637	 0.092446
H	 0.9527340767	-2.3663084568	-3.2586812067	 0.109982
H	 0.1235961826	-3.5431987448	-2.2099980927	 0.110002
H	-1.1190031774	-0.975227524	-3.1113911627	 0.103357
H	-1.5656830594	-1.7680561221	-1.5745022367	 0.114256
H	 0.7547911969	 0.2101720708	-2.0173104492	 0.062615
