18
gdb 68317	3.57366	1.05429	0.94204	4.4384	76.96	-0.2529	0.0367	0.2896	1271.8029	0.146645	-401.905232	-401.896768	-401.895823	-401.9387	31.804	
C	 0.0426224004	 1.4719625856	 0.0961320907	-0.516425
C	-0.0144040803	-0.0151216557	-0.0588174223	 0.389579
C	 0.6443403312	-0.9358903846	-1.1207458505	-0.262334
C	 0.0609773374	-1.8130600702	 0.0055623015	 0.04453
O	 0.6179731415	-0.8622471476	 0.9958955	-0.344868
C	-1.2448318572	-0.9792030983	-0.0363701576	-0.019661
C	-2.130021264	-0.9621344733	 1.2088953195	-0.382361
C	-2.9780191405	-2.1487946399	 1.2977531192	 0.258331
N	-3.6408549656	-3.0942548257	 1.3482182574	-0.310416
H	 1.0820204588	 1.808353939	 0.1512584958	 0.142647
H	-0.4346415327	 1.9597690443	-0.7595146416	 0.132965
H	-0.471386192	 1.7910653661	 1.0081917393	 0.134848
H	 0.1885394953	-0.9901216396	-2.1125761612	 0.100542
H	 1.7333123917	-0.8918853935	-1.1483788103	 0.113174
H	 0.1925606779	-2.8762902131	 0.2013372188	 0.110991
H	-1.8266387098	-1.04057175	-0.9601853693	 0.090859
H	-1.4884502598	-0.9067595384	 2.0937274159	 0.169985
H	-2.7751981322	-0.0755972052	 1.2087979047	 0.147614
