16
gdb 43645	3.64263	1.06892	0.86602	3.1636	79.54	-0.2483	-0.0358	0.2124	1291.6403	0.123889	-400.737785	-400.729609	-400.728665	-400.77107	30.635	
N	-0.0244035136	 1.309590436	-0.0211718462	-0.545953
C	-0.0382385828	 0.0444233814	-0.0114104913	 0.394207
O	 1.0764541236	-0.7630448563	-0.0144307409	-0.243449
C	 0.6841620863	-2.1411019228	 0.0012121946	 0.052682
C	 1.2874716557	-2.8507285364	 1.2319368995	-0.363157
C	 2.742158019	-2.9120516749	 1.2004552534	 0.304295
C	 3.9412890946	-2.9670140058	 1.1575933589	-0.431503
C	-0.8199599561	-2.097113541	 0.004425584	-0.106006
C	-1.2215282403	-0.8270746424	 0.002729283	-0.143557
H	 0.935367766	 1.6581547492	-0.0279754468	 0.226074
H	 1.0776135007	-2.6168237882	-0.9073058887	 0.116763
H	 0.9444696916	-2.3279594459	 2.1324500282	 0.144234
H	 0.8735551074	-3.8664666649	 1.2765960051	 0.134094
H	 5.0018322581	-3.0105573486	 1.1285398083	 0.200664
H	-1.4337717743	-2.9882117499	 0.0111846871	 0.125357
H	-2.2272241259	-0.4341029594	 0.006542352	 0.135255
