21
gdb 96301	2.17193	1.5384	1.00854	2.9121	80.35	-0.2148	-0.0162	0.1986	1227.1608	0.184066	-420.404382	-420.395481	-420.394537	-420.43813	33.821	
C	 0.2847184668	 1.3399033548	-0.3098594952	-0.321001
N	-0.015550965	-0.0749254302	-0.1319070977	-0.070185
C	-1.4090217786	-0.4009386099	-0.447049476	-0.152926
C	-1.5585453361	-1.7937410272	-1.0799297159	-0.149207
N	-1.166532151	-2.945210439	-0.278773218	-0.287082
C	 0.2183193725	-2.9664173595	 0.1978214955	-0.234765
C	 0.4107751455	-2.0499928543	 1.4018994364	 0.338636
O	 0.5277911432	-2.488128622	 2.5245203021	-0.306471
C	 0.4023360115	-0.5341625092	 1.181679441	-0.243629
H	 1.3532447516	 1.5132503472	-0.1464395753	 0.120357
H	 0.0480761247	 1.6442125889	-1.3335302857	 0.120899
H	-0.2728095782	 1.9993959685	 0.3814736207	 0.097249
H	-2.0573831376	-0.3156445458	 0.4459269282	 0.080623
H	-1.7792737007	 0.3340009471	-1.1703621823	 0.099224
H	-2.6059724594	-1.9360086597	-1.3720625138	 0.100089
H	-0.9604892295	-1.8099944865	-1.9997768005	 0.11054
H	-1.8056671566	-3.0913823809	 0.4957679984	 0.223951
H	 0.4814196082	-3.9807544179	 0.5122564327	 0.116656
H	 0.8693691754	-2.6617161958	-0.6281208873	 0.119756
H	 1.4405397025	-0.215888727	 1.3457074998	 0.130121
H	-0.1852670391	-0.0898580917	 2.0075461731	 0.107165
