16
gdb 13205	5.64768	1.1003	1.05577	2.427	61.51	-0.2599	-0.0399	0.2199	1118.5507	0.129345	-420.860719	-420.852544	-420.851599	-420.895033	28.196	
O	 0.2716485448	 1.3336752683	 0.0545810533	-0.41746
C	 0.0950639647	-0.0424284657	-0.0686288741	-0.137121
C	-1.3659087737	-0.4374802139	 0.0619465048	 0.343594
O	-2.2042353549	 0.4276568279	 0.2156803268	-0.326783
C	-1.7147569046	-1.9033907332	 0.0192864442	-0.150416
C	-2.3340223512	-2.4808151581	 1.3282307265	-0.067091
O	-3.5245082284	-2.8966933332	 0.6441408919	-0.263874
C	-3.0917523557	-2.2755019096	-0.5814502815	-0.075066
H	-0.6232954805	 1.6935458224	 0.1658029672	 0.296026
H	 0.4552535663	-0.4149820291	-1.0443463006	 0.118259
H	 0.670739382	-0.5945329314	 0.6946848743	 0.11826
H	-0.8806764186	-2.4970562996	-0.3595462248	 0.092579
H	-1.7914633163	-3.3222830497	 1.7730111032	 0.112509
H	-2.5403891336	-1.7258606569	 2.0966313885	 0.11981
H	-3.703133602	-1.4037791291	-0.8386147979	 0.126932
H	-3.0703034183	-2.9824637389	-1.4176579017	 0.109842
