16
gdb 77844	2.14614	1.6067	1.50858	3.9668	74.28	-0.269	-0.022	0.247	997.1224	0.124313	-396.898117	-396.889948	-396.889004	-396.930867	30.275	
C	-0.2232792916	 1.6083554367	 0.0073385689	-0.428973
C	 0.0365166605	 0.1076516981	-0.009856268	-0.074932
C	 0.7533427337	-0.5969808942	-1.1704058277	-0.057147
C	 2.2166265394	-0.3636783707	-1.226313754	-0.170441
C	 2.8777529807	 0.8559942868	-0.8300426509	 0.320573
N	 3.4492742232	 1.8193116373	-0.5425229319	-0.332431
N	 1.6899226879	-1.3407207886	-0.2215221488	-0.181862
C	 1.1098863857	-0.5326391356	 0.8655408531	 0.369324
N	 1.3693458362	-0.4901412486	 2.0884490844	-0.507944
H	 0.682770782	 2.1850175477	-0.1851664036	 0.156738
H	-0.973795065	 1.8767685848	-0.7426291224	 0.122471
H	-0.6053286581	 1.9004442114	 0.9895045594	 0.14509
H	-0.8999849988	-0.4306117604	 0.1806193058	 0.123978
H	 0.2638122109	-1.1251966318	-1.9809812923	 0.122648
H	 2.7411622546	-0.8797799278	-2.0261478925	 0.154018
H	 2.1492838788	-1.1090160749	 2.3237989405	 0.238891
