18
gdb 84862	2.56486	1.66867	1.07561	3.2479	81.98	-0.2182	-0.0282	0.19	1117.8433	0.148916	-401.987308	-401.978875	-401.977931	-402.02092	31.2	
C	-0.0443430777	 1.5156969189	 0.138215562	-0.358261
N	 0.0193862745	 0.065398886	-0.0469166044	-0.13443
C	-1.2194617979	-0.5872345357	-0.1241873787	 0.036886
C	-1.5163081343	-1.7119682819	-0.7751802407	-0.11569
C	-0.5295030867	-2.5011882245	-1.5988294337	-0.33764
C	 0.6856845826	-2.8702341631	-0.7861907279	-0.06856
C	 1.409646244	-2.0081980608	-0.0695176698	-0.11426
C	 1.2756665795	-0.5333867535	 0.0334200155	 0.373246
O	 2.2798001008	 0.1379238236	 0.2224453433	-0.383314
H	 0.963066702	 1.8768767083	 0.3317255391	 0.175034
H	-0.444822675	 2.0015380964	-0.7575768696	 0.1307
H	-0.6937318769	 1.7589554564	 0.9867800821	 0.126247
H	-2.0021330804	-0.0583764704	 0.4140732304	 0.102814
H	-2.5286602199	-2.0895120062	-0.6832003994	 0.099582
H	-1.005422623	-3.402262269	-1.9924586592	 0.112839
H	-0.2167074567	-1.911831913	-2.4741991824	 0.131843
H	 0.994917154	-3.912985903	-0.7960805681	 0.105379
H	 2.3045028711	-2.3515043486	 0.4394980417	 0.117584
