18
gdb 97727	5.10052	0.69031	0.65767	2.8274	84.86	-0.232	0.0117	0.2437	1721.3205	0.147152	-401.863841	-401.854806	-401.853862	-401.899193	32.62	
O	 0.3755520756	 0.8864510421	 0.7884719008	-0.400883
C	-0.0044219959	 0.0716798152	-0.3123562803	-0.20555
C	-1.3676669799	-0.4453889385	-0.2208367044	 0.24661
C	-2.5053721968	-0.8371405568	-0.1249113871	-0.172685
C	-3.8555538863	-1.278463583	-0.0391546989	 0.169191
C	-4.5111900007	-1.6634636307	 1.2375202453	-0.264727
N	-4.2754247033	-2.7372749159	 0.2689556795	-0.156752
C	-5.3609006147	-2.5836769149	-0.7645147314	-0.1505
C	-4.9042968026	-1.1558191215	-1.1520889653	-0.311744
H	-0.3080874929	 1.555186984	 0.9004052671	 0.286645
H	 0.1141445903	 0.6076959021	-1.2680410258	 0.11861
H	 0.7104672422	-0.7588103641	-0.3278593736	 0.144744
H	-3.874040481	-1.7325449303	 2.1131359071	 0.132837
H	-5.5314244681	-1.3347592277	 1.4341054861	 0.110105
H	-5.2238883461	-3.3199230082	-1.557816058	 0.117565
H	-6.3682140974	-2.6895852653	-0.3480826375	 0.107191
H	-5.6183058218	-0.3338524142	-1.0483285081	 0.105534
H	-4.4551026705	-1.1132852824	-2.1449338256	 0.123807
