13
gdb 16918	4.04672	2.33272	2.12441	2.5532	57.95	-0.2653	-0.0279	0.2374	675.4613	0.097876	-398.59207	-398.586623	-398.585679	-398.621468	22.048	
N	-0.0718139807	 1.2520310478	 0.0185196655	-0.557064
C	-0.0182751506	-0.0054510972	 0.0025905667	 0.462166
O	 1.0944775416	-0.803203227	 0.0003412749	-0.267993
C	 0.5294327538	-2.1671321991	-0.0035804997	 0.134135
O	-0.6002425847	-2.0226897582	-0.8199537863	-0.222373
C	-1.1977073616	-0.9868824501	-0.007921244	-0.098622
C	-1.1689479462	-1.6252005062	 1.3853582127	-0.087781
C	-0.0742174868	-2.3850926445	 1.3854167246	-0.082373
H	 0.8661450251	 1.6568720314	 0.0348863299	 0.22886
H	 1.2678884509	-2.8524169951	-0.4098023725	 0.111603
H	-2.1321241005	-0.6180414942	-0.4173156167	 0.119542
H	-1.8458639483	-1.3866782143	 2.192098327	 0.133639
H	 0.3803772682	-2.9471743532	 2.1875833678	 0.126262
