20
gdb 60553	2.96862	1.23893	1.05851	2.5822	74.41	-0.2411	0.0717	0.3128	1206.457	0.170362	-440.233506	-440.224447	-440.223503	-440.267532	34.393	
C	 0.0626211729	 1.514893014	 0.008776965	-0.480867
C	-0.0261439952	 0.0083755494	-0.0277635436	 0.386803
C	 1.1260684859	-0.7819289283	-0.481352006	-0.228201
O	 0.8175458035	-0.6766967096	 0.9227227921	-0.287463
C	-1.4241940012	-0.6318871638	-0.1408078105	 0.007563
O	-1.3472591917	-1.9986350258	 0.2153351737	-0.440636
C	-2.4780979992	 0.1029258767	 0.6806860555	 0.003571
C	-3.6257098768	-0.6335628624	 1.2539873613	-0.246347
N	-2.5673386938	-0.0947928057	 2.134306792	-0.324614
H	 1.107270409	 1.8337493561	 0.0297836545	 0.127741
H	-0.4135312377	 1.9516753237	-0.8758875993	 0.126436
H	-0.4365447111	 1.9123066583	 0.8965850984	 0.155319
H	 0.9700839432	-1.7686563448	-0.9108051181	 0.129574
H	 2.0378752646	-0.2716922439	-0.7852855919	 0.121015
H	-1.7302221438	-0.5819568252	-1.1960725852	 0.095279
H	-0.597542288	-2.0605107458	 0.8281523421	 0.29669
H	-2.6392512544	 1.1334842749	 0.3711412291	 0.090437
H	-4.5904393731	-0.1433327535	 1.3469840618	 0.112946
H	-3.6546457408	-1.7060949443	 1.0940438117	 0.128649
H	-1.9526478922	-0.8630889399	 2.3971541577	 0.226107
