23
gdb 118483	1.53825	1.22702	0.7268	1.4671	82.3	-0.2574	0.0842	0.3416	1608.4875	0.203628	-425.401319	-425.39042	-425.389476	-425.438295	38.595	
C	-1.1316121322	-1.2587915171	-0.1708945722	-0.390519
C	 0.3473044781	-0.88630278	-0.0281619015	-0.180692
C	 0.7596429084	-0.4085476053	 1.3810074587	-0.017801
C	 0.6703397459	-1.533497735	 2.4272081749	-0.182373
C	 0.9155367439	-1.0863564352	 3.8652294352	-0.084311
O	 0.6713935689	-2.2128894438	 4.6996050772	-0.42493
C	 2.1561077895	 0.1782562415	 1.3191033808	 0.092095
C	 2.4013882742	 1.5963037055	 1.0291891634	-0.18486
O	 2.5426918889	 1.0855829509	 2.3569398021	-0.243533
H	-1.7784784915	-0.4195074716	 0.1082138024	 0.114931
H	-1.3643235426	-1.5264852076	-1.2062376785	 0.113794
H	-1.4054710585	-2.1119863965	 0.4563096671	 0.125914
H	 0.9715479652	-1.7439614711	-0.3132891667	 0.097133
H	 0.5824469716	-0.0894858402	-0.7448311335	 0.094806
H	 0.0836143095	 0.4050734415	 1.6813477382	 0.073041
H	-0.3225139443	-1.9942196511	 2.3955833586	 0.1072
H	 1.3868926393	-2.3272275574	 2.1770094113	 0.099393
H	 1.9408895466	-0.7138467804	 3.9877951543	 0.108973
H	 0.2381416933	-0.2531020545	 4.1139481133	 0.083302
H	 0.89258707	-1.9667268846	 5.6022511554	 0.284128
H	 2.9417183796	-0.5316258234	 1.0474959222	 0.088913
H	 3.3275056577	 1.9046168981	 0.5461244137	 0.113401
H	 1.5548789787	 2.2651301172	 0.8757030538	 0.111996
