18
gdb 78192	2.17082	1.6503	1.44015	4.0516	75.19	-0.2702	0.024	0.2942	1020.1816	0.147657	-401.931349	-401.922791	-401.921847	-401.964196	32.466	
C	-0.2179319179	 1.601667329	-0.0861512281	-0.421829
C	 0.0513496406	 0.1033787136	-0.0651940524	 0.009085
C	 0.7230930083	-0.5847986648	-1.2654652881	-0.105136
C	 2.1693875207	-0.2428379609	-1.4045084033	 0.112
O	 2.6326707468	 1.0488531375	-1.1516689917	-0.414294
C	 1.7864743791	-1.2211719204	-0.3346081415	-0.139218
C	 1.1656354733	-0.5099431161	 0.8800274195	-0.181594
C	 2.0382774453	 0.3799517665	 1.6383085931	 0.283656
N	 2.7428555185	 1.0668716354	 2.2466297985	-0.35113
H	 0.6916861713	 2.1679149302	-0.2843967982	 0.159572
H	-0.9469350402	 1.8358791473	-0.8695810056	 0.115399
H	-0.6397526295	 1.9317554871	 0.86915501	 0.118405
H	-0.8761465979	-0.4280553429	 0.1673476131	 0.089499
H	 0.174572399	-1.0466265276	-2.0779225327	 0.096273
H	 2.6403590836	-0.725019355	-2.2626964701	 0.099498
H	 3.4266423284	 0.9981659116	-0.6079757427	 0.301441
H	 2.1751263826	-2.2316946297	-0.302672099	 0.101798
H	 0.722147518	-1.2211719909	 1.580423199	 0.126575
