15
gdb 11580	6.27316	0.83615	0.78247	2.4996	76.23	-0.2546	-0.0534	0.2012	1432.7389	0.11739	-362.623194	-362.614595	-362.613651	-362.657786	29.123	
C	-0.2421326051	 1.4689583289	 0.0021500177	-0.47815
C	 0.0603314661	-0.0154514018	 0.0408221041	 0.246999
O	 0.2548529715	-0.6242244973	 1.0726025595	-0.280055
C	 0.103383138	-0.6765340354	-1.247698557	 0.043193
C	 0.1464223724	-1.2388838633	-2.3179666143	 0.072106
C	 0.1777307351	-1.9283342651	-3.5701340822	-0.170049
C	 1.2249555679	-2.9783136508	-3.7960775164	-0.221556
N	-0.1692184671	-3.3720323121	-3.6246413589	-0.297815
H	 0.5068008471	 1.9909348261	-0.6031079124	 0.146182
H	-1.2141892181	 1.6424361267	-0.47198048	 0.147203
H	-0.2455524698	 1.8664570586	 1.0180894627	 0.143856
H	-0.1784703062	-1.3682284801	-4.4301542327	 0.12629
H	 1.6197796758	-3.1020380886	-4.8002356804	 0.134391
H	 1.9314666508	-3.1582860272	-2.9916763907	 0.136559
H	-0.3201124383	-3.7108023788	-2.6769571391	 0.250845
