16
gdb 29802	3.13801	1.27986	0.91955	5.6382	81.44	-0.2376	-0.0349	0.2027	1233.8586	0.124934	-396.99167	-396.98282	-396.981876	-397.025905	30.843	
C	-0.0604758896	 1.4603374399	 0.0398195173	-0.356822
N	-0.0032551676	 0.0088331518	 0.0001740294	-0.043059
C	-0.0153107212	-0.7810304398	-1.1178386352	-0.185236
C	 0.0551006505	-2.0889549805	-0.6826789831	 0.266562
C	 0.0736997926	-3.3407608226	-1.4980225775	-0.493426
N	 0.1102813172	-2.1169961002	 0.6831621034	-0.344253
C	 0.0739699145	-0.8517172224	 1.0663196039	 0.242274
C	 0.107987121	-0.3858885418	 2.406148498	 0.23731
N	 0.1334538772	 0.0363998484	 3.4845817764	-0.354875
H	 0.7940696938	 1.8909027319	-0.4893359981	 0.153759
H	-0.9852602781	 1.8188209163	-0.4204573295	 0.153754
H	-0.0334167325	 1.7870576394	 1.0799049554	 0.178238
H	-0.0717070421	-0.3534891779	-2.1060639725	 0.138218
H	 0.9869573586	-3.9148159792	-1.3114051482	 0.143176
H	-0.7721078622	-3.9866142898	-1.2412878927	 0.143183
H	 0.0218763378	-3.1153007636	-2.566297927	 0.121198
