16
gdb 26448	3.67416	1.06386	0.92551	2.5692	70.18	-0.2409	-0.0242	0.2167	1243.5135	0.123813	-437.927118	-437.918771	-437.917826	-437.96124	29.535	
C	 0.1120302139	 1.4713235355	 0.552450336	-0.404704
C	-0.0859808699	 0.0753499608	-0.0365323726	-0.184282
C	 0.8458062509	-0.9561676214	 0.6065242122	 0.149741
O	 1.7122057174	-0.6836812007	 1.3953476935	-0.239101
C	-1.4969562144	-0.4303020104	 0.0387668448	 0.23454
C	-2.5641448903	 0.0391271064	 0.7323387781	-0.110711
O	-3.629291885	-0.7843765743	 0.4875102711	-0.137616
C	-3.1388090403	-1.7241314241	-0.3472828639	 0.073952
N	-1.8924799715	-1.5768178819	-0.6531094833	-0.305831
H	 1.1595106291	 1.7682410333	 0.476400761	 0.137727
H	-0.5040538963	 2.205561345	 0.0268675028	 0.118452
H	-0.150701675	 1.488434592	 1.614354715	 0.129609
H	 0.19175245	 0.0728589848	-1.1025659354	 0.121678
H	 0.6593102424	-2.0005359321	 0.2786874196	 0.104648
H	-2.7440529955	 0.8746361412	 1.3849405126	 0.155171
H	-3.8239919956	-2.490253734	-0.6746180215	 0.156727
