15
gdb 11171	5.63969	1.28632	1.09494	3.3382	67.51	-0.2434	0.0276	0.271	1028.5656	0.119703	-362.676625	-362.669203	-362.668259	-362.708422	27.758	
O	 0.042432887	-0.0431165172	 0.2171789983	-0.373007
C	-0.0098724327	 1.1645835271	 0.1719970848	 0.396854
C	-1.2651796254	 2.0385050315	 0.0756722068	-0.33643
C	-0.7620685234	 3.465047379	 0.4000629293	-0.176652
C	 0.7332160762	 3.4164466914	-0.0314688895	-0.173525
N	 1.0629703538	 2.0205096012	 0.1803175652	-0.305104
C	-1.5135722984	 4.5449844081	-0.2176138491	 0.309143
C	-2.1314981103	 5.4329222816	-0.7413773023	-0.441614
H	-1.6491948775	 1.9778496867	-0.9482025571	 0.141338
H	-2.0467346023	 1.6825120126	 0.7474370987	 0.139887
H	-0.7837099792	 3.5918032378	 1.4891717866	 0.120671
H	 0.8407621582	 3.7182874193	-1.0820757996	 0.119762
H	 1.3524812787	 4.0792513747	 0.5793090283	 0.124133
H	 1.997312815	 1.6540972612	 0.087901048	 0.254233
H	-2.6824613499	 6.2177682349	-1.1976482285	 0.200312
