15
gdb 16582	2.60817	2.26923	1.85128	2.7227	60.95	-0.2399	-0.0173	0.2227	796.9507	0.117911	-399.771663	-399.764063	-399.763119	-399.803336	27.963	
C	-0.0000259639	 1.5428073205	 0.0661647242	-0.418756
C	 0.040996218	 0.0460788967	-0.1389483004	 0.01024
C	 0.6732421684	-0.6690096394	-1.2606609926	-0.064087
C	 1.9566074437	-0.0281303561	-1.7672838936	-0.010907
O	 1.8340455248	 1.1650041421	-2.4974072002	-0.419272
C	 2.3880530287	-0.0054746447	-0.2804999525	 0.348546
O	 3.3261185154	 0.406634641	 0.3282142471	-0.302428
N	 1.2553881352	-0.7856095952	 0.174973589	-0.198592
H	 0.814632951	 2.0579942523	-0.4432952633	 0.15096
H	-0.9425531329	 1.9336772772	-0.3306119313	 0.128892
H	 0.0405621014	 1.777303445	 1.1344885311	 0.136555
H	-0.8339615557	-0.4667417558	 0.2555495918	 0.115004
H	 0.2172416854	-1.538914996	-1.7180917659	 0.112543
H	 2.5654308184	-0.7759280514	-2.298284481	 0.111937
H	 2.7212636921	 1.5032036238	-2.6632280226	 0.299363
