19
gdb 71596	2.11851	1.96305	1.71761	1.254	74.51	-0.2356	0.0629	0.2985	944.3574	0.159472	-422.986055	-422.978212	-422.977268	-423.017762	31.492	
C	-0.0210084564	 1.4994639157	-0.0465953146	-0.529821
C	 0.0223090019	-0.0034682635	-0.0462759602	 0.267249
C	 0.6067459622	-0.9668411928	-1.1131993503	-0.306061
C	 0.0527845963	-1.9162545402	-0.0269851232	-0.169928
C	 0.5833129179	-0.9485559256	 1.0606691048	 0.104509
O	-0.2698644065	-0.9425819541	 2.1996139849	-0.281926
C	-1.5701597396	-0.9615322523	 1.6032272212	-0.156503
C	-1.1976364822	-0.9738313435	 0.1178240749	 0.34726
O	-2.2087163813	-0.9051429984	-0.8343449559	-0.486585
H	 0.9816324047	 1.9221348797	-0.171776419	 0.1198
H	-0.6497752882	 1.8738015136	-0.8613405027	 0.130035
H	-0.4267915682	 1.8792155025	 0.8973785376	 0.126728
H	 0.087051154	-0.9829310127	-2.0722415346	 0.108795
H	 1.6924321414	-0.950356687	-1.2475642292	 0.087451
H	 0.0633043325	-3.0067147881	-0.0016875396	 0.068188
H	 1.6312335247	-0.929896421	 1.3542566902	 0.087915
H	-2.1254141317	-1.856143538	 1.9184316239	 0.090386
H	-2.1451613588	-0.0716663957	 1.8882077639	 0.10607
H	-2.7553614426	-1.6951750686	-0.763632132	 0.286439
