19
gdb 72117	2.51369	2.19179	1.61328	1.5812	78.16	-0.231	0.0084	0.2394	906.5937	0.161476	-385.873042	-385.866301	-385.865357	-385.903578	28.928	
C	-0.0199628697	 1.4882211176	 0.0210525582	-0.506713
C	 0.0237985031	-0.0272697694	-0.0273659313	 0.273818
C	-1.3700994691	-0.7729087879	 0.0608687242	-0.24556
C	-0.8998324751	-1.9014864642	 0.9800120334	 0.050729
O	-0.3992063604	-1.1218801275	 2.1118132427	-0.301084
C	 0.6700516667	-0.7835971161	 1.2055964215	 0.059634
C	 0.612835344	-2.1743005511	 0.5451344074	-0.08276
C	 1.0104529548	-1.9570441851	-0.8814525989	-0.110495
C	 0.7358305851	-0.6843893621	-1.1957526422	-0.12641
H	 0.9885606021	 1.915783566	-0.0049334571	 0.114885
H	-0.5776511745	 1.9014616403	-0.8268559322	 0.115322
H	-0.5089065632	 1.8306868782	 0.9389567724	 0.125481
H	-2.1271948214	-0.1769038438	 0.5767738568	 0.107113
H	-1.7437188318	-1.0858553413	-0.9160630548	 0.096203
H	-1.5828723294	-2.7033041684	 1.2573132118	 0.080721
H	 1.5585181242	-0.3539710538	 1.6721841499	 0.076806
H	 1.0609591113	-2.9935378111	 1.1048784938	 0.077762
H	 1.4312312256	-2.7122583404	-1.5334049662	 0.099218
H	 0.8708245778	-0.2080716897	-2.1606968893	 0.095332
