14
gdb 128571	3.15051	1.29516	0.92325	6.1475	68.1	-0.2607	-0.0725	0.1883	1178.2692	0.100514	-473.82243	-473.814771	-473.813827	-473.854883	28.049	
C	 0.1096018515	 1.3759179555	 0.0065765871	-0.257146
O	-0.0073160171	-0.0451548949	 0.0032651996	-0.250228
C	-1.2390586254	-0.567627365	 0.0108913144	 0.403325
C	-2.4209917559	 0.0941151817	 0.0215598422	-0.433319
C	-3.660589782	-0.6528082287	 0.0287227466	 0.461576
O	-4.7734898756	-0.2026301718	 0.0377792642	-0.33538
O	-3.5416827002	-2.0552419757	 0.0235392341	-0.261034
N	-2.3381720198	-2.7211014742	 0.0126725228	-0.047329
C	-1.2657511345	-2.0123932706	 0.0068829091	-0.013197
H	 1.17812447	 1.589162676	-0.0006821293	 0.153909
H	-0.3614237579	 1.8075696259	-0.8834145986	 0.145794
H	-0.3482176769	 1.8023145686	 0.9059422649	 0.145792
H	-2.5161453224	 1.1704028029	 0.0252974352	 0.134584
H	-0.3336892338	-2.5675071497	-0.0016462224	 0.152652
