21
gdb 77899	1.97983	1.55126	1.34183	1.2821	78.53	-0.2419	0.0642	0.3061	1123.7369	0.180489	-424.191227	-424.181289	-424.180345	-424.225202	37.561	
C	 0.0710716541	 1.6402833397	-0.3548923795	-0.426404
C	 0.2598059725	 0.1433219669	-0.1850620377	-0.065454
C	 1.5249039375	-0.6573310056	-0.426147838	-0.155505
C	 2.7709751612	-0.0105623119	 0.1662443455	 0.086284
O	 3.125120099	 1.2330936128	-0.411814751	-0.420079
C	 2.1067569115	-0.0248179963	 1.598298226	-0.081354
C	 2.0425782557	 1.2417302584	 2.4441913062	-0.427761
C	 0.8517231738	-0.6313451788	 0.9578622021	 0.352732
O	 0.1652562056	-1.6804874907	 1.5567078497	-0.464151
H	 0.9861815756	 2.1955654271	-0.1591732171	 0.149506
H	-0.2234754721	 1.8579489452	-1.3877196689	 0.11261
H	-0.7255983632	 2.0147943089	 0.2988858244	 0.10042
H	-0.5874756572	-0.4267196467	-0.568962879	 0.086302
H	 1.546581839	-1.4566383464	-1.1571293906	 0.087743
H	 3.6259405996	-0.6981207164	 0.1305852302	 0.072973
H	 3.9260553038	 1.5450854117	 0.0215631353	 0.282793
H	 2.5861427672	-0.8192409319	 2.1810524057	 0.078692
H	 1.5928036257	 2.0805643516	 1.9108534632	 0.127254
H	 1.4548721599	 1.0661133665	 3.3521635451	 0.114041
H	 3.0457024948	 1.5481209398	 2.7645142876	 0.103808
H	-0.640397664	-1.3300333538	 1.9501177009	 0.28555
