19
gdb 108128	2.99979	1.5008	1.35592	1.625	74.2	-0.2386	0.0679	0.3065	1021.7376	0.160807	-422.976883	-422.969445	-422.9685	-423.008849	29.772	
O	-0.0833415459	 1.4542247518	-0.01200712	-0.426824
C	 0.0129715618	 0.0360037597	 0.0780986391	-0.217041
C	-1.3818206778	-0.513775875	 0.1257478089	 0.35429
C	-2.3355174668	-0.4602295724	 1.3316260937	-0.296502
C	-3.1403616873	-1.5348516791	 0.5532745566	-0.094627
C	-3.6585660584	-0.7157272411	-0.6483230536	-0.210726
C	-2.2454574212	-0.4689044998	-1.2048007529	 0.035553
O	-1.8297917712	-1.8339887018	-1.531859582	-0.299687
C	-1.7531743108	-1.9954297936	-0.1133283915	 0.048825
H	 0.8070015785	 1.8114386823	-0.0799191331	 0.288504
H	 0.5350419539	-0.3876780543	-0.7942118158	 0.099253
H	 0.5684265121	-0.2682698311	 0.9800486818	 0.082912
H	-1.843592179	-0.8595220257	 2.2244833149	 0.094553
H	-2.8416865459	 0.4768737003	 1.5775679092	 0.102584
H	-3.8142989337	-2.2296348859	 1.0502829261	 0.067891
H	-4.2596207256	-1.2806025427	-1.3636261841	 0.105822
H	-4.1933279771	 0.187279447	-0.3423990041	 0.098754
H	-2.0708268352	 0.2505488427	-2.0023748658	 0.085225
H	-1.2223714406	-2.8782569815	 0.2418066628	 0.081243
