21
gdb 70320	2.95686	1.46579	1.20503	1.0849	80.86	-0.2446	0.0825	0.3271	1103.6145	0.18439	-387.071109	-387.063292	-387.062348	-387.102832	32.717	
O	-0.0734645499	 1.3739864332	 0.1364534892	-0.477
C	 0.0142877736	-0.0206673274	-0.011236649	 0.426637
C	-0.4852938312	-0.63361459	-1.2967685327	-0.370499
C	-1.298756559	-0.7424668865	-0.0164389587	-0.041304
C	-1.3492871892	-2.0329262288	 0.8011278431	-0.271421
C	-0.7222984147	-1.8249696573	 2.1806940158	 0.006929
C	 0.534431308	-2.554412216	 2.5869625429	-0.310598
C	 0.6081714144	-1.1030860119	 2.1815653897	 0.007008
C	 1.1197756434	-0.699942815	 0.7993762305	-0.314213
H	 0.6569878619	 1.7677544732	-0.35363168	 0.276564
H	-0.8529944009	 0.0473248537	-2.0569319121	 0.108005
H	 0.0020264099	-1.5262163835	-1.6797992581	 0.101993
H	-2.1742384571	-0.1032641824	 0.0360207796	 0.092648
H	-2.38199229	-2.3796531573	 0.9004613992	 0.1021
H	-0.8167594091	-2.8282624263	 0.2667846218	 0.096984
H	-1.4182277989	-1.5726465456	 2.9747388953	 0.080572
H	 0.67031835	-2.8064714533	 3.6334775198	 0.106472
H	 0.9362858403	-3.2942012813	 1.8993362722	 0.103096
H	 0.7770709398	-0.3789316802	 2.9716572244	 0.084977
H	 1.4811654541	-1.5835888809	 0.2620093793	 0.098027
H	 1.9744109748	-0.0212237667	 0.8857081178	 0.093023
