19
gdb 41147	2.93844	1.91755	1.46514	1.6582	79.28	-0.2343	0.0075	0.2418	934.6117	0.162512	-385.848516	-385.842044	-385.8411	-385.878855	28.056	
C	 0.051723386	 1.5325077044	-0.1603225271	-0.163961
O	 1.4989851125	 1.4416425446	 0.0284401498	-0.354106
C	 1.3021533648	 0.2375000859	 0.7859512943	 0.461303
C	 2.0719752964	-1.0878623045	 0.9289615768	-0.31061
C	 1.1538278787	-1.2485009506	 2.2082037894	-0.076034
C	 1.2198240749	 0.3065646954	 2.3230597324	-0.276884
C	-0.299782867	-1.5725914296	 1.8859054728	-0.052854
C	-0.9414310647	-0.8691075497	 0.943273331	-0.141187
C	-0.0534227537	 0.0123358065	 0.117215263	-0.05384
H	-0.40568445	 2.1785441316	 0.5996492779	 0.103945
H	-0.2080809386	 1.8877766304	-1.1606704359	 0.108325
H	 1.9811163584	-1.8154564916	 0.1189541528	 0.098506
H	 3.117577235	-0.9768216399	 1.228107363	 0.105031
H	 1.5528144338	-1.8488982393	 3.0246021142	 0.071209
H	 2.1691915948	 0.6542265866	 2.7402890604	 0.100381
H	 0.378862609	 0.8158573053	 2.7966354752	 0.096782
H	-0.8101104416	-2.3201120345	 2.485913314	 0.092703
H	-1.9875281185	-1.0288176158	 0.7014700653	 0.091438
H	 0.12395772	-0.4733178551	-0.8522559491	 0.099853
