15
gdb 27711	2.94102	1.28106	0.89471	6.0509	80.42	-0.1854	0.0036	0.189	1219.2016	0.114766	-413.039824	-413.031125	-413.030181	-413.072816	32.549	
N	 0.1186585769	 1.379814401	 0.1196524147	-0.606381
C	-0.0077858166	-0.0037445815	 0.0334095218	 0.352801
C	-1.1367891386	-0.805666523	 0.0551111642	-0.286502
C	-0.6961204658	-2.155785223	 0.062674084	 0.232706
N	-1.5019526688	-3.280987706	 0.1296453539	-0.616814
C	 0.6959526183	-2.143851588	 0.0301352159	 0.136909
N	 1.0954378587	-0.7951542792	-0.0037808015	-0.383584
C	 1.5926878629	-3.2144741976	-0.0254113086	 0.168787
N	 2.3192906342	-4.1228290773	-0.0698827477	-0.380069
H	 0.7718270426	 1.7735231765	-0.5471342766	 0.253803
H	-0.7721124521	 1.8511819777	 0.0445048485	 0.258053
H	-2.1594808845	-0.4614867556	 0.0516550979	 0.08976
H	-2.3948443107	-3.1880927924	-0.3321903247	 0.250368
H	-1.0386112427	-4.140909243	-0.1305912903	 0.26088
H	 2.0292739662	-0.4820834184	 0.1989632785	 0.269283
