20
gdb 68750	2.44889	1.68403	1.21306	3.7342	79.25	-0.2344	0.0341	0.2685	1090.5105	0.17128	-403.198244	-403.189264	-403.18832	-403.231398	34.266	
C	-0.0298291844	 1.5253854491	-0.0679909295	-0.48629
C	-0.0290613746	 0.0209142386	 0.0447439501	 0.287363
C	 1.2136779318	-0.7773668396	-0.2419315292	-0.363485
C	 0.6466413615	-0.750647929	 1.1693612758	 0.169491
C	 1.4130365622	-0.1748740532	 2.3317734607	-0.482594
C	-0.2452898028	-1.9361878506	 1.45838431	 0.383788
O	-0.110228666	-2.7478699439	 2.3494547401	-0.390225
N	-1.2492296127	-1.9259572418	 0.5210921351	-0.330095
C	-1.3400801876	-0.7083747622	-0.2644627548	-0.227945
H	 0.9393975778	 1.9463931087	 0.2132874343	 0.123494
H	-0.2380680336	 1.8414107376	-1.0971120285	 0.122604
H	-0.7917769077	 1.9750804372	 0.5787529755	 0.120984
H	 1.1431030579	-1.69390339	-0.8199047301	 0.118893
H	 2.1306422987	-0.2165545173	-0.3961403002	 0.112588
H	 2.091613774	 0.6210419631	 2.0130318744	 0.110126
H	 0.7398108423	 0.234213181	 3.0924292113	 0.122997
H	 2.0041159696	-0.9626914526	 2.8078902106	 0.144541
H	-1.9860377395	-2.6110677383	 0.5650180383	 0.249296
H	-2.2007188242	-0.094123661	 0.0392943011	 0.104216
H	-1.4469107827	-0.9247207258	-1.3354036048	 0.110253
