13
gdb 11241	4.51241	1.52889	1.29785	2.9939	59.59	-0.2451	0.0006	0.2457	906.8189	0.097353	-394.811561	-394.804441	-394.803497	-394.843489	25.66	
N	 0.1213798955	 1.2608305604	 0.0832205817	-0.575339
C	-0.0322329439	-0.0880409753	-0.0243564251	 0.485376
N	-1.0757302466	-0.7744572861	 0.2161935155	-0.330256
C	-0.7704893491	-2.147671227	-0.161075522	-0.195077
C	 0.7539496214	-2.1187318434	-0.5392512545	-0.052408
O	 1.0864432896	-0.7212995005	-0.5116472391	-0.246052
C	 1.6076327363	-2.8494533186	 0.4050579608	 0.275975
N	 2.2602320472	-3.4498803796	 1.1455280161	-0.312681
H	 1.0629021818	 1.5862543851	 0.2367974935	 0.271925
H	-0.5909686456	 1.7207531091	 0.6277041813	 0.276206
H	-0.9669044955	-2.8410784466	 0.6614297056	 0.137009
H	-1.3734927295	-2.4675031331	-1.0185835582	 0.122883
H	 0.9463599484	-2.4950596645	-1.5472457159	 0.142439
