19
gdb 109754	2.63069	1.19731	1.11313	3.0569	74.03	-0.2311	-0.0226	0.2085	1226.2215	0.156178	-460.151632	-460.141862	-460.140918	-460.186553	35.125	
C	 0.3802461699	 1.1839537514	 0.2170806292	-0.240579
O	-0.3309041254	 0.1577685508	-0.4656268332	-0.234696
C	 0.4632398472	-0.5342060909	-1.3598300424	 0.068065
C	 1.4132099622	-1.5728559728	-0.8562222767	 0.090438
O	 1.5540801747	-1.8111280384	 0.4943273094	-0.42477
C	 0.1213144752	-2.0154991059	-1.5870418969	-0.281195
C	-0.9422534221	-2.6675991154	-0.7832918797	 0.437945
C	-1.9437334087	-3.5103979859	-1.5436486406	-0.481576
O	-1.0088423956	-2.5538995972	 0.4315517699	-0.354477
H	 1.2208985434	 0.770920642	 0.784766284	 0.138383
H	 0.7541959859	 1.9434512121	-0.4853110367	 0.104195
H	-0.3302831316	 1.6533329323	 0.9005659874	 0.131354
H	 0.7311915465	 0.0171203678	-2.2644236944	 0.090741
H	 2.3432994811	-1.7260154671	-1.3965353593	 0.1113
H	 0.6561843051	-1.9819226663	 0.8431414053	 0.313714
H	 0.2083296881	-2.3590860328	-2.6119794194	 0.097476
H	-1.4294508919	-4.3127689391	-2.0849858153	 0.142823
H	-2.6694380143	-3.9394404247	-0.8521160606	 0.144666
H	-2.4590272996	-2.8989412299	-2.2928602099	 0.146192
