20
gdb 103389	2.2612	1.4767	1.3202	3.5299	79.09	-0.2316	-0.0174	0.2142	1115.7092	0.169651	-403.12418	-403.114989	-403.114045	-403.157827	34.67	
C	 0.0330118371	 1.4860157862	-0.2028573034	-0.391314
C	-0.1281625282	-0.0148117403	 0.0713000657	-0.235871
C	 0.6839657157	-0.5236586602	 1.2675474013	 0.191566
C	 0.2523875336	 0.0900193429	 2.6049912679	-0.451556
C	 0.8730438615	-2.0584920243	 1.3742377957	-0.097781
N	 1.5311572118	-2.4944086596	 0.1416740572	-0.336202
C	 2.3700236736	-1.9608133876	 1.2746575682	-0.191967
C	 2.2496015603	-0.4576065972	 1.1705798029	 0.432816
O	 3.0313935262	 0.4489189257	 1.1989174659	-0.327634
H	 1.0871949373	 1.7537705799	-0.3189579793	 0.140809
H	-0.4918964448	 1.7640752238	-1.1218250049	 0.111083
H	-0.3775727993	 2.0977530156	 0.6064600366	 0.113269
H	-1.1879161747	-0.2476874818	 0.2467293816	 0.087436
H	 0.1765144924	-0.584144238	-0.8114432532	 0.123695
H	-0.8200849084	-0.0651633324	 2.7679188518	 0.116668
H	 0.7915320469	-0.3605076463	 3.4453308718	 0.116738
H	 0.4512088802	 1.1640678219	 2.6226958683	 0.14196
H	 0.2991913616	-2.7374801331	 1.9930157167	 0.102995
H	 1.634489627	-3.508880257	 0.1772021666	 0.239856
H	 3.1571047301	-2.5650181084	 1.7078806825	 0.113434
