21
gdb 58825	3.21793	1.26121	1.09012	1.2145	81.48	-0.2065	0.0741	0.2805	1194.4999	0.18179	-387.017134	-387.008417	-387.007472	-387.050219	34.711	
C	 0.0246850291	 1.5367631957	 0.1710567724	-0.407984
C	-0.0345659684	 0.0183239974	-0.0141077984	 0.010108
O	 0.782280406	-0.6549792657	 0.9391024585	-0.42669
C	-1.4554444346	-0.4971225136	-0.0011556028	 0.375074
C	-2.1708386573	-0.9726058634	 1.2352916705	-0.372943
C	-1.9560565098	-1.9248790628	 0.0824854737	-0.119103
C	-2.890578957	-1.6789083397	-1.1339038605	-0.048553
C	-3.8593912325	-0.5432529365	-0.9514767292	-0.306249
C	-2.4081589001	-0.2401367031	-1.2120788063	-0.118814
H	 1.0592574131	 1.8881634329	 0.1234097321	 0.120021
H	-0.5546671233	 2.051939963	-0.6015704693	 0.122889
H	-0.3980220184	 1.8203577428	 1.1429763621	 0.109454
H	 0.4110475132	-0.235694965	-0.9857378691	 0.086233
H	 0.5913057653	-0.2746005151	 1.8031260361	 0.278899
H	-1.5118994111	-1.1791478312	 2.0733983744	 0.101445
H	-3.148319975	-0.6121640532	 1.5357611069	 0.107517
H	-1.3646123639	-2.8236725971	 0.1996769021	 0.095828
H	-2.9918790905	-2.393175852	-1.9407823195	 0.088024
H	-4.5025170373	-0.3712868916	-1.810094386	 0.110871
H	-4.3460951466	-0.3291989023	-0.0064897237	 0.110762
H	-2.086196291	 0.3121344405	-2.0865520842	 0.083211
