22
gdb 60476	5.88512	0.5169	0.49167	3.9433	84.86	-0.272	0.0332	0.3053	2230.0411	0.191806	-404.367912	-404.356864	-404.35592	-404.405393	38.301	
C	 0.025517703	 1.5035840376	-0.0137717972	-0.393711
C	-0.0098873382	-0.0293379317	 0.0183998818	 0.018297
C	 0.7504296765	-0.588875207	 1.2268671918	-0.380079
C	-1.456417566	-0.5200498253	-0.0032847702	-0.045636
O	-1.4681671308	-1.9337978931	-0.1064606633	-0.25046
C	-2.7591724044	-2.484737833	-0.0924477944	-0.050402
C	-2.5937693519	-4.004950763	-0.2164083283	-0.340606
C	-3.8766347068	-4.7001898585	-0.2120114164	 0.247331
N	-4.9015394876	-5.2334839257	-0.2068040468	-0.302046
H	 1.0573498815	 1.8673814181	-0.0272092566	 0.118087
H	-0.4816921367	 1.9023561421	-0.8987236772	 0.113548
H	-0.4618808201	 1.9282354853	 0.8719625392	 0.115567
H	 0.4662309376	-0.4085883773	-0.8956903212	 0.084548
H	 0.3229524536	-0.2119853832	 2.1641710515	 0.108845
H	 0.700780117	-1.6799390491	 1.2478322713	 0.125914
H	 1.8033009618	-0.2911958119	 1.1986235687	 0.111253
H	-1.9791622165	-0.2042337045	 0.91660423	 0.087452
H	-1.999470091	-0.0780803831	-0.8551211006	 0.088206
H	-3.2901151811	-2.2376097601	 0.8405413277	 0.109965
H	-3.3672588261	-2.102537799	-0.9277712322	 0.109394
H	-2.0574719239	-4.2361821354	-1.142545616	 0.162376
H	-1.9787441199	-4.3707401521	 0.6123375985	 0.162159
