16
gdb 69292	3.92555	1.12342	0.99012	5.1988	77.28	-0.2528	-0.0446	0.2082	1176.417	0.12472	-400.760365	-400.752578	-400.751634	-400.792488	30.175	
O	-0.1901757414	 1.3804750652	 0.0395366501	-0.464829
C	-0.0842710537	-0.0076880411	 0.0434496722	 0.395519
C	-0.4585753525	-0.7859448709	-1.1887636428	-0.339682
C	-1.3446923934	-0.8452957305	 0.0501491668	-0.201933
C	-1.056051129	-1.9763268945	 0.9876499987	 0.2247
C	 0.1826418785	-1.889106039	 1.5029611836	-0.167507
C	 0.8988539036	-0.6506037559	 1.0290333173	-0.336394
C	-1.9919996159	-3.0111161701	 1.2619313323	 0.199548
N	-2.7753226804	-3.8382058999	 1.4726151981	-0.337839
H	 0.4806334554	 1.7334042536	-0.5551056342	 0.287411
H	-0.8451385444	-0.200368729	-2.0161189382	 0.123444
H	 0.1058276984	-1.670922488	-1.4652803678	 0.11994
H	-2.3309929198	-0.4004584444	 0.0106236998	 0.118297
H	 0.6240693801	-2.6132120729	 2.1764193755	 0.124674
H	 1.8701983642	-0.8839360139	 0.5752338239	 0.120811
H	 1.0945398604	 0.0378634413	 1.8619480146	 0.133839
