15
gdb 10327	2.91525	1.65475	1.20051	3.1777	58.95	-0.2424	-0.033	0.2094	994.1006	0.116085	-436.963177	-436.954173	-436.953229	-436.997284	30.798	
C	-0.7752374332	 1.5210206346	 0.1501003372	-0.24889
O	-0.674220997	 0.1645463447	 0.5600531071	-0.249711
C	-1.384327374	-0.7476590355	-0.2289322609	-0.062109
C	-0.7035809901	-1.0653649757	-1.5661679609	 0.14533
O	 0.2503371249	-0.4642504361	-1.9828526813	-0.242288
C	-1.6098528537	-2.0754952142	 0.5210576814	 0.360902
N	-1.0703261113	-2.1142053534	 1.7584118421	-0.510876
O	-2.2173011559	-2.9819399428	-0.0156950985	-0.370185
H	-0.2424306409	 2.1136725856	 0.8965287347	 0.133197
H	-0.3176796699	 1.6759096863	-0.8309111881	 0.147208
H	-1.8262984297	 1.8448577615	 0.1229043747	 0.110188
H	-2.3964018436	-0.3782641707	-0.4748416316	 0.119426
H	-1.1778128147	-1.9040657435	-2.1138443612	 0.120407
H	-0.5865157604	-1.3085545575	 2.1174797874	 0.28003
H	-1.1650784906	-2.9517504334	 2.3076199178	 0.267372
