21
gdb 57258	2.1937	1.41401	1.26298	2.8553	82.32	-0.2682	0.0344	0.3027	1154.8398	0.181438	-383.272243	-383.262199	-383.261255	-383.306569	38.303	
C	 0.2776080746	 1.4437875792	 0.2426097982	-0.405182
C	-0.0018219576	-0.0546300233	 0.0135423679	 0.011179
N	 0.4805310681	-0.7850512605	 1.1949442527	-0.523337
C	-1.4688715724	-0.2472233274	-0.1428740234	 0.259551
N	-2.6090845112	-0.4254123805	-0.2229099166	-0.35517
C	 0.7066996823	-0.5540776373	-1.2682282381	 0.384804
C	 0.1578560617	 0.0067982432	-2.5696586355	-0.484719
C	 2.1936755219	-0.7942529705	-1.1884365801	-0.303244
C	 1.2478456866	-1.9639993202	-1.3174232811	-0.316825
H	 1.3515033837	 1.5842954476	 0.3845487032	 0.138201
H	-0.0541740233	 2.0456614135	-0.6043639639	 0.139225
H	-0.2484232099	 1.8014649115	 1.132968032	 0.125419
H	 0.1478031576	-0.3229080688	 2.0359023927	 0.239884
H	 0.0910968185	-1.7223716567	 1.2122420757	 0.245478
H	 0.2564532086	 1.0962290552	-2.6234252023	 0.119274
H	 0.7072074428	-0.4101348137	-3.4182307512	 0.118251
H	-0.899806269	-0.2430011895	-2.7012328091	 0.144135
H	 2.7953698791	-0.5095429786	-2.0448826231	 0.10899
H	 2.6721705339	-0.6672474792	-0.2248675812	 0.129577
H	 1.1491070176	-2.6101338075	-0.4538865179	 0.110942
H	 1.1827840965	-2.4843853766	-2.2667757889	 0.113569
