23
gdb 113309	2.42384	1.01489	0.82468	0.8932	93.76	-0.2357	0.0572	0.2928	1536.8466	0.203033	-351.122094	-351.111292	-351.110348	-351.157942	40.042	
C	 0.3214349118	 1.5181707129	 0.1710017936	-0.37459
C	-0.1862453845	 0.1042705073	-0.1406943136	-0.208501
C	 0.5648088098	-0.5237487013	-1.297614484	-0.029283
C	 1.8428054301	-1.2890186721	-1.0964078648	-0.318355
C	 0.5950436917	-2.0291981259	-1.5730280927	 0.12507
C	-0.07958431	-3.0239697046	-0.6293189544	-0.253127
C	 0.5778407197	-4.4081882958	-0.6475015491	-0.380387
C	 0.5550993567	-2.4076907855	-2.9630430111	 0.291645
C	 0.502601736	-2.728882773	-4.1221005135	-0.469755
H	 1.3832708472	 1.5048122111	 0.4381158703	 0.119266
H	 0.2063720982	 2.1792779059	-0.6947602713	 0.116754
H	-0.2316296456	 1.9610841001	 1.0050201952	 0.111593
H	-0.0919759786	-0.5157300683	 0.7569836614	 0.098463
H	-1.2574414154	 0.1444748596	-0.3767289907	 0.102419
H	 0.530136332	 0.0729227498	-2.2058189976	 0.093913
H	 2.6586580436	-1.1556166488	-1.7968153646	 0.120416
H	 2.1521575524	-1.4874250967	-0.0741073332	 0.110753
H	-0.0572673275	-2.6256294483	 0.3895103197	 0.095517
H	-1.1368368035	-3.1148363676	-0.9063346604	 0.104436
H	 0.0604131233	-5.0934317822	 0.0308586004	 0.108625
H	 0.5530060074	-4.8397969211	-1.6521902795	 0.132219
H	 1.6258544225	-4.3498520756	-0.335120331	 0.114475
H	 0.4616205528	-3.0089786599	-5.1452133991	 0.188432
