18
gdb 36744	6.40478	0.6304	0.59199	2.9885	82.83	-0.25	0.0227	0.2727	1840.7333	0.146129	-401.90915	-401.899803	-401.898858	-401.94497	33.073	
C	-0.2738908703	-1.1329547658	-0.3668431991	-0.452107
C	 0.5335746786	-0.3316916721	 0.0219829504	 0.298772
C	 1.4896410169	 0.6674068972	 0.4805385718	-0.336199
C	 1.0296662473	 2.1077555378	 0.1804120375	-0.167878
N	 2.0674509696	 3.0408295581	 0.6007075959	-0.328302
C	 1.7407477792	 4.1043608632	 1.1700086022	 0.462594
C	 2.4882818504	 5.2860547407	 1.7510706065	-0.374071
C	 1.0742958191	 5.7920176994	 2.1027472695	-0.07657
O	 0.4867908495	 4.6027852365	 1.4925144267	-0.259687
H	-0.9778057383	-1.8515178792	-0.7060116042	 0.191974
H	 1.6518818234	 0.5627725466	 1.5602984987	 0.129887
H	 2.4654395184	 0.5076089628	 0.0071755006	 0.138147
H	 0.8824065255	 2.2092626461	-0.9015905479	 0.120843
H	 0.0614779579	 2.2969067766	 0.6596399767	 0.122179
H	 3.1397392077	 5.0482384337	 2.593432155	 0.139874
H	 3.0401019946	 5.8805493296	 1.0211433025	 0.140757
H	 0.8303438988	 5.8465623053	 3.1663995409	 0.124797
H	 0.7403150216	 6.6975106432	 1.5908163063	 0.124994
