23
gdb 104327	2.07809	1.48004	1.22271	1.4069	87.45	-0.2213	0.0377	0.259	1197.4588	0.204966	-388.310799	-388.300783	-388.299839	-388.345036	38.123	
C	 0.4714931803	 1.4717694024	-0.0603503974	-0.499435
C	 0.1279141779	 0.0134585523	-0.0276127875	 0.324476
C	-0.268023219	-0.726445645	-1.0655492607	-0.177344
C	-0.5499729113	-2.1613676959	-0.7009059436	-0.259513
C	 0.0539786129	-2.2706583589	 0.719158869	-0.259115
C	 0.163651634	-0.8152853952	 1.2632951631	 0.204062
C	 1.4421820659	-0.6016154915	 2.0888520751	-0.444043
C	-1.0697198476	-0.5203552646	 2.139607205	-0.101421
O	-1.0275583359	 0.8266742217	 2.5947974428	-0.421622
H	 1.5066491417	 1.6446421723	 0.2596094426	 0.119715
H	 0.3591218945	 1.8808139193	-1.068579054	 0.109728
H	-0.1647849736	 2.0354869348	 0.6282397158	 0.143814
H	-0.4044236753	-0.3417979777	-2.0717984845	 0.07793
H	-1.6294355456	-2.3708796929	-0.7096754456	 0.098642
H	-0.099504308	-2.8768098284	-1.3988540427	 0.097999
H	-0.5258416552	-2.9201991339	 1.3834231098	 0.087323
H	 1.0596948334	-2.6983209491	 0.6563239723	 0.098751
H	 2.3334169298	-0.7535304886	 1.4714256539	 0.108364
H	 1.4786523027	 0.4046890229	 2.5126943008	 0.132306
H	 1.4849442684	-1.3146138179	 2.9205322309	 0.104733
H	-1.9832440409	-0.7085635685	 1.5548491372	 0.086226
H	-1.0687000331	-1.2169766581	 2.9944075775	 0.080956
H	-1.8097546659	 0.9891176507	 3.1294377505	 0.287467
