15
gdb 9314	6.19416	0.88004	0.78179	4.5681	64.42	-0.3146	-0.0674	0.2472	1401.8707	0.117176	-399.837793	-399.82897	-399.828026	-399.872478	29.397	
C	 0.0746965257	 1.454617897	 0.0086682441	-0.387483
C	-0.0417599244	-0.0725878018	 0.0019562181	-0.195159
C	-1.4920022919	-0.5207839452	 0.0135365269	-0.056922
O	-1.5042136572	-1.9729249657	 0.0061030106	-0.226562
C	-2.7065107609	-2.5394989245	 0.0146669916	 0.360224
O	-3.7708355148	-1.9838419596	 0.0276918907	-0.330236
C	-2.571667589	-4.0034599519	 0.0057914071	 0.252655
N	-2.5259117284	-5.1572536873	-0.0001629166	-0.305145
H	 1.1238530068	 1.7610420866	 0.0003047882	 0.12875
H	-0.4085493254	 1.8968059519	-0.8690184952	 0.125244
H	-0.3917943567	 1.887752786	 0.8998331079	 0.125243
H	 0.4509253934	-0.4874907398	-0.8842620317	 0.119639
H	 0.4677668146	-0.4964965851	 0.8742805411	 0.119639
H	-2.0258425519	-0.1756508388	 0.9047689147	 0.135057
H	-2.0428069499	-0.1664360718	-0.8636446875	 0.135057
