11
gdb 23789	6.106	1.61009	1.27536	4.8184	56.32	-0.2461	-0.0775	0.1686	839.7227	0.073088	-434.880066	-434.873907	-434.872963	-434.91037	23.135	
N	-0.0213702721	 1.366561608	-0.1573069713	-0.567284
C	 0.0249173368	-0.0043288619	-0.0574544726	 0.391565
N	-1.1404917586	-0.6556008772	-0.0157546222	-0.247642
N	-1.1376236242	-1.9860067314	 0.009548351	-0.240554
C	 0.0306045745	-2.5924606392	 0.0079317587	 0.375185
F	-0.0042764522	-3.9102159845	 0.0365505817	-0.054124
N	 1.2398774211	-2.0408024524	-0.0128355744	-0.271179
C	 1.2392324214	-0.7242356873	-0.0501745003	-0.045824
H	 0.7580441074	 1.883494246	 0.2179222585	 0.262047
H	-0.9258055865	 1.7637556314	 0.053456687	 0.26859
H	 2.2018598324	-0.2170664615	-0.0737570761	 0.12922
