18
gdb 33543	2.18989	1.65011	1.159	4.2094	75.81	-0.2794	0.0075	0.2869	1108.3582	0.147609	-401.927079	-401.91858	-401.917636	-401.960671	31.41	
N	-0.4520160787	-1.2928950725	 0.2800790937	-0.33636
C	-0.2760108098	-0.1580614549	 0.1500044602	 0.269193
C	-0.0738752893	 1.2972426517	 0.003532859	 0.241691
C	-0.1122511713	 2.0610019548	 1.3620539932	-0.323344
C	 1.4023773179	 2.2283809782	 1.148316022	-0.07175
O	 1.3298030886	 1.6038302209	-0.1586947858	-0.30208
C	-0.9247730108	 1.8283235615	-1.1295601846	-0.040165
C	-0.5613691666	 3.1282362676	-1.7959678693	-0.286355
C	-0.3820980371	 1.8239401861	-2.5336474813	-0.259914
H	-0.6897718104	 2.9838243905	 1.3048002413	 0.128892
H	-0.4204505681	 1.4785440611	 2.2291905649	 0.135146
H	 1.778475867	 3.2537903667	 1.0819195343	 0.117159
H	 2.0360769982	 1.6509235324	 1.8298248751	 0.123103
H	-1.9810104591	 1.6074253793	-1.004978816	 0.104466
H	-1.3695258355	 3.788475325	-2.0891916768	 0.115623
H	 0.3413627088	 3.6281658614	-1.464565708	 0.125145
H	 0.6351318623	 1.4754623442	-2.6689160256	 0.139291
H	-1.0620346659	 1.577796206	-3.3406269162	 0.12026
