18
gdb 96972	3.60591	1.36253	1.29566	2.4664	78.99	-0.2374	-0.0109	0.2265	1058.1169	0.149628	-401.956092	-401.948618	-401.947674	-401.988539	29.046	
C	-0.0466116522	 1.4185678896	 0.0605363634	-0.333552
N	-0.0294524546	-0.0365517961	 0.0934602469	-0.357353
C	-1.1173823441	-0.6661943119	 0.0471839148	 0.477458
O	-2.3816792432	-0.1252039024	-0.0292581686	-0.278379
C	-3.3009141547	-1.2765435563	-0.0937149956	 0.059369
C	-2.6154921538	-2.245513253	 0.8821856937	-0.231893
C	-1.2957841824	-2.1839455131	 0.059657205	-0.170215
C	-1.8348408565	-2.5106536321	-1.3346228853	-0.080169
C	-3.0532886686	-1.9699159695	-1.4271162144	-0.081358
H	 0.6343949907	 1.7630299001	-0.7257115317	 0.121736
H	-1.0366461259	 1.8557531867	-0.1114669441	 0.121973
H	 0.3459436704	 1.8045876916	 1.008822713	 0.122252
H	-4.2998503816	-0.9078807295	 0.1264831311	 0.086959
H	-2.5306350509	-1.8390039868	 1.8936274008	 0.113821
H	-3.0613998918	-3.2405286596	 0.8976089807	 0.112476
H	-0.4214728991	-2.7280454777	 0.4047803463	 0.091959
H	-1.2590735944	-3.0021902212	-2.1072369291	 0.115784
H	-3.7042459172	-1.918379469	-2.288862887	 0.109132
