18
gdb 36054	2.17765	1.41192	1.04669	4.1036	81.37	-0.2742	0.0247	0.2989	1199.9779	0.146606	-364.78474	-364.775691	-364.774747	-364.818707	33.599	
C	-0.1835506661	-1.0588413509	-0.4745440056	-0.429282
C	-0.0661383305	 0.1118273575	-0.2312961016	 0.309401
C	 0.1043419603	 1.5306897847	 0.0499678214	-0.418591
C	 1.5877519586	 1.9591336343	 0.1813197901	 0.150597
C	 2.3722652486	 1.8675340286	-1.1721336875	-0.248099
C	 2.1376222771	 3.3866761798	-1.3860271333	-0.220044
C	 1.7542839829	 3.5171710239	 0.1117804662	-0.259487
C	 2.2135415167	 1.3123085606	 1.3281776881	 0.252001
N	 2.7308618027	 0.8278399194	 2.2419147372	-0.346653
H	-0.2947120185	-2.095932159	-0.6742557435	 0.204213
H	-0.3489763623	 2.123209798	-0.7541949916	 0.136556
H	-0.4254843567	 1.799435258	 0.9716804445	 0.147998
H	 3.4239882626	 1.6262039975	-1.0093464091	 0.127642
H	 1.9590927988	 1.1700655979	-1.9030384343	 0.125517
H	 2.9954430208	 3.9711923997	-1.7215376095	 0.114218
H	 1.2996036589	 3.594065304	-2.0557893419	 0.113171
H	 0.8657426295	 4.0995552575	 0.3674959168	 0.112712
H	 2.5874106763	 3.8574061585	 0.7289991337	 0.12813
