19
gdb 65376	4.10356	0.9553	0.89003	3.5506	77.84	-0.2486	-0.0168	0.2318	1334.6901	0.157153	-423.005744	-422.996601	-422.995657	-423.039839	33.505	
C	 0.1350078407	 1.5079944967	-0.0013055911	-0.479203
C	 0.0146474074	 0.0017133327	 0.0843819822	 0.219607
C	 1.2576950543	-0.8841184242	 0.0118370306	-0.339896
C	 0.5217746066	-0.7814289058	 1.3032158602	-0.082222
C	 1.109650184	-0.0686500479	 2.4821233972	 0.049696
C	 2.4104979993	-0.4616354495	 3.0455688435	-0.172377
O	 2.2739215454	 0.727974148	 2.2648284051	-0.224462
C	-1.1994765163	-0.5819661531	-0.5413773712	 0.122798
O	-2.0696055934	 0.0535343408	-1.0831633016	-0.267094
H	 1.0522528018	 1.8613046282	 0.4712836553	 0.145503
H	 0.1333638285	 1.824838268	-1.048243107	 0.130887
H	-0.7191938941	 1.991646407	 0.4819193985	 0.128956
H	 1.2006153059	-1.8100726233	-0.5507534854	 0.119621
H	 2.1998499278	-0.353190019	-0.062563457	 0.144312
H	-0.0891490766	-1.6353431235	 1.5902258698	 0.099235
H	 0.3856848223	 0.3876926335	 3.1586393692	 0.104215
H	 2.6143237392	-0.3034159594	 4.1030558201	 0.121529
H	 2.971429183	-1.2651249239	 2.5715256531	 0.120017
H	-1.2576007856	-1.6958187152	-0.4749578113	 0.058881
