14
gdb 124349	4.46616	1.15317	0.92232	1.7187	68.16	-0.248	-0.0686	0.1794	1192.2482	0.101021	-466.19765	-466.189449	-466.188505	-466.230876	29.285	
C	-0.0127192165	 1.4620836403	-0.0691609135	-0.485993
C	-0.0329974925	-0.0379413794	 0.0731818658	 0.444373
O	-0.0516193447	-0.6503734131	 1.1012691321	-0.268529
N	-0.0263419893	-0.7474993975	-1.1776662918	 0.031161
N	 0.0056397271	-0.1254238494	-2.3624182983	-0.103526
N	 0.004463433	-1.0484744074	-3.2691618645	-0.262735
C	-0.0286739974	-2.2454892228	-2.5901155091	 0.480803
N	-0.094284468	-3.4443456267	-3.2391904418	-0.572581
N	-0.0435556442	-2.0906424918	-1.2783757047	-0.298831
H	 0.8731659918	 1.7871216934	-0.6201498127	 0.167151
H	-0.8825312775	 1.8084610083	-0.6328139503	 0.167704
H	-0.0151455941	 1.8913287636	 0.9320231025	 0.153099
H	 0.2483592389	-3.4308749096	-4.1871634667	 0.273471
H	 0.1866293132	-4.2475640078	-2.6988658369	 0.274433
