15
gdb 31936	5.04797	0.95505	0.8078	4.0731	77.52	-0.2206	-0.0475	0.1731	1356.8685	0.112988	-453.992185	-453.983711	-453.982767	-454.025971	29.402	
C	 0.0708907395	 1.3821091855	 0.0932567556	-0.32664
N	-0.0680151642	-0.0549867229	-0.0654112359	-0.388932
C	-1.2720326757	-0.653289749	-0.0205975351	 0.527213
N	-2.4533907113	-0.071419784	-0.0199142843	-0.352661
C	-3.3234673259	-1.1314796386	-0.0117684765	-0.144427
C	-2.6462981308	-2.3181435966	-0.000096561	 0.217689
O	-1.2914255197	-1.9962635922	-0.0046345049	-0.215058
C	-3.0720267963	-3.6936491818	 0.0192716218	 0.053319
O	-2.3466004991	-4.6668199583	 0.0333365684	-0.297844
H	 1.0392936258	 1.69036051	-0.3056524426	 0.136907
H	-0.7208066692	 1.8785090081	-0.4698089975	 0.171537
H	-0.0019242371	 1.6974066627	 1.1416899273	 0.136455
H	 0.7283180013	-0.6474300734	 0.1041505105	 0.26943
H	-4.3935255961	-0.9845145885	-0.0109231967	 0.140121
H	-4.1810304513	-3.7851460708	 0.0204006909	 0.07289
