13
gdb 35655	4.27609	1.0138	0.88536	4.7247	71.9	-0.2844	-0.064	0.2204	1239.4776	0.088897	-415.583562	-415.575552	-415.574608	-415.617278	28.246	
C	 0.0576285053	-1.184235453	 0.0542039769	-0.446418
C	 0.0372715863	 0.015670092	 0.0146547448	 0.340733
C	-0.0204938627	 1.4715340943	-0.0039667007	-0.185383
C	-0.6074589493	 2.0875971043	 1.3090428428	-0.125845
O	 0.4202863931	 3.0036783698	 1.7573908693	-0.247839
C	 1.4320869128	 2.8680237648	 0.8707976748	 0.332474
N	 1.3299379966	 2.0802962081	-0.119644214	-0.289707
C	 2.5912327273	 3.674833038	 1.1376181721	 0.290421
N	 3.5196387268	 4.3264966974	 1.3536992251	-0.306285
H	 0.0858223155	-2.2460507721	 0.0776735796	 0.212539
H	-0.600041547	 1.7928826523	-0.8776245503	 0.136922
H	-1.5225778069	 2.6586773009	 1.1441935614	 0.140705
H	-0.7670978477	 1.3417104333	 2.0892513682	 0.147685
