16
gdb 124073	4.99468	0.95145	0.90457	1.7368	69.66	-0.2574	-0.0209	0.2364	1267.0828	0.125711	-437.848126	-437.840653	-437.839709	-437.882008	26.731	
O	-0.0638697809	 1.38204031	-0.1954330248	-0.268085
C	 1.3556677482	 1.4860045995	 0.0180034227	-0.080605
C	 1.4078289665	 0.0897406653	 0.6967153544	-0.168915
C	-0.0750210518	 0.0105601915	 0.2408791541	-0.080615
C	 2.3803176564	-0.9271694029	 0.207274217	 0.146361
C	 2.6294203383	-1.3607691009	-1.0615239271	-0.009924
O	 3.5907888429	-2.2939991869	-1.0695167891	-0.159582
N	 4.0203354603	-2.5129124083	 0.2343448605	-0.129303
C	 3.301163093	-1.7042940445	 0.970542694	-0.053778
H	 1.9143010863	 1.5439785793	-0.9259642125	 0.10078
H	 1.6194692595	 2.3457821402	 0.6438323638	 0.111325
H	 1.4877002987	 0.1762597473	 1.7822039554	 0.089306
H	-0.8199117506	-0.1699089071	 1.0238474684	 0.111326
H	-0.2496960946	-0.6876825851	-0.5888535058	 0.100777
H	 2.2173833166	-1.1074232711	-2.0263540213	 0.157154
H	 3.4553458613	-1.6916598363	 2.0410900803	 0.133779
