19
gdb 117586	2.09801	1.11817	0.76169	3.6225	76.76	-0.2609	0.0226	0.2835	1462.6509	0.158159	-419.174867	-419.165101	-419.164157	-419.210297	34.638	
O	 0.1425047114	 1.3733055858	 0.2201917048	-0.413577
C	 0.0891109997	-0.0318414765	 0.0452946602	-0.077685
C	-1.354416287	-0.5414374583	-0.0058430423	-0.203866
C	-1.4721807563	-2.0778750881	-0.0250111913	-0.146867
C	-2.8899954723	-2.469556521	 0.0442294588	 0.309956
N	-4.0024339623	-2.7727843534	 0.1137125186	-0.323027
N	-0.8826433766	-2.639864048	-1.2440657017	-0.069875
C	 0.4833612495	-3.155202749	-1.124436295	-0.222731
C	-0.6677526794	-4.0864710775	-1.2481972626	-0.21896
H	-0.2091296727	 1.7852573448	-0.5755971163	 0.285771
H	 0.640189731	-0.3452433029	-0.8520204668	 0.107649
H	 0.6068209329	-0.4567214835	 0.9134616472	 0.110001
H	-1.8883910261	-0.1559300003	 0.8685276927	 0.127992
H	-1.8565735382	-0.1510381784	-0.8982899306	 0.119205
H	-0.9897168817	-2.4842079205	 0.8839162335	 0.10699
H	 1.1314117581	-2.956342392	-1.9724953745	 0.129206
H	 0.9708908259	-3.0921172652	-0.1532528791	 0.120449
H	-0.9541991984	-4.6481939646	-0.3612505342	 0.126922
H	-0.8813836575	-4.5833266414	-2.1890505214	 0.132448
