18
gdb 89685	2.61476	1.33978	1.09409	4.0082	76.65	-0.2175	-0.0235	0.1941	1159.8426	0.145532	-439.050574	-439.041447	-439.040503	-439.084292	33.792	
C	-0.1790651153	 1.5161304681	-0.0186465571	-0.402178
C	 0.1271019771	 0.0285640644	-0.0023220248	 0.006221
N	 1.2944609181	-0.4137025559	-0.8454835986	-0.381905
C	 1.8209357333	-1.2209181695	 0.2542656302	 0.222679
C	 2.2037943138	-0.289304736	 1.3888430419	-0.397208
C	 0.7582281184	-0.5985813485	 1.2440731681	 0.315817
O	-0.0213400727	-1.1568064457	 2.226421364	-0.445351
C	 2.228525809	-2.6074810716	 0.1042174207	 0.054381
O	 2.1430278711	-3.2186782541	-0.9409323839	-0.293054
H	 0.7099903611	 2.1034924927	 0.2276772389	 0.120399
H	-0.5215993779	 1.8265055695	-1.0107425506	 0.125943
H	-0.9690228785	 1.7516791284	 0.7024878963	 0.12033
H	-0.771324172	-0.5517570382	-0.2443398272	 0.097359
H	 1.0081589973	-1.0262467615	-1.6045377217	 0.238352
H	 2.6800259981	-0.7845289343	 2.2327003839	 0.122296
H	 2.6211701595	 0.6793578785	 1.1247948555	 0.132044
H	 0.3437998729	-0.9307081555	 3.0881264015	 0.296489
H	 2.6048716265	-3.0875915907	 1.0341420226	 0.067387
