16
gdb 49501	2.43328	1.5316	1.11664	1.6517	69.95	-0.2388	-0.0516	0.1872	1080.0738	0.122866	-437.806267	-437.798156	-437.797211	-437.839877	29.07	
O	-0.7646752128	 0.885333293	-0.1890097516	-0.240015
C	 0.3835467044	 0.7460913762	 0.1523455811	 0.122344
C	 1.4797221655	 1.7385241689	-0.1399009898	-0.075763
N	 2.6037419124	 1.2814520661	-1.1070902794	-0.167867
C	 1.5712306002	 1.554430819	-2.2207219878	-0.223194
C	 1.3669230156	 2.7806294143	-1.2830081345	 0.211747
C	 2.9079214764	 2.7948882621	-1.2200126157	-0.203327
C	 0.4076035394	 3.9231798592	-1.4181956461	 0.020477
O	 0.7588787879	 5.069868788	-1.5483092509	-0.243228
H	 0.7112029443	-0.1362561478	 0.7452487889	 0.100332
H	 1.8956384561	 2.0939681459	 0.8123104392	 0.106579
H	 2.0318186078	 1.7472180114	-3.1917746541	 0.119778
H	 0.7753867742	 0.8138439916	-2.2942362001	 0.133671
H	 3.3851163948	 3.2135473949	-0.3314488145	 0.116374
H	 3.4512250435	 3.0525978631	-2.1307300685	 0.120393
H	-0.6655043697	 3.636199264	-1.3899803961	 0.1017
