25
gdb 95366	2.43169	1.53801	1.09559	0.1412	91.15	-0.2937	0.0761	0.3698	1228.6088	0.232994	-352.398063	-352.389646	-352.388702	-352.430829	34.376	
C	-0.606808415	 1.4005915743	-0.0319929121	-0.412534
C	 0.1289014218	 0.0620853939	-0.0975762838	 0.035109
C	 1.1812897561	-0.0555326407	-1.2152984875	-0.205977
C	 1.9199262754	-1.3585095277	-0.8679314925	-0.233314
C	 2.0231702569	-1.3512584103	 0.6772046363	 0.023311
C	 3.3543534694	-0.7951315885	 1.2396860119	-0.212614
C	 2.941130677	 0.0688094436	 2.4402383528	-0.204145
C	 1.6671880921	 0.7577499749	 1.9298179875	-0.210749
C	 0.9069353047	-0.3601217777	 1.1763690747	 0.005421
H	 0.0822931993	 2.2369296766	 0.1236239877	 0.113603
H	-1.1488180632	 1.5921940019	-0.9644480643	 0.107912
H	-1.3383580024	 1.4166897834	 0.7834931803	 0.108803
H	-0.6213211613	-0.719871146	-0.2855155977	 0.065684
H	 0.7402817628	-0.0622657867	-2.2171644815	 0.087812
H	 1.8687525793	 0.8002659143	-1.1739740071	 0.091143
H	 1.3217972149	-2.2135169486	-1.2044413978	 0.090319
H	 2.8985540806	-1.4440794841	-1.3510755386	 0.088554
H	 1.8555071582	-2.3559003524	 1.0759520133	 0.060395
H	 4.0669174919	-1.5853785597	 1.4942854905	 0.088933
H	 3.8393112263	-0.1587048022	 0.4877443795	 0.091079
H	 2.7056025746	-0.5686375058	 3.3022128918	 0.09286
H	 3.7176668913	 0.7719635536	 2.75722828	 0.088045
H	 1.0695019707	 1.2152436516	 2.7236644394	 0.08876
H	 1.9521802369	 1.5626147362	 1.2406481755	 0.093808
H	 0.2324660217	-0.857244644	 1.8812305617	 0.057781
