16
gdb 76168	2.15441	1.48672	1.21134	3.0614	67.04	-0.2599	-0.0034	0.2564	1083.7789	0.120482	-475.003206	-474.993415	-474.992471	-475.037262	35.755	
C	-0.0313775318	 1.5652240175	-0.0049126277	-0.447555
C	 0.05393532	 0.0608121602	-0.0714812097	 0.268611
O	-1.0228918832	-0.5884558524	-0.6742956157	-0.438526
C	 1.3484974907	-0.6604475246	-0.3168787822	 0.053712
O	 2.5544167163	 0.0073609718	-0.427860726	-0.424667
C	 0.712896082	-0.7191988568	 1.0860279387	 0.110157
O	 1.3627415073	 0.0691461893	 2.0518448674	-0.464472
C	 0.0859802917	-1.915749435	 1.5739940208	 0.250244
N	-0.4056206252	-2.8764124183	 1.9928855535	-0.343306
H	 0.8707649502	 2.0089159137	 0.4169601731	 0.132956
H	-0.1747391205	 1.9571264465	-1.01583174	 0.142904
H	-0.8807567473	 1.8772140712	 0.612320832	 0.124352
H	-1.7956401836	-0.512046186	-0.1009256493	 0.295289
H	 1.2919831809	-1.5493918246	-0.9362209797	 0.13993
H	 2.7057289869	 0.461997502	 0.4126767645	 0.292496
H	 1.9690845555	-0.4990233546	 2.5436770102	 0.307876
