19
gdb 74923	2.83851	1.52464	1.33994	1.8101	80.65	-0.2194	0.0086	0.228	1063.2995	0.1589	-385.858531	-385.850548	-385.849604	-385.8906	31.627	
C	 0.0973004185	 1.4816136753	 0.0576865367	-0.499732
C	-0.0626277248	-0.002449105	-0.0271055468	 0.358451
C	-0.123299765	-0.7681300458	-1.1324114836	-0.213671
C	-0.0323351377	-2.2038714283	-0.7102922684	-0.003794
O	 1.3605761724	-2.3879461459	-0.1860119372	-0.301114
C	 0.8685482355	-2.1547800788	 1.1082165799	 0.052329
C	-0.0770310903	-0.887747444	 1.1670304818	-0.25031
C	-0.5707474853	-2.260656355	 0.7604168585	 0.265248
C	-1.7452915909	-3.0097152841	 1.3085231609	-0.520337
H	 1.0593620849	 1.7471097927	 0.5136180755	 0.134064
H	 0.0523175333	 1.945863734	-0.9309307855	 0.125538
H	-0.6816045154	 1.9333376676	 0.6845765241	 0.123628
H	-0.0320955015	-0.4255820375	-2.1553646209	 0.093255
H	-0.2745166891	-2.9931272616	-1.4208914498	 0.07756
H	 1.4765500703	-2.4645751253	 1.9505206083	 0.106897
H	-0.3020224172	-0.5132015823	 2.1602953663	 0.07737
H	-2.6878727711	-2.6120007505	 0.9147869001	 0.126216
H	-1.6958732904	-4.0751624121	 1.0578646498	 0.124952
H	-1.7804409863	-2.9248965934	 2.3995882904	 0.123449
