15
gdb 133119	2.59722	1.56024	0.9808	3.4199	71.57	-0.2431	-0.0135	0.2297	1128.1887	0.113349	-461.954696	-461.947168	-461.946224	-461.986916	28.061	
C	-0.0659564384	 1.3778425718	 0.1017854174	-0.252035
O	 0.003939669	-0.0363454554	-0.0015442327	-0.253162
C	 0.6186943847	-0.5596879759	-1.0792754196	 0.294876
C	 1.2062700386	 0.1502406319	-2.1259320635	-0.268673
C	 1.8024879809	-0.5602699389	-3.1683297814	 0.007441
N	 1.8544254183	-1.8881389391	-3.2417345694	-0.277623
C	 1.2900033851	-2.569048081	-2.2363428992	-0.090258
C	 0.675645519	-1.9591525497	-1.1605596019	 0.148653
F	 0.1303627931	-2.6907273071	-0.1882367753	-0.064191
H	 0.9341865005	 1.825605205	 0.1444931982	 0.13355
H	-0.6217413197	 1.813131873	-0.7373960339	 0.133552
H	-0.5951777389	 1.5838794763	 1.0326057814	 0.147099
H	 1.206461214	 1.2322766204	-2.1411341252	 0.108292
H	 2.2626779088	-0.0137367836	-3.987937489	 0.109988
H	 1.3209282751	-3.6548455178	-2.2759937358	 0.12249
