19
gdb 77593	2.62064	1.42928	1.20113	2.9449	75.45	-0.2509	0.0707	0.3216	1109.4833	0.157269	-422.970079	-422.961366	-422.960422	-423.002952	33.761	
C	-0.1745084143	 1.5465582954	-0.085791612	-0.427137
C	 0.0624052774	 0.046955479	 0.0285658495	-0.138158
C	 1.090487201	-0.6542300714	-0.8884260081	 0.392959
O	 0.7517412137	-1.2760685753	-2.0761238512	-0.463135
C	 2.5021907018	-0.2698932899	-0.5529929993	-0.353388
C	 1.783359277	-1.2907968088	 0.3122327082	-0.228856
C	 0.8356626137	-0.5494462212	 1.2284143766	 0.474746
C	 1.0337715209	-0.0502458737	 2.5899437457	-0.272781
O	 0.1684114557	-1.166679814	 2.3117100047	-0.286309
H	 0.7610026867	 2.1117058183	-0.0217992263	 0.114285
H	-0.6523709806	 1.7950524672	-1.0398858306	 0.116215
H	-0.8348919128	 1.9023592186	 0.7123241146	 0.123226
H	-0.8838759946	-0.5000885795	-0.0464595472	 0.101522
H	 0.9150625262	-0.6615491944	-2.7997350706	 0.287302
H	 3.2453402399	-0.7006119963	-1.2170684223	 0.11718
H	 2.7606058196	 0.710033058	-0.1585450031	 0.108222
H	 2.1488989144	-2.2994676874	 0.4551261235	 0.10828
H	 1.9488933458	-0.2930374929	 3.1288314691	 0.113837
H	 0.5265511685	 0.8551299183	 2.9213296388	 0.11199
