19
gdb 68764	2.43206	1.72331	1.19296	3.0167	75.53	-0.2351	-0.0236	0.2115	1083.7834	0.157493	-423.059266	-423.050301	-423.049357	-423.092615	33.741	
C	-0.1577270567	 1.5003087438	-0.003470709	-0.483855
C	 0.1263461991	 0.0237556054	-0.014219703	 0.341926
C	 0.3074770266	-0.7014380353	-1.3463173365	-0.283974
C	 0.8394300783	-2.1005179548	-0.97150599	-0.340161
C	 1.4611624104	-1.931715613	 0.4178461508	 0.382702
O	 2.3286555118	-2.6089341599	 0.9088128907	-0.317049
C	 0.8396074025	-0.7097583766	 1.0606693487	 0.22503
C	 1.4022919615	-0.1716577941	 2.3409031506	-0.497441
O	-0.6039976934	-0.7843710725	 0.9170441913	-0.328188
H	 0.6468006422	 2.052748549	-0.4997296811	 0.12688
H	-1.0887238119	 1.7081387051	-0.5424979329	 0.132768
H	-0.2669325757	 1.8770164585	 1.0153890284	 0.134568
H	-0.6335718645	-0.7355262072	-1.9041611135	 0.113745
H	 1.0335796688	-0.1578059522	-1.9610736091	 0.111014
H	 0.0278604811	-2.831170595	-0.8971990185	 0.14492
H	 1.5787804395	-2.4989102828	-1.6684872641	 0.128863
H	 2.4467404741	 0.1244441087	 2.2041353421	 0.134246
H	 0.8308334808	 0.6885874444	 2.6944193957	 0.128195
H	 1.3804359654	-0.9471125611	 3.1122924593	 0.145812
