20
gdb 121011	3.24548	1.01824	0.82342	3.9861	82.32	-0.2343	-0.0251	0.2092	1438.1388	0.171513	-403.203626	-403.194493	-403.193549	-403.238613	33.134	
C	 0.0284282193	 1.5480310488	 0.0405400117	-0.377901
C	 0.0988046314	 0.020036245	 0.0932836308	-0.175176
C	 0.5960030828	-0.580353602	-1.2290788271	-0.155308
N	 0.6670721314	-2.0255092501	-1.2285640324	-0.091366
C	 1.6846364206	-2.7977154479	-0.554097991	-0.222845
C	 1.327793928	-4.2145320615	-0.9179673418	-0.082468
C	 0.2480283411	-4.226043326	-1.6995431412	-0.1802
C	-0.212901952	-2.8255321369	-1.9340337358	 0.399619
O	-1.1526791682	-2.4355043559	-2.5996510763	-0.404563
H	 1.0123036893	 1.9857549019	-0.1628915091	 0.114088
H	-0.6526736841	 1.8848378837	-0.7484432741	 0.124215
H	-0.3291667741	 1.9612232783	 0.9881050226	 0.116394
H	 0.760415441	-0.2907342192	 0.9120947992	 0.092339
H	-0.8904309421	-0.3967620733	 0.3145743187	 0.114722
H	-0.089926901	-0.3143979221	-2.0392617202	 0.141317
H	 1.5835536389	-0.1661726915	-1.4783632453	 0.095337
H	 2.6959464129	-2.5304994299	-0.8987485915	 0.12266
H	 1.6710326567	-2.6467047327	 0.5357663262	 0.125934
H	 1.898848176	-5.0630238765	-0.5647447007	 0.119285
H	-0.2622348479	-5.0745493622	-2.1320283026	 0.123917
