19
gdb 115118	2.90343	1.22023	0.90381	4.3963	76.09	-0.2291	-0.0868	0.1423	1297.3413	0.158349	-423.073554	-423.064552	-423.063608	-423.107737	33.103	
C	 0.2570747131	 1.6520963396	 0.1114113311	-0.393555
C	 0.0790730277	 0.1305728282	 0.0920941164	-0.186162
C	 0.5003048861	-0.5257435645	-1.2275689565	-0.093744
C	 0.6156483285	-2.0701311788	-1.1999450383	-0.254994
C	 0.5729610393	-2.5176519384	-2.6755700836	-0.338438
C	-0.3465648856	-1.5116532226	-3.3499852698	 0.329074
O	-0.9297318515	-1.6110679702	-4.3944573153	-0.276574
C	-0.4288004662	-0.2667873846	-2.4082192846	 0.303424
O	-1.1400803394	 0.6811707167	-2.6122163071	-0.285999
H	 1.3065801988	 1.9267973474	-0.0449165305	 0.109776
H	-0.3381098389	 2.1218533902	-0.6741513449	 0.151769
H	-0.0536074393	 2.0665532168	 1.0751394254	 0.1135
H	 0.66411277	-0.3223730343	 0.9024409476	 0.098154
H	-0.9696744923	-0.123279065	 0.2909319214	 0.106549
H	 1.4810379699	-0.1222669891	-1.5323411341	 0.107711
H	 1.5166220874	-2.4043311193	-0.6810521014	 0.114973
H	-0.2428026214	-2.4871545377	-0.659729261	 0.117886
H	 1.5652115993	-2.4260976424	-3.1385976136	 0.138457
H	 0.2340581045	-3.5429636618	-2.8381911211	 0.138192
