18
gdb 55071	3.46136	0.85744	0.78079	6.0055	74.3	-0.2426	-0.0164	0.2262	1469.1374	0.145473	-439.118119	-439.108125	-439.107181	-439.155067	34.359	
N	 0.0274774104	 1.2787430098	 0.128295493	-0.535606
C	-0.0123887522	 0.0681623041	-0.5007033919	 0.426183
O	 0.9055834449	-0.3259603127	-1.2006712499	-0.375249
C	-1.262493507	-0.7224909302	-0.2566444435	-0.14774
C	-1.6659243063	-1.7426795804	-1.3023541086	-0.280446
C	-1.1841288125	-2.2195239877	 0.0326163478	-0.015175
C	 0.1339952636	-2.9555481803	 0.1845063518	-0.314548
C	-0.040657667	-4.4455483223	-0.0302472619	 0.169826
O	 0.6971307006	-5.141003685	-0.6776612291	-0.237009
H	 0.8338465908	 1.8631891342	-0.0180130451	 0.263114
H	-0.7307286835	 1.6267306538	 0.6869501996	 0.258941
H	-2.0624038704	-0.1931044792	 0.2520698297	 0.079902
H	-2.7173719297	-1.8280381993	-1.5511212867	 0.116398
H	-0.9769842895	-1.8347289307	-2.1351623172	 0.150571
H	-1.9596687668	-2.5604026917	 0.7151671999	 0.094515
H	 0.8922779717	-2.5712305561	-0.4983044223	 0.165847
H	 0.5090358951	-2.8255807094	 1.2116821691	 0.118251
H	-0.9313299123	-4.8835848769	 0.4827609154	 0.062226
