14
gdb 75083	2.35377	1.81357	1.03346	4.661	65.93	-0.2564	-0.0443	0.2121	1061.4883	0.101675	-470.07164	-470.06373	-470.062786	-470.104324	28.813	
N	 0.0218802441	 1.360508823	 0.082934738	-0.580859
C	-0.0234010817	-0.0125767235	 0.0100544642	 0.452512
N	-1.0926774605	-0.7100708595	 0.0501676099	-0.318586
C	-0.6916021371	-2.1090078694	 0.0411073089	-0.293468
C	 0.8332370648	-2.1349255057	-0.0686432028	 0.404176
O	 1.5863549837	-3.0595009031	-0.1319346127	-0.304169
N	 1.189192958	-0.7431293923	-0.0576973973	-0.205861
C	 2.4802962069	-0.2135390369	 0.0434674248	 0.15949
O	 3.4935233242	-0.8467860027	-0.0538795467	-0.258948
H	 0.6700618394	 1.8209360548	-0.540720037	 0.264411
H	-0.9072763914	 1.7580280505	 0.035552525	 0.273841
H	-1.0011513435	-2.6316057512	 0.9544850558	 0.153205
H	-1.1396666055	-2.6495029508	-0.8002682188	 0.15252
H	 2.4581409887	 0.8730506267	 0.2436041887	 0.101737
