18
gdb 45485	2.91291	1.72697	1.52168	3.242	74.29	-0.2331	-0.0248	0.2083	933.5449	0.150844	-401.960389	-401.95371	-401.952766	-401.991496	27.326	
O	 0.0573934215	 0.0630097131	-0.5941932838	-0.325313
C	 0.0149214117	 1.191628291	-0.1723884046	 0.396662
C	-1.2542088259	 1.9765132007	 0.175952283	-0.322431
C	-0.7864817934	 3.2635607156	 0.8881956261	-0.064222
C	-0.6469455663	 3.0347457432	 2.4075462167	-0.20651
C	 0.6375923039	 2.1861454585	 2.5031759857	-0.176146
N	 1.494721245	 2.6320566756	 1.3728737962	-0.098151
C	 0.6903717512	 3.4364664504	 0.4596900087	-0.060716
C	 1.1985146744	 2.1031904004	 0.0158905908	-0.138086
H	-1.7380305716	 2.2166966278	-0.7788012688	 0.135758
H	-1.9585082893	 1.3651940235	 0.7476949577	 0.123621
H	-1.4115242468	 4.1234792284	 0.6437098284	 0.079679
H	-0.4990672903	 3.991837965	 2.9186041129	 0.107286
H	-1.5207403086	 2.549667975	 2.8519629429	 0.105445
H	 1.1853940946	 2.3634640264	 3.4322854667	 0.115559
H	 0.4355151063	 1.111243626	 2.4447169986	 0.121119
H	 1.0890274768	 4.383462872	 0.1101103469	 0.098048
H	 2.0730897069	 1.9371204875	-0.6052145041	 0.108397
