15
gdb 127440	3.23031	1.30043	0.93807	3.4504	76.29	-0.2712	-0.0544	0.2168	1198.2834	0.113397	-413.037486	-413.028847	-413.027902	-413.071499	29.666	
C	-0.1788838731	 1.3889519589	-0.0290947445	-0.337245
N	-0.0466966527	-0.0545898563	 0.0174129159	-0.015742
N	-0.1769534256	-0.8020272161	-1.0927971493	-0.277585
C	 0.0067669652	-2.0475613951	-0.6545658102	 0.338043
C	-0.04948817	-3.2327010655	-1.5570657164	-0.490375
N	 0.2482158538	-2.1359525848	 0.680302043	-0.341312
C	 0.2080382657	-0.8705955244	 1.0715643078	 0.271575
C	 0.3978713498	-0.3851556579	 2.3933475347	 0.245326
N	 0.5462797976	 0.0519907547	 3.4544261552	-0.338924
H	-0.0365483235	 1.7858990163	 0.976549214	 0.172822
H	 0.5749171032	 1.8064880643	-0.7000872706	 0.165024
H	-1.173039074	 1.6564281593	-0.3936075679	 0.16502
H	 0.8990309828	-3.7774405097	-1.5352843971	 0.148956
H	-0.8311771249	-3.9258896948	-1.2324619577	 0.148953
H	-0.2557906843	-2.916283299	-2.5804637569	 0.145465
