23
gdb 64123	2.7248	1.25315	1.17543	1.748	81.45	-0.2376	0.0625	0.3002	1225.9517	0.20314	-425.449171	-425.439005	-425.438061	-425.483444	39.318	
C	-0.2824425941	 1.4787105883	-0.1410512351	-0.448049
C	 0.0375388073	-0.0098881758	-0.0201692483	 0.360576
O	-1.169265948	-0.7658857656	 0.1311689526	-0.464037
C	 0.8863440087	-0.562140063	-1.1763561334	-0.105687
O	 1.484700396	-1.7483356268	-0.7016031897	-0.298413
C	 1.6292808045	-1.6985143053	 0.740466828	 0.400991
C	 0.945605961	-2.947897347	 1.3028229602	-0.41953
C	 3.123957048	-1.688122519	 1.072120194	-0.424713
C	 0.9221316559	-0.3881648001	 1.1758868167	-0.292719
H	 0.6275467068	 2.083456196	-0.2017881768	 0.116149
H	-0.8761472006	 1.6759113628	-1.0421081079	 0.106477
H	-0.8659516105	 1.8102397567	 0.7222470636	 0.128399
H	-1.6680937537	-0.6996170701	-0.6900512571	 0.27604
H	 0.282414901	-0.8024895299	-2.060535816	 0.088595
H	 1.6437676994	 0.1808065793	-1.479801074	 0.078775
H	 1.3775129137	-3.8456216258	 0.8501921934	 0.113789
H	 1.0799456254	-3.0116617436	 2.3880570877	 0.102499
H	-0.122496931	-2.9195849743	 1.0794113834	 0.135473
H	 3.6185677038	-0.8308643723	 0.6045676332	 0.108584
H	 3.2833371264	-1.627962821	 2.1542327508	 0.10987
H	 3.6029608121	-2.6004921186	 0.7047734404	 0.11917
H	 1.6545108953	 0.4038254166	 1.3592135181	 0.093162
H	 0.3216315927	-0.5152397414	 2.0787608661	 0.114599
