18
gdb 64142	3.27612	1.11745	1.03752	5.0326	71.54	-0.2731	0.0129	0.2859	1203.9422	0.146994	-439.100152	-439.091213	-439.090269	-439.134424	33.234	
C	 0.3101602969	 1.431843205	-0.1599904236	-0.44903
C	-0.1386838838	-0.0173546072	 0.035454635	 0.394473
O	-1.5536447144	-0.1161674537	 0.0952686446	-0.470436
C	 0.4764590208	-0.9471019729	-1.0331766966	-0.14466
O	 1.78228278	-1.2423864449	-0.5513643784	-0.240802
C	 1.6694130148	-1.4531269234	 0.8526343598	-0.029896
C	 0.4348920849	-0.6387960278	 1.3326353222	-0.300473
C	 1.536830837	-2.8936556884	 1.1540906487	 0.278017
N	 1.4355522247	-4.0195674788	 1.3935568162	-0.322313
H	 1.4009458412	 1.4948548271	-0.2182245699	 0.136118
H	-0.0947535659	 1.8400930796	-1.0942032876	 0.111352
H	-0.0359308247	 2.0573011594	 0.6678045892	 0.129085
H	-1.9240299844	 0.407606517	-0.6228495819	 0.281884
H	-0.1385380386	-1.8542894616	-1.1216908913	 0.115522
H	 0.5892669457	-0.4876001911	-2.0184937954	 0.110198
H	 2.6016364198	-1.1044886604	 1.30656536	 0.131631
H	 0.7182402701	 0.1166119214	 2.0670909998	 0.120759
H	-0.323865094	-1.2836537292	 1.7772432393	 0.148573
