15
gdb 110787	2.82293	1.54564	1.3187	5.2856	60.92	-0.2678	0.0387	0.3065	991.6211	0.112257	-494.904	-494.8964	-494.895455	-494.936655	27.611	
C	 0.185493725	 0.9284730021	 0.367847665	-0.241219
O	-0.4233477049	-0.0890744167	-0.4196671485	-0.229253
C	 0.4200544049	-0.6269277165	-1.3638385252	 0.047075
C	 1.4700806404	-1.6508533419	-0.9559549787	-0.009859
O	 1.3064713784	-2.1903697963	 0.3333352525	-0.24242
C	 0.1186960116	-2.8662927956	 0.409750607	 0.509382
O	-0.3010657367	-3.3897333735	 1.3870348322	-0.361842
O	-0.504847424	-2.8510585555	-0.8039970421	-0.233577
C	 0.2400810805	-2.0830167391	-1.714625523	 0.001448
H	 1.0537989689	 0.5404911633	 0.9133447654	 0.133566
H	 0.4990396378	 1.7777613832	-0.2550039708	 0.113255
H	-0.5703994055	 1.2650333162	 1.0791468038	 0.143877
H	 0.7072426105	 0.0224400747	-2.1938700255	 0.106952
H	 2.4929926872	-1.6613067186	-1.3091097144	 0.129042
H	 0.1963239959	-2.4525718357	-2.7303729877	 0.133573
