19
gdb 103980	2.60394	1.371	1.26815	2.8974	70.85	-0.2351	0.064	0.299	1096.7183	0.156988	-460.112664	-460.103569	-460.102625	-460.145838	35.121	
C	-0.1284856148	 1.6004294812	 0.1777083274	-0.45363
C	-0.0434111889	 0.0871361701	 0.156207009	 0.31009
C	-1.389751972	-0.5748398098	-0.154636375	-0.082114
O	-1.7969428113	-0.263723556	-1.4729930454	-0.426005
O	 0.9101947204	-0.4101997933	-0.8620785195	-0.346688
C	 1.5637835115	-1.2226457389	 0.1165569637	 0.045485
C	 2.2189258151	-0.3599337873	 1.1638179597	-0.37393
C	 0.7394518689	-0.668806529	 1.2432785172	 0.266134
O	 0.143319262	-1.3215756902	 2.3045872626	-0.45347
H	 0.8587162262	 2.0591664484	 0.2662896655	 0.11804
H	-0.6023698844	 1.9569279268	-0.740689099	 0.142353
H	-0.7434037098	 1.9265463288	 1.0240185911	 0.11593
H	-1.3033459303	-1.6598591021	-0.0008317011	 0.096547
H	-2.1668808249	-0.2019546387	 0.5199133098	 0.106794
H	-1.0533963718	-0.5157204252	-2.0357555849	 0.29061
H	 1.8737263604	-2.222499699	-0.1608185172	 0.114366
H	 2.8076556281	-0.9139583656	 1.8897012306	 0.119736
H	 2.5972545994	 0.6245238821	 0.9055106313	 0.11743
H	 0.2367859664	-0.7731597923	 3.0913273145	 0.292321
