18
gdb 114417	3.31536	1.06995	1.04024	2.6089	71.71	-0.232	-0.0313	0.2007	1213.2627	0.147196	-439.0409	-439.032519	-439.031575	-439.074711	31.274	
O	 0.8821779967	-0.1659886632	 0.4592205907	-0.414234
C	-0.0379249204	 0.292316966	-0.5174298577	-0.088482
C	-1.3389054585	-0.4987685575	-0.4536314061	 0.038843
C	-2.2728308266	-0.2464318487	 0.7611873114	-0.278542
C	-3.379478602	 0.0849359336	-0.2722629195	-0.096939
N	-2.4385835343	-0.178127478	-1.4379887949	-0.1601
C	-2.5285273965	 1.2515176928	-1.8800773883	-0.313099
C	-3.4776671416	 1.5565865484	-0.7032196907	 0.38983
O	-4.052371567	 2.5219916209	-0.2994522193	-0.28084
H	 1.1076101164	-1.0784901849	 0.2498730911	 0.286251
H	-0.2031321958	 1.3481708918	-0.2809428421	 0.114836
H	 0.3804491365	 0.2419872404	-1.5359347446	 0.099723
H	-1.0837809588	-1.5608892979	-0.5644214363	 0.076407
H	-2.4824771782	-1.1195717832	 1.3804510575	 0.118476
H	-1.9785141318	 0.5791240136	 1.4138972277	 0.127006
H	-4.3163083997	-0.4761606223	-0.2200994707	 0.104372
H	-1.6001714547	 1.8278566164	-1.9235893968	 0.135706
H	-3.0228261439	 1.3339537718	-2.8550781713	 0.140785
