16
gdb 67547	2.67787	1.73958	1.43405	3.0191	68.33	-0.227	-0.0268	0.2002	939.2477	0.123479	-437.822952	-437.815313	-437.814369	-437.855082	29.662	
O	 0.2772468333	 1.3920760893	-0.1770826528	-0.482349
C	 0.0899144289	 0.022259066	-0.0919847932	 0.324619
C	 0.3325753785	-0.6993253233	-1.4404875955	-0.097021
N	 0.2688472247	-2.1610672792	-1.2186660112	-0.342415
C	-0.9838759173	-1.3818045604	-1.3793840329	-0.050556
C	-1.3064076267	-0.7556365325	 0.0015510806	-0.121591
C	-0.8108258156	-1.5330368187	 1.2546741194	-0.360119
C	 0.4611361213	-0.661184007	 1.2399204705	 0.338879
O	 1.2533997085	-0.3344395016	 2.0794015719	-0.314942
H	 0.55067991	 1.7033741456	 0.6948563153	 0.297509
H	 0.8836914865	-0.2655756403	-2.265826529	 0.105849
H	 0.4706274728	-2.6093298133	-2.111434347	 0.237803
H	-1.6861595538	-1.6183236652	-2.1688191973	 0.100136
H	-2.2367635915	-0.1981405662	 0.0798805916	 0.091302
H	-1.4010418539	-1.3789339476	 2.1622142897	 0.125129
H	-0.6277382156	-2.5974378754	 1.1062600398	 0.147767
