16
gdb 65846	2.65013	1.38104	1.25791	2.0729	71.97	-0.2686	0.0145	0.2831	1075.9975	0.122232	-437.866273	-437.857726	-437.856782	-437.899437	32.032	
C	 0.069643763	 1.5202012063	 0.0045334439	-0.429582
C	 0.0217994903	 0.0035115873	-0.0063822794	 0.204187
O	 0.7284163184	-0.4840673965	-1.1288412885	-0.255789
C	 1.2835570533	-1.7349244074	-0.7452414276	-0.180338
C	 1.4496801286	-1.6067467324	 0.7539928196	 0.382647
N	 2.1261514619	-2.3615620627	 1.4993273294	-0.533941
O	 0.7349920952	-0.5082125284	 1.1422397995	-0.242985
C	-1.3567683731	-0.5204105199	 0.0233215827	 0.375119
C	-2.4812460428	-0.94202105	 0.030254953	-0.473023
H	 1.1132106535	 1.8411491514	 0.0070845213	 0.137109
H	-0.4288951842	 1.9056313016	-0.8872675204	 0.145858
H	-0.4382966127	 1.9045440527	 0.8910296044	 0.143564
H	 0.6135060066	-2.5708759967	-0.9884752172	 0.137277
H	 2.2363616943	-1.8765242767	-1.2566194389	 0.150458
H	 2.0585487627	-2.0719008635	 2.4758671706	 0.230403
H	-3.4752937953	-1.3176061351	 0.0391552477	 0.209034
