18
gdb 87587	2.59512	1.46041	1.27239	2.3108	72.28	-0.2326	0.0751	0.3078	1061.8735	0.147442	-439.00685	-438.998662	-438.997718	-439.039429	32.087	
O	-0.1212365129	 1.4102170294	-0.098178684	-0.424431
C	-0.0396593685	 0.015837415	-0.0463951731	 0.046528
C	-0.4411395937	-0.7035129109	 1.2258599915	-0.418767
C	-1.3298295952	-0.718946848	 0.0103745615	 0.352603
C	-2.7259090405	-0.1591606513	-0.112954854	-0.144604
N	-2.9932239271	-0.0783121955	-1.5763183549	-0.356252
C	-3.1787919536	-1.3655598679	-0.8613106147	-0.077105
C	-1.7614908541	-1.9730319445	-0.8115997607	 0.04552
O	-1.1309143201	-2.2064035871	-2.0373816411	-0.438203
H	 0.6411868869	 1.7681757318	 0.3686619381	 0.287171
H	 0.7503618429	-0.4323756408	-0.6495908446	 0.095256
H	 0.0793693871	-1.6157752798	 1.5026839539	 0.112926
H	-0.7500173884	-0.0793790392	 2.0591460713	 0.111752
H	-3.2657077373	 0.4633990236	 0.5882389406	 0.098946
H	-3.9145506795	 0.3389723089	-1.7009496102	 0.232808
H	-4.1323578954	-1.8783905058	-0.8663999305	 0.094068
H	-1.7019137412	-2.8945988886	-0.2268082061	 0.089298
H	-1.3243322995	-1.4229034594	-2.5718819129	 0.292488
