18
gdb 90478	2.33668	1.82359	1.39799	2.9556	72.43	-0.2356	-0.0506	0.185	980.0134	0.148837	-439.06986	-439.062138	-439.061194	-439.101889	30.194	
O	-0.4992199754	 1.3984437444	-0.0300793633	-0.439941
C	-0.4200703724	 0.0145167538	 0.2003091069	 0.141485
C	-1.7703823318	-0.7508013535	 0.0108186904	-0.275789
C	-1.4444004021	-1.9470407569	-0.8638582358	-0.040661
C	-1.0918123387	-1.7506288399	-2.3305351828	-0.100454
C	-1.4004904747	-0.496384312	-3.0447895912	 0.146679
O	-1.2351387305	 0.6423375118	-2.6533716806	-0.296182
N	-0.0554172323	-1.936756058	-1.2840689475	-0.108901
C	 0.5916231075	-0.7286098575	-0.7283704107	-0.202789
H	-0.7537585046	 1.495318295	-0.9590260048	 0.300147
H	-0.0940965698	-0.0797106888	 1.2405065316	 0.090886
H	-2.1790056005	-1.093098777	 0.9651416462	 0.11149
H	-2.508606125	-0.0787429326	-0.4335672103	 0.125338
H	-1.867639666	-2.9168798129	-0.6130976045	 0.106547
H	-1.1842932443	-2.6246136387	-2.971565406	 0.104748
H	-1.8355111217	-0.670127772	-4.0522361997	 0.096512
H	 0.9472185211	-0.0613986561	-1.5157450049	 0.125896
H	 1.4646663813	-1.077897629	-0.169781963	 0.114989
