18
gdb 17859	4.20722	1.69534	1.48341	2.0227	72.49	-0.23	0.0854	0.3154	911.4044	0.15329	-347.711145	-347.703924	-347.702979	-347.74233	28.381	
C	-0.0546997758	 1.5542031291	-0.0680627828	-0.405504
C	-0.0027269673	 0.0419785749	-0.0122726575	-0.102656
C	 1.3273827891	-0.68872083	-0.2098097036	-0.391176
C	 0.6610036426	-0.6692936375	 1.1172747402	 0.467729
C	 1.1459497615	-0.2773066103	 2.5222688746	-0.045618
C	-0.2329059817	-0.6988144597	 3.0913587011	-0.21815
C	 0.2596843935	-1.7806527177	 2.0966064255	-0.050042
O	 1.6090215325	-1.6766473199	 2.7100525922	-0.31116
H	 0.8440128818	 1.9945459021	 0.3765230787	 0.114782
H	-0.1214162687	 1.9100153855	-1.101986584	 0.120244
H	-0.92058025	 1.9475534624	 0.4762854362	 0.117387
H	-0.8703579272	-0.4556642392	-0.441288156	 0.085358
H	 1.3296959381	-1.612302795	-0.7798536145	 0.11431
H	 2.2160149832	-0.0795559149	-0.3476505609	 0.113889
H	 1.8167704093	 0.5218188873	 2.8378372452	 0.094239
H	-0.2215605488	-1.0019104497	 4.1390490325	 0.104782
H	-1.1087099363	-0.1057111241	 2.8169120661	 0.097613
H	-0.1312900358	-2.7792729831	 1.899982037	 0.093972
