15
gdb 126076	3.96245	1.13636	1.04925	2.3927	67.06	-0.2749	-0.0356	0.2393	1147.7276	0.112675	-453.922846	-453.915233	-453.914289	-453.955795	27.469	
C	 0.0328817719	 1.5183256791	-0.2827376815	-0.435154
C	-0.0411632512	 0.053023736	 0.0464916872	 0.084518
O	 1.1603213149	-0.7109431323	-0.05403748	-0.238211
C	 0.585045791	-0.5694238111	 1.2392096926	-0.055547
C	 1.339693861	 0.189292	 2.2593703236	 0.368941
N	 2.336725087	 0.9982497861	 2.0020097938	-0.179277
O	 2.7069204679	 1.4671974178	 3.2693280278	-0.145003
C	 1.8885745129	 0.8763664727	 4.138386192	 0.10736
N	 1.0244266012	 0.0774931053	 3.6013669689	-0.312497
H	 0.9039926746	 1.9850541382	 0.1805380299	 0.158994
H	 0.1038662211	 1.6507876988	-1.3671821704	 0.1348
H	-0.8742334489	 2.0279842949	 0.0590743897	 0.124016
H	-0.9195791381	-0.4690897293	-0.338817553	 0.100636
H	 0.123218367	-1.4660719029	 1.6509378337	 0.115593
H	 2.0245947378	 1.1127476268	 5.1836011956	 0.17083
