18
gdb 94301	3.44189	1.16922	1.02621	1.1543	73.58	-0.26	0.021	0.281	1198.4957	0.146835	-439.070412	-439.06206	-439.061116	-439.103756	31.35	
C	-0.1418414615	 1.5989299741	-0.1893224795	-0.415947
C	 0.2157473737	 0.129180818	-0.1531422105	 0.10612
O	 1.5324305575	-0.1418414824	-0.6988601122	-0.295828
C	 1.8973355452	-0.9462170932	 0.4399543218	-0.128464
C	 0.6164863705	-0.5416230651	 1.1764515872	 0.337237
C	 0.5837960817	 0.1355410278	 2.5583978086	-0.43987
C	-0.3008623563	-1.0329852803	 2.9342239594	 0.428313
N	-0.8926184253	-1.4035368435	 3.9730156798	-0.538479
O	-0.2454602546	-1.6054030979	 1.6741262673	-0.275066
H	 0.5998184044	 2.1991566708	 0.3461634978	 0.123811
H	-0.1768533495	 1.9470522136	-1.2259162796	 0.137421
H	-1.1271708769	 1.7673940062	 0.2583032558	 0.126015
H	-0.5486425582	-0.4719864356	-0.6659565402	 0.091186
H	 1.9386683671	-2.0177044626	 0.2063982092	 0.11729
H	 2.8472914565	-0.6293591355	 0.8856075799	 0.110282
H	 1.537454966	 0.1789946792	 3.0877075613	 0.141413
H	 0.0986221581	 1.1117947152	 2.604183742	 0.143585
H	-1.4041581283	-2.2744733087	 3.8208221618	 0.230981
