15
gdb 26828	3.45326	1.17538	0.88237	5.3732	78.97	-0.2142	-0.0574	0.1568	1251.702	0.11192	-453.995377	-453.986679	-453.985735	-454.029292	30.788	
C	-0.0720330889	 1.5279849057	 0.0620370663	-0.504563
C	-0.0317292635	 0.0367741626	-0.0039306554	 0.191288
C	 0.0350587218	-0.7851306092	-1.1107217813	 0.303078
N	 0.0296572976	-0.5584520808	-2.4620490749	-0.59656
O	 0.0400037655	-2.0674521666	-0.7065798392	-0.173767
C	-0.0265736196	-1.9970676239	 0.6664308583	 0.260641
C	-0.0289936595	-3.2162574157	 1.4555140303	 0.068338
O	 0.0247893042	-4.3403851099	 1.0058059244	-0.284541
N	-0.0709551924	-0.7702274009	 1.1055769894	-0.30993
H	 0.4590697391	 1.9841947712	-0.7808884565	 0.113191
H	-1.0978939464	 1.9154477982	 0.0518621754	 0.14163
H	 0.4022568753	 1.8726641376	 0.9840758931	 0.151832
H	 0.3251878059	 0.3659778386	-2.73824586	 0.268561
H	 0.4500370684	-1.2912739244	-3.016375039	 0.274166
H	-0.0863811874	-3.0000660325	 2.5413183191	 0.096635
