14
gdb 25049	5.65874	1.0163	0.86156	3.1582	84.19	-0.216	-0.0481	0.168	1243.6021	0.102394	-399.591459	-399.584049	-399.583104	-399.623331	28.571	
O	-0.0489828804	-0.0982765484	 0.0041036114	-0.391221
C	 0.0200608215	 1.1176465811	 0.0091344273	 0.430298
N	-1.1643264401	 1.8911043423	 0.028506536	-0.356702
C	-1.2299067506	 3.2433656942	 0.0359306602	-0.036106
C	-0.0876164027	 4.0025209909	 0.0245399504	 0.064102
C	 1.1627886237	 3.2939950573	 0.0045907284	-0.127325
C	 1.2179280527	 1.9369848816	-0.0027228838	-0.241518
C	-0.1432848808	 5.4209563641	 0.0321545956	 0.227844
C	-0.1671251319	 6.6253262711	 0.0383053847	-0.425636
H	-2.0136117533	 1.3423112386	 0.0370479201	 0.267363
H	-2.2190632719	 3.683561797	 0.0511188245	 0.147026
H	 2.0773734423	 3.8776386358	-0.004657157	 0.122441
H	 2.1596260471	 1.4025299025	-0.0177597837	 0.123534
H	-0.1940130157	 7.6868436021	 0.0437979659	 0.195901
