20
gdb 79829	2.25036	1.80929	1.4085	2.2995	78.05	-0.2312	0.0735	0.3047	1030.1872	0.171943	-403.116042	-403.107992	-403.107048	-403.148121	32.058	
C	-0.0586144138	 1.5169775616	-0.0279183625	-0.51807
C	 0.0496170712	 0.0256502649	 0.0162044166	 0.344445
C	 0.5641021774	-0.9957426956	-0.951510152	-0.101551
C	 1.3068064629	-1.7377106027	 0.1612340331	 0.115664
O	 2.6740274861	-1.3876863754	 0.0712231904	-0.444772
C	 0.5003148672	-0.8922421065	 1.2002892644	-0.133657
C	-0.7718205737	-1.6332100383	 1.6163740029	-0.237146
C	-1.4815827286	-1.8291415563	 0.2501838666	-0.160679
N	-0.8772832966	-0.8529179498	-0.6854875304	-0.143914
H	 0.903686252	 1.9858930517	 0.2022346467	 0.124676
H	-0.3750783915	 1.8437683244	-1.0222243478	 0.133209
H	-0.7944850074	 1.8838595936	 0.6977363948	 0.116905
H	 0.9107204567	-0.9006221578	-1.9755137168	 0.091749
H	 1.1846201738	-2.8306496833	 0.224656265	 0.054851
H	 3.1228992415	-1.746183119	 0.8436078203	 0.281505
H	 1.0983365421	-0.4622369128	 2.0048140748	 0.064906
H	-0.5605166504	-2.5830204731	 2.1189113455	 0.096193
H	-1.3791407503	-1.0252353722	 2.2958105585	 0.100703
H	-1.3603813672	-2.842833939	-0.1441092363	 0.107665
H	-2.5548923413	-1.6279391145	 0.3109522962	 0.107318
