15
gdb 34894	2.02842	1.92493	1.22724	2.2832	74.33	-0.2604	0.0017	0.2621	1016.2398	0.112374	-379.59469	-379.586797	-379.585853	-379.627294	29.565	
C	-0.0064425132	-1.263716173	-0.2450926301	-0.441336
C	 0.0091612855	-0.0670862217	-0.1348117391	 0.380546
C	 0.0258545208	 1.3699548431	 0.0202941225	-0.19267
C	-0.2803501896	 1.9932732845	 1.4438088832	-0.20149
C	-0.6015623181	 1.1190842097	 2.5605425135	 0.295663
N	-0.8444764497	 0.4162106005	 3.4455077417	-0.326031
C	 1.1344434552	 2.5750308046	 1.3738607983	-0.030269
C	 2.1422916768	 1.5306597652	 1.1250856681	-0.244732
N	 1.3808481766	 2.0499558256	-0.0272006038	-0.122935
H	-0.0252044343	-2.3213812068	-0.3449241332	 0.213145
H	-0.6104676739	 1.841299723	-0.7316964482	 0.128488
H	-1.0505543556	 2.7616535884	 1.3550141583	 0.13928
H	 1.3812340322	 3.5914373633	 1.6581194837	 0.117194
H	 3.1809140983	 1.8432579623	 1.1065905095	 0.136761
H	 1.9742491392	 0.5096588513	 1.4563179557	 0.148385
