18
gdb 56033	4.21562	0.93474	0.80065	2.9291	68.24	-0.2407	0.0314	0.2721	1379.3551	0.148469	-476.25523	-476.246396	-476.245452	-476.29029	31.671	
N	 0.4418697386	 0.2403384162	-0.8641005762	-0.50824
C	-0.1129452863	 0.1069340607	 0.3733073308	 0.365575
O	 0.1739074897	 0.8205012692	 1.3149457562	-0.358727
C	-1.176790413	-0.9920608205	 0.4803701663	-0.310585
C	-0.7467541123	-2.3702406893	-0.0229208673	 0.092983
C	-1.8208754265	-3.4635290432	 0.1661126664	-0.127295
O	-1.7181055296	-4.2477036354	-1.0125207221	-0.227639
C	-1.4130870283	-3.3249812087	-2.0187786142	 0.01986
O	-0.5254940999	-2.3765783857	-1.4469070456	-0.274417
H	 1.1969822219	 0.8982108987	-0.9686556692	 0.255908
H	 0.2847867383	-0.4608721892	-1.5714898496	 0.27075
H	-1.4444289044	-1.0562778462	 1.538350421	 0.131517
H	-2.0698478968	-0.6765664486	-0.073402515	 0.121775
H	 0.1953354978	-2.6667572112	 0.4535777699	 0.101774
H	-1.6403164695	-4.1074237234	 1.0282925234	 0.130113
H	-2.8228058553	-3.0148951709	 0.2540450712	 0.101457
H	-0.9137879592	-3.8423146351	-2.842915942	 0.12573
H	-2.3241065051	-2.8160339873	-2.3821667839	 0.089461
