16
gdb 30446	2.76409	1.47563	0.96854	4.4765	82.29	-0.1987	-0.0453	0.1534	1172.5362	0.124409	-434.087652	-434.079148	-434.078204	-434.121017	31.252	
C	-0.0904293732	 1.4572395808	 0.0166912152	-0.3226
N	-0.0094794334	 0.0089515672	-0.0150071224	-0.309386
C	-1.0755345984	-0.6714915172	 0.0073262875	 0.365695
O	-2.3297373528	-0.0373222845	 0.0566321793	-0.262327
C	-3.4631284914	-0.7719157539	 0.0819485737	 0.408673
N	-4.5743515058	 0.0229032695	 0.2048829211	-0.563995
C	-3.4221364588	-2.1296605136	 0.043208409	-0.161143
N	-2.225217169	-2.8061255158	-0.0024197131	-0.219029
C	-1.1297322274	-2.1239803589	-0.0175837503	-0.060297
H	 0.9194811356	 1.8730153891	 0.002316716	 0.122844
H	-0.6402142538	 1.8578873127	-0.8467869446	 0.115566
H	-0.6026087838	 1.8222451216	 0.9178905293	 0.120185
H	-4.4656597352	 0.9639214256	-0.144539545	 0.266412
H	-5.4512130968	-0.4096546464	-0.0409830446	 0.269058
H	-4.332052033	-2.7159149688	 0.0559543104	 0.100719
H	-0.173394473	-2.6365008973	-0.0541404618	 0.129624
