21
gdb 100959	2.56675	1.10289	0.89189	1.7294	74.74	-0.2484	0.0673	0.3157	1356.0284	0.179534	-461.327846	-461.317308	-461.316363	-461.36386	39.351	
C	-0.0165469478	 1.5487244851	 0.2514102902	-0.411364
C	-0.0552435065	 0.0343581381	 0.0087666393	-0.053376
C	-1.5208109722	-0.4360930272	-0.1040705012	-0.080545
O	-2.3067223178	-0.0787596402	 1.0231150333	-0.418179
C	 0.7547524535	-0.4678159001	-1.1934307174	 0.359014
O	 0.5522810154	-1.8360479683	-1.4841314775	-0.468351
C	 1.0909187904	 0.407063876	-2.3910184651	-0.398265
C	 2.1793575232	-0.0850675802	-1.4549392679	 0.072177
O	 2.8339179872	 0.789302593	-0.5849318271	-0.41804
H	 1.0013262325	 1.9049427509	 0.4039718587	 0.134702
H	-0.4562454491	 2.0924890124	-0.5926480966	 0.106339
H	-0.6207726111	 1.7831822144	 1.1304977699	 0.120794
H	 0.3711479713	-0.4688362852	 0.8908297976	 0.077398
H	-2.0010858253	 0.0517665662	-0.9618954253	 0.103466
H	-1.5547517954	-1.5209671452	-0.268715559	 0.087855
H	-1.961909531	-0.5605241979	 1.7821300968	 0.281938
H	-0.2565093783	-1.9151862831	-2.0007827198	 0.283813
H	 1.0309841266	-0.0363284599	-3.3793000015	 0.10966
H	 0.8340805913	 1.4584484133	-2.335613219	 0.119898
H	 2.7907292568	-0.9080411383	-1.8227681587	 0.101026
H	 3.4056399262	 1.358052986	-1.1110317299	 0.290042
