19
gdb 41154	2.85644	1.96502	1.47201	1.9711	74.59	-0.2301	0.0707	0.3009	936.0978	0.161524	-422.986207	-422.97938	-422.978435	-423.017077	28.455	
C	-0.0552189622	 1.523442999	 0.0534413569	-0.267052
C	 1.5055981677	 1.579049656	-0.0981407579	-0.34622
C	 1.4236971526	 0.1713248764	-0.6956245888	 0.411911
C	 2.2240298201	-1.1239071182	-0.8279502642	-0.341678
C	 1.2322936426	-1.2870739622	-2.0116486751	 0.056947
C	-0.1744440956	-1.759373387	-1.5805368293	-0.08437
O	-0.8416670705	-0.7715569153	-0.7919180816	-0.263261
C	 0.0592979695	-0.0218957034	-0.0132654764	 0.124324
O	 1.1657890955	 0.1593363563	-2.1316584169	-0.311165
H	-0.4994814905	 1.9614612341	 0.9482997852	 0.099764
H	-0.5525036123	 1.9081776542	-0.8378811477	 0.130685
H	 1.9306667847	 2.3469717562	-0.7463717445	 0.118445
H	 2.0201390079	 1.5906828031	 0.8662440563	 0.112154
H	 3.248919825	-0.9885919676	-1.1799115898	 0.109922
H	 2.1837175605	-1.8338725457	 0.0024829886	 0.097174
H	 1.5720427099	-1.7815333952	-2.9248386788	 0.083831
H	-0.8037963082	-1.9139156868	-2.4623492752	 0.116017
H	-0.1033958968	-2.7169510201	-1.0392953189	 0.090209
H	 0.1692708901	-0.4523399938	 0.9948876382	 0.062362
