21
gdb 83093	2.16274	1.91697	1.78778	0.1587	86.02	-0.2225	0.0111	0.2336	966.3579	0.18564	-349.973802	-349.966407	-349.965463	-350.004896	31.241	
C	-0.2747190804	 1.5284840959	 0.0095972967	-0.42429
C	 0.0449389846	 0.0363775011	 0.0143533526	 0.035911
C	 0.9581986125	-0.5047320851	-1.1194974459	-0.072134
C	 2.288452418	 0.2960955776	-1.1458541944	-0.256281
C	 2.8227700861	 0.5753559546	 0.2414956494	-0.037379
C	 2.1602005404	 0.2244552627	 1.3457000353	-0.063478
C	 0.8363508308	-0.5208650969	 1.2319936864	-0.109311
C	 1.1450011385	-1.9316910758	 0.7247230963	-0.07312
C	 1.2166552352	-1.9140782339	-0.6072805221	-0.072955
H	 0.6184320847	 2.1491576088	 0.1130577609	 0.123005
H	-0.7799743159	 1.8098359973	-0.9213710711	 0.107817
H	-0.9496802106	 1.7791541996	 0.835663507	 0.108816
H	-0.8988247925	-0.5190150514	-0.0395741692	 0.069824
H	 0.4844684593	-0.4742267853	-2.1058773982	 0.057052
H	 3.0431818631	-0.2486718627	-1.7310928068	 0.101757
H	 2.1397210981	 1.2477387851	-1.6759536898	 0.105229
H	 3.7834657436	 1.0807843196	 0.308374738	 0.082044
H	 2.5665644826	 0.4306333317	 2.3317582989	 0.08182
H	 0.2754449701	-0.4931901783	 2.169880039	 0.056572
H	 1.3614319313	-2.7704574724	 1.3760087656	 0.09153
H	 1.5011867706	-2.7421788222	-1.2466528285	 0.087571
