19
gdb 89129	4.13219	0.68333	0.63956	2.6081	73.32	-0.2463	-0.0273	0.2191	1734.4184	0.155801	-460.133796	-460.123827	-460.122883	-460.170567	34.833	
O	-0.3696374345	 1.4661299267	-0.1625983031	-0.430321
C	-0.1728577069	 0.0899541993	-0.2292794433	 0.1254
C	-0.5337801509	-0.7841949053	 0.9552783261	-0.352997
C	-1.3769182524	-0.799643372	-0.3065550989	 0.060904
O	-2.585394815	-0.0976471357	-0.3114435027	-0.268643
C	-3.655287155	-0.7630957107	 0.3468046663	-0.073832
C	-4.9128046641	 0.0883535947	 0.188656466	-0.292636
C	-5.3902421168	 0.1746372459	-1.2479102517	 0.164276
O	-6.5426093703	 0.0800692491	-1.5841511153	-0.237771
H	-1.3236369175	 1.6076941208	-0.2182404873	 0.291402
H	 0.7030881871	-0.1720585111	-0.8151348564	 0.105199
H	 0.0738758407	-1.6529885228	 1.1844387037	 0.117069
H	-0.9474576349	-0.266992518	 1.8146909098	 0.122861
H	-1.3693362468	-1.6849814516	-0.9414258754	 0.096371
H	-3.8017057135	-1.7608860578	-0.0948502297	 0.106604
H	-3.4193281363	-0.9062645757	 1.4102818809	 0.110532
H	-5.7274829303	-0.2967316097	 0.8077618151	 0.128643
H	-4.6808410297	 1.1074062292	 0.5281233544	 0.133881
H	-4.5820192428	 0.3392878348	-1.9930562985	 0.093059
