23
gdb 103839	2.48646	1.01447	0.96976	1.9623	82.78	-0.2468	0.0785	0.3253	1420.5681	0.20214	-425.40613	-425.395053	-425.394108	-425.442341	40.469	
C	-0.4555244932	 1.1979568049	-0.1054824531	-0.246666
O	-0.4363612863	-0.1797591064	-0.4244821377	-0.281798
C	 0.6537324881	-0.5902496229	-1.2092918018	 0.435535
C	 0.5802707486	-0.1648747669	-2.6604280454	-0.455412
C	 1.9930121644	-0.7173616069	-0.5212223447	-0.36454
C	 1.1860107285	-1.9550115655	-0.860314994	-0.088862
C	 0.5708966315	-2.7835525284	 0.2515596287	 0.126699
C	-0.5839309941	-3.6470490635	-0.257940306	-0.404649
O	 1.555635064	-3.5701841284	 0.9228212784	-0.433766
H	 0.4760404743	 1.5135068687	 0.3848096271	 0.109375
H	-0.613432008	 1.8292504273	-0.990894856	 0.108903
H	-1.2901950127	 1.3507306631	 0.5828988424	 0.126528
H	 0.6297873499	 0.9240774016	-2.7674347567	 0.118305
H	 1.4130206758	-0.5883304122	-3.2288610656	 0.11747
H	-0.3560557369	-0.5091544493	-3.1120599947	 0.124297
H	 2.8960028919	-0.5024033241	-1.082805801	 0.106203
H	 2.041127539	-0.4525906753	 0.5298362865	 0.121051
H	 1.5343285098	-2.5456685372	-1.7074228828	 0.06958
H	 0.1910924938	-2.1036699247	 1.0185699225	 0.094314
H	-0.9877463658	-4.2580093288	 0.5541192951	 0.118704
H	-1.3844898979	-3.0189270414	-0.6601371525	 0.129632
H	-0.24734174	-4.320366936	-1.0570508271	 0.097474
H	 1.9167101354	-4.1935657077	 0.2829644084	 0.271625
