12
gdb 976	3.76313	3.54653	1.84847	1.5706	52.49	-0.1975	0.0211	0.2186	638.8503	0.092357	-356.716094	-356.709739	-356.708794	-356.746043	23.293	
N	 0.1699028535	 1.403784106	 0.0980247883	-0.597731
C	 0.0027589042	 0.0335066134	 0.0265013361	 0.346316
C	-1.0928059259	-0.7737316832	 0.0133553965	 0.119784
N	-2.4342073389	-0.3329623402	-0.0256353194	-0.609528
N	-0.6615700337	-2.1031280409	 0.0430087342	-0.284142
C	 0.6228949299	-2.0278292119	 0.0613873471	 0.051713
O	 1.1140019045	-0.749608611	 0.0645975171	-0.174463
H	 0.8907068644	 1.7559698034	-0.5209776315	 0.255402
H	-0.7140779136	 1.8671126415	-0.0770285685	 0.264207
H	-2.9127600433	-0.5322952161	 0.8490338202	 0.242514
H	-2.9494856712	-0.8232163411	-0.7511524282	 0.242632
H	 1.3549908501	-2.8187939798	 0.0634605678	 0.143294
