21
gdb 91345	1.90966	1.6803	1.56439	3.1209	77.71	-0.2394	0.0578	0.2972	1057.4979	0.182053	-424.20114	-424.192145	-424.1912	-424.234303	35.34	
C	-0.2296140208	 1.5118838955	 0.0303557451	-0.508758
C	 0.0534178393	 0.0248811845	 0.0126746523	 0.30091
C	-1.1843094131	-0.8989237973	 0.2627971064	 0.051294
O	-1.4349114525	-1.8054977088	-0.8071079338	-0.439088
C	-0.4984952522	-1.502987074	 1.5240776098	-0.263599
C	 0.8084223041	-0.7736035581	 1.1525868296	-0.065075
C	 1.6478716736	-1.5024733916	 0.0636774173	-0.285894
C	 1.1004429399	-0.509720362	-1.0077626912	 0.123852
O	 0.7144568285	-0.9539663741	-2.2760400833	-0.444545
H	 0.6999786349	 2.0899218866	 0.0691517229	 0.115555
H	-0.7707176847	 1.8116298815	-0.8754735827	 0.128191
H	-0.8390570378	 1.8042643625	 0.8935747751	 0.108824
H	-2.0972137831	-0.3300385424	 0.4838451157	 0.072058
H	-2.0510508317	-2.4780887097	-0.5012805822	 0.289891
H	-0.9525035819	-1.1372162218	 2.4497398698	 0.100518
H	-0.4539467883	-2.5965551584	 1.5631592922	 0.091032
H	 1.3640684055	-0.2728158227	 1.9458359835	 0.062626
H	 2.7316862982	-1.4975344729	 0.1998375402	 0.096439
H	 1.3249420506	-2.5334390357	-0.1072358178	 0.095322
H	 1.8384161905	 0.2835007272	-1.1768118764	 0.079818
H	-0.048098819	-1.5307787683	-2.1381625225	 0.290629
