18
gdb 11308	4.86759	1.16253	1.00152	3.5326	68.69	-0.248	-0.0191	0.2289	1144.161	0.153767	-384.961468	-384.953292	-384.952348	-384.995285	29.733	
O	-0.0246842089	 1.4488115829	-0.0056113886	-0.435966
C	 0.0585026004	 0.0346462369	 0.0309727447	 0.14527
C	 0.6152023631	-0.551038783	 1.3397565768	-0.243538
C	 0.0511242516	-1.9755534513	 1.351677645	-0.235606
C	-1.412470939	-1.7991911455	 0.8544595197	-0.050411
C	-1.3653595942	-0.5535530116	-0.0792572942	-0.246305
C	-1.9022753031	-3.0355865928	 0.1410535743	 0.153095
O	-2.7914842174	-3.7558327737	 0.512464103	-0.251051
H	 0.8701540138	 1.8027320171	 0.0015459317	 0.28287
H	 0.6706320892	-0.3301388621	-0.8096180575	 0.065509
H	 1.7078788625	-0.5177054167	 1.397836142	 0.09178
H	 0.2124510876	 0.0308157816	 2.1774592984	 0.110409
H	 0.6119678576	-2.6047765826	 0.647139396	 0.103006
H	 0.0981184895	-2.464463191	 2.3273401812	 0.115657
H	-2.0764811684	-1.6252394096	 1.704641727	 0.095521
H	-2.0818248202	 0.2032213623	 0.2492000459	 0.12835
H	-1.6153509321	-0.8027733934	-1.1154837485	 0.106629
H	-1.343951862	-3.2528725276	-0.8037220168	 0.064781
