17
gdb 69170	2.17161	1.89513	1.27308	4.01	73.98	-0.2408	-0.0236	0.2172	1027.0647	0.134303	-421.793128	-421.784887	-421.783943	-421.825818	31.056	
C	 0.0119689796	 1.5345024565	-0.0031307091	-0.491692
C	 0.0152705	 0.0354810641	-0.0039200913	 0.248104
C	-0.8733249362	-0.8447764512	 0.8052705922	-0.334598
C	 0.628267796	-0.9569190025	 1.0394335267	-0.24554
C	 1.2541186293	-1.7295906972	-0.0871141617	 0.378632
O	 2.0990334368	-2.5745756849	-0.1598073097	-0.316003
C	 0.5873025627	-0.8165986116	-1.1349560891	 0.277256
C	 0.1661163109	-1.0268850131	-2.5210193866	-0.269828
O	 1.3422630912	-0.2697588393	-2.1968538619	-0.269158
H	 0.9749546543	 1.926756986	-0.3417741266	 0.143897
H	-0.7610347666	 1.9235756194	-0.6758954631	 0.13032
H	-0.1923906466	 1.9266236719	 0.9976068394	 0.125491
H	-1.4053644294	-0.3623544689	 1.619975317	 0.128958
H	-1.4180087195	-1.6658456159	 0.346779379	 0.124182
H	 1.0682653939	-0.7663246951	 2.0099884448	 0.116022
H	 0.3521812085	-1.9866997178	-2.9994808178	 0.133301
H	-0.6645630549	-0.4474260004	-2.9214807925	 0.120657
