20
gdb 15721	3.37207	1.58305	1.27804	1.7802	70.99	-0.2425	0.0678	0.3103	1033.6358	0.177023	-386.137767	-386.128945	-386.128	-386.171575	31.914	
C	 0.0828807594	 1.4369802097	-0.0611145657	-0.236088
O	-0.2277431563	 0.0684061448	-0.1694753109	-0.242863
C	 0.5283740231	-0.6127570739	-1.1380085463	 0.167508
C	 2.0178006453	-0.8470908973	-0.7965193115	-0.23208
C	 2.4203697826	-2.0996131331	-1.6233611015	-0.200727
C	 1.0959145163	-2.656639043	-2.2194693166	-0.237748
C	-0.0121780513	-2.0300822106	-1.3621612045	 0.088692
O	-0.1082208291	-2.6542793847	-0.0883027098	-0.433038
H	 1.1068667406	 1.6077277028	 0.3027762271	 0.106268
H	-0.0293937248	 1.9587300414	-1.0259481386	 0.097371
H	-0.618078824	 1.8716449457	 0.6559325272	 0.125474
H	 0.456294494	-0.0804736409	-2.1038961264	 0.05553
H	 2.6421801288	 0.021115131	-1.0208341909	 0.089917
H	 2.08913713	-1.0464306445	 0.2758529121	 0.121287
H	 3.1337533459	-1.8561653111	-2.4151080476	 0.09695
H	 2.9027619487	-2.8412624541	-0.9826535193	 0.107658
H	 0.9736969221	-2.3435242744	-3.2628466899	 0.098205
H	 1.0470501817	-3.7502409507	-2.2089387564	 0.086726
H	-0.9897023392	-2.0166420029	-1.8643532996	 0.060075
H	-0.3478191536	-3.5746395343	-0.2330655208	 0.280884
