19
gdb 120408	2.81752	0.97327	0.87294	1.5586	72.81	-0.2514	-0.0292	0.2222	1402.7759	0.156578	-460.149771	-460.139937	-460.138993	-460.18523	34.64	
C	-0.2279462442	 1.3139604873	 0.4158438513	-0.229581
O	-0.1099757423	-0.0653141619	 0.1565918163	-0.23632
C	-1.3576913073	-0.6968870025	-0.0277394685	-0.048134
C	-1.1076277081	-2.1675640283	-0.3075430136	-0.100064
C	-0.566072965	-2.9453929259	 0.937570972	-0.336284
C	-2.0205155231	-3.3537783041	 1.1908176392	 0.341937
O	-2.6978577457	-3.5357914111	 2.1644807482	-0.30912
C	-2.4209492771	-3.0333275807	-0.2509220277	 0.045823
O	-3.6744413508	-2.4506819584	-0.4619269667	-0.431598
H	 0.7822399499	 1.7103652477	 0.5430084995	 0.128488
H	-0.717094546	 1.8453173474	-0.4155691355	 0.106766
H	-0.8052416047	 1.509425649	 1.3333935884	 0.106249
H	-1.9873358653	-0.5753819678	 0.8719280083	 0.085937
H	-1.9116632019	-0.2423944866	-0.8639128711	 0.104331
H	-0.5209933283	-2.2822030646	-1.2198399215	 0.09005
H	 0.0670965016	-3.7957578262	 0.6696605183	 0.131409
H	-0.0771444771	-2.3621644483	 1.7192128766	 0.143276
H	-2.2949627543	-3.9158660634	-0.8945806117	 0.107604
H	-4.1383170003	-2.4737230917	 0.3850464782	 0.299232
