16
gdb 110195	2.94308	1.11318	0.89257	3.5501	67.07	-0.267	-0.0453	0.2217	1263.1925	0.12288	-475.041654	-475.032688	-475.031744	-475.076207	31.42	
O	 0.0357532463	 1.4115949052	 0.2079104711	-0.417658
C	 0.0705464473	 0.0429915799	-0.1307762981	-0.075888
C	-1.3438256141	-0.5340474287	-0.1111122766	-0.20217
C	-1.5541845892	-2.0914014862	-0.0647069831	-0.084452
N	-2.1023549832	-1.9154181461	 1.2755654557	-0.320181
C	-1.9578388574	-0.5534892827	 1.3068340369	 0.458603
O	-2.1579587665	 0.2904143253	 2.1430134004	-0.373031
C	-2.5029069807	-2.6500603993	-1.0977002536	 0.152246
O	-3.6267862906	-3.005517245	-0.8584434257	-0.239429
H	-0.4561475976	 1.4922417004	 1.0366823069	 0.303001
H	 0.5123239457	-0.0260969405	-1.1304568379	 0.114767
H	 0.7112940163	-0.5376201659	 0.5546044465	 0.094357
H	-1.9801722057	-0.0208370758	-0.836920609	 0.123624
H	-0.6111809082	-2.65558442	-0.0976717436	 0.111001
H	-2.5843400773	-2.5608642938	 1.8832975077	 0.266958
H	-2.071152805	-2.7113706468	-2.1223356376	 0.08825
