14
gdb 45830	2.70215	1.92801	1.2825	2.9786	62.47	-0.2712	-0.0475	0.2237	929.0126	0.102557	-473.832158	-473.825324	-473.82438	-473.864096	25.202	
O	 0.0045705569	-0.0304051387	 0.185050673	-0.293241
C	 0.0119714341	 1.1443725504	-0.0206076793	 0.442926
O	-1.1869930219	 1.8069030355	-0.1741795863	-0.212402
C	-1.2161460947	 3.1192405944	-0.5991070879	 0.138499
N	-0.2619366435	 3.8781506759	-0.9077086539	-0.237356
C	 1.0928442165	 3.4065734286	-0.7512409621	-0.054308
C	 1.7340118565	 3.9021733202	 0.5655906495	-0.074622
O	 1.593948196	 2.5882536167	 1.1614791616	-0.28395
C	 1.2582732383	 2.0031247841	-0.1145621957	-0.035158
H	-2.2501341761	 3.4460694635	-0.6641466284	 0.150044
H	 1.6544643409	 3.602137943	-1.6662241467	 0.108548
H	 2.7868270914	 4.1964993672	 0.4809768251	 0.114696
H	 1.1699820937	 4.6676000688	 1.1050540813	 0.128502
H	 2.0720166018	 1.3835117005	-0.5067850799	 0.107823
