16
gdb 24589	4.82847	1.07499	0.9673	2.8696	70.77	-0.238	-0.0012	0.2369	1201.1793	0.12613	-437.890817	-437.883392	-437.882448	-437.924186	26.659	
C	-0.2868797331	 0.9403280186	 0.4127992297	-0.060383
C	 0.7961685747	 1.0791910665	-0.6736518451	-0.288688
C	 1.7370339326	 0.457871195	 0.3987655837	 0.021221
O	 0.6336768575	 0.2725967439	 1.3080665192	-0.281154
C	 2.4025364164	-0.834094174	 0.1016926634	 0.323879
C	 2.0836142609	-2.1341867649	 0.3135948465	-0.186688
N	 3.1006965174	-2.9437838857	-0.1841128316	-0.254484
C	 3.9615922247	-2.1092676825	-0.6616059249	 0.067045
O	 3.6206400524	-0.803715007	-0.5272660872	-0.185435
H	-0.6470622392	 1.8851328532	 0.8370103199	 0.108418
H	-1.1468672248	 0.307085486	 0.1700723551	 0.113507
H	 0.6491492628	 0.4501456928	-1.5519357298	 0.122521
H	 1.0434186969	 2.0942586099	-0.9853179042	 0.118382
H	 2.4741131394	 1.1732514189	 0.7904845424	 0.095231
H	 1.2105155404	-2.5386554079	 0.797241153	 0.136776
H	 4.9027326909	-2.3149012328	-1.14678494	 0.149851
