18
gdb 75952	2.07108	1.87884	1.0809	3.4717	73.41	-0.2526	-0.0278	0.2248	1111.9772	0.147752	-439.127171	-439.118705	-439.117761	-439.160577	31.731	
C	-0.8835135501	 0.9771824037	-0.0312637737	-0.394851
C	 0.2527597133	-0.0367587953	 0.0333622756	-0.191016
C	 1.0390133673	-0.1658544627	-1.2606675796	 0.386265
N	 0.7051726684	 0.455669116	-2.3092138156	-0.507179
O	 2.1297683334	-0.9902413957	-1.2322814865	-0.247135
C	 2.4651920462	-1.6193061401	 0.0095912096	-0.099043
C	 2.5044308919	-0.6010738289	 1.1422143862	-0.32337
C	 1.2077574541	 0.1998137902	 1.2124869078	 0.392303
O	 0.9522545953	 0.9483383839	 2.1211945588	-0.300149
H	-0.4947065783	 1.9726976599	-0.2545317205	 0.140458
H	-1.5886728998	 0.7089599724	-0.8188312707	 0.131505
H	-1.3989670075	 1.0165093654	 0.9301404456	 0.125302
H	-0.165046434	-1.0401501429	 0.232483657	 0.125567
H	 1.3488919691	 0.2346035341	-3.0714564782	 0.222901
H	 1.7497510986	-2.4244005417	 0.2254956847	 0.116568
H	 3.4418974762	-2.0786765073	-0.1539196976	 0.130721
H	 2.6863302383	-1.0788409035	 2.1097437746	 0.140147
H	 3.3224026975	 0.1109481625	 0.9771923426	 0.151006
