19
gdb 87746	4.5807	0.8744	0.82461	1.9274	83.67	-0.2467	0.051	0.2977	1420.59	0.157435	-385.824105	-385.815076	-385.814132	-385.857911	34.694	
O	-0.15725263	 1.4252095865	-0.0828541759	-0.419452
C	-0.0773768778	 0.0317518288	-0.0068464405	 0.046046
C	-0.5479699564	-0.680815774	 1.242033912	-0.408891
C	-1.3747888854	-0.7112460926	-0.0146020067	 0.34726
C	-2.7282105577	-0.0486081015	-0.2810617342	-0.298561
C	-2.8982243027	-1.0170300833	-1.5047261703	-0.153979
C	-1.723870294	-1.8859431433	-0.9312635329	-0.31289
C	-4.1831530446	-1.6497470802	-1.7127480597	 0.312935
C	-5.2505130416	-2.1844689186	-1.862153364	-0.458184
H	 0.506900874	 1.7961612745	 0.5072062932	 0.289129
H	 0.7572972171	-0.4106293843	-0.5537940885	 0.082779
H	-0.0290460978	-1.582854354	 1.5523715305	 0.111001
H	-0.9108209009	-0.0584348772	 2.0547275104	 0.113632
H	-3.4662056823	-0.2537524621	 0.4988569124	 0.109556
H	-2.7145041389	 1.0197452363	-0.5011508731	 0.124648
H	-2.5750935936	-0.5141978651	-2.4213518562	 0.106651
H	-0.9662875698	-2.2167293786	-1.6466051478	 0.104242
H	-2.1014887233	-2.752765754	-0.3819886656	 0.112501
H	-6.1927726542	-2.6532378074	-2.001287233	 0.191577
