18
gdb 16548	3.09294	2.67868	2.13012	0.183	75.37	-0.2227	0.0113	0.234	743.915	0.157848	-310.684964	-310.679046	-310.678102	-310.714439	25.426	
C	-0.0143771096	 1.5386769783	-0.0249260877	-0.21489
C	 1.5069462283	 1.8076211691	 0.0023155452	-0.055652
C	 2.0324913417	 1.514144543	 1.434764717	-0.249861
C	 1.392524208	 0.2834275445	 2.0408466776	-0.038964
C	 0.4550785584	-0.4259415864	 1.4087725504	-0.062792
C	-0.0003517776	-0.0067454905	 0.0157858861	-0.093747
C	 1.1432320055	-0.2948922214	-0.9632051433	-0.065959
C	 1.9936719061	 0.7321925881	-0.9613542592	-0.067523
H	-0.5548544871	 1.9811874727	 0.816727441	 0.090827
H	-0.4491102498	 1.8986997974	-0.9623109559	 0.091721
H	 1.7809309668	 2.8231958412	-0.29762563	 0.059578
H	 3.1254826687	 1.3930448271	 1.4225495386	 0.101438
H	 1.8402660332	 2.3810669966	 2.0830428808	 0.103963
H	 1.7396547988	-0.0156236021	 3.0272643793	 0.081746
H	 0.0272019161	-1.3163599692	 1.860339014	 0.081636
H	-0.9515864417	-0.4702472542	-0.2556359761	 0.059004
H	 1.2673155268	-1.2392460366	-1.4800218202	 0.091617
H	 2.9428050374	 0.7812775721	-1.4829363678	 0.087857
