21
gdb 118672	2.81653	0.74272	0.61375	2.3156	77.15	-0.2469	-0.0187	0.2282	1822.8516	0.178688	-461.351383	-461.340065	-461.339121	-461.3894	37.962	
C	-0.0200990097	 1.424224385	-0.0133666961	-0.229541
O	-0.0123393376	 0.015574825	-0.0108237023	-0.234791
C	 0.5890267959	-0.5396309631	-1.1584736207	-0.078695
C	 0.5729495651	-2.0573583572	-1.006714786	-0.09579
C	 1.2421139036	-2.7435638421	-2.2163626356	-0.202247
C	 0.9929209642	-4.246875396	-2.2709467541	-0.084335
O	 1.6746977497	-4.7440820238	-3.4123607995	-0.422516
C	 1.3078900861	-2.4491155722	 0.2648983311	 0.182547
O	 0.9723556356	-3.3281486403	 1.0144739411	-0.256165
H	 0.9998817506	 1.8380273295	-0.0501804421	 0.106774
H	-0.5847022724	 1.8261467014	-0.8691453337	 0.107304
H	-0.5010711039	 1.7493542521	 0.911865994	 0.133488
H	 0.0500185918	-0.2401530026	-2.0722198947	 0.095295
H	 1.6285331574	-0.1788216476	-1.2634516696	 0.089189
H	-0.4627547809	-2.400010108	-0.9072761334	 0.103812
H	 0.8671789774	-2.2938075528	-3.1430523547	 0.113325
H	 2.3254033605	-2.567411074	-2.2027179731	 0.112186
H	 1.3501159081	-4.7246319167	-1.3472069534	 0.109499
H	-0.0906137201	-4.4371443031	-2.3361867704	 0.090618
H	 1.5682099513	-5.6994558478	-3.4323492065	 0.288411
H	 2.2470727475	-1.8709710857	 0.4392533995	 0.071635
