18
gdb 33198	6.54108	0.73833	0.67175	0.5807	74.75	-0.2198	0.026	0.2458	1668.5487	0.147949	-439.119527	-439.110764	-439.10982	-439.154183	31.119	
C	-0.0669859806	 1.4635439193	 0.0984483911	-0.38525
C	 0.0247643852	-0.0594747558	-0.0322329442	-0.190607
C	 0.7456560547	-0.4709496298	-1.3040565216	-0.043905
O	 0.7829481853	-1.9116496967	-1.3395278839	-0.25814
C	 1.38271787	-2.4326887001	-2.3951068247	 0.500203
N	 1.9427689466	-1.8428216099	-3.4040402245	-0.38383
C	 2.3944413479	-2.9098243465	-4.1841466909	-0.11174
C	 2.0733244343	-4.0759088753	-3.5887164892	-0.046642
O	 1.4093476428	-3.7781865234	-2.4136175291	-0.189438
H	 0.9270432961	 1.9227623022	 0.1254717425	 0.121943
H	-0.6135222536	 1.9043944724	-0.742182291	 0.121943
H	-0.588078955	 1.7441106957	 1.0177283901	 0.122256
H	 0.5544027856	-0.4839433527	 0.8280814689	 0.113207
H	-0.9776262114	-0.5022378012	-0.0343767578	 0.113205
H	 0.2322699433	-0.1082234008	-2.2016306358	 0.124821
H	 1.7725601073	-0.0897210385	-1.3345150873	 0.12478
H	 2.9154138272	-2.7464654968	-5.1140494028	 0.12318
H	 2.2090770541	-5.1196891623	-3.8081580598	 0.144011
