17
gdb 133062	2.78465	1.2613	0.92152	2.6817	78.27	-0.25	-0.0279	0.222	1250.8385	0.136765	-426.052093	-426.04416	-426.043216	-426.085316	29.756	
C	-0.2776825861	 1.5248924399	 0.058636966	-0.370463
C	 0.0869376225	 0.0347946966	-0.0405278626	-0.266596
C	 0.7387362453	-0.481548602	 1.2186326785	 0.331474
C	 0.1175503626	-1.4107969792	 2.0512230085	-0.185194
C	 0.774703955	-1.8311206864	 3.2068974972	-0.055156
C	 2.0283780036	-1.3173194742	 3.5021941495	-0.275857
C	 2.5470326046	-0.3952905702	 2.5963054998	 0.331915
F	 3.7502128879	 0.1209040787	 2.8425584627	-0.07679
N	 1.9551034291	 0.0189032331	 1.5035130318	-0.355919
H	 0.6120902512	 2.117117776	 0.2871974783	 0.141907
H	-0.7009433993	 1.883803702	-0.884133244	 0.11361
H	-1.0141077008	 1.6986348218	 0.8499654912	 0.115408
H	-0.8061195868	-0.559311652	-0.2601012702	 0.099378
H	 0.7856933723	-0.108072445	-0.8727122908	 0.121314
H	-0.8621400263	-1.7984294383	 1.7972751401	 0.099787
H	 0.3121365604	-2.5546081875	 3.8700873112	 0.114572
H	 2.5914813048	-1.6028700131	 4.3812335627	 0.116609
