17
gdb 41065	4.10916	1.88051	1.67115	1.5383	73.51	-0.2167	0.0645	0.2811	835.905	0.138679	-380.72636	-380.720645	-380.719701	-380.756022	25.035	
C	-0.0096303334	 1.3771555703	-0.3551501447	-0.185024
C	 1.449978742	 1.5322805731	 0.1803736126	-0.367027
C	 1.1155289781	 0.2751341624	 0.9686601198	 0.37728
C	 1.605245349	-1.0173593619	 1.6292331934	-0.170779
C	 0.2674541347	-1.6932698896	 1.7391095938	-0.026339
C	-0.6895305639	-0.5981389533	 1.177670548	-0.061187
C	 0.1033960504	 0.3020027629	 2.1723667868	-0.0568
N	 0.7903912168	-0.8691049543	 2.8795362736	-0.182133
N	 0.0388221441	-0.0983815388	-0.0214411952	-0.141455
H	-0.7340129597	 1.9530880234	 0.2336447767	 0.105119
H	-0.181353079	 1.5642200618	-1.4162791746	 0.11334
H	 2.1897354908	 1.3569791347	-0.6047362583	 0.122496
H	 1.7080559916	 2.4306313569	 0.7432602281	 0.111115
H	 2.5552155422	-1.5360594938	 1.6068864203	 0.09906
H	 0.1210572245	-2.763268626	 1.8173313659	 0.101628
H	-1.7628491829	-0.7839714665	 1.1459434735	 0.076281
H	-0.2287896253	 1.1645689987	 2.7469321603	 0.084426
