18
gdb 8879	3.92567	1.14314	0.94481	2.4122	64.94	-0.2585	-0.0321	0.2263	1235.5239	0.151318	-422.095078	-422.085646	-422.084702	-422.130083	33.171	
C	-0.0299495645	 1.5602513095	-0.0300588349	-0.379521
C	-0.0919761336	 0.0356760758	-0.1040520563	-0.28695
C	-1.5022270405	-0.5137234327	-0.1278819182	 0.356891
O	-2.4837957601	 0.1966229388	-0.2136943937	-0.325258
C	-1.7018851907	-2.0271083376	-0.0605712782	 0.019599
O	-3.0749573669	-2.3251145352	 0.0371747483	-0.446858
C	-1.136566109	-2.7407034149	-1.3085116418	-0.064503
O	-1.5020531647	-4.0986992206	-1.2920079216	-0.418447
H	 1.0083626198	 1.9018223909	-0.0316536047	 0.117282
H	-0.5466468899	 2.0126229518	-0.8796174985	 0.137928
H	-0.5130650444	 1.927308944	 0.8791711163	 0.134084
H	 0.4194945307	-0.3330806756	-1.0047061707	 0.139587
H	 0.4411657635	-0.4318472	 0.7343550747	 0.130455
H	-1.1830249723	-2.4213007263	 0.8260166325	 0.098512
H	-3.5275288451	-1.4762639843	-0.1048091741	 0.296174
H	-1.5141757188	-2.2283321159	-2.2099569942	 0.089515
H	-0.0426655446	-2.6965045528	-1.3224784298	 0.10664
H	-2.446986769	-4.1060124347	-1.0891477251	 0.29487
