21
gdb 110382	4.46886	0.96674	0.91537	1.2897	83.55	-0.2606	0.0765	0.3371	1363.1181	0.182351	-387.008617	-387.000104	-386.999159	-387.041768	33.033	
C	 0.144127735	 1.7497053813	-0.1067999849	-0.419525
C	-0.0078379363	 0.2411562713	 0.0154353497	-0.002109
C	 1.0385927554	-0.6883823766	-0.6375552861	-0.052297
C	 2.0757655487	-0.4939145414	 0.5256947805	-0.041412
C	 2.261096271	-2.017193724	 0.6923045535	 0.001278
C	 2.687491468	-2.569866191	 2.0362436851	-0.11254
O	 4.0727866793	-2.2866942715	 2.1989907461	-0.423199
C	 0.7587595155	-1.840545956	 0.3877091383	-0.071649
C	 0.6530733749	-0.5006630688	 1.1995378506	-0.056319
H	 1.1753430559	 2.0681810554	 0.0774613795	 0.114569
H	-0.1373183	 2.0944459424	-1.1082186648	 0.113026
H	-0.4989039137	 2.2701698768	 0.6119280346	 0.112416
H	-1.0467447837	-0.0618777169	-0.171402638	 0.057766
H	 1.2834629682	-0.8235629065	-1.6934015206	 0.063463
H	 2.8306118148	 0.288051548	 0.6029652971	 0.07502
H	 2.8430331681	-2.4926097566	-0.1069637312	 0.066735
H	 2.0921738112	-2.1133698007	 2.842845701	 0.081144
H	 2.4987938563	-3.6560027635	 2.0661306566	 0.080509
H	 4.3560616001	-2.6483861918	 3.0437036201	 0.284891
H	-0.0235926411	-2.5973178035	 0.297270028	 0.063164
H	 0.4379875224	-0.4023748564	 2.2651202951	 0.065068
