15
gdb 17163	4.3901	1.87025	1.55287	2.0999	66.15	-0.2307	-0.0382	0.1925	816.3067	0.118884	-362.564271	-362.557813	-362.556869	-362.595092	24.516	
O	-0.0567405569	-0.043451833	 0.0806753992	-0.247282
C	 0.0182516164	 1.1590988834	 0.0069759397	 0.023387
C	 1.3038413377	 1.9082255207	 0.0047193921	 0.236685
C	 2.7384780264	 1.4101396299	 0.0875985138	-0.231057
N	 2.9765146078	 2.917779137	-0.0009556605	-0.159752
C	 1.7721180306	 3.0494174536	-0.9723947336	-0.038821
C	 1.1722529351	 4.1888388148	-0.1465341513	-0.262802
C	 1.7072893063	 3.1670631264	 0.8583876274	-0.038851
H	-0.8984916905	 1.7897763951	-0.0656329943	 0.07126
H	 3.0755660515	 0.9699786175	 1.0301884166	 0.112848
H	 3.1391721593	 0.8545181183	-0.7647835067	 0.112857
H	 1.9167964246	 2.9548926183	-2.0500017755	 0.097439
H	 1.7121320892	 5.138025532	-0.1884042801	 0.118303
H	 0.0911216461	 4.3339751515	-0.1941365152	 0.108365
H	 1.7752806064	 3.2117599946	 1.9467293083	 0.097423
