18
gdb 36147	3.91241	1.06126	0.96275	2.6178	74.97	-0.2437	0.031	0.2747	1231.3455	0.148794	-401.952326	-401.944276	-401.943332	-401.985397	30.453	
N	 0.0212715524	-1.1647588093	 0.5518238196	-0.310355
C	-0.0215397182	-0.0385767072	 0.2967380602	 0.273157
C	-0.0505164588	 1.3893071918	-0.0350207852	-0.4474
C	 1.3373929728	 1.9782699787	-0.203792141	 0.315662
C	 2.1096686443	 2.4762797381	 1.0076903928	-0.366101
C	 1.6221830407	 3.4468863445	-0.0412293528	 0.069852
O	 2.5089543891	 3.8907038206	-1.0279551286	-0.256127
C	 3.1480665461	 2.741949708	-1.5917796794	-0.096079
C	 2.1754171185	 1.5561172602	-1.4047023786	-0.298585
H	-0.6348346369	 1.5160114447	-0.955203915	 0.152174
H	-0.5947351483	 1.9133857524	 0.7587711099	 0.150159
H	 1.5864503677	 2.4757046486	 1.9583979951	 0.120236
H	 3.1697808336	 2.2622809577	 1.0869568374	 0.125463
H	 0.8673598545	 4.188502572	 0.194749915	 0.10664
H	 3.3698617403	 2.9628410835	-2.6386704446	 0.118325
H	 4.0996641323	 2.5506744008	-1.0779767035	 0.107152
H	 2.7062351843	 0.6107277268	-1.2622491472	 0.125547
H	 1.5215480856	 1.4447181881	-2.2773412943	 0.110279
