12
gdb 132397	1.90285	1.80417	0.9261	3.9218	59.71	-0.2602	-0.017	0.2432	1097.1184	0.077288	-521.945952	-521.939166	-521.938221	-521.977313	26.131	
O	 0.0973676105	 1.3548042628	 0.1229218276	-0.426461
C	 0.0705833859	 0.0085433911	 0.0366333661	 0.472921
C	 0.0667722118	-0.673282658	-1.1830009848	-0.442748
C	 0.0379556134	-2.0583589864	-1.1189647002	 0.370165
F	 0.0335560847	-2.738131592	-2.2584566675	-0.065537
N	 0.0140986933	-2.7795545513	-0.0185055702	-0.382772
C	 0.018660318	-2.0964696058	 1.1113423595	 0.3691
F	-0.0052954493	-2.8233286411	 2.220087536	-0.064422
C	 0.0458599817	-0.7178456466	 1.229080667	-0.380107
H	 0.1126989236	 1.736217711	-0.7617570147	 0.308614
H	 0.0851005028	-0.1636531963	-2.1386208606	 0.11159
H	 0.0479639235	-0.2257025472	 2.1913004419	 0.129657
