15
gdb 132595	3.15773	1.29686	0.92008	2.4614	72.98	-0.1933	0.006	0.1993	1159.8006	0.113089	-461.977432	-461.969651	-461.968707	-462.009276	30.81	
N	-0.0357240671	 1.421667568	-0.1390004953	-0.594301
C	-0.0333186394	 0.0323611685	-0.0661931383	 0.278129
C	-1.210468885	-0.7150900233	-0.0013914151	-0.354928
C	-1.1507553745	-2.1023938735	 0.0119364277	 0.313257
F	-2.3015846702	-2.7892610453	 0.0753844076	-0.090898
C	 0.048742863	-2.7892774496	-0.0362801264	-0.27682
C	 1.2281855212	-2.0424031312	-0.097912538	-0.222422
C	 1.1951955085	-0.6571174907	-0.1118016669	 0.321352
O	 2.3201635732	 0.1314865004	-0.1619603917	-0.466924
H	 0.8418294309	 1.8449184856	 0.1254182504	 0.260848
H	-0.8301963738	 1.8715455709	 0.2903645118	 0.247654
H	-2.1762496613	-0.2234247046	 0.0339996316	 0.096327
H	 0.0602445664	-3.8713612475	-0.024192788	 0.104087
H	 2.1874799074	-2.5523025939	-0.1317904977	 0.087569
H	 3.0999249408	-0.4313394638	-0.1527230717	 0.29707
