23
gdb 91902	2.28164	1.50379	0.99548	0.295	92.47	-0.2203	0.0274	0.2477	1287.4093	0.206816	-351.170848	-351.161878	-351.160934	-351.204078	35.469	
C	 0.0542063778	 1.5821227263	-0.0155361438	-0.397894
C	-0.0190677598	 0.0500320798	 0.0051838549	-0.015195
C	 0.5850437769	-0.5543134379	-1.2792979979	-0.224389
C	 0.7159918929	-2.0739381069	-1.2138134818	-0.041272
C	 2.065908361	-2.7041407232	-0.9623333232	-0.292669
C	 1.0165697689	-2.6826607936	 0.1330307014	-0.102455
C	 1.1468669189	-1.7656940932	 1.3007783475	 0.292165
C	 1.8155778003	-2.3199437458	 2.529206633	-0.477198
C	 0.6596424555	-0.5227590728	 1.2318716583	-0.142082
H	 1.0954321774	 1.9236078563	-0.0453347316	 0.113902
H	-0.4576376728	 1.9902474249	-0.8935115122	 0.107533
H	-0.4125623038	 2.0139712144	 0.8761500762	 0.109907
H	-1.0844100519	-0.2291942577	 0.0415015154	 0.080086
H	-0.024741517	-0.2685267534	-2.1439565484	 0.091295
H	 1.5713329203	-0.0997783726	-1.4360581207	 0.094726
H	 0.038919574	-2.6319509552	-1.8528036587	 0.079962
H	 2.2960767315	-3.6541233617	-1.4334079888	 0.104997
H	 2.9139227335	-2.0344756041	-0.8567241016	 0.109261
H	 0.5617971709	-3.6451681454	 0.3585238642	 0.082104
H	 2.8384810277	-2.649639811	 2.3071276308	 0.123246
H	 1.8595245749	-1.5808272982	 3.3339611006	 0.116069
H	 1.2816842959	-3.2019914499	 2.9066352475	 0.11863
H	 0.7443184871	 0.132250731	 2.0978248386	 0.06927
