17
gdb 64824	2.4973	1.4011	1.07015	2.5288	69.21	-0.2484	-0.0886	0.1598	1149.5163	0.132255	-458.959862	-458.950502	-458.949558	-458.99465	33.116	
C	 0.3491536975	 1.2453872493	-0.9176365116	-0.46208
C	-0.1911293438	 0.1850198825	 0.0116201052	 0.406665
C	-1.5502899744	 0.5003845169	 0.6609688321	-0.410731
C	-1.4175469074	 0.4531776999	 2.1735928331	 0.33459
O	-1.3597296223	 1.4248105108	 2.8870212172	-0.278857
C	-1.3780350286	-0.9314360477	 2.8285049986	 0.092233
O	-1.7232089839	-1.9411493085	 2.2699170777	-0.230523
C	 0.2554936663	-1.2093740989	-0.1115764554	-0.221445
O	 0.7796698939	-0.3686901689	 0.9271764012	-0.271987
H	 0.4438463484	 2.2017097562	-0.3925635222	 0.138756
H	 1.3334341942	 0.9599055568	-1.296429994	 0.132196
H	-0.3259439485	 1.3927273185	-1.7676036969	 0.127755
H	-1.8806053382	 1.5038710527	 0.3869461653	 0.129764
H	-2.3049386084	-0.2248727565	 0.3435693341	 0.140759
H	-1.0546160225	-0.8988048608	 3.8888814966	 0.113074
H	-0.3915053235	-2.0136208183	 0.2314890588	 0.142295
H	 0.9716307911	-1.4740963739	-0.8883441699	 0.117539
