14
gdb 8131	4.26186	1.91049	1.55176	5.1135	57.25	-0.2798	0.0384	0.3182	814.4053	0.107011	-419.713251	-419.706602	-419.705658	-419.743968	25.213	
C	-0.0083155064	 1.5065766756	-0.0466814888	-0.470123
C	 0.0431677093	 0.0117953176	 0.0469245326	 0.39358
C	-0.8391141952	-0.8362995538	 0.9351152027	-0.375227
C	 0.6609245166	-0.8337538206	 1.1162795142	 0.02702
O	 1.3686099588	-1.8558922786	 0.4489950004	-0.241584
C	 1.2095702678	-1.7100448202	-0.8993681374	 0.483353
O	 1.6691756033	-2.4358537598	-1.719186134	-0.363862
O	 0.4302711121	-0.6233569072	-1.1652306458	-0.274924
H	 0.9476788328	 1.9057086075	-0.3978398495	 0.141312
H	-0.7923139614	 1.8232641689	-0.7412325788	 0.144944
H	-0.2279950458	 1.9374952971	 0.9338238709	 0.129643
H	-1.4186769897	-0.3133871935	 1.6880662349	 0.13265
H	-1.3050879522	-1.7221471197	 0.5169755037	 0.143869
H	 1.15847288	-0.479314663	 2.0095103451	 0.129348
