14
gdb 129331	4.55459	1.16045	0.92482	5.177	76.18	-0.2275	-0.0674	0.1601	1176.9787	0.10296	-429.047965	-429.040438	-429.039493	-429.081197	26.943	
N	-2.0610980154	-3.0485723616	 0.0475288275	-0.393515
C	-1.1517874329	-2.1675865547	 0.034572571	 0.079352
N	-1.3682473355	-0.7951517378	-0.036453448	-0.374408
C	-2.5361687631	-0.0549624111	-0.107231153	 0.443199
C	-2.4347474679	 1.3529828394	-0.1708695973	-0.057403
N	-3.5079092211	 2.1069217383	-0.2392737801	-0.225902
C	-4.6710595387	 1.4318061164	-0.2427294221	 0.090499
N	-4.8143850693	 0.1159727509	-0.1846920989	-0.163709
N	-3.7271862602	-0.6524189928	-0.1151655273	-0.23127
H	-1.6392882163	-3.9741052863	 0.103703225	 0.230767
H	-0.0723816312	-2.3632039105	 0.076933864	 0.094507
H	-0.5259243899	-0.2421968295	-0.0367823332	 0.256624
H	-1.4631247381	 1.8485113986	-0.164718997	 0.115558
H	-5.5861065302	 2.0120884707	-0.2980684706	 0.135702
