17
gdb 69206	2.6586	1.62071	1.173	0.79	75.76	-0.2549	-0.015	0.2399	1060.6452	0.137444	-418.061421	-418.053476	-418.052532	-418.093698	30.666	
C	-0.0183683501	 1.5357916623	 0.0150417104	-0.482128
C	 0.0761514382	 0.0320012761	 0.0279071499	 0.1948
C	-0.799912129	-0.8228054906	 0.9190618347	-0.320203
C	 0.6994366698	-0.8192443301	 1.120559228	-0.139687
C	 1.4362629921	-1.92951212	 0.4446305416	 0.396218
N	 2.1935094635	-2.7600635859	 1.0336067075	-0.539684
N	 1.1262884303	-1.8229565077	-0.9176206353	-0.379971
C	 0.4397872725	-0.6608187112	-1.263658119	 0.382579
O	 0.2109162001	-0.2948012751	-2.3904666515	-0.362554
H	 0.9382393569	 1.9919118206	-0.2581933688	 0.131906
H	-0.7632168376	 1.8594672674	-0.7175765415	 0.146486
H	-0.310714953	 1.9169949965	 0.9973997195	 0.119297
H	-1.3861741899	-0.2911932419	 1.6608738928	 0.129365
H	-1.2754137072	-1.7105089632	 0.5163645826	 0.132613
H	 1.1213032813	-0.4087467703	 2.0277632989	 0.119795
H	 2.6063180737	-3.4279446294	 0.3799404475	 0.211736
H	 1.4624208183	-2.4604715275	-1.6237625873	 0.259431
