18
gdb 24118	5.14083	0.95487	0.83377	3.4613	77.91	-0.2168	0.0305	0.2473	1351.8873	0.151165	-398.138367	-398.13057	-398.129626	-398.171432	29.345	
C	 0.0635778005	 1.3101319378	 0.6311867128	-0.354413
C	-0.0417255512	-0.0758080385	 0.0302680985	 0.025339
C	-1.3327459499	-0.6520599524	-0.4014823503	-0.253055
N	-0.344055674	-0.2176928954	-1.4135057339	-0.329829
C	 1.3814745624	 1.9588191636	 0.3279480794	 0.305909
C	 2.1536713978	 2.8720963005	 1.0007195274	-0.175729
N	 3.2872285375	 3.1873197453	 0.2861287716	-0.25649
C	 3.2109773463	 2.469938264	-0.8102781075	 0.010702
N	 2.0766308032	 1.7136241351	-0.842104566	-0.295733
H	-0.7718350231	 1.9189277109	 0.2516926852	 0.107291
H	-0.0644331967	 1.2632519826	 1.7186315501	 0.127885
H	 0.7301373253	-0.7680004022	 0.3611938122	 0.105413
H	-1.4940076539	-1.7245136094	-0.3493595514	 0.126757
H	-2.2303348845	-0.0523721966	-0.2748220826	 0.117737
H	-0.6447913401	 0.6853362188	-1.7776772357	 0.229923
H	 1.9526840978	 3.3213866185	 1.9621845781	 0.102822
H	 3.9380642411	 2.45010978	-1.6084624805	 0.127272
H	 1.8150802316	 1.0364945174	-1.5421449373	 0.2782
