23
gdb 106322	2.56118	1.24851	1.0668	1.3694	86.41	-0.2266	0.0815	0.3081	1300.7986	0.204212	-388.265662	-388.25576	-388.254815	-388.300026	37.527	
C	-0.3640749064	 1.9285608948	 0.8469840916	-0.374847
C	-0.2586574327	 0.3969919905	 0.8210821879	-0.286803
C	-1.5641414389	-0.2553244885	 0.4837076424	 0.465924
O	-2.6364163032	-0.0980147125	 1.4353341974	-0.34667
C	-2.9632301234	-1.5164214306	 1.3230746537	 0.157206
C	-4.4449314735	-1.8234445055	 1.2215814441	-0.419058
C	-1.9948635066	-1.674974779	 0.1532143094	-0.256375
C	-2.1256137273	-0.5519091692	-0.8739563334	-0.057163
C	-3.4002804443	 0.0514832832	-1.4255196661	-0.424409
H	 0.5893617907	 2.3824197127	 1.1331840198	 0.109119
H	-0.6456230329	 2.3205054144	-0.1357010666	 0.116213
H	-1.1235471195	 2.2478202014	 1.5664173184	 0.136562
H	 0.4900046901	 0.0808348575	 0.0850955404	 0.098646
H	 0.0807011734	 0.0343565341	 1.799357422	 0.102979
H	-2.5513157628	-2.0281742215	 2.2050484099	 0.07899
H	-4.969201946	-1.429057382	 2.0985077359	 0.12488
H	-4.8997575423	-1.399098395	 0.3258561548	 0.125455
H	-4.5928268576	-2.9088574752	 1.2028854862	 0.116277
H	-1.393690943	-2.5558837539	-0.0347897561	 0.089175
H	-1.3308755222	-0.654993586	-1.6125088051	 0.083663
H	-4.0349045532	 0.4193421157	-0.6172415178	 0.137257
H	-3.1632552582	 0.9013491934	-2.0748627868	 0.110734
H	-3.9717177102	-0.6693601288	-2.020267362	 0.112245
