19
gdb 88614	3.66758	1.15318	1.06722	1.9093	75.24	-0.2369	0.0834	0.3204	1189.68	0.158321	-422.928526	-422.920405	-422.919461	-422.961985	30.932	
C	 2.6962275177	-0.086258859	-0.3469728804	-0.424938
C	 1.237710555	-0.4453251681	-0.2283377498	 0.086288
O	 0.8883770095	-1.5433662186	 0.6238208006	-0.255741
C	 0.4255507855	-0.2342217339	 0.9834739724	-0.009717
C	 0.9432050776	 0.4111070959	 2.2440841081	-0.010192
C	 0.3149781852	 0.1166565885	 3.6393775392	 0.024752
C	 0.9686244649	-1.2853451341	 3.6582850054	-0.228939
C	 2.0042957449	-0.2404479172	 3.1796810368	 0.045846
O	 1.5432077344	 0.6662173186	 4.257878457	-0.312887
H	 3.1820204018	-0.0301072546	 0.628596807	 0.1319
H	 3.2228432815	-0.8324768208	-0.9508494383	 0.131895
H	 2.8057405618	 0.8832426871	-0.8450411294	 0.12545
H	 0.6975249215	-0.4543766245	-1.1774860182	 0.089357
H	-0.6477560545	-0.09638921	 0.8283048272	 0.091988
H	 1.1143030553	 1.4827020091	 2.1036828995	 0.090858
H	-0.642115527	 0.4477997482	 4.0447002095	 0.092658
H	 1.1557471874	-1.680483956	 4.6572668564	 0.106103
H	 0.6312222668	-2.0371998345	 2.9459502837	 0.13032
H	 3.0805719507	-0.343189726	 3.0400472731	 0.095001
