20
gdb 87777	3.94599	1.04778	1.03072	1.4602	80.54	-0.2269	0.0727	0.2996	1281.6495	0.169298	-403.092083	-403.08319	-403.082246	-403.125358	34.174	
C	-0.0870420668	 1.4969143064	-0.1118551652	-0.415491
C	-0.0404398003	 0.0032940982	 0.0730673515	-0.022937
O	 1.2597577961	-0.6231507052	-0.0337762578	-0.308906
C	 0.6000437518	-0.6357338699	 1.2198984477	 0.490732
C	 1.2672170247	-0.0680415348	 2.4945240194	-0.36377
C	 0.9161004932	-1.399593174	 3.1951988661	 0.344845
C	 1.7055936642	-2.0802963126	 4.268356679	-0.505146
N	-0.5615703274	-1.4997731853	 3.1124762989	-0.372367
C	 0.2780268554	-1.9236628489	 1.9501180001	-0.232857
H	 0.7147953174	 1.9849210882	 0.4479841343	 0.126122
H	 0.0228179851	 1.7601936713	-1.1691932245	 0.126689
H	-1.0473811784	 1.892131062	 0.2363816557	 0.125778
H	-0.8296696465	-0.5553009012	-0.4335836964	 0.087607
H	 2.3416201931	 0.0603957919	 2.3387120449	 0.11561
H	 0.8363706667	 0.8330247843	 2.9379141957	 0.106
H	 1.6189436979	-1.5470880886	 5.2225740404	 0.129427
H	 1.3526741427	-3.1057354052	 4.4250920838	 0.117898
H	 2.7680681788	-2.1262741429	 4.0072383352	 0.129173
H	-0.8286893043	-2.3563119652	 3.6003974541	 0.223649
H	 0.2232683566	-2.9270652884	 1.5450866268	 0.097944
