19
gdb 117278	4.73274	0.67675	0.59868	3.7813	75.01	-0.2454	-0.0122	0.2332	1823.2581	0.157611	-456.384034	-456.373484	-456.37254	-456.421095	36.335	
C	-0.0794864895	 1.5591925874	-0.0445218696	-0.466567
C	 0.1862671567	 0.0760630341	 0.0248993833	 0.37673
N	 1.3677445752	-0.3808088945	 0.0656767264	-0.488365
N	-1.0084674382	-0.6868756128	 0.0371557251	-0.382805
C	-1.1235239168	-2.0610434386	 0.0943698575	 0.434658
O	-0.1663110995	-2.8111221409	 0.1431759912	-0.354676
C	-2.560988943	-2.5612317961	 0.0888393403	-0.318976
C	-2.6439383039	-4.0798366266	 0.1582192251	-0.072676
O	-4.0231770964	-4.4147046238	 0.1454475391	-0.424962
H	 0.8735475445	 2.0859200354	-0.0500723933	 0.159271
H	-0.6380568051	 1.8187691568	-0.9516532381	 0.131146
H	-0.6703704539	 1.8957796059	 0.815611032	 0.131105
H	 1.3558308674	-1.4003129475	 0.1099674445	 0.248984
H	-1.8715176247	-0.1661560667	-0.0007889415	 0.251942
H	-3.1060264118	-2.1258667123	 0.9357608121	 0.134106
H	-3.0700786371	-2.2081582942	-0.8167776262	 0.134472
H	-2.107315861	-4.5168737249	-0.6949719341	 0.108466
H	-2.1437941205	-4.4344216733	 1.0698948389	 0.108219
H	-4.0973680525	-5.3723343874	 0.1871003475	 0.289929
