13
gdb 46168	1.89386	1.67025	1.33225	6.6401	69.36	-0.2757	-0.0218	0.2539	1017.2613	0.089374	-411.787678	-411.779397	-411.778453	-411.820847	29.325	
N	-0.0394575499	 1.1728609445	-0.4587689478	-0.515516
C	 0.0420584391	-0.0066113573	-0.0436735435	 0.383059
N	 0.9593018973	-0.8640860735	 0.531321876	-0.328686
C	 0.1244641466	-2.0637704459	 0.4728348368	-0.19233
C	-1.0516057993	-1.1330281856	-0.0287369033	-0.088918
C	-2.1116756076	-0.9221108843	 0.9506860483	 0.284124
N	-2.9261950631	-0.7642408556	 1.7536225746	-0.313916
C	-1.5749155956	-1.4733193306	-1.3461199273	 0.282582
N	-1.9521279995	-1.765181603	-2.3975569726	-0.314404
H	 0.8338238533	 1.6930149829	-0.3755602322	 0.234594
H	 1.9658676516	-0.8039905322	 0.5096244559	 0.264278
H	 0.4199848972	-2.8035468127	-0.2759299214	 0.151241
H	-0.0570453001	-2.5424463268	 1.4372038564	 0.15389
