16
gdb 98924	4.20914	0.81358	0.68756	5.8026	75.47	-0.2552	-0.0566	0.1987	1585.6664	0.121043	-437.906545	-437.896569	-437.895625	-437.943007	34.138	
C	-0.1404659581	 1.4354732329	-0.2197556299	-0.373156
C	 0.0516330069	-0.050624194	 0.0701959736	-0.319564
C	 0.8214419666	-0.2950509691	 1.3660585909	 0.435406
O	 1.2321097321	 0.5802517423	 2.0811035852	-0.296423
N	 0.9984421064	-1.6656380124	 1.6329578705	-0.397154
C	 1.650631202	-2.2484544911	 2.7225243571	 0.314203
O	 2.1770366715	-1.6515116095	 3.6262486336	-0.294219
C	 1.6241216774	-3.7056845522	 2.644440213	 0.189099
C	 1.6173616808	-4.9075244674	 2.6055541489	-0.383799
H	 0.8235228426	 1.941862976	-0.3072158213	 0.139532
H	-0.6940017869	 1.5742715876	-1.1522143578	 0.11308
H	-0.6914764032	 1.9208792096	 0.5890218148	 0.139538
H	-0.9160732647	-0.565200008	 0.142957877	 0.126829
H	 0.5918842744	-0.5443057049	-0.7489113297	 0.126831
H	 0.6114870647	-2.3152012247	 0.9637915758	 0.262395
H	 1.6212462475	-5.9705590049	 2.5877047584	 0.217402
