18
gdb 98240	2.63151	1.13834	0.91179	0.9822	71.12	-0.2498	-0.0335	0.2164	1323.0334	0.145214	-476.28086	-476.270735	-476.269791	-476.316733	35.349	
C	 0.0364873202	 1.6330000596	-0.9662060432	-0.334076
N	 0.1036444603	 0.1933942842	-1.1071817876	-0.286573
C	 0.2798239082	-0.6389150029	-0.0619151953	 0.34809
O	 0.4307142599	-0.2979299843	 1.1010090953	-0.386224
C	 0.2749546191	-2.1365372801	-0.4689992551	-0.055155
O	-0.0453601868	-2.3261851713	-1.8208155241	-0.440278
C	 1.6473460911	-2.7761635588	-0.1799389112	 0.366894
C	 2.1200936268	-2.8608920134	 1.2415009279	-0.487423
O	 2.2688524044	-3.2072759106	-1.1297362289	-0.323212
H	 0.2135776237	 1.8721327718	 0.083246872	 0.168129
H	 0.7988091124	 2.1241484104	-1.5803378686	 0.130797
H	-0.9474662503	 2.0158186084	-1.258838202	 0.131573
H	-0.0558529431	-0.254740838	-1.9977963502	 0.264946
H	-0.4711683989	-2.6151592888	 0.1814581615	 0.124548
H	 0.7479919445	-2.7531005201	-2.1963210605	 0.297154
H	 1.5206989629	-3.614447143	 1.7672787716	 0.149806
H	 3.1697964998	-3.1552717529	 1.270975386	 0.14179
H	 1.9442497356	-1.9095941302	 1.7503367123	 0.189213
