19
gdb 67426	2.63214	1.49288	1.24185	3.6329	81.96	-0.2387	-0.0152	0.2236	1086.9221	0.159141	-385.861795	-385.853698	-385.852754	-385.89431	31.239	
C	-0.1798149527	 1.5119671634	-0.0440391135	-0.528501
C	-0.0070511201	 0.0290925547	-0.0089784471	 0.302421
C	 0.0193469397	-1.0393739331	-1.0496577815	-0.164978
C	 1.2969420727	-1.6535533951	-0.4855577939	-0.232682
C	 0.9210956272	-0.941288387	 0.8451110978	-0.112131
C	-0.3458056052	-1.6963021049	 1.3258919607	-0.293469
C	-1.0373187058	-1.1170817279	 0.0999489155	 0.231275
C	-2.4666457299	-1.0264441495	-0.1818875648	 0.039148
O	-3.3354019618	-1.5037515719	 0.5133876321	-0.275378
H	 0.7557686814	 2.0075681764	-0.3283552869	 0.128517
H	-0.9427378297	 1.8034047586	-0.7729495991	 0.130764
H	-0.4819613786	 1.9058427299	 0.9325338931	 0.132029
H	-0.3120351824	-0.9788533414	-2.0795265847	 0.094778
H	 1.3963352365	-2.7439318028	-0.4613955951	 0.097754
H	 2.1809975989	-1.2104732737	-0.9520234779	 0.105594
H	 1.6895094291	-0.6262825031	 1.5482983326	 0.076676
H	-0.2742062772	-2.7845342343	 1.4246869582	 0.099174
H	-0.7651487037	-1.2727569287	 2.2414285986	 0.113265
H	-2.7224761586	-0.4599192596	-1.1089978042	 0.055745
