17
gdb 50413	1.98535	1.76539	1.03299	2.9779	79.57	-0.2406	-0.0196	0.221	1142.151	0.134478	-384.671237	-384.662619	-384.661675	-384.705222	31.724	
O	-0.0352397549	-0.0446988617	-0.18725025	-0.254544
C	-0.0106226981	 1.1442368715	-0.0053295002	 0.167648
C	 1.2549001238	 1.9817181593	 0.0164878118	-0.099328
C	 1.2008561073	 3.0018817868	-1.1631866246	-0.290945
C	 0.8179562205	 4.3008443056	-0.4996852488	-0.06989
C	 0.8823458778	 4.2357687924	 0.8258763549	-0.0592
C	 1.3436164047	 2.8700409354	 1.3117188269	-0.223183
C	 0.5952354469	 2.352744218	 2.4552719576	 0.313951
C	-0.0181576032	 1.9297991575	 3.3986193686	-0.457306
H	-0.9486914136	 1.7303560991	 0.1202899875	 0.087209
H	 2.0997385397	 1.2958818309	-0.0591555099	 0.099641
H	 2.1749966167	 3.0773259178	-1.6628826837	 0.122926
H	 0.4865914042	 2.696963289	-1.938755223	 0.119963
H	 0.554650179	 5.1860924443	-1.0676728712	 0.105316
H	 0.6790233368	 5.0417113936	 1.520273403	 0.112406
H	 2.3993062457	 2.9374672393	 1.6138269162	 0.12307
H	-0.5603083633	 1.549491241	 4.2288985348	 0.202268
