19
gdb 37562	3.72191	1.64741	1.41331	1.4034	79.2	-0.2342	0.089	0.3232	963.8369	0.161466	-385.793921	-385.787335	-385.786391	-385.824702	27.688	
C	-0.0383154782	 1.4200472202	-0.1773714228	-0.087751
C	 1.4075097651	 2.0236325269	-0.0369742783	-0.301598
C	 2.2399986979	 0.7396374265	-0.0941430456	-0.069016
C	 3.1147184224	 0.0575160563	 0.9978725635	-0.08829
C	 1.9840090182	 0.0588687846	 2.0683000257	-0.117404
C	 2.1138051351	-1.4536693091	 2.3335618123	-0.271438
C	 2.3426433317	-1.3331490882	 0.8145079297	-0.136691
C	 1.3049370032	-0.1736945534	 0.6497342573	 0.485887
O	-0.0185263566	 0.0472496312	 0.3134391394	-0.332506
H	-0.7794898045	 1.98230339	 0.3986120138	 0.110694
H	-0.3587111727	 1.3958928708	-1.2254134411	 0.108349
H	 1.6126445045	 2.7466206546	-0.82986229	 0.102334
H	 1.5089258901	 2.5367913972	 0.9232840602	 0.111971
H	 2.469737843	 0.43137034	-1.1204144106	 0.068491
H	 4.1826051563	 0.1429214393	 1.1937267769	 0.078248
H	 1.7673324228	 0.860958096	 2.7738884567	 0.07056
H	 2.977515123	-1.7677153582	 2.9282125754	 0.09043
H	 1.2132961931	-1.9841841746	 2.6554456789	 0.102052
H	 2.5881704656	-2.0998024803	 0.0783669583	 0.07568
