22
gdb 13207	3.99811	1.15092	0.9545	1.3481	78.4	-0.262	0.0789	0.3409	1270.6587	0.199848	-350.194708	-350.185397	-350.184453	-350.228709	34.345	
C	 0.0511510634	 1.5069645296	 0.1138055939	-0.39686
C	-0.0774517035	-0.0187229981	 0.0154372189	 0.012883
C	-1.5447944171	-0.4473487451	-0.0234823358	-0.07803
O	-2.1701967832	-0.0268735339	 1.1819773341	-0.424239
C	 0.6787747885	-0.5749518339	-1.1884801664	 0.066254
C	 2.2277998155	-0.4304930391	-1.2385981825	-0.234018
C	 2.3044246822	-1.8505258853	-1.860518506	-0.217656
C	 0.8673797734	-2.1142268904	-1.3376144323	-0.234633
H	 1.0977004936	 1.8105043358	 0.2150035112	 0.110241
H	-0.3507254338	 1.9902407804	-0.7855469425	 0.10354
H	-0.5039800866	 1.8850326581	 0.9750591334	 0.131336
H	 0.3564037597	-0.4621316414	 0.9237675987	 0.072927
H	-2.0344990904	 0.004776616	-0.9030910334	 0.078682
H	-1.6098537777	-1.540770646	-0.13757782	 0.085593
H	-3.0998265559	-0.2675223204	 1.1386278568	 0.284958
H	 0.2453756107	-0.1672112076	-2.111696438	 0.06203
H	 2.6485020289	 0.4018502923	-1.8080426258	 0.094226
H	 2.6535672624	-0.410036069	-0.2295255118	 0.098127
H	 2.3361705329	-1.8123278929	-2.953254301	 0.099999
H	 3.1005598454	-2.5144361464	-1.5155211066	 0.094652
H	 0.8793972127	-2.6063211745	-0.3588328796	 0.098303
H	 0.1778070589	-2.6574911881	-1.9887905353	 0.091687
