16
gdb 93191	2.9432	1.45763	1.01662	4.7979	67.53	-0.2767	-0.0568	0.2199	1131.1072	0.124764	-475.064915	-475.056851	-475.055907	-475.097879	29.762	
C	-0.2270934112	 1.4338535695	 0.0774500216	-0.405914
C	-0.0206252443	-0.0589147286	-0.1075780759	 0.103088
C	 0.9844912295	-0.4069238356	-1.1850310415	-0.100885
O	 1.1273797713	-1.8203089657	-1.2999847238	-0.225119
C	 1.3188303599	-2.498228351	-0.1440458411	 0.260873
N	 1.6635710791	-3.7110270517	-0.188209348	-0.468522
C	 1.0688285938	-1.7772406928	 1.1840817673	 0.340168
O	 1.4027634996	-2.2714821659	 2.2254916824	-0.318208
O	 0.4529732775	-0.5814142591	 1.1575313785	-0.236689
H	 0.7228600043	 1.9349437814	 0.2847312571	 0.138192
H	-0.6674279767	 1.8700088049	-0.8236963027	 0.131896
H	-0.9018726302	 1.6162410271	 0.916741914	 0.148413
H	-0.9738128996	-0.5531570531	-0.3351672413	 0.1142
H	 0.6463153	-0.0585550211	-2.1630588312	 0.138465
H	 1.9551191784	 0.0577264704	-0.962497123	 0.125386
H	 1.7474907685	-4.0543318886	 0.7700879175	 0.254656
