20
gdb 24167	4.61178	0.93288	0.85635	2.1231	85.45	-0.1987	0.0467	0.2455	1403.0066	0.172962	-366.03126	-366.022979	-366.022034	-366.06553	31.577	
C	-0.0460414589	 1.5228067244	-0.2221321241	-0.208089
C	-0.1096703944	 0.0095379212	-0.1806199403	 0.035967
C	-0.2213585595	-0.716037063	 1.1345532433	-0.250661
C	-1.4011055698	-0.6711409831	 0.1950176259	-0.271899
N	 1.2990015565	 2.0557956044	-0.077553576	 0.046329
C	 1.9465763551	 2.2887205998	 1.1114638902	-0.094479
C	 3.2304378456	 2.698028289	 0.8338456422	-0.167139
C	 3.371575003	 2.7090522066	-0.5811047478	-0.167535
C	 2.1677870463	 2.3070915727	-1.1122039058	-0.101781
H	-0.4482768052	 1.8925116694	-1.171652247	 0.118489
H	-0.6710101435	 1.9425957079	 0.5742409815	 0.111804
H	 0.488469447	-0.4746015294	-0.9474453192	 0.094217
H	 0.3129882919	-1.6517930174	 1.2517681568	 0.118477
H	-0.2748388636	-0.1219415579	 2.041117369	 0.112157
H	-2.2438568578	-0.0450996501	 0.4711751434	 0.112095
H	-1.6790881659	-1.5752622756	-0.3346474676	 0.116433
H	 1.4341284216	 2.1472177208	 2.0497958948	 0.108012
H	 3.9778273249	 2.9722063712	 1.5626351209	 0.089576
H	 4.2473922327	 2.9933702336	-1.1440754092	 0.089667
H	 1.8479592839	 2.1836077455	-2.135260391	 0.108359
