19
gdb 89928	3.2485	1.28504	1.09041	2.0122	82.3	-0.2447	0.0202	0.2649	1169.0519	0.157975	-385.823706	-385.815078	-385.814134	-385.857052	33.219	
C	-0.6317283667	 1.3174812472	-0.0754122978	-0.415238
C	 0.0895047206	-0.0218282289	-0.0158934338	 0.034745
C	 1.4237045441	-0.1798904956	-0.8167232832	-0.303677
C	 2.1470217551	-0.6345230564	 0.4805531965	 0.276257
O	 2.7537435743	 0.4897308063	 1.1710066438	-0.321637
C	 1.6053042193	 0.6419156042	 2.0396113975	-0.093478
C	 0.8189621614	-0.445109677	 1.2964041688	-0.162621
C	 2.9620244071	-1.8227826831	 0.462322762	 0.249314
C	 3.6220927952	-2.8278811248	 0.433101138	-0.417468
H	 0.0399588583	 2.1519463215	 0.1504365003	 0.124898
H	-1.0384455902	 1.4895377648	-1.0777862509	 0.119877
H	-1.4668663803	 1.3548724084	 0.6330304978	 0.115741
H	-0.6086063076	-0.8154614297	-0.2989346096	 0.081207
H	 1.3932898032	-0.933451504	-1.6061772425	 0.110254
H	 1.8518597311	 0.7442696922	-1.2123194098	 0.113936
H	 1.8559383419	 0.37838076	 3.0749218209	 0.10633
H	 1.2041174859	 1.6612971877	 2.0213541849	 0.102544
H	 0.3616340562	-1.2319260358	 1.8942209887	 0.084994
H	 4.2129248709	-3.7101354969	 0.4117844782	 0.194023
