14
gdb 34778	2.20822	1.93385	1.28181	6.237	69.62	-0.2806	-0.0191	0.2614	965.0694	0.101834	-395.694955	-395.687409	-395.686465	-395.727231	27.655	
N	-0.479098191	-1.098509538	 0.1918640107	-0.322495
C	-0.2506399797	 0.0331652025	 0.1274847843	 0.307015
C	-0.0349552113	 1.457225647	 0.0721336874	-0.149673
C	 0.524056962	 2.2159028607	 1.2163055426	-0.022829
C	 1.5483504251	 1.3869336716	 1.9876779111	-0.291592
C	 2.3467086324	 1.3319760113	 0.6494601341	-0.104757
C	 2.7687844083	 0.0603390955	 0.0769072673	 0.307474
N	 3.1551801648	-0.9323654755	-0.3707402368	-0.308706
N	 1.2876632257	 2.1214664332	-0.0930058736	-0.14799
H	-0.7783313284	 1.9772274329	-0.5251625499	 0.156693
H	 0.0753025663	 3.145519899	 1.5476359265	 0.127182
H	 2.0773646692	 1.9361333449	 2.7655619003	 0.138446
H	 1.1874157168	 0.4384039498	 2.3886239112	 0.157834
H	 3.22389679	 1.9816185449	 0.6968213947	 0.153397
