19
gdb 89966	3.29617	1.20606	1.05459	3.2774	76.46	-0.2253	-0.0294	0.196	1213.5752	0.158034	-423.017405	-423.008529	-423.007585	-423.051531	32.386	
C	-0.8945467293	 1.1267030086	 0.2927299815	-0.404621
C	 0.0963512482	 0.0042763797	 0.0138097367	-0.095983
C	 0.8925405229	-0.0262094945	-1.3295603238	-0.336172
C	 2.2015728329	-0.3544041978	-0.5644080101	 0.359861
C	 2.8529234198	-1.7602986389	-0.6049366277	-0.34631
C	 4.1493306412	-0.9773367253	-0.8917835378	-0.072549
O	 3.4282857999	 0.2752215907	-0.9290590737	-0.307623
C	 1.4632814814	 0.0733942479	 0.7267190653	 0.327671
O	 1.8208223194	 0.452826104	 1.8036700939	-0.303832
H	-0.4435053183	 2.1041723317	 0.0941146882	 0.125301
H	-1.7879601834	 1.0311198484	-0.3320343431	 0.120089
H	-1.2062096763	 1.110615057	 1.3413059374	 0.135314
H	-0.3651248427	-0.9714985961	 0.2124573346	 0.101625
H	 0.5764434202	-0.7471642411	-2.0857538908	 0.10478
H	 0.9607391101	 0.9677680823	-1.7814159837	 0.124153
H	 2.8294100699	-2.3251017594	 0.3280350277	 0.125321
H	 2.5009856335	-2.3887181059	-1.4250329314	 0.117678
H	 4.8900511907	-0.9925215812	-0.0848040088	 0.116889
H	 4.6469863896	-1.1882241	-1.8445276942	 0.108408
