21
gdb 14748	10.78582	0.54337	0.52739	4.2679	80.61	-0.312	0.0382	0.3502	2071.9749	0.187946	-329.160617	-329.15068	-329.149736	-329.19628	34.431	
C	-0.049004756	 1.5828397096	 0.0646879448	-0.380584
C	-0.0044888784	 0.0534070611	 0.0143701329	-0.165364
C	 0.7041595644	-0.4864096492	-1.2328791334	-0.165593
C	 0.7527852989	-2.0168806454	-1.2903623401	-0.183675
C	 1.4623986259	-2.5470294291	-2.5395666256	-0.181037
C	 1.4993400209	-4.0881824425	-2.5758411755	-0.341496
C	 2.1737544347	-4.6102199968	-3.7622819804	 0.256494
N	 2.7102315632	-5.0045962781	-4.7068515895	-0.305684
H	 0.9606299217	 2.0083881389	 0.0650364018	 0.115302
H	-0.578563404	 1.9921280515	-0.8027840915	 0.1153
H	-0.560166313	 1.9383299205	 0.964634045	 0.113502
H	 0.5007698166	-0.3293265686	 0.911065387	 0.095704
H	-1.026963043	-0.3454767119	 0.0500380647	 0.095705
H	 0.1994748234	-0.1049054157	-2.1312717255	 0.096725
H	 1.7277835105	-0.0886896973	-1.2699547154	 0.096726
H	 1.2590043596	-2.3998814191	-0.393304837	 0.097919
H	-0.2704615601	-2.4161189442	-1.2552299713	 0.097919
H	 0.9593298739	-2.1810568455	-3.4418294175	 0.12026
H	 2.4887100051	-2.1647490875	-2.579946573	 0.120259
H	 2.0114078754	-4.4760365836	-1.6871869256	 0.150807
H	 0.4803556303	-4.4924191271	-2.5501435551	 0.150811
