18
gdb 48879	3.32272	1.51975	1.30414	3.1701	74.76	-0.2449	-0.028	0.2169	1003.271	0.14914	-401.929334	-401.922032	-401.921088	-401.961273	28.6	
O	-0.7711625347	 1.0176418804	 0.6494113247	-0.249234
C	 0.0814461593	 1.1025412055	-0.1961514144	 0.081835
C	 1.346953703	 1.9054030979	-0.0653759996	 0.258268
C	 1.3918352621	 3.0383517539	 0.9853611842	-0.304792
C	 1.8477185721	 3.9316648517	-0.1592149551	-0.034717
C	 2.9013170214	 3.2891989716	-0.9895624576	-0.01596
C	 3.7143491198	 2.1321935073	-0.4234438862	-0.251229
C	 2.6303367202	 1.0702601933	-0.0992619674	-0.263729
N	 1.4847126974	 2.9108012927	-1.2192703735	-0.192045
H	-0.0064665172	 0.5744891944	-1.1725909397	 0.085404
H	 0.3893582886	 3.286913417	 1.3369054415	 0.134161
H	 2.0551899195	 2.9139824551	 1.8466888885	 0.100204
H	 1.585130286	 4.9782720472	-0.282156544	 0.095874
H	 3.3260699982	 3.8899516106	-1.787889805	 0.097587
H	 4.4381603676	 1.7630957274	-1.1544419086	 0.1136
H	 4.2752058923	 2.4268887394	 0.4690177158	 0.114799
H	 2.8033437094	 0.5463992929	 0.8447562932	 0.117432
H	 2.5702384251	 0.3221717618	-0.8977216469	 0.112543
