18
gdb 24360	3.55408	1.54946	1.10895	1.4784	88.2	-0.1756	-0.0015	0.1741	1074.6474	0.151813	-364.872807	-364.865784	-364.864839	-364.903927	28.839	
C	-0.0321207475	 1.478485655	 0.0840284137	-0.259933
C	 1.3668733447	 2.128945595	-0.0172104252	-0.33309
C	 2.196592076	 1.4344170801	-1.0615522274	 0.249957
C	 1.9738441366	 0.092043227	-1.3192029863	 0.275928
N	 2.9178487756	-0.3233773922	-2.2276241082	-0.348711
C	 3.7299356912	 0.7325800195	-2.5583509037	-0.084029
C	 3.3098333923	 1.8357880042	-1.8411240249	-0.290587
C	 0.9370771833	-0.6841093149	-0.679940251	-0.161595
C	-0.0023423186	-0.0352958759	 0.0270654739	-0.08565
H	-0.5332588137	 1.8165883996	 0.9970147564	 0.097377
H	-0.6538882885	 1.8374621347	-0.7525492905	 0.1097
H	 1.2612181731	 3.1982170892	-0.2282263538	 0.100327
H	 1.8714209281	 2.0578049018	 0.9590768204	 0.104021
H	 2.9748555115	-1.2443616521	-2.6262083495	 0.256789
H	 4.5260203854	 0.6171337744	-3.2760950693	 0.11599
H	 3.7581708241	 2.8175023884	-1.8803190858	 0.090047
H	 0.9327673422	-1.7668796	-0.7704371493	 0.077201
H	-0.8006450659	-0.5836934537	 0.5167289105	 0.086258
