14
gdb 42557	4.42591	1.23079	1.09268	2.8909	69.98	-0.2608	-0.0227	0.238	1051.6299	0.101708	-399.52576	-399.518917	-399.517973	-399.557242	26.214	
O	 0.0652167906	 0.077907951	 0.1077121179	-0.323895
C	 0.0183152264	 1.2724680446	 0.0974873301	 0.441974
C	-1.0813212763	 2.2886000372	 0.0782572824	-0.215095
C	-0.4677875798	 3.6012311424	 0.5891772326	-0.058989
C	-0.1773983752	 3.1742253214	-0.8080731806	-0.066403
C	 1.0542989103	 2.381010157	-0.2112967203	-0.190659
C	 0.9654041079	 3.2890710624	 1.0638941273	-0.186086
C	 1.8387815413	 4.4532544218	 1.0102179098	 0.275619
N	 2.5329115601	 5.3766726835	 0.9679028935	-0.316779
H	-2.1518057635	 2.1505733578	 0.0187324563	 0.12736
H	-1.1089447349	 4.4010495034	 0.9346119384	 0.126889
H	-0.3838463873	 3.5826394534	-1.7840524497	 0.13241
H	 2.0044306761	 2.1654052285	-0.688929703	 0.120799
H	 1.0880096842	 2.7807222657	 2.0267823852	 0.132856
