23
gdb 39377	2.22177	1.65663	1.09808	0.2052	90.64	-0.2334	0.0309	0.2644	1192.8596	0.209099	-351.148959	-351.140666	-351.139722	-351.182095	33.46	
C	-0.0491467135	 1.515957061	 0.5808049997	-0.309458
C	 1.1543309735	 0.8680524739	-0.0649118451	 0.015574
C	 2.5217003582	 0.7878135202	 0.6162494006	-0.215872
C	 2.7842022741	-0.38332066	 1.5892080277	-0.260836
C	 2.7783835558	-1.7333003412	 0.914891478	-0.051291
C	 1.7506526487	-2.538545519	 0.6409817997	-0.022387
C	 0.2784713637	-2.388704392	 0.9279804889	-0.243709
C	-0.2588890919	-1.0000494466	 1.3063963984	-0.235622
C	-0.0955008256	 0.0516947898	 0.2261058784	 0.018055
H	 0.0307524069	 1.752344073	 1.6390592181	 0.10293
H	-0.635867836	 2.2319395612	 0.0147221485	 0.103522
H	 1.2457798202	 1.1008506695	-1.1226446085	 0.080157
H	 3.2820177706	 0.7304040729	-0.1719328993	 0.097364
H	 2.7151837337	 1.7285417978	 1.1473690155	 0.095273
H	 3.7756437693	-0.2228102864	 2.0287314799	 0.092438
H	 2.0850206334	-0.3455769917	 2.4268208147	 0.103486
H	 3.7589101551	-2.0702148483	 0.5803757499	 0.078994
H	 1.9905590972	-3.4724271721	 0.1325429359	 0.077239
H	-0.2664921688	-2.7374626735	 0.038239129	 0.10111
H	 0.0011606237	-3.1040219505	 1.7174082604	 0.103523
H	-1.3339497174	-1.103780705	 1.5059911028	 0.092362
H	 0.1753093262	-0.6602884967	 2.2494046285	 0.100553
H	-0.6646337873	-0.1916004162	-0.6697668314	 0.076598
