20
gdb 64075	3.2915	1.19547	1.09198	4.2018	81.98	-0.2386	-0.031	0.2077	1197.3992	0.171774	-403.205775	-403.196984	-403.19604	-403.238695	34.264	
C	 0.0612862526	 1.5420248485	-0.0137087057	-0.428132
C	-0.0600543278	 0.0086119176	 0.0002185683	 0.217761
C	-1.5504031466	-0.3963367564	 0.0464737525	-0.40966
C	 0.6225017392	-0.5619080518	-1.2590755333	-0.192766
N	 0.8271811169	-1.9991593762	-1.1453463509	-0.340244
C	 1.3764616913	-2.5684766822	-0.0194847705	 0.389539
O	 1.8374758435	-3.6970257285	-0.01181509	-0.381468
C	 1.3033423848	-1.7176569959	 1.1965509386	-0.173143
C	 0.6396875074	-0.5599127903	 1.2173147289	-0.070624
H	 1.1085731975	 1.8603712185	-0.0008122308	 0.121211
H	-0.4103627566	 1.9609515635	-0.909273123	 0.116989
H	-0.4352455849	 1.9788052369	 0.858797935	 0.118546
H	-2.1005624141	 0.0748392295	-0.7760189988	 0.111782
H	-1.6611435931	-1.4802061575	-0.0380404765	 0.135431
H	-2.0130280501	-0.0777715965	 0.9859784795	 0.11644
H	 0.0002751954	-0.3686173079	-2.1389051727	 0.108526
H	 1.5794505128	-0.038142976	-1.4128405855	 0.101806
H	 0.9862293666	-2.5293738672	-1.9898023747	 0.244496
H	 1.7783750426	-2.1366145005	 2.0761907794	 0.113285
H	 0.5476942624	 0.0034788024	 2.1443683303	 0.100225
