14
gdb 133059	4.95485	1.00885	0.84255	2.6139	66.89	-0.2584	-0.0624	0.1959	1243.514	0.101268	-478.013354	-478.00582	-478.004876	-478.046134	27.476	
O	 0.3869542582	 0.8377873021	 0.8356617751	-0.426397
C	-0.026748492	 0.1461433247	-0.3106872661	-0.11564
C	-1.4211028736	-0.4274391798	-0.1828783808	 0.335699
N	-2.05364805	-0.2046559926	 0.9698945749	-0.296029
C	-3.2848040926	-0.7017709948	 1.1038848782	-0.099124
C	-3.8674501855	-1.4193044376	 0.0741718014	 0.214694
F	-5.0939709103	-1.9196993388	 0.1961744654	-0.062618
C	-3.1364155669	-1.6044250713	-1.0941485699	-0.094709
N	-1.9104122186	-1.1083396269	-1.225190708	-0.269789
H	-0.3502806106	 0.7813800413	 1.4611496526	 0.292716
H	-0.0114370715	 0.805111918	-1.1926553716	 0.120459
H	 0.6610261009	-0.6833590794	-0.5369433488	 0.120505
H	-3.814429733	-0.5294193869	 2.0370212099	 0.141141
H	-3.5590466945	-2.1625023379	-1.9261770422	 0.13909
