15
gdb 131841	3.14173	1.27058	0.94484	1.1905	63.67	-0.2569	-0.0364	0.2205	1170.4449	0.11389	-487.257517	-487.249459	-487.248515	-487.291091	28.921	
O	-0.2204165967	 1.5577444672	 0.4762886095	-0.416986
C	 0.0432490378	 0.2274598377	 0.0946419548	-0.057347
C	-1.2288702099	-0.5911529333	-0.1424282022	-0.17791
N	-1.9202006859	-0.1931450041	-1.358754361	-0.076216
N	-2.2204878774	 1.1038770286	-1.6371731667	-0.132188
N	-2.7975693808	 1.1600353082	-2.7686197419	-0.060685
N	-2.8865732634	-0.1057257069	-3.2449285464	-0.305857
C	-2.3324239583	-1.0385933383	-2.3818404221	 0.523695
O	-2.2281484879	-2.2396987911	-2.4792984042	-0.412871
H	-0.7552472905	 1.9620116487	-0.2190025574	 0.300378
H	 0.6815586572	 0.1689019515	-0.8015320213	 0.099794
H	 0.593318805	-0.2322294344	 0.9222202426	 0.121878
H	-1.0005338282	-1.6521452492	-0.2772362199	 0.154572
H	-1.9019248643	-0.4793422546	 0.7141141747	 0.141211
H	-3.3180458567	-0.2841645499	-4.1360564984	 0.298533
