19
gdb 117262	4.89623	0.75503	0.72765	3.178	73.2	-0.2499	0.0018	0.2517	1617.9381	0.158147	-460.17525	-460.165657	-460.164712	-460.212101	32.776	
C	-0.2269422347	 1.4728439851	-0.1787809394	-0.391716
C	 0.2088844516	 0.0440577522	 0.0813205786	-0.046136
O	 0.693815141	-0.4987658814	-1.1655973431	-0.24574
C	 1.1559694653	-1.7615527452	-1.1154339315	 0.432317
O	 1.1765496864	-2.4332850031	-0.1125946952	-0.363738
C	 1.6543286787	-2.2241943237	-2.4605091822	-0.166301
C	 3.1092518648	-2.7653028248	-2.4910452345	-0.070837
O	 2.682658992	-4.0337265218	-3.0166512487	-0.267961
C	 1.2966429639	-3.6785341025	-2.8547997637	-0.072598
H	 0.6109496881	 2.0778149518	-0.5363379979	 0.130785
H	-1.0223785196	 1.5090167944	-0.9283826605	 0.130934
H	-0.6043317938	 1.919104998	 0.7459845013	 0.125623
H	 1.0087273668	-0.0143292252	 0.8258564649	 0.125227
H	-0.6161379387	-0.5798258381	 0.4391278438	 0.124371
H	 1.442265878	-1.4830757668	-3.2291846687	 0.100429
H	 3.7971093363	-2.2452603201	-3.166577238	 0.108314
H	 3.5647765025	-2.8627524198	-1.4983290495	 0.118328
H	 0.8190272418	-4.2436858672	-2.0463380494	 0.121991
H	 0.7279187194	-3.7970424619	-3.7834080363	 0.106707
