22
gdb 101781	4.24747	0.6623	0.60933	2.4568	79.77	-0.2642	0.0589	0.323	1885.2159	0.192426	-441.54405	-441.53297	-441.532026	-441.581647	39.231	
C	 0.0061110321	 1.5493026525	 0.0486894042	-0.392166
C	-0.0516751668	 0.0187288378	 0.0334534194	-0.170745
C	-1.476195963	-0.563946626	-0.0251651597	 0.016739
C	-2.2188173264	-0.1939018036	-1.3164648554	-0.391582
C	-1.4052221421	-2.0785415129	 0.1520342343	-0.057234
O	-2.7465723213	-2.5838570573	 0.265499338	-0.265348
C	-2.8547388248	-3.9336372968	 0.3140119059	 0.491965
N	-4.1746723011	-4.2918310154	 0.3721240513	-0.564235
O	-1.9238274565	-4.7035325068	 0.2789413788	-0.396957
H	 1.0382173748	 1.8982236172	 0.1514377696	 0.114375
H	-0.3964238423	 1.9833184252	-0.8713437119	 0.120426
H	-0.5676521772	 1.9578103559	 0.8882381088	 0.114185
H	 0.5264917918	-0.3607782649	-0.8203306681	 0.09761
H	 0.4488701609	-0.3637344364	 0.9324026033	 0.09554
H	-2.0430231406	-0.1645892663	 0.8281710063	 0.076968
H	-3.1976872304	-0.6781410551	-1.3502470358	 0.124854
H	-2.3737731672	 0.8851703215	-1.3986389158	 0.114383
H	-1.6513254742	-0.519328823	-2.19701441	 0.111549
H	-0.910755868	-2.5604084992	-0.6985823498	 0.11911
H	-0.8468800875	-2.3487491013	 1.054790532	 0.111327
H	-4.8513037223	-3.5945066768	 0.6323852287	 0.262088
H	-4.359521928	-5.2449713682	 0.633512616	 0.267149
