18
gdb 22370	2.25172	1.30108	0.86967	2.6443	71.34	-0.2511	-0.002	0.2491	1291.0302	0.146344	-476.18648	-476.177263	-476.176319	-476.220629	34.429	
O	-0.1122275152	 1.2878991388	-0.3213443805	-0.391358
N	-0.0304557179	-0.1111108102	-0.272544008	-0.244998
C	-1.1342023577	-0.6428239495	 0.0592984255	 0.375607
C	-2.4715962617	-0.0079249082	 0.3372527784	-0.344054
C	-3.408953068	-1.2126544624	 0.6108086795	 0.110504
O	-4.7280539789	-1.0423659431	 0.1277524328	-0.429469
C	-2.7415777662	-2.3850347491	-0.1208858626	-0.241605
C	-1.242788867	-2.1584124108	 0.1170302812	 0.071414
O	-0.4261648889	-2.8356446426	-0.8071185398	-0.442352
H	 0.7762413383	 1.5399919298	-0.5955609935	 0.308322
H	-2.429766698	 0.7260126689	 1.1480341306	 0.122099
H	-2.8151513686	 0.5234135191	-0.5591132838	 0.140997
H	-3.4232157362	-1.4218079382	 1.6921757152	 0.07281
H	-5.1601833618	-0.3671027121	 0.6599480443	 0.28435
H	-3.0943300388	-3.3598353262	 0.2204994141	 0.110806
H	-2.9473670924	-2.2973407165	-1.1934882143	 0.123831
H	-0.9938932741	-2.4775650894	 1.1464793857	 0.082378
H	 0.3477136632	-2.2764042682	-0.9490945748	 0.29072
