20
gdb 77117	3.05558	1.13839	0.92134	4.2698	82.18	-0.2389	0.0254	0.2643	1307.8054	0.170307	-403.148681	-403.139597	-403.138653	-403.182962	33.583	
C	-0.359371573	 1.3686304489	 0.013140505	-0.397898
C	 0.0167876576	-0.1060733096	-0.0116832804	-0.032006
N	 1.2281387922	-0.437430926	-0.7906354532	-0.054522
C	 1.9547111412	-1.045907285	 0.32879638	-0.241799
C	 0.7513627277	-0.6919117532	 1.2163167183	 0.32641
C	 0.7787553501	-0.1470879888	 2.6107686181	-0.322258
C	 0.1673992303	-1.5024513344	 2.3289266432	-0.320708
C	 1.42775314	-0.6203902254	-2.1152793494	 0.129754
O	 2.4064072532	-1.153408956	-2.5981805133	-0.332717
H	 0.4912268608	 1.9827973357	 0.3215010719	 0.12712
H	-0.6881713783	 1.7037647033	-0.9756048124	 0.125153
H	-1.1851385742	 1.5392139325	 0.7124098159	 0.120208
H	-0.8482815315	-0.7105217681	-0.3176349844	 0.087829
H	 2.1474074743	-2.1148944982	 0.184116524	 0.124327
H	 2.8985949237	-0.5445232533	 0.568997826	 0.120392
H	 1.7352798921	-0.110843115	 3.1224004375	 0.120268
H	 0.1114716281	 0.6722041164	 2.8578373727	 0.118399
H	-0.9131381331	-1.5942561727	 2.3809383646	 0.11681
H	 0.705260129	-2.3877455898	 2.6528201795	 0.120119
H	 0.5930528897	-0.2113826011	-2.7221256435	 0.065118
