18
gdb 129840	6.60904	0.72965	0.66392	3.2659	75.51	-0.2046	0.0408	0.2453	1637.0224	0.148728	-435.278976	-435.269495	-435.268551	-435.314304	33.937	
N	 0.2922586121	 1.313744991	 0.5763302195	-0.606582
C	-0.0043587565	 0.0169237042	 0.1488019739	 0.399603
C	-1.1490983194	-0.7508900815	 0.2293054085	-0.374774
C	-0.7798325547	-2.0139083217	-0.3028939512	 0.360038
C	-1.6568001827	-3.2197657853	-0.4675839763	-0.292238
C	-0.9050422951	-4.4766734303	-0.8882698567	-0.069752
O	-1.866017061	-5.5207711867	-0.9944520823	-0.428806
N	 0.4911858835	-2.0297216447	-0.6872878954	-0.30381
N	 0.946179688	-0.7782335315	-0.4021778768	-0.252695
H	 0.757231017	 1.8725829262	-0.129854684	 0.249252
H	-0.5368881878	 1.8011586301	 0.8883150183	 0.255834
H	-2.1129766927	-0.4416154067	 0.6010048463	 0.088305
H	-2.1845350035	-3.4247693553	 0.4719435492	 0.115247
H	-2.439329486	-3.0190636232	-1.2109745702	 0.117176
H	-0.3907834773	-4.3010728006	-1.8431343367	 0.100994
H	-0.1312238093	-4.7136739786	-0.1437737034	 0.095216
H	-1.4072459598	-6.316046147	-1.2790356347	 0.28256
H	 1.9218482452	-0.5695733886	-0.5245291979	 0.264431
