25
gdb 112923	3.06381	0.98266	0.78857	0.2127	95.48	-0.2343	0.0299	0.2643	1570.8513	0.229831	-352.388711	-352.378925	-352.377981	-352.423191	37.767	
C	 0.0968055333	 1.579727782	-0.0934449088	-0.391691
C	 0.0028087944	 0.0548897163	 0.0164188158	-0.178362
C	-1.4365773885	-0.5003535455	 0.0719125104	-0.023864
C	-1.4483066437	-2.0235889702	-0.1426883341	-0.200721
C	-2.8225886249	-2.6455975707	 0.1414850483	 0.020203
C	-2.8633467449	-4.1363343731	-0.2047231278	-0.403691
C	-3.2120239349	-2.3928434029	 1.6072834678	-0.237235
C	-2.9097979664	-0.9850270218	 2.0487622033	-0.0842
C	-2.1404916094	-0.1421784068	 1.3601582013	-0.033691
H	 1.1402446669	 1.903152492	-0.1626014353	 0.111621
H	-0.4232071961	 1.9433469335	-0.9869725628	 0.113132
H	-0.3432350749	 2.0842218468	 0.7725485106	 0.119014
H	 0.5085310213	-0.3940431184	-0.8483149009	 0.090793
H	 0.5509045833	-0.2889954169	 0.9034204972	 0.095272
H	-1.9894512091	-0.0340971284	-0.761092689	 0.073712
H	-1.1324074982	-2.2534854841	-1.1678144733	 0.084619
H	-0.7041375973	-2.4847260216	 0.5232470567	 0.089594
H	-3.5582463118	-2.1258207786	-0.4895618731	 0.071106
H	-2.1231352401	-4.6944544871	 0.3813197845	 0.110812
H	-3.8475425527	-4.5684095546	 0.0075750633	 0.108234
H	-2.6446858183	-4.3057578369	-1.2644897947	 0.108362
H	-4.2789496238	-2.6080619654	 1.7544457153	 0.097633
H	-2.6822252577	-3.1056027918	 2.259367754	 0.100654
H	-3.3603957775	-0.6572474048	 2.9833749785	 0.079663
H	-1.9931290489	 0.8669108089	 1.7379114028	 0.079031
