17
gdb 99567	2.26076	1.15243	0.89692	3.6211	74.76	-0.2689	0.0133	0.2822	1308.2879	0.134259	-417.966614	-417.95649	-417.955546	-418.001896	36.094	
N	-0.0834868448	 1.5276017913	-0.0265347963	-0.488646
C	 0.0491056955	 0.072392294	-0.0245345934	-0.154811
C	 0.6787231524	-0.4590675268	-1.2548806523	 0.264893
N	 1.175085739	-0.8290872174	-2.2316165721	-0.323175
C	 0.816634375	-0.4415842455	 1.2295989051	-0.182287
C	 2.2503292174	 0.1328336068	 1.3414274277	-0.075929
O	 2.951448527	-0.4275392928	 2.4266532612	-0.4153
C	 0.0682885368	-0.1620506819	 2.4515876931	 0.31316
C	-0.4991681162	 0.0644131651	 3.4871205677	-0.445693
H	 0.7934004826	 1.9677470153	-0.286644228	 0.248336
H	-0.7666759036	 1.8125264497	-0.7207321474	 0.249863
H	-0.9607187862	-0.3474864596	 0.0266801129	 0.146021
H	 0.9199799829	-1.5288588615	 1.1240055364	 0.134866
H	 2.8127852361	-0.1277137048	 0.4394586462	 0.132509
H	 2.1974636759	 1.2288298374	 1.4160743183	 0.102002
H	 2.4520927598	-0.223349443	 3.2266381594	 0.288803
H	-1.0222815595	 0.2619730538	 4.3903994414	 0.205386
