19
gdb 83882	2.1872	1.89631	1.38719	2.4155	70.51	-0.234	0.0736	0.3076	1007.6162	0.159915	-460.142228	-460.134091	-460.133147	-460.174552	31.841	
C	-0.0608712897	 1.5364210839	-0.0703759439	-0.405094
C	 0.0062604016	 0.0176758952	 0.0031115237	 0.110081
O	 0.6062212535	-0.4415362615	-1.2201668266	-0.249359
C	 0.9226654264	-1.7977363931	-1.1694415267	 0.002247
O	 2.0085391546	-2.0407966726	-0.2956530038	-0.254905
C	 1.7303482543	-1.6545286791	 1.0275366572	 0.005659
C	 2.2568768671	-0.2900253573	 1.3988228452	 0.107304
O	 3.011296925	 0.4168505399	 0.4700342437	-0.422104
C	 0.764092418	-0.4950700489	 1.2202512948	-0.150816
H	 0.9489619881	 1.949848145	-0.107828214	 0.151335
H	-0.6113962978	 1.8479978821	-0.9625010731	 0.120519
H	-0.5728727038	 1.9334377132	 0.8113929901	 0.113535
H	-1.0141278769	-0.3992131545	 0.0458798248	 0.073689
H	 0.0484873676	-2.3930081023	-0.853982071	 0.087172
H	 1.2540350539	-2.0993773251	-2.1648139502	 0.12039
H	 1.7600312613	-2.4828305151	 1.7302911242	 0.099231
H	 2.6197694774	-0.1396423445	 2.4111702341	 0.10304
H	 3.004680904	-0.1066376456	-0.3441236749	 0.293335
H	 0.1711651455	-0.51261978	 2.1303862564	 0.09474
