19
gdb 82081	2.51175	1.62824	1.18921	3.8598	75.18	-0.2077	0.0229	0.2307	1077.6353	0.159078	-419.186097	-419.177232	-419.176288	-419.219711	33.662	
C	-0.58602797	 1.405788394	 0.4398978875	-0.325317
N	-0.126252224	 0.04821576	 0.1998929443	-0.088715
C	 0.2583614373	-0.3430645943	-1.1493267014	 0.011278
C	 1.5514472601	 0.2683327608	-1.6166614745	-0.306729
C	 1.57916962	-0.911642299	-0.6639152087	-0.147847
C	 1.174916842	-0.4615919689	 0.7435608721	-0.048595
C	 2.0584539101	 0.5077195129	 1.5341829235	 0.372639
N	 3.3656347166	 0.5478875259	 1.1479068624	-0.521899
O	 1.6268882967	 1.140453986	 2.4795335689	-0.367628
H	 0.082832226	 2.1918222922	 0.049986175	 0.092487
H	-1.5631861003	 1.5257845591	-0.0407835968	 0.110778
H	-0.6953956501	 1.5649269383	 1.5135703762	 0.150859
H	-0.4700019831	-0.769071518	-1.831184792	 0.097727
H	 1.8320712696	 0.0332635418	-2.6387740039	 0.115647
H	 1.8503688353	 1.2585184653	-1.2841723037	 0.11635
H	 2.0351739481	-1.8609195363	-0.9121845405	 0.098596
H	 0.9816986274	-1.3058520792	 1.4178260335	 0.113382
H	 3.6561480871	 0.1605254809	 0.2667749857	 0.267626
H	 3.9765919312	 1.1957339984	 1.6195070825	 0.259363
