21
gdb 92028	2.72222	1.57271	1.18637	1.4608	80.82	-0.2427	0.071	0.3137	1096.8807	0.185302	-387.071619	-387.063896	-387.062952	-387.103323	32.175	
O	-0.1251137913	 1.4337573866	 0.1060062203	-0.438158
C	-0.0035708028	 0.0150134066	 0.0224527471	 0.123158
C	 0.8219689868	-0.538119917	 1.1992320526	-0.280565
C	 0.8528022865	-2.0624003288	 1.2385838469	-0.029996
C	 0.0863641615	-2.8293380882	 2.2908359986	-0.305676
C	-0.4253156732	-2.7880239223	 0.8728409686	-0.013169
C	-1.6190278908	-1.9763182962	 0.4356305861	-0.041689
C	-2.1803055579	-0.8182215964	 1.2257102248	-0.303274
C	-1.4042188479	-0.5524770812	-0.0392818937	-0.008532
H	 0.763606763	 1.8047072512	 0.096493504	 0.275519
H	 0.5069209986	-0.259506268	-0.9171601453	 0.058567
H	 1.8440404623	-0.1489340487	 1.1197668389	 0.086955
H	 0.4127148948	-0.1190924888	 2.1249418561	 0.109969
H	 1.7768641227	-2.5151168053	 0.8931364302	 0.081057
H	 0.5047263435	-3.7606554452	 2.6574029283	 0.106874
H	-0.4476703858	-2.2579937331	 3.0433626823	 0.111175
H	-0.3028924101	-3.704420213	 0.3034892655	 0.080454
H	-2.3552832706	-2.5533195762	-0.1151664768	 0.081321
H	-3.2544386844	-0.6711605737	 1.2026694546	 0.108337
H	-1.729490135	-0.5560500483	 2.175422232	 0.113132
H	-1.9686185599	-0.2174347239	-0.9037844311	 0.08454
