15
gdb 23258	2.961	1.52807	1.09248	3.6443	71.5	-0.2388	-0.0432	0.1956	1058.5405	0.113673	-453.921169	-453.913682	-453.912738	-453.953157	28.983	
O	-0.0261645953	 1.3163495175	-0.0812894291	-0.350568
N	 0.0374817472	-0.0638354341	-0.0276208154	-0.230581
C	-1.10348953	-0.6328250767	 0.045128614	 0.303574
C	-1.2339414117	-2.110265409	 0.0513926624	-0.123588
C	-1.9872921427	-2.7640475941	 1.2095182907	-0.30764
C	-2.715094636	-2.3887224822	-0.0529703427	-0.004
N	-3.3551710396	-1.1048627718	-0.0761344803	-0.324276
C	-2.4987822725	-0.0299911492	 0.0837917002	 0.332636
O	-2.8317493747	 1.1195229165	 0.2482918877	-0.35165
H	 0.9047761197	 1.5597383111	-0.1405189496	 0.313076
H	-0.5022947209	-2.7009615141	-0.4828949062	 0.117038
H	-1.7700141279	-3.8130647017	 1.3790618894	 0.126697
H	-2.1815262776	-2.1823127026	 2.1040463956	 0.130942
H	-3.1123183285	-3.1433442616	-0.7219994388	 0.113089
H	-4.3308884193	-0.982008378	 0.1485396822	 0.255251
