16
gdb 48974	3.7154	1.51923	1.22884	2.4051	76.79	-0.2222	-0.0552	0.167	987.4645	0.12383	-400.631032	-400.623904	-400.62296	-400.662478	27.906	
O	-0.3332335949	 0.5402698326	 0.8385977897	-0.262801
C	 0.2257063757	 0.945610708	-0.1528039762	 0.104191
C	 1.2747482724	 1.995332186	-0.1077175436	 0.225738
C	 1.7425286399	 2.5702726497	 1.2449118076	-0.323299
C	 2.7605439579	 3.5804157949	 0.7473075084	-0.109862
C	 2.5945626814	 3.7782312757	-0.5796588986	 0.0095
C	 3.3919195731	 2.806834924	-1.4614644458	-0.171526
N	 2.1338478514	 1.9260527082	-1.433456109	-0.185742
C	 1.3174275608	 3.1019756983	-1.0920099404	-0.112454
H	-0.0179704099	 0.5655235733	-1.1654925486	 0.093023
H	 0.8623704473	 2.9234028239	 1.7972884223	 0.139301
H	 2.2446832367	 1.8439275347	 1.8923058827	 0.132986
H	 3.7489958081	 3.6086014708	 1.1977343362	 0.106008
H	 3.5317707717	 3.0713092962	-2.5137808689	 0.127499
H	 4.3032353834	 2.3715628042	-1.0443588466	 0.120713
H	 0.5210326351	 3.4868197196	-1.7199823292	 0.106725
