20
gdb 7664	3.87387	1.71386	1.40945	1.4198	75.53	-0.253	0.0764	0.3293	961.233	0.176541	-348.952724	-348.944617	-348.943673	-348.98437	32.264	
C	-0.1302204855	 1.6204062213	 0.19649539	-0.439387
C	 0.0275623187	 0.1068756081	 0.1298160039	 0.057012
C	 1.1422398188	-0.5680829033	-0.7367241095	-0.136575
C	 2.1703278588	-0.1188703811	 0.3469439402	-0.240175
C	 0.9400442964	-0.6686193274	 1.1384109953	-0.107839
C	 0.9325445237	-1.8633172107	 0.1361451251	 0.481326
C	-0.2919092128	-2.7541100447	-0.0513239353	-0.488404
O	 2.0620849968	-2.7073561812	 0.3054529496	-0.485765
H	 0.8070888143	 2.1643186675	 0.3288608074	 0.119458
H	-0.5987832252	 1.9908301949	-0.7223587173	 0.11454
H	-0.7897044084	 1.893878017	 1.0280094948	 0.115271
H	-0.9664611145	-0.3257670073	 0.0011369866	 0.056881
H	 1.2548686197	-0.5156835185	-1.8228014483	 0.055804
H	 3.0872500593	-0.6974575197	 0.4160997487	 0.115319
H	 2.366751377	 0.9489414109	 0.4250027335	 0.086482
H	 0.8229836547	-0.733110726	 2.2224745856	 0.063242
H	-1.2338248063	-2.2166107167	-0.1605392708	 0.125317
H	-0.166473713	-3.3695019581	-0.9520481623	 0.105012
H	-0.3796101795	-3.4344393788	 0.8012904589	 0.128099
H	 2.0671884071	-3.3400778362	-0.4197846461	 0.274383
