17
gdb 20892	5.47514	1.28065	1.13841	2.4216	72.15	-0.19	0.0308	0.2208	1080.5778	0.143919	-360.060761	-360.052603	-360.051658	-360.093923	29.56	
C	-0.2428368432	 1.5054563008	 0.1746339135	-0.371223
C	 0.1731387794	 0.0458588526	-0.0194899921	-0.139547
N	 0.7827473532	-0.5288011227	 1.1662113571	 0.067021
C	 0.1760297716	-1.2663196953	 2.1421019981	-0.114035
C	 1.1319021603	-1.506655079	 3.1129725997	 0.160476
N	 0.9790924181	-2.1719938561	 4.3429989676	-0.608479
C	 2.2877097998	-0.8575628538	 2.6242169328	-0.051746
N	 2.0652194084	-0.2677571557	 1.4484240574	-0.269212
H	 0.6265927422	 2.1106917976	 0.442657166	 0.145607
H	-0.6740138756	 1.9026333014	-0.749665921	 0.115972
H	-0.9872868458	 1.5985292545	 0.970969104	 0.124123
H	-0.6896859838	-0.5746535686	-0.2803129088	 0.113949
H	 0.9028786865	-0.0380448392	-0.8292574015	 0.131092
H	-0.8588665162	-1.5607627831	 2.0683747385	 0.114645
H	 0.2723925031	-2.8956116605	 4.3102060199	 0.240212
H	 1.8467238993	-2.5837678317	 4.6622675541	 0.242788
H	 3.2670398227	-0.8072365412	 3.0785254348	 0.098358
