19
gdb 62898	2.96241	1.48064	1.1298	4.3572	80.97	-0.2484	0.0043	0.2527	1106.9856	0.159093	-381.994538	-381.985909	-381.984965	-382.027799	32.916	
C	-0.0884248166	 1.5250306962	 0.1567736847	-0.4766
C	 0.0226904279	 0.0095641875	-0.0325338	 0.376236
C	-1.3617437727	-0.570524089	 0.2841028512	-0.484946
C	 0.8827057909	-0.5873975822	-1.194595235	-0.131627
C	 2.1056992753	-0.0518533035	-0.4223649629	-0.180025
N	 1.2459393471	-0.6541820133	 0.7167296406	-0.184662
C	 1.1136495422	-1.8301510812	-0.2861444445	-0.074867
C	 0.1710074331	-2.9109887919	-0.0402465567	 0.261388
N	-0.4782024645	-3.8540840072	 0.123758916	-0.336262
H	 0.8413149041	 2.086599518	 0.0857041708	 0.122206
H	-0.7788505046	 1.9306442074	-0.5901014381	 0.128195
H	-0.5194283421	 1.7282198084	 1.1425153228	 0.136724
H	-1.5977937225	-1.4979332046	-0.2321507763	 0.154021
H	-1.4496214201	-0.7509298268	 1.3603999457	 0.143424
H	-2.1309040302	 0.1566205065	 0.0099152859	 0.116108
H	 0.6869130523	-0.5812138846	-2.2724362639	 0.080732
H	 3.0566346974	-0.5717730476	-0.5553671931	 0.109638
H	 2.2677196098	 1.0177513153	-0.3519065003	 0.114289
H	 2.0814029132	-2.3179343574	-0.4354684268	 0.126028
