19
gdb 91835	3.40552	1.14736	0.98647	3.4651	80.88	-0.2612	0.0154	0.2767	1243.4111	0.161	-382.079572	-382.07127	-382.070326	-382.112616	31.894	
C	 0.1224272655	 1.5913829943	 0.0000235978	-0.408315
C	 0.0538598621	 0.0663465398	-0.0130840007	 0.050053
C	 0.8034431276	-0.5988061905	-1.2009920964	-0.228884
C	 1.2361701747	-1.9676115045	-0.6927485135	-0.089335
N	 2.4398654616	-1.9231547851	 0.1477849524	-0.356651
C	 1.1076672331	-1.9784006999	 0.8049600902	 0.206942
C	 0.6188958938	-0.6051866571	 1.2682462548	-0.292975
C	 0.737064462	-3.1685034411	 1.5166431367	 0.193504
N	 0.4460686349	-4.1257565515	 2.0988324042	-0.345195
H	 1.1600253516	 1.9349669639	 0.0806153307	 0.122185
H	-0.300215293	 2.0149896591	-0.9170138478	 0.117583
H	-0.4351667107	 2.0077739481	 0.8454378532	 0.118521
H	-0.9990025424	-0.2341795378	-0.0910925347	 0.082813
H	 0.1639329444	-0.6804282252	-2.0841266334	 0.107554
H	 1.6894946813	-0.0194696071	-1.4817670263	 0.117853
H	 1.0371952274	-2.8642907037	-1.2702112032	 0.113308
H	 2.8726742644	-2.8447432139	 0.1826923223	 0.247866
H	 1.4671512649	-0.0438217757	 1.6724648418	 0.122828
H	-0.1374011635	-0.6863900823	 2.0524174121	 0.120345
