20
gdb 78610	3.06628	1.44632	1.18914	1.4161	79.44	-0.2272	0.0636	0.2908	1110.1447	0.169653	-403.055152	-403.046476	-403.045532	-403.087781	33.808	
C	-0.1187554812	 1.5617599164	-0.0520473751	-0.423068
C	 0.0001989048	 0.0544519811	 0.0599891454	 0.018777
N	 1.2050221057	-0.5809488856	-0.6396831578	-0.187102
C	 2.0832672595	-0.282430651	 0.6083863889	-0.084996
C	 2.5686793601	-1.7269370332	 0.6284411204	 0.109814
O	 3.0348628503	-2.1807661381	 1.8756103495	-0.439297
C	 1.0693623476	-1.8023079811	 0.3067008325	-0.099954
C	 0.6910001117	-0.6135741231	 1.2558701518	 0.323351
C	 0.297097211	-0.6395785244	 2.7099794977	-0.533858
H	 0.7867543571	 2.0740922303	 0.2874226443	 0.116168
H	-0.3013921755	 1.8528079124	-1.0917333007	 0.127204
H	-0.9572944998	 1.9266119104	 0.5510778347	 0.117065
H	-0.9328987377	-0.4275282658	-0.263822739	 0.062552
H	 2.6684586051	 0.6347320025	 0.6814145613	 0.080914
H	 3.2343769438	-2.003741268	-0.199906626	 0.080576
H	 3.197881046	-3.1268624603	 1.8108123569	 0.287359
H	 0.4423899797	-2.6500887685	 0.0194580793	 0.072005
H	 1.0188778739	-1.2164504332	 3.2930242824	 0.140896
H	 0.2537671335	 0.3753050303	 3.1214858775	 0.117673
H	-0.6937853955	-1.090984951	 2.836898856	 0.113921
