18
gdb 103395	2.34972	1.51128	1.30599	2.4376	72.07	-0.2362	-0.0244	0.2118	1074.6616	0.145844	-439.04992	-439.040906	-439.039962	-439.08355	33.561	
C	-0.1464237142	 1.5138718868	 0.1318337889	-0.402748
C	 0.0470595828	-0.0069743773	 0.1047904132	-0.234605
C	 0.7022584324	-0.4968498863	-1.1785197876	 0.318702
O	 2.0102335286	 0.0207008534	-1.3655890343	-0.490483
C	 0.7226705084	-2.0115588532	-1.4632251268	-0.096532
N	-0.6747945607	-2.4367541797	-1.505975863	-0.335123
C	-0.0519818449	-1.8674851939	-2.7516329994	-0.193373
C	-0.0504775016	-0.3760669596	-2.5602727784	 0.394937
O	-0.2374794943	 0.5679008568	-3.2752863135	-0.329761
H	 0.8150203205	 2.0353908682	 0.0805902635	 0.113238
H	-0.7609468445	 1.8528492733	-0.7079267043	 0.136721
H	-0.6377887809	 1.8246757453	 1.0580511235	 0.116634
H	 0.6816654137	-0.3165685946	 0.9452391102	 0.099952
H	-0.9141614385	-0.5172321459	 0.215737221	 0.123757
H	 1.921367958	 0.9021861012	-1.7464765489	 0.297102
H	 1.5465728906	-2.6833938545	-1.2617235575	 0.117413
H	-0.6937156586	-3.4470936222	-1.6445260528	 0.245402
H	-0.0177854868	-2.4436715779	-3.6673841639	 0.118767
