17
gdb 3607	3.93266	3.93149	2.79415	0.1978	66.48	-0.2578	0.089	0.3468	584.9857	0.151502	-272.542369	-272.537156	-272.536212	-272.57088	22.08	
C	-0.0359210588	 1.5126160206	 0.0215887736	-0.222577
C	 1.5133153515	 1.552501244	 0.0143112378	-0.024421
C	 2.1416791304	 1.1899134906	 1.383842566	-0.222816
C	 1.8425878992	-0.310439895	 1.1362305065	-0.024619
C	 0.3512957048	-0.6797002118	 1.3414867191	-0.222559
C	-0.0071707711	-0.0361751592	-0.0217411783	-0.024512
C	 1.5268323963	 0.0259487816	-0.3688223606	-0.034427
H	-0.556147612	 1.9914020799	 0.8589413222	 0.085633
H	-0.4372663539	 1.9175108452	-0.9128660957	 0.095249
H	 1.9931259862	 2.3416715367	-0.5659348841	 0.059182
H	 3.2204823854	 1.3753139296	 1.3753636045	 0.095311
H	 1.7169309246	 1.6550013266	 2.2806753112	 0.08565
H	 2.589732912	-1.0332322526	 1.4664124777	 0.059213
H	 0.2135800816	-1.7649907242	 1.3043786679	 0.095259
H	-0.1523004812	-0.2964713758	 2.2362190857	 0.085636
H	-0.7609982049	-0.5363170798	-0.6310705682	 0.059156
H	 2.0070114901	-0.4137695666	-1.2400667153	 0.055643
