20
gdb 110305	2.95252	1.22802	1.05795	1.8491	75.68	-0.2249	0.0694	0.2943	1221.5192	0.16967	-440.212379	-440.203217	-440.202273	-440.246037	34.381	
C	 0.0205887549	 1.35369089	 0.286396983	-0.252445
O	-0.0186918474	-0.0139461249	-0.0956219956	-0.259554
C	-1.3146250256	-0.5657910228	-0.0674652458	 0.066172
C	-1.2879091832	-1.9797415642	-0.673235413	-0.086843
C	-1.618133498	-2.6013332045	 0.6660124505	-0.100606
C	-1.6490917615	-1.2090493489	 1.3429958241	 0.095379
O	-0.6315204413	-1.0054894829	 2.2876693375	-0.435388
N	-2.5154446478	-2.7060496053	-0.4602604372	-0.080529
C	-3.8387417959	-2.0974627905	-0.5053683126	-0.315773
H	 1.0584750989	 1.6810038712	 0.1908067205	 0.130735
H	-0.6097206209	 1.9637265624	-0.3762696507	 0.114739
H	-0.3096914587	 1.4925838812	 1.3230227832	 0.130971
H	-2.0399196337	 0.144588187	-0.4886092714	 0.064016
H	-0.604612796	-2.2937117392	-1.4556758101	 0.098483
H	-1.2410393599	-3.5051196335	 1.1347074616	 0.097405
H	-2.5917577325	-0.9230047091	 1.8181182041	 0.080745
H	 0.1890958169	-0.9264832275	 1.7803180008	 0.287385
H	-3.9197775431	-1.0938628746	-0.0650100683	 0.110061
H	-4.1558930386	-2.0341099129	-1.5507672279	 0.126593
H	-4.5393365467	-2.753225561	 0.0202072872	 0.128455
