17
gdb 79755	2.52723	1.7879	1.41184	1.9209	66.34	-0.2319	0.0626	0.2944	951.5639	0.136155	-458.925217	-458.917789	-458.916845	-458.956621	30.22	
O	 0.2978464493	 1.3337352681	 0.072648588	-0.428809
C	 0.0434790475	-0.0225537848	-0.0440814197	 0.059471
C	-1.3417484044	-0.6715139966	 0.022967922	-0.19457
C	-2.5580409205	 0.1621058645	-0.2722198553	 0.035969
O	-2.2998131348	 1.5586206756	-0.5827979816	-0.279466
C	-2.5138284623	 0.6345492151	-1.6676602428	 0.039334
C	-1.2495244598	 0.1123939244	-2.3289142933	-0.337043
C	-0.5050520492	-0.7114024553	-1.2612413952	 0.30486
O	 0.0589600779	-1.9202037025	-1.6766815798	-0.457658
H	-0.5322785718	 1.7903760406	-0.13647827	 0.30249
H	 0.8116084857	-0.6031870126	 0.4625727194	 0.10575
H	-1.4658791484	-1.5526640111	 0.6411869887	 0.09876
H	-3.4817479092	-0.0060150228	 0.2719877693	 0.110235
H	-3.3994813469	 0.8459808127	-2.2603536182	 0.107743
H	-1.5151665508	-0.563325874	-3.1476948597	 0.12357
H	-0.6418168293	 0.9250661277	-2.7422130137	 0.122608
H	 0.9757651069	-1.7541045191	-1.9223922882	 0.286754
