21
gdb 30766	2.98546	1.20123	0.92085	3.7505	86.96	-0.2033	0.0396	0.2429	1347.6095	0.182676	-383.326823	-383.316868	-383.315923	-383.362218	35.515	
C	-0.3777101793	 1.5709713187	 0.1096818069	-0.362677
C	 0.0936336161	 0.1170275036	-0.0554914524	-0.288428
C	 0.8540677088	-0.3861033571	 1.1335720555	 0.212826
C	 2.1790200027	-0.7498838525	 1.2300145787	 0.185448
C	 3.2898958447	-0.7893350266	 0.2353742092	-0.508362
N	 2.3600907888	-1.1240869506	 2.554359115	-0.032639
C	 3.5853275592	-1.5931601875	 3.163397704	-0.339144
C	 1.1553048772	-0.9666006236	 3.1739047703	-0.018333
N	 0.2297967244	-0.5272020901	 2.3575235076	-0.330553
H	 0.4749406554	 2.2513003868	 0.2061474286	 0.107061
H	-0.9752018819	 1.892377805	-0.7496601434	 0.10158
H	-0.9875626472	 1.6688422189	 1.0117152822	 0.137113
H	-0.7822728744	-0.5247222222	-0.2130179196	 0.110198
H	 0.7100229491	 0.0257408789	-0.9569602524	 0.089333
H	 4.1223247274	-0.1292672308	 0.5114323178	 0.126444
H	 3.7049372826	-1.7978211235	 0.1109916073	 0.126091
H	 2.9267194535	-0.4635567925	-0.7414111275	 0.140719
H	 4.3750290494	-0.8369892318	 3.1021193578	 0.140441
H	 3.395462302	-1.8096721852	 4.2164455766	 0.144097
H	 3.9440463727	-2.5084794494	 2.6809950233	 0.140602
H	 1.0252140789	-1.1951302486	 4.2224116048	 0.118184
