20
gdb 77068	2.90487	1.17774	1.04356	4.046	79.82	-0.247	0.0185	0.2655	1235.6978	0.170665	-399.322204	-399.312491	-399.311546	-399.356485	36.542	
C	-0.8521836645	 1.4971853892	 0.0882672158	-0.418609
C	-0.1337257106	 0.1547158668	 0.0596551193	 0.319408
C	-1.0880295205	-0.9717914914	-0.3499641256	-0.441947
N	 1.1283039612	 0.1850488815	-0.7425149783	-0.3375
C	 1.8644239777	-0.5866458623	 0.2742398075	-0.171476
C	 3.2012793171	-0.0887616141	 0.5868455252	 0.293395
N	 4.2429957016	 0.3136363766	 0.8869268356	-0.330352
C	 0.7200649196	-0.2370039642	 1.3176107235	-0.025046
N	 0.9374271674	 0.8122549023	 2.2781214701	-0.505465
H	-0.1695749406	 2.3106373177	 0.3394501704	 0.119044
H	-1.278696026	 1.7119184669	-0.89797811	 0.111931
H	-1.6660179369	 1.4907653611	 0.8193224185	 0.123568
H	-1.493645269	-0.7879592934	-1.3513508936	 0.119036
H	-0.5834016293	-1.9440013291	-0.361674782	 0.113067
H	-1.933004021	-1.0399913822	 0.3433590392	 0.127155
H	 1.0845593255	-0.2447065008	-1.661139349	 0.219259
H	 1.9301609138	-1.6671920017	 0.0889108898	 0.105287
H	 0.3506408794	-1.1180296588	 1.8461413299	 0.089398
H	 1.5193414162	 0.4831813048	 3.0420019961	 0.242105
H	 1.4244884988	 1.6002259411	 1.8618709777	 0.24774
