17
gdb 52757	2.34083	0.81385	0.62349	3.9274	80.24	-0.2533	-0.0458	0.2075	1740.7342	0.130795	-421.816151	-421.805279	-421.804335	-421.856009	34.963	
C	-0.0705542062	 1.5283309128	-0.0143389658	-0.499597
C	-0.0125427405	 0.0747243006	 0.0284383707	 0.122542
C	 0.0377660839	-1.1274434835	 0.0841602688	 0.022484
C	 0.1091485697	-2.5832668838	 0.0938279676	-0.268335
C	-1.3080221685	-3.2196934742	 0.003572887	-0.293598
C	-1.3095376397	-4.7123200698	 0.2764257682	 0.151793
O	-2.1723127961	-5.2740233236	 0.8994291843	-0.238795
C	 0.9560535083	-3.046081711	-1.0990015808	 0.168097
O	 1.8512137388	-3.8430515884	-1.027014343	-0.240799
H	 0.7459343081	 1.9390055281	-0.6179598546	 0.155708
H	-1.0142165262	 1.8763533372	-0.4478401917	 0.153876
H	 0.0122906842	 1.9550309652	 0.9909823803	 0.156853
H	 0.6120803822	-2.9404119241	 1.0001781317	 0.13152
H	-1.9926267935	-2.7320054587	 0.701001869	 0.145494
H	-1.707658473	-3.0575068748	-1.0081812989	 0.137731
H	-0.4498982703	-5.2748098415	-0.1504021599	 0.100845
H	 0.656405769	-2.5781019006	-2.063380853	 0.09418
