22
gdb 118255	5.27437	0.62546	0.58402	1.1583	79.99	-0.2306	0.0667	0.2973	1911.7942	0.192159	-441.438839	-441.428246	-441.427302	-441.475344	37.924	
O	 0.0724072183	 1.3674092778	 0.0035339055	-0.42416
C	 0.0849801387	-0.0511084249	 0.0839381865	-0.075658
C	-1.3488731538	-0.5371582578	-0.086043279	-0.193231
C	-1.4812126424	-2.0594929982	 0.0209885478	 0.113473
O	-0.9739404136	-2.5448604562	 1.2649096825	-0.427954
C	-2.92212977	-2.5228197896	-0.2179605183	-0.158536
N	-2.9982741207	-3.9668520007	-0.3714223461	-0.057737
C	-3.1796220234	-4.7535438297	 0.8405339295	-0.198562
C	-4.2977027194	-4.5850693388	-0.1273901278	-0.228352
H	 0.9699144678	 1.6820413359	 0.1447800637	 0.285286
H	 0.717941356	-0.4906258057	-0.7044611433	 0.085666
H	 0.4790409779	-0.3996267286	 1.048652476	 0.096053
H	-1.9764422252	-0.0536704824	 0.6762783958	 0.094305
H	-1.7251891568	-0.1989175375	-1.058476786	 0.10801
H	-0.8485831622	-2.5399815607	-0.7347526128	 0.100401
H	-1.4674150323	-2.1071140486	 1.9683099716	 0.275035
H	-3.5605694661	-2.1506528011	 0.6093213179	 0.064812
H	-3.2980489582	-2.065570831	-1.1412790409	 0.104116
H	-2.6194751787	-5.6825106305	 0.8895163916	 0.117563
H	-3.255549598	-4.2226141099	 1.787100409	 0.099023
H	-5.121831833	-3.939136946	 0.1734302216	 0.104992
H	-4.5742476149	-5.3870429159	-0.8059001448	 0.115455
