23
gdb 117157	3.776	0.66299	0.63374	1.2131	82.88	-0.2388	-0.0089	0.2299	1894.9371	0.20231	-425.451869	-425.44024	-425.439296	-425.490013	40.418	
C	-0.0260395302	 1.5873171823	 0.0796464481	-0.3865
C	-0.1112813607	 0.0592621072	 0.0751748172	-0.16089
C	 0.758000733	-0.5854389424	 1.1541259066	-0.287249
C	 0.7422693766	-2.1068669055	 1.1424573038	 0.366495
O	 0.2231667335	-2.7371626254	 0.2464296996	-0.320827
C	 1.4060275358	-2.8077826062	 2.3264253107	-0.0677
C	 0.371330606	-3.0101042072	 3.4526154772	-0.396482
C	 2.0150721053	-4.1399119499	 1.8863530144	-0.077878
O	 2.6916966326	-4.6957148147	 3.0057701348	-0.42739
H	 0.999919815	 1.9302174886	-0.0965764218	 0.112615
H	-0.6588254006	 2.0203595037	-0.7010605864	 0.115349
H	-0.351342145	 2.0042183317	 1.0396155824	 0.112171
H	-1.1500842717	-0.2600413475	 0.2163450106	 0.107675
H	 0.187498096	-0.3356793415	-0.9011087909	 0.115697
H	 1.8094235404	-0.2779479634	 1.0416995028	 0.12224
H	 0.4741074259	-0.2391954279	 2.1577783664	 0.117231
H	 2.2120992064	-2.1704618279	 2.7113257189	 0.085884
H	-0.4786103522	-3.5961825775	 3.0878213034	 0.127783
H	 0.8361613991	-3.551315157	 4.2787971985	 0.143622
H	-0.008625154	-2.0563035896	 3.8308228824	 0.113186
H	 1.2161393795	-4.7988994264	 1.5213667177	 0.107847
H	 2.7074670154	-3.970760865	 1.0474317951	 0.088591
H	 2.991111794	-5.5772227085	 2.7664389787	 0.28853
