14
gdb 61750	2.48275	1.03628	0.76429	2.1372	66.32	-0.2675	-0.1136	0.1539	1373.7283	0.097094	-473.838879	-473.829364	-473.828419	-473.874922	31.739	
O	-0.1154877729	 1.4744373669	 0.0457153696	-0.428342
C	-0.0112804003	 0.0814954927	 0.0026598968	 0.015992
C	 0.7613962989	-0.3802239328	-1.2574608832	-0.3135
C	 0.0815765686	 0.112124243	-2.5262465295	 0.155442
O	-0.1946218406	-0.6041696385	-3.451597859	-0.225326
C	 0.6834246174	-0.4200508771	 1.260523793	 0.276981
O	 1.1275377287	 0.341006635	 2.0866567589	-0.286238
C	 0.7885846668	-1.8746161109	 1.4237637158	 0.261504
N	 0.8505029919	-3.0236889499	 1.5364558771	-0.292063
H	 0.337877115	 1.7663087952	 0.8519804715	 0.305487
H	-1.0148157864	-0.3761421517	-0.0151067309	 0.129791
H	 1.7668338806	 0.0597410906	-1.2177248986	 0.13915
H	 0.8459032769	-1.4689227787	-1.3059219006	 0.148553
H	-0.1386676346	 1.1988605861	-2.5386422209	 0.11257
