17
gdb 32154	4.03095	1.14556	0.90206	1.5753	79.13	-0.2515	-0.0193	0.2323	1278.688	0.137002	-418.07655	-418.068115	-418.067171	-418.109995	30.311	
C	-0.1065358653	 1.4160410606	 0.0602626108	-0.235019
O	-0.1266120917	-0.0129210714	 0.1169959248	-0.260224
C	 0.5983530476	-0.5990215857	 1.0778465176	 0.47429
N	 1.2965617053	 0.1437308813	 1.9278492752	-0.35697
C	 1.9882397486	-0.5353171088	 2.8515042058	 0.05863
N	 2.0542109876	-1.8471717925	 3.0115114042	-0.318718
C	 1.3376556997	-2.5896234708	 2.138025142	 0.346276
C	 1.4073164824	-4.0805963031	 2.3129254369	-0.467204
C	 0.5834515019	-1.9992580627	 1.1395595688	-0.289028
H	 0.9080238389	 1.78746742	-0.1056597241	 0.139887
H	-0.7508739755	 1.6802403225	-0.7789286125	 0.131334
H	-0.4895770165	 1.8504949375	 0.9872730934	 0.139886
H	 2.5621123316	 0.069887088	 3.5504680736	 0.11563
H	 0.8027601481	-4.606694882	 1.570830053	 0.121463
H	 2.4450777858	-4.4191126784	 2.2314700137	 0.145693
H	 1.0618620408	-4.3567665815	 3.3142002329	 0.145692
H	 0.0024978706	-2.5743876031	 0.4298649739	 0.108384
