27
gdb 96326	1.88575	1.4043	0.88237	0.131	95.66	-0.2937	0.0803	0.374	1461.6317	0.254199	-353.586119	-353.576207	-353.575262	-353.620307	39.071	
C	 0.0537745779	 1.6135689892	 0.0161622705	-0.399547
C	-0.0140386685	 0.0784190835	-0.005710974	 0.025648
C	 0.6482545158	-0.4663581808	-1.2894327816	-0.180166
C	 0.1429072484	-1.8293435367	-1.7999786775	-0.19887
C	-0.173314209	-2.8923734088	-0.7311695251	-0.197995
C	 0.7857544582	-2.9519326602	 0.4700636991	-0.178764
C	 0.4377582121	-1.9679434833	 1.6048275821	 0.027854
C	 1.2155229915	-2.3222155321	 2.8811770424	-0.399246
C	 0.6523181816	-0.4818817287	 1.2674339109	-0.158666
H	 1.0948697282	 1.9589310428	 0.0002726816	 0.11082
H	-0.4510219148	 2.0457544644	-0.8541482827	 0.106972
H	-0.4165062828	 2.0231792029	 0.9164315597	 0.106474
H	-1.0763237303	-0.2064470621	-0.0034226549	 0.065321
H	 0.5185101169	 0.2610930969	-2.0999021636	 0.085107
H	 1.7312784919	-0.5151505746	-1.1149126751	 0.089629
H	-0.7618005137	-1.6748925282	-2.4013669325	 0.091892
H	 0.8935963452	-2.2278246513	-2.4940058573	 0.091807
H	-1.1891115941	-2.734502433	-0.346588885	 0.092348
H	-0.1986578762	-3.8699772036	-1.2266256789	 0.087607
H	 0.753438886	-3.9645364199	 0.8907473192	 0.08654
H	 1.8242758894	-2.798809485	 0.143614179	 0.08676
H	-0.6330075955	-2.1049825699	 1.8208759523	 0.066237
H	 2.2966451248	-2.2360899545	 2.7180576948	 0.110666
H	 0.9527677318	-1.6541986122	 3.7083461296	 0.107082
H	 1.009747609	-3.3491914936	 3.2007967728	 0.106611
H	 1.7335163822	-0.2870317376	 1.195569093	 0.084612
H	 0.3039646538	 0.1027695962	 2.1292140012	 0.083266
