23
gdb 60050	2.30609	1.13969	0.92107	1.9096	82.36	-0.2409	0.0745	0.3154	1399.0152	0.202829	-425.413116	-425.402305	-425.401361	-425.44877	40.627	
C	-2.6013425356	 1.2917092007	-1.7524697741	-0.401574
C	-2.2901244136	-0.2051007413	-1.6922048179	 0.135908
O	-1.4567021135	-0.5871327697	-2.7898437983	-0.426497
C	-1.6994174161	-0.6061456799	-0.3285782631	-0.276061
C	-1.5758222351	-2.1047458106	-0.0821578418	 0.340341
C	-0.5168049506	-2.8415392291	-0.8842200749	-0.468794
C	-1.819690572	-2.5919904854	 1.3405132571	-0.384902
C	-2.8358063097	-2.8558976445	 0.2548193552	 0.075095
O	-4.037342619	-2.1343764606	 0.2434070183	-0.42208
H	-2.9814217848	 1.5574779238	-2.7426492782	 0.120478
H	-3.3496100106	 1.5726966919	-1.0046620516	 0.117451
H	-1.69862475	 1.887037681	-1.5620019522	 0.100461
H	-3.2155319142	-0.7696349255	-1.8430071911	 0.111358
H	-0.6295799337	-0.0987236998	-2.7089487995	 0.272217
H	-0.709786759	-0.1365248165	-0.2170558256	 0.074908
H	-2.3383783812	-0.1695927107	 0.4443636204	 0.101106
H	 0.4822542745	-2.4543051491	-0.647429843	 0.103562
H	-0.5156259145	-3.9103863864	-0.6463047636	 0.10211
H	-0.6796120368	-2.7199274729	-1.9569761584	 0.145203
H	-1.2299475576	-3.4218239143	 1.7170621294	 0.104943
H	-2.0852343836	-1.8485257998	 2.085461601	 0.10589
H	-2.9216917191	-3.875880781	-0.1211223217	 0.081547
H	-4.5853210243	-2.4574701901	 0.9660082935	 0.28733
