21
gdb 39689	3.8933	0.99959	0.87897	1.6303	77.44	-0.2444	0.0697	0.314	1353.4175	0.184303	-424.203734	-424.195118	-424.194174	-424.238918	31.044	
C	-0.0529390502	 1.3307715063	-0.3374200875	-0.094051
O	 1.3290461372	 1.5181727847	 0.0279716311	-0.272236
C	 1.4622359773	 0.139028546	 0.425604458	-0.094039
C	-0.0156035558	-0.1584197141	 0.0787575383	-0.019175
C	-0.9273791234	-0.5863302434	 1.2254800027	-0.008788
C	-2.4264476649	-0.6011454327	 0.8104861889	-0.26163
C	-2.7614579033	-2.1090808104	 0.6777369336	-0.068682
O	-1.5207519168	-2.8020346842	 0.726709468	-0.242872
C	-0.6949267722	-2.0605582773	 1.6088855633	-0.103026
H	-0.7242096171	 1.967520525	 0.2548302683	 0.096397
H	-0.2251989378	 1.5309439533	-1.4024023275	 0.099138
H	 2.2144566839	-0.3893217314	-0.1732414524	 0.100887
H	 1.7253110422	 0.0415245662	 1.4881471205	 0.094877
H	-0.1371503714	-0.8519629404	-0.7575254333	 0.088957
H	-0.7588707732	 0.0748067383	 2.0824457168	 0.074747
H	-3.0596940901	-0.120584613	 1.5599746989	 0.105422
H	-2.5801260652	-0.0690762068	-0.1326211969	 0.109601
H	-3.4111986295	-2.4345913999	 1.505254861	 0.091165
H	-3.2520418395	-2.3707339494	-0.263197506	 0.109688
H	 0.3358302929	-2.3995970639	 1.4700736377	 0.109007
H	-0.9809783432	-2.2414000629	 2.6587664962	 0.084615
