15
gdb 131877	5.75766	0.82235	0.75303	1.7637	63.47	-0.2641	-0.0317	0.2323	1437.3129	0.113871	-487.230819	-487.222701	-487.221757	-487.264922	28.41	
O	-0.0812970552	 1.437187899	-0.0109156273	-0.417221
C	-0.0346649761	 0.0258271465	-0.0035982077	-0.069574
C	-1.4196149574	-0.592482782	 0.0463000885	-0.0777
O	-2.0815418424	-0.1741231089	-1.1660902747	-0.270796
C	-3.3479449958	-0.5426899403	-1.3069609375	 0.510006
N	-4.0681797051	-0.1654131514	-2.3589440404	-0.311427
N	-5.2222764229	-0.7637549101	-2.0710728558	-0.054494
N	-5.2383416255	-1.4523275443	-0.9484228899	-0.10973
N	-4.0353692505	-1.3239285264	-0.4369207417	-0.282285
H	-0.6176775672	 1.6934940268	-0.7694137783	 0.294765
H	 0.5067774998	-0.3693554726	-0.8772749793	 0.101756
H	 0.5161893449	-0.2722488936	 0.8942643993	 0.119639
H	-1.3773152899	-1.686290151	 0.0861062869	 0.125413
H	-1.984929998	-0.2274007511	 0.9093764414	 0.135637
H	-6.0308724188	-0.6949281206	-2.6706496737	 0.30601
