17
gdb 44672	4.23028	1.27297	1.02686	4.0553	80.89	-0.2324	-0.0385	0.1939	1125.344	0.138062	-384.735272	-384.728293	-384.727349	-384.766717	27.865	
O	 0.0954217968	-0.0107582814	 0.061135063	-0.332241
C	 0.0216594617	 1.1930667322	-0.0070532215	 0.394016
C	-1.2888009079	 2.0150992657	-0.0783346815	-0.363176
C	-0.8185747682	 3.417769662	-0.4993850554	-0.101732
C	-1.2338847881	 4.7038531117	 0.1856203952	-0.095791
C	-0.172081904	 5.4649867826	 0.4658222908	-0.064653
C	 1.1444120427	 4.8033838808	 0.0712377673	-0.374625
C	 0.6692196786	 3.4019639584	-0.1874219652	 0.355936
C	 1.1397744929	 2.1718171386	 0.0406793431	-0.351659
H	-2.0134362458	 1.5458060066	-0.7465963966	 0.121987
H	-1.7218341469	 2.0277875783	 0.9287367201	 0.133184
H	-0.978845088	 3.5298337883	-1.5841892391	 0.104444
H	-2.267234628	 4.9876168604	 0.348136861	 0.103635
H	-0.2076510292	 6.4595466424	 0.8952722278	 0.103511
H	 1.5687179728	 5.2788755629	-0.8262946163	 0.129011
H	 1.9166276328	 4.8532237785	 0.8460996196	 0.127198
H	 2.1492335579	 1.8850982021	 0.3068234975	 0.110957
