17
gdb 39796	3.53456	1.44922	1.18966	1.7413	73.37	-0.2429	0.0665	0.3094	1039.8132	0.136762	-417.861234	-417.854067	-417.853123	-417.892642	28.751	
C	-0.0467253261	 1.5293912886	-0.0045354441	-0.339504
N	 1.245757482	 0.7748753323	 0.0493508095	-0.404788
C	-0.0097268644	 0.0691511538	 0.0061916513	 0.522403
C	-0.5454904073	-1.0255948889	 0.9419971127	-0.263237
N	-1.77306591	-1.0424554851	 0.0241517985	-0.324301
C	-0.5769206132	-1.0093033985	-0.93057017	-0.291274
C	 0.1301023162	-2.0306830419	-0.0125956366	 0.554964
C	 1.3055233273	-2.886028649	-0.0360745458	-0.302414
O	-0.0467592103	-3.4208739085	-0.0219787624	-0.299692
H	-0.2811566149	 2.0845668498	 0.8987396784	 0.128508
H	-0.3144502955	 2.0316260289	-0.9303140916	 0.119701
H	 1.6948035646	 0.7820680256	-0.8636770196	 0.233352
H	-0.6244359665	-1.0324260387	 2.0277742471	 0.096744
H	-2.1533385879	-1.9938961615	 0.0219681176	 0.229293
H	-0.6929024194	-0.9995083689	-2.0144846245	 0.090722
H	 1.8502823132	-3.0473756639	-0.9647406682	 0.121373
H	 1.8757768521	-3.056745234	 0.8749819876	 0.128152
