19
gdb 95484	2.08092	1.70007	1.00639	4.9965	79.14	-0.2571	-0.0367	0.2204	1193.9983	0.160065	-423.075205	-423.066806	-423.065862	-423.108298	31.941	
C	-0.456751743	 1.3145232361	 0.0669304158	-0.397307
C	 0.0641746704	-0.1131518422	-0.0342188955	 0.13207
C	 0.9279359919	-0.3496675423	-1.2778004774	-0.22067
C	 0.9240830499	-1.8079604338	-1.7363455508	-0.273897
C	 1.1293747392	-2.8409584837	-0.6718323879	-0.046448
C	 1.2664749021	-2.7090810308	 0.6519317387	-0.174335
C	 1.3460469855	-1.5127539195	 1.5336193887	 0.384416
O	 1.878238416	-1.5981306363	 2.6134901232	-0.337084
O	 0.8285243003	-0.3168278407	 1.1690591079	-0.240026
H	 0.3729465858	 2.0275224289	 0.0385362623	 0.131393
H	-1.1321995523	 1.5316554421	-0.7656274565	 0.116366
H	-0.9983099545	 1.4566180481	 1.005094349	 0.133836
H	-0.7826860772	-0.8130107906	-0.0301180398	 0.090594
H	 0.5682703676	 0.2792442538	-2.0989127362	 0.105903
H	 1.9447548399	-0.0138423174	-1.0452818682	 0.123093
H	-0.0329371915	-2.0357869116	-2.230554924	 0.121977
H	 1.6808098444	-1.9592759258	-2.518339718	 0.122303
H	 1.1705980582	-3.8602796782	-1.0545728594	 0.107654
H	 1.4429858573	-3.6052177561	 1.2385889781	 0.12016
