18
gdb 51888	3.73707	0.9504	0.86441	4.3047	69.85	-0.2514	0.021	0.2724	1343.6101	0.149366	-476.242434	-476.234121	-476.233176	-476.276453	30.416	
O	-0.1473461122	 0.1347314363	 0.6697134655	-0.312917
C	-0.0401201271	 1.2360081471	 0.1781422176	 0.155611
N	 1.1211277106	 1.7855443696	-0.2819591857	-0.291975
C	 2.4017088191	 1.1054100014	-0.239938366	 0.000289
C	 2.9816176169	 0.9118964617	-1.6509712119	-0.098125
O	 4.2874109129	 0.365718821	-1.5807487231	-0.227358
C	 5.1334923022	 1.1641709926	-0.7974599484	 0.018394
O	 4.6990312096	 1.2717444998	 0.5316893222	-0.227366
C	 3.4220682959	 1.8813520902	 0.6094547411	-0.098174
H	-0.8958843032	 1.9279331736	 0.0487329754	 0.078246
H	 1.079386849	 2.7152671196	-0.6713965555	 0.247145
H	 2.222450778	 0.1288787216	 0.2137656322	 0.143653
H	 2.3708589099	 0.2203195073	-2.2359100624	 0.128656
H	 3.003315614	 1.8842743607	-2.1771184262	 0.078467
H	 6.1081950417	 0.6742139836	-0.7772367046	 0.124721
H	 5.2174292131	 2.1736640335	-1.246785058	 0.073638
H	 3.4772216759	 2.9273655137	 0.2549778025	 0.078464
H	 3.1304340737	 1.8921719266	 1.6622105553	 0.128632
