17
gdb 105132	2.43478	1.26168	0.99449	3.6271	81.26	-0.2351	-0.0001	0.235	1226.7056	0.133941	-380.821301	-380.811821	-380.810876	-380.855609	34.679	
C	 0.2189326404	 1.3757321995	 0.2895006359	-0.329911
N	-0.2235622237	 0.090297728	-0.2385230156	-0.34222
C	 0.603688317	-0.4456539167	-1.2805947788	 0.123794
C	 1.987107961	-1.0136789186	-0.9874650254	-0.311064
C	 0.8446088158	-1.9628136903	-1.3065716659	-0.241733
C	 0.2837647525	-2.7652088108	-0.2582238123	 0.30085
N	-0.1770423552	-3.3835048539	 0.6052579829	-0.341842
C	 0.4241198274	 0.1816341872	-2.569375247	 0.336475
C	 0.2967787036	 0.7138824979	-3.6394583389	-0.444314
H	 1.2379334428	 1.3626814908	 0.7113596059	 0.100817
H	 0.1953885225	 2.1225600997	-0.5100724344	 0.13937
H	-0.4758590343	 1.6958969523	 1.0698130601	 0.128896
H	-0.3688069331	-0.5894321293	 0.4984997266	 0.243616
H	 2.7663723686	-0.9165083184	-1.7336160801	 0.139795
H	 2.3169124548	-0.9760795379	 0.0443652522	 0.141812
H	 0.8384141346	-2.4277062501	-2.285258384	 0.151593
H	 0.1682486052	 1.1842388705	-4.5830777412	 0.204066
