18
gdb 71430	3.79229	1.21642	1.20735	4.1677	77.5	-0.2277	0.0206	0.2483	1106.5879	0.14764	-401.911519	-401.903735	-401.902791	-401.943803	30.109	
C	 0.0249509669	 1.3938270483	-0.0455406138	-0.506064
C	 0.0445303777	-0.1039659851	 0.0048157228	 0.310079
C	-1.1095272686	-1.0748411365	-0.2816326595	-0.282675
C	-0.2005326159	-2.1729824401	 0.3421803358	-0.035409
C	 0.5961258705	-1.0260575756	 1.0805140602	-0.150945
C	 1.3359254558	-0.9357278146	-0.221187496	-0.082757
N	 0.9296216592	-2.2787261641	-0.6144340877	-0.043393
C	 0.8931779399	-2.8518631693	-1.8522852611	 0.133131
O	 0.1097842894	-3.713546474	-2.1905853227	-0.325213
H	 0.9682875215	 1.8165801033	 0.3172601564	 0.12157
H	-0.1275330388	 1.7524540883	-1.0698073137	 0.128123
H	-0.780505264	 1.8022353329	 0.5750617291	 0.125166
H	-1.9659372332	-0.8552642537	 0.3616398108	 0.106768
H	-1.4410644997	-1.2369589917	-1.3121873112	 0.113964
H	-0.5889254093	-3.0971341813	 0.7589606559	 0.105015
H	 0.9136679966	-0.8816659404	 2.102919903	 0.102897
H	 2.3005920066	-0.5039717035	-0.453148102	 0.111254
H	 1.7179262554	-2.4865589829	-2.4996711762	 0.068491
