23
gdb 96076	2.46628	1.49126	1.09273	1.188	85.26	-0.2426	0.0795	0.3221	1216.726	0.206694	-388.291682	-388.282722	-388.281778	-388.324732	35.436	
C	-0.03179539	 1.5558668742	-0.0174079981	-0.394987
C	 0.0494562041	 0.0259568855	 0.0165608101	-0.007174
C	 0.6649711172	-0.5369621965	-1.2722002508	-0.093412
O	 0.828859832	-1.9378441295	-1.1935117765	-0.239646
C	 1.8498083184	-2.303693883	-0.2808134309	-0.159109
C	 1.6831612339	-1.711867567	 1.1258528827	 0.321583
C	 1.6847595142	-2.7292351147	 2.2489533866	-0.477267
C	 2.2889099228	-0.3494595898	 1.3867018359	-0.336337
C	 0.7922954271	-0.4931456974	 1.2391788792	-0.041866
H	 0.9671456596	 2.0025168431	-0.0699276479	 0.115947
H	-0.6037820365	 1.9048935879	-0.8844047254	 0.109841
H	-0.5199751902	 1.9434293103	 0.8825438626	 0.113987
H	-0.9712439907	-0.3764383502	 0.0683964327	 0.078832
H	 0.0011613019	-0.3466057761	-2.1213573099	 0.1047
H	 1.6301669569	-0.0459694704	-1.4922269284	 0.080208
H	 1.812986351	-3.3958037728	-0.2277795298	 0.105129
H	 2.8324302755	-2.0246853608	-0.6984038411	 0.08611
H	 2.6259612997	-3.2920460571	 2.27551268	 0.115239
H	 1.5637100863	-2.244341233	 3.2230993625	 0.111956
H	 0.8688109817	-3.451953921	 2.1306519473	 0.119724
H	 2.6853604981	-0.1436600937	 2.3757873775	 0.104516
H	 2.8498170898	 0.1189116544	 0.5830597062	 0.105438
H	 0.2259483571	-0.4115285322	 2.1646207355	 0.076589
