21
gdb 105690	2.52163	0.98633	0.80654	4.012	80.5	-0.2733	0.0087	0.2821	1483.5781	0.180667	-424.24064	-424.230603	-424.229659	-424.276775	35.91	
C	-1.6808691549	-0.8978262733	-0.8796608089	-0.384406
C	-0.3747057557	-0.3623288995	-0.2798754871	-0.26774
C	 0.8523419655	-0.5715704042	-1.1563038164	 0.384678
C	 0.8670474352	 0.172368449	-2.4696502053	-0.158514
O	 0.8731998327	 1.592079255	-2.2316808702	-0.181158
C	-0.0139531053	 2.3562656556	-2.8914401319	 0.174757
O	-0.0582884845	 3.5444104678	-2.7783337514	-0.276833
C	 2.1886542875	-0.7708073993	-0.4819358959	-0.307482
C	 1.5107781841	-1.9337045477	-1.1613532261	-0.313861
H	-1.9534762788	-0.3780663807	-1.804331968	 0.111848
H	-1.6024264657	-1.9654572329	-1.1107485489	 0.118338
H	-2.5110080653	-0.7651704209	-0.1795294234	 0.120008
H	-0.47615796	 0.7074591244	-0.0612845067	 0.1182
H	-0.1959482318	-0.8531403411	 0.6837666498	 0.098143
H	 1.7721996283	-0.069293652	-3.0369522035	 0.11363
H	 0.0002128584	-0.0882119458	-3.0907952665	 0.110658
H	-0.6914691027	 1.765999462	-3.5407739888	 0.073851
H	 3.068517086	-0.3444654526	-0.9516443306	 0.11906
H	 2.213867319	-0.7533928791	 0.6020096299	 0.11771
H	 1.0660781411	-2.704229024	-0.5407303288	 0.116868
H	 1.9351177467	-2.3059109707	-2.0882694811	 0.112243
