25
gdb 104661	1.80547	1.31049	1.04199	1.1898	89.35	-0.2509	0.0724	0.3233	1374.3311	0.226692	-389.4822	-389.470712	-389.469768	-389.518831	41.918	
C	-0.9332626095	-0.1650905829	 0.4805288201	-0.387752
C	 0.5913624408	-0.3319885946	 0.5536346022	-0.250221
C	 1.2486937547	-0.7002252303	-0.7712693996	 0.339227
C	 1.1122144727	 0.3593925642	-1.8452571099	-0.144727
O	 1.71925885	 1.5604676042	-1.378608586	-0.424762
C	 2.5528427326	-1.4805427577	-0.7957830933	-0.056699
C	 3.3020031284	-1.9199817472	 0.4448027679	-0.417848
C	 1.2711695964	-2.1366460204	-1.272718633	-0.073956
C	 0.6118353425	-3.2890608002	-0.5424546871	-0.415992
H	-1.2200228837	 0.6558298684	-0.1836999327	 0.117129
H	-1.4204822679	-1.0753298772	 0.1157861153	 0.114196
H	-1.343414152	 0.0604950946	 1.4701175132	 0.108408
H	 1.0392582341	 0.605072841	 0.9021099759	 0.114933
H	 0.8260703746	-1.0826514571	 1.3125543481	 0.088117
H	 1.5996207528	 0.0065086081	-2.7679897813	 0.076724
H	 0.0503688179	 0.5275660074	-2.0852194653	 0.08261
H	 1.5240813694	 2.2591782594	-2.0096789685	 0.28466
H	 3.2267521282	-1.1774301739	-1.5945289926	 0.077843
H	 2.6464480415	-2.2921189009	 1.2348458394	 0.114457
H	 4.0043086876	-2.7256197459	 0.202186078	 0.112748
H	 3.8829928671	-1.0906875274	 0.8630998375	 0.121751
H	 1.1923031329	-2.2382095217	-2.3539940402	 0.071235
H	 0.6433490071	-3.1808819622	 0.5439869019	 0.117074
H	-0.4410032344	-3.3845451331	-0.830270109	 0.115906
H	 1.1056654963	-4.2357016046	-0.7901264509	 0.114938
