17
gdb 97031	2.57802	1.52987	0.9716	4.8571	81.58	-0.2145	-0.0557	0.1588	1185.4684	0.135871	-418.035404	-418.026715	-418.025771	-418.070136	31.595	
C	-0.0063753533	 1.4316475822	-0.3059547008	-0.344899
N	 0.0415314653	-0.0041264436	-0.1242047437	-0.245313
C	-1.0310865149	-0.6057591627	 0.215908394	 0.287314
N	-2.2610411937	-0.003906544	 0.4320024578	-0.390966
C	-3.4232340469	-0.677212976	 0.8035316803	 0.014168
C	-3.4718150348	-1.994935983	 0.9933875698	-0.125932
C	-2.2579698901	-2.8542018965	 0.8168133927	-0.375196
C	-0.9790293696	-2.1217597702	 0.407326493	 0.330258
O	 0.050163594	-2.7230230761	 0.2382441535	-0.282135
H	 0.9819907484	 1.7960692512	-0.5941875927	 0.135754
H	-0.7144251619	 1.7311302165	-1.0968554494	 0.113366
H	-0.2999955572	 1.9616867476	 0.6156698085	 0.113383
H	-2.3136740039	 0.9935206504	 0.3106926558	 0.254365
H	-4.2877554751	-0.0352471181	 0.925367004	 0.115566
H	-4.4066758026	-2.4592346547	 1.2817419743	 0.100797
H	-2.0186602637	-3.4070671606	 1.7363733613	 0.14975
H	-2.42390635	-3.6358681024	 0.0619120716	 0.149722
