16
gdb 71512	3.03249	1.60461	1.43627	3.7594	68.71	-0.2374	0.0138	0.2512	940.5375	0.125842	-437.872506	-437.865553	-437.864609	-437.903555	28.248	
O	-0.078347049	 1.3587339685	 0.0428567974	-0.467868
C	 0.0291555604	-0.0108921137	 0.0375604352	 0.389334
C	 0.7200578365	-0.9524594376	 1.0529891979	-0.316486
C	 0.0502084929	-1.8856864165	 0.0170205185	-0.057886
C	-1.2038584201	-0.9665082077	-0.0145888624	-0.029103
N	-1.7388853683	-1.0349843915	-1.3662956967	-0.340823
C	-0.6128263777	-0.9062555396	-2.1816792131	 0.407565
O	-0.5748326855	-0.7524866514	-3.3771511999	-0.370584
C	 0.5102786213	-0.9527145324	-1.1562940686	-0.233615
H	 0.8025747936	 1.747028242	-0.0008160551	 0.291702
H	 1.8127154171	-0.9499301872	 1.0615886309	 0.100149
H	 0.3117036797	-0.96504428	 2.0680714737	 0.10016
H	 0.0486798386	-2.9726746283	-0.0054641499	 0.096942
H	-1.9376008787	-0.9885980533	 0.7894033394	 0.091381
H	-2.5899202249	-0.5598351011	-1.6273263815	 0.252728
H	 1.540665524	-0.9484028102	-1.5054931559	 0.086405
