17
gdb 117418	5.12549	0.6528	0.61157	3.9834	71.89	-0.269	0.0066	0.2755	1796.8404	0.134541	-455.197805	-455.187665	-455.186721	-455.236245	33.759	
C	 0.4361868056	 1.3166751943	 0.0194095395	-0.371979
C	-0.4231131434	 0.0853615592	-0.2740736173	-0.148737
N	 0.0330333958	-0.6678132478	-1.4321937168	-0.364885
C	 0.7163088076	-1.8293919558	-1.3182311432	 0.54283
O	 0.9694479213	-2.4309903032	-0.2985907961	-0.406927
O	 1.0929594924	-2.2652772619	-2.5637563662	-0.272578
C	 1.798077147	-3.5029776278	-2.5382351967	-0.192911
C	 2.2575739682	-3.78653097	-3.8976682818	 0.264427
N	 2.6355282795	-4.0425667165	-4.9579138169	-0.291928
H	 1.4692493734	 1.0263934073	 0.2309000708	 0.135019
H	 0.4420771637	 2.0093643856	-0.8289258865	 0.116863
H	 0.0442981208	 1.854221247	 0.8884799938	 0.124673
H	-0.4020132211	-0.6075533978	 0.5695583882	 0.151731
H	-1.4667027852	 0.3786387537	-0.4359523735	 0.114195
H	-0.0447658231	-0.2671081635	-2.3531029137	 0.259168
H	 2.6516124412	-3.4499792606	-1.8550686189	 0.172879
H	 1.1499381764	-4.313734512	-2.188133655	 0.168159
