18
gdb 110893	2.87069	1.51795	1.2024	3.1933	72.39	-0.218	-0.0201	0.198	1072.8649	0.148353	-439.047353	-439.039388	-439.038444	-439.080029	30.115	
C	-0.1038878911	 1.3587604262	-0.0781212747	-0.248016
O	 0.1379913056	-0.0316541046	 0.0574097893	-0.251567
C	 0.6982673579	-0.6189997414	-1.0824417715	 0.081996
C	 1.0582944024	-2.0923412844	-0.8507826333	-0.061599
C	 1.3224041385	-2.6039116252	-2.2923070217	-0.253467
C	-0.2196104509	-2.3997879234	-2.3708108092	-0.121488
N	-0.3178862882	-2.7316692225	-0.8890946263	-0.322339
C	-0.3171833835	-0.8796559717	-2.242695823	 0.441671
O	-1.0010391354	-0.0953417578	-2.8400717502	-0.333444
H	 0.8295483216	 1.9062152757	-0.2848708833	 0.1009
H	-0.8202298283	 1.5717130562	-0.8790688253	 0.141612
H	-0.5109265369	 1.7001734822	 0.8761466227	 0.127608
H	 1.5610260944	-0.0369857597	-1.446982849	 0.078916
H	 1.7038084174	-2.3162582401	-0.0031508613	 0.087241
H	 1.981338704	-2.0376512733	-2.9608725876	 0.10633
H	 1.5855712899	-3.66438481	-2.3095157264	 0.112461
H	-0.8825818362	-2.8974506847	-3.0755734459	 0.091342
H	-0.1804257013	-3.7406309514	-0.8096932831	 0.221842
