18
gdb 81951	2.28576	1.90937	1.18791	3.4078	72.23	-0.2368	0.0153	0.2521	1048.8801	0.148582	-439.110519	-439.102204	-439.10126	-439.143406	31.398	
C	-0.0622014712	 1.3916896648	-0.0605766902	-0.348848
N	-0.0158256503	-0.0430566839	 0.1306499725	-0.064729
C	-1.1938823173	-0.8694976895	 0.0730578697	-0.019826
C	-1.4245331927	-1.6068749136	-1.2237426676	-0.301103
C	-0.7320354519	-2.2992693816	-0.0701923472	-0.06095
C	 0.7798842405	-2.2680674247	-0.013317955	 0.013799
O	 1.417712988	-2.9114359187	-1.0943708279	-0.435443
C	 1.1280728209	-0.7660544082	-0.0417168303	 0.360872
O	 2.2448120495	-0.3352712142	-0.262434402	-0.407032
H	 0.9664714886	 1.7539502019	-0.0990471282	 0.165127
H	-0.5698309248	 1.6491076211	-0.9985769656	 0.129628
H	-0.5897934083	 1.8787497238	 0.7662929689	 0.128398
H	-2.0148725793	-0.5787493192	 0.7187695316	 0.103645
H	-2.4329945888	-1.9337087769	-1.4521253969	 0.120648
H	-0.8273401017	-1.3232937491	-2.0837208452	 0.1329
H	-1.2565947985	-3.0936884651	 0.4444427737	 0.101092
H	 1.1213097968	-2.6876665081	 0.9473464423	 0.088822
H	 2.2632298503	-2.4516156488	-1.2014972825	 0.292999
