16
gdb 17096	4.81523	1.58272	1.4548	3.5491	73.15	-0.2463	-0.0583	0.188	888.7978	0.132231	-346.58741	-346.581048	-346.580104	-346.618024	24.935	
O	-0.0547166399	-0.005255687	-0.0174356573	-0.280284
C	 0.0351852705	 1.2049625848	-0.0180172016	 0.028907
C	 1.2863437059	 1.9434635321	-0.0034665254	 0.275795
C	 1.4794173835	 3.2770060848	-0.0029785556	-0.161982
C	 2.9969613584	 3.41831397	 0.0156305593	-0.071449
C	 3.3867215114	 2.3217777635	-1.043747446	-0.210678
C	 2.7141600228	 1.383989606	 0.0151896026	-0.123463
C	 3.360213329	 2.3250137256	 1.0876855791	-0.210679
H	-0.872851576	 1.8495030529	-0.0303113641	 0.064335
H	 0.7479349422	 4.0743090315	-0.0132537655	 0.12045
H	 3.4328192267	 4.4161247836	 0.0195386865	 0.071373
H	 2.9241631457	 2.3866232256	-2.0312753596	 0.101323
H	 4.4679262153	 2.1790768058	-1.127588053	 0.1027
H	 2.8356974512	 0.3035712937	 0.0183389654	 0.08963
H	 4.4389951724	 2.1826250662	 1.1988208553	 0.102701
H	 2.873240071	 2.3928368709	 2.0632026098	 0.101321
