13
gdb 132453	3.31678	1.38346	0.97711	1.1549	65.38	-0.2099	-0.0333	0.1767	1077.4392	0.091033	-494.10429	-494.097086	-494.096141	-494.135873	27.711	
N	 0.0026633443	 1.3938392641	 0.1466233713	-0.584559
C	-0.0546199234	 0.0169659015	 0.0484132769	 0.171765
C	-1.1854082083	-0.7490941541	 0.017732222	-0.095618
N	-1.1868756595	-2.1282289352	-0.0180772487	-0.346332
C	-0.0448725998	-2.6879704401	-0.0256235533	 0.40551
F	 0.0737968814	-4.0055736981	-0.0540906525	-0.061344
N	 1.1499480816	-2.0396962546	-0.0094265824	-0.422106
C	 1.2498304329	-0.6445580318	 0.0165447754	 0.412151
O	 2.3282206868	-0.0760104089	 0.0020491507	-0.393495
H	 0.9104318273	 1.7631643991	-0.103515554	 0.267984
H	-0.7747468625	 1.9094958655	-0.2354421942	 0.254177
H	-2.1681358753	-0.2880052982	 0.0244483082	 0.112749
H	 2.0162206044	-2.5617462493	-0.0347733693	 0.279119
