16
gdb 2383	4.64026	1.98094	1.77956	1.6425	62.84	-0.2272	-0.024	0.2032	782.9893	0.135081	-325.764669	-325.756937	-325.755993	-325.796524	27.559	
C	-0.6656973047	 1.1439930271	 0.1886087778	-0.326024
N	 0.0675175358	-0.116619396	 0.0893255117	-0.080736
C	 1.4105923181	-0.0938644291	-0.4302512774	-0.233296
C	 1.1775311771	-0.4117555401	 1.0199184396	-0.099862
C	 1.6456696608	 0.5754630865	 2.0492478069	 0.387015
C	 1.9373723739	-0.002881092	 3.4209358279	-0.485877
O	 1.7772773053	 1.7588301824	 1.8103435527	-0.321737
H	-0.043060385	 2.0099136627	 0.4378632378	 0.146561
H	-1.1537243548	 1.3155194513	-0.7757810517	 0.123669
H	-1.4467351046	 1.0387654309	 0.9481379235	 0.119765
H	 1.6810627377	-0.8995705347	-1.1083989012	 0.118616
H	 1.8716064855	 0.8724019599	-0.6284669178	 0.133165
H	 1.1958556416	-1.4511243031	 1.3393038244	 0.09031
H	 2.6840682824	-0.8020845792	 3.3463185084	 0.141376
H	 2.2997081524	 0.7811451339	 4.086203474	 0.142346
H	 1.0316172286	-0.4567118503	 3.8399629235	 0.14471
