21
gdb 40192	2.93294	1.54904	1.25296	1.7247	81.76	-0.2406	0.0778	0.3184	1080.736	0.184898	-387.075711	-387.06806	-387.067116	-387.107777	30.849	
C	 0.1132221378	 1.5047238186	-0.0844197358	-0.326694
C	 1.2804894521	 0.5700155347	 0.1216560787	-0.322238
C	-0.1219668799	 0.0239727381	-0.0275125725	 0.401942
C	-0.8224274515	-0.6743143315	 1.1326826746	-0.305388
C	-0.7096256642	-2.1720136131	 0.7664494967	-0.226352
C	-0.8215477529	-2.2123841982	-0.7676966384	-0.070599
C	-2.2128353455	-1.9146972587	-1.3619971654	-0.078832
O	-1.8378113305	-0.5650625194	-1.7057076644	-0.299805
C	-0.4726204374	-0.7769735628	-1.258534775	 0.048393
H	-0.2186903424	 2.1007918218	 0.7593299944	 0.111244
H	 0.0142065181	 2.0016609631	-1.0436379695	 0.118878
H	 1.9781778904	 0.4335894294	-0.6986982093	 0.109785
H	 1.7368733512	 0.5290049732	 1.1053762555	 0.109003
H	-0.381118352	-0.4384483006	 2.105289523	 0.093609
H	-1.8749431254	-0.3689408423	 1.1673091457	 0.111619
H	 0.2724405491	-2.553090691	 1.0680609334	 0.101232
H	-1.4652064699	-2.7919005407	 1.2597199506	 0.095753
H	-0.2909602285	-3.050219971	-1.2210044005	 0.073418
H	-2.4749921086	-2.502875235	-2.2510540462	 0.095615
H	-3.0556185857	-1.9437638984	-0.6584608144	 0.095729
H	 0.2362621456	-0.6529345862	-2.0852369111	 0.063689
