21
gdb 101351	2.51763	1.0539	0.81765	2.9584	75.97	-0.2548	0.0746	0.3294	1461.5002	0.179408	-461.321216	-461.310511	-461.309567	-461.358299	37.442	
C	 0.4533069431	 1.671759781	-0.1517841795	-0.239208
O	-0.1312471697	 0.4158383205	-0.4130969972	-0.237931
C	 0.71438559	-0.5080075704	-1.0728066928	 0.092406
C	 1.7691389777	-1.1007693689	-0.1283756809	-0.403521
C	-0.0978627942	-1.6299182627	-1.6948756881	 0.05141
O	-0.8985366655	-2.457688862	-0.8515069209	-0.272264
C	-1.5527574918	-1.7158353237	-1.9014209132	 0.034058
C	-2.609895535	-0.7264071558	-1.4737948512	-0.102821
O	-3.8627387343	-1.3831046031	-1.3187268727	-0.421207
H	 1.2628288916	 1.6161816129	 0.5892858139	 0.112719
H	 0.854410722	 2.1294762265	-1.0695514429	 0.106229
H	-0.3357564279	 2.3141425479	 0.2462620009	 0.132048
H	 1.2237983815	 0.004450768	-1.9085984023	 0.068537
H	 2.4106731559	-1.8076013784	-0.6637538916	 0.119225
H	 2.411415157	-0.32332598	 0.2929205243	 0.116608
H	 1.2705525047	-1.6312405166	 0.6868740036	 0.143644
H	 0.5151976706	-2.2006916717	-2.3990013929	 0.088706
H	-1.8857786474	-2.3484253026	-2.7283504889	 0.093153
H	-2.2949628363	-0.2115364571	-0.5640310502	 0.122936
H	-2.7573102328	 0.0210879429	-2.2611105048	 0.106556
H	-3.7665727491	-2.0021945667	-0.5871609126	 0.288716
