21
gdb 40729	3.47706	1.15364	1.08258	1.7504	81.32	-0.2543	0.0902	0.3446	1218.4006	0.184287	-387.0739	-387.065995	-387.065051	-387.106488	31.468	
C	-0.206269675	 0.9883597908	-0.4863605886	-0.279224
C	 1.233493246	 0.7042740272	-0.1267145879	-0.279224
C	 0.1624855592	-0.3094990285	 0.1861346086	 0.042973
C	-0.2477879565	-0.5685417316	 1.6239553279	-0.016782
C	-1.6884422425	-1.1560671303	 1.7330122621	-0.259346
C	-1.4906427961	-2.6508134616	 1.8721462798	 0.056141
O	-0.5883255689	-3.2075666649	 0.9026333013	-0.255491
C	-0.0923462838	-2.9267190015	 2.2214339039	 0.056141
C	 0.6677701765	-1.6209842352	 2.3215817148	-0.259346
H	-0.7325106702	 1.7349094112	 0.1006116623	 0.105209
H	-0.4907088052	 0.9688931381	-1.5326592997	 0.109464
H	 1.9332431138	 0.4906133553	-0.9271674727	 0.109464
H	 1.664136167	 1.2620164293	 0.6992832428	 0.105209
H	 0.1434053727	-1.1966400486	-0.4382385724	 0.102838
H	-0.194206101	 0.384104891	 2.1619569743	 0.064358
H	-2.2031434673	-0.7863681221	 2.628545864	 0.096761
H	-2.3027766164	-0.8877044576	 0.8680712852	 0.112331
H	-2.312618213	-3.300100881	 2.1642240959	 0.089717
H	 0.2132259116	-3.7984887814	 2.7951675153	 0.089717
H	 1.6575750642	-1.6691441068	 1.8573455895	 0.112331
H	 0.813995825	-1.3816953717	 3.3822107037	 0.096761
