16
gdb 133068	2.92906	1.26309	0.94387	1.3121	73.57	-0.2624	-0.0387	0.2237	1214.9833	0.125065	-442.104988	-442.097126	-442.096182	-442.138655	28.727	
C	-0.0120814029	 1.5334739557	-0.1146123302	-0.379072
C	-0.0271276639	 0.0086542991	 0.0916293116	-0.253415
C	-1.4283334832	-0.5403804231	 0.0838377608	 0.350311
N	-1.9735311738	-0.8897384581	 1.2520558794	-0.286815
C	-3.2288045381	-1.3514472138	 1.2097697017	 0.022361
C	-3.952004412	-1.4725679042	 0.0343492057	-0.279901
C	-3.2685027924	-1.0712895497	-1.1085923375	 0.340227
F	-3.8761319927	-1.1483616828	-2.2836946593	-0.061238
N	-2.040747239	-0.6141438267	-1.1120494981	-0.32345
H	 1.0155299222	 1.9074170543	-0.1308596576	 0.118625
H	-0.490015762	 1.7976309351	-1.0620065325	 0.136235
H	-0.5463815914	 2.042596012	 0.6935671587	 0.124865
H	 0.5376051983	-0.4704107313	-0.7148334873	 0.120068
H	 0.4382038642	-0.2512414038	 1.0449824331	 0.119254
H	-3.6708220485	-1.6370393719	 2.1613177128	 0.125945
H	-4.9654596149	-1.8480547708	-0.0047170212	 0.125999
