18
gdb 36008	2.55058	1.0741	0.81173	4.0625	81.99	-0.2732	0.0305	0.3037	1410.2417	0.145993	-364.7796	-364.770139	-364.769195	-364.814588	34.284	
C	-0.0078807994	-1.2015190512	 0.1270219324	-0.418857
C	 0.0143210065	-0.0007128096	 0.1043524857	 0.291888
C	 0.0759942756	 1.4533481279	 0.0858743025	-0.363947
C	 1.5130627781	 2.0085382851	-0.1295609127	-0.175656
C	 2.0405069372	 1.604047414	-1.4392736209	 0.2935
N	 2.4514357165	 1.3153705536	-2.4799156591	-0.323396
C	 1.5527282662	 3.5230978662	 0.0169721474	 0.030523
C	 1.672363506	 4.1304704012	 1.3922918196	-0.281475
C	 2.8267485993	 4.2120385372	 0.4242851534	-0.273786
H	-0.0363497853	-2.2630804547	 0.1352594549	 0.203217
H	-0.5795664689	 1.8498138292	-0.6984291801	 0.146915
H	-0.2901331829	 1.8587472222	 1.0360272212	 0.14324
H	 2.1622524731	 1.5628402226	 0.6339787152	 0.132149
H	 0.9244551234	 4.047832835	-0.6971369785	 0.103572
H	 1.1076716661	 5.030893498	 1.6050804163	 0.122989
H	 1.7696057446	 3.4574943863	 2.2384056617	 0.118789
H	 3.6965660543	 3.593685703	 0.6192182492	 0.124587
H	 3.0563046395	 5.168266314	-0.0309726983	 0.125751
