21
gdb 53679	5.62948	0.48229	0.45037	2.3925	89.09	-0.2407	-0.0097	0.2311	2430.5743	0.178147	-387.098632	-387.086897	-387.085953	-387.139503	38.77	
C	 0.0769767597	 1.515224349	 0.0243790407	-0.497255
C	 0.0533881425	 0.0597221879	-0.0136806436	 0.116621
C	 0.0406662731	-1.1438749686	-0.0457911933	 0.020559
C	-0.0097517006	-2.6016221156	-0.0814007584	-0.365411
C	-1.442141702	-3.1586967933	 0.0372225509	-0.159573
C	-1.473808855	-4.6851909061	-0.0020086794	-0.301836
C	-2.8753051091	-5.2749261685	 0.1128027686	 0.371994
C	-2.9693260204	-6.7912645113	 0.0797285413	-0.472708
O	-3.856809372	-4.5770508258	 0.2238763708	-0.286795
H	 0.6739572229	 1.8836849922	 0.8661777446	 0.144864
H	 0.5073500782	 1.9323817975	-0.8929715716	 0.144865
H	-0.9328575499	 1.9268615696	 0.1314126496	 0.147309
H	 0.445868546	-2.9628495908	-1.0140491986	 0.120551
H	 0.6090080012	-3.0110781331	 0.7293957042	 0.120551
H	-1.8976422581	-2.8048965865	 0.9667205445	 0.12215
H	-2.0602261757	-2.7568647753	-0.7709387627	 0.122152
H	-1.0225640445	-5.0660201211	-0.9300955144	 0.117558
H	-0.8603231038	-5.113952686	 0.8040909016	 0.117557
H	-2.384708614	-7.228822742	 0.896843852	 0.137014
H	-4.0115658012	-7.0997010133	 0.168643292	 0.142823
H	-2.5483972973	-7.1804817387	-0.8542097287	 0.137011
