16
gdb 18903	3.50544	2.70066	2.19004	1.8034	66.37	-0.2417	0.0842	0.3259	700.4308	0.131374	-346.524019	-346.518101	-346.517156	-346.553625	24.53	
C	 0.0051990022	 1.5675662367	-0.0340202504	-0.539457
C	 0.0371625968	 0.0704724443	-0.0672296052	 0.336821
C	 0.6149154919	-0.885578501	-1.1647721742	-0.174677
C	-0.44336191	-1.887292977	-0.7646147488	-0.088549
C	 0.9144309662	-1.8738425867	-0.0615326514	-0.088553
C	 0.5614331856	-0.8744033372	 1.0722196893	 0.021922
O	-0.7769812411	-1.1699011343	 1.5285497644	-0.295562
C	-1.1811216405	-0.8916008911	 0.169832994	 0.021928
H	 1.0164434701	 1.9883591428	-0.0710020036	 0.122596
H	-0.554570797	 1.9728632228	-0.8845739818	 0.122596
H	-0.4746514451	 1.9192510351	 0.8858764882	 0.132683
H	 1.1035401061	-0.7077066715	-2.1118153444	 0.091111
H	-0.8210084524	-2.7466682989	-1.3007719146	 0.091889
H	 1.5835909125	-2.7228402477	-0.0556515789	 0.091889
H	 1.2670640683	-0.6319435406	 1.8660073372	 0.076681
H	-2.2402413637	-0.6665645559	 0.0497329602	 0.076682
