19
gdb 38457	3.5814	1.30225	1.22115	1.477	74.01	-0.2492	0.0781	0.3274	1079.9257	0.160313	-422.986216	-422.978572	-422.977628	-423.018916	29.434	
C	 0.1766548426	 1.6682994476	-0.0185199314	-0.353046
C	 1.6763716746	 1.3562393742	-0.1076154743	 0.038404
O	 2.0203662069	 0.5719682068	 1.0429463327	-0.252697
C	 1.4293351418	-0.0920389365	-0.0783828718	-0.023583
C	-0.0973363968	 0.1236095537	 0.0166673303	 0.333588
C	-0.8130460999	-0.5255623298	 1.209683748	-0.319369
C	-1.400190974	-1.8285197067	 0.6121491688	-0.071567
O	-1.1157851189	-1.8090060079	-0.7906759775	-0.256856
C	-0.8698980872	-0.464866867	-1.162288011	-0.148649
H	-0.129041353	 2.2456672768	 0.8574680062	 0.11135
H	-0.2210197127	 2.1383728051	-0.9231559783	 0.107991
H	 2.4702665273	 1.9329555331	-0.5670359862	 0.105663
H	 1.9703234378	-0.9252304546	-0.5133580226	 0.105307
H	-0.1266776785	-0.699869739	 2.0407325872	 0.124892
H	-1.6105576814	 0.1296280741	 1.5740755387	 0.104503
H	-0.9456645007	-2.734045328	 1.0253011414	 0.109649
H	-2.4852486593	-1.8894364721	 0.7767702166	 0.093994
H	-1.8097196611	 0.0925236377	-1.3223025671	 0.084068
H	-0.3106708675	-0.4700231776	-2.1036497895	 0.106358
