17
gdb 24438	3.43884	1.61666	1.14169	2.645	73.83	-0.19	0.0451	0.2351	1033.9408	0.140353	-418.054089	-418.04719	-418.046246	-418.085265	27.593	
C	 0.0007581638	 1.5110725758	-0.0040057684	-0.224262
C	 1.430524479	 2.0638258882	 0.0522960507	-0.081944
O	 2.1320234647	 1.6805558151	 1.2533360579	-0.280256
C	 1.9138239898	 0.3777515344	 1.5257225743	 0.391833
C	 0.9844767679	-0.4827403163	 1.0134792668	 0.164191
C	-0.0234214399	-0.034650845	 0.0044347349	-0.329013
N	 1.1367063062	-1.7259237985	 1.5976928753	-0.323447
C	 2.1334546157	-1.6028393201	 2.4387491123	-0.013672
N	 2.6547333927	-0.327167502	 2.4374238995	-0.365503
H	-0.5530189921	 1.8938666251	 0.8608890006	 0.116562
H	-0.4851226436	 1.9080806776	-0.9013747855	 0.103702
H	 2.0099981598	 1.7093164044	-0.8115874725	 0.109629
H	 1.43682553	 3.1557390797	 0.0538737317	 0.116241
H	-1.0264809707	-0.3959527893	 0.2562255691	 0.116028
H	 0.2036313231	-0.4276847305	-0.9959870767	 0.107245
H	 2.5290247491	-2.3770579078	 3.0780622918	 0.125051
H	 3.4205177643	 0.0286338193	 2.9840102482	 0.267617
