12
gdb 130597	3.66778	1.76704	1.19252	3.515	67.76	-0.2619	-0.116	0.1459	917.8051	0.080619	-431.694246	-431.688177	-431.687233	-431.724862	22.967	
O	-0.0069915715	-0.0221983384	 0.0031312214	-0.277877
C	 0.0044243518	 1.1801862028	 0.0091364664	 0.308072
C	-1.1753493451	 2.1220067109	 0.0312950083	-0.238074
C	-0.7265892031	 3.3866720163	 0.0310539443	-0.018572
N	 0.6868605464	 3.3666333508	 0.0099866192	 0.052705
N	 1.6636976118	 4.2896161885	 0.000201272	-0.250558
C	 2.7456523002	 3.510128088	-0.0201227258	 0.023999
N	 2.5087941258	 2.1589768047	-0.0231968438	-0.344636
C	 1.1917707988	 2.1157853881	-0.0038530465	 0.277108
H	-2.2022074038	 1.7934031363	 0.044847973	 0.149073
H	-1.2479540007	 4.3322187956	 0.0435684576	 0.175019
H	 3.7401092793	 3.9293890965	-0.0328166862	 0.143741
