19
gdb 90750	3.21155	1.40675	1.11784	3.3784	77.64	-0.2253	0.026	0.2513	1125.1351	0.161143	-419.201682	-419.193738	-419.192794	-419.234309	30.323	
C	-0.0359380338	 1.5299713955	 0.0371466489	-0.327087
N	-0.0487466606	 0.0868213252	 0.1012139699	-0.070491
C	-1.3006880138	-0.6006879894	 0.4789565512	-0.170073
C	-0.4590546704	-1.604401401	 1.3045102041	-0.148172
C	 0.6996416109	-0.5901723475	 1.1793389133	-0.002733
C	 1.8972161581	-1.4081617633	 0.7062212751	-0.09323
O	 1.3526075046	-2.6254427903	 0.1717054434	-0.241114
C	 0.0421418063	-2.7983724665	 0.5252347728	 0.420135
N	-0.6492993795	-3.813552479	 0.2323936179	-0.546971
H	 0.9793522391	 1.886050963	-0.168061434	 0.121342
H	-0.6789697169	 1.8693215538	-0.7814834852	 0.127839
H	-0.3871905965	 2.0118528213	 0.96980231	 0.091894
H	-1.952675987	 0.0073067795	 1.1257501379	 0.089082
H	-1.8862201645	-1.0004041479	-0.3540116852	 0.12418
H	-0.8398844305	-1.8886524261	 2.2833045132	 0.108444
H	 0.9134693483	 0.0373943023	 2.0543391415	 0.068648
H	 2.459063375	-0.9085126702	-0.0875405731	 0.120653
H	 2.5762769912	-1.6569665825	 1.5313485797	 0.106682
H	-0.0928185599	-4.4856796369	-0.2987732815	 0.220974
