15
gdb 128736	2.19243	1.52266	0.95896	2.0465	64.08	-0.2673	-0.0389	0.2284	1186.9706	0.111751	-491.024456	-491.01585	-491.014906	-491.058663	29.91	
C	 0.09191826	 1.4547214239	-0.0193997741	-0.249466
O	 0.0314893484	 0.0228963274	 0.00803729	-0.25206
C	 0.5300541885	-0.5957906365	-1.0553537914	 0.372835
N	 1.0513355219	-0.0146229	-2.1020053185	-0.193295
O	 1.4134513756	-1.0543080262	-2.9358191575	-0.171057
N	 1.1046636654	-2.2637968212	-2.3840019873	-0.132778
C	 0.5572157857	-2.0188107758	-1.2272267884	 0.208888
C	 0.1253163127	-3.0956048956	-0.2790084612	-0.168396
O	 1.0088664964	-3.2145414307	 0.8251005661	-0.406853
H	 1.1298662244	 1.7920722961	-0.094536346	 0.149178
H	-0.4730746666	 1.8458968474	-0.8708020683	 0.148122
H	-0.3506168811	 1.7879080216	 0.9187787299	 0.144229
H	-0.8494078752	-2.8419177415	 0.1470646541	 0.134382
H	 0.0229521413	-4.0357534566	-0.835922354	 0.123824
H	 1.8661981826	-3.4908910922	 0.4834175565	 0.292448
