17
gdb 104083	2.60294	1.56412	1.23937	3.5537	70.24	-0.2373	-0.0625	0.1748	1038.2073	0.136114	-458.993508	-458.985322	-458.984377	-459.026288	31.37	
O	-0.0320071403	 1.4267073467	-0.3034326246	-0.435156
C	 0.0473561682	 0.0382812327	-0.0323686792	-0.119377
C	-1.3685664698	-0.5516853161	 0.0310084742	 0.268813
O	-2.0808453641	-0.1833775615	-1.1398920667	-0.469763
C	-1.4457038018	-2.0753183253	 0.2146906322	-0.330957
C	-2.2996903704	-2.2690700708	 1.4422620107	-0.050749
C	-2.6782454127	-1.1199924912	 2.0197727773	-0.170743
C	-2.105648538	 0.0136115875	 1.2790843303	 0.366081
O	-2.1500537051	 1.1959425526	 1.5650418967	-0.37214
H	-0.578316496	 1.8083917761	 0.4030752718	 0.300787
H	 0.5970980609	-0.416838829	-0.8633148578	 0.114539
H	 0.5945967358	-0.1728157912	 0.8997467477	 0.094092
H	-1.7980126485	 0.7237865568	-1.329237026	 0.289504
H	-1.8930169875	-2.5360453992	-0.6717395244	 0.145104
H	-0.4584603539	-2.536490961	 0.3491473062	 0.121965
H	-2.5563092865	-3.2588623395	 1.8054311674	 0.123771
H	-3.2837614804	-1.0024789775	 2.9090112243	 0.12423
