18
gdb 5318	4.3323	1.5128	1.21468	3.261	73.47	-0.2165	0.0366	0.2532	1021.574	0.155329	-344.034746	-344.026805	-344.025861	-344.067254	29.776	
C	 0.0281404342	 1.498044356	-0.1880270612	-0.379314
C	-0.0145572588	-0.017008552	 0.0824253045	-0.068413
C	 0.7534447066	-0.3801608586	 1.3585691049	-0.393837
C	-1.4343188562	-0.5118867815	 0.1107072771	 0.29709
C	-2.13009885	-1.1158007821	 1.1283196702	-0.195361
N	-3.3927440887	-1.3555779186	 0.6259990656	-0.239705
C	-3.4076399433	-0.8947938793	-0.6549430922	 0.009041
N	-2.250535101	-0.3821551954	-0.9978828989	-0.308726
H	 1.0605022489	 1.8429313256	-0.3104296519	 0.100983
H	-0.5314593637	 1.7398767115	-1.0945731227	 0.135402
H	-0.4192800503	 2.0526467995	 0.6447554282	 0.106666
H	 0.4796937187	-0.5113488186	-0.7655873711	 0.087683
H	 0.3084343631	 0.1020375118	 2.2369222775	 0.111035
H	 0.7583631578	-1.4611793499	 1.5317867652	 0.110848
H	 1.7929032708	-0.044978687	 1.2909971383	 0.109869
H	-1.8600823051	-1.3939259458	 2.1326788143	 0.125958
H	-4.1542863193	-1.7937920777	 1.1155160324	 0.264066
H	-4.2841747638	-0.9630416078	-1.2823509202	 0.126717
