16
gdb 73664	2.55856	1.69552	1.41541	1.96	65.5	-0.2648	0.007	0.2718	959.7845	0.124825	-475.017434	-475.009715	-475.008771	-475.049666	29.127	
O	 0.1956385376	 1.2959618316	-0.2195998847	-0.471411
C	 0.1053560621	-0.0798599881	-0.0273870065	 0.244295
C	 0.7777161706	-0.855204183	-1.174567809	-0.129597
O	 0.1186016933	-2.1070197116	-1.2598011253	-0.248717
C	-1.2556131668	-1.8842074038	-0.9616456214	-0.111495
C	-1.2582237822	-0.8367525868	 0.1312503232	 0.048386
O	-0.7839580245	-1.372579463	 1.4171619043	-0.269154
C	 0.3620188164	-0.6167089168	 1.3673454755	 0.370052
N	 1.2495988873	-0.3809499851	 2.2206846446	-0.552427
H	 0.4037230238	 1.7020932999	 0.6293559348	 0.302426
H	 0.6489568507	-0.2558515976	-2.090019997	 0.108476
H	 1.8414588628	-1.0379506857	-1.0110969671	 0.134842
H	-1.7994584205	-1.4955306354	-1.8386445903	 0.102892
H	-1.6983892193	-2.8360444128	-0.6591367723	 0.130226
H	-2.1704988025	-0.2549851378	 0.2599533152	 0.105688
H	 1.0755468613	-0.868260134	 3.101137326	 0.235519
