18
gdb 89653	3.00122	1.29116	1.07137	2.2262	80.44	-0.2284	0.0257	0.2541	1159.8382	0.146034	-401.879026	-401.870099	-401.869155	-401.912237	34.385	
C	-0.0290794684	 1.5227052874	 0.0572767995	-0.51586
C	 0.1709202408	 0.0436824355	-0.0308211837	 0.235345
N	-0.702376501	-0.9197874885	 0.670763456	-0.427971
C	 0.7767920633	-0.94199605	 0.9344655407	 0.182775
C	 1.3646181353	-1.7827937589	-0.2045805802	-0.327946
C	 0.705566137	-0.7776830793	-1.2244294276	 0.113461
O	-0.2536985975	-1.2649764633	-2.1169274415	-0.437969
C	 1.2964937832	-0.7254687447	 2.2380507473	 0.149551
C	 1.7515111978	-0.5451089565	 3.3382562232	-0.40018
H	 0.8432136352	 2.0576130816	-0.3317263588	 0.132286
H	-0.9015478514	 1.8337196297	-0.5284431627	 0.137807
H	-0.1818260658	 1.836505846	 1.0953504848	 0.128296
H	-1.1417771407	-0.4310819289	 1.45053276	 0.236054
H	 2.4555783213	-1.765741049	-0.2351278644	 0.114997
H	 1.0024803913	-2.8120249989	-0.2559426559	 0.108307
H	 1.4521761624	-0.2375991756	-1.8113379966	 0.092648
H	-0.9656069808	-1.61390639	-1.5626891073	 0.289615
H	 2.1519517581	-0.3886959667	 4.3091908273	 0.188781
