14
gdb 131572	7.03919	0.62048	0.59412	3.8741	77.29	-0.2439	-0.0301	0.2137	1774.5935	0.10048	-436.638841	-436.630432	-436.629488	-436.673969	28.91	
O	 0.2423067105	 0.9343649549	 0.9226920165	-0.407451
C	-0.0470890249	 0.1544559241	-0.2306649581	-0.229326
C	-1.3986750025	-0.3794118742	-0.1377114856	 0.248404
C	-2.5159954001	-0.8292781321	-0.0829887695	-0.113126
C	-3.815206896	-1.3727967152	-0.004215125	 0.05425
C	-5.0049432357	-0.8295570241	-0.4044212788	-0.037391
O	-6.0149964788	-1.6644388536	-0.1551647754	-0.156136
N	-5.5141626459	-2.8254708124	 0.4373542443	-0.116555
C	-4.2245923173	-2.6419459267	 0.5207964062	-0.083869
H	 1.1410416185	 1.2662117994	 0.8266480978	 0.291798
H	 0.0353710717	 0.7549581585	-1.1514297873	 0.121264
H	 0.6595090911	-0.6851601041	-0.3347479659	 0.121598
H	-5.2603151435	 0.1123357603	-0.8635652163	 0.162948
H	-3.6013015471	-3.4114706748	 0.9526509972	 0.14359
