13
gdb 130284	7.2609	0.84688	0.76814	3.9013	64.34	-0.2441	-0.0297	0.2143	1367.0892	0.088766	-489.89023	-489.882299	-489.881355	-489.923445	28.285	
N	-0.0103606438	 1.3520241644	 0.2590429984	-0.585873
C	 0.0248366965	-0.0052929203	 0.0196471363	 0.459127
N	-1.0901529032	-0.6840630951	-0.1704722531	-0.233447
O	-0.6744313866	-2.0341393828	-0.298034645	-0.227807
C	 0.6535459176	-2.0706927551	-0.1788114117	 0.576038
O	 1.2699214117	-3.2616175769	-0.3104868212	-0.231822
C	 0.6280488978	-4.4042995775	 0.1310504732	 0.159833
O	 1.1142747583	-5.472626293	-0.0403706407	-0.236216
C	 1.1842098054	-0.8405658607	 0.0201471728	-0.479202
H	 0.7731069347	 1.8686647164	-0.1119422271	 0.260716
H	-0.8973126137	 1.7778496642	 0.0261122482	 0.265528
H	-0.3242044167	-4.1857662877	 0.6331200299	 0.140346
H	 2.216753982	-0.577893386	 0.1686372498	 0.13278
