16
gdb 19204	2.7545	2.71193	2.67684	1.1684	63.68	-0.2445	-0.0001	0.2444	685.622	0.133537	-383.731391	-383.725537	-383.724593	-383.760985	23.999	
C	-0.0080193509	 1.5387566346	 0.0165725406	-0.065135
O	 1.3324986763	 2.0330251122	 0.0296142518	-0.277097
C	 2.2899816176	 0.9557567353	 0.0219282736	 0.026275
C	 2.0207529376	 0.1078891478	 1.2782719801	-0.065136
O	 0.6944262301	-0.4185052839	 1.2059725225	-0.277096
C	 0.0280037146	-0.0001189001	-0.0015743905	 0.026275
C	 0.8322733896	-0.4324287623	-1.2032911961	-0.070371
C	 2.0630655156	 0.0810934099	-1.1869296366	-0.07037
H	-0.5218871466	 1.8807518065	 0.9240501571	 0.10457
H	-0.5368344647	 1.9323572384	-0.8617289887	 0.09807
H	 3.274707772	 1.4230784395	 0.0562500927	 0.082294
H	 2.7403623954	-0.7176232658	 1.3599555076	 0.09807
H	 2.1035855145	 0.7416455527	 2.1704758046	 0.10457
H	-0.9751004443	-0.4258383576	 0.0408345177	 0.082294
H	 0.4257615097	-1.0773398118	-1.9735248468	 0.101394
H	 2.8320419134	-0.0945196557	-1.9300697797	 0.101394
