18
gdb 56234	4.95674	0.67304	0.5993	3.9768	70.49	-0.2435	-0.0234	0.2201	1792.7953	0.143683	-476.263181	-476.252419	-476.251475	-476.30173	35.897	
C	-0.0310252832	 1.191988329	-0.381439675	-0.484287
C	-0.2391552979	-0.3006586657	-0.5540207286	 0.361142
O	 0.4690423522	-0.9889287477	-1.2449890634	-0.272971
C	-1.4195379935	-0.8873045122	 0.2207925994	-0.160047
O	-1.442334634	-2.2708510318	 0.0493172988	-0.234204
C	-2.5196746936	-2.9366301518	 0.6699618129	-0.152643
C	-2.4756306849	-4.4323593904	 0.3455403929	 0.360601
N	-1.4748261176	-4.7912958647	-0.4927821138	-0.508975
O	-3.2979671974	-5.1903617315	 0.8214160397	-0.367638
H	 0.7212155463	 1.5406417255	-1.0895433854	 0.151542
H	-0.9659741101	 1.7435652037	-0.5271191215	 0.138735
H	 0.3110242445	 1.4038805326	 0.6384408639	 0.148317
H	-1.3284800989	-0.6039880651	 1.2846766582	 0.112565
H	-2.3476339674	-0.4129621716	-0.1468970075	 0.114393
H	-2.4907075469	-2.8263890587	 1.7640819083	 0.124121
H	-3.4887940157	-2.5453146894	 0.3247428867	 0.122921
H	-0.8286912318	-4.0993406263	-0.8360649488	 0.285155
H	-1.3795237101	-5.7591765042	-0.7493241867	 0.261273
