19
gdb 90645	3.55751	1.09956	1.03822	4.4169	82.08	-0.2237	0.0327	0.2564	1235.0421	0.158693	-382.03521	-382.026317	-382.025373	-382.068453	33.421	
C	-0.212798749	 1.3667706205	-0.0167670001	-0.33077
N	 0.1037618319	-0.0451662857	 0.0723309482	-0.098081
C	 1.1545489231	-0.5454488203	-0.8647320148	-0.206059
C	 1.9457462225	-1.1253078647	 0.3111865124	-0.126287
C	 0.9334978813	-0.4535591672	 1.2113359959	-0.02126
C	 1.0438908574	-1.9761169376	 1.2152369827	 0.138972
C	-0.061716637	-2.887289379	 0.7084828599	-0.474337
C	 1.7610966987	-2.4815511876	 2.3619870669	 0.229868
N	 2.3270244266	-2.8936659013	 3.2835744224	-0.34459
H	 0.6741557212	 2.0253734436	 0.0276483189	 0.097654
H	-0.7329136088	 1.5601386508	-0.9600279805	 0.12876
H	-0.8864218776	 1.6441593465	 0.8003650248	 0.129299
H	 0.7912354903	-1.2267556353	-1.6412751565	 0.112466
H	 1.7091811093	 0.2774032309	-1.3317626696	 0.112883
H	 3.0227089467	-1.1948585913	 0.3793797166	 0.119449
H	 1.0407481076	 0.1483215984	 2.1062247048	 0.1169
H	-0.6953616788	-2.340923059	 0.0082897282	 0.148711
H	 0.3519298487	-3.771276173	 0.2147656854	 0.130508
H	-0.6860182842	-3.2234571885	 1.5410469945	 0.135914
