19
gdb 6747	4.777	0.92337	0.8175	1.975	72.09	-0.2335	0.0264	0.2599	1430.5375	0.162396	-402.187243	-402.177103	-402.176159	-402.223014	34.558	
C	-0.4896063404	 1.01467957	 0.0691641829	-0.249503
O	 0.6097749128	 0.1140915972	 0.0755363949	-0.19435
C	 0.6025616679	-0.7975792594	 1.0744399274	 0.118195
N	 1.5632655434	-1.6047888818	 1.1750137704	-0.247683
C	 1.5877906479	-2.6202054607	 2.2100213837	-0.137019
C	 0.3164081329	-2.9172594362	 3.0208577282	 0.10421
C	 0.499682487	-4.1455597222	 3.9139719332	-0.397965
O	-0.1177480895	-1.7899418816	 3.7868808829	-0.42675
H	-0.4981341544	 1.6486875845	 0.9644534571	 0.125784
H	-0.3663808613	 1.6454903155	-0.8122494287	 0.141915
H	-1.4472997351	 0.4840529057	-0.0023289525	 0.124139
H	-0.2675089989	-0.7383595171	 1.7365252982	 0.108196
H	 1.9098226212	-3.5567801204	 1.7349994374	 0.110191
H	 2.3982601255	-2.3681718837	 2.9138902013	 0.095842
H	-0.5100941495	-3.1033707465	 2.3234022187	 0.091501
H	 1.3465346253	-4.0088079513	 4.5980394505	 0.108929
H	-0.399062838	-4.3084372547	 4.5142506891	 0.125386
H	 0.6911531866	-5.0453510251	 3.3208905046	 0.119684
H	 0.6117925767	-1.5287649221	 4.3601870607	 0.279296
