13
gdb 28663	6.00187	1.04195	0.88782	1.5187	80.05	-0.2368	-0.0555	0.1814	1202.7358	0.090195	-415.6319	-415.624692	-415.623748	-415.663596	27.528	
O	 0.066735301	 1.3435795449	-0.0642325597	-0.408973
C	 0.0601153361	 0.0014156139	-0.0418619796	 0.424821
C	-0.0031035297	-0.7067346856	-1.255119908	-0.094289
N	-0.0118089984	-2.0266939653	-1.2783696885	-0.284711
C	 0.0423371703	-2.6707056782	-0.0922367712	 0.146447
C	 0.1048132132	-1.9482334045	 1.1040518863	-0.065462
N	 0.1137369981	-0.6150240153	 1.1302841469	-0.335162
C	 0.0346184588	-4.0962445668	-0.0823185944	 0.229336
C	 0.0299060547	-5.2988428342	-0.0372221173	-0.376168
H	 0.1133475505	 1.6365019529	 0.8572084844	 0.305564
H	-0.0461428816	-0.1740669847	-2.2006163363	 0.129926
H	 0.1483842576	-2.4639564254	 2.0585100932	 0.129768
H	 0.0250117295	-6.3606422318	-0.0128109459	 0.198901
