11
gdb 43434	3.4094	1.31215	0.9475	3.4468	70.01	-0.3125	-0.131	0.1815	1102.5143	0.066807	-451.609115	-451.6021	-451.601155	-451.640984	25.291	
N	-0.0465186301	 1.2871073022	 0.0105375742	-0.500931
C	-0.0283534336	 0.0272522345	 0.0034702282	 0.443693
O	 1.1116042862	-0.7596134113	-0.0065982938	-0.226707
C	 0.7466906225	-2.0973516492	-0.0121684903	 0.406173
O	 1.5328569033	-2.9883291995	-0.0210696622	-0.288121
C	-0.7533619113	-2.12895403	-0.004862973	 0.065453
C	-1.1955252793	-0.8608860075	 0.0043745852	-0.284972
C	-1.4921509815	-3.3369320812	-0.0078753009	 0.255253
N	-2.0912097393	-4.3266612145	-0.0103756378	-0.307398
H	 0.8987522414	 1.6752230771	 0.0079602049	 0.256106
H	-2.2111976884	-0.4950654704	 0.0114715854	 0.18145
