19
gdb 39588	3.45103	1.47032	1.08829	1.4002	82.73	-0.2299	0.0197	0.2496	1106.2795	0.162124	-385.904983	-385.897819	-385.896874	-385.936405	29.002	
C	-0.0517968145	 1.5380907648	 0.0624383696	-0.361498
C	 1.4132507342	 1.9227501127	-0.0101837403	-0.070824
C	 2.1864121519	 0.9049981171	-0.39152355	-0.094221
C	 1.3760848718	-0.3414384277	-0.6724128078	-0.113199
C	 1.8168614273	-1.6706892845	-0.0540037882	-0.10142
O	 0.8058823801	-2.6408495628	-0.2852821851	-0.253208
C	-0.423431535	-2.3616451389	 0.362734342	-0.106925
C	-0.784388704	-0.8999767632	 0.4095338566	-0.222575
C	 0.02353879	 0.0310289988	-0.0855735945	 0.324748
H	-0.5384970368	 1.8461394366	 0.9953194784	 0.112936
H	-0.6188934115	 2.0157148293	-0.7520953258	 0.115483
H	 1.7600122802	 2.9293635313	 0.1950506853	 0.09596
H	 3.2586717391	 0.9564284654	-0.5463295661	 0.094302
H	 1.3095160611	-0.5035688603	-1.7603525631	 0.093757
H	 2.72405206	-2.0665345422	-0.5202886587	 0.102191
H	 2.0068785101	-1.5407536982	 1.0235012669	 0.088224
H	-1.1832701749	-2.9426228088	-0.1755164318	 0.116321
H	-0.4063477759	-2.7509305185	 1.3978817124	 0.09609
H	-1.7008605031	-0.6442344807	 0.93654984	 0.083857
