23
gdb 68408	2.40307	1.80327	1.37678	0.2037	88.93	-0.255	0.0886	0.3436	1066.5441	0.207633	-351.14144	-351.133425	-351.132481	-351.17324	33.758	
C	 0.0000268062	 1.530563753	 0.0341514488	-0.517714
C	 0.0157709372	 0.0196661672	 0.0317371067	 0.279646
C	 0.885885255	-0.800331382	-0.9772922386	-0.258485
C	 0.6945536003	-1.9307582921	 0.0726858298	-0.022186
C	 0.7438698557	-0.8052359529	 1.1439771322	-0.258489
C	-0.8175356005	-2.2096953246	-0.0291493045	-0.300567
C	-1.3150152439	-0.7461370534	-0.0591696083	 0.399075
C	-2.5803104763	-0.302854959	 0.6165472062	-0.343181
C	-2.4790244163	-0.2994221896	-0.895594282	-0.343171
H	 1.0173600737	 1.9289693785	 0.1033737667	 0.113403
H	-0.4479651875	 1.9308107731	-0.8824738389	 0.117347
H	-0.5666091979	 1.9267697223	 0.8844696872	 0.117346
H	 0.4925095058	-0.9560534857	-1.9867564386	 0.086435
H	 1.9161168269	-0.4370800502	-1.0238816906	 0.087857
H	 1.3586094303	-2.7945685607	 0.115151575	 0.056026
H	 1.7585964871	-0.442550905	 1.3291496715	 0.087858
H	 0.21949155	-0.9654745277	 2.0912690863	 0.086434
H	-1.0793337885	-2.7637787301	-0.9367888666	 0.093611
H	-1.197818979	-2.7677588518	 0.8330043753	 0.093616
H	-3.2013452531	-1.0592413872	 1.0865162912	 0.105527
H	-2.5970350077	 0.6574419705	 1.122294735	 0.107041
H	-2.4284292474	 0.6631588429	-1.3947007267	 0.107041
H	-3.0316217502	-1.0534773056	-1.4476026673	 0.105529
