16
gdb 64755	2.63815	1.29512	1.13534	4.9811	69.18	-0.2512	-0.0451	0.2062	1120.4811	0.12197	-437.902511	-437.893455	-437.892511	-437.936901	32.396	
O	 0.0638678541	 1.5381422972	 0.2235286707	-0.46794
C	-0.0164976215	 0.1536077258	 0.0243739199	 0.304087
C	 0.8210395868	-0.6228334122	 1.0687748395	-0.392155
C	 2.2208225176	-0.203931029	 1.0582186467	 0.257397
N	 3.3170303472	 0.1609659497	 1.0402936133	-0.298657
C	-1.4742777347	-0.3775120131	-0.1054635325	-0.284034
C	-1.1235823081	-1.0947594655	-1.4466177734	-0.346665
C	 0.2050638629	-0.3267586872	-1.4407503594	 0.349422
O	 1.029606208	-0.0488786228	-2.2594240353	-0.284342
H	 0.939638474	 1.8319451515	-0.0602357898	 0.307277
H	 0.4013567343	-0.4219415795	 2.0608563524	 0.166192
H	 0.7633780222	-1.7033118266	 0.8963130344	 0.153034
H	-1.8239977926	-1.0143063521	 0.7084054518	 0.113414
H	-2.1646805509	 0.4558433031	-0.2387575158	 0.138425
H	-0.980020282	-2.1757684138	-1.3499907751	 0.139273
H	-1.7690394473	-0.9093923655	-2.3077089875	 0.145273
