18
gdb 14433	4.18951	2.12025	1.79656	0.5223	75.81	-0.2144	0.0204	0.2347	802.0851	0.155613	-310.645933	-310.63948	-310.638536	-310.675937	26.907	
C	-0.0694247524	 1.5225790024	-0.0008677367	-0.501168
C	-0.0263305915	 0.0221099983	-0.0370752887	 0.345494
C	 0.7204365208	-0.8100241702	-1.0760901591	-0.27547
C	-0.2285888903	-2.0279129714	-0.7337090979	-0.096383
C	 0.4436230117	-2.8142002	 0.3711709564	-0.09225
C	 0.4508913625	-2.0728935731	 1.4840632131	-0.081554
C	-0.3120303128	-0.8145104405	 1.2459837656	-0.121187
C	-1.145772716	-0.9952287243	 0.0032100889	-0.117124
H	 0.9034056792	 1.9407381803	 0.2848391408	 0.12039
H	-0.3331506462	 1.9388967669	-0.9803731779	 0.115304
H	-0.8083576061	 1.8828895525	 0.723019672	 0.115693
H	 0.5089633187	-0.4255546477	-2.0782126762	 0.097367
H	 1.7988213166	-0.9689007714	-0.962862725	 0.085692
H	-0.6195185848	-2.5913244421	-1.579537217	 0.065375
H	 0.974273292	-3.7446457793	 0.2099266569	 0.091613
H	 0.9580529895	-2.3023393194	 2.4130741188	 0.091912
H	-0.7097550768	-0.2351528608	 2.0720368061	 0.076372
H	-2.2218454741	-0.8793631302	-0.0633280302	 0.079923
