18
gdb 76110	2.9872	1.37583	1.13499	3.216	76.36	-0.2432	0.0089	0.2521	1113.0152	0.147977	-398.095943	-398.087116	-398.086172	-398.129158	33.137	
C	 0.0887506207	 1.5314968195	 0.0559721878	-0.50012
C	-0.0542091499	 0.0419555296	-0.0324448733	 0.374722
C	-0.9245968674	-0.7514890345	 0.8589361382	-0.301237
N	 0.5380226616	-0.9189238223	 1.0061615389	-0.170775
C	 0.9568467022	-1.8334921522	-0.1168176966	-0.166431
C	 0.3393641451	-3.149506927	-0.1438466746	 0.302362
N	-0.1950234432	-4.1729796011	-0.2198009121	-0.334782
C	 0.4416331718	-0.7952248547	-1.2098755759	-0.059698
N	-0.4999151083	-1.1053439012	-2.2489721475	-0.513158
H	 1.1004826537	 1.8499638925	-0.2165446661	 0.124845
H	-0.6153872101	 2.0194191898	-0.6270320649	 0.138752
H	-0.1187117272	 1.885072453	 1.0697057354	 0.133105
H	-1.36369438	-0.228049319	 1.702421088	 0.131136
H	-1.5199093615	-1.5876751375	 0.5002784099	 0.130753
H	 2.0435569204	-1.9394767123	-0.1117692542	 0.125941
H	 1.3161431252	-0.3273271329	-1.6693255365	 0.102229
H	-0.0639914207	-1.6235140563	-3.0044258467	 0.240081
H	-1.2712784723	-1.6681541835	-1.9057191798	 0.242274
