16
gdb 51986	6.75903	0.66345	0.61566	3.6354	73.48	-0.2598	-0.0336	0.2262	1723.9907	0.123624	-471.22659	-471.21718	-471.216235	-471.26242	32.076	
N	 0.8538649727	 0.2813554771	-0.2093222838	-0.457027
C	-0.3336887734	 0.6281303182	 0.069792142	 0.103019
N	-1.3960206983	-0.1878128507	-0.3020318486	-0.309241
C	-2.7169516764	 0.1053509134	-0.0399705614	 0.418365
O	-3.0803993691	 1.1183867492	 0.5143781851	-0.335762
C	-3.6955731218	-0.9982442081	-0.4640768262	-0.222863
O	-4.9852520715	-0.4983027763	-0.706956903	-0.163357
C	-5.725528593	-0.1522269102	 0.3776235045	 0.150867
N	-6.8697181527	 0.3429697083	 0.2054495997	-0.441448
H	 1.5163996218	 0.9785858492	 0.1249987781	 0.239034
H	-0.6680889216	 1.5276251297	 0.5894019107	 0.14679
H	-1.1463823849	-1.0327715502	-0.7979233908	 0.266393
H	-3.369118166	-1.4743536466	-1.392998044	 0.140353
H	-3.6968534506	-1.7692840044	 0.3221361143	 0.137524
H	-5.232261497	-0.3670040889	 1.3322925873	 0.094935
H	-7.3067693481	 0.5303931504	 1.1051493862	 0.232418
