19
gdb 106478	2.65939	1.64084	1.25153	2.4077	75.27	-0.2082	-0.0128	0.1954	1054.8954	0.160837	-419.17319	-419.165171	-419.164227	-419.205607	31.299	
C	-0.0597031416	 1.4768902255	-0.0901300159	-0.348335
N	 0.0858998536	 0.0210628523	-0.0255820212	-0.393904
C	 0.6811577795	-0.5004119584	 1.1497622042	 0.231713
C	 0.0968804215	-0.567240462	 2.6304252232	-0.24453
N	 1.0876288226	-1.6869163935	 2.848350787	-0.121803
C	 0.8697805297	-2.028327819	 1.389652358	-0.234007
C	 2.3658489125	-0.9266115243	 2.7548866169	-0.280684
C	 2.096863781	-0.0478838456	 1.5169160558	 0.415007
O	 2.8045320303	 0.7657706348	 0.9864310941	-0.337549
H	 0.9288487074	 1.9370192503	-0.0604289149	 0.164721
H	-0.5339676185	 1.7418556763	-1.0387535635	 0.119964
H	-0.6677947392	 1.9016601056	 0.7264145609	 0.095522
H	-0.8056652524	-0.4307999779	-0.1956696706	 0.219025
H	 0.2042633598	 0.2853319746	 3.3063053947	 0.111215
H	-0.9270555338	-0.9493911163	 2.6552594871	 0.110577
H	-0.0581601062	-2.5944530232	 1.2689780903	 0.111729
H	 1.6962526951	-2.5467669035	 0.8956681787	 0.117185
H	 2.5424504269	-0.3352694606	 3.6579588349	 0.131273
H	 3.2172102418	-1.5967762051	 2.6051279702	 0.132882
