17
gdb 105859	2.10031	1.6623	1.2518	3.7718	69.72	-0.2303	-0.0109	0.2195	1071.5332	0.133633	-458.928824	-458.919918	-458.918974	-458.962612	32.519	
C	 0.0126337537	 1.3718049337	 0.2609862759	-0.266356
O	-0.0011299048	 0.0171442605	-0.1882156718	-0.277184
C	-1.2438277632	-0.5537481021	-0.1388296098	 0.291308
C	-1.8185917828	-1.1169572282	 1.1379478924	 0.025911
O	-3.0732441406	-0.7023466753	 1.5942680085	-0.417969
C	-1.6391480344	-2.0665999127	-0.0036996283	-0.211159
C	-2.79190249	-1.8853400224	-1.0045728675	-0.351783
C	-2.3131489852	-0.4243377669	-1.1946765859	 0.369257
O	-2.5366804982	 0.4132341492	-2.0210105763	-0.324343
H	 1.0469867096	 1.7130445397	 0.1892615665	 0.131101
H	-0.6254868111	 1.9998825407	-0.3702118029	 0.144758
H	-0.324710008	 1.4471551597	 1.303499546	 0.117661
H	-1.0482827824	-1.1911777658	 1.9074229094	 0.105592
H	-3.4507386014	-1.4139957236	 2.1233438572	 0.291487
H	-0.9663221814	-2.9134240237	 0.032491339	 0.115782
H	-2.6725723371	-2.4516098334	-1.9317785308	 0.132907
H	-3.8009973728	-2.0202254693	-0.6115138515	 0.123029
