21
gdb 70728	2.49819	1.5882	1.22765	2.0276	82.92	-0.2472	0.0078	0.255	1113.2416	0.183612	-387.089464	-387.081122	-387.080178	-387.121818	33.286	
C	 0.0632478866	 1.5795084435	 0.086449357	-0.464589
C	 0.127903843	 0.0673834504	 0.0572434627	 0.383433
O	-0.8511310424	-0.5798895574	 0.8955642735	-0.304543
C	 0.5350055155	-0.6986741139	 1.2505303155	-0.004805
C	 1.1387673186	-2.084025229	 1.1181395258	-0.228177
C	 2.5500509821	-2.0986609485	 0.4987129865	-0.196489
C	 2.712664408	-1.1501720964	-0.7190401	-0.259499
C	 1.5108761019	-1.0988738502	-1.6394177004	-0.048793
C	 0.3466514467	-0.5518995895	-1.287458388	-0.141204
H	 0.999406576	 2.0179663897	-0.2753612465	 0.122399
H	-0.7447352204	 1.9395925006	-0.560065609	 0.124581
H	-0.127755134	 1.9358470638	 1.1023244657	 0.124852
H	 0.8109608666	-0.1294126043	 2.1404714183	 0.079199
H	 1.1593236796	-2.5779159228	 2.0962153893	 0.096399
H	 0.4592931292	-2.6627345674	 0.4880079111	 0.120289
H	 3.3015257819	-1.8216326215	 1.2472951557	 0.098528
H	 2.7804249962	-3.1286018074	 0.2038400794	 0.102905
H	 2.9122108049	-0.1395238024	-0.3444329236	 0.113248
H	 3.6047366592	-1.4421449934	-1.2813461046	 0.09841
H	 1.6145006352	-1.5351979107	-2.6301664878	 0.091225
H	-0.4899140744	-0.5200991532	-1.9823328205	 0.092629
