17
gdb 2410	4.71494	2.30989	1.92259	1.5909	64.27	-0.2511	0.0733	0.3244	727.7872	0.148931	-309.663477	-309.656789	-309.655844	-309.693614	26.211	
C	-0.1568309655	 1.556042864	-0.0382558026	-0.444718
C	 0.0372933754	 0.046166246	-0.0139596694	 0.05291
C	 1.2201135675	-0.6542791243	-0.767777887	-0.105196
C	 2.1592112945	-0.1658370158	 0.3711756573	-0.228646
C	 0.8799796397	-0.667861282	 1.098647464	-0.10515
C	 0.9669799705	-1.9021937846	 0.1412608589	 0.195988
O	-0.1058352609	-2.7749036605	-0.0606087988	-0.450298
H	 0.7634940293	 2.1194440937	 0.1316585799	 0.1208
H	-0.5628971307	 1.8718793563	-1.0057410469	 0.118205
H	-0.8760310202	 1.8595909638	 0.7307002029	 0.118225
H	-0.9426020001	-0.4144467067	-0.195850039	 0.035725
H	 1.4197736785	-0.6433475841	-1.8409559181	 0.067889
H	 3.071133049	-0.7478113878	 0.5331127535	 0.092049
H	 2.3711774313	 0.9008436999	 0.4175879301	 0.099133
H	 0.6882063676	-0.6725364837	 2.1733101574	 0.06788
H	 1.8397516846	-2.5415941507	 0.2956665567	 0.080656
H	-0.9110614204	-2.2677172236	-0.2037546887	 0.284548
