14
gdb 33352	5.81938	0.71665	0.68727	1.6867	84.4	-0.2497	-0.0243	0.2254	1572.8306	0.100735	-399.499511	-399.491333	-399.490389	-399.533444	29.15	
C	 0.0903685827	-3.7407167246	 0.0296632051	-0.561786
C	 0.0692466285	-2.5336478166	 0.0136535599	 0.309558
C	 0.0416931914	-1.1734446145	-0.0041275603	-0.34689
C	 0.0229706481	 0.0361313048	-0.0169118179	 0.531854
C	-0.0367656153	 1.4909305945	-0.0192174979	-0.227083
C	-0.6260253662	 2.0887857364	 1.3023869049	-0.117385
O	 0.4176888394	 2.9658199559	 1.7816567037	-0.213888
C	 1.4249268999	 2.8594698923	 0.8870509607	 0.133252
N	 1.313715817	 2.1063538059	-0.1256541686	-0.251968
H	 0.1130616345	-4.8021729903	 0.0429746966	 0.194405
H	-0.6254267087	 1.8137657524	-0.8867531143	 0.128766
H	-1.5267765427	 2.6830888486	 1.1353335723	 0.130486
H	-0.8195825551	 1.3295443897	 2.0621938823	 0.138954
H	 2.2940264867	 3.4647930055	 1.1198730135	 0.151726
