20
gdb 7477	4.29963	1.1924	1.14952	2.8207	75.2	-0.2443	-0.0198	0.2245	1124.8169	0.175492	-349.008859	-349.000083	-348.999138	-349.042635	32.212	
C	-0.1273753595	 1.5271874804	 0.1157909842	-0.443762
C	 0.0183269329	 0.0077277441	-0.0115327466	 0.335948
C	-1.3267278745	-0.6460699027	-0.3705269567	-0.339775
C	-1.8633240159	-0.2003452008	-1.7117139334	 0.161681
O	-2.9535674517	 0.277077825	-1.8992488431	-0.245008
C	 1.2535151404	-0.3964889022	-0.8854983763	-0.251616
C	 2.0816150244	-0.5899966757	 0.4122455445	-0.213784
C	 0.7558096111	-0.6113472189	 1.2193025474	-0.257504
H	 0.8232176007	 1.9940993422	 0.3928231193	 0.115434
H	-0.4572388685	 1.9795578088	-0.8261267979	 0.123431
H	-0.8643201337	 1.7861877099	 0.8841902847	 0.120342
H	-1.1868519323	-1.7356582871	-0.4234574679	 0.109242
H	-2.085439993	-0.4387589911	 0.3917011663	 0.115731
H	-1.1558866123	-0.3479691981	-2.5616904815	 0.073354
H	 1.092660081	-1.3432363654	-1.4104266213	 0.095623
H	 1.6106648721	 0.3414811075	-1.6089531146	 0.098751
H	 2.7119595442	-1.4796973036	 0.4699858701	 0.100274
H	 2.6994260701	 0.2804569174	 0.6465442966	 0.10702
H	 0.718495922	-0.0396127806	 2.1507268663	 0.097882
H	 0.4174935325	-1.631003319	 1.4267271499	 0.096738
