15
gdb 133592	3.15897	1.28638	1.19108	3.1495	57.18	-0.2299	0.0655	0.2954	1035.7587	0.110092	-548.264527	-548.257033	-548.256088	-548.297112	28.484	
F	 0.3471304785	 0.1444750401	-0.1226817483	-0.06877
C	-0.0146798352	 1.4275287942	-0.0234218895	 0.292229
F	 1.0950289723	 2.1747295062	-0.1664422916	-0.084157
F	-0.8238658914	 1.7003980381	-1.0597592226	-0.081402
C	-0.696277055	 1.7635472196	 1.2929078038	-0.133703
N	-1.865260055	 0.9006169998	 1.6359925891	-0.334114
C	-1.3056340468	 0.7245858761	 3.0010790802	-0.004103
C	-0.0481081279	-0.067972798	 2.8946077918	-0.266656
C	-0.0068357685	 1.4218420173	 2.6167793342	-0.109343
H	-0.9489553414	 2.8280069215	 1.2444678829	 0.10305
H	-2.7196786571	 1.4462093318	 1.6430480577	 0.230455
H	-1.9207556052	 0.8005807912	 3.8887469997	 0.101343
H	 0.4120722713	-0.3394427685	 3.8393815549	 0.116494
H	 0.0656000392	-0.7921442169	 2.0968538571	 0.134416
H	 0.6292599323	 2.1003015776	 3.1681574103	 0.104262
