16
gdb 32771	3.27628	1.05436	0.84136	0.967	69.42	-0.2217	-0.003	0.2187	1346.4856	0.123904	-475.03768	-475.029025	-475.028081	-475.071986	30.419	
C	 0.1377414286	 1.4133759845	 0.1548215788	-0.221708
O	 0.0470604378	 0.0089975975	 0.1074882695	-0.234089
C	 0.5665907364	-0.5225684061	-1.101071475	-0.194222
C	 0.4827585858	-1.9960206328	-1.0932133585	 0.23944
C	-0.316847256	-2.9150817475	-1.6988358628	 0.25511
O	-1.3319647032	-2.6882771922	-2.5512489001	-0.426203
N	 0.0494979353	-4.1925086144	-1.3308818508	-0.340715
C	 1.0458781714	-4.0028381961	-0.5205010478	 0.078736
O	 1.3759605491	-2.7217033254	-0.322057897	-0.169895
H	 1.1813756896	 1.7602204501	 0.0829458539	 0.103055
H	-0.4364312661	 1.8899217023	-0.656080648	 0.104118
H	-0.2750126285	 1.7334752632	 1.11425775	 0.129561
H	-0.0041190086	-0.152505237	-1.967531822	 0.113604
H	 1.6129015658	-0.1984920916	-1.2326946403	 0.100738
H	-1.6833374017	-3.5508779194	-2.8029564631	 0.308321
H	 1.6261170945	-4.7487047452	-0.000306867	 0.154148
