13
gdb 131895	2.93185	1.61874	1.04334	4.7242	67.45	-0.2202	-0.0609	0.1593	1031.7927	0.089582	-489.837858	-489.830476	-489.829531	-489.869765	27.709	
N	 0.0424511984	 1.3616733849	 0.1240051706	-0.593502
C	-0.0494205105	 0.0244209087	 0.0463273057	 0.430042
C	-1.1463273995	-0.821831035	 0.0259776519	 0.237844
C	-0.6388833267	-2.1652230994	-0.009462481	-0.258483
C	 0.7017490185	-2.0474622088	-0.0133132697	-0.019177
O	 1.0751081325	-0.7038568929	 0.0214103648	-0.185824
N	-2.4842460087	-0.394323261	 0.0115080417	 0.335601
O	-3.370773393	-1.2444063997	-0.0203490564	-0.378444
O	-2.69650227	 0.8337102431	 0.0280450012	-0.441945
H	 0.9095905704	 1.805749977	-0.1280000851	 0.275176
H	-0.8350144253	 1.8473798948	-0.0043547609	 0.296822
H	-1.2277543381	-3.0662326897	-0.0320675972	 0.149443
H	 1.522590012	-2.741798492	-0.0358130058	 0.152447
