16
gdb 85345	2.86379	1.2429	0.91003	2.5712	79.99	-0.261	-0.0938	0.1672	1226.3764	0.124445	-400.808074	-400.799764	-400.79882	-400.841545	30.353	
C	-0.0954000317	 1.5591789912	 0.0603184333	-0.408426
C	 0.027352058	 0.0299293176	 0.0042844954	-0.101118
C	 0.8006165489	-0.5067977083	-1.2191030258	-0.358325
C	 1.9424755282	-1.3708789896	-0.665639945	 0.40029
O	 2.7535083219	-1.9900687679	-1.3095240975	-0.314438
C	 1.8598955676	-1.3004108822	 0.8152655417	-0.291305
C	 0.8148413891	-0.5400269956	 1.1819885949	 0.206393
C	 0.4306761061	-0.2649759962	 2.5237200963	 0.24414
N	 0.0878298902	-0.0210027014	 3.6029960039	-0.323709
H	 0.8919559128	 2.0313385912	 0.0263597718	 0.128483
H	-0.6770287242	 1.9231819532	-0.7913269926	 0.131221
H	-0.5962404502	 1.8831524956	 0.9773319274	 0.143875
H	-0.9835954018	-0.3947747476	 0.0376164951	 0.11301
H	 0.1816033473	-1.1076215067	-1.890777777	 0.144298
H	 1.2294180191	 0.3013795542	-1.8203378166	 0.143318
H	 2.5545873885	-1.8065550876	 1.4722252547	 0.142293
