22
gdb 88528	3.24651	1.19269	1.0725	2.0847	86.13	-0.2246	0.0782	0.3028	1235.9846	0.195513	-367.120045	-367.111654	-367.11071	-367.153675	32.994	
C	 0.0917571593	 1.522583886	-0.4034420549	-0.416749
C	 0.0081714816	 0.056289813	-0.0384186128	 0.011818
C	 1.2242527734	-0.8337007427	-0.0932989599	-0.307564
C	 0.5761916275	-0.5266751099	 1.2406150949	-0.174
C	 1.2876918636	 0.2518100152	 2.3005390103	 0.33976
C	 0.702378085	 1.0861606521	 3.4721356069	-0.207903
N	 2.2111298329	 1.1868928652	 3.7475643025	-0.150329
C	 2.2322516348	-0.3094354046	 3.3970924326	-0.202613
C	 2.3334387439	 1.39816761	 2.2315292563	-0.215567
H	 1.0691036812	 1.9485924408	-0.1642533883	 0.122519
H	-0.0680770989	 1.657804438	-1.4789812727	 0.117548
H	-0.6681739145	 2.1132356506	 0.1203990607	 0.116599
H	-0.9191169711	-0.4136895742	-0.3576014598	 0.083784
H	 1.1364444174	-1.8354611559	-0.4994030487	 0.109975
H	 2.1763826546	-0.353682499	-0.3003258226	 0.109296
H	-0.014239061	-1.3379500155	 1.6625917172	 0.08026
H	 0.2357313384	 2.0475455964	 3.237904573	 0.097099
H	 0.1510503383	 0.5581304735	 4.2560420028	 0.095927
H	 1.7971582911	-0.9459324104	 4.1736123842	 0.095382
H	 3.2178595829	-0.6730245004	 3.0917107503	 0.096945
H	 3.3280825677	 1.1663376713	 1.8387631078	 0.09783
H	 2.0005733416	 2.3882360307	 1.9086482203	 0.099982
