19
gdb 49617	3.07611	1.22611	1.05073	3.4667	81.1	-0.234	-0.0164	0.2175	1191.2295	0.158958	-385.851764	-385.843694	-385.84275	-385.884521	31.389	
O	-0.0176034511	 0.0004404867	-0.2905222157	-0.274244
C	 0.0015177837	 1.1360831931	 0.1240654434	 0.149016
C	 1.2169777043	 1.9842323107	 0.1224591883	-0.107895
C	 1.2316099973	 3.4815777901	-0.1507007827	-0.073994
C	-0.0057359849	 4.2069054717	 0.4070193234	-0.327827
C	 0.361136697	 3.6566298013	 1.8040412472	 0.380015
C	 0.3340844324	 4.4371832188	 3.0832550838	-0.34261
C	-0.5334501071	 3.2076709339	 2.922517739	-0.320473
C	 1.5848114009	 2.9648703836	 1.2316997755	-0.153734
H	-0.9159871109	 1.6025001281	 0.5378973573	 0.078664
H	 2.0764881836	 1.4665740382	-0.2945130616	 0.107101
H	 1.888298848	 3.8713421658	-0.918396182	 0.10115
H	 0.1052929893	 5.2930836338	 0.3537247556	 0.113741
H	-0.9780203196	 3.9345345702	-0.0137695283	 0.105803
H	 1.1956901245	 4.3718766928	 3.7403527058	 0.116409
H	-0.1488292839	 5.4092864198	 3.0777609634	 0.114748
H	-1.6033749101	 3.351660619	 2.8088471187	 0.11637
H	-0.260732907	 2.3121908024	 3.4716290019	 0.119427
H	 2.5524117337	 2.8908077699	 1.7147683569	 0.098333
