17
gdb 33777	3.63483	1.41677	1.21114	5.0793	77.	-0.2465	-0.0197	0.2268	1032.1599	0.138986	-380.866244	-380.859188	-380.858243	-380.89747	28.519	
N	 0.0808815351	-1.1623788311	-0.0059597711	-0.339328
C	 0.0287048383	-0.008151401	 0.003219265	 0.196628
C	-0.0208752171	 1.4495741819	 0.0349776813	 0.160257
C	-0.8767087276	 2.1565180576	 1.1362163135	-0.243236
C	-1.1058100157	 3.2089554286	 0.0207596756	-0.004832
C	 0.0704480756	 4.2021217758	-0.044847908	-0.271854
C	 1.3782291605	 3.4396966405	-0.0549884116	-0.08214
C	 1.3553575459	 2.1080443501	-0.0051930123	-0.096042
N	-0.9456164386	 2.0877708978	-0.958156305	-0.325042
H	-1.7858214581	 1.5985124289	 1.3579301169	 0.132982
H	-0.3568631317	 2.4535145949	 2.0460726066	 0.115334
H	-2.075431959	 3.7102708678	-0.023296286	 0.082322
H	-0.0110907814	 4.8356220924	-0.9394375966	 0.115217
H	 0.0341845599	 4.889213726	 0.8114807336	 0.119706
H	 2.3110675009	 3.9927926584	-0.1054892497	 0.106065
H	 2.2465471022	 1.4912234201	 0.0037377719	 0.116109
H	-0.4672077893	 2.3496083014	-1.8190628343	 0.217854
