21
gdb 108230	2.20851	1.4406	1.13137	0.943	79.1	-0.2168	0.064	0.2808	1206.7925	0.18025	-424.187186	-424.177364	-424.176419	-424.221658	36.619	
C	-0.2137447098	 1.534964106	-0.0337477069	-0.375215
C	 0.0594253758	 0.0275078317	 0.0785540168	-0.29463
C	 0.7558788963	-0.5275518491	-1.1318102025	 0.195845
C	 2.2104586489	-0.2969454184	-1.5253686382	-0.136904
O	 2.3193053182	-1.6347573275	-2.0871454297	-0.326429
C	 0.9832316576	-1.9387973961	-1.6621680007	 0.359393
C	 0.6824497083	-3.3163303131	-1.1752247714	-0.502208
C	 0.0331343788	-1.0093524994	-2.3791072035	-0.025851
O	-1.3378908523	-1.2023070317	-2.1740448508	-0.424589
H	 0.7147618043	 2.1023126496	-0.1619796863	 0.112565
H	-0.8583891784	 1.7493660082	-0.8916906024	 0.128819
H	-0.7106291721	 1.9111950296	 0.8657892819	 0.110629
H	 0.6674249735	-0.1720847707	 0.9707238051	 0.094073
H	-0.8867485247	-0.5044184068	 0.2147379296	 0.118414
H	 2.4285323007	 0.4816860746	-2.2665795449	 0.101202
H	 2.8817986507	-0.1840114269	-0.6645674811	 0.104376
H	 1.2786667925	-3.5695248317	-0.2931445845	 0.129277
H	-0.3765103493	-3.3983695097	-0.9155909657	 0.128065
H	 0.9062893257	-4.053661289	-1.9555848511	 0.12867
H	 0.3167488235	-0.6211094069	-3.3611045023	 0.081931
H	-1.620750368	-1.9386628327	-2.7265114714	 0.292567
