18
gdb 23172	2.3951	1.61765	1.05192	1.2392	83.73	-0.2133	-0.0253	0.188	1141.1605	0.148032	-401.914922	-401.906816	-401.905872	-401.947577	31.568	
O	-0.068360705	 1.3049114528	 0.0058361835	-0.396423
N	 0.0388489822	-0.0994625508	 0.0013203243	-0.266018
C	-1.111876414	-0.6600197437	 0.0081445275	 0.324356
C	-2.450765111	-0.0712023374	 0.0194440523	-0.143874
C	-3.378434779	-1.0384650894	 0.0237364552	-0.080018
C	-2.7777245077	-2.4213840132	 0.0158379918	-0.361169
C	-1.2683803191	-2.1505398286	 0.0052772534	 0.274382
C	-0.2896303592	-3.0183432209	-0.754983448	-0.298388
C	-0.2782983109	-3.0225252524	 0.7457666927	-0.298413
H	 0.8550103516	 1.5764853488	-0.0000943437	 0.304396
H	-2.6240439661	 0.9950037474	 0.0234692622	 0.122934
H	-4.4501799225	-0.8741913099	 0.0320029817	 0.106318
H	-3.0942308678	-2.9979502535	 0.8953703507	 0.116857
H	-3.1073198362	-2.9936832708	-0.861663092	 0.116849
H	-0.6857248094	-3.8872586497	-1.270963933	 0.108935
H	 0.5147954366	-2.501764821	-1.2668138601	 0.130167
H	 0.5337925607	-2.5087851408	 1.2482650069	 0.130174
H	-0.6665806033	-3.8943271268	 1.2628154745	 0.108934
