13
gdb 42258	2.92377	1.12603	0.99242	4.2586	72.21	-0.275	-0.0938	0.1812	1183.2395	0.087103	-415.551073	-415.542492	-415.541547	-415.585274	30.117	
O	 0.4286277687	 0.3622232589	 0.8821206481	-0.261892
C	 0.1509604111	 1.2865611651	 0.1644816348	 0.342476
C	 1.1415797719	 1.8280566995	-0.7935410874	 0.207663
N	 1.9016961715	 2.2550294333	-1.5532789036	-0.298985
C	-1.1487994857	 2.02304459	 0.1582309054	-0.152534
N	-2.2850877917	 1.3575713452	 0.7901073585	-0.295942
C	-1.7348980679	 2.5310744867	 1.4691066736	-0.250353
C	-1.0800516537	 2.3455532914	 2.7310076481	 0.40276
C	-0.5348040064	 2.2398510035	 3.7959708862	-0.417888
H	-1.3101680749	 2.6624034949	-0.7063332227	 0.124047
H	-3.1433293848	 1.598211158	 0.3006196147	 0.254643
H	-2.2711259844	 3.4731387669	 1.3683017542	 0.132412
H	-0.0519546037	 2.1263172765	 4.7354622502	 0.213592
