14
gdb 35625	2.13225	1.88155	1.10714	1.4878	72.77	-0.2641	0.0035	0.2676	1048.0219	0.099285	-399.477525	-399.469293	-399.468349	-399.511227	30.09	
C	-0.2960399133	-1.254673882	-0.3622657791	-0.443098
C	-0.1710708154	-0.0903008787	-0.0981278994	 0.360676
C	-0.0505839989	 1.3250898288	 0.1871756156	-0.109967
O	-0.2814799408	 1.5811824236	 1.6021863284	-0.214324
C	 0.7263842935	 2.3901616101	 1.9980073306	 0.130111
N	 1.6516571864	 2.7108278118	 1.195994497	-0.249291
C	 1.3611005241	 2.0023074698	-0.0725602831	-0.23014
C	 2.4392461309	 1.087823334	-0.4262319422	 0.400644
C	 3.336695738	 0.3504822393	-0.7299263451	-0.461542
H	-0.3927804903	-2.2873857176	-0.5914942475	 0.207945
H	-0.8212658716	 1.879369048	-0.3589587951	 0.128923
H	 0.6546088537	 2.7160390485	 3.0299287472	 0.15207
H	 1.2549427451	 2.7444374896	-0.8709191311	 0.12544
H	 4.1287728285	-0.3067650851	-0.9916858263	 0.202552
