16
gdb 14933	4.69249	1.44055	1.144	2.615	69.78	-0.2523	-0.0561	0.1962	1001.9105	0.131292	-383.761698	-383.75455	-383.753605	-383.79326	26.496	
O	-0.0872111787	-0.0308656004	 0.0312109596	-0.272332
C	-0.018472128	 1.1774285568	 0.0388370011	 0.089216
C	 1.2421621348	 1.9383297866	 0.0395156391	 0.217267
C	 1.206878468	 3.2776900061	 0.015938421	-0.148468
C	 2.4533717786	 4.1101253909	 0.0217748145	-0.119455
O	 3.626231813	 3.3711388699	 0.2766041075	-0.245384
C	 3.6682173713	 2.1376483475	-0.4297071023	-0.094162
C	 2.5554087051	 1.1989293034	 0.0378644757	-0.303556
H	-0.9361645784	 1.8087185906	 0.0438949148	 0.066497
H	 0.2560301216	 3.8062915874	-0.0226279557	 0.107083
H	 2.5253824799	 4.6519601941	-0.9411930048	 0.109106
H	 2.39282459	 4.8771790052	 0.803949453	 0.130604
H	 3.5782351131	 2.3170133909	-1.5136511498	 0.093257
H	 4.6574014215	 1.7147302232	-0.2381804163	 0.115265
H	 2.7743506031	 0.8213567999	 1.0440868376	 0.127709
H	 2.4833917452	 0.319633748	-0.611005575	 0.127355
