15
gdb 31853	5.17916	1.0591	0.88418	0.5599	73.21	-0.2192	-0.0445	0.1747	1244.9853	0.11384	-453.999454	-453.991729	-453.990785	-454.03188	28.665	
C	 0.0054279552	 1.3862018448	 0.0694876374	-0.233303
O	 0.014440228	-0.0380209453	-0.0153701692	-0.26755
C	 0.6100650214	-0.579096391	-1.0968791297	 0.416561
C	 0.6301096635	-1.977109301	-1.1989133694	-0.097556
N	 1.1990301766	-2.5800753641	-2.2362517349	-0.32457
C	 1.7460920051	-1.8044000545	-3.1692111275	 0.398521
O	 2.331090369	-2.3952649082	-4.2345240808	-0.422587
C	 1.7271669592	-0.4140720657	-3.0693566294	-0.095526
N	 1.1558730907	 0.1921558517	-2.0276987556	-0.325576
H	 1.0233310959	 1.7867351482	 0.0920017903	 0.134432
H	-0.5224492931	 1.8289664245	-0.7804165612	 0.134456
H	-0.5134011263	 1.6190924042	 1.0000757994	 0.130394
H	 0.1790257036	-2.5947367019	-0.4285234109	 0.126792
H	 2.232710691	-3.3481718858	-4.1053555476	 0.299825
H	 2.1774847203	 0.2060895642	-3.838032431	 0.125688
