17
gdb 80531	2.29819	1.47332	1.30371	1.3777	70.1	-0.2486	-0.029	0.2196	1053.0229	0.13516	-458.939547	-458.931223	-458.930279	-458.972418	31.615	
O	-0.0179112575	 1.3940002167	 0.0309258816	-0.434256
C	-0.0534925395	 0.0069429067	 0.0642154953	 0.08796
C	-0.3745360358	-0.8019072141	 1.2666152569	-0.154527
C	-1.4333297685	-0.0971061745	 2.1207858504	-0.251467
C	-2.403791411	-0.075660771	 0.9082674489	 0.010163
O	-2.786144736	 1.243069709	 0.5240941788	-0.430405
C	-1.3609802981	-0.7695927698	 0.0301587435	 0.17116
C	-1.6688643353	-1.787869229	-0.9733749162	 0.039758
O	-2.7919332446	-2.0370658928	-1.3539776951	-0.279616
H	-0.9272879201	 1.7171903134	 0.1278653265	 0.300609
H	 0.7202981771	-0.4239938108	-0.5685463767	 0.11184
H	 0.2296621572	-1.6457336395	 1.5777872285	 0.107338
H	-1.8076531998	-0.6976026907	 2.9500090953	 0.118645
H	-1.1399735458	 0.8897432193	 2.4873699677	 0.12492
H	-3.285535382	-0.7060303649	 1.0549695415	 0.10826
H	-3.3412580971	 1.1729726498	-0.2611040322	 0.300022
H	-0.7866291433	-2.3313731579	-1.3827414048	 0.069597
