19
gdb 78865	2.7152	1.81976	1.36817	2.0096	78.61	-0.2547	0.0957	0.3504	994.0596	0.159657	-385.818493	-385.811098	-385.810154	-385.849917	30.198	
C	 0.1584427885	 1.6178471964	 0.1073581899	-0.423865
C	 0.1601997163	 0.0970314845	 0.0230006726	 0.03015
C	 0.8355978439	-0.6380916994	-1.142530334	-0.088842
C	 1.2506396767	-1.7789983148	-0.2574102341	-0.083305
C	 2.319650927	-0.8353838256	-0.7880547426	-0.185025
C	 2.5075299309	-0.2923975373	 0.6007422395	 0.526541
C	 3.7041933141	-0.3192923983	 1.4336059293	-0.292176
O	 3.1203078767	 0.9238336149	 0.9920935067	-0.289804
C	 1.0898602174	-0.7581761147	 0.9455176392	-0.199478
H	 1.1621209875	 2.0330953193	-0.0046715436	 0.144575
H	-0.4786954119	 2.0420830171	-0.6769098246	 0.107466
H	-0.2379421496	 1.9548509862	 1.071725663	 0.111595
H	-0.8609849577	-0.289527757	 0.1202739703	 0.070033
H	 0.5151123406	-0.684498893	-2.1762501129	 0.085497
H	 1.1572224271	-2.8512065354	-0.3336270145	 0.096503
H	 3.0674737843	-1.0338521408	-1.5441326243	 0.0921
H	 3.6247044597	-0.5161633129	 2.5024067014	 0.113008
H	 4.6713692455	-0.557887124	 0.9920737405	 0.113591
H	 0.8088637531	-0.9904927553	 1.9706886181	 0.071436
