16
gdb 48938	4.01179	1.43136	1.2621	2.5052	75.57	-0.2264	-0.039	0.1874	986.6954	0.125194	-400.701515	-400.694552	-400.693607	-400.732895	27.525	
O	-0.3964931617	 0.5468453834	-0.7309046022	-0.274216
C	 0.1359194792	 1.0843527862	 0.2144526538	 0.035049
C	 1.2996919217	 1.9710811947	 0.1066407651	 0.259843
N	 1.7763814177	 2.8622830693	 1.1751224637	-0.379596
C	 2.5634516461	 3.6226645801	 0.0827061483	-0.093315
C	 3.9457655496	 3.0186150204	 0.1635427361	-0.058537
C	 3.8752507084	 1.7625033213	-0.2930470749	-0.065978
C	 2.5143753168	 1.5083925903	-0.825926102	-0.104932
C	 1.8195384335	 2.8105941627	-1.0293046476	-0.155211
H	-0.2260154265	 0.9291937697	 1.255726252	 0.081369
H	 0.9877604232	 3.4604923054	 1.4196617306	 0.223978
H	 2.4646448371	 4.704603258	 0.1368281355	 0.082592
H	 4.7690955627	 3.4722256192	 0.6987747001	 0.109656
H	 4.6424383963	 1.0020589555	-0.2246572823	 0.109106
H	 2.2614380276	 0.6603075055	-1.4491619987	 0.118288
H	 1.3318104285	 3.1458957185	-1.9367820374	 0.111904
