20
gdb 8904	2.65129	1.4612	0.99841	1.0228	77.04	-0.2559	0.0538	0.3097	1194.3169	0.174017	-348.97168	-348.961626	-348.960682	-349.006228	36.582	
C	-0.0662237962	 1.5473165743	-0.042336256	-0.414564
C	 0.014487244	 0.0151528617	-0.0370459379	 0.047859
C	 0.7215280887	-0.4824217036	-1.3011387007	-0.089622
O	-0.0358015598	-0.0577937673	-2.4273263517	-0.423395
C	 0.7153910806	-0.5366673217	 1.2370004111	-0.158324
C	 0.0662512795	-0.0350660555	 2.5447565656	-0.399643
C	 0.7519752149	-2.0007680385	 1.2419484566	 0.325431
C	 0.7573206793	-3.2031535878	 1.2757460975	-0.469111
H	 0.9236494589	 1.9927251644	 0.1193076023	 0.105296
H	-0.4348468666	 1.8888728073	-1.0116187038	 0.139081
H	-0.737968797	 1.9286505989	 0.7303432514	 0.114057
H	-1.0042738615	-0.3931806772	-0.0608413715	 0.090206
H	 1.7445036738	-0.0684182488	-1.3337191713	 0.077704
H	 0.8055269475	-1.5766031669	-1.2722080387	 0.103493
H	 0.3998361022	-0.3833359814	-3.2197821183	 0.286672
H	 1.7549986885	-0.175388309	 1.2210565782	 0.100699
H	 0.5575367383	-0.4882873577	 3.4093031427	 0.125426
H	 0.1495689534	 1.0503220708	 2.6335982174	 0.120358
H	-0.993357448	-0.3070227436	 2.578074874	 0.125739
H	 0.7721458596	-4.2645931286	 1.2991658229	 0.192638
