19
gdb 62981	2.23741	1.58621	1.25652	0.6757	80.96	-0.2421	0.0452	0.2872	1090.2561	0.15688	-385.827796	-385.81882	-385.817876	-385.860779	35.34	
C	-0.1838361714	 1.5747627766	-0.1134011719	-0.460035
C	 0.0116927747	 0.0689063909	-0.0522672285	 0.394137
O	-1.2172987121	-0.5932147287	 0.1904110503	-0.475635
C	 0.6821756537	-0.6437621636	-1.229746281	-0.065315
C	 2.1202662769	-0.2320666924	-1.3844686169	-0.302334
C	 1.7612055424	-1.2282487612	-0.3244257742	-0.053244
C	 1.1590197662	-0.5145540585	 0.9035273267	-0.264761
C	 2.0024146116	 0.3904670669	 1.6586398216	 0.338635
C	 2.6889631581	 1.1674399881	 2.2701940552	-0.47081
H	 0.7478518108	 2.0997861607	-0.3336507244	 0.129705
H	-0.9198396368	 1.8202364207	-0.8851069248	 0.123104
H	-0.5474944096	 1.9555053463	 0.8490580801	 0.112152
H	-1.6408687827	-0.1651183661	 0.9428292162	 0.276898
H	 0.1188073047	-1.1234683465	-2.0202960383	 0.094197
H	 2.6188697368	-0.6436807307	-2.2560046468	 0.115719
H	 2.458343405	 0.7637216474	-1.1119621164	 0.118206
H	 2.1700553565	-2.2303493079	-0.3024567964	 0.092824
H	 0.6707736099	-1.2331371108	 1.5670666656	 0.103594
H	 3.3013562653	 1.8406120692	 2.8172081039	 0.192963
