17
gdb 55076	3.87691	0.82405	0.75478	6.3571	71.65	-0.2372	-0.0155	0.2218	1482.9184	0.134394	-455.155492	-455.145872	-455.144927	-455.191337	33.409	
N	 0.3552097656	 1.0748096047	-0.6730929349	-0.532399
C	 0.0774694866	 0.1513033902	 0.2939358153	 0.443447
O	 0.9011223367	-0.1983531081	 1.1173093141	-0.358585
C	-1.3442746437	-0.3517806131	 0.2665657459	-0.151892
N	-1.5694857578	-1.7199590317	 0.7564691978	-0.30637
C	-2.125386692	-0.6068963014	 1.5241515106	-0.03553
C	-1.5682848118	-0.3883477838	 2.9168361359	-0.293853
C	-2.0783226093	-1.4387388697	 3.8791462476	 0.156874
O	-2.590355152	-1.2065412084	 4.9446549774	-0.245361
H	 1.2961675188	 1.428797058	-0.7296578081	 0.266229
H	-0.2868998558	 1.2959317732	-1.4131864326	 0.260095
H	-1.9355494314	-0.0221849001	-0.5862936895	 0.081213
H	-2.2835891166	-2.1762212303	 0.1957521284	 0.240853
H	-3.1954538354	-0.4231861466	 1.4290854086	 0.100415
H	-0.4769304159	-0.4760455188	 2.8624256874	 0.173145
H	-1.8314875923	 0.6024472993	 3.2981123719	 0.114182
H	-1.9355124137	-2.4836235333	 3.5228104242	 0.087536
