19
gdb 1147	3.51238	2.46136	1.81731	1.7675	67.71	-0.2522	0.0838	0.3359	802.5634	0.167838	-310.922181	-310.913076	-310.912132	-310.95539	32.657	
C	-0.0489593974	 1.5207369968	-0.0615789627	-0.454513
C	-0.0584402088	 0.0085357442	 0.0739071546	 0.344778
C	-1.2217203749	-0.6254891064	-0.6677471848	-0.454495
O	 1.2163472676	-0.6358171477	-0.11039429	-0.333802
C	 0.6226170727	-0.6821259	 1.2009372404	 0.344757
C	 1.3655730196	 0.0860919543	 2.2793671315	-0.45446
C	 0.1927587892	-2.0598418906	 1.6725509937	-0.454484
H	 0.8330168491	 1.9761776499	 0.3870517862	 0.125789
H	-0.0622292071	 1.7953852966	-1.1221770994	 0.122536
H	-0.9410184524	 1.9558048871	 0.4027902755	 0.117272
H	-1.2095865827	-0.3042637149	-1.7151902776	 0.122528
H	-1.1835339993	-1.7140421141	-0.6550307248	 0.125738
H	-2.1761828313	-0.3046430197	-0.2355929899	 0.11728
H	 1.7562756766	 1.0381818395	 1.9223873278	 0.125659
H	 0.71156809	 0.2769847162	 3.13757899	 0.117257
H	 2.2134995763	-0.5085771149	 2.6369589887	 0.122599
H	 1.0635370545	-2.6088615361	 2.0477836579	 0.122501
H	-0.5260712352	-1.9795205516	 2.4956678889	 0.117273
H	-0.2553968966	-2.6540538185	 0.8771612439	 0.125786
