19
gdb 93434	2.86091	1.34773	0.95242	1.5486	78.87	-0.2563	-0.0114	0.245	1223.4378	0.161454	-419.278819	-419.270403	-419.269459	-419.311991	32.226	
C	 0.0228315826	 1.5976517727	-0.0220958711	-0.394353
C	 0.0706779643	 0.0695573926	 0.0051219526	-0.040042
C	 0.7415717643	-0.5285807796	-1.241521595	-0.224163
C	 0.6986207277	-2.0570832257	-1.2038978612	-0.32804
C	 1.2426638526	-2.6312846559	 0.0904750587	 0.405636
O	 1.6917190802	-3.7507394809	 0.2009857834	-0.351807
N	 1.1913827373	-1.7818156642	 1.1892000092	-0.374779
C	 0.7349689558	-0.4598484144	 1.2665506869	 0.398608
N	 0.8309548143	 0.2629227084	 2.3099557935	-0.51586
H	 1.032145029	 2.017923592	-0.0688960439	 0.122605
H	-0.5335283378	 1.9389828641	-0.9005849274	 0.105853
H	-0.4543521288	 1.9887664114	 0.8769354932	 0.144872
H	-0.9631542737	-0.309878708	 0.0308013227	 0.102411
H	 0.2386239514	-0.1605932874	-2.1409887473	 0.10958
H	 1.7815724382	-0.1829377454	-1.2981473896	 0.113084
H	-0.3375668844	-2.4087081801	-1.299574143	 0.135037
H	 1.2602879469	-2.5169603278	-2.0200661045	 0.136244
H	 1.5837744599	-2.1888532578	 2.02957354	 0.247933
H	 1.2775580303	-0.2366336539	 3.0818957025	 0.207179
