14
gdb 32066	3.80135	1.18978	0.91128	2.2767	67.62	-0.2711	-0.0756	0.1956	1183.4064	0.101066	-473.880668	-473.872897	-473.871952	-473.913534	28.052	
O	 0.186049834	 1.3533652053	-0.0518069051	-0.417739
C	 0.0377898797	-0.0358312683	-0.0820239101	-0.126242
C	-1.4074088833	-0.4555003623	-0.0438751101	 0.409939
N	-2.337438381	 0.4335696556	 0.0092922994	-0.354312
C	-3.6312460642	-0.0389587609	 0.040804546	 0.019132
C	-3.9446753327	-1.3544580483	 0.0184703069	-0.252771
C	-2.898779577	-2.3494705988	-0.0412848537	 0.426315
O	-2.9759826077	-3.5406542842	-0.0684784224	-0.318318
O	-1.5877925784	-1.7762875516	-0.0707546558	-0.232637
H	-0.7092027316	 1.7217371846	-0.0132845141	 0.299086
H	 0.4890033223	-0.4666363628	-0.9898727432	 0.134641
H	 0.5485639898	-0.5110617349	 0.7703628976	 0.134685
H	-4.4039342274	 0.7224492978	 0.0854741703	 0.138707
H	-4.9649171727	-1.7127507712	 0.0435671243	 0.139515
