17
gdb 79483	2.28502	1.86256	1.21646	2.4361	77.54	-0.2587	0.0107	0.2694	1037.7102	0.136423	-380.791316	-380.783709	-380.782765	-380.823317	29.38	
C	-0.1249952343	 1.5705796837	-0.018950583	-0.425908
C	-0.0037423808	 0.0642706123	 0.0517139203	 0.004819
N	 1.1929300264	-0.5638511007	-0.6649472277	-0.176567
C	 2.0987361785	-0.2935013559	 0.5699461506	-0.047445
C	 2.5789499084	-1.7456932973	 0.5911189498	-0.267866
C	 1.0871444555	-1.8022816145	 0.2618620022	-0.033517
C	 0.7110189113	-0.6235092944	 1.2238764379	 0.211971
C	 0.3694325416	-0.6805868688	 2.6262974366	 0.139946
N	 0.0891028847	-0.7194786	 3.7480865728	-0.341533
H	 0.7931670173	 2.0753486404	 0.2946680297	 0.123575
H	-0.3489764088	 1.8793264916	-1.0447857365	 0.13715
H	-0.9387201873	 1.9183307736	 0.6254478137	 0.135177
H	-0.9382963449	-0.4214398794	-0.2530538513	 0.088335
H	 2.666137623	 0.6310372899	 0.6677786083	 0.104498
H	 3.254822238	-2.032927754	-0.2172215466	 0.121914
H	 2.8918414448	-2.1518377238	 1.5549772736	 0.122625
H	 0.4444544566	-2.6422650128	-0.0044671104	 0.102825
