13
gdb 3502	6.57234	2.17258	2.01119	1.223	54.31	-0.2434	-0.0399	0.2035	645.9239	0.101115	-344.380267	-344.374399	-344.373455	-344.410195	21.531	
O	-0.673339117	 0.7454985656	 0.5267547223	-0.247254
C	 0.1368145519	 0.9856896285	-0.335026187	 0.117999
C	 1.2758967326	 1.957810077	-0.2170878724	-0.0675
C	 1.0785666965	 3.4948945886	-0.4983424544	 0.037157
C	 0.3006454681	 3.6455051308	 0.8272177178	-0.227478
C	 1.5597724821	 2.7781755811	 1.0672235696	 0.050079
O	 2.3342957209	 3.736242018	 0.2324884858	-0.306831
H	 0.0840922687	 0.471925449	-1.3224528632	 0.08379
H	 2.1750498888	 1.5790375463	-0.7110606972	 0.102078
H	 0.9457095294	 3.9915303904	-1.4595751883	 0.10506
H	 0.3507952058	 4.6440115284	 1.2614116514	 0.114027
H	-0.6737372007	 3.1696702584	 0.9281704267	 0.131459
H	 2.0095836728	 2.442081218	 2.0004199088	 0.107416
