17
gdb 112245	2.2868	1.40869	0.93067	3.5927	72.23	-0.2582	-0.0304	0.2278	1223.272	0.135458	-455.158563	-455.149509	-455.148564	-455.192973	32.077	
O	-0.3334947538	 1.6107713336	-0.0205403737	-0.414117
C	-0.0678164587	 0.2318465848	-0.2201331827	-0.087666
C	-1.3107350448	-0.6233297659	-0.0115897052	 0.021558
C	-1.0869674738	-2.1645391103	 0.098211631	-0.364127
C	-1.6151893795	-2.0607627202	 1.5256366798	 0.407545
N	-1.8277484512	-2.8900073557	 2.4447941497	-0.533574
N	-1.7978703315	-0.6590806338	 1.3871664697	-0.104576
C	-2.4363736624	 0.2498850729	 2.1864179044	 0.116382
O	-2.8372952069	 0.0018324473	 3.3028175385	-0.304142
H	-0.2106612337	 1.8098138611	 0.9121534766	 0.295084
H	 0.2684661654	 0.1159127417	-1.2570237487	 0.123164
H	 0.7402229234	-0.1241915479	 0.4343496607	 0.103937
H	-2.0937800763	-0.3240258342	-0.7145292836	 0.10842
H	-1.702263331	-2.7741208675	-0.5646951095	 0.143973
H	-0.0457972202	-2.4860395921	 0.0210365257	 0.136842
H	-2.2128839798	-2.4221936986	 3.267184614	 0.251775
H	-2.5421292653	 1.2372467449	 1.6986199036	 0.099523
