20
gdb 32732	3.00007	1.00826	0.79938	1.4473	83.45	-0.1857	0.0307	0.2163	1479.5785	0.171198	-403.181438	-403.17195	-403.171006	-403.216537	34.859	
C	 0.1377153644	 1.5988224866	 0.1501427869	-0.380949
C	 0.0731178063	 0.0709037583	 0.1050275451	-0.153056
C	 0.5536741592	-0.5082866526	-1.241367896	-0.311852
C	 0.5245217021	-1.9939592918	-1.3126012608	 0.315988
C	-0.2857700031	-2.8966727867	-1.9436935041	 0.113619
N	-1.4274831142	-2.6467531037	-2.7260269213	-0.610729
C	 0.199283043	-4.2011469354	-1.5836212892	-0.226426
C	 1.2594642403	-3.9936852043	-0.7626746426	-0.019187
O	 1.4729056709	-2.6706425018	-0.5777273416	-0.189924
H	 1.1605594503	 1.9578652334	-0.0107129756	 0.114289
H	-0.4941042606	 2.0471567585	-0.625365986	 0.110437
H	-0.2013496657	 1.9833409896	 1.1169787429	 0.113068
H	 0.6884771441	-0.3540436537	 0.906243971	 0.110302
H	-0.9523919792	-0.2691516702	 0.2921099799	 0.102391
H	-0.0691152682	-0.1066621702	-2.0517000376	 0.0923
H	 1.5739850904	-0.1508495568	-1.4385650812	 0.11115
H	-1.4708076738	-1.690124343	-3.0547834193	 0.238191
H	-1.486603934	-3.2664042827	-3.5248889407	 0.242129
H	-0.202497177	-5.1527358788	-1.8963032708	 0.101288
H	 1.9378289749	-4.6573523748	-0.2518805988	 0.126971
