21
gdb 64728	2.88988	1.17616	1.0664	0.5936	88.55	-0.2374	0.0263	0.2636	1241.2193	0.181474	-349.940384	-349.931226	-349.930281	-349.97395	35.773	
C	-0.2347445777	 1.7298952844	 0.1009404864	-0.449089
C	 0.1142884844	 0.2420148388	 0.0138632908	 0.30863
C	-1.1822652092	-0.6089350075	-0.1291846524	-0.39062
C	-1.9663240818	-0.3274994736	-1.3258768841	 0.309323
C	-2.605043512	-0.0880817439	-2.3166017955	-0.451725
C	 1.0826204623	-0.087696895	-1.1647364195	-0.291203
C	 1.9947824902	-1.1486312021	-0.6006895507	-0.061157
C	 1.8823891497	-1.2499432487	 0.7225205792	-0.064371
C	 0.8759805861	-0.2717449804	 1.2762742215	-0.296339
H	 0.6714895669	 2.3355644485	 0.2039696625	 0.110152
H	-0.7680085258	 2.0630799663	-0.794488794	 0.128768
H	-0.8749807702	 1.936598395	 0.966541102	 0.108524
H	-0.9035766136	-1.6703579753	-0.1213299612	 0.132164
H	-1.809468926	-0.4467827639	 0.7571195646	 0.123882
H	-3.1767476981	 0.1169444474	-3.1875527845	 0.192455
H	 0.538665571	-0.4088477518	-2.0598363098	 0.11444
H	 1.6590065404	 0.7997804284	-1.4624763541	 0.10023
H	 2.6744971521	-1.7253535103	-1.2186552464	 0.090316
H	 2.4560402361	-1.9200491128	 1.3535508604	 0.089859
H	 1.3814074741	 0.5546483474	 1.7957897368	 0.099926
H	 0.1968745712	-0.720838381	 2.0121974879	 0.095836
