17
gdb 16203	3.08755	2.28471	1.51517	2.9915	69.45	-0.25	0.0289	0.2789	856.239	0.144272	-363.876223	-363.869219	-363.868275	-363.907443	27.057	
N	-0.1488502071	 1.2857381778	 0.2536758435	-0.56171
C	-0.0809283085	 0.0236518005	 0.2530818405	 0.372076
O	 1.0761040007	-0.6982968784	 0.3460970619	-0.246014
C	 0.8045828029	-2.10189804	 0.1750794065	-0.087612
C	-0.6824774563	-2.2808431917	 0.5143585996	-0.32486
C	-1.2378868233	-0.9140323636	 0.1515637103	 0.265064
C	-2.6260825246	-0.4326925196	 0.4693700727	-0.310626
C	-2.2467738983	-0.685342811	-0.9609168447	-0.29775
H	 0.782034325	 1.7006709429	 0.3017954634	 0.220991
H	 1.0198263355	-2.377025458	-0.8648200013	 0.113643
H	 1.4805326339	-2.6535861771	 0.8317313337	 0.120286
H	-1.13864539	-3.1046587784	-0.0392340789	 0.111369
H	-0.8075401094	-2.4793565498	 1.584675283	 0.117017
H	-3.2966223847	-1.1333936261	 0.9558635305	 0.112433
H	-2.708785878	 0.5982334652	 0.7941896843	 0.145855
H	-2.0807177863	 0.1746446977	-1.5993375668	 0.137355
H	-2.6480561215	-1.5633831903	-1.456626538	 0.112481
