18
gdb 60915	3.8822	1.07648	0.86476	3.402	77.33	-0.228	-0.0084	0.2196	1313.355	0.149648	-435.307444	-435.298631	-435.297687	-435.34151	31.343	
C	-0.2731919688	 1.4300900706	-0.0320710673	-0.339836
N	-0.069056954	-0.0189006377	-0.0106572169	-0.179911
C	 0.1359026871	-0.6589428024	 1.195750746	 0.14758
O	 0.0674760353	-0.1217065167	 2.2769477059	-0.323448
C	 0.025734858	-0.6772481407	-1.2328866121	 0.495477
N	 0.1252805591	-0.0508073723	-2.3421028942	-0.336462
C	 0.2214926346	-1.0729093116	-3.3898989992	-0.160481
C	-0.0949001716	-2.4279983983	-2.6963373559	-0.186519
N	 0.0504523474	-2.0775979319	-1.2702470987	-0.371565
H	 0.5764612198	 1.923621485	-0.5087925157	 0.151556
H	-1.172561055	 1.6690094167	-0.6025950249	 0.142894
H	-0.3744485302	 1.7558351663	 1.0015360381	 0.162207
H	 0.3895596295	-1.7235928882	 1.070981338	 0.100245
H	-0.4642419573	-0.852329191	-4.2136481787	 0.112234
H	 1.2364166479	-1.06935399	-3.8070327025	 0.115209
H	-1.1150815547	-2.7672966796	-2.9149508581	 0.108759
H	 0.597709176	-3.2257020591	-2.9762261543	 0.118455
H	-0.5885432532	-2.5471648492	-0.6433012594	 0.243606
