18
gdb 56291	7.26958	0.52611	0.49676	4.3055	74.92	-0.2571	-0.0219	0.2352	2110.0052	0.143877	-439.106931	-439.096346	-439.095402	-439.144989	34.838	
C	 0.0622540144	 1.4623280379	-0.0072069276	-0.484288
C	 0.0007566687	-0.0522321809	 0.079841025	 0.359458
O	-0.0406410476	-0.6502052203	 1.1241127021	-0.266161
C	 0.0004204225	-0.7730219682	-1.268371361	-0.162234
O	 0.0334703706	-2.1570878697	-1.0736719139	-0.224063
C	 0.0156670845	-2.892466415	-2.2728393784	-0.051311
C	 0.0605480905	-4.3733328912	-1.8765521787	-0.338678
C	 0.0474948326	-5.250526209	-3.042467153	 0.246567
N	 0.0365194215	-5.9270176434	-3.9789348739	-0.300605
H	 1.04652324	 1.7749169063	-0.3753412238	 0.146958
H	-0.6819796569	 1.8519836885	-0.7100177247	 0.137645
H	-0.1008928999	 1.89068135	 0.9821029438	 0.151689
H	-0.9010652221	-0.4606205346	-1.8266123155	 0.113296
H	 0.8647584144	-0.4214833248	-1.8602051861	 0.110785
H	-0.8944760806	-2.6833762118	-2.8567150361	 0.112592
H	 0.8804206435	-2.6435614831	-2.9079513611	 0.112172
H	 0.9628023763	-4.5621782298	-1.2860238131	 0.167705
H	-0.7971429423	-4.602416851	-1.2358996541	 0.168472
