21
gdb 86055	2.22197	1.51015	0.95442	3.5755	87.72	-0.2289	-0.0317	0.1972	1290.1928	0.180915	-387.156578	-387.146499	-387.145555	-387.192289	36.199	
C	-0.2003189466	 1.5047503145	 0.0726895769	-0.396235
C	 0.0717712293	 0.0036662821	-0.0512804909	-0.096094
C	 0.9541753975	-0.4276121158	-1.2383782981	-0.32395
C	 2.043649118	-1.2911790134	-0.6353433619	 0.211082
C	 3.049999136	-1.9397867563	-1.529135761	-0.490651
C	 1.9635026986	-1.3551333968	 0.7085102643	 0.11143
C	 2.8337794386	-2.0631339144	 1.6971098519	-0.499411
C	 0.8144208857	-0.5473940402	 1.1765330969	 0.339481
O	 0.508289403	-0.3424943921	 2.3320646976	-0.348008
H	 0.7359624965	 2.0739439064	 0.0690201387	 0.115117
H	-0.8196563447	 1.8678318042	-0.7531348944	 0.110956
H	-0.7145810277	 1.7116596893	 1.014933429	 0.139504
H	-0.8902085389	-0.523049205	-0.0916403902	 0.101751
H	 0.3983461144	-0.9769104142	-2.0087908576	 0.109061
H	 1.3979094071	 0.4379031799	-1.7499132899	 0.112254
H	 3.5688225981	-1.1875183747	-2.1367817029	 0.135353
H	 3.799166024	-2.5116837826	-0.9780609788	 0.131842
H	 2.5549206505	-2.6174822572	-2.2365226654	 0.135933
H	 3.7225003543	-2.5031216069	 1.2391872759	 0.117275
H	 3.1500984757	-1.3693735411	 2.4829872368	 0.144433
H	 2.2767685708	-2.8611430057	 2.2014856832	 0.138876
