18
gdb 91052	2.19323	1.85576	1.56351	3.5096	70.47	-0.2152	0.0563	0.2715	955.2036	0.147106	-438.996994	-438.989087	-438.988142	-439.028767	31.843	
O	 0.0809645179	 1.4370779159	-0.1325590973	-0.420552
C	 0.0422067844	 0.0388113588	 0.0134534081	 0.031018
C	 0.3199380878	-0.6064830692	 1.4222227708	-0.299314
C	-1.0697148529	-1.288679236	 1.3779135841	-0.053361
N	-2.2628885847	-0.622489918	 2.0486302892	-0.152725
C	-2.12725491	 0.847982939	 1.9608796834	-0.251361
C	-2.5231511964	 0.1274977507	 0.7447703214	-0.050856
C	-1.3788997602	-0.5922673309	 0.0185773264	 0.405685
O	-1.8565595323	-1.2116330351	-1.1343208237	-0.485996
H	 1.0016163559	 1.7163752314	-0.1607726294	 0.288046
H	 0.6506642729	-0.4539846932	-0.7624476919	 0.061086
H	 1.1490725835	-1.3185892914	 1.4180756827	 0.101146
H	 0.4822095195	 0.1043935605	 2.2346173041	 0.114741
H	-1.1160711165	-2.3678791103	 1.5198187669	 0.082437
H	-2.9181215814	 1.3504317733	 2.5110308551	 0.120024
H	-1.1643014613	 1.3394701042	 2.0224800939	 0.127652
H	-3.5139885893	 0.1782441546	 0.3051821287	 0.102436
H	-1.1644165271	-1.7771754944	-1.4923881025	 0.279893
