20
gdb 101262	3.07357	0.91866	0.80658	1.4014	81.7	-0.246	0.0317	0.2777	1461.981	0.168822	-403.077792	-403.067669	-403.066725	-403.113405	37.213	
C	-0.1732260281	 1.5416914589	 0.189511742	-0.414062
C	-0.0940636109	 0.0166695992	 0.0526174773	-0.004878
C	-1.5004619863	-0.6017837777	-0.0727509621	-0.069997
O	-2.3320520303	-0.3535582117	 1.0463347778	-0.425422
C	 0.7469670139	-0.4569467965	-1.1283219822	-0.010402
N	 1.1612151016	 0.5050584827	-2.1535031794	-0.322846
C	 2.2022392444	-0.151951859	-1.3296519877	-0.259001
C	 2.9882408303	 0.6513780938	-0.4334840182	 0.380377
C	 3.6914784047	 1.2700529325	 0.3209437932	-0.437153
H	 0.8173231306	 1.9905107984	 0.2732115533	 0.141892
H	-0.6650955357	 1.9882150753	-0.6802119552	 0.120982
H	-0.7332769941	 1.8070861649	 1.0923033639	 0.099223
H	 0.3538128422	-0.3947335817	 0.967477795	 0.092712
H	-1.9706516368	-0.2525040381	-1.007519295	 0.088512
H	-1.4185866481	-1.6926891508	-0.1392825938	 0.104029
H	-2.5530756159	 0.5823629852	 1.0495972809	 0.285614
H	 0.4712494297	-1.4521695617	-1.4807567547	 0.083956
H	 1.1451042996	 0.0869190215	-3.0797146246	 0.237088
H	 2.7739207943	-0.9463186911	-1.8070297946	 0.109816
H	 4.3025311149	 1.830007026	 0.9848155442	 0.19956
