16
gdb 5625	3.24222	1.9396	1.2254	2.1387	67.97	-0.1718	0.0583	0.23	958.1946	0.131155	-379.932234	-379.923796	-379.922852	-379.965001	30.485	
C	-0.0414482298	 1.3324729979	-0.0492783843	-0.24268
O	-0.026879015	-0.0770366413	 0.0064423708	-0.276405
C	 0.6194795639	-0.6093355708	 1.0830866962	 0.297781
C	 1.2655776573	 0.0085901239	 2.1333847353	-0.211388
N	 1.7612518512	-0.9929803287	 2.9356263717	-0.258755
C	 1.429277858	-2.2256759916	 2.4170688611	-0.14036
C	 0.7190569848	-2.0208551041	 1.2544214396	 0.13584
N	 0.12121818	-2.9699038025	 0.3996122854	-0.619834
H	 0.9783490869	 1.7410045709	-0.0946536385	 0.113843
H	-0.583061898	 1.6113926363	-0.9551782752	 0.127653
H	-0.5519039258	 1.7604027317	 0.8252054716	 0.116181
H	 1.416680277	 1.0477671838	 2.3673792025	 0.112944
H	 2.2699451444	-0.8461358188	 3.786756868	 0.257293
H	 1.7199614528	-3.1392273368	 2.9088712976	 0.10652
H	 0.7257412021	-3.7610980319	 0.2155701152	 0.235916
H	-0.1260670996	-2.538668238	-0.483005557	 0.245449
