23
gdb 57528	2.80428	1.07029	1.01245	2.5622	81.51	-0.2497	0.0502	0.3	1340.9463	0.202553	-425.41826	-425.407762	-425.406818	-425.453025	40.656	
C	 0.0203601341	 1.5587974272	 0.0723327776	-0.398024
C	 0.0061054922	 0.020895812	 0.0138873662	 0.354618
C	 0.7565324701	-0.5530048074	 1.2199367731	-0.39597
O	-1.337626227	-0.4516680613	 0.136355883	-0.479627
C	 0.6333946123	-0.5243168521	-1.291624987	-0.285137
C	 0.0632313786	 0.0288299442	-2.5874753883	 0.401763
O	-1.357095502	-0.0259714609	-2.6599050426	-0.473241
C	 0.7360651944	 1.1550582809	-3.3248706062	-0.318277
C	 0.7726228515	-0.2550549314	-3.8805106251	-0.302485
H	 1.0388136383	 1.958166929	 0.0132885957	 0.104145
H	-0.5585949819	 1.997155555	-0.7461509375	 0.088674
H	-0.4285875115	 1.8928850636	 1.0118720285	 0.119804
H	 0.2417144693	-0.2690249412	 2.1423844898	 0.119779
H	 0.7803515162	-1.6454051331	 1.1697153911	 0.114809
H	 1.7846928595	-0.1804582918	 1.2662818297	 0.102393
H	-1.7090322053	-0.464953291	-0.7558914845	 0.279229
H	 1.7142778905	-0.3425303192	-1.2864306345	 0.094486
H	 0.4941690598	-1.6128020632	-1.2825039708	 0.109947
H	-1.6948634718	 0.8677024384	-2.5408996947	 0.292135
H	 0.1028062379	 1.8730312645	-3.836890577	 0.11145
H	 1.6431777087	 1.5770013782	-2.9065560807	 0.119893
H	 1.7079738303	-0.803120133	-3.8484002517	 0.116556
H	 0.1449494658	-0.4665462676	-4.738089344	 0.12308
