17
gdb 98742	2.93161	1.21326	1.0673	3.6752	71.66	-0.2459	-0.0385	0.2074	1190.2293	0.134232	-455.156104	-455.146491	-455.145547	-455.191692	32.795	
C	-0.0093507705	 1.3593340275	-0.22717873	-0.325693
N	 0.2013214834	-0.0704272327	-0.11774911	-0.330643
C	 0.8939087262	-0.7660357888	-1.0635690501	 0.474924
O	 1.3114756016	-0.3026713265	-2.104562161	-0.397934
N	 1.1641939884	-2.1023837795	-0.6719341544	-0.140856
C	 0.1603160838	-3.0983777474	-0.3774335159	-0.257728
C	 1.0098669831	-3.1948019893	-1.6185959633	-0.087047
C	 0.3116440063	-2.9345128244	-2.9285002038	 0.158705
O	-0.7646991303	-2.40074196	-3.0145893732	-0.250667
H	 0.6710540118	 1.9282418224	 0.4187760108	 0.124797
H	 0.178485606	 1.6401839804	-1.2637494919	 0.173679
H	-1.0403406778	 1.6157530479	 0.0348710963	 0.12652
H	 0.0237727681	-0.5225532877	 0.7636399784	 0.25057
H	 0.3666800889	-3.7516495229	 0.4661116326	 0.127057
H	-0.8812416226	-2.8407253911	-0.5542420177	 0.152862
H	 1.850061565	-3.8834992249	-1.6624761393	 0.107288
H	 0.8542977187	-3.2968495631	-3.8258039675	 0.094166
