17
gdb 106870	2.53971	1.30837	1.01377	4.1399	74.19	-0.271	0.0042	0.2752	1185.2214	0.136481	-417.975455	-417.966939	-417.965995	-418.009093	31.483	
O	 0.1131269919	 1.275641319	-0.3734199231	-0.411434
C	 0.0422022452	 0.0365247835	 0.3131485843	-0.157991
C	-1.3595502143	-0.5029282235	 0.3183650349	 0.249127
C	-2.5211466203	-0.1155235324	 1.2483748224	-0.289107
C	-3.0382377252	-1.5901815013	 1.1890691506	-0.294868
C	-1.8694691036	-1.9336939828	 0.2458417099	 0.142724
N	-1.8593462416	-1.0632966235	-0.9310915233	-0.383454
C	-1.1634286429	-3.1779048031	 0.200972312	 0.236796
N	-0.6023768917	-4.1896485163	 0.2063350358	-0.34648
H	-0.104043898	 1.0951592043	-1.2950690489	 0.293092
H	 0.7137637094	-0.7146872039	-0.1257847581	 0.115092
H	 0.3759053271	 0.2333811888	 1.336683671	 0.117758
H	-2.1909485587	 0.1672387083	 2.2498773251	 0.124862
H	-3.1842413141	 0.6642523813	 0.8635470563	 0.114886
H	-2.9675920136	-2.0974619084	 2.1523650237	 0.135005
H	-4.0326726481	-1.7640419451	 0.767897037	 0.115655
H	-2.7983855214	-0.7498893848	-1.1731406195	 0.238337
