21
gdb 97448	4.86985	0.64131	0.59778	3.4456	85.72	-0.2323	0.0234	0.2556	1917.8618	0.180156	-420.362075	-420.351656	-420.350712	-420.399212	36.225	
C	-0.088254051	 1.3549820895	-0.1368576395	-0.31459
N	-0.2332717981	-0.0215103237	-0.5601659983	-0.202765
C	-1.0928967883	-0.7210350986	 0.0329195065	 0.138008
O	-1.2675578455	-2.0193189968	-0.2869878862	-0.209302
C	-2.3656295235	-2.6815174638	 0.3500814115	-0.107388
C	-2.2106365688	-4.1612453101	 0.1247474121	 0.009295
C	-3.4245787693	-5.0254293201	 0.023373487	-0.261723
N	-2.565691523	-4.8160318032	-1.130513252	-0.065936
C	-3.078779437	-4.03078028	-2.2445682151	-0.316195
H	 0.9381661787	 1.528981093	 0.2060710108	 0.128509
H	-0.2542913002	 2.0216584946	-0.9908082584	 0.127683
H	-0.7765549971	 1.6516805889	 0.6721009582	 0.094073
H	-1.7481264413	-0.3587672334	 0.8423457839	 0.069281
H	-2.3551229176	-2.4725059607	 1.4290649332	 0.112243
H	-3.3123927184	-2.3053532834	-0.0549976656	 0.107567
H	-1.3116473475	-4.5703456231	 0.5827509666	 0.101548
H	-3.4301475355	-6.0240143872	 0.4522001564	 0.119739
H	-4.3919389006	-4.5214016059	 0.0381422219	 0.104533
H	-3.8428721537	-3.2869908687	-1.9684682751	 0.095949
H	-2.248078105	-3.5082123339	-2.7264982525	 0.144736
H	-3.5296482175	-4.7141406433	-2.9707336454	 0.124735
