16
gdb 17182	3.93951	1.85873	1.5647	1.8475	64.43	-0.2309	0.0663	0.2972	838.8716	0.130032	-383.634019	-383.627087	-383.626143	-383.665247	26.506	
O	-0.0643081212	 1.4228059394	 0.1412566288	-0.422639
C	-0.0388263961	 0.0112904463	-0.0308929555	-0.231043
C	-1.4547198145	-0.4720294297	-0.0753072721	 0.338931
C	-2.6005658852	-0.1580045613	-1.0631559779	-0.319528
C	-3.2642836633	-1.1266891785	-0.0592049357	-0.099693
C	-1.9477193223	-1.9418417993	 0.1319700209	 0.037668
O	-1.9550922423	-1.8632358159	 1.5881432579	-0.331939
C	-2.4410612537	-0.5610205885	 1.1373055562	 0.063466
H	 0.8441767675	 1.7328740221	 0.1993390038	 0.289927
H	 0.4820511022	-0.2692233782	-0.9610011583	 0.087581
H	 0.4720562719	-0.4926202426	 0.8047315937	 0.103713
H	-2.9664939715	 0.8713480323	-1.0677758636	 0.111193
H	-2.4762947882	-0.5251711555	-2.0862284828	 0.096017
H	-4.2809185102	-1.5165653009	-0.0236333147	 0.084145
H	-1.6169704065	-2.8656508717	-0.3438697648	 0.092309
H	-2.7001348466	 0.1919366521	 1.8804270043	 0.099893
