18
gdb 124653	4.37003	0.97074	0.87424	1.5133	74.28	-0.2288	0.0024	0.2311	1354.9922	0.148248	-435.273605	-435.264809	-435.263865	-435.307607	32.083	
C	-0.0958063487	 1.5285475562	 0.0917165023	-0.395743
C	 0.0135863051	 0.0145140253	-0.0167273964	 0.148205
C	 0.7494042864	-0.6192779208	 1.1605198845	-0.397511
O	-1.3494074685	-0.4722860327	-0.0791359677	-0.289032
C	-1.5561152684	-1.6776464641	-0.617931861	 0.389708
N	-0.6082089658	-2.471014287	-1.1144947504	-0.309689
N	-1.3102015762	-3.5276497941	-1.5408069409	-0.083176
N	-2.6181489246	-3.4828285308	-1.3599760208	-0.189736
C	-2.810824249	-2.3058709593	-0.7672958371	-0.143305
H	 0.9011795287	 1.9774977779	 0.1219551819	 0.118619
H	-0.6372029818	 1.9402059285	-0.7639655325	 0.125157
H	-0.6289537382	 1.8102007719	 1.0051750648	 0.126041
H	 0.5105566645	-0.2625832871	-0.9531043485	 0.105669
H	 0.2452616845	-0.3756280758	 2.1011059025	 0.120761
H	 0.793547075	-1.7048105195	 1.0520474515	 0.139601
H	 1.7745637671	-0.2387263337	 1.2097264494	 0.116505
H	-0.8594783304	-4.3161728082	-1.9728276656	 0.290967
H	-3.7912670396	-1.9624718067	-0.4836078164	 0.126958
