17
gdb 80961	2.44964	1.4299	1.24315	2.6325	69.35	-0.2519	-0.0437	0.2082	1075.981	0.133366	-458.902763	-458.894217	-458.893273	-458.936157	31.821	
C	 0.5588383633	 1.1775352453	 0.3033561472	-0.518284
C	 0.1450591729	-0.2525331228	 0.1799146071	 0.329283
O	 0.6446884593	-1.033141317	-0.992557235	-0.372111
C	-0.2087775298	-1.9889330875	-0.2258930799	-0.016472
C	 0.501631479	-1.4933740192	 1.063474929	 0.142209
O	 1.8471514882	-1.785623852	 1.2215811908	-0.4437
C	-1.2727596137	-0.8785254872	-0.1013121726	-0.118702
C	-2.3498101833	-0.8839095056	 0.9469517849	 0.121117
O	-2.4333414126	-1.6618160886	 1.8659985474	-0.249076
H	 1.6399755284	 1.2364274373	 0.4631978755	 0.144381
H	 0.3058125603	 1.7392221646	-0.6004389826	 0.13913
H	 0.0612004472	 1.6436066132	 1.1592817526	 0.136797
H	-0.3191324004	-2.9934032731	-0.6323699637	 0.107007
H	-0.0129625541	-1.6266109838	 2.0126448272	 0.121685
H	 2.235641748	-1.6788476026	 0.3406979788	 0.287163
H	-1.6558182117	-0.5387088	-1.0669339958	 0.103694
H	-3.1084435008	-0.078639871	 0.8165098892	 0.085878
