16
gdb 18558	3.57211	2.06859	1.63196	3.4637	63.67	-0.2291	-0.0334	0.1957	812.3256	0.131703	-383.748414	-383.741782	-383.740838	-383.77958	25.401	
O	 0.1520825639	 0.0132323504	-0.4781873649	-0.282575
C	 0.052128618	 1.1514422278	-0.1295261695	 0.375892
C	-1.1208510109	 2.0275094406	 0.3511421407	-0.366872
C	-0.1013977196	 3.1539030682	 0.6959800344	-0.054959
C	 0.3145522701	 3.2834520634	 2.1715175486	-0.228983
C	 1.3824722333	 2.185277095	 2.3399501456	-0.096194
O	 2.0514549897	 2.1094088648	 1.0804795714	-0.243404
C	 1.0774881608	 2.3138374642	 0.0866011636	 0.002526
H	-1.8184823999	 2.276273975	-0.4547626134	 0.135164
H	-1.6965416524	 1.6065622666	 1.1818202087	 0.128696
H	-0.3089208668	 4.1149687728	 0.2274911701	 0.083232
H	 0.7617571312	 4.2662664357	 2.3459553155	 0.113755
H	-0.5209358127	 3.1635395464	 2.8665540688	 0.107453
H	 2.1334436976	 2.4096086196	 3.1005088522	 0.117807
H	 0.9200839286	 1.2173988306	 2.588028868	 0.105351
H	 1.568018129	 2.6629204589	-0.8260319497	 0.10311
