15
gdb 8765	4.16292	1.26172	1.15594	3.974	62.23	-0.2955	-0.0613	0.2342	1031.4426	0.116495	-399.820386	-399.81173	-399.810786	-399.853874	30.127	
C	-0.063370989	 1.5789436585	-0.0760234535	-0.399372
C	 0.0483829998	 0.0446801285	-0.0126993434	-0.175257
C	 0.6477497541	-0.4893889906	-1.2390050517	 0.28514
N	 1.1075159323	-0.9108881534	-2.2115344936	-0.314545
C	 0.8641355718	-0.4338637721	 1.2255787333	 0.052617
O	 2.1235218924	 0.1614224405	 1.2718147297	-0.421193
C	 0.090005892	-0.1497429694	 2.5022309551	 0.129964
O	 0.5731258799	 0.4920384058	 3.4011607052	-0.250123
H	 0.9326426771	 2.0228014838	-0.1081883853	 0.162177
H	-0.6181203983	 1.8887375377	-0.9638614065	 0.142916
H	-0.5854343993	 1.9579719238	 0.8077087347	 0.129944
H	-0.9551171294	-0.3957732422	 0.064952157	 0.128542
H	 0.9532172582	-1.5328173151	 1.1579342332	 0.119573
H	 2.1824033514	 0.5954135476	 2.1381791046	 0.301722
H	-0.932501233	-0.5749098134	 2.5667769811	 0.107896
