18
gdb 132769	2.25136	1.77568	1.00499	0.7271	83.14	-0.2319	0.0027	0.2346	1165.6437	0.147011	-410.001236	-409.992491	-409.991547	-410.035109	32.189	
C	 0.0124967302	 1.5238827385	 0.0347348672	-0.496364
C	 0.0041186594	 0.0186606786	-0.0220360394	 0.178812
C	-0.042756047	-0.6937235273	-1.2222416582	-0.203217
C	-0.0489828737	-2.0854654613	-1.2296361463	-0.10392
C	-0.0081238795	-2.7891310935	-0.02954332	-0.203217
C	 0.0395092753	-2.1197243147	 1.1951235923	 0.178812
C	 0.0848715831	-2.8387986598	 2.5179466418	-0.496364
C	 0.0438494003	-0.7282587902	 1.1520938733	 0.149852
F	 0.089518471	-0.0616502782	 2.3219064146	-0.080329
H	 0.9104809276	 1.8999065639	 0.5365198573	 0.13721
H	-0.0209086878	 1.9498210122	-0.9707752607	 0.121816
H	-0.8450596778	 1.9073543054	 0.5978917523	 0.137211
H	-0.0745511118	-0.1436137965	-2.157656131	 0.09491
H	-0.0856834642	-2.6221140396	-2.1713896951	 0.093639
H	-0.0129438076	-3.8747598174	-0.0338984931	 0.09491
H	 0.9862202706	-2.5790176789	 3.0833480867	 0.137211
H	-0.7691703946	-2.5696662809	 3.1486149247	 0.13721
H	 0.0736954464	-3.9213518002	 2.3711687335	 0.121816
