21
gdb 98258	2.6733	0.98152	0.87385	1.7709	75.42	-0.2737	-0.0396	0.2342	1434.2675	0.178894	-461.383027	-461.372201	-461.371256	-461.419319	38.888	
C	 1.0114353456	-0.5653837734	-0.7230853913	-0.397415
C	-0.0381037978	 0.0351905114	 0.2212175871	 0.010448
C	-0.0626479351	 1.5664077908	 0.128652136	-0.396016
C	-1.4537019691	-0.5263556471	-0.0773352105	 0.046435
O	-1.8690208203	-0.1752316408	-1.3724230953	-0.438363
C	-1.5358529662	-2.037393341	 0.0970911856	 0.328194
O	-1.8791496127	-2.7392985165	-0.8364742083	-0.349638
C	-1.2240836367	-2.6841395898	 1.4351042461	-0.12898
O	-1.4541494572	-4.0614736036	 1.4059946607	-0.420189
H	 1.9968775359	-0.1311185315	-0.5314093388	 0.116876
H	 1.0999976507	-1.6513055485	-0.6073933429	 0.113982
H	 0.7434039964	-0.3595599776	-1.7630449143	 0.136556
H	 0.2077639522	-0.2403242993	 1.255814957	 0.076793
H	-0.3517675603	 1.882836708	-0.877111953	 0.142609
H	-0.7771561248	 1.9980218377	 0.8375902442	 0.110401
H	 0.925356651	 1.9815446422	 0.3501200117	 0.112287
H	-2.1473044694	-0.0898418536	 0.6632697301	 0.092345
H	-2.0755524043	-1.0100418187	-1.8203698742	 0.296532
H	-0.1752232031	-2.4613340094	 1.69096474	 0.127086
H	-1.8382411772	-2.1949112005	 2.2083365625	 0.123034
H	-1.7229068076	-4.2611431787	 0.4960459175	 0.29702
