21
gdb 82601	3.88513	1.31804	1.26119	1.5296	81.86	-0.2346	0.0876	0.3222	1112.8115	0.183737	-387.054635	-387.046864	-387.04592	-387.086413	31.605	
C	-0.0876342261	 1.6460865342	-0.1610733039	-0.426038
C	 0.0221796606	 0.1376343607	-0.0197222776	 0.027013
C	 1.1758692547	-0.6307453976	-0.7176142412	 0.044044
O	 2.3451108181	 0.0531976011	-0.2332367068	-0.270012
C	 2.2020139902	-0.3124072373	 1.1496656691	 0.067217
C	 2.4037742244	-1.8496299462	 1.0882674918	 0.009045
C	 2.3936944246	-2.6001391068	 2.4151212025	-0.420324
C	 1.042656115	-1.7769150544	 0.3701125903	-0.065339
C	 0.6274122329	-0.5258983683	 1.2307057607	-0.093731
H	 0.8875416767	 2.1185806379	-0.0214653006	 0.131338
H	-0.4595402409	 1.9239227972	-1.153754861	 0.111162
H	-0.7814508384	 2.0597468074	 0.5789980844	 0.109849
H	-0.9306421984	-0.3582124434	-0.2407143932	 0.070277
H	 1.2388148155	-0.7981998317	-1.7921384391	 0.072388
H	 2.773905601	 0.3530790036	 1.7954566499	 0.073971
H	 3.265527345	-2.1455007158	 0.4806422339	 0.070875
H	 1.5470378279	-2.3152451597	 3.0474095658	 0.115597
H	 2.3308625315	-3.6809782692	 2.2496786748	 0.117805
H	 3.3125146676	-2.4056164628	 2.9790618015	 0.11615
H	 0.391805491	-2.6266390251	 0.1689096946	 0.067833
H	 0.1397085469	-0.5679639337	 2.202095814	 0.07088
