18
gdb 27194	3.22063	1.55482	1.06237	1.8096	88.26	-0.1805	0.0153	0.1958	1119.6711	0.149972	-364.865306	-364.857541	-364.856596	-364.897452	30.378	
C	-0.0177137128	 1.5275221147	 0.0934241011	-0.503509
C	 0.0092796678	 0.0412195158	-0.0443567637	 0.135345
C	-0.0003759348	-0.7920853444	-1.1409532772	 0.236919
C	-0.0362770038	-0.8022732264	-2.5974050426	-0.215867
C	-0.0203450098	-2.0771926449	-3.0316870595	-0.086602
C	 0.0291392989	-3.0702343026	-1.8755149399	-0.423136
C	 0.0393087412	-2.1480460808	-0.6865968727	 0.244398
C	 0.0726936103	-2.1269043219	 0.679590368	-0.245762
N	 0.0539467233	-0.7945424631	 1.0571417876	-0.302792
H	 0.8742518688	 1.9154466202	 0.602472041	 0.124606
H	-0.0583989608	 1.9916498127	-0.8945930017	 0.135853
H	-0.8918439813	 1.8778951744	 0.657579086	 0.12442
H	-0.070355585	 0.0758890327	-3.2311548832	 0.086901
H	-0.0394216751	-2.3922095262	-4.0676939782	 0.087878
H	-0.8348277871	-3.748670461	-1.8931004579	 0.118088
H	 0.9188184535	-3.7119250018	-1.9365762801	 0.11809
H	 0.1073206781	-2.9063563793	 1.4243034799	 0.114137
H	 0.0706451588	-0.4739052282	 2.0098969933	 0.251034
