21
gdb 72463	2.50354	1.85178	1.43939	1.7144	81.6	-0.2335	0.0147	0.2481	1006.8877	0.185287	-387.112774	-387.105213	-387.104269	-387.144182	31.423	
C	-0.0528859721	 1.5211354142	 0.0085482286	-0.470105
C	 0.0165725583	-0.0042703508	 0.0226364899	 0.261704
C	 0.8635418572	-0.5738992731	-1.1528075817	-0.094083
O	 1.5889700781	-1.7023058279	-0.6527215233	-0.26987
C	 1.05472354	-1.9970490546	 0.6483422603	 0.04967
C	 0.7811783995	-0.6040829942	 1.2225122549	-0.248336
C	-0.2488078994	-2.7668916609	 0.5270502425	-0.062216
C	-1.3725009542	-2.1194234666	 0.2204410448	-0.061391
C	-1.4011526899	-0.625365436	 0.0059420334	-0.281638
H	 0.9491530378	 1.9618236734	 0.0403055965	 0.114611
H	-0.5513294794	 1.8880660073	-0.8965545763	 0.113739
H	-0.6151459268	 1.9000072828	 0.8688685163	 0.114527
H	 0.2301450136	-0.8725783741	-1.9989333521	 0.093049
H	 1.5919644854	 0.1609081369	-1.5176054474	 0.09454
H	 1.8171077068	-2.5680947383	 1.1825204653	 0.070926
H	 1.7220852959	-0.0728933686	 1.399342485	 0.095093
H	 0.1963907946	-0.6145624263	 2.1460026456	 0.097853
H	-0.2342507747	-3.8450617754	 0.6538504024	 0.088294
H	-2.3124794553	-2.6554774548	 0.1113919741	 0.088867
H	-2.0254572948	-0.1514640702	 0.7789977256	 0.101406
H	-1.8956255607	-0.3957271127	-0.9486186243	 0.103359
