17
gdb 125309	3.23512	1.65394	1.10953	2.8436	82.14	-0.2126	-0.0186	0.194	1064.8496	0.138971	-380.910721	-380.90348	-380.902536	-380.942292	28.099	
C	-0.0216342449	 1.5207228272	 0.0040259166	-0.501144
C	-0.0080092705	 0.0265052536	 0.0138824274	 0.204313
C	-0.0246379387	-0.8149810206	-1.0392983034	-0.2081
C	-0.0010898873	-2.2617241927	-0.59095417	-0.235188
N	 0.0307397756	-2.0918027889	 0.8486599667	 0.036544
N	 0.0618634881	-2.9609175552	 1.8663305369	-0.29465
C	 0.0804931984	-2.1664102228	 2.9440122978	 0.012363
C	 0.0591725713	-0.7903457226	 2.6132723782	-0.396141
C	 0.0275574366	-0.787021613	 1.2288374819	 0.372762
H	 0.8688922369	 1.9242729378	 0.4997564592	 0.138402
H	-0.0530963486	 1.9107821479	-1.0161056002	 0.129099
H	-0.8905391248	 1.9086199403	 0.5481797553	 0.138316
H	-0.0515289485	-0.5320341259	-2.0827532074	 0.107736
H	-0.8896104235	-2.8221210416	-0.9063645814	 0.143046
H	 0.8819008552	-2.8059960834	-0.9474620156	 0.143035
H	 0.107751982	-2.6117076203	 3.928043056	 0.108415
H	 0.0666900628	 0.0525286202	 3.2839590221	 0.101193
