14
gdb 10679	2.66876	2.32345	1.37262	1.3408	59.47	-0.2658	-0.0455	0.2203	860.0802	0.107345	-415.881743	-415.874201	-415.873256	-415.913592	27.691	
N	 0.3285906548	 0.8859840325	-0.8058637166	-0.548463
C	 0.032703328	 0.0051495499	 0.1710373462	 0.358235
O	 0.7347014261	-0.2126112354	 1.146958795	-0.38904
C	-1.2685126826	-0.7600738747	 0.0004110763	 0.103507
C	-1.152910944	-2.2476319409	 0.2655630459	-0.243139
N	-1.791650168	-1.3910667648	 1.2343879632	-0.33267
C	-2.3346310977	-0.3417365532	-0.9478544369	 0.128917
O	-2.2079182295	 0.4564714512	-1.8501734823	-0.289493
H	 1.1586054872	 1.4469071836	-0.7039924341	 0.263999
H	-0.3483579898	 1.0735172778	-1.5341485936	 0.285332
H	-1.8077008031	-2.9302121722	-0.2696424698	 0.13321
H	-0.1421779108	-2.5982391759	 0.4528197814	 0.152703
H	-1.1099046312	-1.1589549718	 1.9599472592	 0.262494
H	-3.3014837295	-0.8512809061	-0.7603035539	 0.114408
