25
gdb 90404	2.12689	1.4655	1.25899	0.217	93.39	-0.237	0.0833	0.3203	1227.4028	0.227558	-352.340261	-352.329986	-352.329041	-352.374304	40.012	
C	-0.2775806237	 1.4312649925	-0.1998181486	-0.423353
C	 0.1567594325	-0.0312827328	-0.1501765655	-0.002044
C	 1.2868317469	-0.5984335318	-1.0727367099	-0.284374
C	 1.9205063203	-1.2670508493	 0.1505661784	-0.14061
C	 2.3340412915	-0.2603717037	 1.1998523126	 0.285996
C	 3.0630905076	-0.8869622138	 2.3837231768	-0.453839
C	 2.9182490751	 1.1039871707	 0.8623285934	-0.465511
C	 0.8634764861	-0.6346984537	 1.0855351695	 0.287239
C	 0.0382401394	-1.1998055446	 2.2134182092	-0.497241
H	 0.546869862	 2.1299973209	-0.0449065665	 0.117305
H	-0.7336201852	 1.6637591442	-1.1691285406	 0.110621
H	-1.0299861987	 1.6354949999	 0.570827612	 0.111939
H	-0.737236463	-0.6432976415	-0.3222551986	 0.070679
H	 0.9083093037	-1.3065662769	-1.8133720281	 0.095921
H	 1.9127134293	 0.1324064703	-1.5952993079	 0.093534
H	 2.3216768993	-2.2754556302	 0.1630548204	 0.073192
H	 4.1422455813	-0.899697308	 2.1931073159	 0.111582
H	 2.8990962544	-0.3162225856	 3.3055586134	 0.111831
H	 2.7534956752	-1.9186498331	 2.5684323877	 0.114774
H	 2.5455386586	 1.5199329821	-0.0734217951	 0.119517
H	 2.70561214	 1.829081674	 1.6569656275	 0.110675
H	 4.0089074714	 1.0312996148	 0.7715838395	 0.107075
H	-0.4824454179	-0.3954690163	 2.7494373356	 0.115893
H	-0.7302148199	-1.8824647175	 1.83106288	 0.111867
H	 0.6299900238	-1.7468759405	 2.9503085288	 0.117333
