16
gdb 88311	4.26796	0.87691	0.80637	5.7627	71.72	-0.2608	-0.0446	0.2162	1391.7286	0.122597	-437.899467	-437.890657	-437.889713	-437.933965	31.864	
O	 0.101169636	 1.3207223702	-0.1608902743	-0.409608
C	 0.0045245258	-0.041951172	-0.0159971026	 0.162332
C	-0.3782121425	-0.696825296	 1.2532861562	-0.324396
C	-1.3885922025	-0.7410439461	 0.0957083233	-0.208434
C	-2.544412771	 0.1629807235	 0.1643086138	 0.423822
O	-2.5006951182	 1.2544767573	 0.7028788141	-0.344506
C	-3.8203658823	-0.3355448644	-0.5328986354	-0.468449
C	-4.9338424804	 0.602221742	-0.4671753886	 0.289794
N	-5.8317740143	 1.3263878203	-0.4272639933	-0.292783
H	-0.6417759145	 1.723121933	 0.3195727333	 0.310165
H	 0.708684932	-0.55057569	-0.6661803982	 0.126015
H	 0.0794094304	-1.6407538284	 1.5271101485	 0.131274
H	-0.6545415692	-0.0520090108	 2.0812864391	 0.14596
H	-1.5245225073	-1.6825402309	-0.4240906506	 0.100294
H	-3.5824759407	-0.5540653467	-1.5815710448	 0.180579
H	-4.1163713113	-1.2926365611	-0.0857079704	 0.17794
