21
gdb 117259	4.5892	0.75465	0.72813	1.6851	80.99	-0.2629	0.0131	0.276	1676.344	0.181936	-424.259424	-424.249635	-424.248691	-424.296479	34.578	
C	-0.3985789801	 1.4699117451	-0.2671822848	-0.391156
C	 0.1338863586	 0.0879815859	 0.059062873	-0.043023
O	 0.7144419217	-0.4525611753	-1.1448227976	-0.245674
C	 1.2424738629	-1.6887598911	-1.0383132854	 0.432869
O	 1.2437476933	-2.3272367555	-0.012389801	-0.373947
C	 1.8234737282	-2.1686520534	-2.3421499172	-0.090368
C	 3.2819443911	-2.7210165668	-2.292934053	-0.219629
C	 2.8420282302	-3.8854867237	-3.2175817645	-0.213615
C	 1.372483692	-3.5815417983	-2.8270020235	-0.219625
H	 0.4048387648	 2.1271706866	-0.6117514126	 0.129154
H	-1.1609892502	 1.4204228021	-1.0497929444	 0.129155
H	-0.8490469486	 1.9149580415	 0.6250195849	 0.122583
H	 0.9005970278	 0.1163038842	 0.8398331023	 0.12145
H	-0.6561896908	-0.5862986187	 0.4045661856	 0.121451
H	 1.6974693671	-1.4094238139	-3.1150934452	 0.084564
H	 4.0767894965	-2.05651716	-2.6384670728	 0.100521
H	 3.5148099011	-3.0708162782	-1.2842970269	 0.125124
H	 3.0370574265	-3.6645620871	-4.2708937582	 0.102685
H	 3.2286543286	-4.8820600381	-2.9941073104	 0.101842
H	 1.0475433715	-4.1827105514	-1.9743960797	 0.125113
H	 0.6101133878	-3.6188032741	-3.6081152987	 0.100528
