15
gdb 17506	4.87363	1.82397	1.65207	1.7727	71.47	-0.247	0.0164	0.2634	803.7104	0.119536	-325.432776	-325.426394	-325.42545	-325.462966	25.635	
C	 0.0216282522	-1.2039477827	-0.0247992205	-0.335913
C	-0.0005636145	-0.0013234401	-0.029756306	 0.08362
C	-0.0232162628	 1.4296730993	-0.0222286106	 0.240255
C	-1.1089266078	 2.2245027898	 0.7475725735	-0.279108
C	-0.9118706196	 3.2606762542	-0.339249069	-0.045269
C	 0.5304961709	 3.2855569014	-0.7235666521	-0.04527
C	 1.2753205684	 2.2656221177	 0.1122804778	-0.279115
N	-0.38580669	 2.256426368	-1.3295255943	-0.184399
H	 0.0399535205	-2.2657400379	-0.0245307148	 0.188119
H	-2.0818167336	 1.7369622174	 0.6581930832	 0.124513
H	-0.9083534489	 2.4804737289	 1.7927710384	 0.102316
H	-1.6045879717	 4.0328753941	-0.6522548857	 0.10171
H	 0.950447478	 4.0769504045	-1.3330406851	 0.101711
H	 1.613130103	 2.5239533589	 1.1209132471	 0.102315
H	 2.0899576659	 1.8089193466	-0.4533963219	 0.124515
