17
gdb 78081	3.16272	1.33973	1.12372	1.8197	74.87	-0.2322	0.0128	0.245	1115.2383	0.133203	-421.743399	-421.734598	-421.733654	-421.776464	33.434	
C	-0.1067894182	 1.5022075808	 0.0826616297	-0.497806
C	 0.1113727722	 0.026433277	 0.0470036803	 0.391524
O	-1.0471397623	-0.8047204846	-0.1997810565	-0.344853
C	-0.6264920337	-1.7411133112	 0.8458491965	-0.083802
C	-0.6592092503	-3.1386765444	 0.4459008205	 0.315679
C	-0.7166517616	-4.3010664982	 0.1451943188	-0.423009
C	 0.7060845583	-1.011095512	 1.0103264032	-0.245983
C	 1.3160883482	-0.7497465043	-0.3604332591	 0.089021
O	 1.3228217173	-1.6505470096	-1.415070489	-0.432804
H	 0.8278196806	 2.0189228218	 0.3191161	 0.128574
H	-0.4535449349	 1.860267528	-0.8932294693	 0.138887
H	-0.857066353	 1.7743271755	 0.8318043102	 0.129729
H	-1.2718965159	-1.5942152445	 1.7204932366	 0.118904
H	-0.7484238997	-5.3265961906	-0.1301485815	 0.204715
H	 1.2412847627	-0.9034731985	 1.9447826119	 0.103528
H	 2.2544151701	-0.2045861504	-0.3033625803	 0.110796
H	 0.3987383802	-1.8544014348	-1.6129352521	 0.296899
