22
gdb 117171	2.63374	0.87936	0.70139	1.5714	80.6	-0.2573	0.0332	0.2905	1675.4316	0.191983	-441.496226	-441.485123	-441.484179	-441.533325	39.164	
C	-0.2700457435	 1.1586590869	 1.0475314021	-0.389963
C	-0.0885061961	-0.0530644825	 0.1524024073	-0.028548
O	-1.3321583048	-0.770024158	 0.1390252908	-0.249178
C	-1.3838182533	-1.8919814917	-0.6106626926	 0.378166
N	-0.3742202241	-2.2800983582	-1.2755622514	-0.537118
C	-2.7630858479	-2.5251052951	-0.4961702273	-0.045647
C	-3.001215195	-3.6464895642	-1.5089173357	-0.421012
C	-2.9971891259	-3.0058201606	 0.9442099025	-0.078965
O	-4.348588127	-3.4314379474	 1.0414709473	-0.422326
H	 0.6582814447	 1.7365246742	 1.0844814687	 0.119658
H	-1.0652535029	 1.8078316834	 0.6698362038	 0.126749
H	-0.5287564143	 0.85758757	 2.0669247253	 0.123692
H	 0.1722618358	 0.228665564	-0.8731061657	 0.119034
H	 0.7044623395	-0.7168503647	 0.5129791343	 0.11661
H	-0.5846721799	-3.136096783	-1.7827550147	 0.222512
H	-3.4905778372	-1.7228494325	-0.6718425682	 0.107282
H	-4.0109577764	-4.0411999093	-1.3845423905	 0.141237
H	-2.8900074238	-3.2881571941	-2.5364261946	 0.11995
H	-2.3010725211	-4.4765095759	-1.3566514695	 0.115275
H	-2.3014274584	-3.8309934065	 1.1693165751	 0.088152
H	-2.7839386635	-2.1834895571	 1.6387004977	 0.105835
H	-4.5002380149	-3.7481758278	 1.9364249854	 0.288604
