15
gdb 20840	5.11612	1.35911	1.14582	3.4017	63.15	-0.2196	0.0209	0.2405	1025.9339	0.120493	-396.03629	-396.028644	-396.0277	-396.06867	27.597	
C	 0.2210855507	 1.024745716	-0.7591233468	-0.37975
C	-0.221428343	 0.3285319736	 0.5393084017	-0.2929
C	-1.5387423991	-0.3610506907	 0.4242583734	 0.399224
N	-2.6064135795	-0.0294461888	 1.0860454124	-0.264361
N	-3.5678017324	-0.9194117873	 0.6565139806	-0.295366
C	-3.1224587974	-1.827132429	-0.2794494065	 0.454395
O	-3.7077945248	-2.7258480614	-0.8422814361	-0.421446
N	-1.7841149476	-1.4287905997	-0.4114315014	-0.39575
H	 1.1868946369	 1.5172177043	-0.6169405462	 0.126989
H	 0.3295194871	 0.3130463435	-1.5840100212	 0.116754
H	-0.5082854438	 1.7808138511	-1.0630112578	 0.137453
H	 0.5429823395	-0.3966427859	 0.8473270882	 0.118527
H	-0.3163553044	 1.0568870922	 1.34870849	 0.140937
H	-4.4983718975	-0.8784611511	 1.0320069851	 0.280423
H	-1.1380412248	-1.8899748668	-1.0277229953	 0.274871
