19
gdb 102707	3.36915	0.81789	0.6978	3.6718	69.23	-0.2693	0.0164	0.2857	1571.0044	0.156822	-497.303281	-497.292868	-497.291924	-497.339625	36.068	
O	-0.0728471672	 1.456784821	-0.13194759	-0.413323
C	 0.0135570269	 0.0439494212	-0.0579811234	-0.079433
C	-1.3606823574	-0.6447903251	 0.0011090592	-0.057911
C	-2.2206041019	-0.2298829011	-1.2021966799	-0.061618
O	-3.4627595784	-0.9132148224	-1.286212398	-0.416948
C	-1.1912955089	-2.1656879205	 0.1063547332	-0.088696
O	-2.3314956473	-2.7686490055	 0.725917748	-0.185644
C	-3.1459711034	-3.5318192608	-0.0330161852	 0.177512
O	-4.1530173752	-4.0074202595	 0.3968232085	-0.283462
H	-0.4226060614	 1.7778863955	 0.7056211037	 0.286358
H	 0.5482708789	-0.2639148154	-0.9648354375	 0.117662
H	 0.6236447649	-0.2762858027	 0.8007221203	 0.097202
H	-1.8608642121	-0.322624019	 0.9274239868	 0.080733
H	-2.3547103188	 0.8588815951	-1.1973448144	 0.108773
H	-1.688065966	-0.4816695266	-2.1277879505	 0.110758
H	-3.9972276932	-0.6742771951	-0.5215300637	 0.291691
H	-1.0192586996	-2.6100116773	-0.8830383546	 0.114592
H	-0.3332698482	-2.413543213	 0.7405834873	 0.116964
H	-2.7693675517	-3.6747703586	-1.0612768397	 0.08479
