19
gdb 41748	3.60401	1.58002	1.47461	1.6483	73.32	-0.2408	0.0892	0.33	955.599	0.16345	-423.009537	-423.0031	-423.002156	-423.03998	27.203	
C	-0.0011952019	 1.5276497477	-0.0161374287	-0.244046
C	 1.5465881148	 1.7783540388	-0.0313154359	-0.237702
C	 2.0284420328	 0.3276813943	 0.016493578	-0.05983
C	 1.0883959846	-0.3963320199	-0.9996439309	 0.1385
O	 1.3574859209	-1.7871490187	-1.0776375212	-0.283556
C	 1.0045475941	-2.443996496	 0.1160856576	 0.019124
O	 1.3673953914	-1.7068536959	 1.2588681108	-0.283556
C	 1.0972489427	-0.3245939806	 1.087863294	 0.1385
C	-0.019040317	-0.0053497225	 0.0366210175	-0.102837
H	-0.4919562926	 1.9733058267	 0.8538519707	 0.104328
H	-0.49943764	 1.9126739633	-0.9104797424	 0.104328
H	 1.8777875052	 2.2987958063	-0.9346204936	 0.102931
H	 1.8852747988	 2.3594820192	 0.8312936051	 0.102931
H	 3.0975029148	 0.1180368668	 0.0191643133	 0.07041
H	 1.0198709835	-0.0192076596	-2.0234729737	 0.076669
H	-0.0813046246	-2.6343708192	 0.1272334122	 0.087075
H	 1.5451594264	-3.3930878898	 0.1464089464	 0.118267
H	 1.03728935	 0.1219452592	 2.0839315275	 0.076669
H	-0.9960232439	-0.4878750599	 0.0573463135	 0.071795
