21
gdb 39261	2.37209	2.16682	1.49045	1.3535	80.68	-0.2299	0.0774	0.3074	969.1658	0.186454	-387.089487	-387.082481	-387.081537	-387.120496	29.916	
C	-0.0386103834	 1.448620337	-0.0511154827	-0.412682
C	 1.3453164943	 0.8102560053	-0.0135618758	-0.065443
C	 2.1755746543	 0.4488560636	-1.2348856594	-0.215128
C	 2.28684765	-1.1006852551	-1.3108703419	-0.22673
C	 0.9055732358	-1.7569454415	-1.0005012244	 0.100384
C	 0.710844305	-2.2378032755	 0.4759430772	-0.227719
C	-0.0741939257	-1.0627261319	 1.1446542506	-0.297956
C	 0.0871492468	-0.0278524553	 0.0561621897	 0.43855
O	-0.1021493361	-0.7436669072	-1.148551599	-0.281369
H	-0.3445841563	 2.0117150611	 0.8241751233	 0.114656
H	-0.4141492716	 1.8359343346	-0.9928320901	 0.122037
H	 1.8930143014	 0.9437248463	 0.915776391	 0.080179
H	 1.6971156229	 0.8199899069	-2.1446163389	 0.110503
H	 3.1721541499	 0.8979605951	-1.1931313336	 0.091936
H	 2.6302417886	-1.3996490385	-2.3067779669	 0.095468
H	 3.0424119634	-1.4563025513	-0.6010219431	 0.094065
H	 0.6808881835	-2.5484779298	-1.7181629454	 0.074444
H	 0.1387571436	-3.1680563984	 0.5096215546	 0.10327
H	 1.6687951864	-2.4223458241	 0.9688377135	 0.099949
H	-1.1239540726	-1.3292680449	 1.30142375	 0.103102
H	 0.3509616299	-0.7516807965	 2.1016096512	 0.098483
