13
gdb 27471	2.48836	1.77859	1.12545	3.0629	70.01	-0.2483	-0.0851	0.1632	1005.565	0.090682	-452.786251	-452.779208	-452.778264	-452.817959	26.418	
O	-0.0406178376	 1.2712815099	-0.4014843208	-0.38306
C	 0.0422200001	-0.0287389579	-0.0705315227	 0.393956
N	 1.2137497035	-0.5632101546	 0.0064884855	-0.359467
C	 1.4499445518	-1.884768518	 0.3296938367	 0.326812
O	 2.347112151	-2.2521401542	 1.0538651065	-0.316467
C	 0.5936270902	-2.90001474	-0.3779215385	-0.055289
N	-0.6846763633	-2.9433303216	-0.3725227569	-0.190706
C	-1.4956209885	-1.9543990998	 0.1370847084	 0.010443
C	-1.2450053614	-0.626023058	 0.2111243954	-0.147405
H	 0.8688830596	 1.5885973724	-0.5064763092	 0.310359
H	 1.1318714045	-3.7057572357	-0.8802923499	 0.147024
H	-2.4923761647	-2.3059817188	 0.3908437316	 0.133723
H	-2.0579018152	 0.0564475064	 0.433369154	 0.130077
