23
gdb 80403	2.69686	1.36554	1.22517	1.454	84.62	-0.253	0.069	0.3219	1172.3623	0.20596	-388.296994	-388.287797	-388.286853	-388.33038	36.706	
C	 0.2758699429	 1.7742506414	 0.1408021033	-0.439642
C	 0.0770225302	 0.276640588	 0.0447891558	 0.004721
C	 1.1371231319	-0.7096099092	-0.3952820128	-0.064102
C	 2.6038242379	-0.3020135897	-0.3828857205	-0.259802
C	 3.0157939869	-0.016557165	 1.0919565575	 0.388498
C	 4.2286695951	-0.8502104211	 1.5188511431	-0.431394
O	 3.3660252144	 1.3746401889	 1.1556112499	-0.453613
C	 1.7582342595	-0.3403723077	 1.966733567	-0.283285
C	 0.6223854196	-0.732325143	 1.0323673335	-0.059844
H	 1.272700874	 2.0446653734	 0.4945865815	 0.151354
H	 0.1298355386	 2.2436801225	-0.8390517761	 0.109078
H	-0.4579601304	 2.2155890228	 0.8257024759	 0.10577
H	-0.9144616839	 0.0077405213	-0.3152979528	 0.076056
H	 0.8429168367	-1.4781268818	-1.1025121581	 0.074008
H	 3.2115687238	-1.1138488269	-0.7948396933	 0.093495
H	 2.8132983421	 0.5881557003	-0.9836048363	 0.11588
H	 5.0936622429	-0.6117466703	 0.8928397376	 0.121933
H	 4.4952367498	-0.6477331704	 2.5638218766	 0.101267
H	 4.0185363723	-1.9213001031	 1.4324696425	 0.116238
H	 3.6024408529	 1.5762344493	 2.067395463	 0.272943
H	 1.9718618964	-1.1712636317	 2.6477311644	 0.092923
H	 1.5156728367	 0.5266811078	 2.5922741793	 0.093439
H	-0.0478387304	-1.5165970359	 1.368942219	 0.074077
