23
gdb 101182	3.2753	1.03113	0.92776	1.0093	87.04	-0.2473	0.0874	0.3347	1397.1841	0.205432	-388.228278	-388.218925	-388.217981	-388.263239	35.189	
C	-1.4022020046	 0.1761787807	-2.2355117728	-0.231948
O	-1.5802564266	-0.8497925104	-1.289769665	-0.247747
C	-1.2991817782	-0.4804831749	 0.0591555521	 0.070944
C	-2.4047271096	 0.3973380921	 0.6568636029	-0.403722
C	-1.1723791582	-1.7944176476	 0.8155600205	 0.083015
C	 0.0772338715	-2.7191237547	 0.6634853141	-0.056179
C	 0.8717935888	-1.7346142291	 1.572863944	-0.227085
C	-0.529837275	-1.885228178	 2.2373117182	-0.064338
C	-0.3906399267	-3.4140407239	 1.9758986211	-0.22145
H	-1.5425726089	-0.2696357797	-3.2239241473	 0.124527
H	-2.1275576582	 0.9954033524	-2.1212073687	 0.103749
H	-0.3892580581	 0.6073740758	-2.1848898493	 0.099704
H	-0.35320075	 0.0815855224	 0.0785019006	 0.060373
H	-2.1724523338	 0.6459297454	 1.6972690018	 0.117913
H	-2.5173600508	 1.337755854	 0.109905295	 0.113176
H	-3.3633912402	-0.1307663347	 0.6327916723	 0.120929
H	-2.1246165239	-2.3311183185	 0.7250541761	 0.065123
H	 0.423565859	-3.201990511	-0.2506011671	 0.073168
H	 1.7121984224	-2.164148071	 2.1254526956	 0.087487
H	 1.1416290076	-0.7612935521	 1.1607910512	 0.091518
H	-0.8818759011	-1.4067943447	 3.1533367344	 0.065844
H	-1.3180796946	-3.9911497768	 1.9245372123	 0.088251
H	 0.3779982791	-3.9364137956	 2.5517030779	 0.086748
