21
gdb 87140	2.78475	1.2613	1.09741	1.6117	78.83	-0.2391	0.0781	0.3173	1221.5031	0.180175	-424.19804	-424.188468	-424.187524	-424.231901	36.96	
C	-0.056143365	 1.5110000326	-0.0481194077	-0.412284
C	 0.0899708847	 0.0067687852	-0.0763173965	-0.066453
C	 1.457814984	-0.6346309154	-0.2246777329	-0.344578
C	 0.7383400111	-0.7242031351	 1.0886884082	 0.359451
O	 1.301178535	 0.0559076079	 2.1067486841	-0.469299
C	 0.1864196665	-2.0334033717	 1.6106365114	 0.341239
C	-0.6645976773	-2.8854702004	 0.6984591504	-0.484498
C	 0.8715299937	-2.6564064168	 2.754003132	-0.222118
O	-0.3353557424	-1.8992547555	 2.9531229581	-0.297127
H	 0.7342622287	 1.9633274541	 0.5550523615	 0.133763
H	-0.0045893652	 1.9303947112	-1.0587108248	 0.113648
H	-1.0179084333	 1.8060989769	 0.3862307932	 0.113826
H	-0.7194491085	-0.5171957347	-0.5763792442	 0.080916
H	 1.5627657291	-1.5231759653	-0.8375793932	 0.109246
H	 2.3187514242	 0.0258474364	-0.2349992249	 0.12374
H	 0.6668957956	 0.0190227884	 2.8368130348	 0.290115
H	-0.126054879	-3.1533561953	-0.2159815661	 0.127626
H	-0.9514545028	-3.8072826088	 1.2092261448	 0.12873
H	-1.5799887091	-2.358618863	 0.4141231815	 0.136059
H	 0.7716253973	-3.7282960773	 2.917217769	 0.111563
H	 1.7718886224	-2.1966023433	 3.1525568614	 0.126433
