17
gdb 63367	2.65783	1.25935	1.1296	1.7959	75.28	-0.2338	-0.0359	0.1979	1149.8361	0.13196	-421.797184	-421.787569	-421.786625	-421.831647	35.173	
C	-0.4887815648	 1.4906628694	 0.1730624572	-0.451559
C	-0.1675057752	 0.0071389089	-0.0051231494	 0.30397
O	-1.3129904135	-0.8097414843	 0.0907579914	-0.468286
C	 0.6928344159	-0.3264625611	-1.2588936642	-0.281816
C	 1.9834522446	-0.5040803178	-0.3780534048	-0.299696
C	 2.9506005792	 0.571272945	-0.4313645542	 0.331748
C	 3.7278892368	 1.4888859889	-0.4614918508	-0.465346
C	 1.0288081196	-0.4557410778	 0.8624155703	 0.353998
O	 1.1366151883	-0.7867598207	 2.0031364611	-0.29471
H	 0.4060800175	 2.1097157598	 0.05931941	 0.139298
H	-1.2272771157	 1.7942875762	-0.5751144198	 0.132752
H	-0.9026531244	 1.673433483	 1.1708139914	 0.123803
H	-1.657086941	-0.7328427017	 0.9885002554	 0.289967
H	 0.3755163242	-1.2678619716	-1.7086768361	 0.129244
H	 0.7497130252	 0.453566031	-2.0171392198	 0.120787
H	 2.4741922374	-1.4772691524	-0.4793990123	 0.132785
H	 4.4279951558	 2.2868271153	-0.4902404955	 0.20306
