13
gdb 24893	3.41629	1.31305	0.94849	4.485	81.64	-0.2354	-0.078	0.1574	1138.4429	0.089017	-419.453033	-419.445703	-419.444759	-419.484992	27.704	
O	-0.1024228578	-0.030632511	 0.0049464568	-0.337095
C	 0.0124769366	 1.1629009708	 0.0093879969	 0.419398
O	-1.1775285897	 1.9263054637	 0.0298554511	-0.256741
C	-1.1820238858	 3.2771421867	 0.0366779882	 0.24336
C	-0.0308801696	 4.0006070736	 0.0242200292	-0.248014
C	 1.2083796011	 3.2983114345	 0.003383203	-0.043912
C	 1.2341605534	 1.942192881	-0.0037791758	-0.252915
C	-2.4801889871	 3.8471794584	 0.0576670578	 0.24553
C	-3.5784779394	 4.3387285506	 0.0754699006	-0.367206
H	-0.0784195741	 5.0800564213	 0.030288421	 0.126707
H	 2.1361360672	 3.8616380283	-0.0067571623	 0.1251
H	 2.1548403717	 1.3734601207	-0.0195076904	 0.132525
H	-4.5500705466	 4.7682053915	 0.0911959339	 0.213263
