23
gdb 60452	2.92391	0.91341	0.80698	2.5155	79.56	-0.2372	0.064	0.3013	1550.476	0.203276	-462.556301	-462.545371	-462.544427	-462.592724	40.004	
C	 0.1389863779	 1.127817882	 0.5408900934	-0.41446
C	-0.2062856005	-0.2188400149	-0.089308232	 0.123266
O	 0.5123779641	-1.2851054191	 0.5437110515	-0.4208
C	-1.7117945982	-0.4903713069	-0.0874941394	-0.073339
O	-1.9928702241	-1.59584398	-0.918790401	-0.260742
C	-2.9009403243	-2.5741571265	-0.4294134433	-0.088727
C	-2.1445956331	-3.8475239428	-0.027531327	 0.14009
C	-1.4806671907	-4.5270506197	-1.2279273631	-0.397881
O	-1.2070351767	-3.558461274	 0.9950855282	-0.462599
H	 1.2224151414	 1.270541988	 0.5561083192	 0.132941
H	-0.3118322353	 1.9529731603	-0.018482265	 0.127262
H	-0.2290735603	 1.1856003655	 1.573487318	 0.1139
H	 0.1339774055	-0.2416069139	-1.1302541969	 0.106297
H	 0.4042025479	-1.1864056195	 1.4974915961	 0.287363
H	-2.0434404533	-0.6730375437	 0.944926892	 0.093438
H	-2.2430635733	 0.4019852255	-0.4561914588	 0.089716
H	-3.4540928809	-2.1882749944	 0.4363511476	 0.094281
H	-3.6253115744	-2.7924227086	-1.2254901761	 0.09466
H	-2.8740908514	-4.5359506123	 0.4200118907	 0.072789
H	-0.9022800587	-5.392159406	-0.893661201	 0.11843
H	-2.2255927263	-4.8651217861	-1.9566373367	 0.104396
H	-0.8055531342	-3.8281045994	-1.7315529818	 0.127238
H	-0.5488277113	-2.9510508433	 0.6188790457	 0.292481
