18
gdb 74636	3.0123	1.50543	1.35656	1.4181	77.62	-0.2162	0.0037	0.2199	1030.5848	0.14774	-401.876853	-401.86913	-401.868186	-401.908656	30.73	
C	-0.0469273514	 1.503232253	 0.0110581506	-0.513366
C	 0.0179101977	 0.0164099314	-0.0398046572	 0.344744
C	-0.0555535859	-0.8475841323	-1.0587017876	-0.206618
C	 0.05783736	-2.1929687589	-0.3923250708	-0.10387
N	-0.813553306	-2.0857308451	 0.8909907423	-0.138558
C	 0.1809093676	-3.0018003869	 1.5986327314	-0.250717
C	 1.1063611664	-2.0857589232	 0.7852422018	 0.34624
O	 2.4841640751	-2.0031798575	 0.7516316132	-0.464174
C	 0.1679407508	-0.9040735934	 1.1572464677	-0.127396
H	 0.8587116032	 1.9264541701	 0.4636628466	 0.132727
H	-0.1576806734	 1.9312211099	-0.9888714779	 0.127927
H	-0.8916872676	 1.8442681069	 0.6227086691	 0.133492
H	-0.1806024048	-0.6568332604	-2.1151222449	 0.104138
H	-0.0642259996	-3.1167219846	-0.9597119312	 0.066759
H	 0.1765402128	-2.8962059545	 2.6869896476	 0.101186
H	 0.0937180203	-4.0510920294	 1.3006165954	 0.093924
H	 2.8449942497	-2.882915015	 0.594812271	 0.283817
H	 0.1506595248	-0.5028317702	 2.1719419032	 0.069745
