15
gdb 77341	3.09993	1.27257	0.94681	4.2446	66.26	-0.2741	-0.0009	0.2732	1156.3031	0.113895	-453.997907	-453.989746	-453.988802	-454.030968	29.828	
O	 0.0870289165	 1.3947622266	 0.2278611066	-0.432732
C	 0.022306663	 0.0131036531	 0.0403677416	 0.034293
C	-1.4204908256	-0.5283761641	-0.06507368	-0.169882
C	-1.2588195824	-1.7859674711	-0.970610239	-0.185474
N	-0.1144550651	-1.4275034467	-1.7934422288	-0.322458
C	 0.624294632	-0.3937629116	-1.3128451256	 0.386746
O	 1.5711175625	 0.1628937672	-1.8261212923	-0.386278
C	-2.0692397349	-0.8198375412	 1.2062734481	 0.274068
N	-2.5818856144	-1.0712225484	 2.2107192698	-0.314204
H	 0.837681251	 1.6943844948	-0.3078409479	 0.301153
H	 0.5624758251	-0.5305285925	 0.833399431	 0.114857
H	-2.0053416135	 0.229697746	-0.5970163335	 0.149947
H	-1.0700692751	-2.681159075	-0.3659515333	 0.140106
H	-2.1505819124	-1.9642653078	-1.5763402602	 0.142388
H	 0.1232414034	-1.8973042093	-2.6528360463	 0.267468
