23
gdb 84026	2.54777	1.42885	1.15504	1.1252	85.66	-0.231	0.0826	0.3136	1194.3595	0.208026	-388.28817	-388.279603	-388.278659	-388.320929	34.143	
C	-0.0424119649	 1.5691172496	 0.1287620089	-0.402991
C	 0.0372742969	 0.0635575064	-0.0054210592	-0.072197
C	 0.6696722524	-0.627114231	-1.2090866609	-0.062212
C	 1.2968102312	 0.1299601237	-2.3689734486	-0.218131
C	 2.7079591838	-0.371305805	-2.7277842788	-0.184732
C	 3.7995435234	 0.0873622138	-1.7483437847	-0.18345
C	 3.648281082	-0.3943587281	-0.3038473413	-0.06283
O	 2.4878640151	 0.1208199174	 0.343139037	-0.24902
C	 1.3481602867	-0.6580772862	 0.1415183989	 0.090998
H	 0.9094807328	 2.0443375747	-0.1132790778	 0.133287
H	-0.8186556688	 1.987790148	-0.5211208987	 0.110657
H	-0.2875691122	 1.84415089	 1.1601274435	 0.115586
H	-0.8172384433	-0.4595838728	 0.4165806533	 0.081396
H	 0.200174833	-1.5630460423	-1.5040218059	 0.077581
H	 0.6417645235	 0.0293479355	-3.242458168	 0.092893
H	 1.3464305859	 1.202460678	-2.1545425428	 0.101015
H	 2.7014746326	-1.4682944522	-2.7898098951	 0.090135
H	 2.972557822	-0.0103621227	-3.7294364973	 0.089392
H	 4.7793841265	-0.2524403472	-2.1102668533	 0.089701
H	 3.8361025474	 1.1847370628	-1.7375123155	 0.100882
H	 3.6450475202	-1.4945607372	-0.2618919745	 0.085804
H	 4.5014293551	-0.044488199	 0.2880718301	 0.100812
H	 1.3646415286	-1.602250706	 0.6893906707	 0.075424
