16
gdb 19211	2.72458	2.65892	2.59772	1.0308	58.93	-0.2548	0.0819	0.3367	691.8776	0.133721	-420.871693	-420.865663	-420.864719	-420.90183	23.699	
C	 0.0015771403	 1.5344158429	 0.0196554123	-0.069169
O	 1.3566938986	 2.0089380833	 0.0078742776	-0.268802
C	 2.2598291353	 0.9238252551	 0.0266010047	 0.177271
C	 2.002701013	 0.0603795854	 1.2638789313	-0.094891
O	 0.6654365633	-0.4547897114	 1.1946893452	-0.280395
C	 0.0263992776	 0.0054750204	 0.0058825683	 0.037631
C	 0.8354613836	-0.4660040071	-1.2030811996	-0.069168
O	 2.1380153294	 0.1346140172	-1.1377734827	-0.268799
H	-0.5035895554	 1.8978173142	 0.9228604259	 0.109698
H	-0.5211569976	 1.9309054218	-0.8605134562	 0.105991
H	 3.2650313412	 1.3481706723	 0.017896923	 0.096056
H	 2.714021209	-0.7741108965	 1.2967626084	 0.109254
H	 2.1154597606	 0.6617635026	 2.1744036187	 0.109253
H	-0.9827305895	-0.4130163049	 0.002336419	 0.090379
H	 0.9369942758	-1.558038269	-1.1894995963	 0.109699
H	 0.3538970449	-0.1682533862	-2.1436089697	 0.105991
