25
gdb 95753	2.41863	1.27434	1.06107	1.1687	88.89	-0.2412	0.0765	0.3177	1313.6521	0.228916	-389.519133	-389.509391	-389.508447	-389.552657	38.739	
C	 0.0462271697	 1.5644192897	 0.0761977432	-0.39963
C	 0.031077574	 0.0425220505	 0.0440947092	 0.126498
C	 0.6216233652	-0.5278996451	-1.252755719	-0.204889
C	 0.7462996962	-2.0709563211	-1.2484987571	 0.260957
C	-0.6368076088	-2.7355982028	-1.3946446047	-0.417043
C	 1.6239298981	-2.5127025803	-2.4303693524	-0.420778
C	 1.4218830576	-2.4863643536	 0.0799023611	-0.212124
C	 0.7843180633	-1.8136459834	 1.2970593073	-0.089232
O	 0.7769014109	-0.4028333208	 1.1726867458	-0.257771
H	 1.0709190743	 1.9371364599	-0.0200348004	 0.120727
H	-0.5512002438	 1.9738820808	-0.7439567555	 0.110684
H	-0.3624609968	 1.9290057261	 1.0224672441	 0.120514
H	-1.0119881091	-0.304526483	 0.1527121819	 0.060753
H	 0.0149937199	-0.2020070898	-2.1073535047	 0.085883
H	 1.620146211	-0.090197554	-1.3836369262	 0.091103
H	-1.1106112053	-2.4366929413	-2.3363259523	 0.109547
H	-0.541123593	-3.82706044	-1.4027224278	 0.109212
H	-1.3228127265	-2.4721903667	-0.5851978518	 0.113938
H	 2.6230030314	-2.0676464608	-2.3701979211	 0.109161
H	 1.7423633141	-3.6021970532	-2.4479315325	 0.106868
H	 1.1796752445	-2.2107855878	-3.3858627985	 0.106926
H	 1.3906182905	-3.5767449117	 0.2000177979	 0.086625
H	 2.4796017172	-2.1965630086	 0.0471886857	 0.095795
H	-0.242803469	-2.1844091305	 1.4543319678	 0.084089
H	 1.3545060145	-2.0371794024	 2.2040985	 0.102185
