18
gdb 19484	3.85567	1.59064	1.53621	2.8257	66.57	-0.2423	0.0668	0.3091	907.9301	0.155505	-384.90904	-384.901873	-384.900929	-384.940701	27.693	
O	 0.2928705523	 0.6606627832	 1.0231973174	-0.421352
C	-0.0427976853	 0.4119121766	-0.33668498	-0.128185
C	-1.375245045	-0.3074751083	-0.3376196797	 0.047942
C	-1.9888842495	-0.9801796489	-1.5905230002	 0.04325
C	-0.9056248875	-1.9594925195	-2.0941955362	-0.219354
C	-0.5498508287	-2.5888200982	-0.7088690939	-0.221727
C	-1.5465652935	-1.7723169938	 0.13951123	 0.073547
O	-2.7557326101	-1.8348410058	-0.6860118974	-0.301973
H	 1.1325722996	 1.1288690603	 1.0453410328	 0.288125
H	-0.1383558753	 1.3521647292	-0.9045409048	 0.087939
H	 0.7362260343	-0.1863823526	-0.8308445521	 0.087034
H	-2.1336594789	 0.3105372852	 0.1478298417	 0.094228
H	-2.5956327632	-0.4429429761	-2.3200299962	 0.07554
H	-1.3336630787	-2.6851310362	-2.788417766	 0.108053
H	-0.0636120138	-1.4651374453	-2.5866758741	 0.095199
H	-0.7777726467	-3.6552083784	-0.6603576287	 0.107831
H	 0.4915259728	-2.4436048027	-0.4096496425	 0.101653
H	-1.7027126329	-2.0418468786	 1.1829872401	 0.082249
