17
gdb 39705	4.37319	1.55736	1.51682	0.6709	74.59	-0.2311	0.0674	0.2985	907.0462	0.138382	-380.740722	-380.734571	-380.733627	-380.771013	26.007	
C	-0.0902390111	 1.5195445743	-0.0143520459	-0.322221
N	 1.1932396455	 0.770133204	 0.0519200516	-0.386059
C	-0.0755056521	 0.0494291255	 0.0147277336	 0.430538
C	-0.4609065092	-1.0059910982	 1.0540261945	-0.172288
C	-1.930903152	-1.3476068417	 0.7361851772	-0.045697
C	-1.6107920594	-2.5678763469	-0.0395163416	-0.066292
C	-0.1205860001	-2.1398542152	-0.0051686787	-0.060735
C	-0.4697070195	-1.0000629038	-1.015932999	-0.125223
N	-1.9436557824	-1.3106133089	-0.7770326976	-0.154575
H	-0.3281395982	 2.0853199277	 0.882408861	 0.120729
H	-0.3574262334	 2.0127597716	-0.9456121528	 0.117143
H	 1.6322986867	 0.7621825804	-0.8665435376	 0.231212
H	-0.1048135296	-0.9951896661	 2.0809474316	 0.083264
H	-2.8378079412	-1.0498642769	 1.2463351154	 0.099326
H	-2.1360048887	-3.5026266687	-0.1904257933	 0.097832
H	 0.7834575541	-2.7411807306	 0.0125071835	 0.08111
H	-0.1973973895	-0.9546772463	-2.0701856418	 0.071937
