16
gdb 105575	2.03337	1.56145	1.33809	1.4577	72.17	-0.2616	-0.0042	0.2573	1064.4694	0.121829	-437.82516	-437.816109	-437.815164	-437.859012	32.622	
C	-0.0248031165	 1.4547203791	 0.0688698138	-0.264789
O	-0.0305907919	 0.0344392868	-0.0615174774	-0.272826
C	-1.3054928052	-0.5540540894	-0.0284111522	 0.107255
C	-1.1853181707	-2.0889070604	 0.1616846096	-0.121482
O	-1.8209943893	-1.9901850798	 1.4727112533	-0.250523
C	-1.9458155499	-0.6253579692	 1.3734425888	 0.399333
N	-2.3898137461	 0.227781992	 2.1743056637	-0.544044
C	-2.1923720299	-0.1090848103	-1.0975811114	 0.309643
C	-2.9205895221	 0.2448581304	-1.9853167267	-0.48124
H	 1.0254206006	 1.7516613008	 0.059554485	 0.130342
H	-0.5460329901	 1.9306222516	-0.770563131	 0.124565
H	-0.4919176678	 1.7680752415	 1.0085773521	 0.149181
H	-1.7706313189	-2.7084457994	-0.5181725937	 0.13436
H	-0.1519599163	-2.4291756157	 0.2424274589	 0.137975
H	-2.6965258806	-0.1996310152	 3.0505053917	 0.233986
H	-3.5692805351	 0.5644842272	-2.7638248345	 0.208265
