19
gdb 94116	3.81978	0.86686	0.74481	1.9984	73.02	-0.2525	-0.0264	0.2261	1506.1644	0.157324	-460.17866	-460.169176	-460.168232	-460.214963	32.806	
C	 0.1945791181	 1.5341641858	 0.2458568734	-0.404742
C	 0.1748356661	 0.0369140132	 0.0443980806	 0.231344
O	 0.9650059183	-0.3270929754	-1.0775684206	-0.266319
C	 1.5783507821	-1.5777141812	-0.7929878117	-0.106487
C	 1.1530326319	-1.8948688036	 0.6602183062	 0.09055
C	 2.2554636856	-2.4607946361	 1.5509571051	-0.309561
C	 1.7811726024	-2.715032929	 2.9689412923	 0.154818
O	 1.9073330688	-3.7641989986	 3.5463875633	-0.237152
O	 0.7471998187	-0.6235504922	 1.1522324581	-0.266146
H	 1.2213429109	 1.869777105	 0.4094264132	 0.131008
H	-0.2079691728	 2.0307864119	-0.6402331629	 0.133237
H	-0.417413035	 1.8049776584	 1.1099406538	 0.129122
H	-0.8572958489	-0.332399626	-0.1068086428	 0.063819
H	 1.2395332721	-2.3483553031	-1.4956659243	 0.108484
H	 2.6663790065	-1.4717966907	-0.8852159023	 0.106772
H	 0.2896493039	-2.5796580395	 0.6518538115	 0.085797
H	 2.6441163375	-3.3969982031	 1.1401728172	 0.125821
H	 3.0698986131	-1.7246778788	 1.5893590334	 0.1306
H	 1.2955976907	-1.8414894172	 3.4541734163	 0.099035
