17
gdb 48641	2.56979	1.55373	1.27127	3.7966	73.39	-0.2448	-0.0396	0.2052	1033.0089	0.136325	-421.840402	-421.832658	-421.831714	-421.872964	29.226	
O	-0.1115434449	 0.0126542622	-0.310176599	-0.247264
C	-0.0139795181	 1.1652293619	 0.0353218233	 0.054871
C	 1.2581366119	 1.9368747932	 0.0181864953	 0.116222
C	 1.669997511	 2.9290936484	 1.1629787364	-0.290136
C	 2.5901834328	 3.583818743	 0.0764804384	-0.138512
C	 3.5795522837	 2.4355047486	-0.2292986792	-0.232948
C	 2.588694698	 1.2182913602	-0.286336695	-0.26167
C	 1.432709313	 3.2261392672	-0.8633498563	 0.405675
O	 0.821325968	 3.7464251359	-1.742810994	-0.305976
H	-0.9032950955	 1.7382408068	 0.3811607167	 0.079398
H	 0.8539486572	 3.5756580325	 1.491455423	 0.12564
H	 2.178497027	 2.476735492	 2.0177208104	 0.118697
H	 2.9756422721	 4.5976425337	 0.1622174113	 0.093148
H	 4.114145851	 2.5904357515	-1.1694380571	 0.119935
H	 4.3205423518	 2.329748673	 0.5671436585	 0.113376
H	 2.8077182703	 0.4595920991	 0.4684094547	 0.119038
H	 2.5702752608	 0.7237934209	-1.2590743773	 0.130505
