21
gdb 71399	3.70677	1.2928	1.24969	0.4151	87.26	-0.2338	0.0969	0.3306	1128.9983	0.182942	-349.89275	-349.884901	-349.883957	-349.924516	32.39	
C	-0.0121693592	 1.4521613739	 0.0428111668	-0.504733
C	 0.0127352689	-0.0452367375	-0.0362863327	 0.33967
C	-0.5962445576	-0.9274563642	-1.1313166432	-0.278207
C	-0.3915256331	-2.1158753268	-0.1508278486	-0.166944
C	-0.3296072548	-1.0593581348	 1.0307125039	-0.116764
C	 1.1231230696	-0.8850755976	 0.6328050386	-0.211546
C	 1.1366625956	-2.2329035153	-0.048378316	 0.449991
C	 1.9002710362	-3.437476561	 0.3988599697	-0.35279
C	 2.1138408549	-2.8585316321	-0.9931698905	-0.341436
H	 0.6086433856	 1.9037523025	-0.7402377112	 0.118748
H	-1.0306881597	 1.8399114517	-0.0753986382	 0.115921
H	 0.3666089677	 1.8053012302	 1.0083640518	 0.116275
H	-1.6559720143	-0.6924365678	-1.2740835608	 0.088715
H	-0.0951153909	-0.9893960037	-2.1050046811	 0.085701
H	-1.0202606572	-3.003583513	-0.1951579628	 0.065749
H	-0.8263377606	-0.9788941724	 1.987182259	 0.084728
H	 1.9154400758	-0.4102673882	 1.1991892947	 0.077223
H	 2.6922688128	-3.3086196032	 1.1302944696	 0.108052
H	 1.3751499906	-4.384570646	 0.4783932484	 0.107268
H	 1.7299516865	-3.4204867051	-1.8394713195	 0.106679
H	 3.0489214632	-2.3437574696	-1.1906921478	 0.107701
