19
gdb 117281	4.41858	0.67093	0.58889	4.5935	75.71	-0.2335	-0.0035	0.23	1842.0732	0.156952	-456.371673	-456.360857	-456.359913	-456.40966	36.709	
C	-0.3745625204	 1.4956912356	 0.0145898634	-0.499697
C	 0.1462052644	 0.0615503162	 0.0008336027	 0.409757
O	 1.31828309	-0.2141809215	-0.0122268006	-0.298964
N	-0.8911908847	-0.8747643322	 0.0054017696	-0.363556
C	-0.8355786353	-2.2766134979	-0.0032969473	 0.357671
N	 0.2740189647	-2.8948253671	-0.0181878792	-0.462348
C	-2.2365427762	-2.8726875619	 0.0072608576	-0.275322
C	-2.29276961	-4.3937230026	 0.0010922863	-0.101145
O	-3.6644440851	-4.7520895108	 0.0128019801	-0.421703
H	 0.479121599	 2.1719710242	 0.0081420458	 0.155023
H	-1.0004333762	 1.6957740779	-0.8619268121	 0.13721
H	-0.9792131174	 1.6861196252	 0.9080042483	 0.137363
H	-1.8209499055	-0.4862617906	 0.0169208748	 0.247015
H	 0.1225082244	-3.901475697	-0.0225183718	 0.22079
H	-2.7771086972	-2.5093982276	 0.8909763387	 0.130634
H	-2.7935454304	-2.5015871513	-0.8629110212	 0.130726
H	-1.7835543806	-4.7833693889	-0.8941298156	 0.102723
H	-1.7662583553	-4.7911630807	 0.8827769557	 0.102769
H	-3.7251196581	-5.7117588192	 0.0090526949	 0.291054
