19
gdb 86053	2.3309	1.50215	0.95155	3.5542	80.61	-0.2403	-0.0435	0.1968	1240.5025	0.157705	-423.079617	-423.070043	-423.069098	-423.114317	34.634	
C	 0.0558463963	 1.5090943801	 0.1190276433	-0.490467
C	 0.0764495014	 0.0213769284	-0.0050458145	 0.206151
C	-0.02220435	-0.7145095367	-1.1344945093	 0.117063
C	-0.1347778792	-0.2849552272	-2.563121849	-0.5058
C	 0.0869897921	-2.1396230655	-0.7757953627	 0.299143
O	 0.2893846956	-3.0884928054	-1.5067369326	-0.358609
C	-0.0225844663	-2.2619298772	 0.7475757125	 0.052276
O	 0.8583090339	-3.2326014942	 1.2556348091	-0.441297
C	 0.2545236054	-0.8344350843	 1.2360732208	-0.331559
H	 0.9677687616	 1.8686194675	 0.6117571483	 0.140992
H	-0.0390075509	 2.0126620035	-0.8448762225	 0.132962
H	-0.7813187434	 1.8253507829	 0.7546005669	 0.140408
H	 0.1239146134	 0.7662470262	-2.7090424491	 0.123198
H	 0.5253168543	-0.8995341848	-3.1832659424	 0.150603
H	-1.1520119583	-0.4387207679	-2.9425727573	 0.138081
H	-1.0711416577	-2.524603081	 0.9750262216	 0.090187
H	 0.9635286019	-3.8799427367	 0.542957645	 0.290971
H	 1.2850785151	-0.7706781046	 1.6067630559	 0.135073
H	-0.3999768151	-0.511797613	 2.053197186	 0.110624
