17
gdb 82458	2.42281	1.78542	1.39655	3.5102	67.17	-0.2287	0.0542	0.2829	966.2141	0.13502	-458.898587	-458.890544	-458.8896	-458.930449	32.224	
O	 0.2120184473	 1.4106262473	 0.0408176486	-0.444192
C	 0.0476780674	 0.0178632433	 0.0805711836	 0.109308
C	 0.2121112335	-0.7769553367	 1.4252602169	-0.112383
C	-0.8312740001	-0.1483830073	 2.3948075675	-0.304755
C	-1.8591268069	-0.7410601756	 1.440017835	 0.28625
O	-3.2370989725	-0.7940470595	 1.5425569509	-0.473765
C	-0.8840821392	-1.7806454063	 0.9059915369	-0.256208
C	-1.3237617583	-0.6232230833	 0.0087178399	 0.331781
O	-2.1899840179	-0.6152519825	-1.0552237081	-0.473498
H	-0.5203951106	 1.8168659381	 0.5146363152	 0.285147
H	 0.7160690915	-0.3950334257	-0.6805333678	 0.097953
H	 1.1989555727	-1.0588236365	 1.7798032667	 0.081601
H	-0.8319094721	-0.6580816448	 3.3634721821	 0.096355
H	-0.798945143	 0.936809391	 2.553196728	 0.084631
H	-3.4843910589	-1.4709727528	 2.1814195073	 0.295568
H	-0.9228332393	-2.8518488527	 0.7807323796	 0.102446
H	-3.0857145737	-0.5975574561	-0.6909410723	 0.293761
