17
gdb 48316	2.75015	1.49753	1.13818	2.1964	80.33	-0.2452	-0.0306	0.2147	1089.7502	0.134048	-384.632331	-384.623899	-384.622955	-384.6653	31.945	
O	-0.4826314259	 0.4825162321	-0.7327425336	-0.269479
C	 0.1125588478	 1.0312425163	 0.1626521789	 0.087632
C	 1.3139325757	 1.9167990898	 0.0123048576	 0.029066
C	 1.8062290398	 2.4281960379	 1.265813769	 0.226698
C	 2.1913958576	 2.8375869868	 2.3292151952	-0.394768
C	 2.4247281274	 1.688039776	-1.0375234335	-0.085141
C	 1.8875110676	 1.0993217995	-2.3480333299	-0.243306
C	 0.9516513967	 2.3446110414	-2.4884903143	-0.243326
C	 1.5243725104	 2.8862489198	-1.1727308906	-0.085111
H	-0.207384751	 0.9107802819	 1.2201225919	 0.089344
H	 2.5369796043	 3.2027173666	 3.2644985097	 0.195792
H	 3.4412531596	 1.6281615911	-0.6686952827	 0.108693
H	 2.6652341976	 1.0788043244	-3.1149078109	 0.107689
H	 1.4052457286	 0.1241859221	-2.2926797952	 0.129915
H	 1.2352747498	 2.9814199427	-3.3295610701	 0.107692
H	-0.1203534074	 2.1541875787	-2.5215636475	 0.129909
H	 1.7164053912	 3.9235648029	-0.9277002542	 0.1087
