19
gdb 108148	3.5548	1.24921	1.17084	1.1105	74.16	-0.2408	0.0617	0.3024	1111.424	0.160701	-422.989833	-422.982081	-422.981137	-423.022247	30.33	
O	 0.1172125969	 1.3754561999	-0.3770864592	-0.413053
C	-0.028964273	 0.0609868843	 0.1494803578	-0.188418
C	-1.4432462878	-0.4380055446	 0.1121893278	 0.314413
C	-2.558026327	-0.0377076733	 1.090751637	-0.322036
C	-3.2656356206	-1.3895297619	 0.7486385737	 0.089652
O	-4.2367205593	-1.2326119812	-0.2723461281	-0.262871
C	-3.5409082409	-0.7500809978	-1.4291424201	-0.108237
C	-2.0652445633	-1.0144302102	-1.152794495	-0.112789
C	-1.9593093347	-1.8745092523	 0.0714927472	-0.145447
H	-0.4147569313	 1.9673443629	 0.1644127026	 0.283857
H	 0.610838353	-0.5770055764	-0.4702876877	 0.108041
H	 0.3579858687	 0.0050029366	 1.1804327634	 0.086056
H	-2.1898844312	-0.0237965512	 2.1219734453	 0.098158
H	-3.1392743149	 0.87108642	 0.8995848735	 0.095221
H	-3.7076902758	-1.9571875713	 1.5658142125	 0.085028
H	-3.8958383457	-1.3031061277	-2.3064312455	 0.107027
H	-3.7576681604	 0.3153279641	-1.5860107535	 0.099785
H	-1.3914478975	-1.1828147487	-1.9846848583	 0.095564
H	-1.4509364352	-2.825842501	 0.1521904266	 0.090051
