17
gdb 29743	3.39344	1.25174	0.92505	6.8194	82.23	-0.2308	-0.0537	0.1771	1228.4109	0.135854	-418.060106	-418.051193	-418.050248	-418.094098	31.361	
C	 0.0325479888	 1.4316803729	 0.0294786453	-0.354507
N	 0.0153713471	-0.0236842565	 0.0031298599	-0.087662
C	-0.0211387189	-0.8089611787	-1.1208586463	 0.275947
C	-0.0498422414	-0.2834033416	-2.5159861823	-0.5092
C	-0.023909098	-2.1115190244	-0.6504969587	-0.154972
N	 0.0090082992	-2.1464343163	 0.7026673438	-0.273381
C	 0.0321015891	-0.8793394488	 1.0919973193	 0.220326
C	 0.0717172384	-0.4022510652	 2.4735446969	 0.078614
O	 0.0874896022	-1.1118963998	 3.4522303202	-0.258931
H	 0.9419315352	 1.8044793556	 0.5081260645	 0.157102
H	 0.0038620554	 1.8072291681	-0.9931752121	 0.150024
H	-0.8359854342	 1.8238493833	 0.5649063102	 0.157296
H	 0.8350179858	 0.3184281342	-2.7549764492	 0.139536
H	-0.0746039453	-1.1229175797	-3.2140861246	 0.148482
H	-0.93380881	 0.3349941829	-2.7123400589	 0.139587
H	-0.048385122	-3.0140763606	-1.2443506461	 0.114664
H	 0.0869770486	 0.7066170244	 2.5742339683	 0.057075
