21
gdb 58319	2.50187	0.90666	0.78619	2.1031	81.53	-0.256	0.0261	0.2821	1552.1068	0.178108	-424.183455	-424.172388	-424.171444	-424.220663	39.682	
C	 0.0723397832	 1.5480105354	-0.0493925276	-0.408193
C	 0.005515981	 0.0315369672	 0.1401146221	 0.139792
O	 0.5501508044	-0.3625400856	 1.3920311445	-0.440797
C	-1.4286026603	-0.5135607395	-0.0012927387	 0.13754
C	-1.4629831782	-2.0409017373	-0.0374165427	-0.411518
O	-2.1261251798	 0.0093394694	 1.1333009904	-0.279706
C	-3.5373237772	-0.0074417845	 1.0361759932	-0.211452
C	-4.1143163851	 0.6861808191	 2.1807541147	 0.279005
C	-4.6122138618	 1.2506117078	 3.1163162006	-0.41445
H	 1.0925513965	 1.8983299178	 0.1259282407	 0.121932
H	-0.2231608325	 1.8334585346	-1.065171832	 0.105295
H	-0.5971110978	 2.049360772	 0.6557089305	 0.126744
H	 0.6286659752	-0.4576960036	-0.6180865498	 0.081488
H	-0.0941893627	-0.0904264224	 2.0577294736	 0.289516
H	-1.8783470338	-0.1043808196	-0.9208202646	 0.064601
H	-0.9589753122	-2.4068384825	-0.937822473	 0.117838
H	-0.9439926764	-2.4410467632	 0.8367115876	 0.140541
H	-2.4860941367	-2.4271211192	-0.0535401035	 0.112715
H	-3.8606447731	 0.4835913645	 0.1029673155	 0.120704
H	-3.9238626714	-1.0378066011	 1.0033473796	 0.125581
H	-5.0488390713	 1.7517288907	 3.9446575989	 0.202825
