17
gdb 28674	3.37368	1.05274	0.83605	2.6755	80.94	-0.2064	0.0235	0.2299	1352.3404	0.136842	-380.933287	-380.924508	-380.923564	-380.967769	31.681	
C	 0.2674730407	 1.4045183205	 0.188961641	-0.50518
C	 0.0359881392	-0.051796723	-0.0437430808	 0.303346
C	-0.4250398189	-0.7321422388	-1.1489624646	-0.214527
C	-0.4273229646	-2.1218040094	-0.8403235887	-0.235429
C	 0.0271047484	-2.2555204571	 0.4498263037	 0.313478
C	 0.1750204242	-3.479110611	 1.3078683734	-0.452803
C	 1.3816060586	-3.446982473	 2.1404228794	 0.256719
N	 2.3186356471	-3.3753281445	 2.8130484554	-0.313056
N	 0.2963946477	-0.9928088599	 0.9260374414	-0.34046
H	 1.3189375522	 1.6262257568	 0.4101452266	 0.132265
H	-0.0078531237	 1.9701162655	-0.70387497	 0.13975
H	-0.330271974	 1.7906359127	 1.0238971113	 0.129185
H	-0.7249520356	-0.2776895912	-2.0810874093	 0.093751
H	-0.7335357048	-2.9307398374	-1.4864825468	 0.095286
H	-0.6841059882	-3.6176238771	 1.9802615133	 0.161753
H	 0.2100658777	-4.3653715703	 0.6666556224	 0.169405
H	 0.7150015537	-0.7983844427	 1.8210730024	 0.266517
