25
gdb 95830	2.79575	1.13699	0.8796	1.1334	89.33	-0.2412	0.0821	0.3233	1435.5473	0.229925	-389.509	-389.499306	-389.498362	-389.543168	37.664	
C	 0.1127491157	 1.6525565286	 0.0028941568	-0.405079
C	 0.0161911824	 0.120488314	-0.0122619493	 0.049928
C	 0.5342860559	-0.4595165884	-1.3415045971	-0.203751
C	-0.0337294255	-1.8404137158	-1.6923129239	-0.075222
O	 0.4390411591	-2.9206825893	-0.9172958175	-0.256133
C	 0.1169701198	-2.8986246533	 0.4717301809	 0.138582
C	 0.2430103593	-4.3411756551	 0.9538843842	-0.395172
C	 1.0647298063	-1.9578806927	 1.2370767215	-0.205776
C	 0.7102108854	-0.4559662779	 1.2420485664	-0.204346
H	 1.1511621688	 1.9797092506	-0.1284279132	 0.113192
H	-0.4817554646	 2.0978930474	-0.8016730878	 0.107695
H	-0.2453846008	 2.064695125	 0.9525375338	 0.109164
H	-1.0511599193	-0.1373472185	 0.0469654422	 0.06866
H	 0.2432344185	 0.215697011	-2.157542577	 0.089639
H	 1.6313601422	-0.4988566083	-1.3496477008	 0.098556
H	-1.1366269524	-1.7923598044	-1.6432350712	 0.078992
H	 0.2345815945	-2.0947839182	-2.7234193458	 0.100094
H	-0.9293958367	-2.5717084417	 0.5972101618	 0.060276
H	 1.2788156532	-4.6835061885	 0.8596771268	 0.121402
H	-0.055814898	-4.4282742553	 2.0027443898	 0.108872
H	-0.3890782747	-4.9989089279	 0.3517764709	 0.117856
H	 1.1403419882	-2.2946917814	 2.277625278	 0.090098
H	 2.0555413847	-2.1128045844	 0.7945444477	 0.1054
H	 1.6350748056	 0.1082588897	 1.4210249115	 0.092988
H	 0.0657259026	-0.2387252052	 2.103115541	 0.094086
