20
gdb 86274	1.84061	1.59461	1.15989	2.2875	80.29	-0.237	0.0274	0.2644	1185.5174	0.17058	-399.322908	-399.313071	-399.312126	-399.357147	36.651	
C	-0.5568874379	 1.0862192766	-1.4151233053	-0.412109
C	 0.28926957	-0.0877131089	-0.9594743597	 0.051945
N	 1.736680883	 0.0202347191	-1.2503969414	-0.335138
C	 2.0935236583	-0.5678289533	 0.0603470123	 0.051928
C	 3.2845247572	 0.0639626226	 0.7561266591	-0.412109
C	 0.6427567105	-0.2328942307	 0.5656467985	 0.094116
N	 0.569292692	 1.0294203003	 1.2892848275	-0.536432
C	-0.0414573838	-1.3293396995	 1.2598699897	 0.220856
N	-0.5898689063	-2.1709789238	 1.8345140909	-0.349588
H	-0.1512071753	 2.022916647	-1.0284366291	 0.143153
H	-0.5581669732	 1.1376190038	-2.5089686638	 0.122103
H	-1.5969236624	 0.9748167016	-1.0878675571	 0.115219
H	-0.1529449808	-1.0317928099	-1.3088323919	 0.079746
H	 2.0537875902	-0.5045014014	-2.0584567738	 0.219122
H	 2.2101987336	-1.6606002345	 0.0267336088	 0.079758
H	 3.1508798873	 1.144216361	 0.8378558192	 0.143138
H	 3.4318310979	-0.3633834448	 1.7545540231	 0.115232
H	 4.1941809525	-0.1271642084	 0.1772171266	 0.122112
H	-0.4018263724	 1.2920566731	 1.431889905	 0.243481
H	 0.9796344495	 0.9246672502	 2.2128762814	 0.243468
