19
gdb 70093	2.15829	1.91332	1.46181	1.726	75.43	-0.2436	-0.0046	0.2389	1000.3549	0.15698	-423.019425	-423.010491	-423.009547	-423.052176	34.723	
C	-0.0874438644	 1.4900714933	 0.0321440617	-0.487759
C	 0.1220383247	 0.0027825738	-0.0233853092	 0.390133
O	-0.4712937218	-0.7789054911	 1.0189175255	-0.304822
C	 0.9757537017	-0.7796258874	 0.8860618106	-0.075682
C	 1.4896054715	-1.9528521022	 0.1207566324	-0.092858
C	 0.9837655414	-1.9487858437	-1.1131834703	-0.128587
C	 0.0990366215	-0.7375232399	-1.3817284959	 0.275193
C	-1.3178264172	-1.1193047323	-1.8175201615	-0.440713
O	 0.701574961	 0.1476070562	-2.3321647485	-0.471016
H	 0.6452871548	 2.0044492357	-0.5930085688	 0.143588
H	-1.0858867249	 1.755815864	-0.332202358	 0.124072
H	 0.0016171505	 1.8407917616	 1.0632256681	 0.122615
H	 1.5115813253	-0.3500290729	 1.7272845959	 0.095038
H	 2.145527109	-2.7044686398	 0.5429434796	 0.106453
H	 1.1356495229	-2.7170143046	-1.8652659514	 0.095776
H	-1.8127790916	-1.7019150911	-1.037845294	 0.145299
H	-1.9046186478	-0.2176639296	-2.0185914253	 0.123326
H	-1.2922714384	-1.7204243946	-2.734398117	 0.101732
H	 0.6865079019	-0.2866054655	-3.1914892139	 0.278213
