13
gdb 48463	1.91652	1.70908	1.2924	3.4518	60.8	-0.2791	-0.0697	0.2094	1006.5635	0.086456	-493.727716	-493.719371	-493.718427	-493.761586	28.237	
O	-0.6461869814	 0.5998178344	 0.6693383665	-0.23507
C	 0.0743624844	 0.966481907	-0.2183458812	 0.121733
C	 1.2258298424	 1.9463197233	-0.0037528027	-0.104721
C	 1.4241800478	 2.4652865025	 1.4191140874	-0.131313
O	 2.6711623548	 1.6947403697	 1.5530224095	-0.227003
C	 2.5743605161	 1.1938496124	 0.2970230117	 0.448289
O	 3.2925543719	 0.4582860365	-0.287034575	-0.290519
C	 1.3583681	 2.9101789382	-1.167665641	 0.097879
O	 1.2009074734	 2.5750950616	-2.3107592196	-0.230474
H	-0.0288689571	 0.6280407113	-1.2650935432	 0.141316
H	 1.6259227259	 3.5335944256	 1.5185014061	 0.137146
H	 0.6792551661	 2.1223958671	 2.1357958399	 0.164498
H	 1.6221362555	 3.9520260603	-0.8863230382	 0.108239
