19
gdb 91891	2.38739	1.65272	1.09124	3.3525	76.55	-0.2155	-0.0156	0.2	1128.5408	0.160816	-419.191163	-419.183048	-419.182104	-419.223846	31.172	
C	-0.0318331791	 1.4522899116	 0.0370066149	-0.31487
N	 0.0158857382	 0.0009379452	 0.0142161028	-0.08371
C	 0.5127613764	-0.4998344387	-1.2637959246	-0.138395
C	 0.6534126197	-2.0152597768	-1.2874547238	-0.053751
N	 1.8738118827	-2.5526301885	-0.6890047509	-0.331999
C	 0.5702064321	-2.7930023797	-0.0138201219	-0.142735
C	 0.4089225914	-2.039444704	 1.26753576	 0.449265
O	 0.0264591266	-2.5687085905	 2.2846105413	-0.32494
C	 0.7304173231	-0.5527155241	 1.1660831272	-0.271937
H	 0.9654284824	 1.9245814277	-0.0495729087	 0.095544
H	-0.6471978207	 1.812690189	-0.7941355813	 0.118959
H	-0.4889231825	 1.7930409762	 0.9708105384	 0.123883
H	-0.1964660977	-0.1904842796	-2.0402535536	 0.105019
H	 1.4952555939	-0.0613449138	-1.5252909878	 0.091267
H	 0.2707638428	-2.5087123614	-2.17713516	 0.10055
H	 2.163704021	-3.4057576468	-1.1598044967	 0.242568
H	 0.1533978146	-3.7955412725	-0.0157746575	 0.101644
H	 1.8266169197	-0.4116721002	 1.1058636983	 0.111656
H	 0.3711609055	-0.074292783	 2.0797447836	 0.121978
