20
gdb 98442	2.57403	1.26536	1.08281	2.4354	76.12	-0.2315	0.0352	0.2667	1234.5133	0.16989	-440.309485	-440.299611	-440.298667	-440.344796	35.226	
C	 0.1857398326	 1.4665447402	 0.0956188149	-0.332883
N	 0.4129056613	 0.0421493942	-0.0219373359	-0.305508
C	 0.3342219892	-0.6199084474	-1.200583996	 0.337024
O	 0.0915325307	-0.107645046	-2.2819753536	-0.402933
C	 0.578220835	-2.1321801088	-1.0868037854	 0.334764
C	-0.6570315558	-2.8940308388	-1.5347860846	-0.436609
C	 1.9413094189	-2.5700834782	-1.6830691745	-0.313477
C	 2.3402032151	-2.8461770776	-0.2224952854	-0.07522
O	 1.01029266	-2.5228133665	 0.2515060305	-0.332778
H	 1.068049882	 1.9804945787	 0.4934554114	 0.124367
H	-0.0277669022	 1.8474833046	-0.9044126761	 0.167202
H	-0.6662886245	 1.6823380804	 0.7501094035	 0.126204
H	 0.6245899205	-0.5232929812	 0.7868118097	 0.259802
H	-0.9381030103	-2.5702940443	-2.5399466309	 0.149328
H	-0.4639793538	-3.9702782341	-1.5359737675	 0.1139
H	-1.4941094652	-2.6927474385	-0.858405341	 0.126035
H	 1.8770666074	-3.4574159	-2.3149564136	 0.114362
H	 2.4959375246	-1.7925316773	-2.2077640553	 0.129182
H	 2.6133390625	-3.8771697173	 0.0248718322	 0.111274
H	 3.0944529119	-2.1674375321	 0.1934537677	 0.105963
