15
gdb 44696	3.34982	1.42461	1.20517	2.9365	67.78	-0.2692	-0.0016	0.2676	1020.6343	0.114333	-453.957907	-453.950867	-453.949923	-453.989972	26.808	
N	-0.0552683562	 1.2089819026	-0.6492811644	-0.533021
C	-0.0187188422	 0.0701953608	-0.1362979189	 0.423357
O	 1.0220252348	-0.6447149074	 0.434040888	-0.266593
C	 0.1686253758	-1.8138834378	 0.6691287388	 0.080365
C	-0.1645720323	-2.0418205369	 2.1302502935	-0.324336
C	-1.4151161812	-1.2118749294	 2.3703469307	 0.402222
N	-1.9279806386	-0.967701438	 3.4922016066	-0.521669
O	-1.9404147105	-0.7924953761	 1.1664370845	-0.235643
C	-1.0407725189	-1.037105169	 0.0961541681	-0.037886
H	 0.854233095	 1.6730083254	-0.6127866185	 0.237413
H	 0.5493625707	-2.6768072749	 0.1240587109	 0.109973
H	-0.3869813524	-3.0955748766	 2.324783525	 0.146156
H	 0.6440424045	-1.7409296692	 2.7978715435	 0.161341
H	-2.7686596246	-0.3964705171	 3.3942190621	 0.233049
H	-1.590566314	-1.4051474164	-0.7689649799	 0.12527
