23
gdb 105092	2.34027	1.3023	1.10496	1.0922	86.27	-0.2225	0.0814	0.3039	1270.4689	0.20405	-388.248335	-388.238361	-388.237416	-388.283437	37.714	
C	 0.0233259962	 1.4307073488	 0.1382255048	-0.254537
O	 0.3576456533	 0.0637135196	 0.1015332442	-0.288168
C	 0.7648513665	-0.4995770795	-1.1225020745	 0.441074
C	 0.47690895	 0.15660009	-2.4513936019	-0.332705
C	 1.8970685429	 0.1133296675	-1.910115204	-0.328583
C	 0.7053848368	-2.0020596124	-1.0611606316	-0.054723
C	 0.6906604036	-2.7517761805	 0.2488918835	-0.308419
C	-0.5190772431	-2.7986450869	-0.6554164989	 0.005183
C	-1.8333038732	-2.1632799769	-0.2560436344	-0.414679
H	 0.8435246991	 2.0779115914	-0.2035088736	 0.111033
H	-0.8738773814	 1.6564860315	-0.4540063368	 0.113741
H	-0.1826560646	 1.6668175009	 1.1850883575	 0.129076
H	 0.2102289145	-0.4903404339	-3.280313002	 0.114852
H	-0.0100173455	 1.1242378578	-2.4769188012	 0.112745
H	 2.318062505	 1.050499417	-1.5624536616	 0.113479
H	 2.6207618006	-0.5510199285	-2.3697254698	 0.114237
H	 1.2933048946	-2.4537305658	-1.8554917206	 0.076453
H	 1.3133576146	-3.6342890873	 0.3506345111	 0.100311
H	 0.6086624619	-2.1487943337	 1.145498176	 0.125781
H	-0.637636816	-3.7259079493	-1.2123084092	 0.07513
H	-1.6705479464	-1.2482522365	 0.3153083221	 0.133755
H	-2.4350758928	-1.9098148874	-1.1366610216	 0.107271
H	-2.4241468064	-2.8518946658	 0.3589150524	 0.107694
