17
gdb 106950	4.15822	1.10115	0.98342	2.5765	68.37	-0.2483	0.0096	0.2578	1186.7599	0.137889	-455.155303	-455.147129	-455.146185	-455.188443	30.596	
O	 0.0533379595	 1.3516964832	-0.4047096737	-0.417325
C	 0.0563285159	 0.0376306227	 0.1310759407	-0.144321
C	-1.3411052611	-0.5169034101	 0.222680766	 0.309039
C	-2.337876303	 0.1242260378	 1.1898059958	-0.234779
N	-3.312040288	-0.9331177625	 1.4057004549	-0.340964
C	-2.9237294696	-2.1799905651	 0.9688116583	 0.431173
O	-3.464393301	-3.2314317762	 1.2261294236	-0.376299
C	-1.7062759757	-1.9570672333	 0.0971840378	-0.220867
N	-1.8967307885	-1.0237516254	-1.0353745393	-0.37377
H	-0.2858806198	 1.2810330807	-1.3044084142	 0.292445
H	 0.6748135454	-0.6451530287	-0.4677220199	 0.10473
H	 0.503028389	 0.1163137498	 1.1278384014	 0.113334
H	-1.8295375356	 0.4108137173	 2.1204930213	 0.120067
H	-2.7954094011	 1.027015814	 0.7686561559	 0.124429
H	-4.1048224517	-0.8373631927	 2.0196179737	 0.256736
H	-1.014486421	-2.7767956234	-0.0536932083	 0.115306
H	-2.8827977139	-0.7851234682	-1.128872734	 0.241067
