20
gdb 85183	2.19635	1.41772	0.91702	2.5015	81.14	-0.2281	-0.0208	0.2073	1299.4646	0.169513	-403.124233	-403.115144	-403.1142	-403.158542	33.64	
C	-0.0353232948	 1.4877628716	 0.2062938775	-0.329477
N	-0.0018543725	 0.0457154065	 0.0923615023	-0.086455
C	-1.2701540158	-0.695746872	 0.2520415397	-0.290566
C	-0.4907208352	-1.7179573165	 1.0917695324	 0.377054
O	-0.6926195824	-2.8230156501	 1.4940696968	-0.288381
C	 0.6905697253	-0.7260368415	 1.15751088	-0.08644
C	 2.0854977123	-1.1968915544	 0.8664970382	 0.025595
C	 3.2787645688	-0.3871890082	 1.3225890324	-0.277219
C	 2.9550544414	-1.6953317943	 1.9938565219	-0.261118
H	 0.9822657504	 1.8857909344	 0.1502155885	 0.130153
H	-0.6073786313	 1.9153994568	-0.6232940479	 0.125444
H	-0.4917183133	 1.8378804559	 1.1526891246	 0.091633
H	-2.0305764245	-0.1792134237	 0.863579114	 0.110538
H	-1.7376643586	-1.0438013052	-0.6751003109	 0.130169
H	 0.6640526451	-0.2117431365	 2.1383489367	 0.075376
H	 2.1835595088	-1.7058539884	-0.0872396778	 0.090611
H	 4.1410298745	-0.3406637278	 0.6671800804	 0.116486
H	 3.0908231973	 0.5275051621	 1.8756308764	 0.110354
H	 2.5473951615	-1.6661055137	 2.9986735553	 0.117577
H	 3.5925206533	-2.5502580251	 1.8010876394	 0.118668
