19
gdb 14779	15.31354	0.55896	0.54667	4.3399	72.51	-0.2586	0.0219	0.2805	1983.0659	0.163279	-402.181014	-402.170958	-402.170013	-402.21813	32.681	
C	 0.0226622384	 1.3405182266	 0.0088796919	-0.229791
O	-0.0034993354	-0.0663827076	 0.0016595225	-0.22826
C	-1.3105173985	-0.5914574336	 0.0111644817	-0.05204
C	-1.212239416	-2.1116846353	 0.0021990035	-0.211226
C	-2.579802391	-2.7759325521	 0.0117620135	-0.075127
O	-2.3762609626	-4.1904859372	 0.0026293634	-0.181605
C	-3.4870049834	-4.9499591639	 0.0095286191	 0.129984
N	-3.3935137219	-6.2087626283	 0.0023967054	-0.437564
H	 1.0709535849	 1.6481024356	 0.0007046409	 0.130288
H	-0.4790738729	 1.7641286811	-0.8759381802	 0.103757
H	-0.4623818267	 1.7546621489	 0.9073815386	 0.103756
H	-1.8589476323	-0.2427671932	 0.9047519468	 0.084802
H	-1.8755938595	-0.2334151987	-0.8682415139	 0.084805
H	-0.6588442509	-2.4337905127	-0.8854933641	 0.126801
H	-0.6420126481	-2.4431094907	 0.8756904426	 0.12681
H	-3.1486853253	-2.4869530455	 0.9070026782	 0.107613
H	-3.1654824154	-2.4779202882	-0.8695783816	 0.107618
H	-4.4193604752	-4.3668565464	 0.0216382951	 0.081265
H	-4.3227686281	-6.6242328888	 0.0094708764	 0.228113
