16
gdb 48534	3.12704	1.49984	1.4694	2.6824	74.29	-0.2395	-0.0395	0.2	954.7505	0.125371	-400.709418	-400.702546	-400.701602	-400.740814	27.074	
O	-0.275155959	 0.1580178716	-0.3998410502	-0.264621
C	-0.0207563499	 1.2457778473	 0.0584604467	 0.037788
C	 1.3277768696	 1.8294461016	 0.1025957016	 0.276312
C	 1.8994114164	 2.6854622933	 1.1862782053	-0.104388
C	 3.2679284207	 2.1834699276	 1.4822531091	-0.081114
C	 3.6778854483	 1.388953016	 0.485584207	-0.087642
C	 2.6382699846	 1.3992356281	-0.6070415338	-0.188222
C	 2.617986951	 2.8724976034	-1.152601323	-0.143308
N	 1.5824947257	 3.3018064154	-0.1604356705	-0.195358
H	-0.8066321779	 1.9103905555	 0.4824978691	 0.08188
H	 1.2606117392	 3.1032129798	 1.9555696473	 0.109974
H	 3.8308577927	 2.4844431226	 2.3558087863	 0.110202
H	 4.6609019557	 0.9488020476	 0.3730331106	 0.110809
H	 2.6252852761	 0.5785410581	-1.319165411	 0.100831
H	 3.5556129423	 3.4351002704	-1.123082088	 0.109836
H	 2.1599177844	 2.9413495917	-2.1409045265	 0.127021
