16
gdb 68806	2.8907	1.33514	1.10995	4.0029	70.23	-0.2526	-0.002	0.2506	1112.7987	0.122188	-437.851325	-437.842687	-437.841743	-437.884432	32.096	
C	-0.0728764362	 1.5063409192	 0.049739331	-0.493932
C	 0.0507898662	 0.0214816181	 0.0792699951	 0.412184
C	 1.2344657672	-0.815452981	-0.3401455765	-0.406929
C	 0.6339087482	-0.9878752249	 1.0388830448	 0.262776
O	 1.3012710282	-0.8132368921	 2.2244079267	-0.450243
C	-0.7193767857	-1.7066572374	 0.9116115956	-0.073645
O	-1.1559284016	-0.7562755015	-0.0904381983	-0.320282
C	-0.7284243	-3.094743874	 0.4475189012	 0.272585
N	-0.7000676314	-4.1954105026	 0.0959241321	-0.322071
H	 0.8802495742	 1.9692386627	 0.3190897341	 0.136787
H	-0.348000152	 1.850266642	-0.9530434751	 0.141469
H	-0.838854291	 1.8459796184	 0.7528137834	 0.138151
H	 1.1320235923	-1.5788444451	-1.1065418773	 0.137592
H	 2.183035553	-0.2867805714	-0.3245159352	 0.126889
H	 2.0317125973	-1.4412905776	 2.266461766	 0.30067
H	-1.3193420087	-1.6121175227	 1.8235746425	 0.138001
