18
gdb 22811	2.27639	1.55499	0.95257	1.1495	80.89	-0.2259	-0.0278	0.1981	1211.6549	0.147384	-439.056743	-439.048095	-439.047151	-439.089952	32.558	
C	 0.0861500412	 1.5017476453	 0.0742263009	-0.481083
C	 0.0360085966	-0.0004171547	 0.0199396847	 0.261847
C	-0.0958898879	-0.6914856786	-1.1220305857	-0.173447
C	-0.0907140195	-2.1926179642	-1.1627458828	-0.130741
O	 0.5141901664	-2.7657912573	-0.0224241478	-0.243045
C	-0.0026850496	-2.2660287336	 1.1930843973	-0.180267
C	 0.0896240906	-0.7561498268	 1.2757767953	 0.282686
N	 0.1537161085	-0.0953028292	 2.3747756211	-0.204436
O	 0.1321736417	-0.9433698193	 3.4910544025	-0.392702
H	 1.0241135499	 1.8453619033	 0.5224302821	 0.137572
H	 0.0001184424	 1.9290508678	-0.9279096905	 0.11244
H	-0.7180997152	 1.899538958	 0.7011353495	 0.136284
H	-0.209603887	-0.1712631516	-2.0695467587	 0.095541
H	-1.1225212999	-2.5741215167	-1.2913048642	 0.099098
H	 0.4858816232	-2.5502264524	-2.0230732387	 0.12093
H	-1.0554508682	-2.570511813	 1.3340529583	 0.107525
H	 0.5793621508	-2.7207971397	 1.9958416308	 0.142673
H	 0.2239365659	-0.3220663576	 4.2209929259	 0.309125
