18
gdb 104841	2.35442	1.28547	1.1977	1.5973	68.64	-0.2495	-0.0346	0.2149	1135.1603	0.147304	-476.203243	-476.194208	-476.193264	-476.23728	33.216	
O	 0.0726458628	 1.435060375	-0.0253822054	-0.422948
C	 0.0765147381	 0.0608557983	 0.3533023097	-0.103704
C	-1.3165139392	-0.537658467	 0.1229113653	 0.129352
C	-2.3596145365	 0.0422741042	 1.095880359	-0.108362
O	-2.6641326224	 1.3844000659	 0.7710206428	-0.426756
N	-1.7125744375	-0.3947148695	-1.3160923564	-0.370548
C	-1.9556382366	-1.858330141	-1.4725382249	-0.286554
C	-1.3915922297	-2.0644414985	-0.0582311746	 0.336311
O	-1.1056406595	-3.0063003226	 0.6183811918	-0.289508
H	-0.1720739909	 1.4339910124	-0.9618775039	 0.296349
H	 0.8302680224	-0.4963436252	-0.2188387749	 0.103959
H	 0.3515104852	 0.0201108763	 1.4111162408	 0.126017
H	-3.3005297004	-0.5153186544	 1.0239498444	 0.10655
H	-1.9914800974	-0.0655015011	 2.1277643132	 0.106595
H	-1.8155103464	 1.8461854318	 0.6938085543	 0.29234
H	-2.5506783362	 0.1710018258	-1.4065020687	 0.236801
H	-3.0070199232	-2.1585947864	-1.5640977728	 0.134819
H	-1.3882463226	-2.328142414	-2.2829446398	 0.139286
