18
gdb 23446	3.48763	1.18353	1.05267	0.7972	75.12	-0.2457	-0.001	0.2447	1167.7802	0.148376	-439.037868	-439.029986	-439.029042	-439.070639	30.363	
O	-0.1021054972	 1.3674885528	 0.0456395806	-0.391601
N	 0.0449656815	-0.0226851472	 0.2062062533	-0.241731
C	-1.0399837338	-0.6257143494	-0.0439222328	 0.413956
C	-2.4457476365	-0.2326134186	-0.4491601275	-0.353007
C	-2.8157248194	-1.7540896556	-0.4317873251	 0.108273
O	-3.0414361384	-2.352228539	-1.6897620839	-0.254327
C	-1.7774602467	-2.5971978381	-2.3041959718	-0.093914
C	-0.8229153799	-2.9678470485	-1.1569565743	-0.229931
C	-1.3478575187	-2.1115065056	 0.0073304776	-0.14563
H	 0.7765171245	 1.6920522682	 0.2705685155	 0.306339
H	-2.9683976955	 0.3812158689	 0.2908571627	 0.127147
H	-2.5400706547	 0.2518254742	-1.4254928854	 0.132364
H	-3.6403197939	-2.0291141942	 0.227252917	 0.085979
H	-1.9159166823	-3.3937056099	-3.0393106472	 0.112973
H	-1.4206006716	-1.7005462138	-2.8337381461	 0.100743
H	-0.9248518129	-4.0282071153	-0.9068994185	 0.110044
H	 0.2238744019	-2.7656677729	-1.3936654077	 0.119564
H	-1.2073608965	-2.5797296461	 0.9832151137	 0.09276
