18
gdb 44436	3.02568	1.79979	1.60014	3.2702	75.53	-0.2383	0.0347	0.273	906.7651	0.152135	-401.973084	-401.966715	-401.965771	-402.003604	26.906	
N	-0.052792394	 1.2823077822	-0.2671362873	-0.549227
C	-0.0226388061	 0.049248362	 0.0143997574	 0.420927
O	 1.1428614471	-0.61283499	 0.3007220801	-0.253996
C	 1.029399831	-1.9940347234	 0.5987692791	 0.108507
C	 0.018946812	-2.8448455629	-0.1181927405	-0.095499
C	-1.0098198384	-2.0296955752	-0.8847484961	-0.233245
C	-1.2434207802	-0.830032209	 0.0690632355	-0.124685
C	-1.2863560466	-1.4995697661	 1.4667023897	-0.233246
C	-0.1555676364	-2.5102929497	 1.3657515098	-0.095499
H	 0.8925457997	 1.6718980233	-0.2437959716	 0.216447
H	 2.0144625469	-2.3925969372	 0.8044707666	 0.109904
H	 0.3011110886	-3.8339417355	-0.4595089578	 0.090392
H	-0.6639563108	-1.7106653195	-1.8728252396	 0.117335
H	-1.9360096041	-2.5992817882	-1.017266142	 0.106776
H	-2.121552302	-0.2327882232	-0.1688529727	 0.100606
H	-1.1518770223	-0.7753137768	 2.27606379	 0.117335
H	-2.2461272306	-2.004780528	 1.6197327503	 0.106776
H	-0.0053925438	-3.2463464428	 2.1468388992	 0.090392
