15
gdb 45632	5.8465	0.88824	0.77849	5.399	73.22	-0.2461	-0.0164	0.2297	1370.0533	0.113519	-413.025819	-413.017481	-413.016537	-413.059785	29.707	
N	-0.0148368702	 1.31497697	 0.0071706538	-0.543054
C	 0.0131013953	 0.0481786126	 0.0007405261	 0.384805
C	-1.1910537213	-0.8911734806	 0.0030492012	-0.239127
N	-0.6587090438	-2.2594482174	-0.0066576852	-0.280337
C	 0.6097198993	-2.1451435638	-0.0133923295	 0.410235
C	 1.5958705165	-3.2832864411	-0.0244108434	-0.480333
C	 0.9701254558	-4.6023541663	-0.0282629459	 0.310303
N	 0.531584016	-5.6696064682	-0.0319877017	-0.295849
N	 1.096669897	-0.8397279687	-0.0099026751	-0.393155
H	 0.9201008938	 1.7253572183	 0.0038037987	 0.210596
H	-1.8161895365	-0.7290908202	 0.8872520098	 0.153966
H	-1.8262299251	-0.7205346966	-0.8723443084	 0.15397
H	 2.245710159	-3.1964320807	-0.9051750027	 0.174746
H	 2.2545017382	-3.2057844302	 0.8506797211	 0.17478
H	 2.064899656	-0.5653688072	-0.0138356087	 0.258454
