19
gdb 35042	2.54558	1.40344	1.39338	0.877	86.46	-0.2266	0.0167	0.2434	1073.2466	0.160467	-348.723618	-348.715613	-348.714668	-348.756068	31.825	
C	-0.0999473288	-1.2513163111	-0.0366467108	-0.476996
C	-0.0497966908	-0.0488518926	-0.0172507663	 0.361166
C	-0.0123898128	 1.3811173982	 0.0020656672	-0.23123
C	 0.4877927137	 2.1516054884	 1.2287932606	-0.057644
C	 1.0368374168	 1.4034616752	 2.440573824	-0.235048
C	 2.5770180506	 1.4363504996	 2.5099471396	-0.252019
C	 3.2112742715	 1.1465747278	 1.1707117629	-0.048855
C	 2.6227933345	 1.4602617464	 0.0161594289	-0.064374
C	 1.313262663	 2.1554208711	-0.0260104779	-0.083871
H	-0.1390262625	-2.3117706496	-0.0630198614	 0.193009
H	-0.8265110363	 1.8559587526	-0.5387083804	 0.109236
H	-0.0735075808	 3.054822624	 1.444479067	 0.088857
H	 0.6125534995	 1.8277632764	 3.3558589884	 0.094706
H	 0.7137581554	 0.3579879167	 2.4004490662	 0.122782
H	 2.920502958	 2.417623131	 2.8698930315	 0.109172
H	 2.9250364579	 0.711345063	 3.254168161	 0.10206
H	 4.1870859698	 0.6680231256	 1.168210265	 0.087456
H	 3.1018592651	 1.2309543776	-0.9318465998	 0.087356
H	 1.2816726562	 3.0490139297	-0.6445149256	 0.094238
