16
gdb 30075	3.32496	1.1725	0.897	3.3084	74.06	-0.2126	-0.0066	0.206	1243.9866	0.123997	-437.935629	-437.927022	-437.926077	-437.96999	30.222	
C	 0.0841658751	 1.3522731586	 0.2629495447	-0.348244
N	-0.0253326231	-0.0829806127	 0.0866498288	-0.046455
C	 0.0250089985	-0.7646001394	-1.1097282445	-0.100951
C	-0.0427553716	-2.1112851082	-0.8491589333	-0.150365
C	-0.1442851387	-2.2744482702	 0.5623084619	-0.273774
C	-0.1248456051	-1.0078239498	 1.0928715537	 0.353454
O	-0.2211272737	-0.561873741	 2.3861211767	-0.220423
C	 0.6871929064	-1.0458413489	 3.2870315234	 0.155718
O	 0.6284678295	-0.7762104251	 4.4441113051	-0.255849
H	 1.129922509	 1.6721651508	 0.33354867	 0.14146
H	-0.3813956158	 1.8563368461	-0.5865057924	 0.144577
H	-0.4338296629	 1.6471202355	 1.176341527	 0.16417
H	 0.0954373764	-0.2230988706	-2.0393552247	 0.120488
H	-0.04048035	-2.8986018515	-1.5865371651	 0.103605
H	-0.254981895	-3.192901962	 1.1162213247	 0.10991
H	 1.4364433611	-1.6949115615	 2.8014979141	 0.102679
