22
gdb 123072	4.56439	0.48283	0.44268	2.1473	84.71	-0.2454	0.0262	0.2716	2466.9553	0.191109	-441.460839	-441.449335	-441.448391	-441.499406	38.15	
C	 0.2170518083	 1.0192360044	 0.2073843116	-0.228008
O	-0.160675411	-0.2854976048	 0.5724115015	-0.233002
C	-1.3061690178	-0.7383720171	-0.1161689412	-0.058811
C	-1.6270748438	-2.1522688108	 0.3501060688	-0.216851
C	-2.8671074066	-2.7129829306	-0.358936173	-0.128406
N	-3.3174522405	-4.0543337848	-0.0341833698	-0.234414
C	-2.7079961119	-4.7530831312	 0.8135425094	 0.132078
O	-3.1479505091	-5.9991452182	 1.0992980677	-0.196543
C	-2.3893913438	-6.7057036243	 2.0710650371	-0.25143
H	 1.1054364542	 1.2786163722	 0.7885755325	 0.125947
H	 0.4611179654	 1.0911349914	-0.8648162329	 0.1027
H	-0.5761389979	 1.7524450422	 0.4255732247	 0.102698
H	-2.1604786538	-0.0656553167	 0.0773049618	 0.085796
H	-1.1290304797	-0.7230370538	-1.2062187472	 0.085798
H	-0.7525693392	-2.785613339	 0.1589773314	 0.10846
H	-1.7784210846	-2.1316130552	 1.4359609173	 0.10846
H	-3.7182445439	-2.0399928762	-0.1830382762	 0.111638
H	-2.7040361052	-2.686285134	-1.4456629011	 0.111621
H	-1.8152421251	-4.4583735733	 1.3806107636	 0.077796
H	-2.8674310148	-7.6793125785	 2.1862812036	 0.144738
H	-1.3519698893	-6.8536753283	 1.7456524166	 0.12487
H	-2.3915702901	-6.1901029934	 3.0396676037	 0.124865
