18
gdb 95869	2.45418	1.34063	1.09965	3.2119	71.43	-0.2755	0.0158	0.2914	1147.9095	0.148811	-439.102001	-439.093624	-439.09268	-439.134941	31.747	
O	-0.0939918021	 1.4776625741	 0.0738294315	-0.434565
C	 0.0421053835	 0.0664529229	 0.0422272102	 0.11544
C	 0.7470945628	-0.4875665157	 1.287170886	-0.23506
C	 0.6851201668	-2.01597815	 1.3007615023	-0.096079
O	-0.6610731193	-2.4859597344	 1.2222385525	-0.241722
C	-1.3477511935	-2.0453663686	 0.069082145	-0.043754
C	-1.370646585	-0.5090553461	-0.0420705935	-0.217738
C	-0.785429688	-2.6661725121	-1.1568749921	 0.273636
N	-0.3391698549	-3.1495844664	-2.1070703213	-0.332248
H	 0.7875675752	 1.8643145565	 0.0871827028	 0.283916
H	 0.6033692616	-0.2454348957	-0.8540583167	 0.08771
H	 1.7950277884	-0.1637354147	 1.3145684322	 0.094854
H	 0.2498655641	-0.0869182023	 2.1779121768	 0.116164
H	 1.2745073977	-2.4354276755	 0.4714273124	 0.117215
H	 1.0797473301	-2.4238983979	 2.2339207618	 0.122507
H	-2.3707976811	-2.4193976187	 0.1766221375	 0.138645
H	-1.9593885819	-0.121277626	 0.7955299425	 0.123742
H	-1.8584374642	-0.2001624393	-0.9708181097	 0.127335
