14
gdb 124231	5.0109	1.01012	1.00645	2.3988	63.91	-0.2823	-0.0278	0.2546	1196.6262	0.101569	-466.169945	-466.161988	-466.161043	-466.203832	27.612	
C	-0.2753991452	 1.3962615872	-0.0280777063	-0.465897
C	 0.2166831553	-0.0207935657	 0.0214024196	 0.38462
N	 1.1260921267	-0.5545773312	 0.7097056953	-0.488584
O	-0.5091569565	-0.7819585226	-0.8743729283	-0.265794
C	-0.2580666281	-2.106639246	-0.9201937341	 0.53188
N	 0.5620193391	-2.6566436147	-1.8020163833	-0.273438
N	 0.3968549156	-3.9379882741	-1.5021801733	-0.058627
N	-0.4596699011	-4.1786664808	-0.5204994084	-0.098074
N	-0.892506469	-3.0057735638	-0.1358428275	-0.255584
H	 0.2960257401	 2.0280009894	 0.6528371962	 0.134604
H	-0.1879405782	 1.7884595248	-1.0457058753	 0.156733
H	-1.3341416424	 1.43398061	 0.2454211349	 0.159238
H	 1.5696061707	 0.1262172469	 1.3214175941	 0.232997
H	 0.8803437431	-4.6779900893	-1.9888105637	 0.305927
