25
gdb 121110	3.80685	0.72088	0.67962	1.678	88.84	-0.2541	0.0656	0.3197	1796.5799	0.229361	-389.51391	-389.503656	-389.502712	-389.550028	38.398	
C	-0.046922782	 1.5936389988	 0.0251845072	-0.379727
C	 0.0674183302	 0.0675235677	-0.0247046665	-0.169018
C	 0.7387707568	-0.5245190197	 1.2203155445	-0.186083
C	 0.830653952	-2.0534766095	 1.2281843509	 0.054416
C	 1.70695464	-2.6746759256	 0.1192839085	-0.222394
C	 1.9913706121	-4.0877581944	 0.6487327587	-0.233091
C	 2.2795814102	-3.875489111	 2.1495034759	 0.147314
O	 3.6679224035	-3.6864937093	 2.4138852301	-0.439676
C	 1.4247076121	-2.6353370455	 2.5398272735	-0.267289
H	 0.9403187582	 2.0621371087	 0.1071555083	 0.11286
H	-0.5282778226	 1.9888912094	-0.874869243	 0.110598
H	-0.6375371248	 1.9190370153	 0.8889861681	 0.113398
H	-0.9329389994	-0.3716965851	-0.1375503477	 0.093334
H	 0.6290307194	-0.2250688759	-0.920676919	 0.097896
H	 1.7507751777	-0.1052295494	 1.3234117686	 0.083774
H	 0.1871364906	-0.1956675177	 2.1121187136	 0.091269
H	-0.1849898253	-2.4556568931	 1.1033652124	 0.066743
H	 1.2295185737	-2.6705060443	-0.8641032835	 0.09805
H	 2.6430967881	-2.1046028939	 0.0185417835	 0.081849
H	 1.0940586645	-4.7077277279	 0.5289452988	 0.094876
H	 2.8198653105	-4.6026798918	 0.1554532075	 0.099411
H	 2.0162858055	-4.7567536561	 2.7399930393	 0.080494
H	 3.9605125903	-2.9111016994	 1.923288795	 0.273498
H	 2.0814271153	-1.9094958881	 3.0329863559	 0.09792
H	 0.6418825633	-2.8858807223	 3.2616417696	 0.099579
