19
gdb 29699	2.44056	1.53219	0.95684	0.4456	80.66	-0.1647	0.0616	0.2263	1232.2972	0.158139	-419.238552	-419.228063	-419.227119	-419.274502	36.768	
C	-0.0761057904	 1.457186947	 0.0301345808	-0.338608
N	 0.0013457319	 0.0127382931	-0.0032820151	-0.061518
C	 0.024933183	-0.7896983617	-1.1418805642	 0.229211
N	-0.059578163	-0.179493358	-2.4149979463	-0.607293
C	 0.0793653681	-2.0970476393	-0.728607589	-0.311404
C	 0.096771219	-2.1221151507	 0.7047462044	 0.155701
C	 0.1503419912	-3.3242964485	 1.5980285235	-0.5127
C	 0.0544633386	-0.8032918176	 1.0930417314	 0.273813
O	 0.0627356583	-0.2004837122	 2.3162068472	-0.448461
H	 0.8819008499	 1.9079019162	 0.3142195714	 0.126982
H	-0.3500399466	 1.7971118673	-0.9690557461	 0.152996
H	-0.8319137811	 1.7778499735	 0.7517050017	 0.138072
H	 0.8482360782	-0.0790109875	-2.8603100847	 0.23913
H	-0.6447488972	-0.722754125	-3.0381207588	 0.242981
H	 0.1123470153	-2.9591076355	-1.3792164893	 0.076966
H	 0.9218687399	-4.0329464132	 1.2755063481	 0.126342
H	 0.3924180013	-3.0544573369	 2.6340568015	 0.092827
H	-0.798918931	-3.8750662496	 1.6268418323	 0.123538
H	 0.0278661445	-0.8897323215	 2.986231871	 0.301425
