19
gdb 113763	3.7941	0.80755	0.74964	1.847	73.57	-0.2708	-0.0422	0.2287	1561.2231	0.156152	-460.150011	-460.140169	-460.139225	-460.185914	34.851	
C	 0.6385106152	 1.4851765599	 0.2103113809	-0.378898
C	-0.2325915071	 0.262824856	-0.1074464848	-0.215685
C	 0.2177406526	-0.4299790195	-1.3689029334	 0.085135
O	 1.4221094652	-1.2148573114	-1.3076620717	-0.269135
C	 0.194360051	-1.8802650965	-1.6146467374	 0.015076
C	-0.2869339822	-2.9178221788	-0.6090836557	 0.01309
O	-1.593345207	-3.318023031	-0.9111481016	-0.430684
C	 0.6534987429	-4.1114017359	-0.6303757345	 0.133291
O	 0.246038506	-5.2246735249	-0.8606170379	-0.261354
H	 1.6819577557	 1.1884477503	 0.351959627	 0.134151
H	 0.6056584209	 2.217634225	-0.6033979936	 0.118843
H	 0.2976607117	 1.982766635	 1.122563384	 0.117956
H	-0.2095311065	-0.4332577967	 0.7361856018	 0.1068
H	-1.2782791495	 0.5678916773	-0.2396133246	 0.113519
H	 0.1709011698	 0.1986053547	-2.2616354912	 0.0952
H	 0.0998357714	-2.2199405313	-2.6478812112	 0.103569
H	-0.2206101423	-2.4920205686	 0.4056444142	 0.099186
H	-1.5480611992	-4.2814683771	-1.0272750792	 0.297371
H	 1.7198937513	-3.8995956665	-0.4269272413	 0.122567
