21
gdb 86778	2.76588	1.05165	0.94294	1.4031	84.4	-0.2521	0.0609	0.313	1352.0229	0.180441	-387.046422	-387.036513	-387.035569	-387.081087	37.347	
C	-0.6090932872	 1.3767733447	-0.1870788456	-0.413044
C	-0.0460749034	-0.034121014	-0.10396584	 0.012331
C	 1.3073822463	-0.3600197125	-0.7932560437	 0.10615
O	 2.1181097813	 0.8054883506	-0.8226675893	-0.42904
C	 1.6354794285	-1.3126835276	 0.388894899	-0.257438
C	 0.5310372786	-0.612790321	 1.2326329148	-0.003226
C	 1.0772733542	 0.4343462442	 2.2200717441	-0.378642
C	 1.7736578102	-0.1793864343	 3.3453165557	 0.296347
C	 2.3455812933	-0.7120491109	 4.2592810595	-0.439491
H	 0.1301990194	 2.1257089623	 0.1037620369	 0.134627
H	-0.9223326336	 1.6066460528	-1.2110476517	 0.112625
H	-1.4869544601	 1.485690345	 0.4593872812	 0.109998
H	-0.7904994272	-0.7445852852	-0.480710428	 0.073485
H	 1.2496199655	-0.8125001605	-1.7927618099	 0.058633
H	 3.0181127309	 0.5340998197	-1.0301883815	 0.284203
H	 1.3929483643	-2.3540263218	 0.1602905357	 0.098711
H	 2.6557187424	-1.2662880519	 0.7806190855	 0.101155
H	-0.1413661805	-1.2865163265	 1.7702019306	 0.073397
H	 1.7585186375	 1.1096464445	 1.6904354764	 0.144476
H	 0.2525203266	 1.0531986987	 2.5961610589	 0.12488
H	 2.8503190732	-1.1680513765	 5.0742204515	 0.189865
