19
gdb 65103	3.17636	1.38819	1.15162	2.3061	75.16	-0.2481	0.0685	0.3167	1118.4548	0.157649	-422.969748	-422.961356	-422.960412	-423.0028	32.275	
C	 0.2695329965	 1.3650739784	-0.7243655775	-0.48527
C	 0.0315516415	 0.0055991828	-0.1058415613	 0.266424
C	 1.1480795753	-0.9366084327	 0.0849816789	-0.219536
O	 0.6148143646	-0.1949852246	 1.1862235094	-0.271934
C	-1.3549690858	-0.5385750478	-0.2312219381	 0.4176
C	-2.4273546801	-0.2642760664	-1.3071161092	-0.312929
C	-3.5231678073	-0.5204270575	-0.2119679304	-0.241698
C	-2.3925165146	-0.7785207927	 0.7917999347	-0.039591
O	-1.6073017851	-1.8563555344	 0.2634841642	-0.291225
H	 1.2917785665	 1.6920852752	-0.521937627	 0.1319
H	 0.1186208346	 1.3374775419	-1.8082938578	 0.126765
H	-0.4164389212	 2.1089887411	-0.3051776814	 0.127391
H	 0.9403587314	-2.003425697	 0.1068060966	 0.129918
H	 2.1507164484	-0.6485705035	-0.2297434312	 0.1078
H	-2.434217214	 0.7667113552	-1.6669808478	 0.109218
H	-2.4075844269	-0.9488137401	-2.1582497553	 0.109565
H	-4.1065560205	 0.3753514532	 0.013092715	 0.10751
H	-4.1968904643	-1.3646063232	-0.375049843	 0.113836
H	-2.3623849891	-0.6314023677	 1.8646804312	 0.114255
