23
gdb 103561	2.21552	1.19687	1.10265	2.8987	85.85	-0.234	-0.0121	0.2219	1306.4016	0.202974	-388.314672	-388.304269	-388.303324	-388.349714	38.925	
C	-0.0103044	 1.6625812164	 0.0716029477	-0.397143
C	-0.1045421925	 0.1387815702	-0.0693291364	-0.220628
C	 0.7042076265	-0.4606315611	-1.2327586504	 0.311871
C	 0.294268228	 0.1106322534	-2.5882297494	-0.466757
C	 2.245133747	-0.4466834148	-0.9279285337	-0.387626
C	 2.1151615728	-1.9168378626	-0.5121868157	 0.392058
O	 2.7680460087	-2.6490423844	 0.1761611092	-0.305358
C	 0.7401993624	-2.0435332836	-1.175792935	-0.12639
C	-0.3372239151	-2.8868183035	-0.5086196666	-0.419581
H	 1.0290717456	 1.9973776561	 0.1581127395	 0.118638
H	-0.4552087879	 2.1802436115	-0.7833004335	 0.120687
H	-0.5393761788	 1.997759168	 0.9688365601	 0.116801
H	 0.2306448648	-0.3219268881	 0.8691833349	 0.10142
H	-1.157811713	-0.1470440011	-0.1850387508	 0.09842
H	 0.4803992376	 1.1872435919	-2.6503303519	 0.12125
H	 0.8555151909	-0.3667698782	-3.3986406524	 0.110555
H	-0.7727714715	-0.0532393025	-2.7801713043	 0.115437
H	 2.8594986093	-0.3356167915	-1.8280891692	 0.121421
H	 2.6174080516	 0.2419476339	-0.1652662185	 0.12322
H	 0.9113658049	-2.409954447	-2.1982759899	 0.095925
H	-0.5326439692	-2.5626194793	 0.516895655	 0.12482
H	-1.2796351093	-2.8474804826	-1.06445261	 0.11723
H	-0.014944073	-3.9315575111	-0.4659642286	 0.13373
