16
gdb 29613	2.99048	1.30171	0.9104	3.6053	75.01	-0.1947	0.0198	0.2146	1217.0527	0.126354	-434.083748	-434.07541	-434.074465	-434.116891	31.084	
N	 0.2358813532	 1.4089856029	 0.053738154	-0.625594
C	 0.0319878039	 0.0069426527	-0.0149162523	 0.067215
C	-1.1060490666	-0.7387458422	-0.0220676807	-0.053425
O	-0.8055889279	-2.0626049869	-0.0313301942	-0.155714
C	 0.556219456	-2.1800611753	-0.0408614261	-0.076404
C	 1.1183624432	-0.9386015276	-0.0183442859	 0.288495
N	 2.4468312977	-0.5290306772	 0.0201729507	-0.400465
C	 3.5412802218	-1.3478785854	 0.0350410326	 0.073916
N	 3.4555172011	-2.6179552174	-0.0705284888	-0.461501
H	 0.4517615221	 1.800923624	-0.8588675828	 0.246206
H	-0.5859423322	 1.8888613676	 0.4019122562	 0.245182
H	-2.1532128355	-0.4847853498	-0.0086815856	 0.125872
H	 0.9701331348	-3.1693217948	-0.0578015072	 0.164691
H	 2.5769581132	 0.4509693087	 0.2189516958	 0.254211
H	 4.4721792729	-0.7775200906	 0.1359084575	 0.087218
H	 4.3835644023	-3.0334534888	-0.0557917832	 0.220097
