18
gdb 44441	3.01489	1.74448	1.54124	1.921	73.75	-0.2399	-0.014	0.2259	918.1504	0.151189	-401.970349	-401.963733	-401.962789	-402.001299	27.235	
O	 0.0004488949	-0.0102034659	-0.3174312401	-0.332757
C	-0.0019995974	 1.1661854853	-0.0495909981	 0.411395
C	-1.2807032248	 1.9506043476	 0.2597616885	-0.351229
C	-1.0181456606	 3.4237853993	 0.5191639798	-0.023999
C	 0.089524281	 4.1219607885	-0.1913413136	-0.038355
C	 1.0578574503	 3.2219052309	-0.9413888966	-0.250696
C	 1.2319211868	 2.0379692886	 0.0436975214	-0.14424
C	 1.1690106415	 2.7699446392	 1.4126494014	-0.182471
N	 0.1858003915	 3.8565550769	 1.2631353596	-0.114684
H	-1.9780244326	 1.8244481555	-0.5767876303	 0.14038
H	-1.7647126385	 1.4797509274	 1.124378676	 0.142073
H	-1.8994614612	 4.0038153962	 0.7805307706	 0.096041
H	-0.0119002452	 5.1599765904	-0.492305174	 0.092525
H	 0.6862716058	 2.9081862611	-1.9224172094	 0.116944
H	 2.0145138372	 3.731681843	-1.0971902984	 0.116013
H	 2.1333808638	 1.4458755968	-0.1166091734	 0.089487
H	 0.8907410249	 2.1097521529	 2.2406653133	 0.116833
H	 2.1392184727	 3.2166643063	 1.6533240133	 0.116742
