22
gdb 114615	2.16748	1.39567	0.99883	1.5976	82.75	-0.2291	0.0701	0.2991	1302.0934	0.193105	-404.298468	-404.288756	-404.287812	-404.333397	35.692	
C	-0.4655833541	 1.4049776156	 0.1233804804	-0.374878
C	 0.0409892857	-0.0441943172	 0.0918539468	-0.300874
C	 0.7458706508	-0.3644746992	-1.1955494904	 0.336736
C	 0.0678957115	-0.8762532461	-2.4050305379	-0.280839
N	 0.9983848424	-1.784496264	-1.7060043003	-0.180793
C	 2.3650226684	-1.3450857416	-2.1593802551	-0.202086
C	 2.162927174	 0.0693165699	-1.5427285334	 0.065973
O	 2.2388475295	 1.2096620977	-2.360583427	-0.247552
C	 3.5637218357	 1.5907955772	-2.6607615802	-0.238747
H	 0.3554128737	 2.1123979597	-0.03070653	 0.127411
H	-1.2010687885	 1.5802221398	-0.668198667	 0.120433
H	-0.9372354974	 1.6355290329	 1.0832324764	 0.111176
H	 0.7233576692	-0.2184628907	 0.9339462624	 0.097467
H	-0.7941380542	-0.7421200976	 0.2212164128	 0.107647
H	-0.9719568684	-1.1695448581	-2.2942014755	 0.11654
H	 0.3348584882	-0.4976048999	-3.3887577992	 0.117574
H	 3.1394202292	-1.9431830632	-1.6750473997	 0.10787
H	 2.4997347369	-1.3789976634	-3.2457845595	 0.105225
H	 2.7812475394	 0.2066385039	-0.6425091799	 0.068709
H	 4.1371203202	 1.8201387053	-1.7487140231	 0.105346
H	 4.1021039768	 0.80817311	-3.2164531623	 0.108487
H	 3.512033191	 2.4888407291	-3.2806897984	 0.129175
