20
gdb 5817	3.46281	1.56668	1.33	0.4425	71.25	-0.2498	0.0703	0.3201	1009.902	0.174112	-386.139359	-386.130298	-386.129354	-386.17191	35.487	
C	-0.2380898047	 1.5524929707	-0.0400656239	-0.456277
C	-0.0456300115	 0.0413864924	-0.0153653955	 0.424972
O	-1.2773151209	-0.6405920368	-0.1802257333	-0.47888
C	 1.1385329669	-0.4612724447	-0.9038097183	-0.297797
C	 2.0128579395	-0.5946886458	 0.3698554551	 0.405943
C	 2.8690830564	-1.8410280398	 0.5294669065	-0.448264
O	 2.8121721916	 0.5846334824	 0.4599337995	-0.476672
C	 0.7140960244	-0.4891124087	 1.2273723359	-0.305902
H	 0.7127453294	 2.0619533402	 0.1327825643	 0.139259
H	-0.6224064875	 1.877181313	-1.0160746024	 0.099289
H	-0.9540216658	 1.8568790924	 0.730485313	 0.115588
H	-1.7317204855	-0.2558937594	-0.9377549032	 0.271264
H	 0.9015102494	-1.4333540347	-1.3420389943	 0.097607
H	 1.5291406392	 0.213204482	-1.6693447407	 0.099835
H	 3.6720288648	-1.8488361008	-0.2144448997	 0.123428
H	 3.3287227557	-1.8730195794	 1.525798449	 0.103545
H	 2.2722618258	-2.7502389412	 0.4104286485	 0.116828
H	 3.2030866483	 0.6056205702	 1.3406043621	 0.273048
H	 0.7580882202	 0.1611057365	 2.1057501319	 0.087462
H	 0.3256794345	-1.4689782382	 1.5156345457	 0.105723
