16
gdb 126433	1.96361	1.75897	0.99141	4.3378	77.29	-0.2605	-0.02	0.2405	1165.4624	0.126424	-396.98028	-396.971992	-396.971048	-397.013892	30.	
C	 0.024792926	 1.4954244734	-0.2099382801	-0.38423
C	-0.0532074356	-0.0025878058	 0.1326250457	-0.298343
C	-1.4422294056	-0.5535772396	 0.0390674279	 0.276346
N	-2.1409430078	-0.8661107483	 1.1219826713	-0.27454
N	-3.3335211497	-1.305282226	 0.6590734465	-0.182892
C	-3.4269286586	-1.2883729523	-0.6819290733	-0.112065
C	-2.2123555521	-0.8020962621	-1.1400568493	 0.048172
C	-1.8221557743	-0.6022951263	-2.4842253747	 0.198545
N	-1.4818186639	-0.4297430923	-3.5784303979	-0.356457
H	 1.0545537247	 1.8532348619	-0.120179917	 0.120271
H	-0.3090584826	 1.6850111637	-1.2342156456	 0.139959
H	-0.601706142	 2.0830165588	 0.467682616	 0.125437
H	 0.601587563	-0.5633310459	-0.5444436756	 0.123147
H	 0.3075698564	-0.175722622	 1.1504213839	 0.125473
H	-4.03037324	-1.6066982682	 1.3195898655	 0.287204
H	-4.3088039378	-1.6108482788	-1.2114237132	 0.163972
