16
gdb 31349	3.59738	1.14533	0.92365	5.6736	74.08	-0.248	-0.0413	0.2068	1247.0743	0.124891	-437.943718	-437.935641	-437.934697	-437.977089	29.318	
C	 0.1303730159	 1.5656588377	-0.1014895406	-0.380242
C	-0.0430194033	 0.0436088893	 0.044822868	-0.279312
C	 0.5898172414	-0.4986177781	 1.286208461	 0.401225
C	-0.0197479558	-1.0768438321	 2.3337828533	-0.328599
C	 0.7445770183	-1.5499857052	 3.4903412443	 0.393837
O	 0.2492803269	-2.0781379895	 4.4595519266	-0.339424
N	 2.1551678456	-1.3457875313	 3.4084075568	-0.300888
C	 2.6287120968	-0.789171947	 2.3730962949	 0.122822
O	 1.9510468297	-0.3410031994	 1.2843442227	-0.219637
H	 1.1885666115	 1.8381205902	-0.1220729478	 0.137215
H	-0.3290923338	 1.9104802271	-1.0314522825	 0.127941
H	-0.3427648527	 2.094810641	 0.7308173918	 0.132073
H	-1.1035511887	-0.2218028835	 0.0601763394	 0.127002
H	 0.4056568269	-0.4596257775	-0.8208210471	 0.130995
H	-1.0947417138	-1.2049367293	 2.3409539858	 0.12474
H	 3.6926662551	-0.6051926524	 2.2467243235	 0.150255
