16
gdb 79124	4.47025	1.32766	1.16495	3.6074	68.48	-0.2339	-0.0078	0.2261	1039.8528	0.125187	-437.842677	-437.835863	-437.834919	-437.87378	27.064	
C	 0.0310334809	 1.4814257519	-0.2511015791	-0.328531
N	 0.0107742702	 0.0427005101	-0.0021714672	-0.115099
C	-1.0553873056	-0.4764599978	 0.9186553498	-0.051939
C	-0.1498463504	-1.7095075933	 1.1770571301	 0.108811
O	-0.3481229864	-2.2098557794	 2.4956182224	-0.245504
C	-0.4794385077	-1.0593229571	 3.2451652221	 0.458016
O	-0.6622594901	-1.0473514555	 4.4233682422	-0.33489
C	-0.3348740566	 0.0471605999	 2.2235484717	-0.236389
C	 0.7602184668	-0.45317588	 1.2005648572	-0.051913
H	 0.992250294	 1.7443606794	-0.7034027975	 0.129436
H	-0.7533366882	 1.7218959901	-0.975382849	 0.129438
H	-0.1154217455	 2.1159183695	 0.6364408887	 0.104733
H	-2.1192853235	-0.4415658807	 0.6805210644	 0.101659
H	-0.0258925411	-2.4998805013	 0.4441738953	 0.12163
H	-0.4029708235	 1.0695491505	 2.5778637304	 0.108885
H	 1.8450169467	-0.3907037264	 1.2960471283	 0.101656
