15
gdb 42629	2.74831	1.72648	1.28577	3.4543	76.49	-0.2363	-0.0017	0.2346	976.0608	0.111857	-383.424358	-383.417075	-383.416131	-383.455962	28.756	
O	 0.001013343	 0.067365427	 0.0246043856	-0.325403
C	-0.0177776163	 1.2603163132	 0.0783580199	 0.420239
C	-1.0807574738	 2.3075121764	 0.0323538371	-0.204267
C	-0.4763020252	 3.5721521737	 0.6656005325	-0.075437
C	 0.9029404488	 3.2073288976	 1.2162503092	-0.27737
C	 1.0854773836	 2.3602970012	-0.0882252432	 0.07709
C	 2.3642515787	 2.0727483867	-0.6514698683	 0.05788
C	 3.4411631371	 1.8234211328	-1.1256189241	-0.32892
C	-0.0987065072	 3.2192908428	-0.7313028525	-0.120883
H	-2.1433971341	 2.1929742666	-0.127462526	 0.118922
H	-1.1401048451	 4.3599915539	 0.9969100721	 0.110005
H	 1.5728050132	 4.0698063237	 1.2214230807	 0.12324
H	 0.9720810199	 2.6663951297	 2.165594945	 0.113127
H	 4.3902121655	 1.5945289951	-1.5432853957	 0.186415
H	-0.216832268	 3.6727737196	-1.7026962122	 0.125363
