18
gdb 19736	3.86739	2.42881	2.20706	1.5499	69.82	-0.2319	0.0922	0.3241	721.925	0.158033	-347.79769	-347.792124	-347.79118	-347.826963	24.072	
C	-0.0454883943	 1.5711363553	 0.0545030218	-0.241488
C	 1.4846690379	 1.3662983396	 0.0002230128	 0.09716
O	 1.7604259486	 0.7452395429	 1.2675218579	-0.294915
C	 0.857591584	-0.3940706341	 1.2005934069	 0.105562
C	 1.696516615	-1.5726102191	 0.7028305651	-0.210076
C	 2.1520013378	-1.0693610512	-0.7005491156	-0.236327
C	 1.2407064308	 0.1408338966	-0.9413580435	-0.019266
C	-0.0154521337	 0.0250748068	-0.0092869486	-0.072876
H	-0.4456037393	 2.0591923317	 0.9461850265	 0.097543
H	-0.4596388754	 2.0134736184	-0.8543897583	 0.097094
H	 2.2092559136	 2.157124124	-0.1923901844	 0.073446
H	 0.3565934497	-0.5278761254	 2.1615828883	 0.068628
H	 2.5303892664	-1.7798772641	 1.3777157905	 0.105158
H	 1.0864469258	-2.4807080812	 0.6280336482	 0.090538
H	 3.2081874206	-0.7844812969	-0.7058350208	 0.107027
H	 2.0173604784	-1.8320476977	-1.4728643781	 0.096249
H	 1.0389779386	 0.4113964305	-1.9777453318	 0.069005
H	-0.8833957244	-0.591005736	-0.242753127	 0.067538
