13
gdb 3702	3.71138	3.47428	1.81917	1.4768	55.55	-0.212	0.0121	0.224	663.9821	0.103997	-336.82739	-336.820658	-336.819714	-336.857867	24.145	
C	-0.0492749841	 1.5291522728	-0.0452796072	-0.510502
C	-0.0186725328	 0.0383495911	 0.0086835013	 0.275293
N	-0.0164104023	-0.7289887963	-1.0835533242	-0.256827
N	 0.0054309529	-1.9616195039	-0.6052706376	-0.09109
N	 0.0244353485	-2.0844506385	 0.7259953118	-0.280204
C	 0.0056515931	-0.8180971074	 1.137013834	 0.25822
N	-0.0577639948	-0.4676947861	 2.48285828	-0.592244
H	 0.8639269928	 1.9727392446	 0.3710710212	 0.123566
H	-0.1421875745	 1.8632223445	-1.0805011583	 0.146527
H	-0.8939650961	 1.930262735	 0.5261596114	 0.136398
H	-0.0072750912	-2.7662984544	-1.2077623747	 0.287153
H	 0.1699068274	-1.2461302585	 3.0877503616	 0.254599
H	 0.5066334513	 0.3384323871	 2.7157926608	 0.249111
