17
gdb 86258	3.16526	1.15374	0.90139	4.2432	73.52	-0.2568	-0.0713	0.1855	1250.0212	0.135167	-458.979504	-458.970844	-458.9699	-459.012979	32.074	
O	-0.0797011803	 1.4621423609	-0.0268851507	-0.421973
C	 0.0259614704	 0.0462612243	-0.0323332591	 0.081105
C	-1.3832953717	-0.5795078126	-0.0843158872	-0.244678
C	-1.2585413513	-1.833495474	-0.9708651769	 0.030944
O	-2.4210235595	-2.0034150529	-1.7548967474	-0.440047
C	-0.0064390389	-1.5390934787	-1.7835018792	 0.215322
C	 0.347712448	-2.3187718289	-2.9686658921	 0.07813
O	-0.3421874321	-3.2209860911	-3.4038111047	-0.287967
C	 0.6919780371	-0.5197855499	-1.269177335	-0.201963
H	 0.766713578	 1.8334931994	 0.2407502388	 0.286377
H	 0.5724703147	-0.2942712397	 0.8630523193	 0.08514
H	-1.8003292093	-0.7802554866	 0.9036185566	 0.108341
H	-2.0394648676	 0.1265318491	-0.6015640941	 0.140129
H	-1.0818627531	-2.7307187517	-0.353148461	 0.077433
H	-2.2170870574	-2.7035628143	-2.3897535225	 0.295775
H	 1.2985634392	-2.0374632801	-3.46936764	 0.08631
H	 1.6301169539	-0.1348314232	-1.6596582346	 0.111621
