19
gdb 67944	2.31069	1.77172	1.2855	2.7704	80.34	-0.2371	-0.0173	0.2197	1049.8238	0.159173	-385.918233	-385.910223	-385.909279	-385.95067	31.557	
C	 0.2500673846	 1.5416747119	-0.2480427437	-0.471678
C	-0.0592069864	 0.0732754916	 0.0215403258	 0.292969
C	-1.4794417548	-0.2339677103	 0.6169743558	-0.400059
C	-0.7857260654	-1.1106578423	 1.6692971042	 0.414279
O	-1.1737648627	-1.9144167243	 2.4673799966	-0.30165
C	 0.6199825376	-0.639637056	 1.2531506832	-0.185051
C	 1.5599978745	-1.7393444434	 0.7216411255	-0.282516
C	 1.1773652632	-1.8120826264	-0.7406004346	-0.065037
C	 0.324769064	-0.8552020638	-1.1073044531	-0.125442
H	 1.3071875996	 1.6837391114	-0.4954426258	 0.121374
H	-0.3418360543	 1.9217334488	-1.0886347127	 0.119046
H	 0.0184793985	 2.1603324525	 0.6259575772	 0.113829
H	-1.9590095321	 0.6409300177	 1.0718898627	 0.122867
H	-2.2076983898	-0.737527694	-0.0244200621	 0.125518
H	 1.0737669487	 0.0195710105	 1.99856633	 0.092756
H	 2.6197912838	-1.4839034902	 0.8490094748	 0.109838
H	 1.4030744501	-2.6882494205	 1.2480138276	 0.127994
H	 1.5782256051	-2.5716671744	-1.4035083145	 0.097862
H	-0.069685034	-0.7241736286	-2.1103882869	 0.093102
