17
gdb 108540	2.81652	1.76257	1.30323	1.9978	67.	-0.232	0.0609	0.2929	981.1455	0.13538	-458.870148	-458.862654	-458.86171	-458.902435	28.692	
C	 0.0873100828	 1.3458894557	-0.1034181352	-0.262606
O	-0.1429019543	-0.0275807942	 0.1640166583	-0.292862
C	 0.5884434374	-0.5479631004	 1.2050571595	 0.403851
C	 0.2800401805	-0.1356017827	 2.6497252251	-0.160465
O	 1.1928649945	-0.9727591099	 3.3826079645	-0.27076
C	 1.8378276865	-1.6974460062	 2.3653060718	 0.0973
C	 0.8596458792	-2.0828947623	 1.2187325305	-0.041414
O	 1.9364669301	-1.9558438621	 0.2346138623	-0.315887
C	 2.1441896432	-0.8123268682	 1.1245340245	-0.058929
H	 1.1478309079	 1.541646589	-0.3108987272	 0.118424
H	-0.4993452521	 1.5949611857	-0.9895278439	 0.138343
H	-0.2356568737	 1.9890039596	 0.7267510315	 0.114516
H	 0.4893354666	 0.9186013966	 2.8643151013	 0.109566
H	-0.7554503307	-0.3566957343	 2.9343592184	 0.116492
H	 2.5682889331	-2.4061515094	 2.7453115306	 0.110735
H	 0.1549916025	-2.9074663832	 1.1187368729	 0.099062
H	 2.9744452867	-0.1373592138	 0.9195473051	 0.094633
