21
gdb 26215	3.77186	1.05137	0.84801	1.4769	88.98	-0.1657	0.0523	0.218	1414.0267	0.182453	-383.28884	-383.278951	-383.278007	-383.324391	35.809	
C	 0.0062165575	 1.3832640274	 0.2897478858	-0.327909
N	-0.0023471357	 0.0537412604	-0.2962568582	-0.152381
C	 1.2067850125	-0.7058942215	-0.0558232949	-0.320757
C	-1.1974877177	-0.67030184	-0.1699406301	 0.319351
C	-1.3239329485	-2.0393871725	-0.001904938	-0.212026
N	-2.6695492079	-2.3527820756	-0.0037063196	 0.014215
C	-3.211406801	-3.6730522467	 0.2173060098	-0.334378
C	-3.3928313628	-1.203141666	-0.1447437481	-0.075076
C	-2.5234188004	-0.1421920539	-0.2523262781	-0.291636
H	 0.9264004688	 1.8987167779	-0.002027658	 0.113471
H	-0.8348844927	 1.969369243	-0.0868336366	 0.127294
H	-0.0505267189	 1.3751637591	 1.3929225468	 0.099348
H	 1.2898441943	-1.0804309267	 0.9813936751	 0.095257
H	 1.2425352615	-1.5680275125	-0.7295548162	 0.123245
H	 2.0781631772	-0.0784789083	-0.2632663267	 0.113088
H	-0.5840759686	-2.8124951459	 0.1156849867	 0.104101
H	-3.0822391865	-3.9988022393	 1.2569149451	 0.132592
H	-4.2787589709	-3.6662994633	-0.0130482148	 0.136497
H	-2.7233211725	-4.4030817637	-0.436606471	 0.134926
H	-4.4712667101	-1.2305863138	-0.1593656976	 0.110927
H	-2.8073385578	 0.8873597019	-0.3992208414	 0.089852
