18
gdb 37236	4.09086	1.38382	1.23083	2.0348	75.21	-0.2091	0.0691	0.2782	1039.2479	0.148129	-401.828314	-401.821151	-401.820207	-401.859872	28.977	
C	 0.056962643	 1.3296223142	-0.2839430715	-0.095678
C	 1.4991254013	 1.5775941768	 0.2027714779	-0.323217
C	 1.3656538225	 0.1926689974	 0.8249778309	 0.474108
O	 0.0289626878	 0.0230653533	 0.3443225831	-0.328528
C	 2.1961569574	-1.055394823	 0.8642894462	-0.156766
C	 3.6308245417	-0.8234495804	 1.3997814996	-0.061179
N	 3.8229808019	 0.6346474089	 1.6450330021	-0.342045
C	 3.1085119851	-0.2170903821	 2.63857844	-0.061096
C	 1.6475159563	-0.418008656	 2.1653506409	-0.156793
H	-0.7129111761	 1.9898552936	 0.1314908888	 0.102431
H	-0.080215922	 1.2549019425	-1.3687461748	 0.10243
H	 2.2590704702	 1.6583523119	-0.5736415042	 0.116933
H	 1.6300830356	 2.3890361975	 0.9178031822	 0.116942
H	 1.8655980353	-1.9573370406	 0.3652608881	 0.097236
H	 4.4772283783	-1.4780886979	 1.236520341	 0.095317
H	 4.7760198515	 0.7500869203	 1.9904777686	 0.227369
H	 3.4548044297	-0.2911754692	 3.6614155212	 0.09531
H	 0.8401707204	-0.7660386072	 2.79690825	 0.097226
