20
gdb 94827	3.80297	1.1046	0.96609	1.6359	81.91	-0.2355	0.008	0.2436	1257.5442	0.172785	-403.135076	-403.126905	-403.12596	-403.167654	32.665	
O	 0.0940590027	 1.4349776149	 0.0962126044	-0.437577
C	 0.0465850574	 0.0114120749	 0.0382755069	 0.10163
C	-1.3918478881	-0.519937865	 0.103895723	-0.236537
C	-1.4186610082	-2.0311271413	-0.1577855785	-0.307164
C	-0.8517702834	-2.3577232366	-1.532008552	 0.311146
C	-1.0077408633	-3.7420413271	-2.0564124562	-0.291551
N	-1.7690132829	-2.6456820365	-2.6704959707	-0.354603
C	 0.3378324309	-1.549691747	-1.9047614207	-0.065616
C	 0.7604080147	-0.5085379483	-1.1863634774	-0.132301
H	-0.299794592	 1.7671026577	-0.7186553803	 0.276091
H	 0.5881018761	-0.3061517583	 0.940641787	 0.096502
H	-1.8318497682	-0.2762354406	 1.0753371907	 0.102147
H	-1.9870127063	-0.0031990485	-0.6611693382	 0.093685
H	-0.8151813409	-2.5379097273	 0.6075750656	 0.109549
H	-2.4358586809	-2.4296845295	-0.065849584	 0.089991
H	-0.2383678961	-4.1771849238	-2.6894312222	 0.116988
H	-1.5305263018	-4.4587176057	-1.4264280779	 0.109443
H	-2.7291412583	-2.6629854745	-2.3329210276	 0.227681
H	 0.8614080394	-1.8494506203	-2.8087245559	 0.094969
H	 1.6515287492	 0.0425458627	-1.4766959962	 0.095527
