19
gdb 30275	2.99333	1.56072	1.13372	1.5145	82.03	-0.17	0.0546	0.2246	1100.4588	0.162795	-382.099207	-382.091315	-382.090371	-382.131458	31.107	
C	 0.0861166397	 1.5892892715	-0.0546623829	-0.384258
C	-0.0287141308	 0.0578705431	 0.0235896223	-0.136797
C	 0.7452247493	-0.69462402	-1.1250286993	-0.179527
N	 2.0205803928	-1.256435874	-0.5692884007	-0.417023
C	 1.7898119528	-1.180903085	 0.8191069388	 0.322001
C	 0.6563064124	-0.5376233394	 1.2282204149	 0.285901
C	 0.6098383542	-0.6370946908	 2.6488580613	-0.337344
C	 1.727101664	-1.3470850164	 3.0346552799	-0.081227
N	 2.4526855243	-1.6842429439	 1.8972986117	-0.368582
H	 1.1363998623	 1.9014093475	-0.0539009757	 0.107977
H	-0.3863817087	 1.9784071687	-0.9639086255	 0.103475
H	-0.3983351017	 2.0617120796	 0.8058291418	 0.116331
H	-1.0892527251	-0.2123735393	-0.0384288155	 0.074248
H	 0.1408506488	-1.5343933004	-1.4827355587	 0.114344
H	 0.9618314424	-0.0491883615	-1.9809810388	 0.09773
H	 2.8176592547	-0.6932313668	-0.8555844157	 0.225614
H	-0.1392637315	-0.2454949539	 3.3206257433	 0.087727
H	 2.0702848891	-1.6494407343	 4.0105912486	 0.111168
H	 3.2827016609	-2.2497905847	 1.8789895401	 0.258244
