17
gdb 35547	2.63163	1.607	1.46179	1.3907	71.88	-0.2578	0.0316	0.2895	978.5537	0.13584	-421.773782	-421.766093	-421.765149	-421.806229	29.664	
C	-0.0360964071	-1.0019738788	 0.5952228939	-0.450503
C	-0.0029359971	 0.1654846716	 0.3118794283	 0.362469
C	 0.0091726235	 1.5829553057	-0.1005304078	-0.053289
O	-0.7789611611	 2.3952153996	 0.7494923817	-0.241389
C	 0.0858937767	 2.9944395415	 1.7020872536	 0.08781
C	 0.4828497358	 2.13964407	 2.940814447	-0.253098
C	 1.9151142087	 1.9560052885	 2.3515003995	-0.253092
C	 1.5128736818	 2.8114482334	 1.1149292693	 0.087809
O	 1.3160289893	 2.1265132089	-0.112507966	-0.241393
H	-0.0624538209	-2.0325164333	 0.8523789154	 0.202271
H	-0.3974574844	 1.6660493864	-1.1147083831	 0.122393
H	-0.2872536605	 4.0009272863	 1.8985007684	 0.087921
H	 0.4438139967	 2.6914468579	 3.8828724509	 0.103449
H	-0.1032202571	 1.2254272631	 3.0427464246	 0.123638
H	 2.7150406205	 2.4002758982	 2.9483464995	 0.103449
H	 2.1906351815	 0.9313222596	 2.0989640995	 0.123635
H	 2.1231183137	 3.6918253715	 0.9066660554	 0.08792
