16
gdb 77785	2.82725	1.36912	1.09149	3.7357	77.78	-0.2491	-0.0221	0.227	1119.8794	0.12186	-400.699124	-400.690604	-400.68966	-400.732099	32.116	
C	 0.0171686149	 1.5650015051	-0.0094199563	-0.425508
C	 0.0403771369	 0.0620308795	 0.1389729575	-0.023954
N	 1.2342537756	-0.7724583256	-0.1998623738	-0.220442
C	 2.3952630945	-0.0632295446	 0.3113493203	 0.414837
O	 3.3753945901	 0.2701377516	-0.2762474178	-0.295526
C	 1.937812034	-0.0464262029	 1.7740293327	-0.43707
C	 0.6486098772	-0.6984556824	 1.2571257133	 0.106828
C	 0.0195003274	-1.815689966	 1.8754245369	 0.227117
C	-0.5215982939	-2.7351711757	 2.4308605106	-0.381932
H	 0.8827851573	 2.0581294884	 0.437687853	 0.137146
H	-0.0070674276	 1.8311365236	-1.0707220845	 0.14715
H	-0.8860005589	 1.9669618695	 0.460328951	 0.135782
H	-0.8454650292	-0.4218680081	-0.2662373019	 0.121894
H	 2.535731932	-0.7289712229	 2.3821766864	 0.156256
H	 1.8636558772	 0.918841056	 2.2794497083	 0.13722
H	-0.9964550274	-3.5551145752	 2.9108864645	 0.2002
