18
gdb 96869	2.22558	1.46329	0.9168	4.2668	77.89	-0.2468	-0.0612	0.1856	1277.7332	0.146022	-439.121101	-439.111854	-439.11091	-439.155989	32.823	
C	-0.1563914481	 1.4492854989	 0.1354925055	-0.335588
N	-0.0744309079	 0.0012637163	 0.0618997742	-0.288353
C	 0.6790703939	-0.6184048977	 0.8590830857	 0.326062
O	 1.4480109112	-0.0699225786	 1.8441067833	-0.267361
C	 2.344664572	-1.055917779	 2.4291132215	 0.118956
C	 2.4984802236	-0.7424081869	 3.9045298012	-0.400459
C	 1.7298786401	-2.4194791792	 2.0921907267	-0.356904
C	 0.8455063704	-2.1249446042	 0.8859451253	 0.31257
O	 0.3651941165	-2.9086821806	 0.115260739	-0.278898
H	 0.6776744039	 1.9196603332	 0.6686667338	 0.123786
H	-0.2134802967	 1.8500190755	-0.8811555424	 0.132352
H	-1.0896549287	 1.7296912812	 0.6400942345	 0.13597
H	 3.3116450753	-0.9463860478	 1.921243373	 0.09963
H	 1.537084464	-0.8338393115	 4.4191750612	 0.12948
H	 3.2081177792	-1.4367930857	 4.3648766485	 0.126976
H	 2.8710070837	 0.2759033828	 4.0441696695	 0.135462
H	 2.460127089	-3.2014890569	 1.8790064662	 0.143216
H	 1.0849797185	-2.7715960499	 2.9072995933	 0.143103
