10
gdb 8718	4.79589	1.43825	1.10643	0.0014	62.7	-0.2692	-0.1167	0.1525	962.6831	0.056113	-380.077991	-380.069933	-380.068989	-380.111206	27.328	
O	-0.032500797	-0.0451238926	-0.0009862468	-0.261657
C	-0.0097396877	 1.1634599072	 0.0043353571	 0.168254
C	 1.2011042248	 1.9480349951	 0.0002342644	 0.254781
C	 2.2243255583	 2.5813865605	-0.0032323539	-0.384679
C	-1.3209692526	 1.9856137432	 0.016369047	 0.168205
O	-1.2982098834	 3.1941950435	 0.0219115635	-0.261659
C	-2.5318100838	 1.2010340232	 0.0203505419	 0.254819
C	-3.5549878154	 0.5676126916	 0.0239635408	-0.384686
H	 3.1284744079	 3.141252225	-0.005432754	 0.223309
H	-4.4587895612	 0.0071958534	 0.0278562501	 0.223312
