19
gdb 68376	2.78067	1.6305	1.22665	3.9451	75.3	-0.2134	0.0273	0.2407	1051.7673	0.160961	-419.217034	-419.209153	-419.208209	-419.249135	31.507	
C	-0.1041530743	 1.5318593861	-0.0212914344	-0.505533
C	 0.0542092936	 0.0268042338	 0.0012088096	 0.314227
C	 1.1254385093	-0.7037839843	-0.8519226759	-0.201945
N	 1.1830776651	-1.7765426677	 0.2083558567	-0.129516
C	 0.7350560755	-0.7144300013	 1.1827917196	-0.201945
C	 0.0525432791	-2.6952682243	-0.0133606495	-0.293607
C	-1.3093476174	-2.0115508838	-0.2710097652	 0.386375
O	-2.3372629848	-2.6268451293	-0.471704422	-0.379958
N	-1.2234029086	-0.646844195	-0.2474151146	-0.330546
H	 0.8561023018	 2.0197979234	 0.1653995823	 0.13007
H	-0.4755000335	 1.8727044399	-0.9941594593	 0.129187
H	-0.8096931389	 1.8635888161	 0.7485875172	 0.129192
H	 0.8372927103	-1.040282719	-1.8515017028	 0.110689
H	 2.0816794812	-0.1742729881	-0.8927261964	 0.108503
H	 1.6072710396	-0.1872082526	 1.579933328	 0.108504
H	 0.0980856167	-1.0604406426	 2.0013038786	 0.110688
H	 0.2702061039	-3.3410910948	-0.8701112128	 0.135629
H	-0.0610249335	-3.3501726223	 0.8565160714	 0.135616
H	-2.068136075	-0.1183463942	-0.4068837705	 0.244371
