18
gdb 79499	2.30929	1.83184	1.25049	2.4994	76.92	-0.2448	-0.0434	0.2014	1041.6341	0.146652	-401.855608	-401.84758	-401.846636	-401.888556	30.241	
C	-0.0720415434	 1.6266893635	 0.222260766	-0.431643
C	 0.013858006	 0.1207734543	 0.0458116481	-0.053055
C	 1.235498143	-0.503894419	-0.6414721372	-0.015601
C	 2.1668216956	-0.4091335131	 0.6098265901	-0.116727
C	 2.4518980415	-1.9005679481	 0.4805276504	-0.19511
N	 0.9832670415	-1.8698377308	 0.0561642317	-0.197616
C	 0.7294736804	-0.7344677972	 1.1140326214	 0.28427
C	 0.2866812961	-1.1031104739	 2.4909417092	 0.030232
O	 0.9965087662	-1.0498125814	 3.4648450481	-0.244772
H	 0.8777743776	 2.0492764068	 0.5652197436	 0.124194
H	-0.3323696126	 2.1120610869	-0.7241981188	 0.125591
H	-0.8415989293	 1.8959292446	 0.9530621274	 0.125907
H	-0.9335159409	-0.3181104783	-0.2871916459	 0.08888
H	 1.5361285767	-0.477893308	-1.6908745618	 0.086195
H	 2.8154482526	 0.4131558332	 0.9215333833	 0.080091
H	 3.1168012479	-2.2272829261	-0.3253507063	 0.104148
H	 2.6363881666	-2.4733423612	 1.3930842311	 0.12002
H	-0.7689691656	-1.4499422419	 2.5574218496	 0.084995
