18
gdb 133631	3.87146	0.70036	0.68633	2.2152	65.06	-0.2862	0.0884	0.3746	1639.3433	0.143782	-533.456379	-533.447373	-533.446428	-533.491578	32.67	
F	 0.275307286	 0.0810021279	 0.0274991845	-0.087489
C	-0.0372102726	 1.3891085907	 0.0374034347	 0.283001
F	 1.104618152	 2.0694245431	-0.1671108088	-0.086573
F	-0.8312285212	 1.6162838177	-1.0216377077	-0.080851
C	-0.710585367	 1.7959724991	 1.3296499102	-0.324024
C	 0.1621696782	 1.5415556979	 2.5656218059	-0.218308
C	-0.5252236522	 1.9538363233	 3.8490757399	 0.026869
C	-1.484190924	 1.0126509009	 4.5368385671	-0.257676
C	-0.1418277639	 1.3144678109	 5.1577496234	-0.277466
H	-0.9634448019	 2.8575888165	 1.2412431131	 0.126968
H	-1.6509381247	 1.2405466569	 1.3979913405	 0.131234
H	 0.4157461844	 0.4761079446	 2.6105831313	 0.110867
H	 1.1088554539	 2.0830741249	 2.4539910335	 0.115822
H	-0.7847357306	 3.0090495687	 3.8975843412	 0.08373
H	-2.3728612337	 1.4238944479	 5.0024087083	 0.11361
H	-1.6278484848	 0.0288959697	 4.1009093863	 0.112272
H	 0.6118654305	 0.5339549748	 5.1370433772	 0.113846
H	-0.1120346084	 1.9347981043	 6.0465149096	 0.114166
