21
gdb 73977	2.73627	1.56187	1.04683	0.1277	95.17	-0.1964	-0.0063	0.19	1186.7544	0.184787	-349.992123	-349.984125	-349.98318	-350.024346	31.876	
C	-0.011843381	 1.5042812216	 0.0382610807	-0.497146
C	-0.0098490948	 0.0098625942	 0.0040152857	 0.128166
C	-1.0536815943	-0.830438849	-0.0002933809	 0.30293
C	-2.4957809655	-0.7913460291	-0.1819028825	-0.20574
C	-2.9248216198	-1.9961600217	-0.6007444428	-0.068178
C	-1.7875555352	-2.9945800195	-0.7606688149	-0.305789
C	-0.6279001018	-2.2873327148	-0.0211502942	-0.034189
C	 0.8125868197	-2.1997201034	-0.5534522012	-0.243508
C	 1.2801817168	-0.800182739	-0.0598349544	-0.291595
H	 0.5013328228	 1.8846393655	 0.9320154845	 0.123068
H	 0.5215589279	 1.9247991649	-0.8246552268	 0.121193
H	-1.0272190588	 1.910502884	 0.0394039699	 0.119362
H	-3.118738589	 0.0873461852	-0.0631975331	 0.093555
H	-3.9499150285	-2.2328012088	-0.865194703	 0.093412
H	-2.0268266763	-3.9834557077	-0.3557664255	 0.101496
H	-1.5637562936	-3.1400990246	-1.8288380814	 0.106391
H	-0.6133011595	-2.6606478876	 1.0146217097	 0.0769
H	 1.4635713579	-3.0122032288	-0.2174060032	 0.088732
H	 0.8025091525	-2.2107575869	-1.6498835072	 0.096938
H	 2.0257162671	-0.3449471328	-0.7233916096	 0.09528
H	 1.7567027536	-0.8688697017	 0.9308960402	 0.098723
