13
gdb 18189	4.35918	1.85666	1.51358	5.085	62.03	-0.2742	-0.0272	0.2469	803.9515	0.096673	-361.453982	-361.447722	-361.446778	-361.484524	23.586	
N	-0.032296086	-1.184778997	-0.158793321	-0.318919
C	-0.0121559158	-0.0332598649	-0.0682516243	 0.282975
C	-0.0075000653	 1.4270553497	 0.0341813443	-0.221448
C	-0.6229611954	 1.9459630563	 1.3340480421	-0.079013
C	 0.19393066	 2.7869737512	 1.9675283985	-0.079511
C	 1.4956585355	 2.9010027604	 1.2428809077	-0.001888
O	 2.2008033268	 1.6401701196	 1.1595228637	-0.23495
C	 1.4050170879	 2.0372125457	 0.0549271096	 0.028361
H	-0.5593305636	 1.8195000943	-0.8313646066	 0.139729
H	-1.5968752372	 1.612749016	 1.6693693701	 0.132008
H	-0.0213295567	 3.2995671667	 2.8961973334	 0.121747
H	 2.1258655978	 3.7821805511	 1.3016141513	 0.112897
H	 1.928133372	 2.2137965209	-0.8798093089	 0.118013
