20
gdb 69428	2.7421	1.2618	1.19092	4.0327	82.34	-0.2763	0.0372	0.3135	1163.2951	0.172628	-366.040991	-366.032656	-366.031711	-366.073718	32.592	
C	 0.0580964738	 1.5024627899	 0.2302586726	-0.484212
C	 0.139429663	 0.006708925	 0.0420794342	 0.374222
C	-0.9139966864	-0.8909547852	 0.6493723894	-0.362094
C	 0.504127461	-0.9394355345	 1.1684358563	-0.056307
C	 1.404203258	-2.046348011	 0.6131138272	-0.160252
C	 1.1699654614	-1.9907541621	-0.9284146206	-0.253023
C	 0.8079254216	-0.5210508283	-1.2251903164	-0.264929
C	 2.8051892245	-1.7835847756	 0.9559480791	 0.267163
N	 3.9095112542	-1.5702387436	 1.2236569386	-0.329453
H	 1.0509237101	 1.9622109681	 0.1669394593	 0.124745
H	-0.572176717	 1.9639987007	-0.5388264039	 0.119567
H	-0.3691816439	 1.7598262347	 1.2044766281	 0.116714
H	-1.6456450516	-0.4204994071	 1.2976728952	 0.11537
H	-1.3086732899	-1.7293530376	 0.0842929948	 0.110366
H	 0.7075548564	-0.5761368098	 2.1691955837	 0.101459
H	 1.1487408177	-3.0343333717	 1.0129837303	 0.121947
H	 2.0396090491	-2.3384100225	-1.4885256098	 0.125136
H	 0.3390929739	-2.6553389817	-1.1781046107	 0.114988
H	 0.174985095	-0.4290286341	-2.1145267647	 0.102783
H	 1.7167518289	 0.0633313664	-1.4132601128	 0.115808
