22
gdb 113790	2.50912	1.20695	1.02317	1.8281	82.01	-0.2413	0.0771	0.3184	1305.7921	0.193026	-404.311907	-404.30206	-404.301116	-404.346716	36.58	
C	-0.0520085519	 0.8261055953	 1.7176594171	-0.387382
C	-0.0474680548	 0.3056029555	 0.274491148	-0.236116
C	-1.3298636859	-0.4201541608	-0.0640875721	 0.08618
O	-1.4309358879	-1.0634704971	-1.3472932628	-0.273731
C	-1.4798890274	-1.8834633957	-0.1767335485	-0.036321
C	-0.3583038313	-2.8743851912	 0.0018552528	 0.308057
C	-0.1214556728	-3.3157264748	 1.4303925334	-0.459458
C	-0.118414793	-3.8195034813	-1.1212642528	-0.27929
N	 0.8373910947	-2.7297663257	-0.8405725557	-0.35414
H	 0.867284425	 1.3772619899	 1.9337952972	 0.122528
H	-0.8954365047	 1.502519979	 1.8950821378	 0.11837
H	-0.1279119907	 0.0062043016	 2.4393734887	 0.125173
H	 0.058240463	 1.1502384463	-0.4183498585	 0.109101
H	 0.8130880523	-0.3482385406	 0.112273481	 0.12983
H	-2.2339969441	 0.137011594	 0.1950967647	 0.089021
H	-2.4702235153	-2.2948760617	 0.0344065094	 0.091803
H	-1.0254135381	-3.7641921393	 1.8583784031	 0.115694
H	 0.6815109163	-4.0556317949	 1.4687588074	 0.131698
H	 0.1677559242	-2.4700420238	 2.0633871617	 0.12525
H	 0.2483218829	-4.8213956855	-0.9144513139	 0.112974
H	-0.7446684285	-3.7318298126	-2.0051024969	 0.120331
H	 0.6574333178	-1.9832554769	-1.510703361	 0.240428
