17
gdb 27533	5.36024	0.94897	0.85435	3.4588	76.58	-0.2118	0.0282	0.24	1350.9822	0.136703	-418.031366	-418.022996	-418.022052	-418.065217	30.301	
C	-0.4884529659	 1.4555136832	 0.5660015765	-0.500941
C	-0.2090572939	 0.0652198464	 0.1016062731	 0.339308
N	-0.906533482	-0.6071632519	-0.7893558306	-0.355389
C	-0.2899268584	-1.8352109017	-0.9059744112	 0.271378
C	 0.7912870455	-1.9097754911	-0.0681210717	-0.191644
N	 0.8341920715	-0.6865153351	 0.5668113927	-0.27612
C	-0.7986921467	-2.8707873362	-1.8265449491	-0.03469
C	 0.0270815777	-3.4427204409	-2.9068175597	-0.168717
O	-0.2111239601	-4.1700516566	-1.7022882691	-0.234985
H	 0.3365766998	 2.1386168352	 0.3327826472	 0.131943
H	-1.3856764188	 1.8161019121	 0.061788345	 0.159096
H	-0.6584370607	 1.4992213338	 1.6480032932	 0.131257
H	 1.4929286991	-2.6990260555	 0.1393113627	 0.140561
H	 1.5025146183	-0.4087659453	 1.2659007021	 0.262586
H	-1.8790434156	-2.8640930784	-1.9689199409	 0.101749
H	-0.4503518245	-3.8460668508	-3.7994156497	 0.113829
H	 1.0440955649	-3.0771161473	-3.0393000407	 0.110779
