16
gdb 48645	2.59884	1.56493	1.30619	4.1221	70.13	-0.251	-0.0445	0.2064	1006.6981	0.124638	-437.87624	-437.868612	-437.867668	-437.908674	28.615	
O	-0.7737401829	 0.9575982077	 0.4885551193	-0.248991
C	 0.2596857008	 0.7902853404	-0.1114109881	 0.055573
C	 1.4085868846	 1.7385205456	-0.0512198091	 0.104065
C	 1.5825777377	 2.6951167783	 1.1564231984	-0.270914
C	 2.9244129035	 3.3867049688	 0.7289964489	-0.24308
C	 3.1506471272	 2.6694149259	-0.6279623346	-0.121595
N	 2.7829111661	 1.235048202	-0.373971113	-0.354393
C	 1.7319229395	 2.7531561209	-1.2190412373	 0.453841
O	 1.162221902	 3.2623070838	-2.1238794433	-0.290409
H	 0.4205936338	-0.0809110089	-0.7815051524	 0.094545
H	 0.7469908586	 3.3897525923	 1.2603904339	 0.137933
H	 1.6688822933	 2.1331857509	 2.0898267544	 0.117337
H	 2.8370365768	 4.4714487265	 0.625141519	 0.12506
H	 3.744785164	 3.1783752565	 1.4211783731	 0.113827
H	 4.0519987809	 2.8784302339	-1.2015498351	 0.102165
H	 3.2572331041	 0.8567056152	 0.447505366	 0.225038
