18
gdb 45601	2.54556	1.69584	1.38982	4.7692	69.94	-0.2324	0.004	0.2364	990.6545	0.150864	-439.112406	-439.104886	-439.103942	-439.144888	28.875	
O	-0.1360768948	 0.4244142619	 0.9183330129	-0.321694
C	-0.0109073324	 1.4193157358	 0.2822564815	 0.449005
O	-1.0015180774	 2.1773343804	-0.2957328627	-0.260011
C	-0.0445617217	 3.1787010444	-0.7937346387	 0.116524
C	-0.1800771632	 4.5353555405	-0.1270167083	-0.225093
C	-0.0396137583	 4.4374596297	 1.4010914025	-0.2251
C	 1.22010913	 3.6349848994	 1.8579771444	-0.176839
N	 1.9601219139	 2.9328467458	 0.7977752413	-0.279824
C	 1.12824594	 2.3391893621	-0.2133660872	-0.195237
H	-0.1145974534	 3.230952474	-1.8827702922	 0.089206
H	 0.608478244	 5.17452277	-0.5475843601	 0.101549
H	-1.1342696376	 5.0014394328	-0.3932554754	 0.117623
H	-0.0185445004	 5.4450754053	 1.8265604112	 0.102628
H	-0.9380810066	 3.9550217755	 1.7966107057	 0.127168
H	 1.9345651943	 4.2933877223	 2.3585801652	 0.10697
H	 0.916794005	 2.8873570467	 2.5996014458	 0.132565
H	 2.6453320804	 3.5409002399	 0.3655033497	 0.225874
H	 1.7479497781	 1.8481733736	-0.9681464856	 0.114687
