14
gdb 35448	2.45632	1.47371	1.10462	4.152	73.62	-0.2734	-0.0106	0.2627	1086.0706	0.099375	-399.480495	-399.472587	-399.471643	-399.513158	29.433	
C	 0.052939649	-1.2243633179	-0.1257672596	-0.432632
C	 0.015683035	-0.0270397208	-0.0331252858	 0.335562
C	-0.0360433933	 1.4132451142	 0.0862868579	-0.286386
C	-0.2306589157	 2.0616170899	 1.5170695554	-0.260406
C	 1.0912606321	 2.8071466981	 1.3193471535	-0.04926
O	 2.1093131912	 1.8286904011	 1.115007435	-0.258617
C	 1.3091390091	 2.1882084938	-0.0085224886	 0.326439
C	 1.9451238928	 2.6754483197	-1.1918120021	 0.214107
N	 2.4153256819	 3.064640291	-2.1739345328	-0.333047
H	 0.0948498392	-2.2821800253	-0.2118541227	 0.207438
H	-0.7581578694	 1.8397902734	-0.6159216696	 0.131383
H	-1.1058017315	 2.7119298979	 1.5558755497	 0.128133
H	-0.2375778513	 1.3651468474	 2.3558139264	 0.139199
H	 1.4002557208	 3.7799283575	 1.6815729935	 0.138087
