19
gdb 115240	4.16233	0.95318	0.80666	5.3178	72.35	-0.2334	0.0592	0.2925	1382.8703	0.161589	-456.389948	-456.380893	-456.379948	-456.424043	33.235	
O	-0.0180781276	 1.4299199888	-0.0301930133	-0.42229
C	 0.0418853873	 0.0129474544	 0.0164487608	-0.093433
C	-1.3875232323	-0.5153903011	 0.0342369601	 0.014526
C	-2.1615326373	-0.0960898059	-1.219062213	-0.156795
N	-3.4902718235	-0.6809441503	-1.1868588514	-0.344333
C	-3.7778465339	-1.9399607129	-0.7075018762	 0.430645
O	-4.8491815028	-2.4890372024	-0.9025713751	-0.418802
N	-2.7882685821	-2.5124443804	 0.0659642056	-0.344003
C	-1.417556112	-2.0417703195	 0.1508688986	-0.172666
H	 0.8793507658	 1.7715259161	-0.0774968995	 0.291344
H	 0.5773772384	-0.3918336594	-0.8584901726	 0.089371
H	 0.5730916424	-0.3350184645	 0.916770005	 0.091661
H	-1.8996778369	-0.092126967	 0.9062874422	 0.105851
H	-2.2453342023	 0.9925053149	-1.2535672889	 0.130722
H	-1.5967112517	-0.4079459786	-2.1145011093	 0.093276
H	-4.1922293995	-0.3347470593	-1.8206317602	 0.248355
H	-2.991177292	-3.4678136993	 0.3113740738	 0.248106
H	-0.7842145368	-2.4828814839	-0.6376254341	 0.098309
H	-0.9952920432	-2.3559029996	 1.1123511276	 0.110156
