23
gdb 103625	2.15704	1.22541	1.15713	1.5799	81.23	-0.2483	0.0604	0.3086	1267.7392	0.203454	-425.413314	-425.402646	-425.401702	-425.448469	39.882	
C	 0.7780154495	 1.540991207	-0.042262926	-0.424549
C	 0.0525323165	 0.1975367156	-0.0357778314	-0.011933
C	 0.6278764151	-0.8921431188	-0.9888618251	-0.283215
C	 1.1566711916	-1.7159045295	 0.23026623	 0.311847
C	 0.719947444	-3.1779786133	 0.2891535558	-0.463568
C	 2.6690413516	-1.6058749925	 0.4068483633	-0.130714
O	 3.2911947159	-2.2697208823	-0.6854757037	-0.425123
C	 0.3597761305	-0.7458049081	 1.1723118128	 0.070842
O	 0.9727093177	-0.223050912	 2.3308997565	-0.427792
H	 1.8675294118	 1.4306871754	 0.0186649483	 0.108707
H	 0.5701608914	 2.0828479538	-0.9706725989	 0.121588
H	 0.4547238839	 2.1715602935	 0.7929926745	 0.123641
H	-1.0182236568	 0.38255495	-0.1642619044	 0.069839
H	-0.137482283	-1.421045202	-1.5617684403	 0.095027
H	 1.4005629957	-0.5548159403	-1.6844401777	 0.104748
H	 1.2292194223	-3.7676449315	-0.4779507795	 0.132635
H	 0.9557617604	-3.6162740719	 1.2664864182	 0.111389
H	-0.3601022937	-3.2702416167	 0.1330853536	 0.10386
H	 2.9832599667	-0.5495081413	 0.436817312	 0.063852
H	 2.9577293686	-2.0569059769	 1.3685073541	 0.096509
H	 4.2420056383	-2.2551211803	-0.5441730355	 0.287207
H	-0.5483355186	-1.2376942957	 1.5335710704	 0.082458
H	 1.6787762207	 0.3724209677	 2.0617614529	 0.282746
