19
gdb 30164	3.75393	1.33256	1.11419	1.9655	82.54	-0.1632	0.0502	0.2133	1129.4401	0.16279	-382.100599	-382.092821	-382.091877	-382.13269	31.022	
C	 0.2167654599	 1.4695534978	 0.0596981103	-0.393537
C	-0.0411940635	-0.0367755125	-0.0339475058	 0.05502
C	 0.679558043	-0.6670824877	-1.2831530061	-0.368302
C	 1.885667195	-1.240998053	-0.6180592104	 0.279172
C	 1.7481505484	-1.2801492103	 0.7413562504	 0.303904
N	 0.4975807146	-0.7656903173	 1.159789313	-0.415585
C	 2.8761313483	-1.9418303063	 1.2921624126	-0.314686
C	 3.6695803233	-2.2918192412	 0.2121050683	-0.071883
N	 3.054867168	-1.880747946	-0.9493802796	-0.372766
H	 1.2928536449	 1.6714436843	 0.0942573134	 0.126492
H	-0.2047322467	 1.9944714276	-0.8044512986	 0.112516
H	-0.2430511193	 1.8918359258	 0.9603045415	 0.110046
H	-1.1199927749	-0.2120138611	-0.0950877592	 0.075929
H	 0.0479806933	-1.4335483488	-1.7542879907	 0.106074
H	 0.8776543667	 0.09711776	-2.0451380447	 0.09749
H	 0.5540207129	-0.1538515542	 1.9671233125	 0.216944
H	 3.0997077488	-2.1432539819	 2.3282186796	 0.086552
H	 4.6284457251	-2.784338668	 0.1826443121	 0.110969
H	 3.432307272	-1.9980609572	-1.8723333785	 0.25565
