19
gdb 79772	2.94728	1.985	1.75702	1.6092	76.73	-0.2309	0.0552	0.2861	878.8935	0.161433	-385.813458	-385.806975	-385.806031	-385.843928	27.663	
C	-0.1453454186	 1.6217440037	-0.0062612927	-0.434268
C	 0.0983212964	 0.116938321	 0.0308818022	 0.059194
C	 1.1413888916	-0.6080001106	-0.8637857431	-0.102462
C	 2.6222132813	-0.1564847483	-0.5287006627	 0.092446
O	 2.6530465595	 0.8536202807	 0.5051615718	-0.290393
C	 2.257762707	-0.1666121512	 1.4501563385	 0.09245
C	 0.7555516793	-0.6187167548	 1.2312191181	-0.102453
C	 1.2747032318	-1.722323131	 0.2381232479	-0.052873
C	 2.7456449196	-1.3062161495	 0.5111619382	-0.102157
H	 0.7692408976	 2.1869894043	 0.1644015982	 0.144474
H	-0.5605186571	 1.9147352894	-0.9779004641	 0.105886
H	-0.8788681595	 1.9059832498	 0.7575815997	 0.105899
H	-0.85491796	-0.3989710787	-0.1473046951	 0.072953
H	 0.9244077433	-0.8073522928	-1.9142557143	 0.058888
H	 3.3032671797	 0.0603987055	-1.3526463767	 0.078393
H	 2.6002056548	 0.0408626582	 2.4647729206	 0.078393
H	 0.1789224944	-0.8280505812	 2.133432209	 0.058887
H	 0.8739931716	-2.7299027902	 0.1591703753	 0.0644
H	 3.6190500572	-1.9359499144	 0.6687951392	 0.072342
