21
gdb 61920	4.03769	0.71045	0.65144	4.4297	84.15	-0.2419	0.0261	0.268	1736.2963	0.182244	-383.256687	-383.246738	-383.245794	-383.292566	36.13	
C	-0.4902932083	 1.4694384801	 0.0326172097	-0.415721
C	-0.1845622421	-0.0373272703	 0.0468734549	 0.034253
N	 0.5773835098	-0.5098286398	-1.1204943701	-0.293786
C	-0.0751494495	-0.3316317197	-2.4088133904	-0.27687
C	 0.6988321003	-0.9756431821	-3.4762523635	 0.264954
N	 1.3167880582	-1.4593015616	-4.3237341417	-0.300499
C	 0.5614809678	-0.5280491308	 1.2795222944	 0.018957
C	 1.6595494481	 0.2641632318	 1.9527066424	-0.266968
C	 0.3518857418	 0.0209957911	 2.6653484768	-0.284002
H	 0.4286050939	 2.0649401539	 0.012284579	 0.118847
H	-1.0788747276	 1.7388721423	-0.8490983624	 0.118888
H	-1.0735175679	 1.7689002544	 0.9078394701	 0.125733
H	-1.1451789025	-0.5727425578	 0.0126585316	 0.085694
H	 1.4989849305	-0.0837924631	-1.1288276699	 0.227664
H	-1.0626810151	-0.8089389616	-2.3679379527	 0.153638
H	-0.2493943733	 0.714939966	-2.7144852811	 0.132432
H	 0.7408634108	-1.5976133564	 1.2255581898	 0.099203
H	 2.5419386552	-0.2703888816	 2.2859876424	 0.116834
H	 1.8600116001	 1.2750003997	 1.6147291072	 0.111898
H	-0.310249031	 0.8690130713	 2.7993778782	 0.113142
H	 0.3328129606	-0.6837510159	 3.4892050253	 0.115709
