14
gdb 9244	6.45598	0.78359	0.71747	5.5721	71.94	-0.2609	-0.0444	0.2165	1461.496	0.106513	-378.690802	-378.681909	-378.680965	-378.724745	30.455	
N	-0.0994688789	 1.4763394446	 0.0044436506	-0.505893
C	 0.0160480378	 0.0150499081	-0.0181662507	-0.167993
C	 0.6987748614	-0.5524065372	-1.2826895736	-0.081769
O	-0.0705124691	-0.0869555088	-2.3763970534	-0.416684
C	 0.7018068855	-0.4651932928	 1.1768475113	 0.128648
C	 1.2969367209	-0.8734056805	 2.1454283466	 0.045386
C	 1.9680272193	-1.3339641143	 3.2418703071	 0.205801
N	 2.5424837042	-1.7277160493	 4.1715912259	-0.334429
H	 0.8286196461	 1.8888246635	 0.0585693282	 0.232738
H	-0.4904912668	 1.758965086	-0.8908008329	 0.249327
H	-1.0065272916	-0.3884580973	-0.008680533	 0.139851
H	 1.7369721463	-0.1892872105	-1.3255812509	 0.099067
H	 0.7207093439	-1.6510132207	-1.2340252447	 0.107233
H	 0.368494461	-0.3387102708	-3.1936857304	 0.298719
