15
gdb 54447	3.64298	1.18943	1.07636	2.1909	66.09	-0.2582	-0.0245	0.2337	1107.872	0.11238	-453.958666	-453.950648	-453.949704	-453.991684	29.983	
N	-0.126481985	 1.3095410713	 0.2565904421	-0.536225
C	 0.0628244323	-0.010216126	-0.0281241417	 0.295935
O	 1.1366004687	-0.5194074876	-0.2808581445	-0.352843
C	-1.2015635055	-0.8170222817	-0.0522262119	 0.242794
C	-2.389402197	-0.4743816632	-0.8540636703	-0.262769
N	-2.4908899218	-0.3120638313	 0.6257414755	-0.229794
C	-2.6532107549	-1.6698267376	 1.1544721318	 0.415651
O	-3.4976286252	-2.0795435202	 1.8824576473	-0.284199
C	-1.3448798107	-2.2107824721	 0.5533757924	-0.433821
H	 0.6954317517	 1.8806792895	 0.3733428574	 0.266776
H	-0.9814925824	 1.5941390211	 0.7095795002	 0.279184
H	-2.4029178064	 0.4769629193	-1.3745461518	 0.150032
H	-2.95919662	-1.2678797714	-1.3319456529	 0.142274
H	-1.4164586513	-3.0574451259	-0.1325671755	 0.144278
H	-0.6061199925	-2.4353467643	 1.3258954718	 0.162726
