21
gdb 63669	4.53111	0.67626	0.64019	5.2696	84.88	-0.2548	0.0406	0.2954	1778.3607	0.181394	-383.276125	-383.265917	-383.264973	-383.311933	36.929	
C	 0.0468288725	 1.5223422041	-0.1811223928	-0.44012
C	-0.0373090984	 0.027639253	 0.0560263304	 0.316134
C	-1.1679218651	-0.6533609698	-0.6919627517	-0.456917
N	 1.2621879652	-0.6721677647	 0.1278430118	-0.367889
C	 0.4127495246	-0.5984059895	 1.3341881072	-0.060816
C	 0.9856946461	 0.14292933	 2.5212050045	-0.204693
C	 2.1399018251	-0.6628511811	 3.1556888045	-0.328141
C	 2.7308909997	 0.009243463	 4.3095166833	 0.254638
N	 3.1835989074	 0.5554333925	 5.2219399331	-0.307696
H	 0.9413561768	 1.9537749692	 0.2701203125	 0.131617
H	 0.089379138	 1.7294388789	-1.25624645	 0.120517
H	-0.8336077982	 2.0343384375	 0.2226418802	 0.117537
H	-1.0404923488	-0.5372342462	-1.7746257509	 0.12416
H	-1.2101189409	-1.7240880182	-0.4670683107	 0.111899
H	-2.1367366183	-0.2161640417	-0.4263941121	 0.126512
H	 1.1959472452	-1.5923935552	-0.300589634	 0.226339
H	-0.118489051	-1.5107404896	 1.6096605566	 0.079446
H	 1.3665788467	 1.1208260186	 2.2198646415	 0.125761
H	 0.2021585292	 0.3154589268	 3.2671795821	 0.119041
H	 1.7878558894	-1.6515511637	 3.4735230686	 0.144331
H	 2.9157335247	-0.8269457841	 2.4001215259	 0.168342
