23
gdb 64487	2.54097	1.34647	1.13005	1.3675	81.5	-0.2402	0.0648	0.305	1211.4181	0.20628	-425.436522	-425.427218	-425.426274	-425.469821	36.744	
C	 0.3947092306	 1.6017943642	-0.0134582571	-0.427538
C	-0.059170026	 0.1351719597	 0.0150694572	 0.343577
O	-1.4939902231	 0.0815242367	-0.0305626519	-0.462298
C	 0.4136412637	-0.5773180977	-1.2704609314	-0.187013
C	-0.1802971878	-1.9802721082	-1.4771972851	-0.245281
C	 0.5525558544	-3.1055379446	-0.7286688236	-0.064705
O	 1.0805871728	-2.7484592718	 0.5371077536	-0.246985
C	 0.2071798778	-2.045192646	 1.4040276369	-0.09121
C	 0.4427098109	-0.5371017715	 1.3079207238	-0.202774
H	 1.4845743923	 1.6810772977	-0.0812939248	 0.116925
H	-0.0454752466	 2.1163363587	-0.8724256595	 0.120004
H	 0.0809288054	 2.1265849825	 0.8971197272	 0.099712
H	-1.828549785	 0.5746320641	 0.7259252878	 0.274242
H	 0.1159770138	 0.0563315898	-2.1130495304	 0.095938
H	 1.5087811975	-0.6162450826	-1.2706596103	 0.099101
H	-1.2353016227	-1.9492888307	-1.193969634	 0.127815
H	-0.1592235646	-2.2332557329	-2.5437947069	 0.091691
H	-0.1185801533	-3.975339801	-0.6329784722	 0.084164
H	 1.4263129884	-3.4322884073	-1.3034075093	 0.101871
H	-0.8455193228	-2.2896314247	 1.2070203115	 0.099489
H	 0.4382513915	-2.3826418397	 2.4213395181	 0.097218
H	 1.5195218444	-0.3622198671	 1.418075679	 0.103048
H	-0.0439779815	-0.0421564775	 2.1613873613	 0.07301
