19
gdb 121558	4.66124	0.44934	0.42187	1.8986	83.41	-0.2482	-0.0286	0.2196	2516.9332	0.155366	-422.996517	-422.985556	-422.984612	-423.035824	35.967	
C	-0.099450179	 1.2749117601	-0.5802001536	-0.230506
O	-0.074608712	 0.0382641461	 0.0926577825	-0.227164
C	-1.3005779597	-0.6500376906	 0.022379991	-0.042778
C	-1.1343497817	-1.967270056	 0.788262884	-0.353272
C	-2.3485846075	-2.7727663614	 0.7823254679	 0.050647
C	-3.3676083713	-3.4145709496	 0.7787509652	 0.056744
C	-4.5882270718	-4.2052853053	 0.7164223311	-0.412955
C	-4.8687027688	-4.7283886176	-0.694189574	 0.171524
O	-5.96657933	-4.7924888097	-1.1756638006	-0.230549
H	 0.889450492	 1.7262710491	-0.470771118	 0.129523
H	-0.3181758512	 1.1518956488	-1.6526568918	 0.10658
H	-0.8514784173	 1.9572001255	-0.1534665769	 0.10652
H	-2.114445762	-0.0547694236	 0.4674062869	 0.097851
H	-1.5796643327	-0.8542375433	-1.024210719	 0.097086
H	-0.3028644187	-2.5264306169	 0.3427043424	 0.139656
H	-0.8350607394	-1.7364195246	 1.8177072949	 0.140745
H	-4.5006267049	-5.0891595832	 1.367465025	 0.154697
H	-5.4680482026	-3.6484398139	 1.0551562255	 0.153071
H	-3.9620187213	-5.0625450941	-1.2440468725	 0.092579
