22
gdb 102816	1.66857	1.43686	0.8865	3.599	83.33	-0.2468	0.0323	0.2791	1403.8986	0.193371	-404.369569	-404.359306	-404.358361	-404.4056	37.005	
C	-0.1299336371	 1.4013052938	-0.5365318122	-0.385912
C	-0.0286138012	-0.0891477469	-0.2035982034	-0.190037
C	 0.6040298515	-0.3873563734	 1.1645299999	 0.020739
N	-0.215253215	 0.1804248786	 2.2383566491	-0.269922
C	 0.3051763785	 0.7999981932	 3.3286657596	 0.15959
O	 1.4868591938	 0.9929039982	 3.5331000717	-0.332238
C	 0.8454480167	-1.8730079738	 1.3656550186	 0.019125
C	 2.1519054042	-2.481854232	 0.9198570275	-0.268615
C	 1.8483300976	-2.3350863599	 2.3903646595	-0.2787
H	 0.8610059668	 1.8670405851	-0.5592466858	 0.123884
H	-0.5942001711	 1.553578304	-1.5154430199	 0.114009
H	-0.7274783011	 1.9367862076	 0.2072067749	 0.116882
H	-1.0255577465	-0.5521463171	-0.2433052167	 0.087602
H	 0.5694611592	-0.6032702443	-0.9639406938	 0.111256
H	 1.5661472417	 0.1301173595	 1.2418414369	 0.111695
H	-1.2117771669	 0.0262845751	 2.2146904376	 0.241315
H	-0.4871451327	 1.1352157195	 4.0281232218	 0.072778
H	-0.0417377297	-2.4906609994	 1.2387563867	 0.071423
H	 2.1356024745	-3.473857782	 0.482332521	 0.109726
H	 2.8974968628	-1.8209747624	 0.48902371	 0.113646
H	 2.3732828514	-1.5661370991	 2.9457841007	 0.144261
H	 1.6250876028	-3.2307484242	 2.9594886663	 0.107492
