17
gdb 16283	3.20356	1.82142	1.43672	1.7911	75.68	-0.2322	0.0194	0.2515	927.8233	0.141368	-326.649692	-326.641928	-326.640984	-326.681381	29.889	
C	-0.0358994532	 1.6226560839	-0.0210214619	-0.417699
C	 0.0602421754	 0.1046918266	 0.0384370691	-0.041612
C	 1.0973374347	-0.6617260687	-0.8265003499	-0.179259
N	 1.6603934679	-1.4002737153	 0.3601901437	-0.16164
C	 2.20198982	-0.3570315202	 1.2360203005	-0.270494
C	 0.7299902786	-0.5540561081	 1.2583767881	 0.15164
C	 0.0278618221	-1.0660615045	 2.3875454225	 0.210276
C	-0.5994927208	-1.4623339944	 3.3352063332	-0.39893
H	 0.9392228071	 2.0995785891	 0.1205347701	 0.115861
H	-0.4269104325	 1.9482491452	-0.9910316966	 0.119386
H	-0.710353907	 2.0005827737	 0.7546442906	 0.12777
H	-0.9311315115	-0.333836866	-0.1012498822	 0.092565
H	 0.6578818532	-1.3651527087	-1.5352871434	 0.114856
H	 1.846307937	-0.0518008606	-1.3444941808	 0.10335
H	 2.7553238054	-0.7535139125	 2.0811606054	 0.131801
H	 2.6245207478	 0.5436895999	 0.7941311595	 0.111314
H	-1.1436566643	-1.8223387991	 4.1728742421	 0.190813
