16
gdb 93559	2.91761	1.43737	1.0993	3.479	68.19	-0.2365	-0.0061	0.2304	1077.4014	0.126288	-475.061395	-475.053548	-475.052603	-475.093959	29.715	
O	 0.1283774454	 1.363931858	 0.3788371945	-0.427067
C	 0.0524330275	-0.0170277402	 0.0378832722	 0.063943
C	-1.3942230387	-0.4871947655	 0.0131434644	-0.1226
O	-2.1603355777	 0.2501859371	-0.9598068654	-0.244627
C	-2.2550625111	-0.2123896261	-2.2264474804	 0.44465
O	-3.254116593	-0.0634313673	-2.8789301841	-0.362236
N	-1.1302214809	-0.8474275883	-2.74228186	-0.372554
C	 0.2204375993	-0.6993312498	-2.4037865694	 0.003815
C	 0.7707635979	-0.3350807504	-1.2421949681	-0.120575
H	-0.3594164965	 1.8428662899	-0.3020883383	 0.285613
H	 0.5540096782	-0.53390643	 0.8665165201	 0.097847
H	-1.465978664	-1.5617468357	-0.1856995086	 0.125262
H	-1.8723925411	-0.2623831775	 0.9683635373	 0.136594
H	-1.3094053098	-1.1511817579	-3.6874263172	 0.267521
H	 0.8662910647	-0.9333309858	-3.2443771338	 0.121073
H	 1.8516316096	-0.2490697607	-1.2206155731	 0.103342
