21
gdb 86555	3.74045	1.05459	1.03303	0.8712	78.48	-0.2338	0.0839	0.3176	1288.9161	0.182587	-424.197213	-424.188363	-424.187419	-424.231469	32.707	
C	-0.4998071028	 1.0753863829	 0.3446587717	-0.40056
C	 0.3727732254	-0.1453629343	 0.1395350352	 0.180394
C	 0.9063118384	-0.4381349406	-1.2797419047	-0.315915
C	 2.3018857781	-0.3267613366	-0.6276930534	 0.119082
O	 1.7239684019	 0.0530879491	 0.6410669015	-0.317399
C	 3.0917428634	-1.6155138671	-0.5288837939	 0.124097
C	 4.0293898311	-1.7502814791	 0.6936808937	-0.289851
C	 3.0718093319	-2.8785182507	 1.1206938268	-0.054747
O	 2.2743197013	-2.7197639326	-0.0743131847	-0.293935
H	-0.0647840264	 1.9532894243	-0.1435406523	 0.116219
H	-1.4991412967	 0.9036324071	-0.0707289311	 0.115166
H	-0.6076865697	 1.294720261	 1.411754737	 0.124867
H	-0.0755397839	-1.0260378025	 0.6154620026	 0.084143
H	 0.6592201345	-1.4191397179	-1.6855574784	 0.123412
H	 0.6837626135	 0.3387351436	-2.0137662347	 0.101579
H	 2.9553719406	 0.4653404857	-1.0209019866	 0.07128
H	 3.5497799758	-1.8363191931	-1.5041653189	 0.070833
H	 5.0487894322	-2.0622353473	 0.4640087659	 0.106352
H	 4.0428312341	-0.8806728293	 1.3507068827	 0.127194
H	 3.5083213102	-3.8823679801	 1.18369839	 0.098352
H	 2.487210207	-2.6789921022	 2.0253740518	 0.109438
