16
gdb 84054	3.41245	1.29336	1.0507	5.3348	76.09	-0.2676	-0.0645	0.2032	1131.7602	0.125451	-396.923418	-396.915669	-396.914724	-396.955719	29.095	
C	-0.1277092545	 1.5872248933	-0.0042664104	-0.392429
C	 0.0616783281	 0.0704938785	 0.0223414483	 0.01124
N	 0.8490994176	-0.3989751084	-1.1382597107	-0.258257
C	 1.7677484627	-1.1585864828	-0.6864280511	 0.229357
C	 2.7370398755	-1.7968621437	-1.5341423772	 0.283627
N	 3.532547515	-2.3107020332	-2.196528378	-0.315762
N	 1.8457031067	-1.4197434488	 0.7174316204	-0.154007
C	 2.2265033771	-0.1735947946	 1.4449681141	-0.254522
C	 0.7971247874	-0.5076699448	 1.2388692428	-0.046422
H	 0.8319777715	 2.10659586	 0.0662098478	 0.124799
H	-0.6124270256	 1.889932274	-0.9354552484	 0.142187
H	-0.7542685074	 1.9058329759	 0.8341186156	 0.12497
H	-0.9267708186	-0.4019507384	-0.0524216354	 0.110694
H	 2.6861219933	-0.3483759838	 2.4117195564	 0.139833
H	 2.6718683039	 0.6229243346	 0.856025225	 0.140021
H	 0.2172070674	-0.8887903076	 2.0723645507	 0.114671
