13
gdb 133340	3.27115	1.39629	0.97924	3.9042	68.08	-0.224	-0.0482	0.1758	1087.145	0.089149	-494.007717	-494.000221	-493.999277	-494.039664	28.56	
N	 0.0420420172	 1.3616582362	 0.1668942131	-0.563378
C	-0.0695780267	 0.0008233718	 0.0632199001	 0.475204
C	-1.2164230018	-0.7201793938	 0.038072095	-0.288613
C	-1.1570291213	-2.1543035621	-0.0027173074	 0.206207
N	-2.1798929285	-2.9314844925	-0.0284679804	-0.546324
C	 0.2427460376	-2.6232270138	-0.0160979606	 0.290031
F	 0.4196225557	-3.933804928	-0.0519717469	-0.047569
N	 1.3200549213	-1.9389769732	-0.0013685159	-0.13434
O	 1.1696893204	-0.5562360956	 0.0365534275	-0.276615
H	 0.9213990605	 1.7477772865	-0.1430820303	 0.273398
H	-0.7692636542	 1.8941067864	-0.1039576804	 0.273171
H	-2.1793416826	-0.2273495943	 0.0574295429	 0.115899
H	-1.8797877276	-3.9064737977	-0.0563742569	 0.22293
