16
gdb 45458	2.72529	1.69227	1.19681	3.6324	68.51	-0.216	-0.0969	0.1191	1013.3514	0.124741	-437.88423	-437.876778	-437.875834	-437.916704	28.013	
O	-0.0256727844	-0.0182437716	-0.4172025217	-0.269693
C	-0.0667753819	 1.136536566	-0.093561858	 0.301464
C	-1.2835337387	 2.0138181732	 0.187115601	-0.308776
N	-0.7850170204	 3.2664078467	 0.7656054587	-0.098984
C	-0.5115316509	 3.2706452898	 2.2320493523	-0.173047
C	 0.9123896478	 3.8174585635	 1.9674731627	-0.240481
C	 0.677450948	 3.4211175465	 0.4871935753	-0.112507
C	 1.1912138161	 2.0488166393	 0.0948587139	 0.300565
O	 2.3260008718	 1.6822049388	-0.0500224037	-0.279941
H	-1.8089097251	 2.2030140985	-0.7600342013	 0.144009
H	-1.9927659695	 1.5133226674	 0.8523342946	 0.145595
H	-1.1977986715	 3.8995719986	 2.8057956238	 0.117826
H	-0.5011035694	 2.2656349338	 2.6794924626	 0.10275
H	 0.9961863057	 4.8967065907	 2.0968589724	 0.127031
H	 1.7429876959	 3.3242515833	 2.4728671636	 0.129815
H	 0.9340120264	 4.1625694456	-0.2785941261	 0.114374
