17
gdb 108447	2.28151	1.78021	1.24518	3.5565	67.94	-0.2491	0.0029	0.252	1040.1166	0.135179	-458.959019	-458.950721	-458.949777	-458.992171	30.326	
C	-0.077575969	 1.3817404582	-0.014960436	-0.275469
O	-0.0763711667	-0.0431019029	-0.0620784846	-0.289122
C	 0.6441669788	-0.5585048839	-1.119375676	 0.259699
C	 0.0718388991	-0.4709045993	-2.5767382901	-0.309532
C	 0.2933487351	-2.0083124794	-2.7453210896	-0.236007
C	 0.8868561253	-2.0756232349	-1.3263375305	 0.0351
O	 2.3342010573	-1.8373789151	-1.3400904177	-0.256286
C	 2.1828977386	-0.4927227037	-1.085457209	 0.401501
O	 3.0374037058	 0.3154194409	-0.9076597745	-0.333446
H	 0.9400042839	 1.7764179974	 0.0801023497	 0.149098
H	-0.5466931753	 1.8110251808	-0.9110547918	 0.115478
H	-0.6635867895	 1.6618538515	 0.861934526	 0.135198
H	-0.9853828825	-0.1987687049	-2.5526068666	 0.124414
H	 0.5969525414	 0.1890946966	-3.2689367616	 0.122457
H	-0.6384410463	-2.5675901741	-2.8503799025	 0.120129
H	 0.9873970963	-2.3197071272	-3.5271836843	 0.127641
H	 0.6192027077	-2.8568838001	-0.6183290509	 0.109146
