18
gdb 28227	4.65113	1.18819	0.96626	1.0994	81.28	-0.1542	0.0529	0.207	1203.979	0.151685	-398.148229	-398.14025	-398.139306	-398.180559	30.962	
N	 0.125526896	 1.3730449202	-0.1826226762	-0.605003
C	-0.0210866247	-0.0241296571	-0.0564902846	 0.309576
C	-1.1423605222	-0.8376199747	-0.0608034168	-0.401726
C	-0.6447897891	-2.1714339428	-0.0646592262	 0.321732
C	 0.7203405047	-2.1367617126	-0.0731094469	 0.22463
C	 1.2980152893	-3.4864552771	 0.2163180572	-0.336543
C	 0.0410618461	-4.3552489327	-0.1059827094	-0.154603
N	-1.1379475414	-3.480220626	 0.1521258743	-0.400748
N	 1.1114196768	-0.8095970464	-0.0127704081	-0.391592
H	-0.7426880317	 1.7950777331	-0.4877100873	 0.245185
H	 0.3911799995	 1.8134828307	 0.6940110293	 0.242273
H	-2.1663588792	-0.4973598324	-0.0394249933	 0.078715
H	 2.1539935899	-3.7898906292	-0.3967645965	 0.096907
H	 1.596728022	-3.5994906116	 1.270118626	 0.103096
H	 0.0848088924	-4.6522462446	-1.1641106169	 0.094189
H	-0.0121470882	-5.2619489056	 0.5026066035	 0.101084
H	-1.9271217367	-3.7308345261	-0.4327757606	 0.221532
H	 2.0234580364	-0.445596075	-0.2292272475	 0.251296
