19
gdb 17434	2.64884	2.57278	1.82103	1.9533	74.04	-0.2309	0.0806	0.3116	835.0913	0.165715	-327.867142	-327.859731	-327.858787	-327.898234	29.323	
C	 0.0244016178	 1.5983357402	 0.0185035052	-0.43164
C	 0.0866417385	 0.0758273956	 0.0480283776	-0.007077
C	 1.0842568372	-0.7044284246	-0.807882282	-0.052162
C	 1.2190234694	-1.7700591313	 0.2084372991	-0.103536
N	 2.3863829256	-0.8861168322	-0.0652449962	-0.151727
C	 2.1669988714	-0.2232457116	 1.2610771311	-0.186051
C	 0.7032861673	-0.70182047	 1.2621521514	 0.278665
C	-0.0849733159	-0.9330172777	 2.5237421166	-0.514602
H	 1.0087902117	 2.0595906205	 0.1331762204	 0.123032
H	-0.3881429952	 1.9451253282	-0.9353595504	 0.118213
H	-0.6247013214	 1.982111776	 0.8139501599	 0.114742
H	-0.9117157051	-0.3382541868	-0.1394599002	 0.07357
H	 1.1460972883	-0.7760576429	-1.8864254763	 0.091359
H	 1.2399563056	-2.8511381352	 0.1593122305	 0.09217
H	 2.7773833329	-0.7452430135	 2.0041826666	 0.102432
H	 2.383056201	 0.8503885213	 1.3025370796	 0.092437
H	-0.2914395511	 0.015175978	 3.0345722758	 0.121904
H	-1.0477126105	-1.4115026959	 2.3132848551	 0.118985
H	 0.4614137724	-1.5735393081	 3.2249620161	 0.119287
