20
gdb 106052	2.58834	1.62315	1.28031	2.0356	78.23	-0.2149	0.0829	0.2979	1073.1375	0.170512	-403.056329	-403.047862	-403.046918	-403.089256	32.55	
C	 0.1754709612	 1.2248448836	 0.3191820751	-0.257803
O	-0.0451684953	-0.0845039387	-0.1843417168	-0.287546
C	-1.347761673	-0.5065519731	-0.0957780825	 0.39837
C	-1.9588882794	-0.9947343219	 1.2515135777	-0.157556
C	-3.456493134	-1.0277436349	 1.0347542857	-0.182522
N	-3.2017135226	-1.4634157432	-0.4011802559	-0.186773
C	-1.7996613442	-1.915102919	 0.0667141127	-0.110647
C	-2.5237020332	-0.2450360014	-1.0319772273	 0.002505
C	-3.2866879572	 1.067852022	-1.0865306257	-0.432908
H	 1.2472576477	 1.4184386118	 0.2397112231	 0.129742
H	-0.366829925	 1.9811078823	-0.2638927319	 0.116413
H	-0.1317916053	 1.3055552352	 1.3705572466	 0.112487
H	-1.3681106521	-0.972087794	 2.1595147114	 0.091074
H	-3.9452776802	-1.8515730389	 1.5628784357	 0.109379
H	-4.057012967	-0.1205749661	 1.1513941797	 0.096231
H	-1.3530487554	-2.8841415703	-0.1018199603	 0.105081
H	-2.2511534248	-0.5547478848	-2.0468838151	 0.086
H	-3.4191746169	 1.5251414588	-0.1028247758	 0.11871
H	-2.7508399176	 1.7858549913	-1.716130102	 0.120504
H	-4.2761470057	 0.9103390415	-1.5302816845	 0.129261
