22
gdb 98270	2.60513	1.01363	0.90812	3.9897	79.69	-0.2536	0.0222	0.2758	1441.1851	0.192003	-441.528774	-441.517622	-441.516678	-441.565586	39.631	
C	-0.0042263237	 1.4346208556	 0.1349047419	-0.337027
N	-0.1042364152	-0.0128344074	 0.0893660328	-0.308765
C	-1.2846115535	-0.6711836152	 0.0077524704	 0.394717
O	-2.3738302518	-0.1128117985	-0.0300908779	-0.402621
C	-1.2142509637	-2.2078141217	-0.0409664441	 0.03002
O	-2.5180055768	-2.7081727098	 0.1033417959	-0.439792
C	-0.5566827008	-2.7248454359	-1.3469177226	 0.028081
C	-0.4205584518	-4.251462781	-1.2879749053	-0.393746
C	-1.3461964876	-2.2820039227	-2.5851281066	-0.39497
H	 0.590638315	 1.8168053647	-0.7015059448	 0.130877
H	-1.0160878899	 1.8343114629	 0.065896126	 0.174808
H	 0.4500098373	 1.7719481892	 1.0728226089	 0.131166
H	 0.7410397619	-0.5576742565	 0.1405378027	 0.252686
H	-0.599820846	-2.5485878226	 0.8091608274	 0.075667
H	-3.0853841152	-1.9182176094	 0.0647912748	 0.293394
H	 0.4528459394	-2.2911503008	-1.3995174086	 0.053511
H	-1.4051419966	-4.7150270567	-1.1795115587	 0.140947
H	 0.0432086254	-4.6377482335	-2.2011220793	 0.107144
H	 0.1945911462	-4.5658423102	-0.437656839	 0.104042
H	-1.3999577801	-1.1918977993	-2.6689978891	 0.118784
H	-0.8818031699	-2.6672759075	-3.4979532915	 0.107633
H	-2.3690905128	-2.6652107639	-2.5335404934	 0.133444
