19
gdb 110041	2.30384	1.52989	1.07677	1.2619	71.74	-0.2301	-0.0317	0.1984	1167.1236	0.157363	-460.16909	-460.159785	-460.15884	-460.20336	33.649	
C	 0.1098370578	 1.6500561964	-0.2465927607	-0.247351
O	 0.4261460565	 0.2976683621	 0.0504513197	-0.243348
C	 0.7068962866	-0.4897972765	-1.0695435691	 0.012959
C	 1.3619290078	-1.8341863523	-0.7002504878	 0.058545
C	 0.8383250302	-2.4336533196	 0.601665509	-0.392306
O	 1.083814128	-2.664878026	-1.8414984185	-0.267129
C	-0.2210453353	-2.3811571378	-2.3166307864	-0.18213
C	-0.5305910394	-0.9581535858	-1.8611683337	 0.347891
O	-1.5482770255	-0.3438663975	-2.0456488396	-0.305493
H	 0.9346727004	 2.1359910751	-0.7905542294	 0.104336
H	-0.8064618362	 1.7290714069	-0.8387925737	 0.146122
H	-0.0273613812	 2.1553824574	 0.7118386505	 0.12879
H	 1.3652312092	 0.0413820056	-1.7808885491	 0.09489
H	 2.4505563138	-1.7486416396	-0.6571514823	 0.094278
H	-0.2522040846	-2.5304976979	 0.5953059612	 0.121029
H	 1.2734570637	-3.4254700435	 0.7492134373	 0.123955
H	 1.1080593618	-1.7938091229	 1.4450746487	 0.137688
H	-0.2380224763	-2.4678845452	-3.4082425262	 0.138879
H	-0.9804081373	-3.0678716588	-1.9119017501	 0.128394
