18
gdb 13947	4.82721	1.3116	1.21749	0.7125	77.3	-0.2487	0.0532	0.3019	1044.5758	0.153328	-310.607215	-310.599412	-310.598468	-310.639489	29.997	
C	-0.0738520616	-1.1938432446	 0.2684564797	-0.460952
C	-0.0667271801	-0.0056422065	 0.0871923895	 0.317793
C	-0.0235616105	 1.4375307811	-0.1431209707	-0.473066
C	 1.3838136858	 1.9897082128	-0.1271749064	 0.395182
C	 2.0824379402	 2.4064376311	 1.1354389625	-0.308312
C	 1.8747234766	 3.4305402439	 0.0493846551	-0.115482
C	 2.9172690867	 3.2319426904	-1.0570275411	-0.218129
C	 2.4225353711	 1.7578328075	-1.2347045554	-0.280501
H	-0.0893944973	-2.2425630682	 0.4325826583	 0.193996
H	-0.4997082221	 1.6613633431	-1.1078750219	 0.126683
H	-0.6258967635	 1.9481112606	 0.6196553256	 0.127314
H	 1.4412476329	 2.5147230787	 2.0051035266	 0.109032
H	 3.0817788738	 2.0411114069	 1.3643058301	 0.103155
H	 1.2998857912	 4.3330348039	 0.2236186984	 0.082646
H	 2.7281761427	 3.8404399621	-1.9440778206	 0.102385
H	 3.9614487784	 3.3697452221	-0.7572185344	 0.096442
H	 3.1480658134	 0.959553107	-1.0506314088	 0.099692
H	 1.9668859924	 1.592164938	-2.2144421962	 0.102121
