17
gdb 97312	3.66657	1.08174	0.85188	5.8497	74.99	-0.2444	-0.003	0.2414	1338.3908	0.136272	-455.186475	-455.177693	-455.176749	-455.220881	30.425	
C	-0.157810154	 1.475576768	 0.1453939607	-0.311731
N	 0.0264089707	 0.0415917628	 0.1710076819	-0.180065
C	-0.9931608565	-0.6765034784	-0.0090155795	 0.102492
N	-0.9955141186	-2.0700952399	-0.0081759264	-0.186812
C	-2.2131607702	-2.8260017227	-0.2601933136	-0.19838
C	-1.745755863	-4.2473280159	 0.0855372475	-0.094071
O	-0.3232210273	-4.2041051518	-0.0395829056	-0.242714
C	 0.1250164951	-2.9103996806	 0.0206062198	 0.502386
O	 1.2793762448	-2.6209014117	 0.0722436119	-0.348514
H	 0.4719177489	 1.9104163922	-0.6390522638	 0.134166
H	-1.2006355728	 1.7911544703	-0.0292116712	 0.091489
H	 0.180249664	 1.9039872505	 1.0957984656	 0.132463
H	-2.0051913217	-0.2756353584	-0.1752742683	 0.080862
H	-3.0373113184	-2.4945135196	 0.3772255221	 0.13143
H	-2.5280877182	-2.7403533081	-1.3084227862	 0.126828
H	-2.0058420233	-4.520767532	 1.1143920576	 0.126729
H	-2.1349346092	-5.0060873947	-0.5952240426	 0.133443
