23
gdb 91034	2.10827	1.73844	1.47666	0.2433	88.34	-0.2277	0.0843	0.312	1085.3372	0.206178	-351.109563	-351.101009	-351.100065	-351.141849	35.017	
C	-0.399012146	 1.5387360716	 0.0037530323	-0.419503
C	 0.0079576481	 0.0705630499	-0.0172822291	-0.012729
C	 1.0605492724	-0.455294858	-1.0555320702	-0.283135
C	 1.8236376128	-1.1873448936	 0.0919643604	-0.060265
C	 3.0251037254	-0.4902867529	 0.7711789678	-0.056115
C	 2.8963209829	 1.0019769398	 0.7635156906	-0.300628
C	 2.0649329907	 0.2182617493	 1.7434193312	-0.104527
C	 0.8596233324	-0.5544791206	 1.1407727745	 0.354646
C	 0.1378537339	-1.4039089914	 2.1662951915	-0.487672
H	 0.454403625	 2.2098471696	 0.1269510727	 0.120409
H	-0.9103215825	 1.8147108276	-0.9256220547	 0.111041
H	-1.0918627425	 1.7373929624	 0.829645212	 0.11151
H	-0.9045963814	-0.5300721136	-0.1136924891	 0.06587
H	 0.6426286574	-1.1221238547	-1.8136942751	 0.092721
H	 1.6341154441	 0.3180580683	-1.5737048864	 0.098628
H	 1.9061571797	-2.271970706	 0.0119161881	 0.06106
H	 3.9724247745	-0.97310008	 0.9815589186	 0.080204
H	 3.7296837291	 1.5275701278	 1.2211013891	 0.108554
H	 2.468039554	 1.5328161207	-0.0779204324	 0.108029
H	 2.1797953472	 0.381470064	 2.8099862822	 0.076421
H	-0.4544972859	-0.7825585766	 2.8504553522	 0.112634
H	-0.5437619417	-2.1148879955	 1.6864502797	 0.108774
H	 0.8475754506	-1.9760713181	 2.7751814339	 0.114073
