15
gdb 11807	3.63868	1.85083	1.40328	1.4102	63.26	-0.2574	0.0138	0.2712	882.298	0.117741	-399.770926	-399.763267	-399.762323	-399.803099	28.067	
O	 0.0743082373	 1.2862351082	-0.25381845	-0.425826
C	 0.0798881315	-0.1031529287	-0.0606375409	-0.101368
C	 0.1176657304	-0.6009485414	 1.3782080082	 0.40396
N	 0.9261721216	-0.4522366513	 2.3235518926	-0.557488
O	-1.0962907581	-1.2491122496	 1.2983420825	-0.27034
C	-1.2984854742	-0.7550077867	-0.0555529149	 0.445543
C	-2.6031511242	-0.2189593823	-0.5111007716	-0.321185
C	-2.051188068	-1.5256179246	-1.0763921421	-0.343956
H	 0.8312679389	 1.6466309708	 0.2222542097	 0.302795
H	 0.8069644149	-0.6103192594	-0.7102097367	 0.101663
H	 0.5973709856	-0.8967897183	 3.1822395779	 0.232398
H	-3.4368841	-0.2891981389	 0.1785802162	 0.13299
H	-2.5884471388	 0.6713634936	-1.129737355	 0.140179
H	-1.6729292389	-1.5400043329	-2.0933079087	 0.127477
H	-2.5247796681	-2.4458700185	-0.7525308472	 0.133157
