14
gdb 49904	3.76025	1.05505	0.90634	6.2507	72.11	-0.2725	-0.0444	0.2281	1235.5221	0.101216	-432.891922	-432.883624	-432.88268	-432.925691	28.706	
N	 0.060864881	 1.3165376795	-0.0474158768	-0.399894
C	 0.0056039284	 0.0525544391	-0.009011273	 0.072484
N	-1.1999026973	-0.6371351504	 0.0417018566	-0.100574
C	-1.4477854028	-2.0863539442	 0.067164721	-0.189518
C	-2.9763338684	-1.7743202349	 0.0710849594	-0.310527
C	-3.74272118	-2.2476317085	 1.2054492957	 0.288276
N	-4.3416432121	-2.6270089655	 2.1181889544	-0.308867
C	-2.5441811657	-0.2622268358	 0.0886790131	 0.44549
O	-3.1168961527	 0.7785394816	 0.1135159246	-0.298599
H	 1.0302961181	 1.6276811649	-0.0773322011	 0.240182
H	 0.8571449823	-0.6395236396	-0.0100670382	 0.108757
H	-1.0950675633	-2.6144934362	-0.8221294514	 0.139575
H	-1.0863136792	-2.5811641223	 0.9714854699	 0.151163
H	-3.4781994684	-2.0335741679	-0.8641497641	 0.162052
