14
gdb 67355	3.01493	1.95036	1.36303	2.5462	60.62	-0.2492	-0.0138	0.2354	881.3689	0.1014	-473.777677	-473.770948	-473.770004	-473.808614	26.729	
N	 0.1533825059	 1.4625600731	-0.0120943448	-0.621369
C	 0.0386091868	 0.058285605	-0.0306014265	 0.176286
C	 0.0130709028	-0.7979562076	 1.2816912563	 0.009012
O	-1.4234951009	-0.5562979268	 1.4792191573	-0.324033
C	-1.3059777856	-0.8112504898	 0.0419399395	-0.026578
C	-0.3065703382	-1.9586113706	 0.3058675856	 0.063524
O	 0.6673539637	-2.023974079	-0.7382905296	-0.236694
C	 0.915935656	-0.6994332095	-1.007623354	 0.440568
O	 1.6469202598	-0.3043170388	-1.8632392818	-0.335232
H	 0.2292211113	 1.8448242158	-0.9475872354	 0.251732
H	-0.6165443309	 1.8953044803	 0.4847674275	 0.248814
H	 0.6722378156	-0.7491423692	 2.1478516254	 0.116017
H	-2.2066563728	-0.7729439675	-0.5708494037	 0.111319
H	-0.6171994834	-2.9386180756	 0.6522378244	 0.126636
