21
gdb 109844	2.43381	1.01055	0.82262	4.0033	80.67	-0.2377	-0.0123	0.2255	1470.7217	0.179469	-424.209791	-424.199297	-424.198353	-424.246346	36.618	
C	 0.0537792271	 1.1106298268	 0.1341574151	-0.236139
O	-0.4067544458	-0.1096320167	-0.4162889274	-0.238623
C	 0.4900159267	-0.6722718469	-1.3241290921	 0.101683
C	 1.5189298168	-1.6727320881	-0.8379388832	-0.069864
C	 1.6917521801	-1.9806626557	 0.6337524945	-0.411964
C	 0.2948953378	-2.1323631214	-1.6253619839	-0.094099
C	-0.8438222701	-2.9106898134	-0.9870194518	-0.293014
C	-2.1535017969	-2.6296569417	-1.6969147701	 0.159147
O	-2.862777019	-3.4693205703	-2.189757003	-0.244055
H	 0.9849556301	 0.9767836718	 0.701255373	 0.114126
H	 0.2286766245	 1.8615131367	-0.6505689891	 0.111383
H	-0.7270547445	 1.475210533	 0.8053549792	 0.130563
H	 0.7627039848	-0.0033262511	-2.1420740221	 0.084464
H	 2.4455906698	-1.6917853475	-1.4062621907	 0.087409
H	 0.7903722673	-1.7475672746	 1.2047540846	 0.13158
H	 1.9325874238	-3.0369554383	 0.7947874613	 0.121202
H	 2.5106131794	-1.3884706913	 1.0559326873	 0.117088
H	 0.4881410182	-2.4209425954	-2.655255514	 0.097612
H	-0.6557408716	-3.9881401844	-1.0098176035	 0.115868
H	-0.9728931032	-2.6002856964	 0.0553158183	 0.127982
H	-2.4205339454	-1.5500397549	-1.7344388124	 0.087652
