19
gdb 103479	2.31089	1.68773	1.21928	1.5097	71.63	-0.2202	0.0584	0.2786	1083.309	0.156307	-460.09671	-460.087335	-460.086391	-460.130317	34.963	
C	 0.313286635	 1.077951387	 0.3693246543	-0.251221
O	-0.251081256	-0.0620179876	-0.2578155274	-0.282354
C	 0.5343184084	-0.6054476439	-1.2769900781	 0.36923
C	 0.4010979128	 0.0709390807	-2.6261201302	-0.456155
C	 1.8969656276	-1.2011561117	-0.965930994	-0.083187
O	 1.9486995383	-1.686626389	 0.3739360951	-0.285838
C	 0.8556578743	-2.6108535083	 0.1245468248	-0.145098
C	 0.6947021908	-2.0957585339	-1.3048700453	 0.229467
O	 0.3029516487	-2.8430351821	-2.3934072111	-0.448376
H	 1.2886671666	 0.8422247668	 0.8110644447	 0.129493
H	 0.4251719573	 1.9215043076	-0.3264455064	 0.103621
H	-0.3786895977	 1.3732634672	 1.1615534697	 0.124879
H	 0.6823921764	 1.1264026318	-2.5591623616	 0.118279
H	 1.0384452124	-0.4069652253	-3.3739329376	 0.124977
H	-0.6328868825	 0.0091258732	-2.9769723231	 0.136184
H	 2.8290110585	-0.9393622983	-1.4555807697	 0.104235
H	 1.2127930878	-3.6475641169	 0.1718095066	 0.096267
H	 0.0147715307	-2.461299603	 0.8067321864	 0.125172
H	 0.9023184405	-3.5927049644	-2.4839579974	 0.290425
