18
gdb 4486	3.54441	1.66051	1.15389	0.9041	76.66	-0.1827	0.0561	0.2388	1056.6023	0.153985	-344.030871	-344.021793	-344.020849	-344.064632	32.488	
C	 0.0598486817	 1.5124957679	 0.0721404554	-0.502039
C	 0.0368156579	 0.0235539581	-0.0371230299	 0.317973
C	 0.023046603	-0.8015242813	-1.1404878126	-0.326965
C	 0.0026263275	-2.1580996722	-0.694109238	 0.266803
C	-0.017156967	-3.3924196737	-1.5431026376	-0.506847
C	 0.0046119059	-2.1176675818	 0.6857523273	 0.139462
N	-0.0096936824	-3.1101429984	 1.6976351186	-0.617832
N	 0.0253575176	-0.7923304816	 1.066234179	-0.302523
H	 0.9495384093	 1.8779615382	 0.6010244684	 0.122288
H	 0.0653199061	 1.9564604328	-0.9261578777	 0.133898
H	-0.81676419	 1.9050896001	 0.6034100598	 0.122278
H	 0.0272109179	-0.4656411113	-2.1678736715	 0.079518
H	 0.8619786878	-3.4570789631	-2.1957545649	 0.121002
H	-0.0304323957	-4.2941219553	-0.9220255144	 0.099224
H	-0.8990881268	-3.4300034667	-2.1940988041	 0.121001
H	 0.7972275488	-3.7227105975	 1.6387016784	 0.240761
H	-0.8351616877	-3.6976276298	 1.6402094559	 0.240762
H	 0.0307399963	-0.5006857244	 2.0288423979	 0.251235
