20
gdb 104075	2.71113	1.28215	1.13414	2.2254	76.22	-0.2475	0.031	0.2785	1207.0997	0.16917	-440.316623	-440.307027	-440.306083	-440.350946	35.187	
C	-0.1985060232	 1.3976387957	 0.0158601988	-0.255924
O	-0.0301643706	-0.0116094553	 0.0222062101	-0.265823
C	 0.6996140861	-0.5556955794	 1.0878675812	 0.444975
C	 0.1110448545	-0.2449273957	 2.4578996159	-0.458023
C	 0.9046652939	-2.0569242644	 0.7636158008	-0.22762
N	 2.3087671425	-2.187552812	 0.3693418802	-0.307468
C	 2.839383635	-1.0497225634	 0.55889351	 0.398545
C	 4.2612982845	-0.6794930828	 0.3126875455	-0.479088
O	 2.0573594304	-0.0419741312	 1.0545123711	-0.282584
H	 0.7590762124	 1.9159449785	 0.1370318271	 0.127368
H	-0.6212776689	 1.6507324543	-0.9587689853	 0.130531
H	-0.8929938593	 1.7356596748	 0.7958689878	 0.111307
H	-0.9285274025	-0.5824895229	 2.4992776309	 0.130507
H	 0.6809435772	-0.7628614416	 3.2327645933	 0.129765
H	 0.1433311602	 0.8251670469	 2.6753844699	 0.129458
H	 0.6951170389	-2.6993596534	 1.6260013324	 0.108941
H	 0.2389924616	-2.3518945656	-0.0517302706	 0.127474
H	 4.808831802	-1.5497980474	-0.0475450355	 0.151933
H	 4.3212606531	 0.1247815267	-0.4274629494	 0.143585
H	 4.7225705121	-0.3091258321	 1.2337204956	 0.14214
