23
gdb 114836	3.01603	1.2974	1.22544	0.9857	84.62	-0.2442	0.0804	0.3246	1174.6098	0.208978	-388.307162	-388.298982	-388.298037	-388.339875	32.661	
C	-0.0601146424	 1.414513304	-0.0951638074	-0.238111
O	-0.0194865304	 0.0424988906	 0.2141165144	-0.247296
C	-1.2678179339	-0.6089728407	 0.0895744552	 0.165136
C	-1.7227023642	-0.8831257601	-1.3858997598	-0.247334
C	-1.8979313764	-2.4182558844	-1.4181285373	 0.003061
C	-0.4980861265	-3.0723700997	-1.3807134109	-0.206721
C	-0.0111286282	-2.7857888548	 0.0762027621	-0.204384
C	-1.2021687497	-2.023238968	 0.7016486332	-0.045847
C	-2.4089004057	-2.6953580336	 0.0143627631	-0.225125
H	 0.9426032788	 1.8162435554	 0.0719403805	 0.124018
H	-0.342030018	 1.6000651984	-1.1427122644	 0.104793
H	-0.7708846214	 1.9553008494	 0.5504436941	 0.101393
H	-2.0307782788	-0.0136580584	 0.6162899457	 0.056364
H	-2.6611320153	-0.3699097304	-1.6173390933	 0.088656
H	-0.9673878341	-0.5355117557	-2.0975393311	 0.099065
H	-2.530406243	-2.7736050447	-2.2342524932	 0.052299
H	-0.5674969757	-4.1479138711	-1.5717354485	 0.089449
H	 0.1701896306	-2.6511757971	-2.1376364642	 0.092924
H	 0.1723603534	-3.7152801026	 0.62311086	 0.087402
H	 0.9038369778	-2.1933401625	 0.1084544295	 0.116729
H	-1.2009239753	-2.0151687925	 1.7930278187	 0.056072
H	-3.365078173	-2.2093840296	 0.2357378975	 0.087274
H	-2.4941928287	-3.7610086719	 0.2484594461	 0.090184
