21
gdb 78665	2.6271	1.53553	1.1987	1.2497	82.65	-0.2395	0.0796	0.3191	1134.6273	0.181948	-387.049474	-387.040723	-387.039779	-387.08211	34.542	
C	-0.162200803	 1.4376632758	 0.0286385755	-0.411674
C	 0.0363702468	-0.0727863376	 0.050480561	 0.026914
C	 0.8446804009	-0.6125582878	-1.1333556793	-0.111214
C	 2.1466363734	-0.5189808746	-0.369570402	-0.137029
C	 1.2374241495	-0.5412497071	 0.9213288128	-0.131956
C	 1.2270854402	-2.0910110505	 0.7820173848	 0.075286
O	 0.0456812528	-2.8175719123	 1.0465486637	-0.439395
C	 1.569878028	-1.8886027416	-0.6831370811	 0.322449
C	 2.0556313765	-2.9285621046	-1.648345598	-0.514121
H	 0.7817219604	 1.9588693192	-0.1663460147	 0.112737
H	-0.8737036876	 1.7318823587	-0.7509748308	 0.11
H	-0.5547823615	 1.795729296	 0.9870225528	 0.10711
H	-0.9076167941	-0.5859216578	 0.2653045109	 0.072414
H	 0.6840372376	-0.4265556742	-2.1891149088	 0.076203
H	 3.109545001	-0.0882122182	-0.6005062965	 0.085939
H	 1.4559265105	-0.06320797	 1.8758522953	 0.057475
H	 2.0890162736	-2.5294823958	 1.3069957022	 0.058844
H	-0.0358496264	-2.9314417185	 1.9988273995	 0.279576
H	 1.2592280033	-3.6395694665	-1.8945314891	 0.130319
H	 2.3954662741	-2.4727067383	-2.5844946773	 0.115918
H	 2.8947640739	-3.4976025146	-1.231636181	 0.114205
