18
gdb 48252	2.46822	1.06821	0.80653	5.3657	77.27	-0.26	-0.0376	0.2224	1404.1147	0.145819	-401.956685	-401.947185	-401.946241	-401.992422	33.203	
O	 0.2753283688	-0.0420820771	 0.4255859429	-0.238203
C	 0.1759397257	 1.1011554703	 0.071100268	 0.175181
C	 1.3541203695	 2.050947379	-0.104546257	-0.093936
C	 1.2112604386	 2.9033014777	-1.3867537039	-0.367122
C	 1.2435235389	 2.1113588744	-2.6147027416	 0.259124
N	 1.2707688519	 1.4721128922	-3.5767982669	-0.295501
C	 1.429873787	 2.9522456665	 1.1204911646	 0.002339
C	 2.0591963486	 2.4428075957	 2.3903061623	-0.272715
C	 2.7633440685	 3.4976796496	 1.5750292724	-0.276646
H	-0.8219549967	 1.5666575795	-0.1134895399	 0.0775
H	 2.2579572463	 1.4369264762	-0.1622970608	 0.1155
H	 0.2700442686	 3.4664563677	-1.3589840884	 0.154025
H	 2.0179480878	 3.6428332219	-1.4191673347	 0.163537
H	 0.5749643719	 3.6145940501	 1.2380197958	 0.093012
H	 1.6111087702	 2.7319178626	 3.3338874054	 0.123679
H	 2.4639514081	 1.4366815048	 2.379821758	 0.135133
H	 3.6469949445	 3.2015548968	 1.0191439793	 0.121998
H	 2.7976058818	 4.5114384621	 1.9576677845	 0.123094
