16
gdb 33023	5.35642	0.94543	0.81178	1.5977	72.82	-0.2642	-0.0497	0.2145	1371.8232	0.125397	-434.098074	-434.089885	-434.088941	-434.132151	28.272	
C	 0.4014782264	 1.4249819332	-0.0419273308	-0.226803
O	 0.6142957984	 0.0336335329	-0.1049157078	-0.214474
C	 0.1763814749	-0.626698521	 1.0432123654	-0.131326
C	 0.4161703248	-2.1133888276	 0.9490897859	 0.329366
N	 0.020004155	-2.8195047178	 2.0178357632	-0.276846
C	 0.2339523054	-4.1272004331	 1.9280436905	 0.0801
N	 0.7914466774	-4.763258857	 0.8942256661	-0.240076
C	 1.1414447182	-3.9533267497	-0.1037521778	 0.079665
N	 0.9831958738	-2.629565229	-0.1400705181	-0.25231
H	 0.9434659831	 1.8836858011	 0.800206236	 0.107324
H	 0.7728786928	 1.8503734665	-0.9765228444	 0.134695
H	-0.6671190472	 1.6707138735	 0.0632355335	 0.107327
H	 0.6885941841	-0.260763695	 1.9508956261	 0.118896
H	-0.9023552457	-0.4714155038	 1.2230548331	 0.118908
H	-0.0731938134	-4.7375717552	 2.7748750882	 0.132251
H	 1.6015014219	-4.4147452381	-0.9752682291	 0.133302
