10
gdb 133446	3.17678	1.51152	1.0242	3.6469	52.91	-0.2967	-0.0909	0.2057	996.1771	0.052228	-549.82174	-549.814766	-549.813822	-549.854092	24.741	
F	 0.115730873	 0.0431765189	-0.1971845751	-0.020282
C	-0.0565803318	 1.3262030796	-0.055352974	 0.440002
N	-1.1960481416	 1.7590386228	 0.2878875007	-0.212903
O	-1.2981822428	 3.1625880571	 0.4197839785	-0.242276
C	-0.2465988302	 4.0032123227	 0.1943576473	 0.425912
O	-0.3952310212	 5.1777839292	 0.3214815246	-0.262987
C	 1.0653564993	 3.3733615708	-0.2114330117	 0.266858
N	 2.0834881738	 4.0633682661	-0.4397431534	-0.438972
O	 1.0785304774	 1.9825754067	-0.3169190314	-0.213759
H	 2.8851941441	 3.486773686	-0.7017043854	 0.258407
