21
gdb 86142	2.0537	1.64017	1.1518	2.0339	77.75	-0.2398	-0.0242	0.2157	1165.531	0.181236	-424.266164	-424.256375	-424.255431	-424.300839	36.29	
C	-0.268132517	 1.5864749281	-0.0243384271	-0.395704
C	 0.0257332463	 0.0800919118	-0.0201061219	-0.089417
C	 0.8026127979	-0.4528010311	-1.2486748126	-0.263072
C	 2.2454342846	-0.7265001179	-0.7579002001	 0.108878
O	 3.0840708311	 0.4194199595	-0.8486603828	-0.430974
C	 2.0486140107	-1.2048299509	 0.6968391435	-0.115772
C	 3.2696144322	-1.2282664032	 1.6075245054	-0.403982
C	 0.901356443	-0.3144554734	 1.1855029576	 0.37172
O	 0.7248302982	 0.0526328069	 2.3201105477	-0.324184
H	 0.6384352741	 2.1737167	-0.2109750855	 0.109535
H	-0.9876573411	 1.840138175	-0.8080839422	 0.120925
H	-0.6746324339	 1.8937836935	 0.9425451613	 0.142444
H	-0.9281545124	-0.4478982151	 0.098867402	 0.105952
H	 0.3597476398	-1.385895578	-1.6121319558	 0.102662
H	 0.8143453347	 0.2515142452	-2.0843575096	 0.111896
H	 2.744931091	-1.4791158791	-1.3728740499	 0.088035
H	 2.7332717349	 1.11468132	-0.2812277358	 0.284496
H	 1.610302977	-2.2147825399	 0.6356582768	 0.103517
H	 3.8133862817	-0.2823157751	 1.5488907407	 0.124555
H	 2.9598171726	-1.3798014706	 2.644577886	 0.134337
H	 3.9595239947	-2.0280060453	 1.3239090523	 0.114152
