18
gdb 72773	2.77049	1.74731	1.48058	1.7145	77.55	-0.2319	0.0024	0.2343	954.5368	0.149199	-401.894798	-401.887521	-401.886577	-401.926001	29.99	
O	-0.264379127	 1.4456020618	-0.1572401418	-0.489753
C	-0.013150159	 0.0505386545	-0.0696155287	 0.41484
C	-1.1989711388	-0.6260421269	 0.6908187569	-0.262362
C	-0.3501180747	-0.5634671482	 2.0199845251	-0.317268
C	 0.8373487728	-0.4082587179	 1.0951136315	 0.183211
C	 1.9620716918	-1.0228254666	 0.7185550385	-0.198559
C	 2.0258001328	-1.0389481067	-0.7808699394	-0.075609
N	 0.9550497902	-1.9326672564	-1.3219812157	-0.333733
C	 0.7264003045	-0.4786858787	-1.2873227728	-0.170246
H	 0.5900759474	 1.8912378999	-0.1822594657	 0.27545
H	-2.1308553052	-0.0580942448	 0.6776803424	 0.109951
H	-1.3553755116	-1.6517427547	 0.3566205849	 0.129912
H	-0.5847296084	 0.3375202702	 2.5926981264	 0.118942
H	-0.3643892763	-1.4317529225	 2.6813322216	 0.110957
H	 2.6218825817	-1.6192306504	 1.3386159714	 0.100062
H	 2.9558666526	-0.9622616526	-1.3347435877	 0.089271
H	 1.1966408366	-2.1918427475	-2.2778262022	 0.2289
H	 0.6648337708	 0.0751094874	-2.2187337148	 0.086033
