25
gdb 104612	2.12409	1.10506	0.92633	1.2343	88.66	-0.2538	0.0666	0.3204	1466.3041	0.226811	-389.48656	-389.475552	-389.474608	-389.522741	41.219	
C	 0.1076871121	 1.1538979905	-0.8402586162	-0.383553
C	-0.0284049163	-0.1395615447	-0.0273585012	-0.261143
C	-1.4671926004	-0.5822380185	 0.2076445738	 0.430508
C	-2.3604907933	 0.3781213202	 0.9833091392	-0.306358
C	-1.8145694406	 0.817028832	 2.352555643	 0.135185
C	-2.8210619478	 1.6809832629	 3.1153872605	-0.396775
O	-1.38043868	-0.2866980446	 3.143547074	-0.426317
C	-2.1265182268	-1.3905239338	-0.8881685374	-0.320697
C	-1.7049284115	-2.0601887997	 0.3979724477	-0.304971
H	 1.1601098914	 1.3895112423	-1.0266859077	 0.111064
H	-0.3937836636	 1.0645397648	-1.8100035359	 0.115371
H	-0.3313104757	 2.0115033234	-0.3199123859	 0.11372
H	 0.4992746395	-0.945909764	-0.551231013	 0.087582
H	 0.4774982542	-0.0298554399	 0.9393911056	 0.113589
H	-2.5530479175	 1.2813556505	 0.3888253918	 0.099171
H	-3.3432927576	-0.0931827102	 1.1307119251	 0.079532
H	-0.9012347145	 1.4043813668	 2.1986144887	 0.090632
H	-3.7507510899	 1.1266328566	 3.2954852947	 0.10387
H	-2.4080583924	 1.9764557606	 4.0835512743	 0.121987
H	-3.0763900973	 2.5860614239	 2.5541633483	 0.112774
H	-2.127037631	-0.886875889	 3.2461201797	 0.275223
H	-3.1875263934	-1.2493484782	-1.0681762299	 0.103016
H	-1.5518688482	-1.5990775275	-1.7848556203	 0.106457
H	-0.8471130132	-2.7239530497	 0.3759954256	 0.108723
H	-2.4845245262	-2.3760523046	 1.0837037055	 0.091412
