13
gdb 128999	4.17133	1.68466	1.20001	3.1178	76.98	-0.2155	-0.0819	0.1336	923.1595	0.094016	-411.78819	-411.782395	-411.781451	-411.81829	23.135	
N	 0.0507532005	 1.2786947197	 0.0089625355	-0.066835
N	 1.1152150296	 2.1015725147	 0.0030854918	-0.247215
C	 2.2986723115	 1.5154795992	-0.0117792492	-0.060952
C	 2.4339627882	 0.1220088139	-0.0208409196	 0.205999
C	 3.4129251308	-0.8491397917	-0.0358441633	-0.182765
N	 2.8588931709	-2.1086990927	-0.0373956651	-0.226296
C	 1.5335377799	-1.9963000224	-0.0237409796	-0.12249
C	 1.1664350991	-0.6278206304	-0.0125659489	 0.298664
N	-0.0088190403	-0.0348393572	 0.002255534	-0.27516
H	-0.8408401297	 1.7517877914	 0.0203401529	 0.302478
H	 3.1424216089	 2.1988639898	-0.0162718047	 0.140558
H	 4.486687543	-0.7261435919	-0.0457038406	 0.112819
H	 0.8790682475	-2.8565377023	-0.0220820032	 0.121195
