20
gdb 73085	2.43875	1.77271	1.38361	2.0009	78.41	-0.2394	0.0232	0.2627	1021.179	0.173171	-403.156846	-403.149032	-403.148088	-403.188727	31.169	
C	 0.0113749131	 1.5449574884	-0.0195003553	-0.478417
C	-0.0406082181	 0.024134401	 0.0160492331	 0.289132
C	-1.3446140185	-0.6651151912	 0.5147764425	-0.281007
C	-0.4823491406	-1.677422159	 1.322307133	-0.243257
C	 0.7207029238	-0.7045538733	 1.1677140859	 0.031903
N	 2.0398960388	-1.2412555937	 0.9129588214	-0.277393
C	 2.503989114	-1.1065438577	-0.256977059	 0.118167
O	 1.8940717009	-0.6057558178	-1.3615190362	-0.227573
C	 0.4568297888	-0.5879899234	-1.2940429657	-0.127307
H	 1.0147273212	 1.8977384306	-0.2833236257	 0.127956
H	-0.6884120871	 1.9472508037	-0.7621255453	 0.113082
H	-0.2508068527	 1.973313605	 0.9532819729	 0.113632
H	-1.9185028403	-0.0007916361	 1.1666024985	 0.103703
H	-2.0214039026	-1.0695393254	-0.2434377459	 0.097377
H	-0.8033353615	-1.9169822041	 2.3375814978	 0.104055
H	-0.3111347703	-2.6116052619	 0.7822171886	 0.108761
H	 0.7928621389	-0.0570801811	 2.0487851969	 0.083516
H	 3.5253422013	-1.4017728379	-0.4926458857	 0.120986
H	 0.1055232899	-1.6216747393	-1.402839366	 0.10751
H	 0.1289729011	-0.0191478667	-2.1677878059	 0.115174
