17
gdb 68462	2.41038	2.0885	1.36457	4.0655	67.62	-0.2462	0.0009	0.2471	953.01	0.136451	-458.986905	-458.97934	-458.978395	-459.018718	29.334	
C	-0.122654839	 1.5253569948	 0.0233197243	-0.474781
C	 0.026241709	 0.0294628964	-0.026478539	 0.230046
C	 0.7756523439	-0.6859090674	-1.1781662611	-0.296709
C	-0.3454775384	-1.7182367512	-0.9670092128	 0.070908
C	-0.0088346228	-2.6711203012	 0.1646997718	-0.072498
O	 0.4969312104	-1.9507986673	 1.3076075737	-0.246477
C	 0.5030362776	-0.5918930789	 1.2927958038	 0.446386
O	 0.8833419207	 0.0227139589	 2.2488102105	-0.334444
O	-1.1976920129	-0.685398236	-0.4013272191	-0.318331
H	 0.8365900483	 1.9908315131	 0.2631046423	 0.141881
H	-0.4763068029	 1.8967561746	-0.9416257168	 0.121585
H	-0.836332087	 1.8118724256	 0.800133756	 0.145937
H	 0.6657433301	-0.1421062857	-2.1176083383	 0.120521
H	 1.8126176652	-0.9915923992	-1.0243422509	 0.120118
H	-0.7950114867	-2.2287390422	-1.8225256918	 0.09346
H	-0.9055834273	-3.2091197867	 0.4889393656	 0.131397
H	 0.7572697618	-3.3976125678	-0.1278667084	 0.121001
