17
gdb 23557	2.39468	1.59312	1.08571	0.9787	77.99	-0.2318	0.0035	0.2353	1113.476	0.136122	-417.901197	-417.893249	-417.892305	-417.933597	30.788	
O	-0.0908860914	 1.3006955984	 0.1290555871	-0.394524
N	 0.0154511409	-0.0958191426	-0.0191580716	-0.281311
C	-1.1255837364	-0.6415465626	-0.1008223889	 0.359385
C	-2.555524464	-0.2314996197	 0.013696734	-0.153119
C	-3.3739044887	-0.8993126601	-1.0769041109	-0.289132
C	-2.9393837411	-1.7363113677	 0.0814205479	-0.134868
C	-1.4696260207	-2.1056734205	-0.0896822287	 0.300391
C	-0.8000653756	-3.2354852296	-0.7740511416	-0.30293
N	-0.7760100774	-3.115378911	 0.697908943	-0.376215
H	 0.832244725	 1.5681164372	 0.1917551956	 0.306482
H	-2.9286182708	 0.6077723157	 0.583173379	 0.115016
H	-4.4196344571	-0.6081748496	-1.0853488781	 0.123729
H	-2.9443826463	-1.0587312559	-2.0618998681	 0.121936
H	-3.6171247434	-2.2178453765	 0.7727875375	 0.113173
H	-1.389694216	-4.0660437221	-1.1527102959	 0.12199
H	 0.1069033031	-3.016470195	-1.3312807065	 0.125199
H	 0.11909261	-2.7402619884	 1.0058034063	 0.244799
