17
gdb 47464	3.06579	1.11254	0.86925	4.6267	72.71	-0.2412	-0.0426	0.1986	1288.7382	0.136851	-418.04079	-418.032241	-418.031296	-418.075111	30.824	
O	-0.0301644407	 0.0889011883	 0.5013952879	-0.307783
C	-0.0479758375	 1.2241385789	 0.106057248	 0.393927
C	-1.2579094187	 2.0491296888	-0.319972076	-0.323053
C	-0.768004687	 3.4912972517	-0.1118699692	-0.1836
N	 0.6952482096	 3.4732096215	-0.3279158403	-0.292159
C	 1.1952180109	 2.1371821	-0.0172228066	-0.111219
C	 2.0154362431	 2.0773703086	 1.2937251053	-0.326189
C	 3.293566585	 2.7702348617	 1.1717490741	 0.265028
N	 4.307660258	 3.3112521185	 1.0530679471	-0.306708
H	-1.4451925538	 1.8481218539	-1.3831501184	 0.134753
H	-2.1501700539	 1.7625565766	 0.2395949207	 0.137186
H	-1.2363763901	 4.2128784739	-0.7834518987	 0.120176
H	-0.9832200197	 3.8183502306	 0.9132672973	 0.119588
H	 0.9175737178	 3.7290370637	-1.2800591518	 0.235209
H	 1.8252236285	 1.7470639638	-0.8249346178	 0.12392
H	 1.4424929341	 2.5312169304	 2.1093499091	 0.151778
H	 2.1873804144	 1.0276835793	 1.5547115195	 0.169146
