19
gdb 90522	4.22824	1.04217	0.9546	4.7479	80.19	-0.2262	0.0221	0.2483	1266.1034	0.160401	-382.041433	-382.033189	-382.032245	-382.074735	31.337	
C	 0.5107370934	 1.6062921716	-0.3014420256	-0.41348
C	 0.046421034	 0.1712379435	-0.1221060582	 0.07382
C	 0.7981481972	-0.9487559251	-0.9045002678	-0.290365
C	 1.0739736739	-1.6046660181	 0.4621612306	 0.036228
C	 2.4090573457	-1.1990161952	 1.1644247337	-0.178585
C	 1.5529982377	-0.1275935267	 1.9221944426	-0.186806
N	 0.3151325874	-0.5235925263	 1.1956836655	-0.140426
C	 3.0574558219	-2.2105909258	 1.9792093779	 0.266252
N	 3.5552571344	-3.0218061443	 2.6362601363	-0.324432
H	 1.5999785559	 1.7080882878	-0.2557568377	 0.116411
H	 0.1910507941	 1.9722388535	-1.2826955968	 0.126911
H	 0.0715655029	 2.2618171993	 0.458257685	 0.131526
H	-1.0335902054	 0.1317377217	-0.2980649861	 0.091999
H	 0.1776440452	-1.5397769727	-1.5808404458	 0.114801
H	 1.6897012012	-0.62169547	-1.4483735966	 0.105135
H	 0.756835647	-2.6392263095	 0.6105012893	 0.100064
H	 3.1425067713	-0.7748133364	 0.4729969354	 0.121793
H	 1.4615987893	-0.3311827611	 2.991972687	 0.132273
H	 1.8765800129	 0.9072339738	 1.7910465811	 0.116881
