20
gdb 102860	2.11937	1.14296	0.82931	4.5768	77.15	-0.2473	-0.0191	0.2282	1427.7605	0.168262	-440.326415	-440.315778	-440.314834	-440.363744	36.402	
C	 0.590850976	 1.4856879189	 0.1206850606	-0.386823
C	 0.2734209914	-0.0041971311	-0.0280257388	-0.189569
C	-1.2290144814	-0.3233544451	-0.0244073523	 0.021634
C	-1.4939716374	-1.8108129334	-0.3485256569	-0.277387
C	-2.9701683339	-2.1384575284	-0.4550663828	 0.161566
O	-3.5236950579	-2.9720804547	 0.2148618538	-0.246704
N	-1.8314219107	 0.0586716096	 1.2495383944	-0.26682
C	-3.073621947	 0.6056965006	 1.3428558562	 0.159994
O	-3.7863628391	 0.8699806529	 0.3964397482	-0.330088
H	 1.6714623772	 1.6552602473	 0.1175757256	 0.119444
H	 0.1578625618	 2.0638801317	-0.7023004525	 0.126513
H	 0.188774333	 1.8894360471	 1.0543738158	 0.121027
H	 0.6966041281	-0.381020305	-0.9661252864	 0.108327
H	 0.7622902243	-0.5769582236	 0.7729019021	 0.096665
H	-1.7331712238	 0.291952523	-0.7768763886	 0.124211
H	-1.0310423975	-2.0378247476	-1.3191834056	 0.118876
H	-1.0465255046	-2.4656346277	 0.4065792487	 0.111125
H	-3.5246051928	-1.5438302392	-1.2125017241	 0.09588
H	-1.3590923183	-0.2006017082	 2.1024737947	 0.248574
H	-3.3657315475	 0.797712173	 2.393366288	 0.083556
