16
gdb 44485	3.85612	1.60127	1.46657	2.7658	67.	-0.245	0.0222	0.2672	894.1626	0.127774	-437.900588	-437.894385	-437.893441	-437.931054	25.74	
O	 0.0151456436	-0.0367034251	 0.0536754829	-0.37734
C	-0.0098943607	 1.1677549323	-0.0254209554	 0.403217
N	-1.1349595226	 1.9737921394	-0.0454863999	-0.312626
C	-0.7736496861	 3.3522863327	-0.2091224046	-0.021051
C	 0.1415707761	 4.0491701889	 0.8839232524	 0.045597
C	 1.0371497386	 2.897457024	 1.3645887913	-0.222237
C	 1.1512904474	 2.1713465505	-0.0268624383	-0.185966
C	 0.6086043836	 3.3638510391	-0.8879885144	 0.08411
O	 0.9440451095	 4.5891344073	-0.2058610411	-0.292168
H	-2.0640630261	 1.6141320942	 0.098335449	 0.256001
H	-1.5438933702	 3.9893542326	-0.6371977436	 0.102936
H	-0.2106183465	 4.7981568377	 1.5917543199	 0.08654
H	 1.9979861418	 3.2861493664	 1.7055552393	 0.122003
H	 0.6004795396	 2.2675180693	 2.14265802	 0.118515
H	 2.1160769845	 1.738247848	-0.2736148135	 0.095301
H	 0.7734301575	 3.3692813327	-1.9643906141	 0.097169
