16
gdb 34374	2.66048	1.70801	1.32207	4.1193	73.35	-0.2483	-0.006	0.2422	977.5912	0.126809	-396.928427	-396.92113	-396.920186	-396.960391	27.605	
N	-0.010206234	-1.0814341247	-0.4297645512	-0.337747
C	-0.0038634156	 0.0501299792	-0.1938421904	 0.258834
C	-0.0464221053	 1.4792043421	 0.0973330057	 0.157235
C	-0.410457448	 2.368959706	-1.1346401411	-0.292805
C	 1.0657369531	 2.8469000849	-1.1401347011	-0.175512
N	 1.3103723158	 2.1269493513	 0.1558680849	-0.125511
C	 1.249394264	 2.8993300346	 1.3291801535	 0.03666
N	 0.2542929586	 2.7595321196	 2.1104053423	-0.219713
C	-0.6698431859	 1.8017633838	 1.4919371159	-0.233514
H	-0.7555294914	 1.8393774811	-2.0226149093	 0.136923
H	-1.1252706358	 3.1520766506	-0.8742606318	 0.129875
H	 1.6723937205	 2.4267289103	-1.9451219211	 0.135622
H	 1.2313997886	 3.9255842673	-1.0864714619	 0.125378
H	 2.0727974211	 3.5783031743	 1.5350112597	 0.136198
H	-1.6724163239	 2.2359955627	 1.4111486614	 0.125802
H	-0.7483013918	 0.9013234369	 2.1085144846	 0.142274
