22
gdb 86349	2.55249	1.12376	0.93482	4.0949	85.73	-0.2939	0.0396	0.3335	1351.21	0.193935	-367.228079	-367.218295	-367.21735	-367.262857	36.415	
C	-0.3488271692	 1.1453905282	-1.456997329	-0.419792
C	 0.1183674681	-0.2313378487	-0.9905141934	 0.02027
C	 1.5762608063	-0.6057238819	-1.3967871416	-0.242014
C	 2.0475252707	-0.4392836102	 0.0794476848	-0.006967
C	 2.9072181531	 0.7945578784	 0.345300174	-0.405196
C	 0.5430027132	-0.3822640677	 0.5091734776	 0.013493
C	 0.1080755665	 0.6648167392	 1.5458775204	-0.371455
C	-1.3295699969	 0.6188835718	 1.8085951903	 0.266099
N	-2.4685170879	 0.5661948722	 1.9991917758	-0.314492
H	 0.3747464291	 1.9333774773	-1.2212587825	 0.112843
H	-0.4819801518	 1.1470305274	-2.5441902277	 0.119879
H	-1.3076499625	 1.419671906	-1.0050984658	 0.136208
H	-0.6292705783	-0.9709310703	-1.2900072415	 0.079841
H	 1.674404071	-1.6282273435	-1.7693707657	 0.101153
H	 2.0497243083	 0.067995393	-2.1177576842	 0.095919
H	 2.5650598462	-1.3154778241	 0.4818540179	 0.073486
H	 2.4627406286	 1.7083858548	-0.0627453566	 0.118832
H	 3.0748821163	 0.952398931	 1.4166022338	 0.114114
H	 3.8887233146	 0.6755985883	-0.125962114	 0.11983
H	 0.2309036422	-1.3633780828	 0.8783464294	 0.090679
H	 0.6352964607	 0.4943039881	 2.4922009415	 0.148682
H	 0.3653083016	 1.6784250134	 1.2231563966	 0.148588
