18
gdb 93557	2.64575	1.50445	1.18046	3.548	74.85	-0.2544	-0.0114	0.243	1082.2888	0.148669	-439.081934	-439.073547	-439.072603	-439.115089	31.683	
O	 0.1057826124	 1.3541159205	 0.3631849115	-0.424942
C	 0.0429164554	-0.0360164139	 0.0486710621	 0.065425
C	-1.4345888572	-0.4265219667	 0.010873074	-0.074385
O	-2.2913139874	 0.3002629606	-0.8699872116	-0.253932
C	-2.067129497	 0.4224789333	-2.2171112415	 0.365804
N	-2.9929402952	 0.2126368562	-3.0549118599	-0.476201
C	-0.7369589905	 0.9829994836	-2.6697375649	-0.304624
C	 0.4473791019	 0.0743963009	-2.4205511393	-0.067128
C	 0.7945205663	-0.3854186653	-1.2207558089	-0.112708
H	 1.019124669	 1.6361331343	 0.2498309045	 0.285759
H	 0.4676622488	-0.6289160741	 0.8759787487	 0.072607
H	-1.5016284221	-1.5007796806	-0.2082744986	 0.106503
H	-1.8662408001	-0.2460287614	 0.9989675549	 0.12524
H	-3.8234201541	-0.1287290261	-2.5647919923	 0.217038
H	-0.8370615191	 1.2008011109	-3.7324968705	 0.131223
H	-0.5807258832	 1.9264366333	-2.1330255312	 0.143194
H	 1.0397678107	-0.2004405834	-3.2889974127	 0.107086
H	 1.6602351014	-1.034398882	-1.1198622141	 0.094043
