18
gdb 116257	2.14439	1.56342	1.11423	4.0679	71.53	-0.2697	0.0136	0.2833	1143.6563	0.147576	-439.084921	-439.075805	-439.074861	-439.120089	31.768	
C	-0.084344097	 1.4140785053	 0.0198917391	-0.247307
O	 0.2309541075	 0.0369016646	 0.1014574864	-0.23207
C	 0.7169355466	-0.5146271835	-1.0872772478	 0.134837
C	 1.2228586171	-1.9455164396	-0.8454409264	-0.285529
C	 0.8947863386	-2.6921532813	-2.1545568867	-0.083694
O	 0.2335227132	-1.74864871	-3.0195870302	-0.242653
C	-0.3313604742	-0.735209759	-2.2230858312	-0.098451
C	-1.6546113857	-1.118164446	-1.6801875476	 0.287198
N	-2.6907839693	-1.4282436489	-1.2737568985	-0.324658
H	 0.7805701919	 2.0042950223	-0.3182490076	 0.110703
H	-0.9292888016	 1.6054567937	-0.6562014035	 0.119639
H	-0.3644576552	 1.7355963143	 1.024761464	 0.141033
H	 1.5107972736	 0.1178396674	-1.5133529834	 0.084491
H	 2.2871203228	-1.9627781301	-0.6058943277	 0.120595
H	 0.6762976778	-2.3597797712	 0.0050568004	 0.141138
H	 1.7804426339	-3.0398071818	-2.6915444681	 0.120701
H	 0.2380119195	-3.551628049	-1.9760199928	 0.122361
H	-0.4650465994	 0.1449125228	-2.8582215485	 0.131664
