17
gdb 43352	3.12214	1.5838	1.09901	3.8584	82.26	-0.2354	-0.0605	0.1749	1071.0158	0.138588	-384.730696	-384.723745	-384.722801	-384.762024	27.634	
O	 0.0794915178	 0.0553607235	 0.4365259039	-0.337228
C	 0.008608053	 1.2142745148	 0.0885157082	 0.288232
C	-1.2306605107	 2.0402601238	-0.072384166	-0.171549
C	-0.944133131	 3.2754035112	-0.5176028428	-0.10652
C	 0.5304003954	 3.4365789733	-0.8060373954	-0.097953
C	 1.4256316015	 4.5400571658	-0.1939841421	-0.241919
C	 2.7816928751	 3.8009927992	 0.0208287573	-0.247479
C	 2.3456717352	 2.3648515916	 0.2549543851	-0.18745
C	 1.1061056113	 2.1775161036	-0.2007806741	 0.207503
H	-2.2128919478	 1.646041845	 0.1577305345	 0.11685
H	-1.6766336129	 4.0508950428	-0.7179446089	 0.114026
H	 0.6649976263	 3.4417182356	-1.900546759	 0.101208
H	 1.5148600157	 5.431778921	-0.8197791893	 0.100067
H	 1.0269404602	 4.8461744409	 0.779143701	 0.111341
H	 3.4339541496	 3.8826856936	-0.8607931887	 0.116904
H	 3.3515462023	 4.2055680224	 0.8637130684	 0.114246
H	 2.9415316889	 1.6315405519	 0.7859338678	 0.119721
