17
gdb 66537	3.06993	1.55803	1.22017	3.4391	78.07	-0.2319	-0.0219	0.21	1034.3488	0.133973	-384.596994	-384.589137	-384.588192	-384.629354	29.975	
C	 0.0835839129	 1.5399267832	 0.0461455554	-0.525058
C	 0.0091380056	 0.049362408	 0.0064034043	 0.260823
C	 0.8649119012	-0.9643232489	-0.7460814338	-0.148519
C	 0.8018262697	-1.0017658235	 0.7764129323	-0.14853
C	-0.3842349631	-2.003930707	 0.6870220075	-0.121987
C	-0.3224788839	-1.9672243787	-0.8043815584	-0.122036
C	-1.2040333311	-0.9284359011	-0.0679348897	 0.226405
C	-2.6553683869	-0.8314512243	-0.125478785	 0.004146
O	-3.3970556903	-1.7910797598	-0.1805494486	-0.285823
H	 1.1271518552	 1.8691508962	 0.0971517648	 0.127016
H	-0.3630987619	 1.9899080818	-0.848185227	 0.127101
H	-0.4358819638	 1.9463780839	 0.9218105043	 0.127097
H	 1.7100404475	-0.8010602809	-1.4008119102	 0.095243
H	 1.5895943439	-0.8725586533	 1.5059989684	 0.095237
H	-0.793934279	-2.7485264044	 1.3555447524	 0.11311
H	-0.6739587321	-2.6772965582	-1.5402195986	 0.113113
H	-3.0604875839	 0.2059821271	-0.1165689082	 0.06266
