10
gdb 21370	5.61066	2.35262	1.65758	5.3802	54.42	-0.2517	-0.0567	0.195	670.141	0.06318	-409.614632	-409.609409	-409.608465	-409.64381	19.827	
N	-0.0473158278	 1.3722505583	 0.0105329372	-0.377727
C	 1.2764945807	 1.746704387	-0.0009478088	 0.027716
N	 2.1376275277	 0.7370903907	-0.0145461449	-0.346828
C	 1.3144821032	-0.3430941563	-0.01231997	 0.418724
C	-0.0141807131	-0.003395371	 0.0025938894	 0.321675
N	-0.7648683654	-1.1255437579	 0.0039336381	-0.212822
N	 0.0016790295	-2.131636473	-0.0096436509	-0.035554
O	 1.4255308785	-1.6585407971	-0.0201353492	-0.242634
H	-0.8449534169	 1.9849085944	 0.0218953313	 0.29096
H	 1.5596304537	 2.789027925	 0.0018505076	 0.156491
