25
gdb 118056	3.50469	0.71847	0.6255	0.4389	86.79	-0.2481	0.0727	0.3208	1887.7801	0.225793	-426.622708	-426.610826	-426.609882	-426.660228	42.29	
C	-0.1320349588	 1.5848486661	 0.0710266556	-0.378706
C	 0.0223917657	 0.0635876598	-0.0080888627	-0.199072
C	 0.7340707624	-0.5299521458	 1.2154930321	 0.130264
O	 0.0658459637	-0.1478703892	 2.4214381018	-0.431299
C	 0.9186207026	-2.0606149108	 1.1466999697	-0.014422
C	 1.6720278231	-2.5248347266	-0.1081494219	-0.408553
C	 1.625095842	-2.5624271619	 2.4094036726	-0.058215
O	 1.6033898442	-3.9764788101	 2.4117230178	-0.235873
C	 2.2432832399	-4.5299011535	 3.5345156267	-0.226663
H	 0.8467600297	 2.0771197722	 0.088737685	 0.113612
H	-0.6837737563	 1.9705215216	-0.7915097459	 0.107777
H	-0.6625033451	 1.8753402052	 0.9810093291	 0.125848
H	-0.9665297747	-0.4104353332	-0.1015404756	 0.083655
H	 0.5746362991	-0.2037809868	-0.9148269012	 0.104056
H	 1.7257578279	-0.0634118434	 1.3028756854	 0.08316
H	-0.8221716849	-0.5223723776	 2.38846093	 0.275572
H	-0.08300517	-2.5179138898	 1.1403772015	 0.068106
H	 1.901733483	-3.5891815663	-0.0240567519	 0.135008
H	 1.0896229158	-2.3737206811	-1.0203368683	 0.113575
H	 2.6193090345	-1.9825012631	-0.2182771098	 0.108635
H	 2.6684700249	-2.1971413956	 2.4258287073	 0.076874
H	 1.1269046505	-2.1669351655	 3.3051606495	 0.099013
H	 3.308447971	-4.2508036103	 3.5789298558	 0.101873
H	 1.7691653419	-4.2089018584	 4.4759416232	 0.102365
H	 2.167393308	-5.6173786359	 3.4544444241	 0.123409
