22
gdb 91952	2.27848	1.71638	1.31422	1.5012	84.94	-0.2211	0.0779	0.299	1093.2143	0.195751	-367.181578	-367.173297	-367.172353	-367.214044	33.424	
C	-0.4586782698	 1.4525667858	 0.0626696175	-0.39924
C	-0.0007392197	-0.0101106323	-0.0323626719	-0.107191
C	 0.8874300421	-0.3205737136	-1.2789816741	-0.170766
N	 2.2790947797	-0.5744297291	-0.8564095322	-0.098799
C	 2.8815848028	 0.5252882959	-0.0885098218	-0.263652
C	 2.2765972185	-0.6361231985	 0.61541847	-0.099001
C	 0.8703963922	-0.507616639	 1.1379223846	 0.396726
C	 0.604675924	-0.1539879962	 2.5795057712	-0.320316
C	 0.3643382214	-1.5615080932	 2.0947575602	-0.322469
H	 0.3777984873	 2.1520643235	 0.1485703303	 0.121049
H	-1.0317157136	 1.7293879434	-0.8289566374	 0.113456
H	-1.1073962565	 1.6105782437	 0.9304001751	 0.113657
H	-0.9064477177	-0.6237326442	-0.0887714369	 0.077792
H	 0.5351624258	-1.2297084779	-1.7768529974	 0.106268
H	 0.8629704704	 0.4871783607	-2.0183557825	 0.101443
H	 3.9619698383	 0.5974622999	-0.181896949	 0.11205
H	 2.3710801472	 1.4827704543	-0.0457248436	 0.10984
H	 2.9207860208	-1.3820296439	 1.0761392793	 0.084161
H	 1.4591737414	 0.029107387	 3.2229046361	 0.113179
H	-0.2585098816	 0.4612233586	 2.8103291827	 0.111101
H	-0.6633138808	-1.8935222646	 1.9860231721	 0.109613
H	 1.0519666878	-2.3397931503	 2.4111840178	 0.111099
