23
gdb 103328	3.28066	1.14602	1.01537	1.2288	86.74	-0.2608	0.0742	0.335	1295.6758	0.205294	-388.226961	-388.217388	-388.216444	-388.260985	37.02	
C	-0.1706087542	 1.5855076836	 0.5777600637	-0.448107
C	 0.043205985	 0.0956508239	 0.340075379	 0.061499
C	 1.2799340333	-0.4560734064	-0.4469296286	-0.122012
C	 2.1305117247	-0.12480318	 0.8178162006	-0.25118
C	 0.8382020806	-0.8083876847	 1.3478916232	-0.082825
C	 0.9771418112	-1.8687184112	 0.187110563	 0.399169
C	-0.2612202729	-2.6683454086	-0.2475385305	-0.488391
C	 2.1321063262	-2.8732652459	 0.2617380714	-0.170706
O	 1.9160415088	-3.6918367865	 1.4102346341	-0.421708
H	 0.7189131251	 2.1259697197	 0.9078093271	 0.11678
H	-0.5236481165	 2.0652629081	-0.3423933308	 0.114426
H	-0.9464940051	 1.7358625387	 1.3371827273	 0.115589
H	-0.9082401312	-0.3243069875	 0.0152254681	 0.060736
H	 1.5371639587	-0.2514643256	-1.4899356664	 0.057114
H	 3.0767868622	-0.642117467	 0.9596070811	 0.091837
H	 2.2575257187	 0.9304113822	 1.0540389526	 0.089742
H	 0.5840093168	-1.0191842401	 2.3881120913	 0.068905
H	-1.2133394015	-2.1596765605	-0.098998808	 0.115122
H	-0.1897348004	-2.935396606	-1.3088624631	 0.107839
H	-0.2940443268	-3.5983735224	 0.3264928585	 0.134032
H	 2.1190852801	-3.4807562267	-0.6577702531	 0.079426
H	 3.1163226921	-2.3961824896	 0.3108198635	 0.087156
H	 2.5603864254	-4.4053920274	 1.3949468362	 0.285558
