20
gdb 55168	3.04128	1.28678	1.18837	1.258	78.43	-0.2176	-0.0215	0.1961	1147.3582	0.170569	-403.120497	-403.111764	-403.11082	-403.154754	32.405	
C	 0.3611989808	 0.8595342238	 0.764992634	-0.479595
C	-0.0560527851	 0.1158614916	-0.4883090767	 0.368121
O	 0.61282205	 0.1093731151	-1.4974617185	-0.300392
C	-1.3677631176	-0.6462562497	-0.3876974213	-0.033025
C	-1.8509947575	-1.4754737034	-1.5964027821	-0.290518
C	-1.9974776995	-2.6643007722	-0.6151192224	 0.049315
C	-0.8606736983	-3.7008374333	-0.5937056084	-0.240749
C	-0.1130143409	-2.7279190647	 0.3548978135	-0.184332
N	-1.3449386496	-1.8669161549	 0.5104809005	-0.164886
H	 1.3966519079	 1.1916856285	 0.6813321581	 0.139946
H	-0.2876029829	 1.733667209	 0.8992319653	 0.144623
H	 0.2268789484	 0.2286482637	 1.6496586872	 0.153874
H	-2.1340258985	 0.0369916597	 0.0001784972	 0.087717
H	-2.765658742	-1.1285130948	-2.080700529	 0.10389
H	-1.0742352735	-1.6086171681	-2.3532967699	 0.124818
H	-3.0174287714	-3.0162844134	-0.4384232374	 0.075164
H	-1.1411935958	-4.6424028285	-0.116497185	 0.108848
H	-0.3852612292	-3.9186978676	-1.5529831097	 0.109206
H	 0.2074700065	-3.1464960079	 1.3125846179	 0.108443
H	 0.7425948982	-2.2225541629	-0.1040392533	 0.119532
