29
gdb 102405	1.49219	1.49216	0.94156	0.0001	98.32	-0.2894	0.0683	0.3576	1499.3539	0.273944	-354.77195	-354.760047	-354.759102	-354.808244	45.36	
C	 0.2622433794	 1.4816770983	 0.0067669546	-0.40731
C	 0.037804526	-0.0353872989	 0.0020734231	-0.18989
C	-1.4333439394	-0.5336990332	 0.0130282781	 0.279668
C	-2.1873651753	-0.0139255843	 1.267621827	-0.18987
C	-1.6174476015	-0.4031900611	 2.6371243468	-0.407315
C	-2.2107647452	 0.0003189336	-1.2211174441	-0.189895
C	-1.6682014728	-0.375199213	-2.6054924748	-0.407312
C	-1.373038013	-2.0857808647	 0.003637379	-0.189877
C	-2.7096613652	-2.8376022912	 0.0123881052	-0.407316
H	 1.3340578713	 1.7048904741	-0.0014906946	 0.1104
H	-0.177066975	 1.9666793249	-0.8704739524	 0.117281
H	-0.1617982255	 1.9588650232	 0.8957066076	 0.117269
H	 0.5401168025	-0.4624384584	-0.8742016432	 0.09116
H	 0.5553365162	-0.4700545045	 0.8656637361	 0.091171
H	-2.2433014609	 1.0796340072	 1.2079975284	 0.091163
H	-3.2280616588	-0.3548154597	 1.2101032034	 0.09117
H	-2.2334242271	 0.0207511686	 3.4368287508	 0.110397
H	-1.5977951959	-1.4876780418	 2.7828674397	 0.117274
H	-0.5981433406	-0.0315239119	 2.7808594279	 0.117279
H	-3.2508149688	-0.3393307921	-1.1470682252	 0.091162
H	-2.263387652	 1.093273009	-1.1487672539	 0.091168
H	-0.6511420701	-0.003795702	-2.764829439	 0.117274
H	-1.6534985773	-1.4580821038	-2.7633506716	 0.117268
H	-2.2986030696	 0.0585151587	-3.3885408492	 0.110403
H	-0.7969963068	-2.40302375	-0.873906743	 0.091164
H	-0.7798375281	-2.4131396765	 0.8659066358	 0.091168
H	-3.3219526102	-2.6011345177	-0.8633560753	 0.117281
H	-2.5350456647	-3.9183995546	 0.0041738248	 0.1104
H	-3.3045957014	-2.6117278182	 0.902787278	 0.117266
