19
gdb 67568	2.83556	2.00532	1.47791	1.8591	77.48	-0.2485	0.0766	0.3251	932.8829	0.160744	-385.822005	-385.815216	-385.814272	-385.852669	28.825	
C	 0.0286880616	 1.5214760108	-0.0623850793	-0.515791
C	 0.0286689696	 0.0095249112	-0.0030679999	 0.347494
C	 0.4252526068	-0.7423255583	-1.2775138991	-0.039271
O	 1.6162487628	-1.5431005549	-1.1444015457	-0.259831
C	 0.3313057252	-2.1384050713	-0.8716160769	 0.005646
C	-0.1099053405	-2.0036468877	 0.5773254047	-0.05175
C	 0.6530879875	-0.7897496964	 1.1994746727	-0.073084
C	-0.5964742632	-0.4811568301	 2.0610756829	-0.26759
C	-1.1507906757	-0.8234935329	 0.6611538323	-0.099253
H	 1.0331741554	 1.8970791243	-0.287109178	 0.127762
H	-0.6397109149	 1.8797214054	-0.8540090649	 0.116906
H	-0.2958791028	 1.9806929566	 0.8751755166	 0.12028
H	 0.2150569035	-0.3599083593	-2.2719613274	 0.091732
H	 0.0351945114	-2.9591260452	-1.5163778999	 0.096819
H	-0.2701319083	-2.894861129	 1.1844932033	 0.068067
H	 1.6995841792	-0.777894475	 1.5017618168	 0.080384
H	-0.8206056438	-1.1952169579	 2.8582868292	 0.090853
H	-0.7223210699	 0.5427204859	 2.4186755083	 0.093625
H	-2.1953714039	-0.8486282161	 0.3411808144	 0.067001
