14
gdb 19716	3.65203	2.67062	2.59383	0.151	58.46	-0.2395	0.0036	0.2431	628.7976	0.109079	-382.487845	-382.482649	-382.481705	-382.516771	22.034	
O	-0.0268955055	 1.4414815809	 0.0203599809	-0.233462
C	 1.2630561906	 0.8180081203	 0.0051709401	 0.034259
C	 0.0510438712	 0.0108172125	 0.013098142	 0.034259
C	 0.0930124664	-0.6765992296	-1.401253931	-0.044872
O	 1.5151342524	-0.8890503433	-1.5213919993	-0.244959
C	 1.8683365578	 0.5057502288	-1.412865768	-0.044873
C	 0.962623274	 1.132485489	-2.4680431785	-0.054321
C	-0.1457361691	 0.3943319476	-2.4607909445	-0.054322
H	 1.9030909247	 1.0005649866	 0.8615234382	 0.109666
H	-0.35633401	-0.5041926246	 0.8763009023	 0.109666
H	-0.4470263428	-1.6185611767	-1.4771526873	 0.080454
H	 2.9449384988	 0.6404554333	-1.4993378154	 0.080454
H	 1.1658769829	 2.0465741732	-3.0069525021	 0.114025
H	-1.0723818114	 0.555919352	-2.9923083571	 0.114025
