18
gdb 8062	3.60981	1.56969	1.33689	1.6009	68.13	-0.2348	0.0683	0.303	977.5789	0.152605	-384.87054	-384.8625	-384.861555	-384.902861	30.357	
C	 0.0573438098	 1.4533953497	 0.081576653	-0.513675
C	-0.0391161507	-0.0345493736	-0.0520605751	 0.389691
C	 0.574489847	-0.9773221507	-1.1228392211	-0.257495
C	 0.010487499	-1.8281660863	 0.0328660071	 0.03034
O	 0.6161509961	-0.8806709976	 0.9931651575	-0.345711
C	-1.2876035444	-0.9725556485	 0.0225332634	-0.02887
C	-2.1626173296	-0.9412356783	 1.2617889758	-0.111628
O	-3.0092945799	-2.0834931394	 1.3457046526	-0.421473
H	 1.104980643	 1.7689155493	 0.085081008	 0.135941
H	-0.4486791035	 1.9410789565	-0.7575976384	 0.128989
H	-0.4096286294	 1.792415787	 1.0112030151	 0.135786
H	 0.0864177493	-1.0352616968	-2.0991711167	 0.094597
H	 1.6632865774	-0.9518296132	-1.1852425896	 0.104928
H	 0.144161555	-2.8923514553	 0.2319330763	 0.08794
H	-1.8879480066	-1.0398251464	-0.8906076087	 0.073931
H	-1.5350173196	-0.8313839123	 2.1543790602	 0.108409
H	-2.8392115395	-0.0805222866	 1.2159784046	 0.106085
H	-2.4496536637	-2.8460616973	 1.522114596	 0.282215
