18
gdb 106453	2.86275	1.30499	1.10057	3.6411	73.52	-0.2516	-0.0349	0.2167	1153.2015	0.146352	-438.996836	-438.98829	-438.987346	-439.030591	31.186	
C	 0.0229577726	 1.3441706389	-0.0599645036	-0.268211
O	-0.0699383592	-0.0707888195	-0.1184722316	-0.283492
C	-1.3550720487	-0.551620361	-0.0430497225	 0.373298
C	-2.3935850143	-0.5025633957	 1.1078457591	-0.235272
N	-3.0826369418	-1.3794452199	 0.0475498768	-0.139722
C	-2.5802765473	-0.3387097508	-0.9733242967	-0.250579
C	-1.7143425379	-2.0615013487	-0.1021439806	-0.101859
C	-1.4163808165	-2.8830840262	-1.3268096267	 0.13005
O	-2.1118456338	-2.9843977512	-2.3057184217	-0.241972
H	 1.0816204061	 1.5962316017	-0.1409319038	 0.137761
H	-0.5228266564	 1.8175842445	-0.8872239165	 0.120752
H	-0.3665435243	 1.735136048	 0.8899901252	 0.117769
H	-2.1653025442	-1.0310543418	 2.0366539538	 0.108484
H	-2.9254003606	 0.4338995398	 1.2893544131	 0.107563
H	-3.1121106919	 0.6123217139	-0.8982142142	 0.104094
H	-2.5491199997	-0.7124684831	-1.9939029689	 0.142946
H	-1.4258028472	-2.6352402097	 0.786852296	 0.091899
H	-0.4452324549	-3.424749819	-1.2538812272	 0.086492
