19
gdb 99349	6.96989	0.54581	0.51255	2.0957	78.92	-0.2612	0.0142	0.2755	2086.9154	0.155838	-423.031709	-423.020999	-423.020055	-423.069524	36.413	
C	 0.1491498948	 1.3516878759	 0.0066163639	-0.23994
O	-0.0118145122	-0.0723123402	 0.0001729595	-0.234072
C	-1.2884592446	-0.5085237287	 0.011993188	 0.445503
O	-2.2442131105	 0.2253797943	 0.0268391617	-0.35334
C	-1.3357258908	-2.023257058	 0.0041212377	-0.334998
C	-2.7620200561	-2.5709608121	 0.0145616879	-0.165534
C	-2.7844917928	-4.1120532778	 0.0068593985	-0.364435
C	-4.1356614919	-4.6591917551	 0.0164733282	 0.29025
C	-5.2587055536	-5.0871758815	 0.024537386	-0.427336
H	 1.2246260669	 1.5291020934	-0.0034062894	 0.132866
H	-0.3203618867	 1.7975730681	-0.8739472242	 0.140668
H	-0.3022233637	 1.7875158006	 0.9015689189	 0.140704
H	-0.7800988275	-2.3719578004	-0.8754936659	 0.132146
H	-0.7638793746	-2.3813534992	 0.8694816907	 0.132176
H	-3.294516804	-2.2005501838	 0.8952221219	 0.127042
H	-3.310770127	-2.1916404651	-0.8522338035	 0.126963
H	-2.247544657	-4.483495304	-0.876451891	 0.128699
H	-2.2314235721	-4.4924796584	 0.8762922951	 0.128698
H	-6.2476494765	-5.473181078	 0.031562856	 0.193942
