18
gdb 12397	3.06076	2.08802	1.314	3.604	68.83	-0.2148	0.0311	0.2459	936.5267	0.156532	-381.152584	-381.144785	-381.143841	-381.184767	28.794	
C	-0.0591991937	 1.463350523	 0.0223776846	-0.343513
N	 0.021502679	 0.0151803302	-0.0623640855	-0.092514
C	-1.2450652253	-0.7067290881	 0.001171137	-0.149395
C	-1.0886393948	-2.176287192	-0.3910658982	-0.182425
N	 0.037932344	-2.8181716221	 0.2743894555	-0.282854
C	 1.2768491325	-2.1199163241	-0.0544911969	-0.282417
C	 1.2538207875	-0.5866742718	-0.0371389884	 0.391727
O	 2.3006626815	 0.0403125654	-0.0353768556	-0.388531
H	 0.9533539921	 1.8623927398	-0.0083217109	 0.170495
H	-0.6404176438	 1.8654522744	-0.8161304151	 0.119965
H	-0.5465030521	 1.7741578545	 0.95621797	 0.117907
H	-1.6637749538	-0.633097491	 1.0190282928	 0.098804
H	-1.9628982976	-0.2110151087	-0.6668628849	 0.107123
H	-2.0133205987	-2.7149794057	-0.161110987	 0.10963
H	-0.9267741599	-2.2543453748	-1.4736893762	 0.116235
H	-0.1075936735	-2.7953624452	 1.2796442769	 0.219813
H	 2.0760351887	-2.4305332312	 0.6223594909	 0.134905
H	 1.5969412579	-2.4143236727	-1.0636099891	 0.135044
