18
gdb 30241	4.50189	1.13492	0.95574	2.5133	81.24	-0.1791	0.0366	0.2157	1245.3248	0.149719	-398.135042	-398.126744	-398.1258	-398.167838	31.434	
C	-0.4210166632	 1.5045970836	 0.0041050092	-0.400691
C	 0.023160892	 0.0491761151	 0.0917321593	-0.122651
C	 0.6393999523	-0.6031260798	-1.2123545278	-0.190109
N	 1.9187539245	-0.6969478331	-0.4716705571	 0.015249
C	 3.0705311173	-1.4060299813	-0.1606456395	-0.260086
C	 3.184690844	-1.2329298717	 1.2123635889	 0.289638
N	 4.1943225368	-1.6907650265	 2.0610676723	-0.591915
N	 2.1062569887	-0.5461124021	 1.7518243314	-0.409594
C	 1.3888454783	-0.2619787551	 0.688790903	 0.341734
H	 0.3617321837	 2.1275680686	-0.4399584667	 0.123805
H	-1.3263224869	 1.6017129391	-0.6044483922	 0.116681
H	-0.6409705331	 1.8996570078	 1.0003981568	 0.135081
H	-0.7742709785	-0.5713816294	 0.5130323923	 0.102002
H	 0.213185031	-1.5773036162	-1.4675670876	 0.128419
H	 0.6894320859	 0.0307598388	-2.1023475134	 0.118935
H	 3.7352312606	-1.8363961903	-0.8892934265	 0.112845
H	 5.1165844837	-1.6724188083	 1.6482886892	 0.241065
H	 4.1852583328	-1.1842205096	 2.9363660882	 0.249592
