18
gdb 77101	3.22615	1.11457	0.92752	5.1252	77.91	-0.2445	0.0318	0.2763	1260.5412	0.148831	-398.097983	-398.089351	-398.088407	-398.131371	32.619	
N	 0.4858348287	 0.9298215889	-0.4990584786	-0.512993
C	-0.051055494	-0.3463427747	-0.1085287099	-0.049993
C	-0.0581344936	-0.6731159669	 1.4282579515	-0.142958
C	-1.4254094373	-1.4097502294	 1.2394501033	-0.313652
C	-1.5617167442	-0.6815675289	-0.0982220787	 0.334317
C	-2.6433195296	 0.2241957845	-0.5417076668	-0.307982
N	-2.4184471666	-1.0812791812	-1.199288134	-0.367597
C	 1.0623885423	-1.4180791583	 1.9698306589	 0.269531
N	 1.9525411961	-2.0319514537	 2.3801556556	-0.328503
H	 0.6302695053	 0.9941428326	-1.49992271	 0.238319
H	-0.1200237752	 1.693929181	-0.2185081729	 0.231512
H	 0.5001510533	-1.1313311235	-0.63740986	 0.110092
H	-0.1889924788	 0.2528830031	 1.9954065854	 0.121704
H	-1.2946658097	-2.4865881899	 1.1101579569	 0.134238
H	-2.1827470207	-1.2257720199	 2.0023192779	 0.122718
H	-3.5664699604	 0.296545791	 0.0272963247	 0.126291
H	-2.3657328658	 1.1302628291	-1.0765703996	 0.105165
H	-1.9415004498	-0.9494880137	-2.0893378739	 0.22979
