15
gdb 2648	14.89978	0.81849	0.79794	2.8287	67.23	-0.2453	-0.0257	0.2196	1379.1767	0.121992	-308.507004	-308.498208	-308.497264	-308.542643	28.131	
C	-0.0230259084	 1.5020290578	-0.03587593	-0.497002
C	 0.004799185	 0.0464594579	-0.0590598624	 0.109455
C	 0.0387132588	-1.1567343716	-0.0815108744	 0.03091
C	 0.0476230972	-2.6140377701	-0.096229836	-0.361481
C	-1.3146239128	-3.2225255351	 0.3137964999	-0.259664
C	-1.320818487	-4.7280316961	 0.1760361927	 0.155871
O	-1.6609955517	-5.4998067759	 1.0341591171	-0.232689
H	 0.6489563143	 1.9009830629	 0.7319463271	 0.14931
H	 0.2878929094	 1.9220930703	-0.9987939914	 0.148482
H	-1.0297495096	 1.8771750772	 0.1788918748	 0.14874
H	 0.3165197389	-2.9744229784	-1.0986181715	 0.131234
H	 0.827438874	-2.9888739485	 0.5791709811	 0.14025
H	-1.5795184224	-2.9535911115	 1.3388449448	 0.133513
H	-2.0896573485	-2.823443695	-0.3545624728	 0.132659
H	-0.9766680071	-5.0963713838	-0.8205398289	 0.070411
