16
gdb 62322	3.96927	1.32121	1.15753	3.8974	72.31	-0.2593	0.0068	0.2661	1044.7369	0.123152	-400.671769	-400.663978	-400.663034	-400.703992	29.821	
C	-0.0527402346	 1.6070211184	-0.0192558204	-0.455872
C	 0.0981687883	 0.0775264431	 0.0363752811	 0.162527
C	-1.0490812239	-0.6067024966	-0.5316040341	 0.230513
N	-1.970211812	-1.1380607474	-0.9874291213	-0.343563
C	 1.3601068251	-0.7555020796	-0.2026303278	-0.130723
C	 2.6381557939	-0.1542875399	 0.4612165855	-0.001533
O	 2.3118312092	 1.0693004101	 1.1284160209	-0.23614
C	 1.9980280415	-0.169706461	 1.772782196	-0.001541
C	 0.6939762006	-0.7715789053	 1.1622423695	-0.130721
H	 0.7456847211	 2.0621016352	-0.6046944933	 0.142204
H	-1.0093409565	 1.8601335389	-0.4830840221	 0.130663
H	-0.0270521301	 2.0434593136	 0.9788312681	 0.142205
H	 1.3850747446	-1.5392146741	-0.9477855992	 0.12192
H	 3.6629486847	-0.3054674809	 0.1468276576	 0.124071
H	 2.3821519228	-0.3363141027	 2.7710744108	 0.12407
H	 0.1292607653	-1.5695274717	 1.6253403386	 0.121921
