23
gdb 86553	4.85835	0.80639	0.74264	2.0514	85.78	-0.2411	0.0745	0.3156	1600.0297	0.206071	-388.260773	-388.251421	-388.250477	-388.296268	34.457	
C	-0.8105534429	 1.0598619549	-0.1409115293	-0.408756
C	 0.2622427364	-0.0000777213	 0.0543328477	 0.070781
C	 1.5565242447	 0.0809267868	-0.8060558805	-0.253279
C	 2.3964561542	-0.2806999513	 0.4559682771	 0.002384
C	 1.1526985591	 0.0654368925	 1.3289964488	-0.25331
C	 2.8236170114	-1.7372760922	 0.5260434736	-0.019098
C	 4.0738831101	-2.131161492	-0.2961034443	-0.089033
O	 4.820970172	-2.4411578983	 0.8975669365	-0.272875
C	 3.689645594	-2.1460761392	 1.7414093512	-0.089063
H	-0.387231142	 2.0672712052	-0.0534238871	 0.110444
H	-1.275661239	 0.9793843236	-1.1299960695	 0.113776
H	-1.6046965789	 0.9666563256	 0.6085785401	 0.113775
H	-0.1874186105	-0.994833451	-0.0379382869	 0.071139
H	 1.6341581981	-0.589391078	-1.6674539066	 0.0931
H	 1.750691028	 1.1027059278	-1.1474408724	 0.095575
H	 3.2730945046	 0.3534346439	 0.6264098316	 0.067641
H	 1.2060982741	 1.081832413	 1.7319461571	 0.095574
H	 0.9121783206	-0.6170414221	 2.149810286	 0.093093
H	 1.9662608435	-2.396389521	 0.3595856396	 0.072377
H	 3.9634899004	-3.0065957536	-0.9488902057	 0.09543
H	 4.5348450609	-1.3169189795	-0.8711505027	 0.097453
H	 3.9073429285	-1.3413136945	 2.4563385593	 0.097446
H	 3.3513853128	-3.0303691693	 2.2966660464	 0.095426
