11
gdb 130816	8.41318	0.66153	0.61331	3.7027	73.92	-0.2878	-0.1067	0.1811	1628.4855	0.064808	-451.472389	-451.464793	-451.463849	-451.506251	25.262	
O	-0.0980080663	-0.020950681	 0.0015093798	-0.211031
C	-0.0139869404	 1.1838565599	 0.0073724557	 0.010656
C	 1.2370904865	 1.9056724735	-0.0006756891	 0.147909
C	 2.2706280255	 2.5314955964	-0.0071802017	 0.033119
C	 3.4642649932	 3.2817428686	-0.014322042	 0.218147
N	 4.6634851729	 2.7332435103	-0.0317909215	-0.142689
O	 5.5373497677	 3.7648364706	-0.0332882081	-0.136359
N	 4.8998747975	 4.9801387159	-0.0167622423	-0.045598
C	 3.6297503468	 4.701904233	-0.0050529138	-0.153423
H	-0.9103591863	 1.8347064323	 0.0196902183	 0.112656
H	 2.880011483	 5.4768068505	 0.0092170646	 0.166614
