8
gdb 14564	0	0.56495	0.56495	0.0006	95.14	-0.3024	-0.1281	0.1744	1712.2984	0.037484	-337.959005	-337.951981	-337.951037	-337.98329	23.324	
N	 0.0871074894	-6.2768885493	-0.032493468	-0.304408
C	 0.0711275515	-5.1137528555	-0.0261250526	 0.078352
C	 0.0525342088	-3.7552163012	-0.0186749511	 0.43333
C	 0.0360166993	-2.5388252685	-0.0119835707	-0.207274
C	 0.0177779288	-1.193911344	-0.0045786311	-0.207273
C	 0.0013190793	 0.0224804809	 0.0021258345	 0.43333
C	-0.0169207904	 1.3810213128	 0.0096207384	 0.078352
N	-0.0325296666	 2.5441627248	 0.0160279504	-0.304409
