19
gdb 44139	3.3125	1.09841	1.00482	3.2435	80.75	-0.2376	-0.0079	0.2296	1255.4081	0.159383	-385.864475	-385.856459	-385.855515	-385.89772	31.081	
O	 0.6116313707	 0.0396534973	-0.0068337034	-0.317936
C	 0.3143956994	 1.1991060041	 0.0567292316	 0.412803
C	-1.0443472184	 1.9453800652	-0.0564678733	-0.365455
C	-0.2382511036	 3.2508925684	-0.1288436361	-0.080093
C	 0.5928302432	 3.4443117221	 1.0920458474	-0.016607
C	 0.2166993634	 3.0528087393	 2.4883665313	 0.005854
C	 1.1425811683	 3.3979091335	 3.6292087397	-0.268537
C	-0.1704642967	 4.123778044	 3.4808237333	-0.271439
C	 1.1051435557	 2.4723575439	 0.025711525	-0.204954
H	-1.5223866403	 1.6776121444	-1.0034366499	 0.130924
H	-1.7722830089	 1.8368630068	 0.7515506925	 0.121527
H	-0.432674894	 4.0494512699	-0.8331487958	 0.10097
H	 1.1683783305	 4.3691034443	 1.0618297928	 0.093867
H	-0.307544558	 2.1077806207	 2.5827151903	 0.095872
H	 1.2515823345	 2.6818159817	 4.4357177628	 0.11778
H	 2.0521230897	 3.941315269	 3.3940821769	 0.112767
H	-0.1445160349	 5.1555326399	 3.1450480836	 0.111768
H	-0.965484391	 3.9079613069	 4.1858050004	 0.115362
H	 2.0697224205	 2.6139050885	-0.4465951492	 0.105529
