18
gdb 71652	3.10273	1.9225	1.64044	2.7197	72.83	-0.2267	0.0693	0.2961	873.5261	0.150066	-401.896401	-401.889861	-401.888917	-401.926785	27.931	
O	-0.0289579896	 1.4116150319	 0.0813695726	-0.493864
C	 0.0360658926	 0.0129456772	-0.0035818128	 0.397202
C	 0.332028997	-0.6423421509	-1.3895305169	-0.31105
C	-0.7926922037	-1.6516911387	-1.0748699404	-0.047988
C	-0.5274119023	-2.6383831719	 0.0787605354	-0.058319
C	 0.1118239436	-1.9999911367	 1.2602144831	-0.029323
C	 0.8405640374	-0.6848817621	 1.1034529655	-0.301454
N	-1.3490115323	-1.8325208133	 1.0751614916	-0.158529
C	-1.351226901	-0.728352848	 0.0306205351	-0.027863
H	 0.8629362046	 1.7637214694	-0.0130806904	 0.277402
H	 0.0317363725	 0.0285814845	-2.1996989621	 0.105773
H	 1.3449474324	-1.015049166	-1.5714566075	 0.089033
H	-1.4133272716	-2.0478676596	-1.8769932252	 0.078847
H	-0.637045338	-3.71633042	 0.0081246069	 0.091012
H	 0.3773678213	-2.6534013524	 2.0863569584	 0.094124
H	 1.8993851005	-0.8024945834	 0.848441735	 0.097826
H	 0.7656137271	-0.1079197859	 2.0323373398	 0.112151
H	-2.2612226804	-0.137434514	-0.0379743882	 0.085019
