23
gdb 66929	2.12485	1.88403	1.47453	0.2798	88.68	-0.2386	0.0881	0.3266	1066.003	0.205167	-351.119174	-351.110277	-351.109333	-351.151657	36.067	
C	 0.0349039902	 1.4859943824	 0.1191794517	-0.518755
C	 0.0248917931	-0.0104890831	 0.0005276562	 0.355589
C	-0.9700309642	-0.8769678035	 0.8006185375	-0.129577
C	-1.0795716923	-2.2463803383	 0.1337531174	-0.258072
C	 0.421975323	-2.071265503	-0.2109375544	-0.088093
C	 0.5242201492	-1.037809574	 0.9848253148	-0.139322
C	 0.5001524495	-0.8557116687	-1.1982133522	 0.272541
C	-0.3570796298	-0.8656794602	-2.4649693503	-0.465084
C	 1.9601639812	-0.5556454972	-1.5518975051	-0.443795
H	 1.0178839138	 1.902454516	-0.1284968355	 0.11832
H	-0.7004176302	 1.9469055937	-0.5511965109	 0.118564
H	-0.2083763537	 1.8020765215	 1.1394930983	 0.116947
H	-1.6687782013	-0.4097297281	 1.4843565093	 0.077363
H	-1.2185176382	-3.0292940253	 0.8855527855	 0.094826
H	-1.7900483262	-2.4050708854	-0.6842234696	 0.085907
H	 1.0658312026	-2.9355352197	-0.3714955045	 0.058816
H	 1.1536115336	-0.9664652431	 1.860434178	 0.082604
H	-1.4221370425	-0.9765464948	-2.2486136508	 0.115404
H	-0.2323134593	 0.0721643351	-3.0187867561	 0.109398
H	-0.0600027772	-1.6806045454	-3.1361530987	 0.108973
H	 2.3479073643	-1.3015106228	-2.2552742694	 0.106741
H	 2.0633580094	 0.42645678	-2.0272734801	 0.107782
H	 2.5978969847	-0.5672974263	-0.6622678112	 0.112923
