14
gdb 28148	5.32441	1.30762	1.0498	0.3599	69.96	-0.1717	0.0423	0.214	1047.4656	0.104622	-432.919425	-432.912439	-432.911494	-432.950438	27.595	
O	 0.0797386432	 1.2971773329	 0.1224262068	-0.425015
C	 0.0689966879	-0.0418395779	 0.0116615294	 0.422054
N	 0.0926826716	-0.7235328473	-1.1110049505	-0.468721
C	 0.0667610768	-2.0216642986	-0.6538803017	 0.339956
C	 0.0280320553	-2.1249989717	 0.7228190641	 0.310303
N	 0.0300011746	-0.7963235827	 1.1535659875	-0.45957
C	 0.004177413	-3.4961009844	 1.0824139515	-0.314815
C	 0.0300371232	-4.1815300039	-0.1201557242	-0.072577
N	 0.0681000151	-3.2846867521	-1.1781506643	-0.385386
H	 0.1080093417	 1.6406291713	-0.779273597	 0.314055
H	 0.0080240877	-0.4297542025	 2.0883219398	 0.26904
H	-0.0272488465	-3.9471522313	 2.0611116546	 0.092941
H	 0.0241769733	-5.2428773279	-0.3063905433	 0.114861
H	 0.0924775831	-3.529149484	-2.1515792628	 0.262875
