16
gdb 28504	3.1317	1.35072	0.94931	2.3516	76.4	-0.2154	-0.0122	0.2032	1179.0662	0.124559	-437.952472	-437.944285	-437.943341	-437.984848	31.425	
C	-0.0301727489	 1.5042388583	 0.0434130808	-0.524693
C	 0.0123817569	-0.0031632847	 0.0236084682	 0.204778
N	-0.0605044952	-0.6179762963	-1.1600025694	-0.302096
C	-0.0263259326	-1.9454628615	-1.2207511493	-0.078443
C	 0.08460463	-2.7477294516	-0.0815562516	 0.35601
O	 0.1112155433	-4.0973261649	-0.2496157785	-0.438474
C	 0.1619283025	-2.1290672123	 1.161241516	-0.317493
C	 0.1253141576	-0.7396945711	 1.2135366835	 0.322254
O	 0.2023094134	-0.1518815985	 2.439455707	-0.437467
H	 0.8801586592	 1.940772231	 0.477140114	 0.125594
H	-0.1209046647	 1.8677509753	-0.9808483341	 0.15297
H	-0.8858945071	 1.889117588	 0.6152510161	 0.125512
H	-0.0878725297	-2.4115409423	-2.1998624218	 0.110521
H	 0.189335939	-4.5247710989	 0.6095772196	 0.299753
H	 0.2493322345	-2.6957521269	 2.0834472441	 0.099853
H	 0.1662818617	 0.8041447163	 2.3327164853	 0.301422
