14
gdb 131847	5.97594	0.79271	0.71549	1.5593	63.01	-0.2645	-0.0769	0.1876	1471.1077	0.09909	-507.0551	-507.046899	-507.045955	-507.089595	28.462	
O	-0.1751430699	 1.5614491236	 0.1360996576	-0.418636
C	 0.0889390738	 0.1790870092	 0.2192031689	-0.046769
C	-1.1633210353	-0.6481641066	-0.0724153062	-0.167247
N	-1.6514140151	-0.2803151988	-1.4010786165	-0.381358
C	-2.2942131242	-1.0904127672	-2.0884213942	 0.596443
O	-2.674736054	-2.3845491365	-1.8041115626	-0.233038
N	-3.3645570259	-2.8582393692	-2.921902916	 0.065573
N	-3.41844342	-1.9784095065	-3.7846660094	 0.075513
O	-2.7772839117	-0.8297188751	-3.3492064566	-0.226543
H	-0.6087239553	 1.6980697682	-0.7156106265	 0.294826
H	 0.8910428558	-0.124634884	-0.4731725871	 0.089856
H	 0.4334376434	-0.0241611907	 1.2384972033	 0.109903
H	-0.9481413853	-1.7215330937	 0.0143868962	 0.112374
H	-1.9351830762	-0.3942010427	 0.6646505192	 0.129105
