20
gdb 92893	2.28976	1.72281	1.02428	2.719	82.59	-0.2109	-0.0009	0.2099	1186.5187	0.171562	-403.205892	-403.196786	-403.195842	-403.239814	33.784	
C	-0.1607725578	 1.524995388	 0.0089917005	-0.388655
C	 0.0703450008	 0.0141387923	 0.0005056483	-0.116627
C	 0.7519346613	-0.4844009036	-1.2860599388	-0.267743
C	 1.0886364893	-1.9442073883	-1.1702471989	-0.15352
C	 1.367896152	-2.4604183895	 0.0265862304	 0.040823
N	 1.3621975136	-1.7056172228	 1.2095888849	-0.12152
C	 1.9866856007	-2.2663866943	 2.4003651648	-0.355566
C	 0.8160079242	-0.4338132217	 1.2642942893	 0.424705
O	 0.8760520669	 0.2501904212	 2.2693665531	-0.380428
H	 0.7882699816	 2.063941321	-0.0784220934	 0.120276
H	-0.7972357846	 1.8167876976	-0.8321343504	 0.104727
H	-0.6343496895	 1.8408212285	 0.9395576797	 0.137739
H	-0.9045278614	-0.4950832945	 0.0639750805	 0.104915
H	 0.0924728044	-0.2970921568	-2.1401076696	 0.109042
H	 1.6638046039	 0.1048824432	-1.4750771119	 0.111985
H	 1.1201244576	-2.5762859526	-2.0490341032	 0.095961
H	 1.6330521575	-3.5021672516	 0.1699799921	 0.107531
H	 1.5882434703	-3.266821207	 2.6000065331	 0.126054
H	 3.0738808157	-2.3392225719	 2.2820020662	 0.130263
H	 1.7640643434	-1.6076311472	 3.2379429132	 0.170038
