14
gdb 43516	2.92509	1.31281	0.95928	3.5598	69.04	-0.2789	-0.0294	0.2495	1142.8867	0.102722	-432.934973	-432.927242	-432.926298	-432.968207	28.149	
N	-0.0704977627	 1.292931547	 0.1961770027	-0.504469
C	 0.0237306927	 0.039974606	 0.0730639106	 0.39483
N	 1.1395367122	-0.771832305	-0.0942292871	-0.365652
C	 0.8961177057	-2.1397537098	-0.1383754466	 0.413024
O	 1.7317163969	-2.9886495629	-0.3022862416	-0.335594
C	-0.6032023092	-2.3286801179	 0.0808943945	-0.360359
C	-1.1972108959	-0.8983763259	 0.0403870994	-0.22193
C	-2.1496485118	-0.6231459845	 1.111098856	 0.299429
N	-2.9120434691	-0.4541608666	 1.961831516	-0.314739
H	 0.8359706208	 1.761469253	 0.1769392479	 0.225584
H	 2.0800346312	-0.4121106854	-0.1727326536	 0.2709
H	-1.0165238389	-2.991994237	-0.6798376463	 0.159923
H	-0.7527094796	-2.8070303531	 1.0522544299	 0.172627
H	-1.7053251424	-0.723298958	-0.9142457919	 0.166426
