14
gdb 4896	6.64679	1.2472	1.05728	4.3879	60.02	-0.1883	0.0452	0.2335	1035.1903	0.107823	-415.907429	-415.899456	-415.898511	-415.941176	27.952	
O	 0.0175476836	 1.4211991047	 0.0660432162	-0.408266
C	 0.0145392967	 0.0080978851	 0.0018950368	-0.186977
C	-1.4051354647	-0.4455691124	 0.0122283549	 0.324203
C	-2.5480280019	 0.2688522622	 0.0117812369	-0.165204
N	-3.606959791	-0.6398804294	 0.0206249098	-0.339375
C	-3.1507362473	-1.9502859583	 0.0287200425	 0.442443
O	-3.7927372799	-2.9819622878	 0.0397961471	-0.434461
N	-1.7663391057	-1.7938999486	 0.0210655369	-0.413761
H	 0.9265116604	 1.7229327711	-0.0128477044	 0.295873
H	 0.5184985189	-0.3552576097	-0.9112071759	 0.103255
H	 0.5550368144	-0.4369150044	 0.8565187909	 0.10157
H	-2.6893710217	 1.3341403416	 0.007116256	 0.149966
H	-4.5867034636	-0.4212008689	 0.0303529641	 0.267601
H	-1.1492252482	-2.5865175353	 0.0303419481	 0.263135
