11
gdb 25183	3.15223	1.54308	1.03596	4.8398	66.89	-0.2874	-0.1105	0.1769	1017.2989	0.06723	-451.609974	-451.603103	-451.602159	-451.641714	24.609	
O	-0.0409815007	-0.0019087142	 0.3404669028	-0.29196
C	 0.0367982386	 1.1473297533	 0.0410800141	 0.419607
O	-1.1517890069	 1.8220373913	-0.3484317082	-0.190367
C	-1.1403181585	 3.1077801213	-0.6964936519	 0.165564
N	-0.1195437031	 3.8883506321	-0.7322450099	-0.274731
C	 1.0745403166	 3.3214252753	-0.3711130569	-0.024739
C	 1.209409455	 2.0164489146	 0.0075286824	-0.080211
C	 2.4703675822	 1.4667062852	 0.375562732	 0.254173
N	 3.5064348656	 1.0437848153	 0.6701258257	-0.31224
H	-2.1312488612	 3.4622559665	-0.9646114959	 0.172123
H	 1.9398485824	 3.9759047392	-0.3994516241	 0.16278
