22
gdb 23001	2.72743	1.06456	0.97299	0.5854	85.36	-0.236	0.0164	0.2524	1356.8878	0.192364	-404.30849	-404.298292	-404.297347	-404.34404	37.533	
C	-0.4371917891	 1.4414174866	 0.0029711668	-0.39724
C	-0.1242207907	-0.0509543851	 0.0451164838	 0.010035
C	 0.9356216182	-0.5006777718	-1.0038402158	-0.225621
C	 2.0216762594	-0.4812419976	 0.1038261616	-0.236948
C	 0.8965143413	-0.4948226525	 1.1672705723	-0.05715
C	 1.010996853	 0.3245533103	 2.416625893	 0.34903
C	-0.0871587502	 0.24008944	 3.4450660139	-0.474083
N	 2.0452169811	 1.0656223903	 2.5468636803	-0.176234
O	 2.0222663326	 1.7779316176	 3.7601445809	-0.402115
H	 0.4751226855	 2.0455039226	 0.0409826101	 0.126849
H	-0.9674281631	 1.6917782746	-0.9224669732	 0.110885
H	-1.0703477092	 1.7469986715	 0.8429677938	 0.11336
H	-1.0573971715	-0.6222552292	 0.0355214745	 0.063773
H	 0.7424154781	-1.5090482685	-1.3804487749	 0.095777
H	 1.0824966637	 0.1649424981	-1.8588506926	 0.093981
H	 2.73311315	-1.3094124935	 0.1312091434	 0.094843
H	 2.5805754586	 0.4551115909	 0.1307421734	 0.121483
H	 0.6588172384	-1.5258639565	 1.4579346831	 0.077408
H	 0.2988729348	-0.1763547983	 4.3819219205	 0.144556
H	-0.4681310521	 1.2376083818	 3.6834377994	 0.146868
H	-0.9103647694	-0.3860095003	 3.0946600826	 0.116868
H	 2.8461514406	 2.273999979	 3.7161402232	 0.303674
