16
gdb 45616	4.41327	0.98341	0.85422	3.6199	73.85	-0.2157	-0.0125	0.2032	1299.3882	0.124563	-437.907573	-437.899648	-437.898703	-437.940657	29.411	
O	-0.0466030247	 0.0038284428	-0.0446935156	-0.362666
C	-0.0419937465	 1.2108564866	-0.0253230469	 0.428427
C	-1.2155575782	 2.1863988328	-0.2187929166	-0.467798
C	-0.5808816049	 3.5508562	-0.085764377	 0.274642
C	 0.7279523453	 3.3753291315	 0.1526056582	-0.115828
N	 1.0673069625	 2.0188419125	 0.1794540356	-0.328185
C	-1.2848552631	 4.8350652437	-0.1640176097	-0.023373
C	-2.5225747239	 5.0385480593	-0.9390367508	-0.19055
O	-2.5734089064	 4.9163897655	 0.479563562	-0.237973
H	-1.6758617979	 2.0044089134	-1.1964871887	 0.145192
H	-1.98797883	 1.9988521418	 0.5343635108	 0.16307
H	 1.4924374614	 4.122467907	 0.314621212	 0.132291
H	 1.9868688186	 1.6453331417	 0.3454274237	 0.263272
H	-0.6557979131	 5.7104775585	 0.0028204053	 0.087782
H	-2.7467753698	 6.0281641342	-1.3363652939	 0.117402
H	-2.9542081093	 4.2091400285	-1.4974626384	 0.114296
