18
gdb 65329	3.98437	1.04573	0.93256	1.9127	79.39	-0.2464	0.0121	0.2586	1277.5255	0.145448	-401.868001	-401.858867	-401.857922	-401.901771	34.039	
C	-0.1498699308	 1.7754961334	 0.3401483092	-0.466582
C	-0.142096279	 0.2838910514	 0.1072816142	 0.363321
O	 0.8090934901	-0.2030384366	-0.8440357945	-0.284507
C	 1.0054254319	-0.5535176228	 0.5455746667	-0.234071
C	 2.1631285833	-0.0190508566	 1.2069659123	 0.330438
C	 3.1308103354	 0.3978312102	 1.7858935286	-0.396259
C	-1.4972348339	-0.3678109011	 0.0113973193	-0.068671
C	-2.1767024898	-0.4416048001	-1.3062435927	-0.234406
N	-1.6451478572	-1.6591218568	-0.6652150361	-0.326723
H	 0.8649502376	 2.1593206884	 0.4553117184	 0.143164
H	-0.6291059799	 2.2822790612	-0.5031327415	 0.132189
H	-0.7187937006	 2.0148744573	 1.2447170096	 0.12798
H	 0.7979422833	-1.6010883959	 0.7617397347	 0.125271
H	 3.9881729449	 0.768550993	 2.2917146927	 0.204219
H	-2.1053874065	-0.256381755	 0.907109575	 0.098821
H	-3.2593804783	-0.3825008244	-1.3651572446	 0.119327
H	-1.6443394895	-0.047255729	-2.1677200841	 0.122955
H	-0.7559822009	-1.8787140967	-1.1139849071	 0.243533
