16
gdb 123721	3.65429	1.68373	1.16911	3.4207	74.58	-0.2492	0.0042	0.2535	994.5	0.129099	-396.976871	-396.970292	-396.969347	-397.008063	25.491	
C	-0.0172949452	 1.4171079537	-0.1384029593	-0.186433
C	 1.3366478467	 2.0169297363	 0.1081197097	-0.070333
C	 2.432375147	 1.3116084433	 0.3784647547	-0.056008
C	 2.4672137468	-0.1898949786	 0.4750529572	-0.390084
C	 1.1227911532	-0.7894068814	 0.2308031255	 0.390804
N	 0.7808224152	-2.0688197792	 0.2359969367	-0.344606
C	-0.5492144602	-2.0204592068	-0.0438910563	 0.020687
N	-1.0501636249	-0.8076015566	-0.2207674504	-0.263745
N	 0.0433048435	-0.0266471876	-0.0395839127	-0.010353
H	-0.752020401	 1.7940310455	 0.5850923087	 0.142623
H	-0.3938291132	 1.6915252521	-1.1325191181	 0.142619
H	 1.3793168752	 3.1002270814	 0.0525393394	 0.106466
H	 3.3740740258	 1.8266429588	 0.5440867486	 0.103897
H	 3.1892566776	-0.6044473829	-0.2415367868	 0.145689
H	 2.8346131761	-0.503136852	 1.4617577639	 0.145691
H	-1.1679411623	-2.9022774259	-0.1201203908	 0.123086
