18
gdb 37286	4.30623	1.58059	1.51706	3.2123	73.49	-0.227	0.0806	0.3075	913.8647	0.151143	-401.880125	-401.874193	-401.873249	-401.910052	25.857	
C	-0.0365894732	 1.4999967616	-0.0185468764	-0.258998
C	 1.5075565425	 1.7359479349	-0.0104625299	-0.165262
N	 2.0761554367	 0.3660387323	 0.0397142575	-0.097068
C	 1.1976551665	-0.3918401418	-0.9445051854	-0.062059
C	 1.4854044155	-1.8637907187	-0.6245260577	 0.033355
O	 2.6824128672	-2.0952145875	 0.1256356513	-0.230436
C	 1.4705416822	-1.8165101781	 0.8347322576	 0.033356
C	 1.1773109699	-0.3271247585	 1.0528445886	-0.062059
C	 0.0183541726	-0.0238033926	 0.0313850813	-0.020986
H	-0.5450386216	 1.9338930912	 0.847572576	 0.101619
H	-0.5270222877	 1.8765879175	-0.9211010707	 0.101619
H	 1.8697708489	 2.2424949436	-0.9090343131	 0.107562
H	 1.8517456438	 2.2998328002	 0.860621751	 0.107562
H	 1.2179502283	-0.056140439	-1.9828557683	 0.071352
H	 1.1223883616	-2.6759977307	-1.2444207048	 0.102577
H	 1.0944505636	-2.5871278872	 1.4983844382	 0.102577
H	 1.1766942216	 0.0750935503	 2.0674864882	 0.071351
H	-0.9226670684	-0.5811750175	 0.0398592666	 0.06394
