23
gdb 103756	3.14686	1.00619	0.88922	1.8322	82.81	-0.2422	0.0712	0.3135	1447.0744	0.202002	-425.418053	-425.406989	-425.406045	-425.453744	41.358	
C	 0.3292426587	 1.4883315331	 0.2300505898	-0.396828
C	-0.1706879136	 0.0835851799	-0.1267570867	-0.21429
C	 0.5603564575	-0.5181025797	-1.3119005644	 0.351146
O	 0.374452197	 0.1791254465	-2.5201386926	-0.471894
C	 1.9106333752	-1.1931110179	-1.1074015409	-0.423383
C	 0.6742162038	-2.0072619521	-1.4667542537	 0.351145
O	 0.0760959952	-2.746664555	-0.4294196779	-0.471894
C	 0.5668463141	-2.6540493443	-2.8346568362	-0.21429
C	 1.3107492303	-3.9918922911	-2.9203256875	-0.396828
H	 1.3945398957	 1.4789308353	 0.486591369	 0.113658
H	 0.1878771564	 2.1865478626	-0.6027210274	 0.107296
H	-0.2177079658	 1.8932770351	 1.0865019911	 0.116046
H	-0.0675978847	-0.5868223716	 0.7294718103	 0.112342
H	-1.2395346353	 0.1233192458	-0.3693847085	 0.104425
H	 0.8945626686	 0.988203218	-2.4741835018	 0.282913
H	 2.6642794652	-1.0529617453	-1.8755894126	 0.106877
H	 2.2874710373	-1.2724487178	-0.0927904175	 0.106877
H	 0.6482345996	-3.4969784283	-0.2372739281	 0.282913
H	-0.4960428711	-2.8084464067	-3.0567117599	 0.104425
H	 0.9467554303	-1.9576640745	-3.5856018157	 0.112342
H	 2.3793109455	-3.8677142601	-2.7117218039	 0.113657
H	 0.9088219058	-4.7193281846	-2.2059798989	 0.107297
H	 1.2132328543	-4.4315056572	-3.9172587158	 0.116046
