18
gdb 15895	2.65142	1.92943	1.30675	2.1754	68.81	-0.2257	-0.0244	0.2013	989.0128	0.151583	-384.937529	-384.928784	-384.927839	-384.97102	31.219	
C	 0.0302553656	 1.5610396582	-0.3412457141	-0.24746
O	 0.5919799845	 0.3088830863	 0.0171766567	-0.241252
C	 0.7495062739	-0.5574091955	-1.0614000465	 0.049407
C	 1.345920898	-1.9667112398	-0.7418013106	-0.060509
C	 1.1603763824	-2.3915972198	 0.7118647449	-0.383343
C	 0.3116577978	-2.6111798918	-1.7217677168	-0.351333
C	-0.4799633988	-1.2935351943	-1.6477370498	 0.365584
O	-1.6273474116	-0.9940199114	-1.8145434915	-0.299645
H	 0.667316193	 2.0880480375	-1.068744778	 0.104403
H	-0.9724691204	 1.4441649374	-0.7677919287	 0.141564
H	-0.0297886943	 2.1553009492	 0.5731512473	 0.128741
H	 1.3063354245	-0.0788952344	-1.8879994187	 0.082682
H	 2.3889776073	-2.0779651105	-1.0444242786	 0.080069
H	 0.1136240537	-2.3058013506	 1.0218255387	 0.126697
H	 1.4704910729	-3.4323996068	 0.8481806727	 0.113455
H	 1.7514076348	-1.7615487384	 1.3813872943	 0.131678
H	 0.7076330615	-2.7946604975	-2.7254960295	 0.128748
H	-0.2164825248	-3.5052680976	-1.3818387418	 0.130513
