18
gdb 17076	6.34426	1.03306	0.98915	2.4394	68.46	-0.2451	0.0783	0.3234	1211.3908	0.153579	-384.895493	-384.887534	-384.88659	-384.929098	28.241	
C	-0.1023457423	 1.5808416799	 0.1510644019	-0.247169
C	-0.1224540512	 0.081109447	 0.3246712131	 0.101032
C	-1.277879797	-0.7370091914	-0.059193811	-0.180546
O	-0.1101061792	-0.694766449	-0.8805225607	-0.239947
C	 1.2948320566	 2.0930650137	-0.1658855289	 0.169709
C	 1.5422882585	 3.6169515845	-0.1191417293	-0.302267
C	 2.5865199876	 3.2694989816	 0.9604205131	-0.057013
O	 2.2173179813	 1.8751070553	 0.9333871567	-0.297797
H	-0.7824923127	 1.8613201451	-0.6625760161	 0.103081
H	-0.4578814611	 2.0609206065	 1.0718756172	 0.100398
H	 0.5416521589	-0.2995593324	 1.1007287067	 0.111003
H	-1.4644691287	-1.685516658	 0.442695969	 0.114116
H	-2.1609360468	-0.2537083596	-0.4767951695	 0.109089
H	 1.6652375861	 1.6087531497	-1.0794216791	 0.090341
H	 1.9240517351	 4.0716144303	-1.034104083	 0.112033
H	 0.6889016099	 4.1958907853	 0.2413951174	 0.108045
H	 3.6315854351	 3.4195975011	 0.6607036454	 0.102397
H	 2.43691357	 3.7151276605	 1.9508407469	 0.103494
