18
gdb 13464	3.64845	1.12041	1.0483	2.0643	63.71	-0.2394	0.0538	0.2932	1173.192	0.152293	-422.040679	-422.031543	-422.030599	-422.074944	32.946	
O	 0.0696620815	 1.3480737905	 0.0710998233	-0.419254
C	-0.0561985961	-0.058181436	 0.2136554856	-0.056892
C	-1.4117349676	-0.5811556844	-0.2749865222	-0.234217
C	-1.5006426936	-2.0892388495	-0.1825262602	-0.105982
C	-1.8653094132	-2.7561863766	 1.1344709378	 0.103863
O	-2.2091003566	-1.9601333383	 2.2264846151	-0.430764
C	-2.8324448527	-2.8037308462	-0.017103191	 0.010156
O	-4.0015656505	-2.0619527594	 0.2120466862	-0.42818
H	-0.538806932	 1.7592887064	 0.6930484519	 0.281204
H	 0.7512100199	-0.4900450143	-0.3883729296	 0.105917
H	 0.1012804007	-0.3775085138	 1.2538289764	 0.109278
H	-2.2000664754	-0.1258119814	 0.3341542739	 0.087976
H	-1.5659372394	-0.245341716	-1.3081541664	 0.098808
H	-0.7774603372	-2.6268213092	-0.7922607716	 0.087512
H	-1.3436163496	-3.6639789493	 1.4239803135	 0.098619
H	-3.1327635246	-1.7062024754	 2.09217494	 0.297324
H	-2.9937516944	-3.7397351575	-0.5484972366	 0.094872
H	-4.1630318191	-1.4884608897	-0.5441383258	 0.29976
