24
gdb 15827	3.78478	0.97695	0.83081	0.0418	85.88	-0.2703	0.0916	0.3619	1487.871	0.222462	-314.270722	-314.260768	-314.259824	-314.305735	36.687	
C	-0.0722611335	 1.5357165079	-0.2443670135	-0.378169
C	-0.0006346154	 0.0276890035	 0.0143688933	-0.175773
C	-1.3830988932	-0.6353710365	 0.0411618097	-0.154714
C	-1.3759642214	-2.168108251	 0.2003879692	 0.009451
C	-0.7864442576	-2.6206583888	 1.5450978931	-0.392636
C	-2.7775531503	-2.7274993654	 0.0204602125	 0.046508
C	-3.3453830104	-2.9639476852	-1.3552788182	-0.274999
C	-2.990918146	-4.136249828	-0.4706511882	-0.278528
H	 0.9247230592	 1.9873659568	-0.2618146908	 0.108883
H	-0.5526785023	 1.7502994456	-1.2055709202	 0.112373
H	-0.6534472753	 2.043318813	 0.5337700466	 0.112629
H	 0.6130129809	-0.4477083759	-0.7630272829	 0.091232
H	 0.5204269518	-0.1492815398	 0.9627627483	 0.097533
H	-1.980916348	-0.1948585701	 0.8528324189	 0.085604
H	-1.9114495487	-0.388072355	-0.8890599664	 0.091874
H	-0.7497529848	-2.5850581357	-0.6033076439	 0.061298
H	-1.3598507283	-2.2017472434	 2.3810607199	 0.108503
H	-0.8177834404	-3.7109243148	 1.6349913861	 0.113187
H	 0.2538873108	-2.304789503	 1.6647085642	 0.111554
H	-3.4871870957	-2.3786789085	 0.7688779888	 0.074728
H	-4.3934422756	-2.7485157505	-1.5322891033	 0.107643
H	-2.703760437	-2.7654527874	-2.2082675844	 0.107056
H	-2.1133346031	-4.7182619343	-0.7347342885	 0.107289
H	-3.7968528359	-4.7223092435	-0.0426302302	 0.107472
