14
gdb 20499	9.02818	0.97825	0.8875	2.2293	76.41	-0.2149	0.0079	0.2229	1252.8326	0.108651	-341.588249	-341.580617	-341.579673	-341.622225	26.469	
C	-0.0386962865	 1.4945848169	 0.0102517291	-0.508169
C	 0.0028683818	 0.0406718159	 0.0026135047	 0.185279
C	 0.0397172838	-1.165280744	-0.0037295736	-0.101932
C	 0.0594670445	-2.5785099836	-0.0110015559	 0.126759
C	 1.1637455065	-3.419881333	-0.0221127005	-0.168784
N	 0.6828224731	-4.6825484051	-0.0255243673	-0.175855
N	-0.6639717204	-4.7435884746	-0.0174613373	-0.208933
C	-1.0466258432	-3.4746212845	-0.0086457385	-0.128082
H	 0.9713951481	 1.9191442051	 0.0027409166	 0.148339
H	-0.5672150809	 1.8850221729	-0.8670311084	 0.148758
H	-0.5503922174	 1.8762601446	 0.9012606333	 0.148746
H	 2.2196031773	-3.2033327486	-0.027572055	 0.139488
H	 1.2083662303	-5.5400878645	-0.0331460987	 0.278394
H	-2.095978157	-3.2213259275	-0.0008331884	 0.115992
