16
gdb 37748	3.57628	2.01087	1.56265	0.9061	66.79	-0.2492	0.0651	0.3143	836.0687	0.126664	-437.764814	-437.758965	-437.75802	-437.794692	24.866	
C	-0.0881154093	 1.5118139937	 0.0067071121	-0.251972
N	 1.4379277943	 1.2493015872	-0.0140699307	-0.180953
C	 1.2321651939	 0.0379305679	 0.9189404419	-0.074603
C	 1.8869834024	-0.9777524181	-0.0188015313	 0.09681
O	 1.1968331821	-2.2337958909	 0.0478499854	-0.285975
C	-0.1184157314	-2.1864317064	-0.463384163	 0.006981
O	-0.8963877281	-1.0766572645	 0.0131769454	-0.314139
C	-0.0192833205	-0.0056308969	 0.0048521495	 0.397322
C	 1.2144087638	 0.0430502442	-0.949981655	-0.125116
H	-0.4273559392	 2.0146877161	 0.9165027426	 0.116388
H	-0.4536649169	 2.0216811475	-0.8893202889	 0.113555
H	 1.2702808689	 0.1363997283	 2.0031904257	 0.090102
H	 2.9600708002	-1.1725481412	-0.0263891548	 0.093573
H	-0.0862410342	-2.1249231329	-1.5623047647	 0.098471
H	-0.6220006273	-3.0993145797	-0.1440210329	 0.129264
H	 1.2424346513	 0.1719839857	-2.0320084111	 0.09029
