18
gdb 24280	3.86022	1.52364	1.19507	1.4858	82.29	-0.1949	0.0466	0.2415	1032.0694	0.151938	-364.842363	-364.835645	-364.834701	-364.873103	28.254	
C	-0.020474173	 1.4816528954	 0.0824041461	-0.281715
C	 1.3016245898	 0.7623537296	 0.0134242248	-0.022284
C	 2.0493860488	 0.4601088422	 1.3254744051	-0.377484
C	 1.0870126536	-0.4380727423	 2.0616925971	 0.246343
C	 0.9574453763	-1.096399878	 3.2583168939	-0.237543
N	-0.2247443327	-1.8043763027	 3.197923527	-0.238821
C	-0.8531292515	-1.6002863216	 1.9859518099	-0.260427
C	-0.0520149495	-0.7507998181	 1.2655936024	 0.297446
C	-0.0056845219	-0.0323635711	-0.0298981944	-0.196854
H	-0.3367927409	 1.9122292129	 1.0274495614	 0.110797
H	-0.3198381928	 2.0480947088	-0.7939094856	 0.103272
H	 1.8910427412	 0.8909635946	-0.8872825288	 0.079328
H	 3.0013511664	-0.0435386095	 1.1138132255	 0.104732
H	 2.296414428	 1.3777915459	 1.8733177788	 0.106274
H	 1.5853951903	-1.1479137168	 4.1334995404	 0.114506
H	-0.5711992836	-2.4013167873	 3.9277706485	 0.256197
H	-1.7973378202	-2.0722343999	 1.7671381177	 0.115273
H	-0.3607078682	-0.4943247121	-0.9441600598	 0.08096
