16
gdb 69743	3.48275	1.60762	1.39589	1.7227	66.87	-0.2465	0.0177	0.2642	927.1019	0.12581	-437.857362	-437.850492	-437.849548	-437.888378	27.583	
O	-0.047104701	 1.4239122569	 0.0493798581	-0.462474
C	 0.005590854	 0.0441433039	 0.0377081438	 0.379486
C	-0.2882249366	-0.7771335837	-1.1820481608	-0.361804
C	-1.1768211197	-0.941929967	 0.0261136008	-0.104049
C	-0.4776121931	-1.7993071481	 1.1030550646	-0.023632
N	 0.1365131197	-3.0670052485	 0.6913349209	-0.260954
C	 1.3709122713	-2.8075461885	 0.5388178215	 0.104547
O	 1.8567817478	-1.5547958059	 0.7752263836	-0.231411
C	 0.6923773215	-0.777595965	 1.1346722354	-0.010713
H	 0.6209368094	 1.7616119833	-0.5574613075	 0.291644
H	-0.7449949496	-0.1986964821	-1.97908104	 0.119924
H	 0.3637526349	-1.5763968566	-1.5200538935	 0.129195
H	-2.238509071	-0.7351324993	-0.0145371507	 0.102139
H	-1.0637760817	-1.9217414887	 2.0153650447	 0.090081
H	 2.1275021657	-3.5195591891	 0.225571132	 0.138001
H	 0.8937491084	-0.2217507815	 2.0505726671	 0.100019
