15
gdb 21101	3.52023	2.05876	1.32173	3.9318	64.49	-0.2087	0.0186	0.2273	892.4661	0.120498	-392.154407	-392.146234	-392.145289	-392.186906	28.971	
C	-0.068592221	 1.4186763975	-0.0428361588	-0.339618
N	 0.0028375545	-0.0196336344	 0.0554177612	 0.014909
N	 0.0990577229	-0.7918090775	-1.069128795	-0.175959
N	 0.1215778423	-2.0321254786	-0.6831297374	-0.238184
C	 0.0656782219	-2.0887363484	 0.6757124655	 0.187563
N	 0.0834983317	-3.257363634	 1.4727600329	-0.607858
C	-0.004780422	-0.7969790753	 1.1614117609	 0.310661
N	-0.1549241185	-0.3198096653	 2.4581778319	-0.611437
H	 0.8505222397	 1.8929506806	 0.3197388905	 0.134915
H	-0.2017619638	 1.6641074564	-1.0966254381	 0.169639
H	-0.9170213136	 1.796120558	 0.5355029084	 0.150032
H	-0.7899985001	-3.7707820039	 1.3913844735	 0.244938
H	 0.8159295916	-3.8871931094	 1.1593208427	 0.246597
H	-0.0489239014	-1.0893939143	 3.110835478	 0.263456
H	 0.4894266459	 0.4243809286	 2.7001217539	 0.250348
