19
gdb 36696	5.31877	0.75084	0.71602	4.4555	80.68	-0.2255	0.0379	0.2634	1569.344	0.159786	-382.035109	-382.026578	-382.025634	-382.069122	31.634	
N	-0.2103728795	-1.174949253	-0.1266112101	-0.305802
C	-0.1245913895	-0.0267198514	-0.0283542382	 0.255953
C	 0.0099932384	 1.4221611048	 0.0907912021	-0.337814
C	 1.4701642514	 1.8926130193	-0.061155347	-0.148444
N	 1.5326818995	 3.3362185553	 0.0566579216	-0.081176
C	 1.481910084	 3.9690952871	 1.4114313119	-0.191305
C	 2.770149888	 4.7329457435	 1.0976510245	-0.068628
C	 3.8728155852	 3.7516255631	 0.7904362796	-0.292792
C	 2.7990133022	 4.0072761674	-0.2363046055	-0.00751
H	-0.6095440143	 1.9112254952	-0.6677196074	 0.159526
H	-0.3815191277	 1.7295847646	 1.0675177307	 0.152324
H	 2.0976029273	 1.3582728383	 0.6728955142	 0.101624
H	 1.8362046677	 1.6170266893	-1.0557528208	 0.125437
H	 0.5931936886	 4.5956638309	 1.5340798776	 0.112991
H	 1.5434285399	 3.2664838484	 2.2549054262	 0.098289
H	 2.9481540984	 5.778755851	 1.3060053585	 0.099061
H	 4.8357273121	 4.1976544188	 0.561973989	 0.11847
H	 3.9326877711	 2.8050522725	 1.321107125	 0.111678
H	 3.0088560072	 4.3729649049	-1.2357490519	 0.098118
