19
gdb 78996	3.41946	1.79286	1.64596	1.3332	83.64	-0.1923	-0.0147	0.1776	905.3753	0.160852	-348.656169	-348.64955	-348.648606	-348.686662	28.528	
C	 0.1632976076	 1.5250911131	 0.3514206832	-0.417881
C	 0.014533856	 0.0457970892	 0.0544378351	-0.005967
C	 0.863020936	-0.6796302653	-1.0877367537	-0.046825
C	 2.4287790365	-0.772674765	-1.0615814319	-0.103103
C	 2.9585771624	-1.142629662	 0.3854412977	-0.076549
C	 1.9651836229	-0.6602608381	 1.3608611712	-0.110933
C	 0.7379858367	-1.0152096551	 0.9082983589	-0.015219
C	 0.8752673258	-1.9997271942	-0.2742465181	-0.063945
C	 2.3773053401	-2.189848803	-0.5220632683	-0.092888
H	 1.2155530926	 1.813189953	 0.4331741732	 0.120257
H	-0.2938205426	 2.1233441004	-0.4443010319	 0.11313
H	-0.3335198791	 1.7929449952	 1.2902688686	 0.122543
H	-1.0367801672	-0.1947087978	-0.1548108665	 0.074645
H	 0.4582707691	-0.6595321071	-2.1030443906	 0.078321
H	 3.1088559283	-0.3370857893	-1.7812935549	 0.090273
H	 4.033767087	-1.0847643207	 0.5180085475	 0.08532
H	 2.1485312941	 0.2468720768	 1.9281975882	 0.092068
H	 0.1338405193	-2.7828659405	-0.41538205	 0.067987
H	 2.9005040144	-3.0814848696	-0.8391064676	 0.088766
