17
gdb 52484	5.38512	0.55798	0.52646	1.1807	100.53	-0.2198	-0.0062	0.2135	2092.8544	0.133236	-384.632088	-384.62186	-384.620916	-384.670391	34.94	
C	-0.023640455	 1.47233558	 0.0227288607	-0.517943
C	-0.0199571065	 0.0206248625	 0.010833884	 0.237955
C	-0.0161618492	-1.1902594746	 0.0030771061	-0.202973
C	-0.0124088736	-2.5490402578	-0.0073531712	-0.146542
C	-0.0045784477	-3.7622619957	-0.0050967179	 0.256371
C	-0.0158549217	-5.1878187861	-0.0503646098	-0.279993
C	-0.2902233892	-6.01605057	 1.2074648699	-0.297539
C	-1.3410019348	-5.9267734372	 0.1528565224	 0.128585
O	-2.4805079284	-5.1974947377	 0.4647638642	-0.416386
H	 0.7101324653	 1.8668513973	 0.7349130819	 0.155502
H	 0.2205114484	 1.878092444	-0.9657161369	 0.155067
H	-1.0069861265	 1.8633583141	 0.3080546695	 0.155607
H	 0.6646239671	-5.6338809982	-0.770808649	 0.118435
H	 0.2673144175	-6.9380724935	 1.3249831808	 0.121485
H	-0.4826662259	-5.461276631	 2.1175321158	 0.141066
H	-1.5051213055	-6.7935349162	-0.4870833239	 0.096041
H	-2.5872110344	-4.50183448	-0.1941056165	 0.295261
