17
gdb 93810	2.99385	1.38003	1.01174	3.1773	64.89	-0.2796	-0.0027	0.2768	1152.3405	0.135381	-496.138185	-496.129717	-496.128773	-496.171457	31.377	
C	-0.4966520995	 1.3669861232	 0.0803124976	-0.40503
C	-0.0376699966	-0.0649713074	-0.0537590208	 0.20803
O	 0.8578183286	-0.1692149209	-1.1091585674	-0.241919
C	 1.3042844216	-1.5023487685	-1.3630414397	-0.096303
C	 1.2275913127	-2.3872386632	-0.0979705772	-0.033228
O	 2.2013391032	-3.3892177865	-0.1217473228	-0.439387
C	 1.3714019844	-1.5304633408	 1.1562270089	 0.406809
O	 2.0981950339	-1.8477603115	 2.0629304512	-0.351565
O	 0.6234380462	-0.4193841093	 1.1934412008	-0.224296
H	 0.3726580337	 2.0183106016	 0.1949879597	 0.14818
H	-1.0492313055	 1.6601376316	-0.814955509	 0.136233
H	-1.1427286961	 1.4722386711	 0.9542305417	 0.139465
H	-0.8885600927	-0.7535418387	-0.1787160183	 0.088687
H	 0.7196553978	-1.945258311	-2.1788811029	 0.114133
H	 2.3496085474	-1.438744838	-1.6732999778	 0.140293
H	 0.2207471155	-2.8366512378	-0.0408952493	 0.109756
H	 2.6305929353	-3.3485119839	 0.7483166153	 0.300141
