25
gdb 60377	3.23396	0.71587	0.69732	1.6842	89.56	-0.2585	0.0832	0.3416	1813.8133	0.226233	-389.488489	-389.477397	-389.476453	-389.525415	40.748	
C	-0.2985213532	 1.5671926189	-0.0276391096	-0.380875
C	 0.0474961742	 0.0729402022	 0.0443761431	 0.041038
C	-1.2175137904	-0.7614201404	 0.2871233065	-0.390424
C	 0.7839269242	-0.4237927846	-1.2131011183	-0.166871
C	 2.1651498412	 0.2107118983	-1.4375986355	-0.275792
C	 2.9478512851	-0.4410598714	-2.5658123254	 0.432392
C	 2.3957156892	-0.2891708624	-3.9674214727	-0.460615
C	 4.3859478483	-0.6946297044	-2.3873709011	-0.232512
O	 3.4388929896	-1.7580721371	-2.2573771429	-0.277967
H	 0.5925401793	 2.1945481094	-0.1248076324	 0.112154
H	-0.9491679953	 1.7752672144	-0.8860556275	 0.109212
H	-0.8297659276	 1.889108209	 0.8742041187	 0.109618
H	 0.7188201133	-0.077440573	 0.9027864852	 0.071119
H	-1.9257545327	-0.6489030537	-0.5427847854	 0.109946
H	-0.9810673984	-1.8265568177	 0.3795317012	 0.111805
H	-1.7299826221	-0.4492748956	 1.203223303	 0.107786
H	 0.9201293166	-1.5096049308	-1.1385400335	 0.109299
H	 0.142316603	-0.2503269707	-2.0879051756	 0.089615
H	 2.0688586307	 1.2825115423	-1.6509131943	 0.097878
H	 2.7515177298	 0.1219046792	-0.5154290027	 0.097643
H	 2.3323883835	 0.7682734831	-4.2467093045	 0.118307
H	 3.0357418799	-0.8025522773	-4.6890238904	 0.125035
H	 1.3912726799	-0.7168456014	-4.0435892889	 0.129276
H	 5.038595623	-0.7543357093	-3.2582649919	 0.106369
H	 4.8794028789	-0.391629357	-1.4641804549	 0.106564
