19
gdb 113009	2.37754	1.17894	1.07202	3.5149	72.96	-0.2397	-0.0168	0.2229	1243.5901	0.156489	-460.137079	-460.12733	-460.126386	-460.172305	34.566	
C	 0.4294976752	 0.6696847342	 0.6460516355	-0.23834
O	 0.1121295449	-0.5373754855	-0.012217989	-0.227783
C	 0.4477999595	-0.532752972	-1.376262621	 0.09987
C	 1.9405644142	-0.8950787952	-1.6435887358	-0.281601
C	 1.5388699525	-2.393031942	-1.8263726416	-0.160556
C	 1.6932880648	-3.2301161694	-0.5792465444	 0.16486
O	 2.0309952345	-4.3879613143	-0.5928341461	-0.264604
C	 0.0629484193	-1.8836746562	-2.0249873216	 0.116323
O	-1.0028871945	-2.5573844739	-1.4230257565	-0.412538
H	 1.5092530977	 0.8810865012	 0.6375710548	 0.106959
H	-0.0920300368	 1.5240656562	 0.1880402575	 0.109442
H	 0.1003391757	 0.5658734476	 1.6822048904	 0.134611
H	 0.0562577228	 0.3720561873	-1.8623936988	 0.067602
H	 2.3328728596	-0.4583789245	-2.564396661	 0.113573
H	 2.6298129303	-0.6736081385	-0.8255897759	 0.117025
H	 1.9751567581	-2.9366357524	-2.6664611386	 0.08436
H	 1.4585234903	-2.7047924961	 0.3692820155	 0.095942
H	-0.1046548934	-1.7224978876	-3.0997951968	 0.081188
H	-1.1511070047	-3.3806800489	-1.9000669066	 0.293666
