23
gdb 60068	2.25961	1.10223	0.95227	0.5678	91.99	-0.2396	0.0551	0.2947	1417.4704	0.203065	-351.120792	-351.110271	-351.109327	-351.156222	39.864	
C	-1.5037948018	-0.4436988898	-0.0402919141	-0.390954
C	 0.0084618014	-0.3414665979	 0.1997367403	 0.043633
C	 0.4676087709	-1.3726623128	 1.2393161269	-0.385389
C	 0.7647029439	-0.4655176414	-1.136271784	-0.266481
C	 2.2739062209	-0.2308787572	-1.0689079486	 0.1596
C	 3.199886879	-1.4246149262	-0.8652840073	-0.283178
C	 3.1226594608	-0.7714202741	-2.2129894337	-0.309268
C	 2.6837887222	 1.0253781193	-0.4964791124	 0.298899
C	 3.0115443229	 2.0808770006	-0.0195605453	-0.482627
H	-1.8501648455	 0.3158744103	-0.7492343563	 0.109551
H	-1.7729550497	-1.4261191788	-0.4476917764	 0.108348
H	-2.0608369645	-0.3101528179	 0.8928536366	 0.109087
H	 0.2211841262	 0.6579590257	 0.6013005564	 0.089198
H	 0.301996881	-2.3959715408	 0.8794373337	 0.103428
H	 1.5299284119	-1.2659559833	 1.4735910091	 0.124272
H	-0.0933420797	-1.2580501211	 2.1728184346	 0.107938
H	 0.5926862771	-1.4638869199	-1.5610940251	 0.087534
H	 0.3370397221	 0.2520102429	-1.8482376181	 0.100673
H	 4.0928224127	-1.2718995828	-0.2708686533	 0.124672
H	 2.7273075919	-2.3915822206	-0.7338271553	 0.118749
H	 2.595995171	-1.2875203623	-3.0087993893	 0.116553
H	 3.9612056367	-0.1688150117	-2.5404673502	 0.125511
H	 3.3051908686	 3.0104926696	 0.4006422319	 0.19025
