20
gdb 62076	5.18827	0.63549	0.59177	2.7333	78.07	-0.2367	-0.0377	0.199	1847.5705	0.168759	-440.257017	-440.247279	-440.246335	-440.292866	34.765	
O	 0.1441271325	 1.509957006	 0.049160131	-0.433669
C	 0.0047511016	 0.1169723362	-0.0272814275	 0.047751
C	 0.6096558114	-0.4457827239	-1.3250333704	-0.207199
C	-0.0426394567	 0.1641755258	-2.5664674312	-0.141135
N	 0.5826738916	-0.3531277575	-3.776570406	-0.060366
C	-0.0152920976	-1.5514478978	-4.3568187274	-0.222142
C	-0.1853747243	-0.2228656469	-5.0077418228	-0.219932
C	 0.6425326703	-0.541718412	 1.1778587887	 0.137902
O	 1.1873201327	 0.1020525932	 2.0419315209	-0.260246
H	 0.625815371	 1.6797003368	 0.8743335734	 0.294984
H	-1.0671099219	-0.1596843552	 0.0002454803	 0.090807
H	 1.6844267223	-0.2352361492	-1.3464062583	 0.122254
H	 0.4864185709	-1.5366010906	-1.3393345607	 0.096846
H	-1.1327012897	-0.029298681	-2.5459902751	 0.074235
H	 0.0934516812	 1.2495760488	-2.5438331045	 0.13101
H	 0.6781302542	-2.2828147534	-4.7619103461	 0.11728
H	-0.8897645244	-1.9754627204	-3.8639665808	 0.105155
H	-1.1717229925	 0.2351941349	-4.9489485367	 0.110262
H	 0.3836688184	 0.036076169	-5.8960627902	 0.118423
H	 0.5861222289	-1.6487907827	 1.2217658635	 0.097779
