18
gdb 31488	3.13869	1.07865	0.84973	2.251	77.72	-0.1887	0.0192	0.2079	1363.1434	0.147019	-439.110234	-439.10059	-439.099646	-439.145185	34.584	
C	 0.177671258	 1.3721724523	-0.225489947	-0.50041
C	-0.0498628305	-0.0882554222	-0.0782637635	 0.293033
C	-1.1533716237	-0.8497998334	 0.1852766137	 0.144033
N	-2.4618674189	-0.42294255	 0.4680785059	-0.609034
C	-0.7061938031	-2.2152816438	 0.2118834341	-0.335187
C	 0.6309006292	-2.1920557092	-0.026724153	 0.343515
C	 1.6772502906	-3.2414346379	-0.165175042	-0.176344
O	 2.1767419517	-3.3676689608	-1.4942973656	-0.414019
O	 1.050560212	-0.9069320552	-0.196092943	-0.234574
H	 0.7012826432	 1.807478671	 0.6354694849	 0.136206
H	 0.7741494861	 1.5936804845	-1.1177660139	 0.134929
H	-0.7769387012	 1.8974411708	-0.3270026377	 0.120786
H	-2.631122269	 0.5346406211	 0.1869776345	 0.238243
H	-3.1605761244	-1.0168820637	 0.0385667524	 0.244209
H	-1.3103830453	-3.0919329868	 0.389976881	 0.105582
H	 2.5004855537	-3.042241534	 0.539229893	 0.100606
H	 1.2451099303	-4.2109649711	 0.0958036411	 0.121588
H	 2.4772122913	-2.4931125418	-1.7632903247	 0.28684
