20
gdb 32988	4.52377	0.8784	0.78262	1.6714	89.31	-0.2468	-0.0194	0.2274	1518.7897	0.173018	-366.085726	-366.077154	-366.076209	-366.120007	31.862	
C	 0.0024899913	 1.5723617417	 0.0696788066	-0.380757
C	-0.0294584968	 0.0472806893	 0.188481305	-0.152786
C	-1.4190371878	-0.5460051392	-0.1087329516	-0.27155
C	-1.4263494533	-2.0534257505	-0.0362491009	 0.324907
N	-0.7986480486	-2.6992103114	-1.0311059553	-0.305002
C	-0.7608813272	-4.0315289578	-0.9920364433	-0.004615
C	-1.3355623368	-4.7949137391	 0.0207850277	-0.12635
C	-1.9864722428	-4.1260056426	 1.0512602341	-0.074085
C	-2.0323663015	-2.736833089	 1.0219656394	-0.169324
H	 1.0009281009	 1.9661422305	 0.2842837197	 0.111899
H	-0.2736841265	 1.8964611676	-0.9398783112	 0.116034
H	-0.6977932727	 2.0419702363	 0.7698746003	 0.110924
H	 0.6900112616	-0.4020203996	-0.5047086515	 0.118508
H	 0.2816113416	-0.2540557734	 1.1969755137	 0.093043
H	-2.1550200289	-0.1351101828	 0.5921464279	 0.092308
H	-1.724311334	-0.2441647316	-1.1175164413	 0.113565
H	-0.245477572	-4.5177177022	-1.8179067599	 0.104744
H	-1.2738729384	-5.8770091735	-0.0036920024	 0.099086
H	-2.4526744387	-4.6755282424	 1.8628625234	 0.104901
H	-2.5334841893	-2.1815195802	 1.8078306997	 0.094551
