19
gdb 74386	2.96546	1.60551	1.22492	1.3918	80.25	-0.2114	0.023	0.2344	1060.3042	0.159439	-385.861672	-385.853884	-385.85294	-385.89334	31.768	
C	-0.0221142591	 1.523256258	 0.1024604544	-0.498188
C	-0.079516923	 0.0339886484	-0.005272579	 0.332479
C	-0.0073912258	-0.7321583033	-1.100966555	-0.281395
C	-0.0203945379	-2.1734473666	-0.7085746783	 0.392889
O	-0.4362893775	-3.1576595872	-1.6032272065	-0.482516
C	 0.9366486416	-2.6464670619	 0.424458164	-0.126807
C	 1.430985294	-1.4876611488	 1.2775717961	-0.236946
C	-0.0302411975	-0.8774623044	 1.2103173037	-0.163063
C	-0.5089353678	-2.2751837831	 0.7016511108	-0.11
H	 0.8726597645	 1.8534286511	 0.6466687333	 0.125082
H	-0.0098117787	 1.9981169236	-0.882497724	 0.123329
H	-0.8839397133	 1.9139212911	 0.6588384482	 0.123841
H	 0.0905521083	-0.3945972432	-2.1260784335	 0.086712
H	 0.3085513595	-3.381090665	-2.1709841054	 0.283871
H	 1.3751292848	-3.6352613949	 0.3493446984	 0.081902
H	 1.6587034239	-1.829664348	 2.290806798	 0.102815
H	 2.2504885273	-0.8608675721	 0.9082009958	 0.088076
H	-0.4291367937	-0.4705797894	 2.1392925127	 0.066047
H	-1.3526524597	-2.8724708541	 1.0241735463	 0.091869
