17
gdb 31174	2.38492	1.34538	0.90956	3.3238	78.71	-0.2364	-0.0417	0.1947	1266.9178	0.135681	-421.878945	-421.870403	-421.869459	-421.912916	30.797	
C	-0.2821545485	 1.5898991085	-0.114944245	-0.374778
C	 0.102078579	 0.1052380677	 0.0241648845	-0.297014
C	 0.8730742181	-0.4115292125	-1.1412842365	 0.309171
C	 2.157800474	-0.8727296599	-1.3114236842	 0.061661
C	 3.1924607129	-1.0012488118	-0.2929726256	 0.065098
O	 4.312928842	-1.4132836395	-0.5047297866	-0.281539
C	 2.2871804134	-1.2106083851	-2.7068170504	-0.270801
C	 1.092457014	-0.9319606948	-3.2687723268	-0.012608
O	 0.2210959327	-0.4443286158	-2.327578687	-0.185419
H	 0.6097012781	 2.2198626738	-0.1809339639	 0.128392
H	-0.879861225	 1.7526737768	-1.0154843564	 0.136701
H	-0.8683047103	 1.9142258855	 0.749409322	 0.121782
H	 0.6957516752	-0.0469856914	 0.9298004144	 0.124488
H	-0.808335585	-0.4963724829	 0.1396043712	 0.129193
H	 2.8878918256	-0.6886357043	 0.7304127687	 0.061404
H	 3.1685569567	-1.6060406456	-3.1844132387	 0.140269
H	 0.6942217171	-1.0120292786	-4.2663417297	 0.144
