17
gdb 21989	3.73954	1.11033	0.86073	4.2947	85.73	-0.1676	0.0039	0.1716	1303.683	0.136762	-418.010155	-418.001557	-418.000613	-418.043077	32.592	
C	-0.0075541446	 1.4900679401	-0.0352889444	-0.492735
C	-0.0388711496	-0.0082345399	 0.015191342	 0.391542
C	-1.1498164025	-0.760307336	-0.143048692	-0.270373
C	-1.1170027357	-2.211508116	-0.0833449338	 0.366698
C	 0.1955041277	-2.7963541463	 0.1586497784	-0.226205
C	 1.273216656	-2.0006154838	 0.3096697777	 0.013127
N	 1.1794840875	-0.6304776502	 0.242755416	-0.394143
N	-2.230965623	-2.8555199484	-0.2461379222	-0.281324
O	-2.0123403237	-4.2555805746	-0.1571701847	-0.414682
H	 0.6543817951	 1.8481062842	-0.8337958911	 0.132795
H	-1.0066936598	 1.8869978685	-0.218999567	 0.146497
H	 0.3598524576	 1.9129646035	 0.9081832466	 0.132871
H	-2.1040237707	-0.2800161531	-0.3210262946	 0.099586
H	 0.2955494295	-3.8694566703	 0.2155234284	 0.121306
H	 2.2686881473	-2.3885077096	 0.491107283	 0.123766
H	 2.004797522	-0.0689526522	 0.3601774953	 0.254271
H	-2.900669653	-4.5975050858	-0.2933903575	 0.297003
