20
gdb 118454	2.1053	1.12392	0.80848	3.594	72.23	-0.2375	0.0356	0.2731	1443.3723	0.169164	-477.438593	-477.427889	-477.426944	-477.475716	37.612	
C	-0.0248794235	 0.7418835715	 0.9861632087	-0.24166
O	-1.2972154807	 0.2980500831	 0.570573173	-0.23718
C	-1.2887123932	-0.4192723666	-0.6513342294	-0.084447
C	-0.9276246877	-1.9049127022	-0.4690996482	-0.124061
C	-1.9519218311	-2.5946078821	 0.4346651723	-0.109419
O	-1.4236199802	-3.8521715322	 0.8696661354	-0.423452
C	-0.7435428593	-2.5615642105	-1.8498650358	 0.396201
N	-0.8011661047	-3.9187642994	-1.8536284396	-0.526231
O	-0.5474068863	-1.9031090227	-2.8571105464	-0.375979
H	-0.1709331301	 1.3358442605	 1.8919222618	 0.126807
H	 0.6593456338	-0.0871365644	 1.2221059598	 0.105713
H	 0.4516156572	 1.3718047671	 0.219802247	 0.111711
H	-2.3011425078	-0.3341927395	-1.0614033059	 0.109611
H	-0.6033413852	 0.0301546453	-1.3777737533	 0.122456
H	 0.0433433611	-1.9743981589	 0.040974999	 0.11277
H	-2.1442845244	-1.940982335	 1.2938073116	 0.1221
H	-2.8976453011	-2.7357420053	-0.1100815086	 0.099965
H	-2.0821636923	-4.2793526422	 1.4254884039	 0.294073
H	-0.9274918307	-4.4288457056	-0.9916608003	 0.267721
H	-0.643420844	-4.396805201	-2.7252938651	 0.253303
