17
gdb 20269	4.4492	2.63176	2.39012	1.65	70.09	-0.2224	0.0923	0.3147	664.7833	0.146446	-326.660327	-326.655309	-326.654365	-326.689007	22.267	
C	-0.0248127544	 1.5717259723	-0.0381118097	-0.240989
C	 1.5148534448	 1.3973980808	-0.0224232996	-0.052352
C	 1.328651156	 0.0529820054	 0.8103783568	-0.06206
C	-0.0216206393	 0.0454103712	 0.0437026735	 0.010691
N	 0.7890174598	-0.4878623964	-1.1414298088	-0.166321
C	 1.8048001842	 0.6617075013	-1.3362005042	 0.010485
C	 2.9514248295	-0.327588517	-1.0569885941	-0.249705
C	 1.8835608233	-0.9889472161	-0.1857285541	 0.000825
H	-0.4031924595	 2.0155705583	 0.8873329586	 0.101124
H	-0.4859518382	 2.0580970662	-0.9039028086	 0.097812
H	 2.1889875909	 2.1964361892	 0.2851476137	 0.066597
H	 1.4612943284	 0.057323824	 1.891590029	 0.063774
H	-0.89471445	-0.5616844866	 0.2801002839	 0.071661
H	 1.7394731549	 1.2292534891	-2.2653605545	 0.070454
H	 3.1919669906	-0.9375410679	-1.9306587419	 0.111971
H	 3.862879315	 0.0541348559	-0.5894679324	 0.094152
H	 1.889883174	-2.0453714199	 0.0858101726	 0.071883
