17
gdb 89963	2.9801	1.37067	1.09416	2.0131	68.9	-0.2607	-0.0425	0.2182	1096.5566	0.135206	-458.93024	-458.922204	-458.921259	-458.963227	30.131	
O	 0.4265735344	 0.9677076771	-0.6349026084	-0.432428
C	 0.0584248029	-0.2051133614	 0.0262052851	 0.154895
C	 0.1780357894	-0.2697754763	 1.5881637129	-0.350655
C	-1.3338829206	-0.5796226881	 1.707094888	 0.195857
C	-2.2358839094	 0.6671531739	 1.7246039611	-0.134942
O	-2.1603410892	 0.826996721	 0.2852488648	-0.297336
C	-1.4713112673	-0.4311391923	 0.1399836543	 0.019522
C	-1.7787144047	-1.8093844411	 2.425394308	 0.058576
O	-1.0364589154	-2.6384159495	 2.8899658235	-0.245449
H	-0.2852827852	 1.6012954024	-0.4635985782	 0.288981
H	 0.5712656751	-1.0401811131	-0.4595785292	 0.099697
H	 0.8015424914	-1.0855956656	 1.9572009887	 0.135785
H	 0.491127606	 0.6669582539	 2.0556939463	 0.106892
H	-3.2694560748	 0.4685577383	 2.038014953	 0.114509
H	-1.8504334793	 1.5390119501	 2.2637834314	 0.119296
H	-1.9892560828	-1.1209290019	-0.5308599342	 0.090074
H	-2.8852947904	-1.9337436273	 2.483232113	 0.076727
