15
gdb 72064	2.49736	1.7156	1.32418	6.0247	71.56	-0.2497	-0.0028	0.2469	975.0225	0.113271	-416.733939	-416.726569	-416.725624	-416.765705	28.371	
O	-0.2613658164	 1.3043073651	-0.0682496565	-0.448408
C	-0.0156203098	-0.0408326917	-0.0200313923	 0.318744
C	 0.9018608055	-0.8813364004	-0.8956230269	-0.235047
N	 0.0884936994	-2.1026829705	-0.5009354426	-0.195113
C	 0.3980724615	-2.2139719399	 0.9851149951	-0.181288
C	-0.3412671909	-0.9097565108	 1.2072936002	-0.203926
C	-1.0577076577	-1.1358764003	-0.1160507916	 0.265767
C	-2.4104098017	-1.1875611965	-0.5122082213	 0.138294
N	-3.5225039048	-1.220965181	-0.8342310287	-0.360817
H	 0.2460590715	 1.746559595	 0.6214587156	 0.300272
H	 0.7602720632	-0.6766375638	-1.9587741465	 0.134472
H	 1.9686207141	-0.9523982738	-0.6592392772	 0.106711
H	-0.1203795	-3.0813462552	 1.399549383	 0.131079
H	 1.4662484054	-2.2695643462	 1.2178485356	 0.109839
H	-0.7649152792	-0.4700821202	 2.1020951442	 0.119421
