21
gdb 108264	2.46393	1.6071	1.17813	1.3496	84.39	-0.2331	0.0074	0.2405	1137.1601	0.183081	-387.066343	-387.057892	-387.056947	-387.0991	33.102	
C	-0.2523755145	 1.6244140902	-0.1060594422	-0.385936
C	 0.0812549465	 0.1448628303	 0.1149226702	-0.230203
C	 0.7599452955	-0.488377418	-1.098092907	 0.431172
C	 2.246703768	-0.1213623223	-1.2798845891	-0.292947
C	 2.9765918779	-1.414674435	-0.7809131399	-0.249144
C	 1.9785348561	-2.5204190366	-1.1312990387	-0.203063
C	 0.7711368944	-1.9807556334	-1.2385005101	 0.148108
C	-0.4489339286	-1.8749227771	-2.115879748	-0.170194
O	-0.1678648157	-0.4492834991	-2.2592265116	-0.347753
H	 0.6511104226	 2.2242721456	-0.2581627177	 0.114752
H	-0.8850488254	 1.7388535243	-0.9902558981	 0.137211
H	-0.7849069506	 2.038143953	 0.7553938322	 0.109703
H	 0.7377425495	 0.0260078039	 0.9865360482	 0.096119
H	-0.8387567345	-0.4075779523	 0.3394300713	 0.093738
H	 2.448635854	 0.0201525824	-2.3456864358	 0.116841
H	 2.5577112318	 0.7818177544	-0.7468667944	 0.092153
H	 3.9349041652	-1.566563536	-1.28817751	 0.107529
H	 3.2008445047	-1.3638947902	 0.2932361548	 0.109007
H	 2.2753614565	-3.5341183559	-1.3734024137	 0.098529
H	-0.420207871	-2.4104041104	-3.0704942926	 0.117601
H	-1.4206139423	-2.0412747277	-1.6330062078	 0.106775
