17
gdb 44412	3.57004	1.45401	1.42967	3.5475	75.03	-0.2405	-0.004	0.2365	967.7455	0.137038	-417.87167	-417.864732	-417.863788	-417.902761	28.586	
N	-0.0809885121	 1.2361614983	 0.3332460894	-0.523439
C	 0.0466041912	 0.0302831476	 0.0278192865	 0.260264
N	 1.2285632143	-0.8050509915	-0.3575099851	-0.412169
C	 0.2290852028	-1.7173424792	-1.0725205489	 0.000639
C	-0.7585352785	-2.9626909879	-1.0345160593	 0.007781
C	-0.7904038815	-3.480482862	 0.3976589491	-0.216541
C	-0.8826930766	-2.0907631277	 1.0786824909	-0.245511
C	-0.8398340643	-1.1976891165	-0.1972988064	 0.344923
O	-1.8459160792	-1.9321292705	-1.0398265817	-0.366546
H	 0.8255041917	 1.706209995	 0.3799453417	 0.235718
H	 1.7397115666	-1.1764978136	 0.438595449	 0.243142
H	 0.1528506206	-1.3166892404	-2.0830054371	 0.123369
H	-0.8309320243	-3.6446861487	-1.8814695325	 0.096461
H	-1.6661411533	-4.106898964	 0.577520085	 0.119259
H	 0.1066387185	-4.0470458313	 0.6624202394	 0.104527
H	-1.8321450329	-1.9211941414	 1.5900288845	 0.128774
H	-0.0753775931	-1.8879783262	 1.7858117356	 0.09935
