17
gdb 51490	3.92476	1.03969	0.92821	3.3327	73.4	-0.252	-0.027	0.225	1248.8088	0.135117	-421.815546	-421.80753	-421.806586	-421.849419	29.404	
O	-0.6542707473	 0.881037211	 0.7649125169	-0.236334
C	 0.0544887589	 1.0330540137	-0.1958598452	 0.156177
C	 1.3339023289	 1.8370710319	-0.2182144048	-0.271803
C	 1.256137784	 3.0050128671	-1.2289028654	-0.093319
C	 0.2756824009	 4.0981731964	-0.8284308827	-0.07728
C	 0.8463362688	 5.3039091989	-0.7811792798	-0.088652
C	 2.3041164245	 5.1953967494	-1.0913685393	-0.001588
O	 3.0241863828	 4.3716776106	-0.1403888791	-0.254473
C	 2.5732641646	 3.7737131033	-1.3558249812	 0.019354
H	-0.210527622	 0.5734680594	-1.1789032275	 0.068755
H	 1.5530120331	 2.2130766261	 0.7829272535	 0.141445
H	 2.1432466841	 1.1606071882	-0.5272522901	 0.118462
H	 0.9859239619	 2.595652475	-2.2138911965	 0.091132
H	-0.7540565681	 3.8786477258	-0.5684602854	 0.118983
H	 0.3560082844	 6.2333662025	-0.5205666959	 0.109255
H	 2.8781922513	 6.0121444494	-1.5171924862	 0.102114
H	 3.3548344593	 3.4185874013	-2.0227394213	 0.09777
