22
gdb 119161	3.33517	0.93451	0.81274	2.1454	81.9	-0.2428	0.0845	0.3273	1509.802	0.19363	-404.304885	-404.295185	-404.29424	-404.33997	35.814	
C	 0.2664304646	 1.572641355	 0.0337981873	-0.385029
C	 0.034026717	 0.0593850969	 0.0079281473	-0.184986
C	 0.594004487	-0.6369757089	 1.2522213247	-0.244938
C	 0.5841324421	-2.1583920824	 1.23209645	 0.355227
C	-0.3649721847	-2.9323970328	 0.4158026732	-0.220161
O	 1.000716583	-2.7769244546	 0.0042647686	-0.272063
C	 1.1786963169	-2.7895262631	 2.4641670548	-0.048688
C	 1.7432487446	-4.1568926207	 2.4288969623	-0.24806
N	 2.6391709804	-2.9884555628	 2.5369081419	-0.327693
H	 1.3355047937	 1.8082760671	 0.076273519	 0.117906
H	-0.1451270327	 2.0518006995	-0.8597028138	 0.113508
H	-0.2076443769	 2.0339421646	 0.9074222818	 0.114123
H	-1.0419073818	-0.1367613877	-0.0748926565	 0.095763
H	 0.5016939231	-0.3767005674	-0.8815201495	 0.118689
H	 1.6345373682	-0.3197485846	 1.4072816733	 0.112469
H	 0.0479782149	-0.3059390397	 2.1459521537	 0.103565
H	-0.6399158681	-3.9364610231	 0.7339637128	 0.113136
H	-1.0934025539	-2.4273133374	-0.2140999095	 0.117876
H	 0.7479137613	-2.4275526012	 3.3960915058	 0.089528
H	 1.6959620834	-4.7831977121	 3.3150412336	 0.1148
H	 1.7152684674	-4.6847167234	 1.4807146875	 0.125501
H	 3.0313083204	-2.809926281	 1.6132820218	 0.239528
