18
gdb 78722	4.54622	1.17496	1.05454	1.8637	84.01	-0.2388	0.0234	0.2622	1171.5716	0.14735	-364.724694	-364.71679	-364.715846	-364.756719	31.337	
C	-0.0880328357	 1.4638168979	 0.0035753861	-0.414193
C	 0.0248247092	-0.0571678565	 0.0416561719	 0.003541
C	 0.8428063463	-0.630899013	-1.1055403867	-0.07971
N	 2.1355482353	-0.5397700462	-0.3544062258	-0.190622
C	 1.1984572274	-0.5817525381	 0.9018567278	-0.02401
C	 1.1478729465	-2.1143372085	 0.8205250339	-0.307369
C	 1.5107740395	-1.8999068908	-0.6453542042	 0.186835
C	 2.0813166298	-2.8467539064	-1.5423729803	 0.162199
C	 2.5425712172	-3.6733111908	-2.2850112268	-0.376651
H	 0.8874919216	 1.924022664	-0.1811649802	 0.136584
H	-0.7712414254	 1.7879599668	-0.7884259788	 0.117882
H	-0.4735412232	 1.8472148933	 0.9541713359	 0.116249
H	-0.9536685742	-0.5131211863	 0.2365870147	 0.071845
H	 0.7909146209	-0.3854767008	-2.1610820018	 0.09929
H	 1.5089847533	-0.0666158604	 1.8091052476	 0.087428
H	 1.9804635974	-2.5804204977	 1.3519384801	 0.12151
H	 0.2102156833	-2.6219971532	 1.0683258311	 0.101948
H	 2.9572896208	-4.3956679335	-2.9434906646	 0.187242
