15
gdb 44435	3.25309	1.87275	1.64574	4.4671	65.39	-0.2188	0.0278	0.2466	840.2128	0.115526	-453.925395	-453.919038	-453.918094	-453.956023	25.807	
N	-0.1062366615	 1.269545041	-0.2988215977	-0.564193
C	 0.009881345	 0.037296703	 0.0069669255	 0.456811
N	 1.137512587	-0.70769958	 0.2784389743	-0.356542
C	 0.973524286	-2.1135754335	 0.4928168472	-0.075524
C	-0.1811425669	-2.8022665064	-0.2336296071	 0.023549
O	-1.0694205185	-1.9043436831	-0.849191018	-0.249101
C	-1.2139927571	-0.8557882676	 0.109576643	 0.050342
O	-1.2240735633	-1.4944241243	 1.3817991191	-0.246525
C	-0.283145891	-2.5300928902	 1.2454365918	 0.032206
H	 0.8037333691	 1.734032648	-0.3499999343	 0.198162
H	 2.0485000665	-0.3384227009	 0.0581615719	 0.245425
H	 1.8902770522	-2.6632119082	 0.6656953225	 0.115392
H	-0.1202266325	-3.7648693679	-0.7230549843	 0.120867
H	-2.1398954023	-0.3103105266	-0.0557385836	 0.128044
H	-0.3099218428	-3.2539748431	 2.0483788498	 0.121089
