16
gdb 46847	2.85579	1.86468	1.51189	3.7301	68.28	-0.2286	-0.0176	0.2109	893.7609	0.127692	-437.907606	-437.900982	-437.900038	-437.938604	26.408	
O	 0.013409827	 0.0086125988	 0.3762109838	-0.327116
C	 0.0156908012	 1.1524721876	 0.0163355707	 0.420015
O	-1.1600389528	 1.7506531503	-0.3288009892	-0.24329
C	-1.2432125964	 3.0992593483	-0.8448205647	-0.071454
C	 0.0922704976	 3.856906053	-0.7828679574	-0.073704
N	 1.1752708449	 2.9547954298	-1.2235239326	-0.293733
C	 1.2613960895	 2.0430152864	-0.0690648591	-0.187048
C	 1.1662647621	 3.0278615305	 1.0901544738	-0.061821
C	 0.4900371767	 4.090920998	 0.666997622	-0.056603
H	-1.5851188611	 3.014708837	-1.8840664735	 0.116156
H	-2.0278370489	 3.6023065218	-0.2684030028	 0.122409
H	 0.0361827772	 4.7626146477	-1.3948846405	 0.088217
H	 0.9092406443	 2.4506070324	-2.0672537033	 0.22406
H	 2.1524237573	 1.414114079	-0.0841932839	 0.104805
H	 1.5359176583	 2.8154992756	 2.0834943625	 0.1254
H	 0.186842193	 4.9562432837	 1.2409959742	 0.113708
