24
gdb 113815	3.87379	0.79762	0.7174	1.3321	91.58	-0.2156	0.0857	0.3013	1697.3393	0.216541	-368.369375	-368.359142	-368.358198	-368.40537	37.941	
C	-1.709291217	-0.1538211275	 3.364265011	-0.375922
C	-1.1780428739	-1.4086281046	 2.6607488266	-0.192686
C	-2.2835125471	-2.1981327626	 1.9868221026	 0.002434
C	-2.7213647632	-1.8865396593	 0.577580914	-0.305309
C	-2.0456992574	-3.2086919427	 0.8812281322	-0.03145
C	-0.6761768401	-3.5036978128	 0.3533995764	 0.011983
C	-0.0949173785	-4.8758234201	 0.4473382763	-0.263142
N	-0.4427521861	-4.3104890242	-0.8510776793	-0.090405
C	-1.5701759196	-4.892028635	-1.5636267835	-0.306672
H	-0.9008121099	 0.4022192735	 3.8490362437	 0.109971
H	-2.2018653687	 0.5166647241	 2.6523137898	 0.118632
H	-2.4434064161	-0.4143083413	 4.1348110975	 0.113053
H	-0.4218097687	-1.1138620818	 1.9247690845	 0.098912
H	-0.6619472004	-2.0464895971	 3.3902853841	 0.098139
H	-3.0853826116	-2.472230707	 2.6699536267	 0.079624
H	-3.7780573517	-1.8832197213	 0.3332129961	 0.107936
H	-2.1374468581	-1.1515342453	 0.0306222489	 0.111393
H	-2.7048535963	-4.0701996144	 0.9176984837	 0.08114
H	 0.0145125725	-2.665031485	 0.4154828377	 0.08375
H	 0.964092827	-5.0305076671	 0.6402430267	 0.109464
H	-0.7449608838	-5.6521594317	 0.8528050194	 0.099653
H	-2.3592606205	-5.3105888529	-0.9194613627	 0.09655
H	-2.0238281864	-4.1324089658	-2.2081803039	 0.123009
H	-1.1984792845	-5.7002254182	-2.2020249286	 0.119945
