22
gdb 78305	2.52312	1.69942	1.43022	1.3002	85.75	-0.2167	0.084	0.3007	1054.1876	0.195743	-367.157277	-367.149172	-367.148228	-367.1894	33.21	
C	-0.1139571205	 1.5756081361	 0.0377680404	-0.437036
C	 0.0337699798	 0.0620076501	-0.0911504611	 0.010123
C	 0.4869191299	-0.7810706214	-1.2363056896	-0.049371
C	 1.5656000668	-0.3593909238	-2.238855557	-0.059989
C	 2.7406670384	-1.241104776	-1.679470184	-0.233236
C	 2.5752425428	-0.2627711705	-0.4636427021	 0.345451
C	 3.6031967991	-0.0983650146	 0.6270961438	-0.487846
C	 2.2978543972	 0.8200160502	-1.5514107214	-0.281319
N	 1.2556081148	-0.7741851926	 0.0472949465	-0.162407
H	-0.2098876744	 2.0841173648	-0.9247023728	 0.133236
H	-1.0216518224	 1.7918418446	 0.6086330544	 0.116077
H	 0.7200776864	 2.0285783711	 0.5809069425	 0.133654
H	-0.7500211148	-0.443560665	 0.4729081885	 0.093825
H	-0.0710081392	-1.6858869123	-1.4737184157	 0.085295
H	 1.2985429986	-0.3442224901	-3.2952544736	 0.062665
H	 2.5374278696	-2.2968310144	-1.4840962256	 0.098841
H	 3.6808823075	-1.1140618757	-2.2216907443	 0.090235
H	 4.5808430383	 0.1618589136	 0.2095075632	 0.1096
H	 3.3111373605	 0.6944947784	 1.3245258611	 0.117026
H	 3.7025471384	-1.0248119598	 1.2009622208	 0.127177
H	 3.2191029971	 1.0687524853	-2.0836739367	 0.094029
H	 1.771440756	 1.7363969922	-1.3095614673	 0.093971
