17
gdb 117910	2.89947	1.10899	0.85563	5.0264	72.3	-0.2647	-0.0635	0.2012	1316.174	0.134867	-455.16907	-455.159304	-455.15836	-455.204609	33.797	
C	 0.1536707736	 1.5302693946	 0.0242686332	-0.363482
N	-0.0746804436	 0.091004823	-0.004643037	-0.09845
C	-0.2356490204	-0.5988558331	 1.2879232381	-0.206981
C	-1.6611734386	-1.098268501	 1.5906534045	-0.039821
O	-1.9230685801	-2.3911715589	 1.1117152399	-0.421336
C	-0.1344048788	-0.6414729647	-1.1363039865	 0.364258
O	-0.3957418267	-1.8356389678	-1.191324133	-0.380415
C	 0.1558090957	 0.0781347889	-2.3897903159	 0.225675
N	 0.3716291878	 0.5773671989	-3.4094650275	-0.324923
H	 0.2497614076	 1.9208547822	-0.9884230849	 0.179612
H	-0.6858377375	 2.0354353874	 0.5137295254	 0.148483
H	 1.0707544775	 1.7596986333	 0.5774337686	 0.147778
H	 0.443542292	-1.457256691	 1.3183949944	 0.147276
H	 0.0796786101	 0.1156719657	 2.0521234296	 0.118658
H	-1.7820301281	-1.1374842517	 2.6797181974	 0.11191
H	-2.3829842937	-0.3526252943	 1.2128780407	 0.085307
H	-1.5630859269	-2.4462849714	 0.2139558328	 0.306453
