17
gdb 36389	2.19188	1.29383	1.03185	4.0083	77.81	-0.2484	0.0217	0.2701	1208.0392	0.134481	-380.810872	-380.801748	-380.800804	-380.845373	33.131	
C	-0.7886048198	 0.0047628108	-0.8996282288	-0.454533
C	-0.0390569146	 0.4079105639	-0.0489281425	 0.291647
C	 0.9052182179	 0.8804824294	 0.9684700425	-0.295309
N	 1.7911390393	 2.0030189933	 0.6242416415	-0.083307
C	 1.9671600735	 2.4338256037	-0.7559731701	-0.266925
C	 1.2805380677	 3.3118333129	 0.2352208463	 0.022602
C	-0.2051325717	 3.6241421288	 0.0869363656	-0.378573
C	-0.8533261865	 3.8525728541	 1.3799102864	 0.264609
N	-1.3509620943	 4.0237956372	 2.4088289953	-0.310305
H	-1.4597852151	-0.3619369128	-1.6371873168	 0.207897
H	 0.3617903356	 1.1544871988	 1.8800422994	 0.163176
H	 1.5580435963	 0.0419747542	 1.2397290198	 0.150218
H	 2.989659557	 2.6365867132	-1.063152678	 0.122899
H	 1.3403556442	 1.9709271084	-1.5159851539	 0.126835
H	 1.8411274257	 4.1305956689	 0.6830065232	 0.11269
H	-0.3211812035	 4.5282359476	-0.5223854081	 0.155853
H	-0.7290419117	 2.8151244575	-0.4284399819	 0.170528
