17
gdb 67031	2.1746	2.10386	1.66074	0.209	72.01	-0.2304	0.0104	0.2408	902.8174	0.135991	-421.789681	-421.782217	-421.781273	-421.8209	30.698	
O	 0.1443560919	 1.4034216916	 0.0921557436	-0.45769
C	 0.0825322674	 0.0329727607	 0.0152757792	 0.31058
C	-1.0333652003	-0.974499119	 0.0788501188	-0.164302
C	-0.5265049877	-1.6754990344	-1.1746931785	-0.249099
C	 0.8333226714	-0.9073301954	-1.0238309801	 0.308204
O	 1.3114978449	-0.3655588108	-2.2202638085	-0.50089
C	 1.7520145788	-1.7551280203	-0.1783646073	-0.19932
C	 1.2767048145	-1.7872687808	 1.0734408798	-0.075395
C	 0.0951314519	-0.8892430144	 1.1848364732	-0.134749
H	-0.2392132355	 1.7632018876	-0.7163678053	 0.290696
H	-2.0660379146	-0.8648384827	 0.3870589436	 0.092861
H	-0.4765786267	-2.768114339	-1.1997529463	 0.09493
H	-1.0513106551	-1.2994726541	-2.0572194283	 0.110491
H	 2.1358484985	 0.0931587178	-2.0229659103	 0.281346
H	 2.5546670994	-2.352949108	-0.5934448905	 0.099668
H	 1.6433398024	-2.4029119868	 1.8853952616	 0.099919
H	-0.2644696409	-0.5290892821	 2.1417381752	 0.09275
