18
gdb 26948	3.06236	1.28933	0.98325	1.6369	79.94	-0.2164	0.0106	0.227	1220.3072	0.148581	-401.980148	-401.971911	-401.970966	-402.013503	30.536	
C	 0.1792494213	 1.5155900371	-0.243155611	-0.49776
C	-0.038708235	 0.0553718112	-0.0938581438	 0.237224
C	-1.1171670447	-0.7461997894	 0.119655407	 0.207433
N	-0.6864901521	-2.0753887446	 0.1707682565	-0.322424
C	 0.5888408651	-2.0075780634	-0.0089632147	 0.059903
O	 1.0707573572	-0.7592835841	-0.1778426464	-0.178368
C	-2.5368311383	-0.3923731002	 0.283736431	-0.111206
C	-3.6117356237	-1.3160040383	-0.2545377774	-0.261235
C	-3.4102325058	-1.1946752717	 1.2280027698	-0.261255
H	 0.8548987888	 1.9037168757	 0.527720206	 0.140891
H	 0.6168348932	 1.7611538414	-1.2176256865	 0.140867
H	-0.7721029277	 2.0450937137	-0.1566862902	 0.140175
H	 1.3045038955	-2.8144520706	-0.0399779706	 0.145489
H	-2.7431223993	 0.6711409906	 0.2247112482	 0.077527
H	-4.4896108381	-0.8623742629	-0.7011646934	 0.10895
H	-3.2709575391	-2.2276168136	-0.7312805801	 0.132405
H	-2.9355527665	-2.0256870385	 1.736476091	 0.132443
H	-4.1478769209	-0.6566175425	 1.8130606347	 0.108941
