18
gdb 37497	3.38028	2.25156	1.96268	1.8638	81.29	-0.1892	-0.0672	0.122	784.581	0.150696	-364.665575	-364.659858	-364.658914	-364.695021	25.793	
C	-0.0446400606	 1.4787515546	-0.0682299859	-0.187416
C	 1.4835088919	 1.4009656163	 0.0936113206	-0.051899
C	 1.2404424958	 0.0509375298	 0.8331793426	-0.006526
N	-0.0486799583	-0.0158237712	-0.0456145261	-0.097956
C	 0.6465605261	-0.4322418817	-1.2504791679	-0.021806
C	 1.3179370441	-1.7903896186	-0.7358727362	-0.240831
C	 2.2096274938	-0.9901909479	 0.2554514378	-0.063132
C	 2.9424598086	-0.3186211403	-0.7132430147	-0.063205
C	 1.9870477917	 0.7085486527	-1.179525568	-0.093714
H	-0.560175019	 1.8671476749	 0.814195418	 0.109036
H	-0.4545147914	 1.9353913251	-0.9755531318	 0.099769
H	 2.0883658849	 2.2191036885	 0.4866100106	 0.073197
H	 1.0068301416	 0.0483735742	 1.8960082786	 0.077139
H	 0.0030814724	-0.4221741978	-2.1357562982	 0.071656
H	 0.5540396795	-2.4381986274	-0.2958557305	 0.11502
H	 1.8680071251	-2.3322298728	-1.5068481739	 0.106962
H	 3.583664995	-0.8528794856	-1.4119392593	 0.104972
H	 2.1977087388	 1.3161367871	-2.0595126158	 0.068736
