17
gdb 89868	3.84512	0.99221	0.87657	3.8781	74.94	-0.2316	-0.0078	0.2237	1325.7912	0.134544	-417.962863	-417.954256	-417.953311	-417.996583	31.286	
C	 0.0702712968	 1.5178236833	 0.0198847201	-0.324407
N	 0.0990443781	 0.071922569	 0.0291703759	-0.075612
C	 1.0366808507	-0.6146298398	-0.8906495152	-0.251904
C	 1.4022877386	-1.5445287306	 0.262427264	 0.429852
C	 0.6640338328	-0.608120201	 1.2167963773	-0.252499
O	 1.2375774114	-2.9457539099	 0.2333580407	-0.253863
C	 2.5568048642	-2.4312794125	 0.4738718938	-0.21922
C	 3.5305565176	-2.6253584949	-0.5782459926	 0.310136
N	 4.3224824172	-2.755703606	-1.4099913969	-0.325064
H	 1.0627506526	 1.9760282851	 0.1951248807	 0.094206
H	-0.3021358712	 1.8729686882	-0.9461110908	 0.130327
H	-0.6133703299	 1.8790493341	 0.7947146357	 0.127931
H	 0.5696316427	-1.0813844013	-1.7633006578	 0.131204
H	 1.8854548793	 0.0054467824	-1.2193959561	 0.109189
H	 1.3483513358	 0.0176551633	 1.8121203917	 0.100107
H	-0.0742114919	-1.0709991034	 1.8798880256	 0.127062
H	 2.9383716252	-2.5867949159	 1.4812266739	 0.142556
