18
gdb 105950	4.5933	1.30121	1.28579	2.741	74.57	-0.2324	0.0735	0.3059	1031.9092	0.149531	-401.856453	-401.849552	-401.848608	-401.887731	28.079	
O	-0.1312453782	 1.421698652	 0.0243547457	-0.417354
C	 0.0464237948	 0.019854353	 0.0026952755	-0.201978
C	-1.2826124932	-0.657933772	-0.1320851415	 0.342078
C	-2.4951151247	-0.3278912411	-0.9156469919	-0.099491
C	-2.9956041029	-1.7840395632	-0.9882558061	-0.064212
C	-4.0673953206	-1.9137777783	 0.1222467435	-0.239915
C	-2.9205927701	-1.4742454241	 1.0450871534	 0.012508
C	-1.8605472321	-2.0843108029	 0.0769413983	-0.162867
N	-2.4769888419	-0.0915747825	 0.5776178096	-0.212211
H	-0.8951160423	 1.5778756476	 0.5975746671	 0.294935
H	 0.6989700996	-0.214079164	-0.8466934541	 0.111325
H	 0.5523735694	-0.3436086349	 0.9143300502	 0.088616
H	-2.7171055118	 0.5184583333	-1.5526755613	 0.103523
H	-3.0664511987	-2.2732331154	-1.9573142128	 0.07808
H	-4.9644204615	-1.2906593187	 0.0690024167	 0.10625
H	-4.3387220255	-2.9590116109	 0.3002706599	 0.105186
H	-2.9377138784	-1.5734906908	 2.1291353924	 0.078557
H	-1.345135122	-3.0350803169	 0.1813848955	 0.076971
