14
gdb 45386	2.32508	1.81849	1.27429	3.0074	70.13	-0.2662	-0.0195	0.2467	986.0197	0.099667	-436.609212	-436.601639	-436.600695	-436.641355	28.557	
N	 0.0038414932	 1.2394367106	-0.4513237409	-0.536998
C	 0.0345809233	 0.0559491252	-0.0569074705	 0.396895
O	 1.0487841338	-0.6902423875	 0.5319254257	-0.271341
C	 0.2325313813	-1.8899921287	 0.5777711651	 0.001124
C	-0.6097895478	-1.9777074103	 1.8483731602	-0.107731
O	-1.6499703368	-1.1518642594	 1.2639562079	-0.31612
C	-0.9697115364	-1.0985695656	-0.019562337	 0.159156
C	-1.7793222905	-1.4129035135	-1.1601080875	 0.254545
C	-2.4441639448	-1.6838873184	-2.1231679074	-0.3975
H	 0.8862683164	 1.7236681353	-0.2775810306	 0.237597
H	 0.7317494786	-2.7535374102	 0.145663561	 0.122206
H	-0.9860699248	-2.9822693429	 2.072898418	 0.12315
H	-0.1622790389	-1.5293592015	 2.7401759388	 0.127946
H	-3.0368499265	-1.9115384031	-2.9751506427	 0.207071
