14
gdb 66534	2.98535	1.66386	1.26728	4.4037	71.03	-0.2438	0.0071	0.2509	956.5846	0.10041	-399.44614	-399.439153	-399.438209	-399.477453	27.573	
O	 0.2873647761	 1.3397923302	 0.2816107672	-0.432277
C	 0.1497143982	-0.0003394705	 0.1097194574	 0.326055
C	 0.9417346694	-1.0173448681	-0.7044247813	-0.189928
C	 0.8947338707	-1.0950609691	 0.8311348974	-0.141303
C	-0.3417225205	-2.0329688456	 0.735087999	-0.135405
C	-0.3002142662	-1.9494102258	-0.7716631599	-0.139474
C	-1.1309019353	-0.9238710934	 0.0195816103	 0.196728
C	-2.5192390165	-0.6660438041	-0.0128799437	 0.125583
N	-3.6526216446	-0.4252494539	-0.0462779895	-0.362626
H	 0.077634339	 1.788600997	-0.5468372183	 0.301416
H	 1.7933405819	-0.8852238996	-1.3564853223	 0.107868
H	 1.6993569383	-1.0187696869	 1.5478409339	 0.111496
H	-0.7395531528	-2.7971681537	 1.3889577329	 0.11613
H	-0.6667066976	-2.6337168365	-1.5247925131	 0.115737
