21
gdb 80423	2.38144	1.74239	1.26881	0.6868	77.44	-0.2562	0.0701	0.3263	1062.3594	0.183011	-424.218	-424.209402	-424.208458	-424.250368	34.805	
C	-0.1262353408	 1.54608618	 0.0935885588	-0.430471
C	 0.0467454503	 0.0300892161	 0.0565312813	-0.032807
C	 0.980229416	-0.5331013611	-1.0847365879	 0.116139
O	 1.6982430357	 0.445786797	-1.8156995921	-0.434104
C	 1.9669418571	-1.3381784818	-0.2254116865	-0.029153
C	 2.2973580776	-0.3339739494	 0.9127359662	-0.295736
C	 0.7949707413	-0.5749709446	 1.2625440756	 0.416248
O	 0.2156079891	-0.2356972215	 2.4827258123	-0.493583
C	 1.0163978631	-2.0428033975	 0.7817299189	-0.302669
H	 0.8327356387	 2.0695855019	 0.0999776902	 0.126756
H	-0.6942805924	 1.9023047236	-0.7740251733	 0.096793
H	-0.6802787596	 1.833239092	 0.9913498796	 0.132096
H	-0.9450597664	-0.4324979186	-0.0078424328	 0.068762
H	 0.4223156391	-1.1846651507	-1.7723106646	 0.059448
H	 1.0663969078	 0.9821111773	-2.3042727	 0.283136
H	 2.7477448189	-1.8790701709	-0.756971411	 0.069193
H	 2.9663942178	-0.7669646185	 1.6621930587	 0.08291
H	 2.6286440456	 0.6675293376	 0.6366080793	 0.110951
H	 0.7527071255	-0.6076035258	 3.1894906492	 0.278031
H	 0.1546453401	-2.5965006195	 0.3960576991	 0.089956
H	 1.5636034856	-2.6489297757	 1.5091530391	 0.088105
