15
gdb 42567	3.31969	1.60697	1.32832	4.5837	69.05	-0.242	0.0011	0.243	948.2582	0.112502	-420.56599	-420.559331	-420.558387	-420.597039	26.599	
O	 0.1053917257	 0.1123137712	 0.1669404879	-0.332437
C	 0.0594155475	 1.3067409449	 0.1481231337	 0.463292
C	-1.0508985438	 2.3171389838	 0.1004911588	-0.206601
C	-0.148995193	 3.1923541045	-0.7814150234	-0.073593
C	-0.4605914944	 3.6457000523	 0.6130698178	-0.186227
C	 0.9616898187	 3.3577924714	 1.0367734135	 0.51686
C	 1.9444518082	 4.2605029402	 1.6235876546	-0.287508
O	 1.440941058	 3.1093504313	 2.3350082309	-0.274085
C	 1.0942805259	 2.416235632	-0.1675957876	-0.320433
H	-2.1187030357	 2.1644836093	 0.0269875726	 0.118709
H	-0.3338764486	 3.6051420052	-1.7593030232	 0.123777
H	-1.1208850057	 4.4407502734	 0.9341319741	 0.111337
H	 2.9892315489	 4.200242764	 1.3227883861	 0.123272
H	 1.6296160559	 5.2244764551	 2.0216458267	 0.121604
H	 2.0447851424	 2.1901998014	-0.6410308825	 0.102032
