19
gdb 82104	2.8427	1.33304	1.06404	1.2006	75.13	-0.2373	0.0547	0.292	1165.0622	0.160418	-419.117429	-419.109138	-419.108194	-419.150924	31.538	
O	 0.3655698711	 1.4587763317	 0.0926805795	-0.425415
C	 0.0949384974	 0.0780838386	 0.0920903052	 0.101595
C	 0.1982970495	-0.701359776	 1.3955952135	-0.066548
C	-0.8868816101	-0.3323543832	 2.3311758166	-0.254676
N	-1.2047643494	-1.2794102428	 1.2541034302	-0.135942
C	-1.3777583615	-0.4576312193	-0.0116852495	-0.046587
C	-2.5270144845	 0.5048654423	-0.060132576	 0.042479
C	-3.323286188	 0.6348682375	-1.3079426717	-0.249591
N	-3.9047208639	-0.0164354264	-0.1253886373	-0.320949
H	 0.0815253685	 1.8235873188	 0.9370838706	 0.281663
H	 0.7170724339	-0.345278978	-0.6992924958	 0.102464
H	 1.0392710432	-1.313847172	 1.7032179292	 0.098904
H	-0.8685496843	-0.799184392	 3.3109455717	 0.129919
H	-1.328775708	 0.6612984363	 2.3294776623	 0.108005
H	-1.471024689	-1.1709820331	-0.8366523024	 0.079855
H	-2.4409016317	 1.3915786852	 0.5625148646	 0.081881
H	-3.765047092	 1.5922461881	-1.5682736235	 0.12219
H	-3.0363918556	 0.0230524398	-2.1596937654	 0.112456
H	-3.8778829855	-1.0282425754	-0.2334320419	 0.238298
