23
gdb 36836	4.06702	0.94748	0.91098	0.183	90.12	-0.2664	0.094	0.3604	1410.6743	0.207318	-351.095874	-351.087537	-351.086593	-351.129436	33.211	
C	-0.0053113805	 1.5367832387	-0.1872106776	-0.366252
C	-0.1166055833	 0.0250452409	-0.1962004158	 0.039774
C	-0.2390764233	-0.7454036894	 1.0952684442	-0.250412
C	-1.4174344464	-0.6488862244	 0.156526509	-0.279957
C	 1.4116428031	 2.0412045424	-0.0432670849	 0.379967
C	 2.6239358721	 1.7629108194	-0.9927518576	-0.24727
C	 3.1756486935	 2.6903678406	 0.1249011169	-0.043629
C	 1.8782299094	 3.5311847749	-0.0285590493	-0.264921
C	 2.4025146428	 1.8088916526	 1.1438728563	-0.2418
H	-0.43208673	 1.9434701928	-1.1151077323	 0.095381
H	-0.615867362	 1.9408179796	 0.6322842555	 0.0906
H	 0.4652709377	-0.4575286406	-0.9776951401	 0.082598
H	 0.2729248684	-1.6972000079	 1.1849398317	 0.107864
H	-0.2826263518	-0.178529185	 2.0197493634	 0.109582
H	-2.2495592863	-0.0178566263	 0.4521922453	 0.108083
H	-1.709362675	-1.5342240815	-0.3976055723	 0.108194
H	 3.007443833	 0.7384921568	-1.0137050875	 0.085405
H	 2.563184556	 2.1874406073	-1.9996893917	 0.083297
H	 4.1948124325	 3.0659164518	 0.2216007188	 0.067117
H	 1.7600836706	 4.0900280969	-0.9621610192	 0.083429
H	 1.5735762445	 4.1297799831	 0.8355742861	 0.08318
H	 2.1389087647	 2.2763795391	 2.0978271819	 0.081655
H	 2.7669104004	 0.7879493482	 1.287011039	 0.088113
