16
gdb 97571	3.42921	0.71574	0.62658	2.7314	70.68	-0.2552	0.0053	0.2605	1717.7396	0.122113	-475.01172	-475.001585	-475.000641	-475.048676	35.206	
N	-0.3103522276	 1.2711210755	 0.0356578534	-0.515058
C	-0.041131858	-0.0438009285	-0.1123729785	 0.393694
O	 1.0277450807	-0.4977466477	-0.4781659151	-0.371704
C	-1.2253712055	-1.0199812574	 0.1411992179	-0.12052
O	-0.7346533997	-2.3318258784	 0.1107903229	-0.418344
C	-1.9274149456	-0.7089182985	 1.3878145081	 0.059057
C	-2.5101483503	-0.4287443726	 2.405373607	 0.043613
C	-3.2623413933	-0.1497863315	 3.6290531365	-0.197978
O	-4.6564086179	 0.0102607598	 3.4146911149	-0.399427
H	 0.4449088473	 1.9294059049	-0.0693212033	 0.271767
H	-1.1430400319	 1.5616044221	 0.5214533016	 0.273439
H	-1.9309904163	-0.8568254697	-0.6936263642	 0.123113
H	 0.1930956782	-2.2303918048	-0.1693443398	 0.298073
H	-3.0524339088	-0.9438711615	 4.3630190232	 0.12894
H	-2.9209620232	 0.7896430853	 4.0778573856	 0.140336
H	-4.9715177481	-0.7784437372	 2.9604833296	 0.291
