16
gdb 67432	2.72668	1.52765	1.26548	5.2654	71.56	-0.2331	-0.0195	0.2137	1018.2692	0.123955	-437.816909	-437.809276	-437.808332	-437.848998	29.409	
O	-0.141883752	 1.4164914957	 0.0522232208	-0.443635
C	 0.0216206381	 0.0635857333	 0.0317327389	 0.328827
C	-0.0298146344	-0.9822420841	-1.0379899923	-0.221346
C	 1.2262095146	-1.6689528945	-0.5202562318	-0.235703
C	 0.9274449807	-0.9774669937	 0.8459007207	-0.100913
N	-0.3222964099	-1.594050391	 1.3671570416	-0.333651
C	-1.0164576443	-1.0008307713	 0.2435992104	 0.235327
C	-2.4626430059	-0.9761441934	 0.0263427484	 0.049462
O	-3.2609839303	-1.6068737201	 0.6782004651	-0.274503
H	 0.5057927818	 1.8182537228	-0.5384778745	 0.297587
H	-0.4377429669	-0.9250292702	-2.0388948309	 0.106757
H	 1.2659169666	-2.7634891525	-0.5153255832	 0.100614
H	 2.1246641053	-1.2657804835	-0.9958658918	 0.108986
H	 1.7133844283	-0.7608600791	 1.5665651411	 0.090888
H	-0.3097214212	-2.6142183296	 1.3716837243	 0.219938
H	-2.7794863503	-0.3266351788	-0.8207824968	 0.071365
