18
gdb 66057	2.53765	1.22945	1.10394	2.2409	76.94	-0.2652	-0.0423	0.2228	1175.9081	0.146118	-401.968127	-401.958902	-401.957958	-402.00265	33.156	
C	-0.169178914	 1.7015751556	 0.2687534464	-0.466773
C	-0.1214449655	 0.1857369391	 0.0848289942	 0.213048
C	 0.952845696	-0.3258080462	-0.9108026638	-0.27086
C	 1.8772991477	-0.7019757352	 0.27363213	-0.23288
C	 0.6576371639	-0.5852072362	 1.2412547927	-0.190904
C	 0.8427009826	 0.0869598116	 2.5134700643	 0.280326
N	 0.9938356765	 0.6456246205	 3.5150089768	-0.330774
C	-1.5176647107	-0.3692015396	-0.1009512088	 0.104631
O	-1.8366984979	-1.1571488006	-0.95356704	-0.245904
H	 0.8228015829	 2.1049840586	 0.4901980121	 0.139663
H	-0.5329864682	 2.1811572854	-0.6457375885	 0.132407
H	-0.8311000215	 1.9839346161	 1.0938667027	 0.141467
H	 0.5865805054	-1.1922758186	-1.4647374788	 0.135889
H	 1.3367959657	 0.4124930908	-1.6168028134	 0.113191
H	 2.3620850461	-1.6786738407	 0.2485089157	 0.124373
H	 2.6298562298	 0.0594785996	 0.485278805	 0.129869
H	 0.2068567148	-1.5658953742	 1.4188467001	 0.134689
H	-2.2568400636	-0.0035070661	 0.6490532432	 0.088542
