17
gdb 67383	2.83487	1.67605	1.49966	4.9442	71.8	-0.2446	0.0217	0.2663	951.9582	0.137812	-418.010629	-418.003447	-418.002503	-418.041987	28.637	
C	-0.0180989476	 1.5580494857	-0.0133987747	-0.519755
C	 0.0566156429	 0.0656264924	 0.0170437922	 0.351149
C	 0.4572517306	-0.9829178055	-0.9634357879	-0.097325
C	 1.248663881	-1.7522426083	 0.0988689764	-0.254858
C	 0.5211996779	-0.8745864579	 1.1738470693	-0.094459
N	-0.7370615451	-1.4855882329	 1.57358282	-0.30967
C	-1.501320807	-1.6686927114	 0.4257734588	 0.402518
O	-2.4371224109	-2.4080344847	 0.2854012512	-0.358673
N	-0.983815953	-0.7709634713	-0.5858468196	-0.201091
H	 0.9644003683	 2.0061037766	 0.1678442912	 0.123437
H	-0.3812483557	 1.8955759801	-0.9875694079	 0.143202
H	-0.7077216826	 1.9273388046	 0.7534042575	 0.137235
H	 0.6748122594	-0.9117596915	-2.0220894345	 0.110236
H	 1.1230983151	-2.8367937683	 0.1758904183	 0.108291
H	 2.3114115052	-1.5059055809	 0.0244833005	 0.115137
H	 1.0955092029	-0.4784350408	 2.0089083515	 0.093813
H	-0.7510200514	-2.244573396	 2.2407856775	 0.250812
