19
gdb 61908	3.49422	0.83218	0.71237	6.1395	78.06	-0.2531	0.0151	0.2682	1572.487	0.157657	-419.255707	-419.245222	-419.244277	-419.292467	35.771	
C	-0.0628049033	 1.517175492	 0.0954806603	-0.349315
N	 0.0050353811	 0.0688358092	 0.0171179836	-0.070815
C	 0.0880598118	-0.6613018122	 1.2740807469	-0.169707
C	-1.2872329282	-1.2213994043	 1.7101727749	-0.335313
C	-1.2244551573	-1.8580524582	 3.0215181679	 0.258461
N	-1.1489592725	-2.3477194638	 4.0655937946	-0.304291
C	-0.042694229	-0.6750394787	-1.1378684748	 0.395474
C	-0.0818439619	 0.064743096	-2.4659445401	-0.50143
O	-0.0486753895	-1.8955021859	-1.089635861	-0.377091
H	-0.1743390955	 1.9524019512	-0.8954612773	 0.145506
H	-0.9195230981	 1.8398143477	 0.7009722515	 0.13153
H	 0.8460097569	 1.9300681375	 0.5512327907	 0.136311
H	 0.78219415	-1.4950165892	 1.1543704826	 0.155719
H	 0.4791899392	 0.0126297826	 2.0405404934	 0.120923
H	-2.0326774901	-0.4189804954	 1.7437927838	 0.144944
H	-1.6126692146	-1.9513698187	 0.9636408813	 0.182986
H	 0.7720030315	 0.7381474971	-2.5874204986	 0.140631
H	-0.0592334981	-0.6873925286	-3.2535653737	 0.154493
H	-0.9953829725	 0.6586765017	-2.571931586	 0.140986
