13
gdb 16272	3.09164	2.14259	1.4818	5.8702	60.44	-0.2558	-0.0361	0.2197	820.57	0.095027	-398.595472	-398.588599	-398.587655	-398.626813	25.048	
O	-0.2298166851	 0.02277806	 0.1270006313	-0.24297
C	-0.0582573418	 1.2109605001	 0.0329239057	 0.070189
C	 1.258441742	 1.869479589	 0.0010126294	 0.073973
C	 1.4449309836	 3.3595636495	 0.3598154942	-0.325492
C	 1.7653715515	 2.9133479921	-1.0157574967	-0.029967
N	 3.0321040398	 2.1904506966	-1.0953466103	-0.339178
C	 2.6605401921	 1.2583142132	-0.1055913385	 0.373221
O	 3.2643333271	 0.3761005325	 0.4244550787	-0.318883
H	-0.916444717	 1.9195454096	-0.0456693228	 0.070607
H	 0.5135730802	 3.9036687167	 0.4974144917	 0.139564
H	 2.2385210352	 3.6283286779	 1.0499591943	 0.142404
H	 1.2555953655	 3.2391254098	-1.9128741391	 0.135005
H	 3.9399557269	 2.6403530629	-1.1292121379	 0.251526
