14
gdb 117028	4.48149	0.81535	0.69585	4.5926	65.9	-0.2839	-0.1359	0.148	1524.1336	0.096857	-473.82284	-473.813146	-473.812202	-473.858849	31.655	
C	-0.0628315437	 1.4029238552	 0.0102960925	-0.232031
O	 0.0087879507	-0.008461511	 0.0019896735	-0.218296
C	-1.2423298834	-0.6128185492	 0.0107522735	-0.157404
C	-1.0759452891	-2.1170508749	 0.0009856699	 0.269855
O	-0.0324217958	-2.7121023239	-0.0122973639	-0.234599
C	-2.3989805273	-2.9075671506	 0.0094558393	 0.195711
O	-3.4829940677	-2.3836534402	 0.0227283163	-0.244626
C	-2.239500822	-4.3717604272	-0.0000147828	 0.269515
N	-2.1665639017	-5.5253825693	-0.0069700743	-0.286445
H	 0.9638492952	 1.7731077085	 0.0024198732	 0.143489
H	-0.5906634084	 1.7874967673	-0.8753717151	 0.114667
H	-0.5734918464	 1.7778617561	 0.9100504773	 0.114667
H	-1.8447367147	-0.3410184469	 0.8972079181	 0.132749
H	-1.8616570858	-0.3314788138	-0.8609445676	 0.132749
