17
gdb 43928	3.74786	1.51536	1.32978	1.6701	73.47	-0.2491	0.0158	0.2649	971.1715	0.138857	-417.921987	-417.915511	-417.914567	-417.952683	26.989	
N	 0.0136105563	 1.2432851981	-0.5583232581	-0.541277
C	 0.0266797353	 0.0814295707	-0.0959622652	 0.335916
O	 1.1177944264	-0.7332479187	 0.281880779	-0.33035
C	 0.1743714699	-1.5960873054	 0.9943785723	 0.392777
C	-0.3086742703	-3.0406728826	 1.2567487408	-0.253766
N	-1.3285144303	-2.3050432891	 2.1509349123	-0.129394
C	-0.1975188754	-1.3441512411	 2.456903105	-0.229241
C	-2.1140499656	-1.4104074256	 1.2006415952	-0.221234
C	-0.9851563404	-1.0193908015	 0.2106801022	-0.10621
H	 0.9589343544	 1.6182625226	-0.6543247534	 0.234647
H	-0.7263723898	-3.6114877762	 0.4251308477	 0.117216
H	 0.3171061954	-3.6641685323	 1.895752563	 0.125682
H	 0.4970243375	-1.779768612	 3.177394523	 0.115914
H	-0.5046575293	-0.3425380767	 2.7671981545	 0.11797
H	-2.9082698123	-1.9790373952	 0.7142731449	 0.118604
H	-2.5621944121	-0.6019054796	 1.7790500153	 0.133388
H	-1.1111778097	-1.5577156551	-0.7352199987	 0.119358
