16
gdb 5228	7.32601	1.12478	1.00384	3.1605	68.56	-0.1975	0.0214	0.2189	1154.2529	0.131822	-379.946224	-379.938511	-379.937566	-379.979304	27.478	
C	 0.0933087444	 1.4490136115	 0.1230844372	-0.395127
C	-0.0765055714	-0.021928472	-0.2379064882	-0.126495
N	-1.3867967776	-0.5084884767	 0.2110570851	-0.406423
C	-1.6879170246	-1.8460435303	 0.0698060063	 0.403633
C	-2.8010301476	-2.5538938025	-0.2701038867	-0.215575
N	-2.532803765	-3.9130747406	-0.1204712126	-0.246788
C	-1.3089967098	-3.9613139997	 0.2725751011	 0.062708
O	-0.7158381834	-2.7373674965	 0.4199779219	-0.178244
H	 1.0773997281	 1.8074088955	-0.191302177	 0.125123
H	-0.6593216478	 2.0704044486	-0.3761910457	 0.115825
H	-0.0053850288	 1.5975878938	 1.201987003	 0.133546
H	 0.0609292025	-0.166589195	-1.3216568178	 0.099697
H	 0.6858634168	-0.6239114509	 0.2631110523	 0.134714
H	-2.149540139	 0.0730026069	-0.1105581617	 0.241119
H	-3.7597933465	-2.1914887627	-0.6025408733	 0.108264
H	-0.6924186704	-4.8193039293	 0.484725296	 0.144023
