17
gdb 16925	3.60633	2.16189	1.97008	3.1713	68.17	-0.2518	0.0345	0.2863	767.8483	0.146382	-363.89686	-363.890833	-363.889889	-363.926796	24.779	
N	-0.0553542882	 1.2744449577	-0.0274619398	-0.566096
C	-0.0310996911	 0.0134612432	-0.0174217517	 0.436323
O	 1.1043732255	-0.7662709823	-0.0062252323	-0.262281
C	 0.6522608311	-2.1479090529	 0.0396174673	 0.100593
C	 0.1095732395	-2.3950821108	 1.4590784434	-0.216542
C	-1.2124188445	-1.5622332049	 1.4438898491	-0.221785
C	-1.2058138701	-0.9382511725	 0.0156063557	-0.099101
C	-0.6186903038	-2.0976201612	-0.8193878822	-0.239154
H	 0.8954732267	 1.6498223896	-0.0233485329	 0.219076
H	 1.4768102848	-2.7804088608	-0.2855691234	 0.085579
H	-0.0733429703	-3.4596766666	 1.6304770359	 0.104313
H	 0.8236771048	-2.0490344043	 2.2091722729	 0.117269
H	-2.0909690428	-2.2015868954	 1.5667816819	 0.105115
H	-1.2439678904	-0.7965617948	 2.2213255689	 0.122592
H	-2.1412785784	-0.4841141624	-0.3011711826	 0.093026
H	-0.4166306015	-1.8354107355	-1.8604699008	 0.116318
H	-1.2110113812	-3.0149137861	-0.7732874194	 0.104755
