19
gdb 110557	3.23644	1.2398	1.06151	2.5682	75.58	-0.2268	0.0704	0.2972	1175.4646	0.157607	-422.928415	-422.91993	-422.918986	-422.961611	32.435	
C	-0.1016107606	 1.4707411414	-0.3979630961	-0.528487
C	-0.1048567667	-0.0017810399	-0.1303804344	 0.465513
O	 0.3081997589	-0.8726568426	-1.2375238531	-0.361743
C	 0.0037122146	-1.7861337325	-0.1517414646	 0.087541
C	 0.6001741603	-0.882310116	 0.9683622198	-0.173933
C	-0.6833567632	-1.024920461	 1.8192290061	-0.00345
C	-1.071423739	 0.0530365886	 2.8100392993	-0.115049
O	-2.4175831541	-0.1921752538	 3.1969971841	-0.420241
C	-1.2258317321	-0.9869533616	 0.3712603945	-0.142081
H	 0.9038679537	 1.7983069882	-0.680429413	 0.135577
H	-0.7815796795	 1.7016849467	-1.2239241862	 0.137654
H	-0.4186076009	 2.0385290197	 0.4800444254	 0.13099
H	 0.119344725	-2.8576566192	-0.3102849448	 0.093332
H	 1.6458456146	-0.8306151707	 1.2753236994	 0.076923
H	-0.7928649525	-2.0046529756	 2.2985492996	 0.077754
H	-0.3939649365	 0.0109586589	 3.6790121743	 0.085576
H	-0.9643531641	 1.053504597	 2.3647504854	 0.083042
H	-2.6643051235	 0.4590529426	 3.8601881284	 0.286767
H	-2.2509399745	-1.0517375702	 0.0077075458	 0.084317
