17
gdb 48872	3.38073	1.55628	1.30661	3.0549	76.6	-0.2311	-0.0259	0.2052	982.4158	0.136806	-384.667545	-384.660585	-384.659641	-384.698955	28.017	
O	-0.1444034848	-0.0163217226	 0.1158811146	-0.255266
C	-0.00710485	 1.1601354882	-0.1103555639	 0.061432
C	 1.30249389	 1.8782136606	-0.1451053836	 0.193215
C	 1.4179201001	 3.1020234786	 0.8779768257	-0.266882
C	 2.0631743333	 3.9204453029	-0.2263583564	-0.07664
C	 3.069191677	 3.0834311134	-1.0604740933	-0.079546
C	 3.5912592639	 1.8061040169	-0.4926079267	-0.097947
C	 2.5759792621	 1.077286036	-0.0203307502	-0.146044
C	 1.5880491334	 2.9421529937	-1.2725195469	-0.124467
H	-0.8920160661	 1.814114487	-0.294555543	 0.06986
H	 0.4258415231	 3.4986987305	 1.1124457748	 0.111753
H	 1.9670668201	 2.8970703912	 1.8018118927	 0.107606
H	 2.1014969775	 5.0021695467	-0.2702663469	 0.093874
H	 3.6462583165	 3.6580158255	-1.7759726406	 0.091462
H	 4.6432735699	 1.5539227337	-0.4477780995	 0.103232
H	 2.6210408082	 0.132518882	 0.503720634	 0.118714
H	 1.0536772558	 3.0806450159	-2.2049253607	 0.095644
