18
gdb 47030	3.65462	1.33616	1.06228	1.6361	72.48	-0.2522	0.0248	0.277	1111.9771	0.150413	-439.080719	-439.07332	-439.072376	-439.113064	28.553	
N	-0.1682784008	 1.4213997741	 0.0320246828	-0.51689
C	-0.0178500191	 0.1702004133	 0.1464917054	 0.403922
C	-1.1342711345	-0.8080470208	-0.1293115822	-0.32118
C	-1.2450066929	-1.8105964453	 1.0259817955	-0.058567
C	-1.5995665916	-3.2756420987	 0.6898304334	-0.095619
O	-0.2594275025	-3.7216278243	 1.0072348373	-0.293122
C	 0.1303482045	-2.3955834378	 1.418514996	 0.116001
C	 1.2637757415	-1.809693106	 0.5766525497	-0.111962
O	 1.1676656577	-0.3787544578	 0.5587912004	-0.247931
H	 0.7046882434	 1.9018969098	 0.2620137043	 0.218806
H	-2.0515433771	-0.2415753534	-0.2893606546	 0.137971
H	-0.9127294326	-1.3436631273	-1.0616213867	 0.124231
H	-1.808270466	-1.3811534917	 1.8556667389	 0.096223
H	-2.3453661153	-3.7402926224	 1.3454510647	 0.109363
H	-1.8645336457	-3.4800935785	-0.354801427	 0.106811
H	 0.372625507	-2.357989519	 2.486970712	 0.088824
H	 2.2524069101	-2.0314034078	 0.9826600019	 0.125024
H	 1.2097352839	-2.2190843962	-0.4392900218	 0.118096
