13
gdb 9091	6.50143	0.98175	0.89423	1.832	56.57	-0.2937	-0.0124	0.2813	1181.7705	0.093528	-435.754024	-435.745686	-435.744742	-435.787643	28.033	
O	-0.400534925	 1.096822419	-0.4656142657	-0.403647
C	 0.0410111011	-0.2118781179	-0.1707844428	-0.009185
C	 0.989364299	-0.7619442924	-1.2538158319	-0.107476
O	 0.2933349862	-0.8586145	-2.4845412453	-0.175019
C	 0.3532210675	 0.1998701568	-3.3307633039	 0.188592
O	-0.2735469941	 0.2418269753	-4.3415541139	-0.259427
C	 0.6886654304	-0.2945863343	 1.1503380558	 0.243793
N	 1.2353781734	-0.3311615341	 2.1674833454	-0.2981
H	 0.3091883042	 1.7191965109	-0.2673209505	 0.302426
H	-0.8592805768	-0.8353848716	-0.1631083618	 0.164233
H	 1.8702241932	-0.1120904893	-1.3417554809	 0.125343
H	 1.3255854842	-1.7681476366	-0.9925300479	 0.152263
H	 1.0549720165	 0.9821102842	-2.9868117768	 0.076204
