16
gdb 106030	2.98841	1.62251	1.22695	2.7586	68.33	-0.2434	-0.015	0.2284	1002.9371	0.124546	-437.824675	-437.817158	-437.816214	-437.856851	28.68	
O	 0.1804505772	 1.1418643337	-0.6262224325	-0.418334
C	-0.0608750429	 0.142452448	 0.3457744579	-0.194829
C	-1.4289713762	-0.4479246393	 0.1800152617	 0.194498
C	-2.8009023923	-0.0440094495	 0.6866681007	-0.087867
C	-3.443541425	-1.010541947	-0.3870849066	-0.208649
C	-3.0853206787	-2.1314415926	 0.6009982095	-0.161263
N	-2.106975895	-1.1973118164	 1.2822326512	-0.181716
C	-2.1012805135	-0.7954476045	-1.1124082655	 0.401312
O	-1.7652479437	-0.6620460846	-2.2600366234	-0.357532
H	 0.01080115	 0.7481900674	-1.4916367442	 0.301426
H	 0.6858883077	-0.6662389527	 0.299481398	 0.105964
H	 0.034258347	 0.6118508429	 1.329464005	 0.127266
H	-3.1080216587	 0.8652018878	 1.1838502844	 0.130584
H	-4.3904578872	-0.9204857135	-0.9111001481	 0.104435
H	-3.8765562836	-2.3634038879	 1.3167378758	 0.126641
H	-2.6500862552	-3.0544857217	 0.2027414759	 0.118063
