18
gdb 14130	3.69987	1.57648	1.41806	1.4701	67.44	-0.249	0.0666	0.3156	957.512	0.15224	-384.902607	-384.894358	-384.893414	-384.935238	30.827	
C	 0.0463182108	 1.4541149131	-0.2185448476	-0.416668
C	 0.0297602009	-0.0249506424	 0.1691495273	-0.002002
O	 0.7474754457	-0.269561513	 1.37603895	-0.423248
C	-1.3737550007	-0.5601462982	 0.2688900942	 0.440946
C	-2.4251334907	-0.3235321606	 1.3736392948	-0.305085
C	-3.040138147	-1.7230886808	 1.0151398035	-0.23447
C	-1.9586971197	-1.8702565368	-0.0624280858	-0.04927
O	-2.0987469383	-0.7515786128	-0.9538560059	-0.298578
H	 1.0759468492	 1.8136866211	-0.2944706185	 0.124639
H	-0.4556350437	 1.6049707863	-1.178359411	 0.140659
H	-0.4768675282	 2.0596576239	 0.5323790889	 0.109149
H	 0.548922344	-0.6061318827	-0.6013039547	 0.098977
H	 0.4586500003	 0.3806041294	 2.0253991862	 0.28069
H	-1.9969013757	-0.3090814048	 2.3787910003	 0.103168
H	-3.0650253449	 0.5501546644	 1.2302936573	 0.106979
H	-2.939498408	-2.444519013	 1.8290209992	 0.109105
H	-4.0670775991	-1.7291391387	 0.6430155718	 0.111927
H	-1.505268425	-2.7678548243	-0.46790714	 0.103081
