20
gdb 51820	3.43566	0.96725	0.87375	3.5974	82.2	-0.2453	0.0219	0.2672	1381.7087	0.172881	-403.196988	-403.188312	-403.187368	-403.231534	32.407	
O	-0.1411892472	 0.2110919791	-0.803310143	-0.324969
C	-0.0478180671	 1.2643139595	-0.2085526807	 0.149969
N	 1.0974233032	 1.7784577241	 0.3139540657	-0.287783
C	 2.3970172448	 1.12623841	 0.2177868119	 0.035886
C	 3.3761929261	 1.9244768286	-0.6558609065	-0.210214
C	 4.6947887102	 1.1585057849	-0.8404292004	-0.258032
C	 5.1900108702	 0.5636445935	 0.4516714097	-0.040327
C	 4.4376235278	 0.4510267572	 1.5452464763	-0.056629
C	 2.9940578424	 0.8785127273	 1.6125472108	-0.253788
H	-0.9147776065	 1.9304530601	-0.0239201906	 0.070503
H	 1.0441292061	 2.6727916193	 0.7774650077	 0.241329
H	 2.1975279264	 0.1644268734	-0.2630520616	 0.128247
H	 2.9148164163	 2.1394562658	-1.6246286223	 0.106673
H	 3.579546265	 2.8907814087	-0.173777466	 0.090416
H	 4.5633448669	 0.3597459919	-1.58516423	 0.117533
H	 5.4581214543	 1.824761256	-1.2612284852	 0.105166
H	 6.2186968942	 0.2115977242	 0.4687900719	 0.086666
H	 4.860518737	 0.0238140855	 2.4512426801	 0.086473
H	 2.9064953045	 1.7935965325	 2.2202537192	 0.095988
H	 2.3971645154	 0.1221090584	 2.136270793	 0.116894
