16
gdb 42573	3.04085	2.19365	1.68538	4.3839	70.54	-0.2386	0.	0.2386	818.0098	0.127529	-400.712563	-400.706762	-400.705818	-400.74254	24.63	
O	 0.0107016561	 0.0656337494	 0.3364896472	-0.337316
C	-0.0169339474	 1.2314506623	 0.0461772937	 0.399025
C	-1.2029256199	 2.1298277927	-0.0438761351	-0.168036
C	-0.999420813	 3.4915031465	 0.6669294963	-0.096645
C	-0.8639289265	 3.3582616604	-0.8328757871	-0.094507
C	 0.6688949249	 3.402647314	-0.6339327885	-0.015708
C	 0.5087506211	 3.8258271271	 0.8456977007	-0.051274
C	 1.4317391626	 2.654799734	 1.2248058064	-0.201811
N	 1.1556190276	 2.0492726984	-0.1490003334	-0.174657
H	-2.2043537338	 1.7204434947	-0.0401654865	 0.112095
H	-1.8182878398	 3.8919381899	 1.2500542157	 0.106281
H	-1.4522720654	 3.7516504091	-1.6501752765	 0.104975
H	 1.3261509641	 3.87930423	-1.357435101	 0.088117
H	 0.7014916738	 4.8394497069	 1.1989463588	 0.081626
H	 2.4832124586	 2.943840783	 1.3078845322	 0.117983
H	 1.1661949672	 2.0005491817	 2.0594843872	 0.129852
