17
gdb 66905	2.4262	2.10152	1.76388	1.2805	77.06	-0.2231	0.0135	0.2367	868.7926	0.137743	-384.680858	-384.67417	-384.673226	-384.711277	28.529	
O	-0.0722666303	 1.3882571707	 0.0494916057	-0.47483
C	 0.0109879502	 0.0052827577	 0.0117578889	 0.384584
C	-0.2068187852	-0.8422390188	-1.2041605195	-0.183003
C	 0.910248076	-1.7890312895	-1.299396544	-0.0574
C	 1.6958477594	-1.7187865305	-0.2099842451	-0.094975
C	 1.0940278862	-0.7812483763	 0.827169835	-0.222875
C	 0.2610145691	-1.7476002794	 1.6585077639	-0.083427
C	-0.9937940663	-1.8221019003	 1.1835972441	-0.058684
C	-1.1999208824	-0.8500585725	 0.1028777773	-0.133533
H	 0.6327507157	 1.7452041634	-0.5027279787	 0.282095
H	-0.7045084649	-0.4450005038	-2.0811264228	 0.092184
H	 1.040180274	-2.4812695476	-2.1232083919	 0.09282
H	 2.5523819101	-2.3490140037	-0.0018409357	 0.096472
H	 1.796843256	-0.1544496386	 1.3821083021	 0.072857
H	 0.6943240336	-2.3886745034	 2.4170365568	 0.096825
H	-1.7479361209	-2.531302636	 1.5035306695	 0.09298
H	-2.1771888502	-0.4492550612	-0.1370008956	 0.09791
