15
gdb 44974	3.86085	1.2154	1.05249	2.8874	71.66	-0.273	0.002	0.275	1106.7605	0.113807	-416.825622	-416.818211	-416.817267	-416.857794	28.185	
N	 0.0600827696	 1.0178570513	-0.7807084412	-0.518967
C	 0.0245997728	-0.0149823364	-0.0652702653	 0.401895
C	-1.2394068304	-0.7559773311	 0.347416419	-0.382875
C	-0.7279860637	-2.0154998383	 1.0325094219	 0.141922
C	 0.1976571691	-2.9131324078	 0.2064212271	-0.344447
C	 0.7852206601	-1.8525173845	 1.0767184793	 0.066689
O	 1.1348300347	-0.638467775	 0.4654204731	-0.230991
C	-1.4598988897	-2.5789154561	 2.1270259465	 0.211437
N	-2.0519325461	-3.0367122258	 3.0093085227	-0.337549
H	 1.0196697677	 1.334722371	-0.9251010698	 0.233989
H	-1.8159684867	-0.1395615274	 1.0425131216	 0.162083
H	-1.8694141816	-0.951189819	-0.5226906539	 0.156691
H	 0.2930308605	-3.9415397822	 0.5341354894	 0.15257
H	 0.2088755232	-2.7610982167	-0.8678888827	 0.144769
H	 1.3829749705	-2.080576642	 1.9493358623	 0.142782
