23
gdb 89518	2.23124	1.69511	1.25783	1.5007	84.5	-0.247	0.08	0.3271	1134.886	0.207013	-388.296979	-388.288272	-388.287328	-388.329973	34.612	
C	 0.2978885663	 1.653917109	-0.1349488052	-0.417986
C	 0.04229062	 0.1578502854	-0.0111449522	 0.051999
C	 0.7313030951	-0.7689090099	-1.0531665644	-0.293682
C	 1.3036640107	-1.6606661328	 0.0914860857	 0.34839
C	 0.7980615163	-3.0934577408	 0.133911183	-0.487092
C	 2.8215011909	-1.5222698457	 0.2686788961	-0.137158
O	 3.0351891067	-0.2241609768	 0.8089961465	-0.254203
C	 1.9945632057	-0.0276656531	 1.7635286177	-0.098922
C	 0.7341293293	-0.6359234062	 1.1440301816	-0.098835
H	 1.3701595911	 1.866923664	-0.1932353753	 0.132208
H	-0.1690238257	 2.0497595214	-1.043732919	 0.110883
H	-0.1140720191	 2.2080367228	 0.7163888177	 0.108971
H	-1.0372362377	-0.0225796899	 0.014771191	 0.067062
H	 0.0606919214	-1.2812408247	-1.7486031368	 0.090596
H	 1.5091054155	-0.2619328781	-1.6325214055	 0.098825
H	 1.2002409839	-3.6807379432	-0.7007218946	 0.116072
H	 1.0900395318	-3.5937814963	 1.064396804	 0.112899
H	-0.2940284843	-3.1307152073	 0.0622245478	 0.115347
H	 3.1991273971	-2.295097127	 0.9608880469	 0.078301
H	 3.3825246869	-1.5917936041	-0.6683401987	 0.104061
H	 2.2375424387	-0.5468703905	 2.7056347191	 0.083866
H	 1.9314934489	 1.0436371497	 1.9711239945	 0.107364
H	 0.0564878508	-1.031506136	 1.90446729	 0.061032
