24
gdb 101254	3.14072	0.86228	0.81018	2.2374	86.65	-0.2384	0.0719	0.3103	1599.2255	0.214611	-405.536024	-405.524711	-405.523766	-405.572797	41.279	
C	-0.1790621769	 1.5410996643	-0.0054611088	-0.38475
C	-0.1337533407	 0.0196762292	-0.1601875628	-0.188672
C	 0.9374669332	-0.4575906741	-1.1483225331	 0.138796
O	 2.2464769534	-0.0274260808	-0.770011986	-0.435273
C	 0.8968655341	-1.9626645022	-1.3214841587	-0.085499
N	-0.1041810679	-2.5095171264	-2.2581781179	-0.373875
C	 1.3365987474	-2.6960505183	-2.5405369686	 0.325209
C	 1.8588405206	-1.9675461877	-3.7625522206	-0.438402
C	 1.9213217001	-4.0825917018	-2.3495770604	-0.458212
H	 0.7986123586	 1.9285716689	 0.293649768	 0.124399
H	-0.4507614077	 2.0230789948	-0.9510372107	 0.116117
H	-0.9151020525	 1.8423014553	 0.7460765464	 0.107145
H	 0.0565231787	-0.4511497634	 0.8166700518	 0.076385
H	-1.1037139989	-0.3611452637	-0.50138355	 0.112424
H	 0.7568030219	 0.0181786894	-2.1168716605	 0.090524
H	 2.4411879469	-0.4103017431	 0.0929277269	 0.273888
H	 1.033988608	-2.5010227841	-0.3798202156	 0.061976
H	-0.5074481382	-3.365507673	-1.8845539168	 0.222856
H	 1.3148054566	-1.0387566697	-3.9384799772	 0.129053
H	 2.9219315553	-1.7311456505	-3.648339715	 0.122796
H	 1.743529859	-2.5931750354	-4.6549750287	 0.110794
H	 1.6727535958	-4.7300890533	-3.1989124047	 0.119852
H	 3.0138547626	-4.0423442728	-2.2760106289	 0.12464
H	 1.5408176905	-4.5564403418	-1.4384511284	 0.107828
