22
gdb 99133	3.48683	0.88094	0.82361	1.7606	84.02	-0.2124	-0.0162	0.1962	1535.2084	0.191469	-404.336854	-404.326375	-404.325431	-404.373233	37.619	
C	-0.2569763658	 1.2499002604	-0.7881284513	-0.377578
C	-0.5353628632	 0.3057437565	 0.3785175582	-0.272268
C	-1.5214759619	-0.8079628118	 0.0397375243	 0.365062
O	-2.181644215	-0.7803196798	-0.9759346147	-0.303674
C	-1.5843553493	-1.9325953094	 1.0801987304	-0.244464
N	-2.7491003867	-2.7851412234	 1.2406248141	-0.097827
C	-4.0179475864	-2.6010928917	 0.539104098	-0.259939
C	-3.1626044374	-3.797921091	 0.273844335	 0.035427
C	-2.4772294343	-4.0005161766	-1.0585664344	-0.432257
H	 0.4140966196	 2.0569366762	-0.4817163541	 0.111866
H	 0.2062661601	 0.7165348938	-1.6230003786	 0.126632
H	-1.1859632131	 1.6888220953	-1.1588747521	 0.137225
H	 0.3879116041	-0.1482509061	 0.7631738939	 0.119215
H	-0.9573720031	 0.8542917758	 1.2331685777	 0.130828
H	-0.706310522	-2.5662884935	 0.8824712392	 0.133572
H	-1.3787756737	-1.466719314	 2.0544581745	 0.118961
H	-4.903061615	-2.6819775452	 1.1669673502	 0.10346
H	-4.0724468949	-1.8588691299	-0.2490750714	 0.1417
H	-3.4460669396	-4.7302905388	 0.7637945253	 0.083229
H	-2.3001184519	-3.0519068635	-1.5678375241	 0.152563
H	-1.5191618565	-4.5201436068	-0.9337291535	 0.109344
H	-3.100963144	-4.6279461365	-1.7046733466	 0.118922
