23
gdb 110823	3.19182	1.06091	0.95924	1.7963	85.66	-0.2462	0.0782	0.3245	1350.9474	0.204886	-388.25857	-388.248871	-388.247927	-388.292666	37.573	
C	 0.8238314663	 0.695870998	-1.7476180744	-0.454344
C	 1.2390362562	-0.6634443518	-1.1836846845	 0.334707
C	 0.3466856702	-1.7593532587	-1.7791859663	-0.427241
C	 2.7508178327	-1.0888603345	-1.2671343674	-0.296921
C	 2.7448182764	-1.3825746833	 0.2415724517	-0.082391
C	 2.4466128024	-0.1493331967	 1.0554781003	-0.03843
C	 3.045723719	 1.221408845	 0.8241565211	-0.100905
O	 4.2763651421	 1.3627876722	 1.5252108848	-0.420991
C	 1.3102572349	-0.8429478426	 0.3490108487	-0.112931
H	 1.4354823385	 1.5176786945	-1.3699228109	 0.118077
H	 0.9005689596	 0.7003550645	-2.8414870564	 0.110664
H	-0.2192907764	 0.9155816903	-1.4917619222	 0.112561
H	 0.4411344399	-1.7892820983	-2.8705357394	 0.109642
H	 0.6138122835	-2.7462738141	-1.3874946177	 0.112345
H	-0.707736549	-1.578834606	-1.5389676012	 0.109781
H	 2.898048753	-1.9796516533	-1.8820599423	 0.100154
H	 3.4560759527	-0.3235393425	-1.6076929896	 0.091493
H	 3.1610841913	-2.2756023253	 0.6928624464	 0.083468
H	 2.4229848408	-0.3708348493	 2.1224218761	 0.093592
H	 3.1836437427	 1.433075815	-0.2435380981	 0.089311
H	 2.3872118005	 1.9987253705	 1.2269341569	 0.110248
H	 4.8501968642	 0.6460843784	 1.2341352225	 0.280608
H	 0.4866215586	-1.247672672	 0.9293235016	 0.077504
