23
gdb 70832	2.37054	1.81927	1.35876	0.0821	89.58	-0.2673	0.0839	0.3512	1083.9763	0.206655	-351.143536	-351.135016	-351.134072	-351.175893	34.386	
C	 0.0109476614	 1.5071715531	-0.0356238161	-0.519719
C	 0.0206151532	 0.0008467716	-0.0384658118	 0.334909
C	 0.6093100187	-0.9433037591	-1.1155946894	-0.324433
C	 0.0307550982	-1.8935365875	-0.0383201967	 0.334909
C	 0.0372183463	-3.3998781311	-0.0352443148	-0.519719
C	 0.6035801636	-0.9431659288	 1.0682534979	-0.068809
C	-0.3403684304	-0.9481328141	 2.2718133934	-0.247026
C	-1.7096342026	-0.9555067464	 1.5299277646	-0.247027
C	-1.2169462925	-0.9529876892	 0.0818699306	-0.068811
H	 1.0300779025	 1.9091752924	-0.0629010944	 0.116243
H	-0.525662322	 1.9007785779	-0.906313534	 0.116244
H	-0.4779978419	 1.9020647504	 0.8623390353	 0.115914
H	 0.113401545	-0.9460303916	-2.0926442345	 0.078284
H	 1.6986034685	-0.9374851456	-1.233765178	 0.078284
H	 1.060588988	-3.790948203	-0.0627061481	 0.116244
H	-0.4472524018	-3.7998440221	 0.8628987756	 0.115914
H	-0.4953546845	-3.7993467359	-0.9057431416	 0.116244
H	 1.682244009	-0.9373763685	 1.2473080746	 0.049211
H	-0.1988407357	-1.8284331438	 2.9075422866	 0.093483
H	-0.208265491	-0.0662892509	 2.9074309863	 0.093483
H	-2.3121460354	-1.8398012322	 1.7625471697	 0.093483
H	-2.3215539884	-0.0776578402	 1.7624046697	 0.093483
H	-1.9560308982	-0.9570078055	-0.7239508446	 0.049212
