18
gdb 7689	3.44525	1.7356	1.52967	2.2395	67.88	-0.2391	0.0682	0.3073	901.9333	0.152481	-384.901604	-384.893484	-384.892539	-384.933326	31.677	
C	-0.0564410679	 1.5841124859	-0.0505968812	-0.464176
C	 0.0652691243	 0.0804019838	 0.0501155557	 0.413874
O	-1.105249682	-0.5955999528	-0.3620382133	-0.475217
C	 1.3134361703	-0.718697464	-0.2232559616	-0.121217
C	 2.5706385197	-0.015481231	 0.2930389528	-0.302371
C	 1.9513886816	-0.0520221775	 1.7384488229	 0.104631
O	 1.7676919916	 1.1540564857	 2.4525486692	-0.428191
C	 0.6794226482	-0.6790774918	 1.190961208	-0.101729
H	 0.7910249314	 2.0978510491	 0.4020095294	 0.138365
H	-0.1391164445	 1.8946729991	-1.1006360423	 0.094786
H	-0.9618155553	 1.9087182666	 0.4712024843	 0.12663
H	-1.2224730673	-0.4210260216	-1.3023640609	 0.278761
H	 1.2916110083	-1.5399773265	-0.9290397989	 0.084739
H	 3.4780772452	-0.618573624	 0.2115553319	 0.100712
H	 2.7717085858	 0.9794132915	-0.1154523973	 0.097479
H	 2.4913745297	-0.7836143653	 2.3540727491	 0.077835
H	 2.6222324215	 1.4311357446	 2.7984342286	 0.282858
H	 0.0905590292	-1.4360492415	 1.6940764835	 0.092231
