19
gdb 100252	2.28663	0.98539	0.85955	1.8161	76.54	-0.2418	0.0327	0.2745	1460.1291	0.155783	-460.125716	-460.114685	-460.113741	-460.162935	38.782	
C	 0.0621929213	 1.4841510421	 0.0501883869	-0.501876
C	 0.0471259009	 0.0283376004	 0.0251293611	 0.072065
C	-0.0018736417	-1.1754169912	-0.0107555278	 0.076601
C	 0.0278709063	-2.6396103318	-0.0365184293	 0.102336
O	-1.2968106162	-3.1543493111	-0.0415428883	-0.460973
C	 0.7606298774	-3.114806861	-1.3151690643	-0.107903
O	 0.5758180348	-4.5156522222	-1.4951795598	-0.431383
C	 0.7509468464	-3.1497259024	 1.2362869488	-0.105725
O	 2.077742037	-2.6747323435	 1.3459716139	-0.419233
H	 1.0082561804	 1.8782321031	-0.3365679035	 0.151448
H	-0.7446033704	 1.8927860251	-0.567612902	 0.158349
H	-0.0694797183	 1.8685561087	 1.0673025687	 0.152836
H	-1.2199725491	-4.0212028981	-0.4667874699	 0.28841
H	 0.3079084827	-2.6300603403	-2.1834297753	 0.123932
H	 1.8192968148	-2.8425987731	-1.2595461075	 0.118339
H	 1.2316862387	-4.9784530209	-0.9643703592	 0.298364
H	 0.1327772838	-2.8843102625	 2.1040659682	 0.107982
H	 0.8102340812	-4.2430898784	 1.194846185	 0.091209
H	 2.0267929999	-1.7108821429	 1.3515112242	 0.285222
