21
gdb 95898	2.11487	1.58271	1.28389	1.3636	83.09	-0.2578	0.0546	0.3123	1121.9093	0.181434	-387.073453	-387.063716	-387.062772	-387.107935	37.019	
C	-0.3209753749	 1.6113082878	 0.0320612767	-0.445324
C	 0.0189653719	 0.1108312754	 0.0442982206	 0.083799
C	 0.9343672196	-0.3192507686	-1.1385043011	-0.222677
C	 1.6058759128	-1.6391776092	-0.6869858309	-0.201613
C	 1.4241879017	-1.700660483	 0.8564557952	-0.243897
C	 0.879960865	-0.322594248	 1.2660699331	 0.121181
O	 1.9219446711	 0.6407368946	 1.3918307915	-0.451351
C	-1.2172881947	-0.6764370855	 0.0391915302	 0.327479
C	-2.2388363613	-1.3115566563	 0.0321055708	-0.493986
H	 0.5949214204	 2.2016224537	 0.0887380528	 0.135748
H	-0.8586015286	 1.8696589983	-0.8847012362	 0.117039
H	-0.9585627122	 1.8741988597	 0.8811521394	 0.118184
H	 0.371932765	-0.4207570089	-2.0691552777	 0.099279
H	 1.6854964	 0.462078966	-1.28105756	 0.109932
H	 1.1325816875	-2.5035507656	-1.1593019908	 0.10724
H	 2.6600901895	-1.6590903599	-0.9736171723	 0.100412
H	 0.6994015654	-2.4721238859	 1.1306158818	 0.114735
H	 2.3533924168	-1.9299007946	 1.3889655963	 0.082601
H	 0.2793322706	-0.3615204009	 2.1849422793	 0.067358
H	 2.5455703168	 0.3144677635	 2.0472650428	 0.283018
H	-3.1413623824	-1.8709339326	 0.0237501786	 0.190845
