13
gdb 11634	3.40778	1.88162	1.54177	3.4774	60.91	-0.2589	-0.0512	0.2077	821.0462	0.094569	-398.538465	-398.531632	-398.530688	-398.569928	24.678	
O	-0.6958117976	 0.875766288	 0.5340610996	-0.242806
C	 0.2916137332	 0.8246903733	-0.1564674793	 0.026309
C	 1.3965220972	 1.8147992949	-0.0787392936	 0.099887
C	 1.8434858941	 2.7346611881	 1.0949635916	-0.272858
C	 2.9058605357	 2.9610376204	-0.0294636702	-0.152884
N	 2.8575369617	 1.4692603842	-0.3706983456	-0.354664
C	 1.7095968881	 3.0724848077	-0.9852962325	 0.486701
O	 1.2489867417	 3.7249031871	-1.8545250209	-0.286249
H	 0.4375497186	 0.0383162216	-0.9280633014	 0.099308
H	 1.1974768541	 3.5608861742	 1.4018267733	 0.134385
H	 2.2332538436	 2.1775167697	 1.9513271708	 0.121801
H	 3.8398253766	 3.5175071823	 0.00638567	 0.116151
H	 3.2157596332	 0.9641237585	 0.447936568	 0.224919
