16
gdb 131614	4.21548	0.96094	0.86895	2.5201	66.13	-0.2555	-0.0189	0.2367	1298.0974	0.126204	-471.197012	-471.188703	-471.187758	-471.231033	30.049	
O	 0.0257855341	 1.4444757135	 0.026671775	-0.420921
C	-0.0081574758	 0.0585246197	 0.2680942735	-0.056747
C	-1.4013757758	-0.5082048944	-0.0650445733	-0.02497
O	-1.7464491079	-0.1127213377	-1.3889275523	-0.441735
C	-1.4528154325	-1.9969154886	 0.1032144649	 0.319087
N	-1.2175805285	-2.8000255738	-0.9377508638	-0.299991
N	-1.3017508426	-4.0164559124	-0.416080635	-0.064502
N	-1.5704427733	-4.085991153	 0.8776388241	-0.189257
C	-1.6700335518	-2.8045383494	 1.2344340335	-0.137812
H	-0.391384362	 1.5610433897	-0.8373384862	 0.288672
H	 0.7407605882	-0.4858826353	-0.3325988083	 0.085121
H	 0.2288754276	-0.1022789252	 1.325567127	 0.107582
H	-2.1317359542	-0.0305567171	 0.59815396	 0.103975
H	-1.4407096759	-0.8112109388	-1.9816802807	 0.300569
H	-1.1862462192	-4.8441938135	-0.978563717	 0.297899
H	-1.8914651205	-2.5278431336	 2.2526907987	 0.13303
