17
gdb 23599	3.76511	1.2511	1.16258	1.8332	75.84	-0.2292	-0.0118	0.2174	1084.1919	0.13629	-417.885563	-417.878174	-417.87723	-417.917421	29.358	
O	-0.1074542533	 1.3482532241	 0.0467335984	-0.388198
N	 0.0394691254	-0.0479324224	 0.0437854964	-0.238161
C	-1.0865480687	-0.6249187232	-0.0256658777	 0.414572
C	-2.5481170971	-0.1890920908	-0.0453694033	-0.35221
C	-2.9284156355	-1.7017449334	-0.0690002966	-0.039435
C	-2.9670981737	-2.4149722013	-1.4303557758	-0.029827
C	-1.9443667904	-1.9479898693	-2.3850252673	-0.248154
N	-1.5159311458	-2.8781485943	-1.3225936489	-0.145844
C	-1.4276972628	-2.1032611568	-0.0065422898	-0.072396
H	 0.8053726859	 1.6501571536	 0.1153344403	 0.309754
H	-2.8406643767	 0.3264356892	 0.8750200871	 0.131669
H	-2.8638662449	 0.422092381	-0.8959057435	 0.126159
H	-3.6495135803	-2.05694305	 0.6637727254	 0.08343
H	-3.748726449	-3.108390464	-1.7255923594	 0.097303
H	-1.9378554886	-2.4221232042	-3.3622389042	 0.124109
H	-1.5862783109	-0.923397147	-2.387919989	 0.130729
H	-0.9828843538	-2.7248483813	 0.7694777078	 0.0965
