18
gdb 116562	4.03266	0.80226	0.74477	1.8771	83.4	-0.2524	0.01	0.2624	1579.5111	0.145519	-401.910277	-401.900852	-401.899907	-401.945882	33.795	
C	-0.8456503669	 0.3420675251	-0.7803187397	-0.359891
C	 0.0015776427	 0.4553959857	 0.4875421095	-0.150777
N	 0.3518371772	-0.8749744241	 0.9808753083	-0.325658
C	 0.1506696702	-1.1673392197	 2.1766795253	 0.463658
C	 0.360878553	-2.4005317423	 3.0255957707	-0.394589
C	-0.2064142737	-1.5135951537	 4.1686122757	-0.04723
O	-0.3684747194	-0.4036902721	 3.2198370821	-0.26664
C	-1.4511936659	-1.9211064368	 4.785946412	 0.339992
C	-2.4747110185	-2.275560904	 5.3057396873	-0.451795
H	-1.8008657318	-0.147668004	-0.5671082459	 0.118486
H	-1.0544873407	 1.3338282165	-1.1937595866	 0.108398
H	-0.3245217305	-0.25040275	-1.5376474635	 0.124343
H	 0.9386470468	 0.9751832321	 0.2497575486	 0.108293
H	-0.5208133971	 1.0577985483	 1.2419406254	 0.111422
H	-0.2584289676	-3.256046444	 2.7551250592	 0.147822
H	 1.3984639164	-2.714373735	 3.1464587872	 0.141038
H	 0.5318665423	-1.2352143993	 4.9266491582	 0.122548
H	-3.3821474365	-2.5820250127	 5.7653470963	 0.210578
