22
gdb 57886	2.54329	1.26549	1.07629	3.3131	84.13	-0.2331	0.031	0.2642	1266.7781	0.192379	-404.365912	-404.355384	-404.354439	-404.401405	38.103	
C	 2.0741916065	 0.6390190632	-2.635276831	-0.344002
N	 1.7257417287	-0.6655355946	-2.0976816367	-0.084198
C	 2.643734894	-1.7362218033	-2.4298406242	-0.33686
C	 0.5513689652	-0.8040960831	-1.3963531129	 0.338087
O	-0.2262924857	 0.1279583421	-1.2597493337	-0.38266
C	 0.2699791445	-2.1591851001	-0.7588908372	 0.243982
C	 1.1580612024	-2.5140480077	 0.4234487516	-0.466901
C	-1.1831252861	-2.5337783376	-0.6821235885	-0.301627
C	-0.2795545777	-3.2638438622	-1.642844742	-0.300574
H	 2.0854502022	 0.6188902828	-3.7331354473	 0.117755
H	 1.3329906437	 1.3600155268	-2.2960426805	 0.168851
H	 3.0717180637	 0.9399170539	-2.2910102767	 0.117253
H	 3.6181307512	-1.5930742994	-1.9422833163	 0.120958
H	 2.2410479366	-2.7013846253	-2.1334658885	 0.153583
H	 2.816925517	-1.7585161127	-3.5140259161	 0.120457
H	 1.0781319631	-1.7508606153	 1.2050414975	 0.133307
H	 0.8461997207	-3.4694849621	 0.8575199456	 0.117571
H	 2.2147128924	-2.6031939322	 0.152226744	 0.115649
H	-1.51905344	-3.0599535213	 0.2048125115	 0.106976
H	-1.8916442471	-1.8197700396	-1.083450375	 0.136389
H	-0.3984035275	-3.0636332737	-2.7027942452	 0.117402
H	 0.009590562	-4.2854691885	-1.4144822885	 0.1086
