21
gdb 90271	2.49751	1.46078	1.15927	1.4172	86.45	-0.221	0.0214	0.2424	1164.8927	0.183071	-387.0804	-387.071793	-387.070848	-387.113361	33.767	
C	-0.0881865894	 1.4669705536	-0.0581266281	-0.493904
C	-0.0211752487	-0.0233042407	 0.0493209705	 0.143085
C	-1.0106178572	-0.901275396	 0.2167792752	 0.18595
C	-2.459700415	-1.1781705854	-0.123976691	-0.355057
C	-1.904000642	-2.470457761	-0.8457943651	 0.115598
O	-1.7128735913	-2.3140213343	-2.229878763	-0.424928
C	-0.5931887524	-2.3338363564	 0.0356316885	-0.050144
C	 0.840741451	-2.2368423271	-0.5124701446	-0.255392
C	 1.2931647017	-0.80149697	-0.0893635305	-0.283346
H	 0.4558974826	 1.949191124	 0.7647097601	 0.128496
H	 0.3770970875	 1.8248061982	-0.9857665045	 0.120097
H	-1.1204339377	 1.8272622609	-0.0292361632	 0.122657
H	-3.0769522926	-1.4375008659	 0.7429463131	 0.10986
H	-3.0016836309	-0.4627861337	-0.7488515053	 0.105676
H	-2.4860508381	-3.3864981213	-0.7210288848	 0.086095
H	-1.2352007565	-1.4864951442	-2.3670785048	 0.279494
H	-0.6813273373	-2.9541146223	 0.9357191031	 0.068877
H	 1.5099965084	-3.0192574854	-0.1450099063	 0.095167
H	 0.8205657964	-2.3126883992	-1.6060893289	 0.102349
H	 1.9563778175	-0.3390752104	-0.8307084454	 0.096583
H	 1.8577567841	-0.8186769834	 0.8540137449	 0.102787
