18
gdb 67968	2.3054	1.80949	1.29897	4.0504	71.6	-0.2457	0.029	0.2747	1022.0074	0.148593	-439.117551	-439.109607	-439.108663	-439.149818	30.711	
C	-0.0536152504	 1.5231010598	-0.0113959393	-0.466279
C	 0.0178616876	 0.0066334479	 0.0161866789	 0.328858
C	-1.3372046998	-0.7168312603	-0.0748463896	-0.119862
O	-1.158696212	-1.9777360221	 0.5492949838	-0.248887
C	-0.3207548808	-1.7558873507	 1.6801236302	-0.099378
C	 0.718213143	-0.7365432453	 1.2109616634	-0.266871
C	 1.6812099104	-1.305570924	 0.139562777	 0.447558
O	 2.5875078149	-2.0934405267	 0.1316921565	-0.368573
N	 1.0623395954	-0.5774316167	-0.8490561985	-0.360493
H	 0.94059909	 1.9591650933	 0.1163728023	 0.131055
H	-0.4565922769	 1.8804522431	-0.9662085444	 0.122919
H	-0.7053455798	 1.8980879114	 0.7838048154	 0.125568
H	-2.1049186355	-0.1231670399	 0.4496115509	 0.090188
H	-1.673410039	-0.8904761993	-1.101182693	 0.109897
H	-0.9019007853	-1.3549320515	 2.526462373	 0.093743
H	 0.112968839	-2.7153845817	 1.971241892	 0.13531
H	 1.1715933697	-0.1358072953	 1.9990733659	 0.100272
H	 1.0966067993	-0.6916280321	-1.8531366243	 0.244974
