20
gdb 105466	2.86086	0.86531	0.72558	1.8188	81.43	-0.2475	0.0542	0.3017	1575.3449	0.168904	-403.080497	-403.070297	-403.069353	-403.116619	36.964	
O	 0.0997944326	 1.4325135206	 0.7144114737	-0.415929
C	-0.0276213498	 0.1412491836	 0.1373651156	-0.150368
C	-1.4347634814	-0.4271563556	 0.2359531383	 0.317961
C	-2.4523729417	 0.2853490908	-0.6450592977	-0.259202
C	-3.9012589529	-0.2215289031	-0.5120906688	-0.374875
C	-4.8446811463	 0.5988578017	-1.260793617	 0.288972
C	-5.6027409665	 1.2902383612	-1.8873607596	-0.430269
C	-1.5429999125	-1.8688412414	 0.5872567823	-0.28431
N	-1.9039825691	-0.8322522824	 1.5692581723	-0.337124
H	-0.3566973951	 2.064234037	 0.1507260494	 0.290096
H	 0.3029823721	 0.1387268437	-0.9134231643	 0.09367
H	 0.6632321406	-0.4977934361	 0.6986236888	 0.102462
H	-2.4467097093	 1.3523915278	-0.3882446573	 0.10485
H	-2.134832216	 0.2142300076	-1.6927455617	 0.109468
H	-3.9707407049	-1.257614294	-0.8655434008	 0.127484
H	-4.169626046	-0.2380117614	 0.5497692755	 0.160405
H	-6.2859721844	 1.8919278351	-2.4333643915	 0.191384
H	-2.3745488704	-2.4690800498	 0.2306462386	 0.119343
H	-0.6206967319	-2.4281787284	 0.7264890219	 0.10937
H	-1.1638878972	-0.703735967	 2.2550886125	 0.236612
