22
gdb 102468	2.19043	1.10994	0.77659	3.996	80.61	-0.2352	0.0413	0.2765	1529.0713	0.192639	-441.52086	-441.509686	-441.508742	-441.55813	39.129	
C	-0.0094836266	 1.5756993971	 0.194998896	-0.393662
C	-0.0219150232	 0.0707419208	-0.0873678373	-0.181029
C	-1.427525244	-0.5558647213	-0.0829981472	-0.097923
C	-2.1770341076	-0.2459531807	-1.3841501481	-0.109174
O	-3.5786920298	-0.4644021083	-1.1907154244	-0.418297
C	-1.3478388436	-2.0686376273	 0.23489418	 0.394366
O	-0.3389914709	-2.5813555838	 0.6938541471	-0.38556
N	-2.4908434846	-2.7645980232	-0.0085196057	-0.311006
C	-2.6141078625	-4.1797319759	 0.2739901695	-0.333341
H	 1.0141684794	 1.9626744067	 0.1851613188	 0.115853
H	-0.5798375718	 2.1488267853	-0.5444464569	 0.109579
H	-0.4365682559	 1.7938282485	 1.1802581309	 0.117343
H	 0.4614237834	-0.1339604946	-1.0521442045	 0.0926
H	 0.5736050169	-0.4590373649	 0.6587766229	 0.134722
H	-2.0131368922	-0.1016656026	 0.7298273677	 0.106465
H	-2.0018953708	 0.8011516404	-1.6641915159	 0.103132
H	-1.7908490017	-0.8797507816	-2.1962521696	 0.102876
H	-4.0242757547	-0.3401446188	-2.0341843726	 0.293266
H	-3.277662218	-2.2497967731	-0.3796567717	 0.254787
H	-3.3926309194	-4.3719485186	 1.0216795407	 0.120987
H	-2.8573516333	-4.7486105701	-0.631095263	 0.117885
H	-1.6555729292	-4.523991774	 0.6635722334	 0.166132
