18
gdb 99240	5.13056	0.68629	0.61222	3.0756	70.98	-0.2423	-0.0001	0.2423	1787.3056	0.144753	-476.292824	-476.282036	-476.281091	-476.332843	35.242	
C	-0.0438133348	 1.3365395762	-0.0270083081	-0.242843
O	 0.0548899461	-0.094359483	 0.0433412315	-0.224821
C	 0.6693665198	-0.5784990106	 1.1288995127	 0.435768
O	 1.1265378309	 0.1014749028	 2.0162139617	-0.365865
C	 0.7144411239	-2.0923294701	 1.0940896898	-0.25377
N	 1.3815228247	-2.5708713378	 2.2775463209	-0.325589
C	 1.5413249159	-3.9026981385	 2.5113214755	 0.415155
C	 2.2557814496	-4.2567178897	 3.8055934952	-0.483404
O	 1.1350121041	-4.7465853888	 1.7310219014	-0.378443
H	 0.9505033373	 1.7893327633	-0.0285144354	 0.146062
H	-0.5635933339	 1.5499208717	-0.9603799348	 0.141469
H	-0.6082913228	 1.7237464172	 0.8245336314	 0.146088
H	-0.3076859309	-2.4834267891	 1.0181025934	 0.155249
H	 1.2252896615	-2.4170968973	 0.1790450922	 0.154616
H	 1.7072192071	-1.8638818906	 2.9186199313	 0.26063
H	 3.1297242472	-4.8688050196	 3.5682173694	 0.152088
H	 2.5751185154	-3.385337652	 4.3826335473	 0.115636
H	 1.5881967388	-4.866542374	 4.4202327248	 0.151972
