18
gdb 30689	4.04243	0.93388	0.8869	1.9913	73.37	-0.2491	-0.0044	0.2447	1365.8289	0.14793	-439.118201	-439.109429	-439.108485	-439.152453	31.898	
C	 0.0048872262	 1.5710018474	-0.0230536303	-0.386004
C	-0.0370844074	 0.0534485952	 0.1622567325	-0.178378
C	-1.450745746	-0.5268813213	-0.0342245599	 0.000691
O	-1.9790554106	-0.1941002094	-1.3119823223	-0.433242
C	-1.4621711789	-2.0168600738	 0.1498975172	 0.276457
C	-1.8705329197	-2.8046060762	 1.1713320003	-0.136443
O	-1.6481203143	-4.1115053597	 0.8216078155	-0.140587
C	-1.1160524966	-4.0379065748	-0.4153400575	 0.079274
N	-0.9767600704	-2.8371837892	-0.8704181973	-0.321592
H	 1.0263932747	 1.9513458832	 0.0707480314	 0.108549
H	-0.378804887	 1.8451330038	-1.0087042605	 0.133909
H	-0.6110368515	 2.0788343484	 0.7280197905	 0.109895
H	 0.6350118041	-0.4381280378	-0.5525162477	 0.105506
H	 0.3168478046	-0.2230019778	 1.1634728623	 0.092355
H	-2.126682624	-0.0691777337	 0.6986822173	 0.087398
H	-1.5909956468	-0.8209340649	-1.9359005257	 0.293513
H	-2.3086967477	-2.6340803762	 2.1390896744	 0.152613
H	-0.8662410586	-4.9714538931	-0.8946210801	 0.156086
