15
gdb 87306	2.15868	1.36062	0.96534	6.6653	70.84	-0.3156	-0.0156	0.3	1216.1224	0.110509	-416.809755	-416.800623	-416.799679	-416.844391	31.774	
C	 0.1019698885	 1.5069521579	-0.1352159736	-0.436558
C	 0.0848340163	 0.0151763224	 0.0638877876	 0.038395
O	 1.3359979676	-0.6768350347	 0.113432283	-0.254429
C	 0.5365430634	-0.6900823229	 1.2917558873	 0.214493
C	 1.0925310861	 0.0397421784	 2.5115761787	-0.426369
C	 2.2088444641	-0.6760038788	 3.1301332617	 0.284825
N	 3.0928405862	-1.2321970488	 3.6221361026	-0.285328
C	-0.0906665724	-1.968187868	 1.5970147526	 0.274343
N	-0.6161032114	-2.963835563	 1.8565441338	-0.315299
H	 0.9021986461	 1.9953716221	 0.4233464997	 0.138779
H	 0.2560560062	 1.7257403051	-1.196372562	 0.153467
H	-0.8586107616	 1.9407769698	 0.1600200497	 0.143613
H	-0.6744003469	-0.5127601284	-0.5145417539	 0.126738
H	 1.4352385893	 1.0342162214	 2.2192245378	 0.167716
H	 0.2964802182	 0.1667914276	 3.253713395	 0.175615
