18
gdb 30433	2.29764	1.51606	0.92555	3.8736	79.76	-0.1641	0.0526	0.2167	1259.3621	0.146543	-435.279092	-435.269012	-435.268068	-435.315407	34.636	
C	-0.0305699316	 1.4082594457	 0.0760163281	-0.314337
N	 0.0208176487	-0.0398429724	 0.0003057275	-0.397179
C	 0.6398792878	-0.6632355905	 0.9112951071	 0.511191
O	 1.2648873319	-0.0928633118	 2.0166720978	-0.239959
C	 1.7713003576	-1.1116296819	 2.7950532914	 0.325076
N	 2.5094185838	-0.6960572234	 3.8935547721	-0.591659
C	 1.5018489072	-2.2946655184	 2.2252993054	-0.215943
N	 0.8287985781	-2.0200587595	 1.0171889766	-0.121838
C	 0.2511615241	-2.981352959	 0.1116938915	-0.342601
H	 0.9646432254	 1.8706618625	-0.0030752148	 0.108683
H	-0.638880386	 1.7864265115	-0.7501968845	 0.111484
H	-0.477025171	 1.7698714771	 1.0143863494	 0.103897
H	 2.0309600912	 0.0203105492	 4.4295641593	 0.25698
H	 2.7641905047	-1.4673357394	 4.4963620575	 0.253828
H	 1.7389964869	-3.2973319995	 2.5332419597	 0.129395
H	-0.583263799	-3.5267587604	 0.5720872451	 0.123947
H	-0.1225120993	-2.4300433354	-0.7520720536	 0.173207
H	 1.0040874195	-3.7055256843	-0.2183703952	 0.125827
