20
gdb 100554	2.70461	1.12384	0.84331	3.6933	77.23	-0.2564	-0.0096	0.2468	1395.6314	0.169369	-440.284832	-440.274984	-440.27404	-440.320599	35.384	
C	 0.0242406902	 1.6027783309	 0.0535120713	-0.38064
C	-0.2105966834	 0.1060541586	-0.1661425188	-0.190825
C	 0.7320271711	-0.4663227048	-1.2408814111	 0.057612
O	 2.0705547956	-0.1940275508	-0.9096619448	-0.438371
C	 0.5825642464	-1.980315751	-1.4464774309	 0.339164
O	 1.5404445881	-2.7133649038	-1.2817932155	-0.357273
N	-0.6212155131	-2.4359519093	-1.9581908959	-0.081073
C	-1.8787437034	-2.5913015628	-1.2382354289	-0.228941
C	-1.1046155063	-3.7776536737	-1.7236927347	-0.223115
H	 1.0621153881	 1.787124111	 0.3387273773	 0.144683
H	-0.1808804152	 2.1710778426	-0.8606213622	 0.113547
H	-0.6283639572	 1.988529899	 0.8424267972	 0.10804
H	-0.042621008	-0.437507103	 0.7723152803	 0.099042
H	-1.2497845523	-0.0660359766	-0.4662438553	 0.098616
H	 0.4815450468	 0.0072243375	-2.2051950714	 0.09406
H	 2.5090091474	-1.0605505385	-0.8999019983	 0.293082
H	-1.8791596651	-2.3995815399	-0.1692652199	 0.14096
H	-2.7688304277	-2.2613453614	-1.7664755533	 0.134477
H	-1.4417802057	-4.3150174403	-2.604841893	 0.132787
H	-0.5647633962	-4.3713764136	-0.9917617121	 0.144167
