18
gdb 119302	2.16718	1.28719	0.94607	3.719	72.97	-0.2697	0.0211	0.2908	1285.9954	0.146413	-439.057943	-439.048538	-439.047593	-439.092981	32.603	
C	-0.0589605458	 1.35624445	 0.1453298589	-0.230441
O	-0.0291113998	-0.0545409534	 0.1770790643	-0.235793
C	-1.2669788419	-0.6420761094	-0.1253821509	-0.110858
C	-1.0840265678	-2.1597575694	-0.1085730495	 0.081588
C	-0.8338330455	-2.7218603558	 1.32016583	-0.099755
O	-2.2040350488	-3.1553848832	 1.422364049	-0.266209
C	-2.4291667393	-2.9304013258	 0.0215002295	-0.121452
C	-0.1772029308	-2.6061806102	-1.1565882294	 0.248672
N	 0.522601354	-2.9856907769	-1.9944492777	-0.337965
H	 0.9453047082	 1.7054271159	 0.3931719569	 0.139132
H	-0.3328500089	 1.732234248	-0.8517361683	 0.115323
H	-0.7716549571	 1.7635971787	 0.8787405268	 0.110268
H	-2.0302563187	-0.3737346514	 0.62421955	 0.105499
H	-1.6346198706	-0.3171085224	-1.1125281751	 0.107095
H	-0.1292646439	-3.5604757696	 1.3526084105	 0.123149
H	-0.56553969	-1.9775244339	 2.0746709139	 0.129985
H	-3.3357971377	-2.3460102579	-0.1709261748	 0.117626
H	-2.4618382857	-3.8627773934	-0.5540621643	 0.124136
