17
gdb 104494	2.29753	1.70189	1.18353	1.5492	69.73	-0.237	-0.0318	0.2052	1060.9492	0.133544	-458.906772	-458.898194	-458.89725	-458.940064	31.139	
C	-0.0867941801	 0.8839429609	-0.6302786882	-0.26081
O	-0.4660698469	-0.2504863637	 0.144524821	-0.292829
C	 0.410909198	-0.554724064	 1.1731970795	 0.286483
C	 0.1930492461	 0.1722382057	 2.4518012778	 0.095706
O	 0.8346192117	-0.0110164323	 3.4607920644	-0.275491
C	 0.8885259746	-1.9921682723	 1.3405845613	-0.181207
C	 1.1223224195	-2.5767561511	-0.0473074576	-0.108047
O	 2.0149766174	-1.4754407653	-0.3955040389	-0.284459
C	 1.870324743	-0.9425797326	 0.9082398252	 0.042143
H	 0.8737709893	 0.7126379913	-1.1273369478	 0.140152
H	-0.8677761647	 1.0216038316	-1.3808860028	 0.132049
H	-0.0236941942	 1.7922465251	-0.0158154362	 0.110812
H	-0.6320601794	 0.9162197577	 2.4019775928	 0.086318
H	 0.778944661	-2.5176492298	 2.2785935776	 0.12669
H	 1.6779188097	-3.518942734	-0.0299824784	 0.122978
H	 0.2628920875	-2.639682007	-0.7190350056	 0.129824
H	 2.7131752675	-0.4635763002	 1.3916834958	 0.12969
