20
gdb 122458	3.61611	0.67115	0.60616	3.7204	81.1	-0.2959	-0.0019	0.294	1866.5059	0.169286	-403.147256	-403.137278	-403.136334	-403.183435	35.101	
C	 0.2764776066	 1.5291728121	 0.1762733488	-0.382566
C	-0.1040741732	 0.0713473061	-0.0945558348	-0.167952
C	 0.69589464	-0.5514643777	-1.2433215145	-0.161135
C	 0.3156294082	-2.0143943433	-1.5136484604	-0.241663
C	 1.1038116366	-2.6011351931	-2.6553526211	 0.073426
O	 2.4669164369	-2.9530123428	-2.4037428007	-0.232036
C	 1.5562147211	-4.0103650382	-2.7051815359	-0.108083
C	 1.2521061127	-4.9350249166	-1.6335889554	 0.304302
N	 0.9978262255	-5.6927348672	-0.7985372853	-0.328067
H	 1.3355909123	 1.6187457277	 0.4415887441	 0.118095
H	 0.1031075974	 2.1542982035	-0.706712401	 0.114284
H	-0.3095954261	 1.9471457518	 1.0003804369	 0.115304
H	 0.0478887146	-0.5243050765	 0.8148742889	 0.103534
H	-1.1762408012	 0.0068717308	-0.3231938951	 0.096392
H	 0.5450161891	 0.0410262714	-2.1564523287	 0.094292
H	 1.7684693982	-0.5001875721	-1.0177402709	 0.115716
H	 0.4761303315	-2.6180160655	-0.6140452966	 0.128862
H	-0.7522675248	-2.0848609322	-1.7598827114	 0.11096
H	 0.9540304428	-2.1258930706	-3.6271200265	 0.10768
H	 1.7032172718	-4.4881190474	-3.6723409004	 0.138657
