22
gdb 111495	2.4665	1.44705	1.13967	2.4681	81.43	-0.2229	0.067	0.2899	1188.2994	0.195098	-404.333933	-404.324987	-404.324043	-404.367274	34.841	
C	 0.0345961458	 1.5573005211	-0.0229999774	-0.383946
C	 0.0500242872	 0.026409961	 0.0157569232	-0.171758
C	-1.3516509874	-0.5773493945	 0.1002065826	 0.049832
C	-1.4207833119	-2.1235628603	-0.000917194	 0.049419
O	-0.2577364076	-2.691383899	 0.6004951637	-0.419041
C	-2.7219285301	-2.4655421259	 0.7598823991	-0.253516
C	-2.8978569458	-1.3180408769	 1.7445826854	-0.015962
C	-1.7140340981	-0.9018774142	 2.5407615729	-0.258834
N	-2.0872724337	-0.1637449517	 1.3182945366	-0.102699
H	 1.0516961506	 1.9587469828	-0.0708433704	 0.104205
H	-0.5114242907	 1.9265451709	-0.8987070572	 0.107204
H	-0.4553307293	 1.9640519651	 0.8654844441	 0.13411
H	 0.5421536926	-0.3680586677	-0.8814120519	 0.093499
H	 0.6440768966	-0.3258252119	 0.8643988412	 0.111288
H	-1.9475038651	-0.1845712658	-0.7358252552	 0.076444
H	-1.4777217094	-2.4367053428	-1.0525302871	 0.067839
H	-0.3354364807	-3.6489443606	 0.54760793	 0.283798
H	-3.5688844826	-2.4888744851	 0.0643734121	 0.104642
H	-2.6655621881	-3.4492131897	 1.238875065	 0.095442
H	-3.8999246918	-1.1018467608	 2.1055322707	 0.084103
H	-1.8583601904	-0.3375705836	 3.4579907301	 0.107123
H	-0.8389831199	-1.5424533102	 2.5204102365	 0.13681
