18
gdb 55732	2.89898	1.14035	0.93644	6.1094	73.4	-0.2397	-0.009	0.2307	1269.45	0.14561	-439.121735	-439.112027	-439.111083	-439.157235	34.594	
N	-0.1185377402	 1.2961143386	 0.9000497755	-0.52563
C	 0.1037369927	 0.053828371	 0.3859200191	 0.428028
O	 1.2039181253	-0.4648157489	 0.380048319	-0.350376
C	-1.1272401039	-0.635761584	-0.2091221336	-0.452466
C	-0.9620934046	-2.138965626	-0.2497653549	 0.296758
C	-1.2668249391	-2.9614582168	 0.9875888823	-0.275546
C	-2.2028640559	-3.0277346296	-0.1725909838	-0.31138
C	 0.1288358537	-2.6666750225	-1.1257498438	 0.119941
O	 0.4618226812	-3.8274750534	-1.1569217168	-0.287092
H	 0.6710559275	 1.8232548147	 1.2357109823	 0.264786
H	-1.0195383127	 1.7393238598	 0.8719291818	 0.260821
H	-2.0279178289	-0.3624922228	 0.3511742219	 0.108734
H	-1.26660466	-0.2373915886	-1.2244930635	 0.133647
H	-0.614394355	-3.8101937511	 1.1552090237	 0.145459
H	-1.5737909806	-2.4210750683	 1.8764733507	 0.113307
H	-3.1644577418	-2.5302421315	-0.1037584218	 0.112915
H	-2.1849873118	-3.923044358	-0.7832984253	 0.139212
H	 0.6029950142	-1.9147570429	-1.7888917627	 0.078882
