25
gdb 104456	2.31715	1.3256	1.20864	0.9756	88.31	-0.2449	0.0779	0.3228	1247.6816	0.229494	-389.513664	-389.503881	-389.502937	-389.547975	38.066	
C	-0.1270304326	 1.4010281787	 0.0883398543	-0.243285
O	-0.0153824194	 0.0018317149	-0.0284140984	-0.278625
C	 0.6679288896	-0.5292340137	-1.1781170813	 0.382614
C	-0.0389057948	-0.1154867191	-2.4753386114	-0.441959
C	 2.1521559054	-0.1033392361	-1.1979069925	-0.223322
C	 2.9153307385	-0.5747083935	 0.0473349768	-0.196836
C	 2.8034612894	-2.0953897761	 0.2234887259	-0.182265
C	 1.3351070873	-2.5404605343	 0.256549776	-0.197491
C	 0.5755640499	-2.0550672135	-0.9858037934	-0.203232
H	 0.8475722474	 1.9050694902	 0.157381532	 0.104328
H	-0.690715826	 1.8537085981	-0.7391731036	 0.104434
H	-0.6738017345	 1.5899053661	 1.016380766	 0.123719
H	 0.0635086065	 0.9553529092	-2.6769220673	 0.110575
H	 0.3901027197	-0.6492153114	-3.3287419177	 0.113667
H	-1.1052586154	-0.3560360209	-2.4204496268	 0.117512
H	 2.6114694993	-0.5371124127	-2.0960339242	 0.09102
H	 2.2339422839	 0.9832546164	-1.3159030781	 0.086822
H	 3.9665543579	-0.2735341886	-0.0249512689	 0.084446
H	 2.5033169217	-0.0777464572	 0.933836199	 0.103347
H	 3.3173930159	-2.5945644764	-0.6106590987	 0.085679
H	 3.3174766188	-2.4106202344	 1.1386260448	 0.086587
H	 1.2682031827	-3.6320326621	 0.3275699299	 0.083056
H	 0.8497504592	-2.1311030051	 1.1491421182	 0.110126
H	-0.4820554806	-2.3331715108	-0.9220442826	 0.093779
H	 0.9836707202	-2.5390979978	-1.882289138	 0.085306
