18
gdb 11221	4.6466	1.28549	1.07979	1.1395	80.82	-0.2342	0.0244	0.2587	1122.0501	0.15322	-310.657323	-310.649124	-310.64818	-310.689791	30.926	
C	 0.0313437054	 1.587363036	 0.0871352811	-0.489882
C	 0.0266876961	 0.0917191917	 0.055167968	 0.324527
C	-0.3519196877	-0.6926330161	-0.9542495193	-0.166597
C	-0.1581641838	-2.1705157023	-0.651115712	-0.184622
C	 0.0639107702	-2.1636871463	 0.8942619015	-0.220435
C	 0.5332831038	-0.7296227744	 1.2245422971	-0.302861
C	-1.2555075714	-3.0284283556	-1.0859728522	 0.31593
C	-2.163775504	-3.7323810096	-1.4403093541	-0.471362
H	 1.0451040071	 1.9760556708	 0.2491750733	 0.125204
H	-0.3510752364	 2.0142746665	-0.8437530998	 0.124643
H	-0.581244807	 1.9659219156	 0.9152357911	 0.126054
H	-0.7220243755	-0.3520596923	-1.9145182671	 0.095347
H	 0.757323257	-2.5212041937	-1.1537096531	 0.105337
H	-0.8944674676	-2.3614993312	 1.3814848074	 0.117949
H	 0.7638545598	-2.9385913797	 1.2148335001	 0.103273
H	 1.6290990231	-0.6605242	 1.2899601512	 0.104095
H	 0.1484124689	-0.3743831155	 2.1879023224	 0.102011
H	-2.9648736178	-4.3537134036	-1.7552600657	 0.191388
