19
gdb 91244	2.50236	1.63182	1.46009	2.968	74.6	-0.2313	-0.0116	0.2197	997.1215	0.160259	-423.05063	-423.042832	-423.041888	-423.082782	31.056	
O	-0.6337555335	 1.3409785237	-0.240057309	-0.430192
C	-0.0683962803	 0.0522345884	-0.0013193073	 0.11372
C	-1.2487320008	-0.9190969916	 0.1514290022	-0.219979
C	-1.6829517089	-1.2704244549	-1.2853965875	-0.022899
C	-2.5387789207	-0.2054980789	-2.0443615111	-0.350936
C	-1.2798680157	 0.1879512309	-2.8319994216	 0.411644
O	-1.0296749156	 1.0302996841	-3.6451952747	-0.313038
C	-0.4372617939	-0.930942948	-2.1835408668	-0.128182
C	 0.6839305452	-0.4674584759	-1.2398943836	-0.256866
H	 0.0615704081	 1.9274692716	-0.5553961508	 0.28797
H	 0.5704183946	 0.0766703332	 0.8925249593	 0.064642
H	-0.9048553074	-1.821546408	 0.6684698008	 0.098616
H	-2.0473092776	-0.474689267	 0.7516669224	 0.112741
H	-2.0733559034	-2.2854347246	-1.3624014567	 0.071271
H	-3.3153690825	-0.6307592957	-2.6892379149	 0.120226
H	-2.9752050523	 0.5974171231	-1.4470239131	 0.138619
H	-0.1116892887	-1.6842456892	-2.9056193176	 0.091147
H	 1.3285838434	 0.2959727355	-1.6896228841	 0.107324
H	 1.3229799299	-1.3133581465	-0.9610531956	 0.104172
