20
gdb 5999	3.42791	1.17584	1.09941	1.9559	68.	-0.2553	0.0636	0.3188	1190.0037	0.173739	-423.261971	-423.251781	-423.250837	-423.296735	36.365	
C	-0.2112375155	 1.3870992012	 0.7219121164	-0.222105
O	-0.212360413	 0.0073415685	 0.997577241	-0.24043
C	 0.8682997734	-0.6753290484	 0.3985286468	-0.085783
C	 0.7609486206	-2.1672940346	 0.722490637	 0.342123
C	-0.5131181081	-2.7774068618	 0.1237487464	-0.422669
O	 1.92214549	-2.7513681395	 0.1385860194	-0.486878
C	 0.8153946146	-2.3849897866	 2.2417136634	-0.105772
O	 0.9620433644	-3.7914593877	 2.440959443	-0.43836
H	-0.2857947167	 1.5863790305	-0.3587200744	 0.106668
H	-1.0792638415	 1.8228711212	 1.2227363762	 0.125903
H	 0.7005145793	 1.8782142809	 1.097353475	 0.104448
H	 0.8614751558	-0.5437036412	-0.6956857622	 0.095531
H	 1.8319406104	-0.2916018555	 0.7706109102	 0.090303
H	-0.4547672095	-2.7454575119	-0.9677457419	 0.113861
H	-0.6191612171	-3.8190212401	 0.4375911952	 0.122789
H	-1.3959705513	-2.2190496167	 0.4463704662	 0.12383
H	 2.0347133432	-3.5997176554	 0.5860086149	 0.285743
H	 1.6803466819	-1.8428583753	 2.6497890126	 0.088567
H	-0.0954108975	-2.0023741464	 2.717835739	 0.108079
H	 1.1816424767	-3.9496592712	 3.3626512258	 0.294152
