19
gdb 88605	2.71379	1.24418	1.02856	2.8316	71.2	-0.2336	0.0451	0.2787	1209.7301	0.156969	-460.110252	-460.100813	-460.099869	-460.144791	34.934	
C	-0.56374829	 1.1964839968	 0.4611783177	-0.408224
C	 0.0508243032	-0.1513431388	 0.1936527003	 0.084314
O	 1.3985731485	-0.1788431382	-0.2915599453	-0.270163
C	 1.1381494841	-0.7285429288	 1.0058679911	 0.038748
C	 1.7658979562	-0.0057531162	 2.1649538638	-0.145612
C	 0.961991911	 0.3330037019	 3.4151934762	 0.090939
O	-0.3695102421	-0.0659934779	 3.5161845139	-0.42583
C	 2.0228339354	-0.7362812606	 3.4642767241	-0.001927
O	 1.5397871776	-2.0576146846	 3.5053147421	-0.421438
H	 0.1532180011	 1.8661678582	 0.9408069115	 0.124168
H	-0.8946197179	 1.6588132426	-0.4746391484	 0.117459
H	-1.4280244735	 1.0893171751	 1.1229775793	 0.133461
H	-0.6051989219	-0.8611031752	-0.3158098416	 0.082208
H	 1.21214191	-1.8148127368	 1.0435591094	 0.104104
H	 2.5264511882	 0.7108062325	 1.8713772643	 0.11102
H	 1.1306279285	 1.2884818195	 3.9012760185	 0.105335
H	-0.3667193365	-1.0317810397	 3.4581849061	 0.285172
H	 2.9634629809	-0.574388107	 3.9862822484	 0.096623
H	 1.459662897	-2.3139708328	 4.4308965187	 0.299644
