18
gdb 85055	2.36585	1.57173	1.19366	1.639	67.77	-0.2464	0.011	0.2574	1074.5248	0.148116	-476.264108	-476.255219	-476.254275	-476.2975	33.629	
C	 0.7021946745	 1.4707684855	-0.0277256763	-0.396229
C	 0.0384663916	 0.093851335	 0.0325621507	-0.018057
N	 0.4069091327	-0.7696246798	-1.0875930055	-0.307642
C	 1.3925550639	-1.6732909961	-0.82512204	 0.385335
O	 2.0020583842	-2.3517475198	-1.6265658563	-0.392743
C	 1.6528899063	-1.6300645272	 0.6874712688	-0.030527
O	 2.8731299939	-0.9345320864	 0.9317548872	-0.448973
C	 0.5025054667	-0.7777425932	 1.2481332826	 0.124714
O	 0.8387967604	-0.0513070726	 2.3994780844	-0.434826
H	 1.7910395176	 1.3733589686	-0.0554517392	 0.129482
H	 0.3794907764	 2.0172161173	-0.919722223	 0.110292
H	 0.4266762818	 2.0553925275	 0.8534883216	 0.136146
H	-1.0498705168	 0.2172278599	 0.059179808	 0.088746
H	 0.181396776	-0.5424093508	-2.0452761095	 0.251709
H	 1.6895939408	-2.6401431014	 1.1109354728	 0.095339
H	 3.5547486029	-1.3425132789	 0.3851094667	 0.304618
H	-0.3226182592	-1.4464284331	 1.5144262519	 0.100054
H	 1.7817670862	 0.1480840056	 2.3324026352	 0.302561
