9
gdb 3908	5.9318	3.00542	1.99475	2.7399	46.97	-0.2754	-0.116	0.1594	563.8335	0.055765	-375.35753	-375.352401	-375.351457	-375.386615	18.132	
O	 0.0348742701	-0.0099559144	 0.3352007102	-0.307754
C	 0.0265731619	 1.1426072238	 0.0089020964	 0.427224
O	-1.1733052646	 1.7698411788	-0.2633685353	-0.239706
N	-1.2407905925	 3.1041269259	-0.6456961675	-0.04178
C	-0.1194886028	 3.7290002867	-0.7334092039	 0.111496
N	 1.1550012548	 3.238839646	-0.4939673613	-0.205224
C	 1.212256166	 2.0055664927	-0.1409963024	-0.072994
H	-0.1981386084	 4.7680054994	-1.0332014102	 0.163008
H	 2.1748108155	 1.5420133412	 0.0662409839	 0.16573
