17
gdb 2932	5.2976	1.93146	1.62279	1.2533	64.79	-0.2329	0.0324	0.2653	795.372	0.14948	-309.725707	-309.718654	-309.71771	-309.756886	26.175	
O	 0.0849009996	 1.2657036465	-0.3279325945	-0.421929
C	-0.0209314525	-0.1361951949	-0.1235373535	-0.080553
C	-1.4837077051	-0.478427633	 0.1521254687	 0.027122
C	-2.381778565	-0.1400745723	-1.0723560824	-0.256082
C	-2.6445179154	-1.4851928085	-1.7038573863	-0.056066
C	-2.252273299	-2.4929033526	-0.9272175917	-0.055497
C	-1.6488203021	-2.0100840175	 0.3704919195	-0.276931
H	 0.9871163526	 1.4641847066	-0.5938570038	 0.285577
H	 0.3217138129	-0.6960142107	-1.0095626081	 0.088266
H	 0.5968582209	-0.4578470471	 0.7303406838	 0.082869
H	-1.7922858299	 0.089003391	 1.034587949	 0.076909
H	-3.3225732655	 0.3375942622	-0.7667309324	 0.100393
H	-1.8868231944	 0.5702826123	-1.7429334218	 0.114171
H	-3.1244892853	-1.5921585871	-2.6708763183	 0.086429
H	-2.3643751068	-3.5463485111	-1.1600694657	 0.086644
H	-0.6919895344	-2.4984235137	 0.5990935871	 0.094993
H	-2.3093071606	-2.2329629302	 1.2193934803	 0.103686
