17
gdb 1349	4.22727	2.27906	2.16141	1.3288	65.1	-0.2429	0.0236	0.2665	715.7792	0.148216	-309.733888	-309.72668	-309.725736	-309.764755	27.597	
C	 0.1913795579	 1.4765366433	 0.0215919232	-0.437662
C	-0.0920847067	-0.0316575371	 0.0243388418	 0.382332
O	-1.507762174	-0.2538312963	-0.0294303958	-0.472201
C	 0.5327633291	-0.7751038305	-1.1857157957	-0.247478
C	 1.7718710929	-1.5322703286	-0.6473543872	-0.258011
C	 1.5558155392	-1.5277085177	 0.8467982335	-0.064986
C	 0.5583225211	-0.7255110966	 1.2072384299	-0.114016
H	 1.2660267955	 1.6767653114	-0.0327730647	 0.119319
H	-0.2993361731	 1.9491370396	-0.8351278223	 0.121655
H	-0.1854708073	 1.9489009534	 0.9375425512	 0.100873
H	-1.9156235591	 0.2655034691	 0.6718672053	 0.271126
H	-0.2170162246	-1.4835096062	-1.5460742385	 0.120792
H	 0.7712329119	-0.0976569034	-2.0095186809	 0.093857
H	 1.8573515725	-2.5449294062	-1.0580716896	 0.105141
H	 2.7094290984	-1.021136274	-0.9060071692	 0.105646
H	 2.1756215186	-2.1025106307	 1.5271833745	 0.092017
H	 0.2326097976	-0.5349248094	 2.2254219844	 0.081598
