22
gdb 115849	3.27483	1.13315	1.09025	0.7499	82.04	-0.2201	0.0856	0.3057	1264.479	0.194514	-404.326808	-404.317705	-404.316761	-404.360555	34.441	
C	 0.4739151652	 1.1712620772	-1.0755329166	-0.385465
C	 0.4759909267	-0.3188978538	-0.7288072304	-0.182677
C	 1.3851780677	-0.6480002323	 0.4610191653	 0.099778
O	 1.0084666964	 0.0792249873	 1.6412941267	-0.268882
C	 0.2341535682	-0.7510744978	 2.5042513542	-0.113559
C	 0.5745697654	-2.1838113055	 2.143603101	-0.050328
C	 1.3131886613	-2.1174250442	 0.8461212793	-0.054465
N	 1.9710045878	-2.580567372	 2.0583908658	-0.107125
C	 3.0374097974	-1.8247825893	 2.7080036553	-0.331217
H	 1.4726166134	 1.5084434035	-1.3752750374	 0.112707
H	-0.2124011205	 1.3851373925	-1.9001939924	 0.109271
H	 0.1689878966	 1.7645366113	-0.209487885	 0.133432
H	-0.5437335489	-0.6544990781	-0.4998344631	 0.097366
H	 0.810646957	-0.9087851609	-1.5920250979	 0.095868
H	 2.4105528385	-0.3270377359	 0.2289590339	 0.081295
H	 0.4892328105	-0.4780522124	 3.5351519428	 0.109032
H	-0.8457876065	-0.5837213543	 2.368247525	 0.098085
H	-0.1395618051	-2.9647238959	 2.3920753478	 0.092362
H	 1.1962789458	-2.8498942184	 0.0513131521	 0.090886
H	 2.9085258783	-0.7355160645	 2.6999881191	 0.132978
H	 3.1124869011	-2.1616429201	 3.7468646219	 0.119772
H	 3.9829470838	-2.0696709064	 2.2137171624	 0.120886
