20
gdb 86277	1.86881	1.54782	1.1656	3.1537	79.62	-0.2636	0.0249	0.2885	1189.4983	0.169025	-403.161071	-403.151254	-403.15031	-403.195424	36.139	
C	-1.0526111174	 1.0277416299	-1.0639662997	-0.420709
C	-0.033110516	-0.0509347317	-0.7769964846	 0.140066
O	 1.2905028402	 0.2730814803	-1.2490695511	-0.309535
C	 1.9010915964	-0.3042701715	-0.0770470785	 0.140065
C	 3.084565241	 0.4858671699	 0.4331983506	-0.420709
C	 0.5217575805	-0.2837965431	 0.6736874221	 0.050807
C	 0.3164371227	 0.8713626201	 1.6591450593	-0.455338
C	 0.1355357928	-1.550480016	 1.2824946443	 0.234498
N	-0.1689469649	-2.5594662072	 1.7586636979	-0.343534
H	-0.757631556	 1.9919332094	-0.6442132849	 0.125437
H	-1.1541281015	 1.1463874545	-2.1471581717	 0.138933
H	-2.0311747241	 0.7469153242	-0.661338181	 0.13004
H	-0.3681101909	-1.0055429113	-1.2076657864	 0.090103
H	 2.2033452276	-1.3423434186	-0.2771079468	 0.090102
H	 2.8210785476	 1.5232110914	 0.650829532	 0.125437
H	 3.4927446825	 0.0234198261	 1.3376825092	 0.13004
H	 3.8698080814	 0.4883508741	-0.3290842161	 0.138933
H	 0.6045115711	 1.8220780063	 1.2072106119	 0.137385
H	-0.7319953564	 0.9371855385	 1.961914962	 0.138989
H	 0.9185056435	 0.7210021445	 2.5592106014	 0.138989
