16
gdb 132532	3.10089	1.33921	0.94139	1.1211	77.72	-0.208	-0.0141	0.1939	1190.4955	0.124911	-442.104922	-442.096788	-442.095843	-442.13758	30.911	
C	-0.0055538459	 1.5227126242	 0.0111943656	-0.496261
C	-0.0076276434	 0.0162924115	 0.0082945181	 0.264312
C	-0.0661061792	-0.7189289552	-1.1700997641	-0.080736
N	-0.0705061515	-2.0561186502	-1.2414390873	-0.340109
C	-0.024709605	-2.7524454449	-0.1094818811	 0.264512
N	-0.0916579626	-4.1292863376	-0.169277251	-0.570174
C	 0.0447034092	-2.0946400038	 1.1313028201	 0.223308
F	 0.1130782926	-2.8471163988	 2.2447509815	-0.091806
C	 0.0553372083	-0.7242927558	 1.2001399815	-0.284907
H	 0.8931047054	 1.9259234009	 0.4921330579	 0.12968
H	-0.0402719039	 1.9144032739	-1.0090191418	 0.127402
H	-0.8687890952	 1.927745778	 0.5519169128	 0.130983
H	-0.1081394415	-0.2000362368	-2.1255533166	 0.099227
H	 0.1463513205	-4.510667936	-1.0724470437	 0.257242
H	 0.292346307	-4.625616265	 0.6193100782	 0.257047
H	 0.1126947052	-0.2418433942	 2.1705802398	 0.11028
