18
gdb 20068	5.33566	1.31418	1.12949	1.4136	67.86	-0.2492	0.0902	0.3394	1063.587	0.155034	-384.922225	-384.914708	-384.913763	-384.954858	27.525	
C	-0.1425227097	 1.3632038367	-0.2031060642	-0.27255
C	 1.2814383479	 0.9753861558	 0.0980630138	-0.267449
C	 0.2087364723	-0.0812041631	 0.0715003307	 0.012291
C	-0.2530058994	-0.7225151423	 1.3507700592	 0.109325
C	-1.6380161373	-1.3911855984	 1.2743537823	-0.125977
O	-1.5204595141	-2.4929857232	 2.1594471233	-0.235885
C	-0.201072545	-2.9423929455	 1.9838293624	 0.027478
O	 0.6056922649	-1.8087776697	 1.729778126	-0.275952
H	-0.6915488731	 1.906805206	 0.5592359079	 0.112856
H	-0.403014424	 1.6413863207	-1.2178174178	 0.11502
H	 2.0025515303	 0.9888487831	-0.7110844673	 0.115447
H	 1.6910223704	 1.2529739405	 1.0634876482	 0.118996
H	 0.2111384231	-0.7535989737	-0.7823692418	 0.084471
H	-0.2378558219	 0.0247329591	 2.1583856411	 0.073196
H	-2.4548763815	-0.7540498493	 1.6175178283	 0.119916
H	-1.8507300831	-1.7278961731	 0.2467528001	 0.092126
H	 0.1254233398	-3.4402464721	 2.9032876001	 0.114183
H	-0.1346367898	-3.6444570015	 1.1325057278	 0.082509
