19
gdb 40094	3.26478	1.49417	1.2766	1.3861	74.39	-0.252	0.071	0.323	1036.5946	0.160828	-422.999253	-422.991838	-422.990894	-423.031338	29.342	
C	-0.4485840204	 1.2928373769	 0.0268589787	-0.310319
C	 1.0243303694	 0.9840764669	-0.0768245684	-0.344906
C	 0.026447767	-0.131214455	 0.034020499	 0.34792
C	-0.1195799748	-1.1756687485	 1.1533010863	-0.349061
C	-0.5185168743	-2.231281521	 0.0767269885	 0.087577
O	-1.895237127	-2.5511316132	-0.0114986545	-0.256674
C	-2.5045890386	-1.5165086305	-0.7567482568	 0.012683
O	-1.5535515496	-1.0630451544	-1.6954958793	-0.247824
C	-0.2974455276	-1.1738429961	-1.0506511904	-0.002497
H	-0.8200648744	 1.7080038232	 0.958545436	 0.112984
H	-0.967359654	 1.6392425478	-0.8608302779	 0.12566
H	 1.5157915737	 1.1349991999	-1.033295986	 0.114702
H	 1.6517750348	 1.1900653774	 0.784795203	 0.113104
H	 0.8103430288	-1.4184415994	 1.6759427304	 0.105023
H	-0.9012641637	-0.9846141707	 1.8938376057	 0.107713
H	 0.0501661761	-3.1617225076	 0.0640691117	 0.089164
H	-3.3697931158	-1.9205922112	-1.2891365683	 0.120285
H	-2.8159049537	-0.692377496	-0.0926093435	 0.090198
H	 0.4631480842	-1.3462002382	-1.8145251644	 0.084267
