20
gdb 23028	2.61163	1.04099	0.91553	0.8681	80.6	-0.2197	0.0147	0.2344	1368.3175	0.168208	-440.219683	-440.209549	-440.208604	-440.255212	36.725	
C	-0.9369333677	 0.4497137107	-0.0290836039	-0.243711
O	-0.6969786613	-0.5529183022	 0.9438788244	-0.231087
C	 0.6338042477	-0.6069573309	 1.3415285711	 0.120251
C	 1.1221622047	-1.8854089221	 1.9257905508	-0.349572
C	 1.664842545	-1.43281885	 0.5734600959	-0.116159
C	 1.3730222427	-2.1765827895	-0.6786827028	 0.376705
C	 0.1444925424	-3.0348913526	-0.8233513183	-0.504924
N	 2.2724381452	-2.0446903344	-1.5849847536	-0.194774
O	 1.979139086	-2.7913843067	-2.7404705761	-0.401618
H	-0.3635956408	 0.2677947749	-0.9478312913	 0.124585
H	-2.0047338609	 0.4251985404	-0.2568536208	 0.129307
H	-0.6760132409	 1.4472080553	 0.3544162406	 0.111316
H	 1.0046915474	 0.3290868859	 1.7634863283	 0.092073
H	 1.7831299805	-1.8596967585	 2.7846370728	 0.120637
H	 0.4185988443	-2.7102431933	 1.9204662279	 0.132204
H	 2.665128265	-1.0133052819	 0.571599998	 0.100045
H	-0.6777198157	-2.6420458033	-0.2252347509	 0.147041
H	-0.1517672852	-3.0959555246	-1.871030382	 0.14717
H	 0.3579039761	-4.0562752883	-0.4849059245	 0.137027
H	 2.7181998054	-2.5635056988	-3.3134786255	 0.303485
