20
gdb 66197	2.23717	1.48179	1.36864	3.8614	83.35	-0.2508	0.017	0.2679	1099.783	0.172239	-366.054747	-366.046145	-366.045201	-366.087527	33.391	
C	-0.0087056516	 1.5474330332	 0.0165675797	-0.424314
C	-0.0204919761	 0.0058335587	 0.0037832632	 0.076561
C	 0.6759094316	-0.5394151914	-1.2690134312	-0.215563
C	 0.6589125694	-2.0710727672	-1.3323299476	-0.275279
C	 1.0258507548	-2.6927387997	-0.0113783002	-0.034078
C	 1.0521858255	-2.0161863226	 1.1353864586	-0.057691
C	 0.7024377933	-0.5561850676	 1.256716324	-0.264824
C	-1.4227521457	-0.4465519579	 0.0126211153	 0.287003
N	-2.5280779221	-0.7858066478	 0.007411875	-0.354929
H	 1.0236466554	 1.9068417032	-0.0354616052	 0.121743
H	-0.5590144963	 1.9517156295	-0.8373323734	 0.133396
H	-0.4643737392	 1.9366633661	 0.9314390688	 0.132439
H	 0.2081806958	-0.1101296615	-2.160630646	 0.109972
H	 1.7123241804	-0.1819739222	-1.243032081	 0.106516
H	-0.3346544384	-2.4250366642	-1.6408816765	 0.135063
H	 1.3501364569	-2.4128905256	-2.1122650321	 0.107028
H	 1.268811501	-3.7521754158	-0.0160194361	 0.091449
H	 1.3347603248	-2.5198338786	 2.0561881734	 0.091222
H	 1.6134344781	 0.0378765919	 1.4179408698	 0.111758
H	 0.0789267723	-0.3896573805	 2.1429931713	 0.122528
