19
gdb 72270	2.73252	1.83888	1.61572	2.5227	73.1	-0.2369	0.0664	0.3033	922.1729	0.161307	-423.000305	-422.993223	-422.992279	-423.031245	29.613	
O	-0.0080225308	 1.4264044638	-0.0297437496	-0.489583
C	 0.0134357631	 0.0350866544	-0.0829174684	 0.40113
C	 0.378878267	-0.7320927871	-1.3660203732	-0.323045
C	-0.557973811	-1.8646827563	-0.8436924959	-0.072565
C	 0.232633393	-2.8537359197	 0.025510222	-0.197821
C	 1.1153019588	-2.0385474002	 1.0064515979	-0.226265
C	 0.385463122	-0.7240920735	 1.2552077571	 0.02466
O	-1.0229792032	-1.0368771969	 1.4936381042	-0.29931
C	-1.260053768	-0.7967320957	 0.1020337329	 0.068879
H	 0.9007330838	 1.7467571711	-0.0071870367	 0.278123
H	-0.0391194365	-0.212949256	-2.2330500043	 0.107135
H	 1.4243945806	-0.9864291306	-1.5669576859	 0.089781
H	-1.193623419	-2.3576541524	-1.5798789325	 0.07081
H	-0.4641214264	-3.4780334338	 0.591074777	 0.114284
H	 0.8391734846	-3.5182348479	-0.5978118327	 0.093632
H	 1.2622656291	-2.5786294033	 1.9467940638	 0.106323
H	 2.1102251904	-1.8411258272	 0.5901848023	 0.09667
H	 0.802167421	-0.1004157272	 2.0512910966	 0.074091
H	-2.2769794885	-0.4807786318	-0.1342584846	 0.083071
