16
gdb 107612	2.80121	1.62339	1.1592	4.3084	66.16	-0.2601	-0.0058	0.2543	1033.6376	0.125092	-475.013137	-475.005494	-475.00455	-475.045321	29.066	
O	-0.0333369624	 1.3965826208	 0.3364650479	-0.417077
C	 0.0338546551	 0.0291251925	 0.0122519962	-0.162704
C	-1.334826771	-0.5928755165	-0.0967389587	 0.297794
O	-1.9949433815	-1.0790741609	 1.0938238188	-0.275947
C	-1.7228874095	-2.0023720702	 0.0438743099	-0.063844
C	-2.9299911635	-2.2259772192	-0.8405839442	-0.119052
O	-3.2969032419	-0.9188727474	-1.33179618	-0.24642
C	-2.3425761324	 0.0013331635	-1.0325438475	 0.424105
N	-2.2884440908	 1.1843242326	-1.4781731508	-0.572251
H	-0.6403119451	 1.7984041476	-0.3060418521	 0.303765
H	 0.5687664772	-0.146222596	-0.9367118134	 0.093664
H	 0.589353948	-0.4749886365	 0.8092452866	 0.117726
H	-1.0262980024	-2.8074056578	 0.2591600495	 0.118986
H	-2.693806292	-2.8730086961	-1.6927593112	 0.126426
H	-3.7856819021	-2.63559055	-0.2971267625	 0.140709
H	-3.0502488655	 1.3842378138	-2.1268939086	 0.234119
