18
gdb 77610	2.05449	1.62695	1.29858	3.9626	78.17	-0.2219	0.0068	0.2287	1078.7822	0.147951	-398.094072	-398.084925	-398.08398	-398.127797	33.687	
C	 0.052555875	 1.5738562285	 0.0462655238	-0.491414
C	 0.025876112	 0.0739381563	 0.0439996765	 0.220058
C	 0.6045885236	-0.786716609	-1.0868799507	-0.217262
N	 1.2454530418	-1.7109623076	-0.0993148039	-0.364033
C	 0.667103199	-0.9567807534	 1.0104432256	 0.142259
C	 1.3336311352	-0.7544948403	 2.2544812758	 0.224871
N	 1.8251354313	-0.579826002	 3.2891535848	-0.360001
C	-0.8636202984	-0.7837773445	 0.8922894181	-0.074256
N	-1.6357889871	-0.173105048	 1.9317494782	-0.524474
H	 1.0349248267	 1.9437141317	-0.2633710469	 0.137646
H	-0.694205049	 1.9681405489	-0.6526066944	 0.137509
H	-0.1633975089	 2.000218442	 1.0294210127	 0.13178
H	-0.1313864041	-1.2443291688	-1.757881177	 0.108379
H	 1.3606760122	-0.2687944571	-1.6859748406	 0.120282
H	 0.9085946343	-2.6702424114	-0.1472282956	 0.223429
H	-1.3851995973	-1.6145606263	 0.4147164908	 0.094138
H	-1.7702221267	-0.8252760222	 2.6991377533	 0.247174
H	-1.1692112196	 0.6376780033	 2.3234702394	 0.243912
