21
gdb 91750	2.2166	1.89301	1.61542	1.4761	81.28	-0.241	0.0183	0.2593	978.1366	0.186711	-387.115553	-387.108216	-387.107272	-387.146995	30.929	
O	 0.150060532	 1.4185941801	-0.0812416081	-0.438942
C	 0.0312613358	 0.0067626084	-0.0046039305	 0.151706
C	 0.7263915407	-0.6160065624	 1.2487912508	-0.248922
C	-0.4362324683	-1.2388580482	 2.0558374591	-0.041031
C	-1.321470353	-1.7857266311	 0.9185830155	-0.224541
C	-1.4431945812	-0.5299842543	 0.0345400724	-0.045277
C	-2.4062859741	 0.4644780242	 0.7086852638	-0.264182
C	-2.1011997362	 0.61148091	 2.180699054	-0.070006
C	-1.2005798598	-0.1575158781	 2.797760698	-0.070252
H	-0.1238471189	 1.7767976683	 0.7704413685	 0.280163
H	 0.515433359	-0.3522429467	-0.9173854662	 0.085933
H	 1.4399892042	-1.3920383759	 0.9505964082	 0.094888
H	 1.2858590046	 0.1462756904	 1.7982962687	 0.096127
H	-0.0954917143	-2.0117660158	 2.7499128121	 0.060536
H	-0.8102461611	-2.5982148311	 0.3895289788	 0.089372
H	-2.2884100693	-2.1609446137	 1.2665799235	 0.095142
H	-1.8007513241	-0.7506240423	-0.974874079	 0.061828
H	-2.3402417871	 1.4381859697	 0.2093073812	 0.114313
H	-3.4450915694	 0.1308897255	 0.5729917216	 0.103002
H	-2.6474164376	 1.3717635196	 2.7346174722	 0.08507
H	-0.982359372	-0.0122549266	 3.8528818954	 0.085073
