18
gdb 81233	2.4494	1.93743	1.70052	3.2663	71.86	-0.2404	0.0607	0.301	899.0811	0.149533	-438.985076	-438.978025	-438.977081	-439.01605	29.074	
O	 0.0986969852	 1.4542218061	-0.1042339847	-0.419024
C	 0.0339518492	 0.0618054326	 0.0302928225	 0.110174
C	 0.0183003489	-0.6335946164	 1.4162760685	-0.068709
C	-1.0636550951	 0.2320240071	 2.1420011575	-0.27632
C	-2.1563494315	 0.0076555445	 1.0719485089	 0.180929
O	-2.765650539	 0.8941898249	 0.0779947755	-0.308572
C	-2.4540040279	-0.1023159243	-0.9489803908	-0.218504
C	-1.3421568334	-0.6266776869	-0.0239421868	 0.216997
N	-0.7503599618	-1.7920256381	 0.7384429493	-0.39526
H	 1.0234130508	 1.7129903393	-0.168985609	 0.286932
H	 0.7249872927	-0.4463788807	-0.6574373878	 0.065193
H	 0.9199661337	-0.9127882524	 1.9626616811	 0.071188
H	-1.3546408763	-0.1463548159	 3.1230354778	 0.102962
H	-0.7144525258	 1.2622539927	 2.2279701287	 0.127918
H	-2.9342918325	-0.6632667807	 1.4536505379	 0.085037
H	-3.294038164	-0.7893254564	-1.1118074639	 0.109098
H	-2.1451908411	 0.3654296157	-1.8877448745	 0.115222
H	-0.059031922	-2.2782893811	 0.1619765497	 0.21474
