18
gdb 123865	3.37385	1.54625	1.10792	0.8733	76.64	-0.2453	0.0009	0.2462	1073.9984	0.152968	-398.164995	-398.158061	-398.157117	-398.196291	27.689	
C	-0.019423934	 1.5215676361	-0.0392915636	-0.200507
C	 1.4029439806	 2.1098573449	 0.0231406451	-0.200524
C	 2.1015042993	 1.7990287718	 1.3638569636	-0.320436
C	 1.8884254142	 0.3579714711	 1.7055285167	 0.280253
N	 2.551149278	-0.3554206867	 2.6178359966	-0.29546
N	 1.9725308638	-1.5491395493	 2.5344835816	-0.09017
N	 0.9896966814	-1.6814938514	 1.6494825181	-0.295451
C	 0.9178302541	-0.4656838081	 1.1044290428	 0.280252
C	-0.0132774902	-0.0206700778	 0.0210034519	-0.320443
H	-0.6065289247	 1.9141085213	 0.801227135	 0.103161
H	-0.5224977194	 1.8514125566	-0.9539661748	 0.098093
H	 1.9988138404	 1.6945329573	-0.8000794799	 0.103163
H	 1.3683691384	 3.193225165	-0.1305866663	 0.09809
H	 3.1693904759	 2.0348507641	 1.3139374844	 0.118542
H	 1.6814186559	 2.4346163264	 2.1549344982	 0.117168
H	 2.2651908417	-2.317660129	 3.1149977468	 0.288533
H	-1.022357535	-0.4107837219	 0.1885341883	 0.11855
H	 0.3185314497	-0.4265291905	-0.9440954947	 0.117184
