23
gdb 109912	2.13417	1.4298	1.07388	1.3469	86.44	-0.2347	0.0291	0.2638	1249.0899	0.205838	-388.300536	-388.290804	-388.28986	-388.334593	37.339	
C	 0.8620189062	 1.5338550814	-0.4034346056	-0.403804
C	 0.1706215613	 0.2201183136	 0.0049589075	-0.021519
C	 0.3127849	-0.8504816073	-1.053910853	-0.074029
C	 1.1039079725	-1.8506816877	-0.6723730074	-0.072438
C	 1.658592771	-1.6554359512	 0.7217484314	-0.05676
C	 3.1756891373	-1.3832169632	 0.6943568365	-0.396264
C	 0.7514319179	-0.5040165649	 1.2644413429	 0.010113
C	 1.3868549763	 0.3917968966	 2.3167520804	-0.1143
O	 0.3784766971	 1.277025218	 2.7957533892	-0.422349
H	 1.9286614306	 1.3868742932	-0.6025997926	 0.111799
H	 0.4119545736	 1.9325050389	-1.3189877026	 0.105903
H	 0.751142022	 2.2847977792	 0.3835165673	 0.124695
H	-0.8846822822	 0.4582127439	 0.183503697	 0.080405
H	-0.1570214143	-0.7628542932	-2.028721622	 0.085188
H	 1.3812154529	-2.7020245481	-1.2861914216	 0.085378
H	 1.5062035093	-2.5551855021	 1.3328004241	 0.071883
H	 3.4157599903	-0.4890838839	 0.1108254364	 0.120751
H	 3.5838698386	-1.2556394956	 1.7025377663	 0.111039
H	 3.7021098715	-2.2258664325	 0.2332145604	 0.110522
H	-0.1019121989	-0.9870483457	 1.7542036054	 0.085598
H	 1.7828692778	-0.2288388734	 3.1368601958	 0.084023
H	 2.2333209215	 0.9538640255	 1.8968648357	 0.089311
H	 0.7802219377	 1.8692058785	 3.4381388084	 0.284852
