15
gdb 131510	4.63561	1.21548	0.99253	4.5775	66.65	-0.2879	-0.0439	0.244	1110.577	0.113932	-453.907065	-453.900019	-453.899075	-453.938686	27.182	
O	 0.3831733891	 1.0090323916	-0.6857723131	-0.420972
C	-0.0192313963	-0.0980445904	 0.0879311704	 0.116598
C	 0.5170165991	-0.0790317625	 1.565771299	-0.382435
C	-0.61522558	-0.7255831152	 2.2958457628	 0.334505
N	-0.8435568692	-1.2887557109	 3.4421802649	-0.204324
O	-2.1760130746	-1.6589608784	 3.3817915946	-0.159542
N	-2.7548845367	-1.3147334574	 2.1717550095	-0.203916
C	-1.7973802639	-0.7421778419	 1.5097568482	 0.327778
C	-1.5771305432	-0.1117392862	 0.1732233461	-0.354095
H	 1.3166316558	 0.9144803756	-0.8994424358	 0.291911
H	 0.3061833411	-1.0397073211	-0.3784433533	 0.092038
H	 1.4770143744	-0.587998189	 1.6791034256	 0.130977
H	 0.6435529879	 0.9632925018	 1.8815428949	 0.142509
H	-1.9384712896	 0.9232524348	 0.1594931846	 0.14854
H	-2.0392917239	-0.6393798907	-0.6626199585	 0.140429
