15
gdb 125440	4.65294	0.87307	0.78327	3.7618	68.44	-0.2585	-0.036	0.2224	1414.1785	0.110922	-453.968145	-453.959475	-453.958531	-454.003287	29.273	
C	-0.1276807346	 1.4438551182	-0.1652954774	-0.495911
C	-0.0695303798	-0.0347124361	-0.0344418341	 0.413842
N	-1.0040477651	-0.9078065952	-0.270260498	-0.344265
C	-0.3737135362	-2.0985747242	 0.025840079	 0.334423
C	-1.0456348128	-3.4235171855	-0.1062113467	-0.389399
C	-1.5244297613	-3.6993973648	-1.5306107497	 0.158505
O	-1.5055823793	-4.7890869157	-2.0351621717	-0.227936
N	 0.8672821443	-1.9746921619	 0.4153402701	-0.168134
O	 1.0765648734	-0.5888353791	 0.3807918909	-0.190544
H	 0.6219417446	 1.7961241201	-0.8800980221	 0.162703
H	-1.1199847579	 1.7356708941	-0.5079668706	 0.165502
H	 0.0804698673	 1.9231473558	 0.7958852632	 0.162394
H	-0.3918935971	-4.2328222211	 0.2215356666	 0.156618
H	-1.9446526359	-3.4247949995	 0.5264382102	 0.155961
H	-1.9196376895	-2.8093626251	-2.0645335498	 0.106242
