25
gdb 99779	1.83764	1.23688	0.8984	1.3541	88.71	-0.2532	0.0757	0.3289	1467.6346	0.227143	-389.482782	-389.471755	-389.470811	-389.518965	40.989	
C	-1.6882351961	-0.3323725565	-0.8419933118	-0.387111
C	-0.2338599191	-0.1991956224	-0.3776562519	-0.199128
C	 0.8226833413	-0.6239825565	-1.4190681443	-0.000036
C	 2.2631055135	-0.2719509459	-0.9624097562	 0.138916
C	 2.5610103359	 1.2278528533	-0.9087834894	-0.420454
O	 2.5917762917	-0.9065706811	 0.2746031079	-0.441759
C	 0.7442058445	-2.1073298894	-1.7447062602	 0.043294
C	-0.17188167	-2.6449197675	-2.8155166988	-0.278533
C	 1.320264466	-2.6367771893	-3.0349659219	-0.280605
H	-1.868518761	 0.2528381392	-1.7509664476	 0.109976
H	-1.949906998	-1.3710059719	-1.0581882803	 0.129352
H	-2.375716562	 0.0330448233	-0.0723040007	 0.10782
H	-0.058346582	 0.8444830172	-0.0889091799	 0.089188
H	-0.0936079028	-0.7987922158	 0.5315383904	 0.093685
H	 0.6366346101	-0.0615650249	-2.3467853226	 0.058727
H	 2.9482842805	-0.7292329125	-1.6853213995	 0.08762
H	 1.9359963728	 1.7432276765	-0.1704328203	 0.110294
H	 3.606358766	 1.3878542311	-0.6303376279	 0.122909
H	 2.3854179727	 1.7010851889	-1.8805385854	 0.114241
H	 2.1184895334	-0.4436170803	 0.9737075936	 0.278358
H	 0.8897150132	-2.7441511669	-0.8763346411	 0.091056
H	-0.6654981225	-3.5962781889	-2.6476156873	 0.10802
H	-0.7653892943	-1.9346138554	-3.3815966443	 0.108137
H	 1.718806296	-1.9196132392	-3.7463261458	 0.105325
H	 1.8532164102	-3.580844035	-3.0158929148	 0.110708
