15
gdb 127514	3.35523	1.24795	0.91487	1.9839	79.59	-0.2185	-0.0195	0.1991	1203.3516	0.112313	-416.802253	-416.793678	-416.792734	-416.83585	31.352	
C	 0.0550077504	 1.354102648	-0.0335131361	-0.326719
N	 0.0636580061	-0.0891828071	 0.0384996921	-0.062048
N	 0.149319375	-0.816318434	-1.0972153246	-0.3612
C	 0.1333290563	-2.0821939081	-0.6923591367	 0.452698
O	 0.2038839567	-3.1035675896	-1.5687609947	-0.435403
C	 0.0377638116	-2.2011300404	 0.7026024983	-0.463305
C	-0.0056130925	-0.8838715016	 1.1478682082	 0.298324
C	-0.1012657259	-0.367319102	 2.4573257264	 0.263853
C	-0.1829919152	 0.0698514871	 3.5768717222	-0.438087
H	 0.9756357225	 1.7146470143	-0.5011263787	 0.14673
H	-0.7990111292	 1.6979221696	-0.6239752481	 0.146727
H	-0.0188199224	 1.7504496866	 0.9792841255	 0.154386
H	 0.2612132271	-2.7163459069	-2.4513518207	 0.303185
H	 0.0047663347	-3.0944241961	 1.3013963082	 0.122548
H	-0.2552295753	 0.4487156103	 4.5663778187	 0.198312
