23
gdb 69944	3.34779	1.38186	1.21475	0.2496	88.14	-0.2496	0.0782	0.3278	1146.086	0.20814	-351.151516	-351.143515	-351.142571	-351.183466	33.198	
C	-0.0911055117	 1.5667728156	 0.1133830975	-0.482309
C	 0.0790914708	 0.0761055859	-0.0660785973	 0.36977
C	-0.8918044304	-0.8644802826	 0.6028705883	-0.339509
C	 0.5536258236	-0.8360945081	 1.055017971	-0.081473
C	 1.514251895	-1.8800137847	 0.5054109662	-0.019771
C	 1.0078927728	-3.3477932863	 0.3589206222	-0.226618
C	 0.7482061604	-3.1007552464	-1.1557726167	-0.235704
C	 1.4656401322	-1.7199887239	-1.051246328	 0.009636
C	 0.7070202456	-0.4160319306	-1.3749683857	-0.305809
H	 0.8626545305	 2.094860648	-0.0067675756	 0.11084
H	-0.7914340813	 1.9800582576	-0.6227465889	 0.114298
H	-0.4829315613	 1.8054449738	 1.1075605549	 0.11086
H	-1.6225397425	-0.423414516	 1.2739789417	 0.102342
H	-1.2682914364	-1.7250245329	 0.0606754345	 0.10818
H	 0.751770563	-0.4285187711	 2.0415036077	 0.073479
H	 2.4948939002	-1.7749166282	 0.977101191	 0.059066
H	 1.7911318937	-4.0883923709	 0.54014951	 0.094402
H	 0.139093979	-3.6132986473	 0.9663748354	 0.097788
H	 1.2128327909	-3.8177255946	-1.8375530878	 0.091905
H	-0.3097218132	-3.0277444495	-1.4238190264	 0.09777
H	 2.4453462943	-1.7396739785	-1.5344140586	 0.065279
H	-0.0386803207	-0.5593076444	-2.1672043653	 0.094208
H	 1.4061986853	 0.3470133654	-1.73824921	 0.091371
