21
gdb 115064	3.11956	1.24666	0.98425	1.7282	83.19	-0.2377	0.0032	0.2409	1262.9705	0.183524	-387.091825	-387.083332	-387.082388	-387.125041	32.928	
C	-0.0679281095	 1.4945642126	 0.1940006553	-0.393483
C	 0.0431582225	-0.0230835664	 0.0190787714	-0.177309
C	 0.7213405169	-0.4707710993	-1.2891903612	-0.010786
C	 2.1828476377	 0.0263545003	-1.3969435865	-0.270251
C	 2.9718353523	-0.6446890408	-2.4905133795	-0.091273
C	 2.7301740205	-1.8976554477	-2.8782806614	-0.041107
C	 1.6427153849	-2.686480401	-2.2512338449	-0.012548
O	 1.6331926835	-2.7655290984	-0.8024060569	-0.263997
C	 0.634958538	-1.9767344077	-1.446824722	 0.049614
H	 0.9145275912	 1.9713596656	 0.2628902495	 0.120708
H	-0.6016027068	 1.9519273695	-0.6471875144	 0.112832
H	-0.6163509188	 1.7418112573	 1.1081631628	 0.114168
H	 0.5937712962	-0.4573371887	 0.8634433837	 0.109566
H	-0.9630291426	-0.4604706675	 0.055655678	 0.092248
H	 0.1538386329	-0.0472022222	-2.1327069428	 0.075129
H	 2.1916423327	 1.1105573155	-1.5459236731	 0.104692
H	 2.6851996529	-0.1522497248	-0.4360049044	 0.126514
H	 3.7822496247	-0.0808100558	-2.9445972863	 0.093997
H	 3.3179218803	-2.3710284827	-3.6585444908	 0.088793
H	 1.3660271313	-3.622484963	-2.7323672658	 0.089159
H	-0.372903691	-2.3940664849	-1.3917205606	 0.083336
