16
gdb 84326	2.60353	1.54395	1.11333	3.6388	73.79	-0.2761	-0.0621	0.2141	1088.1427	0.124843	-437.943889	-437.935862	-437.934918	-437.977065	29.734	
C	-0.0154836812	 1.5345744545	 0.0453686936	-0.396018
C	 0.0208990321	-0.0140067496	-0.0020272071	-0.128721
C	 0.7205471153	-0.492662395	-1.2364892549	-0.060012
C	 1.9437342395	-1.0213000436	-1.2015096865	-0.201113
C	 2.6889643276	-1.1643061004	 0.0578775818	 0.419688
O	 3.834013837	-1.5060002665	 0.1460252044	-0.31398
O	 2.0016578986	-0.8718820351	 1.2245938234	-0.247606
C	 0.6524229519	-0.5664999181	 1.2559866323	 0.383013
N	-0.0077845169	-0.6882820458	 2.3222209046	-0.490491
H	 0.9964963248	 1.9455382057	 0.1019417694	 0.135292
H	-0.4964232308	 1.9319997076	-0.8532783169	 0.1252
H	-0.5793972687	 1.8598447774	 0.9221477574	 0.151354
H	-1.0150747847	-0.3673992446	-0.0047510471	 0.130503
H	 0.2055128789	-0.3529828562	-2.1833162875	 0.125796
H	 2.4808490501	-1.3381349577	-2.0868037655	 0.132289
H	 0.5851865767	-1.0411907825	 3.0758203388	 0.234807
