17
gdb 76077	2.30472	1.38595	1.16816	4.8174	75.31	-0.2486	-0.0459	0.2028	1143.5099	0.13347	-418.002923	-417.993385	-417.992441	-418.03771	33.538	
C	-0.420116304	 1.2963470314	 0.0998907445	-0.336295
N	 0.182307438	-0.0393340511	 0.0603764316	-0.099705
C	 1.4831996176	-0.2374801323	-0.5473282272	-0.171495
C	 2.2636202482	 0.8579727514	-1.0753251248	 0.32129
N	 2.8800643586	 1.6912484282	-1.5874763832	-0.336542
C	 1.2843120647	-0.4137848806	 0.9473701235	-0.118863
C	 1.9375310966	 0.5356568231	 1.9209078815	 0.394445
C	 2.4339046595	-0.1033527141	 3.2019695919	-0.487961
O	 2.0473229437	 1.7208751284	 1.6993690242	-0.303792
H	 0.2890537617	 2.1097895128	 0.2687322239	 0.171281
H	-0.9363875944	 1.4475230342	-0.8518807452	 0.137351
H	-1.1669866447	 1.3009727998	 0.8982512163	 0.131201
H	 1.5765783614	-1.1439700739	-1.142138874	 0.143735
H	 1.2191754369	-1.442560439	 1.2962704185	 0.107938
H	 1.5960242213	-0.5437111087	 3.7552244076	 0.148246
H	 3.1298216179	-0.9199289333	 2.9771100688	 0.14705
H	 2.9290945369	 0.6464162135	 3.8189655318	 0.152117
