16
gdb 112472	3.80341	1.07871	0.87441	1.343	66.86	-0.2697	-0.0372	0.2325	1252.9548	0.125061	-475.064435	-475.056474	-475.05553	-475.097437	29.405	
O	 0.0984177752	 1.4068921165	 0.0824236337	-0.419636
C	 0.0640166143	 0.015031696	-0.1110538002	-0.058995
C	-1.366078886	-0.5249880408	 0.0252326789	 0.003756
C	-1.4468966255	-2.0472287083	-0.138893852	-0.370644
C	-2.8118723439	-2.5646996549	 0.2445737705	 0.430855
O	-3.4189433142	-3.4480684168	-0.2764380057	-0.290952
O	-3.3659880354	-1.9394647689	 1.3545152181	-0.214701
C	-2.7656784846	-0.8133608085	 1.8665728395	 0.13602
N	-1.876046651	-0.1033889145	 1.3302298339	-0.264842
H	-0.3936757365	 1.5687917246	 0.8984833599	 0.294433
H	 0.4458449747	-0.1858068513	-1.1175950246	 0.111814
H	 0.7108847935	-0.5171414104	 0.6075257669	 0.086801
H	-1.9790267667	-0.0281946425	-0.7401606366	 0.113894
H	-1.2286298127	-2.3779887125	-1.1555634375	 0.147903
H	-0.7174790545	-2.5217792785	 0.5323849534	 0.144722
H	-3.1972902467	-0.5727232992	 2.8341869218	 0.149572
