23
gdb 100111	3.54942	0.84686	0.83841	2.5765	81.53	-0.2562	0.0669	0.3231	1514.4449	0.203871	-425.414254	-425.403799	-425.402854	-425.449532	39.605	
C	-0.0290840896	 1.5436081175	 0.2415887193	-0.426428
C	-0.0515248188	 0.0475682393	-0.0958060971	 0.316335
O	 0.5456158591	-0.7060412301	 0.9732648136	-0.480875
C	-1.4987728584	-0.4746363971	-0.1226388593	-0.054079
O	-2.1320312798	-0.3336357879	 1.1318902569	-0.430179
C	 0.6466556502	-0.2735463213	-1.4322721195	-0.235134
C	 2.1135451015	 0.1050620542	-1.4931240389	 0.003199
C	 3.1687054772	-0.8058593475	-0.8987294894	-0.269665
C	 3.0529784621	-0.65347416	-2.3943390793	-0.280362
H	 0.989867834	 1.8930235764	 0.4386273005	 0.103638
H	-0.4328145424	 2.1391063207	-0.5840916877	 0.113265
H	-0.6383098266	 1.7264920875	 1.129102919	 0.133856
H	 1.4439335786	-0.384248379	 1.096772532	 0.287569
H	-2.0896348673	 0.092440539	-0.8492118234	 0.102044
H	-1.4831088752	-1.5283012968	-0.4440146064	 0.084934
H	-1.5067182269	-0.6958274374	 1.7723576512	 0.289425
H	 0.5512149904	-1.3516474995	-1.6115606007	 0.096289
H	 0.1053156904	 0.231789488	-2.2433861981	 0.09714
H	 2.3147769649	 1.169688206	-1.4124706813	 0.087782
H	 4.0243837421	-0.3598437804	-0.4028790757	 0.110868
H	 2.8360428457	-1.7411972858	-0.4617109895	 0.123368
H	 2.6489562167	-1.4885086684	-2.9573573055	 0.114156
H	 3.825838182	-0.0998781576	-2.915651371	 0.112855
