14
gdb 2454	5.54162	2.48999	2.02966	3.9632	56.71	-0.2395	-0.0132	0.2263	644.1789	0.114987	-324.58309	-324.577341	-324.576397	-324.612718	22.202	
O	 0.0096747397	 0.4190852602	 0.9634953721	-0.30284
C	-0.0136224013	 1.3679313572	 0.2270533574	 0.392971
C	-1.287760147	 2.0466814607	-0.3122861586	-0.312634
C	-0.8032557625	 3.3360750159	-0.9328317426	-0.039208
N	-0.0558281055	 4.1729910412	 0.0277910717	-0.333974
C	 0.6887167819	 3.3570946105	-0.9529485292	-0.039208
C	 1.2258887657	 2.082080811	-0.3461984419	-0.312635
H	-1.7461922708	 1.3848409114	-1.0580101925	 0.125893
H	-2.0082880664	 2.1850660017	 0.4979616723	 0.138847
H	-1.3826613247	 3.8185470201	-1.7125922	 0.091753
H	-0.0736207577	 5.1429808142	-0.2766889867	 0.234538
H	 1.2330704467	 3.8554000117	-1.7478619536	 0.091753
H	 1.9638284559	 2.2409988361	 0.444371422	 0.138847
H	 1.6824893261	 1.4331261981	-1.1042705503	 0.125895
