23
gdb 96335	2.15971	1.4625	0.95421	0.9815	82.46	-0.2446	0.0874	0.332	1314.9989	0.206262	-425.439898	-425.430562	-425.429618	-425.473492	35.99	
C	 0.388381639	 1.6626814529	-0.0869031143	-0.405511
C	-0.0286157886	 0.1936516557	 0.0572914842	 0.012839
C	 0.2426655408	-0.5760596415	-1.2443636415	-0.078475
O	-0.390443198	-1.8514342134	-1.2201418138	-0.242857
C	 0.4164105151	-2.9080040297	-0.7764783057	-0.007029
O	 1.1743633891	-2.6095823147	 0.3607682604	-0.252831
C	 0.4621248061	-1.9648410609	 1.4270304669	 0.107626
C	 1.0383041992	-2.4965387258	 2.7347923886	-0.394115
C	 0.6382409533	-0.4457192545	 1.288000263	-0.170162
H	 1.4651624235	 1.7511438831	-0.2742037356	 0.115747
H	-0.1356177184	 2.1473673218	-0.9174608906	 0.112726
H	 0.1659556806	 2.2277289656	 0.8237411505	 0.115082
H	-1.1173885227	 0.1537984858	 0.2003607793	 0.079614
H	-0.1952340668	-0.0329499083	-2.0894536627	 0.099997
H	 1.3218110451	-0.6742861802	-1.4288517221	 0.099087
H	-0.2850141134	-3.7375710397	-0.5988356051	 0.094006
H	 1.1565049569	-3.2034662519	-1.5357312131	 0.094378
H	-0.603983546	-2.2256984413	 1.3637161433	 0.080102
H	 2.1058390793	-2.2641110509	 2.8040820344	 0.122679
H	 0.5306288551	-2.0491225348	 3.5947616742	 0.111731
H	 0.9229885157	-3.5824431708	 2.7890506086	 0.118112
H	 1.7191956662	-0.2507447388	 1.2605173982	 0.097273
H	 0.2546500589	 0.0441919623	 2.191952063	 0.089978
