23
gdb 36863	4.22053	0.85011	0.75528	0.1777	92.88	-0.2237	0.0341	0.2578	1590.234	0.207241	-351.162473	-351.153448	-351.152504	-351.19719	34.282	
C	 0.0232272207	 1.3986936436	-0.4019395427	-0.337461
C	-0.0163067372	-0.0757425531	-0.0277304646	 0.041698
C	-0.3718237636	-0.5111872478	 1.3725441612	-0.249188
C	-1.3362333944	-0.7531253854	 0.2372288885	-0.2809
C	 1.365905317	 2.0430624297	-0.2024252269	 0.358781
C	 2.1165503783	 2.620236394	-1.1437374908	-0.17724
C	 3.3831496538	 3.2299386157	-0.5953826086	-0.24209
C	 3.4575311718	 2.6427336433	 0.8379654496	-0.203332
C	 2.0190446156	 2.1679311212	 1.1625325034	-0.296564
H	-0.2804807873	 1.5172754127	-1.449524382	 0.098802
H	-0.7324324254	 1.9254818123	 0.2006900586	 0.093488
H	 0.7324832142	-0.6781149374	-0.5356868865	 0.083403
H	 0.1457333221	-1.3626878873	 1.8007133629	 0.108927
H	-0.6245808002	 0.2604075308	 2.0927086713	 0.109604
H	-2.2337213015	-0.1438674683	 0.1969688943	 0.108728
H	-1.4760264963	-1.769722482	-0.1133714688	 0.109345
H	 1.8376690884	 2.6944567076	-2.1903921925	 0.078136
H	 4.2709246575	 2.9892842507	-1.1919235188	 0.097446
H	 3.3129512096	 4.3276637383	-0.5854478694	 0.100361
H	 4.1321653475	 1.7805835768	 0.8408318833	 0.102053
H	 3.8454117605	 3.3555170308	 1.5702498387	 0.092967
H	 1.4723086473	 2.9002936472	 1.7756514288	 0.095869
H	 2.0052371815	 1.2301441265	 1.7274880909	 0.107168
