20
gdb 116538	4.17194	0.7719	0.69957	0.9897	82.47	-0.2192	-0.0015	0.2177	1678.0097	0.169748	-436.523699	-436.513074	-436.512129	-436.560606	37.519	
C	-0.3547796335	 1.2827010668	 0.249728908	-0.36508
C	 0.1259522738	-0.1629275886	 0.4442913296	-0.147804
N	 0.3600100381	-0.841724284	-0.8175781333	-0.333888
C	 1.5202580985	-0.7716996083	-1.3476569608	 0.45512
N	 2.6557306296	-0.1590002542	-0.8948077906	-0.56815
N	 1.6711577959	-1.4845749077	-2.5604923215	-0.373716
C	 2.7164383922	-1.4874250116	-3.4462824841	 0.42996
C	 2.465044035	-2.3133605629	-4.6954062328	-0.492053
O	 3.760679777	-0.8760619937	-3.2717900449	-0.377002
H	 0.406347789	 1.8962210423	-0.2450669482	 0.10571
H	-1.2508677299	 1.3011910665	-0.3772003532	 0.126563
H	-0.5939496773	 1.7484288061	 1.2115517741	 0.109042
H	 1.0119990286	-0.1748152473	 1.1019220082	 0.081426
H	-0.651423614	-0.7201970414	 0.9797535228	 0.101008
H	 2.5442413414	 0.5731852185	-0.2161672015	 0.258628
H	 3.4193399009	-0.09016458	-1.5583529688	 0.281955
H	 0.8277134073	-1.9866934928	-2.7948908931	 0.260718
H	 2.017161391	-3.2826191107	-4.4577579008	 0.139079
H	 1.7796486492	-1.7803314403	-5.3632890202	 0.152421
H	 3.4127768173	-2.4619857465	-5.2117268588	 0.156061
