17
gdb 80131	2.54597	1.78014	1.27437	2.0088	72.8	-0.2392	-0.0357	0.2035	1004.9718	0.137097	-418.013695	-418.005971	-418.005027	-418.046257	28.913	
C	-0.8209827695	 1.2626529609	 0.1758100192	-0.417923
C	-0.0952651336	-0.0645204248	 0.0260969996	-0.084785
N	 0.6492502302	-0.3583450996	-1.259739968	-0.125169
C	 1.03110907	 0.7384078191	-2.0569261365	 0.037724
N	 2.2635939648	 1.0524293069	-2.1275131208	-0.222923
C	 3.0058848279	 0.1556134329	-1.2259843457	-0.191473
C	 1.9200620402	-0.7112886769	-0.5394551883	-0.126972
C	 1.2532826299	-0.2444768814	 0.7669170953	 0.372405
O	 1.6266882746	-0.0269926618	 1.8795793468	-0.283927
H	-0.1622834312	 2.1100435738	-0.0348968149	 0.140544
H	-1.6879081872	 1.3190544569	-0.4891741732	 0.133572
H	-1.1759516483	 1.3571775925	 1.2059948835	 0.145738
H	-0.7733713734	-0.895954225	 0.2524142186	 0.119312
H	 0.2621172947	 1.2644536009	-2.6150916078	 0.129747
H	 3.6960985031	-0.4647604422	-1.806521198	 0.125678
H	 3.6061635199	 0.7391616071	-0.5202321327	 0.132202
H	 2.144242618	-1.7813615292	-0.5457164773	 0.11625
