17
gdb 39930	3.32303	1.52928	1.227	0.8981	73.25	-0.2482	-0.008	0.2402	1012.99	0.13709	-421.790555	-421.783513	-421.782569	-421.822138	27.719	
C	-0.1255224426	 1.4924851002	 0.0659625844	-0.250679
O	 1.138557703	 0.8339817683	-0.0037090724	-0.285464
C	-0.0512473681	 0.0240896127	 0.0291977487	 0.420246
C	-0.2573348603	-0.8581903149	 1.21087636	-0.137218
C	-0.586663758	-2.101442835	 0.8522049214	-0.094906
C	-0.6733788931	-2.2467387099	-0.6445978977	 0.074453
O	-2.0345352079	-2.2236949935	-1.1569302341	-0.292711
C	-1.8719109249	-0.8727020892	-1.6354135658	-0.08183
C	-0.3921887781	-0.821919513	-1.1875585385	-0.190819
H	-0.3400521048	 2.0030218916	 1.004692783	 0.114257
H	-0.4233550061	 2.0358481549	-0.8308857424	 0.114318
H	-0.1316344247	-0.4947659183	 2.2244239992	 0.110015
H	-0.796154275	-2.9193946366	 1.5316367099	 0.110773
H	-0.1222500732	-3.1038518784	-1.0456834356	 0.084235
H	-2.0368690896	-0.8071369199	-2.7169565796	 0.105667
H	-2.5405786309	-0.1662033312	-1.1269887704	 0.100521
H	 0.3413708944	-0.7078750577	-1.9845299199	 0.09914
