16
gdb 39565	2.83509	2.23191	1.73439	1.8872	70.96	-0.2305	0.0026	0.2331	819.4997	0.128202	-400.744805	-400.738852	-400.737908	-400.774843	25.045	
O	 0.0112284971	 1.4059426612	-0.1028940075	-0.225659
C	 1.2053801741	 2.0460398125	 0.0537843575	 0.128772
N	 2.2027139009	 1.684836297	 0.7394894528	-0.26128
C	 2.0158474996	 0.4351139821	 1.511610738	-0.054773
C	 1.1471189114	 0.7381092255	 2.7270814535	-0.076339
C	-0.0478903877	 0.1562981497	 2.6387381969	-0.069914
C	-0.1663401336	-0.6772978799	 1.4076389505	-0.13042
C	 0.0303022417	 0.002998518	 0.0618908621	 0.099797
C	 1.2021069378	-0.6182986651	 0.7405807493	-0.13507
H	 1.2084583424	 2.9802375644	-0.5033965388	 0.126344
H	 3.0101649145	 0.0690802939	 1.7789000494	 0.087483
H	 1.462542642	 1.4470978687	 3.4824382407	 0.107127
H	-0.8655462163	 0.2802773768	 3.3388270681	 0.104063
H	-0.768700814	-1.5787045976	 1.405227765	 0.092356
H	-0.4056043766	-0.4825667146	-0.805315028	 0.109794
H	 1.7035849567	-1.4762416027	 0.3118845005	 0.097718
