20
gdb 59695	2.18925	1.45431	1.01642	2.2011	81.67	-0.2203	0.0215	0.2418	1235.5853	0.168697	-403.068362	-403.05871	-403.057766	-403.102788	35.56	
C	-0.0322393937	 1.4460323589	-0.106385163	-0.321195
N	 0.0407252546	 0.0031312389	 0.0771657149	-0.056171
C	 0.8026653921	-0.3400897656	 1.2706995086	-0.326951
C	-1.2706579396	-0.5948940062	 0.0910241765	 0.018951
C	-2.114480441	-0.4993180953	-1.1929609184	-0.107374
O	-2.3921606204	-1.9152329938	-1.1633041584	-0.273149
C	-1.4006963046	-2.1397729603	-0.1284580745	-0.110425
C	-0.2307365055	-2.8573801429	-0.6121065463	 0.376816
C	 0.713852045	-3.4871041115	-1.007653319	-0.467892
H	 0.9800570125	 1.8544338448	-0.1812477777	 0.123118
H	-0.5602993011	 1.6850174425	-1.0342156153	 0.123524
H	-0.547730746	 1.9648537803	 0.7249157857	 0.092718
H	 0.3404158391	 0.045958149	 2.1998885361	 0.089481
H	 0.8963992203	-1.4254633434	 1.3532644087	 0.131012
H	 1.8097306215	 0.0806100252	 1.1941242214	 0.119921
H	-1.8596573234	-0.3009089386	 0.9799438229	 0.062822
H	-3.0306014649	 0.0979896666	-1.1504168773	 0.107849
H	-1.5266527468	-0.2209420014	-2.0767728647	 0.110393
H	-1.844083824	-2.6817177133	 0.7152896549	 0.106002
H	 1.5522399859	-4.033347134	-1.3636492253	 0.200553
