25
gdb 120622	3.06881	0.73107	0.66129	1.258	90.22	-0.2571	0.0815	0.3387	1831.7275	0.226926	-389.48282	-389.471527	-389.470582	-389.519703	41.187	
C	-0.4549395801	 1.4786024262	 0.1938098727	-0.381994
C	 0.2148256746	 0.1241405191	-0.0763180601	-0.24343
C	 0.8761228349	-0.4957345064	 1.1487147626	 0.350589
C	 2.0308499851	 0.3097653145	 1.7209862062	-0.458976
C	 0.0056877434	-1.2493705589	 2.132055338	-0.329005
C	 0.9949881493	-2.0034694942	 1.2675095602	-0.048265
C	 0.5356745494	-2.9892839491	 0.2135914994	-0.208704
C	 0.3376843292	-4.3883052295	 0.7891263291	-0.066744
O	-0.0929233936	-5.2371830583	-0.2650798444	-0.423161
H	 0.2693472826	 2.2406432571	 0.4973898754	 0.116439
H	-0.9610562805	 1.8470002675	-0.7040308871	 0.109551
H	-1.2021765604	 1.3942684656	 0.9902096444	 0.115941
H	-0.5386961966	-0.5612895552	-0.476468872	 0.096199
H	 0.9669479603	 0.2430245123	-0.8686049075	 0.092318
H	 1.706802964	 1.2970102753	 2.0675183532	 0.116224
H	 2.4843009497	-0.2031382994	 2.5749662376	 0.10948
H	 2.8154361537	 0.4626478842	 0.9696758303	 0.111501
H	 0.2024871048	-1.1476453805	 3.194631976	 0.101959
H	-1.0473991353	-1.3587415486	 1.8877734656	 0.103759
H	 1.8967924624	-2.3287240739	 1.784553854	 0.073414
H	-0.4107968057	-2.6770808504	-0.2383608623	 0.106134
H	 1.2669309256	-3.0527924056	-0.6021841091	 0.103711
H	 1.2835513966	-4.7467814661	 1.2279642728	 0.081138
H	-0.4041629295	-4.3503573152	 1.6027819819	 0.087897
H	-0.2274178837	-6.1185189607	 0.0948193432	 0.284026
