17
gdb 91888	2.47063	1.75254	1.12104	3.577	68.82	-0.2636	0.	0.2636	1072.6166	0.136046	-458.991106	-458.983298	-458.982354	-459.023552	29.804	
C	-0.0005564361	 1.4962515419	 0.011885928	-0.405363
C	 0.0182252707	-0.0121411498	-0.0566847077	 0.206362
O	 0.8739882013	-0.412645619	-1.0881454681	-0.244263
C	 0.9274949694	-1.808063222	-1.2251332422	 0.086698
C	 2.1707262098	-2.4598205749	-0.7183605921	-0.300051
C	 0.8635654127	-2.5884606028	 0.0627775618	-0.210659
C	 0.7073022415	-1.8333900027	 1.3454071468	 0.426244
O	 0.7884671395	-2.3314680573	 2.4333428434	-0.332688
O	 0.4817077897	-0.4959143653	 1.2198978464	-0.238193
H	 1.0144182197	 1.867219819	 0.1724368416	 0.142622
H	-0.3863136549	 1.9033576963	-0.9254512274	 0.132357
H	-0.6356107789	 1.8233086838	 0.8374817548	 0.139182
H	-0.9880198873	-0.4278875042	-0.2176870063	 0.085419
H	 0.4293704809	-2.1875438418	-2.1134768829	 0.108064
H	 2.533762901	-3.3556407642	-1.2080272369	 0.130184
H	 2.9345809404	-1.8015875954	-0.321790891	 0.145599
H	 0.4008582806	-3.5672870318	 0.0773984418	 0.128487
