18
gdb 57069	2.52139	1.27208	0.95905	4.0555	72.54	-0.2467	0.0261	0.2727	1234.0365	0.148564	-435.23663	-435.227429	-435.226484	-435.270962	33.688	
N	-0.080339195	 1.4600909971	 0.1167791675	-0.50426
C	 0.0830179473	 0.0137006194	-0.0523850783	-0.130264
C	 0.8842836237	-0.3503079289	-1.2410962056	 0.264885
N	 1.5360788286	-0.5754961894	-2.1692755378	-0.327842
C	 0.7138668659	-0.5801793536	 1.2095246187	 0.019336
N	-0.1266513166	-0.500074249	 2.4177386498	-0.320855
C	 0.3902796071	-1.8101858813	 2.8814835589	-0.212023
C	 0.7466736073	-2.1281042388	 1.4056984286	 0.132885
O	-0.2440849861	-2.8372123102	 0.7007795623	-0.428466
H	 0.8286608577	 1.9143124125	 0.0832561902	 0.239372
H	-0.6182597544	 1.8432674101	-0.6548432052	 0.245569
H	-0.9112076831	-0.4271807964	-0.1684464972	 0.12117
H	 1.7247818711	-0.1588803904	 1.3359048326	 0.070926
H	 0.017838515	 0.3017291972	 3.0198662501	 0.22805
H	 1.2827390643	-1.7555878357	 3.5209982344	 0.099367
H	-0.352080259	-2.4605136969	 3.3569636984	 0.105844
H	 1.6932061211	-2.6285101481	 1.203367135	 0.103989
H	-1.102854315	-2.5216673675	 1.0054245375	 0.292316
