23
gdb 87561	2.35991	1.44638	1.22195	0.2047	89.65	-0.2362	0.0895	0.3257	1190.13	0.205397	-351.119149	-351.11002	-351.109076	-351.152458	35.961	
C	 0.0196882618	 1.6009486221	 0.024113717	-0.402733
C	 0.0034888908	 0.0889663899	 0.0687652929	-0.055258
C	 1.2687536618	-0.7037560055	-0.1911091719	-0.377338
C	 0.6727449752	-0.6672875853	 1.1846354411	 0.373591
C	 1.3273318511	-0.1002770205	 2.4303226809	-0.136205
C	 0.2845653156	 0.1257399986	 3.4918403589	-0.285494
C	 0.7764156646	-1.2744887487	 3.245550297	-0.055915
C	 0.1492424202	-1.8933279575	 1.980948656	-0.065881
C	-1.3379111983	-2.225711196	 1.9787794305	-0.408623
H	 0.9453593935	 1.9975915223	 0.4534999574	 0.114642
H	-0.0541036569	 1.9698569002	-1.0051706999	 0.113361
H	-0.8145496607	 2.0281361763	 0.5918057023	 0.114424
H	-0.9087507958	-0.3633299429	-0.3152212971	 0.077076
H	 1.199609841	-1.62522391	-0.7621131048	 0.103499
H	 2.1862864898	-0.1462448664	-0.360006604	 0.104248
H	 2.3116248933	 0.3506065768	 2.4770955041	 0.082251
H	 0.643200385	 0.5801045726	 4.4103905045	 0.106691
H	-0.722311602	 0.4261094293	 3.2139222826	 0.106456
H	 1.2733045261	-1.8399444416	 4.0248020126	 0.080907
H	 0.7215222576	-2.7808628211	 1.6873396928	 0.072815
H	-1.9450512012	-1.369356977	 2.2881757958	 0.11437
H	-1.675420066	-2.528794978	 0.9810246526	 0.111002
H	-1.5521450163	-3.0533092877	 2.664063869	 0.112114
