21
gdb 75471	2.61778	1.35694	0.95164	1.6067	85.64	-0.2249	0.0248	0.2497	1279.8522	0.182388	-387.086992	-387.078025	-387.077081	-387.121046	33.645	
C	-0.2269491116	 1.4742879646	 0.1437444676	-0.493387
C	-0.0346402303	-0.003311298	 0.0298703075	 0.3179
C	 0.1105913819	-0.7428645205	-1.0660764201	-0.218073
C	 0.2424027222	-2.1930037403	-0.7051850511	-0.116915
O	 0.2142075705	-2.2246682449	 0.7182229351	-0.279544
C	 0.003981459	-0.9102267949	 1.244402346	 0.027065
C	 1.0844498266	-0.5724867886	 2.2489075203	 0.023432
C	 0.7741334365	 0.3366998229	 3.4151190269	-0.270776
C	 1.0036866767	-1.1344946675	 3.6434804456	-0.269545
H	 0.567478653	 1.9339075098	 0.7427228003	 0.13587
H	-0.2372912331	 1.952596739	-0.8390447839	 0.123749
H	-1.1726778663	 1.7114829198	 0.6475964052	 0.126371
H	 0.1204029631	-0.3820354181	-2.087699563	 0.095984
H	-0.5823168469	-2.8005685671	-1.1136896124	 0.099397
H	 1.1801724828	-2.6429824711	-1.0673906115	 0.102184
H	-0.9677955707	-0.886984331	 1.7729439444	 0.065983
H	 2.0767040037	-0.490756623	 1.8135045932	 0.081152
H	 1.5363073518	 1.0379931737	 3.7356366875	 0.110492
H	-0.2398173415	 0.7118396762	 3.5122827381	 0.10975
H	 0.1453573326	-1.7521860644	 3.8860342466	 0.117323
H	 1.9247135201	-1.4455929468	 4.1229571776	 0.111589
