19
gdb 72302	2.26615	1.9616	1.53271	1.5372	82.57	-0.2094	-0.0274	0.182	972.1959	0.158365	-385.792107	-385.784074	-385.783129	-385.823875	32.404	
C	-0.1239739527	 1.6402059106	-0.2833720583	-0.519992
C	-0.109500883	 0.1690226009	-0.0055772503	 0.269631
C	 0.461301716	-0.9993282918	-0.7789513682	-0.173825
C	 1.5365895634	-1.2895304901	 0.3255286161	-0.274359
C	 0.4815906485	-0.5944707721	 1.19755302	 0.009004
C	-0.4357873607	-1.3806498472	 1.798497694	-0.110572
C	-1.6857489053	-1.4476178535	 0.9354736436	-0.326663
C	-1.0916207409	-0.8741173704	-0.3695049712	 0.349316
O	-1.9340853967	-0.6188918687	-1.4471259579	-0.478131
H	 0.8857918916	 2.0645751463	-0.2648907483	 0.117697
H	-0.5586344867	 1.830304016	-1.269277822	 0.133667
H	-0.724201931	 2.1784482683	 0.4588472395	 0.12291
H	 0.6649092527	-1.0054262922	-1.8481217661	 0.087156
H	 1.7881890413	-2.3217321003	 0.5866485141	 0.09724
H	 2.4493610405	-0.7240233211	 0.1022447086	 0.103969
H	-0.1484147732	-2.2349997113	 2.4057637896	 0.093351
H	-2.0126444217	-2.4938001228	 0.8678884959	 0.100011
H	-2.5644410384	-0.8562707525	 1.2291321894	 0.113335
H	-2.1689609836	-1.458900478	-1.8559678286	 0.286255
