21
gdb 61507	2.18204	0.92521	0.8533	1.9193	79.7	-0.2525	-0.0283	0.2242	1508.0435	0.178125	-424.25418	-424.243188	-424.242244	-424.29257	37.757	
C	 0.9447856809	-0.5081509549	 1.2009564074	-0.417144
C	 0.0767204626	 0.0541583388	 0.0658281385	-0.070103
C	 0.6441264133	-0.3419598291	-1.3172761867	-0.198961
C	-0.0302107112	 0.3490637904	-2.510732586	-0.092758
C	 0.3206192609	 1.842080129	-2.6520389193	-0.409366
C	 0.2759005183	-0.3645278233	-3.8157613855	 0.15489
O	 0.9048153341	-1.385927979	-3.9230478546	-0.246758
C	-1.3374686564	-0.4802173439	 0.1759431996	 0.169411
O	-2.3412051194	 0.1753442386	 0.055796094	-0.255685
H	 0.9867599756	-1.6025442902	 1.160613715	 0.12635
H	 1.9696449962	-0.1342231505	 1.1204817822	 0.127184
H	 0.5565378906	-0.2212889945	 2.1831165126	 0.126316
H	 0.0154252559	 1.1443591663	 0.146490357	 0.095202
H	 1.7176306004	-0.1183979734	-1.330495765	 0.108028
H	 0.5699937572	-1.4279467202	-1.4481124017	 0.120811
H	-1.1253287521	 0.285302257	-2.4048061918	 0.120312
H	 1.4038080944	 1.9849343647	-2.7305960363	 0.126793
H	-0.1424879182	 2.2728960588	-3.5458110397	 0.124688
H	-0.0376267857	 2.4120313444	-1.7916096786	 0.138098
H	-0.1444327178	 0.1434737662	-4.715271444	 0.078576
H	-1.3915466396	-1.5818130752	 0.3541731428	 0.074115
