17
gdb 47198	2.65904	1.77644	1.18092	2.9685	76.87	-0.2369	0.0004	0.2373	1032.5197	0.138088	-417.998389	-417.990768	-417.989823	-418.030895	29.26	
N	-0.1524977014	 1.2601164077	 0.3384567161	-0.547172
C	-0.0487078725	 0.0547075625	-0.044457335	 0.350942
O	 1.120505924	-0.4382308373	-0.5181284134	-0.263501
C	 1.2870206558	-1.8150078125	-0.8885877478	-0.125641
C	 0.0189787782	-2.520805141	-1.2517432176	-0.124282
C	-1.1600687972	-2.0624728453	-0.8466206784	-0.096143
C	-1.2502364997	-0.8423902787	-0.0211482341	 0.198001
C	-2.0563093371	-0.8315962779	 1.2519705269	-0.254702
N	-2.5628297672	-0.176171481	 0.0544444056	-0.350458
H	 0.7414171793	 1.7450322502	 0.2644361483	 0.223853
H	 1.9847274949	-1.8016804603	-1.7329432086	 0.131475
H	 1.7983333586	-2.329422835	-0.0607176488	 0.126396
H	 0.1146624626	-3.4276659688	-1.8400331935	 0.107287
H	-2.0948980111	-2.5544984438	-1.0932692357	 0.11394
H	-2.5795912921	-1.7372549186	 1.5478370681	 0.119048
H	-1.6693261455	-0.218436724	 2.0603706934	 0.135542
H	-2.3738735197	 0.8243597139	 0.1275218046	 0.255413
