17
gdb 52334	3.85379	0.94821	0.83118	4.5052	65.58	-0.2696	0.0124	0.2819	1349.5275	0.135803	-496.11179	-496.103239	-496.102294	-496.14649	29.586	
O	 0.5173278409	 0.25691123	 0.67080398	-0.275451
C	 0.6117711699	 1.4454185535	 0.7076902632	 0.184931
O	 0.6487061394	 2.2026796106	-0.4116433671	-0.180976
C	 0.864568956	 3.6024740368	-0.2531404329	-0.104013
C	 2.3506249051	 3.9379670231	-0.3403839528	 0.104386
C	 2.6389951134	 5.4302175863	-0.075624119	-0.138239
O	 2.9383324022	 5.4555146023	 1.3124740542	-0.230259
C	 3.6399864173	 4.2618197831	 1.5364782344	 0.021135
O	 3.0407905734	 3.2699346583	 0.7181339164	-0.268681
H	 0.6573874264	 2.0472052041	 1.6332208507	 0.08181
H	 0.3126386373	 4.0914418191	-1.0612493013	 0.12447
H	 0.4672980865	 3.9521979676	 0.7083167923	 0.122487
H	 2.7494032458	 3.5991950566	-1.3029313044	 0.103182
H	 3.4935523826	 5.7788052153	-0.6729292434	 0.10946
H	 1.785240622	 6.0876390004	-0.25657224	 0.124798
H	 4.7051236225	 4.3709014356	 1.2663363796	 0.094199
H	 3.5431795992	 3.9822220673	 2.5893263601	 0.12676
