18
gdb 15163	7.95087	0.67791	0.65162	1.4309	77.68	-0.2406	0.0342	0.2749	1714.3492	0.152329	-347.751345	-347.742038	-347.741094	-347.788621	32.075	
O	-0.0521464221	 1.415956142	 0.1513106369	-0.409473
C	-0.0530095193	-0.00791185	 0.1711045657	-0.214032
C	-1.4136540925	-0.5011812505	 0.0017027203	 0.102173
C	-2.5325138882	-0.9233755021	-0.1350385065	 0.069519
C	-3.883049819	-1.4537042745	-0.3056362088	-0.37596
C	-3.9508915573	-2.9679338979	-0.1616674698	 0.045379
C	-4.0884718432	-3.5931077625	 1.2001532912	-0.246728
C	-5.2480345524	-3.6242379926	 0.2325586926	-0.278311
H	 0.8600073926	 1.7019506709	 0.2651658385	 0.287777
H	 0.582103991	-0.4153270498	-0.6328578425	 0.112573
H	 0.3548351644	-0.3908938236	 1.1211574652	 0.113089
H	-4.5535906097	-0.992797449	 0.4321222664	 0.123913
H	-4.270381928	-1.1599921739	-1.2906382625	 0.128819
H	-3.3337749397	-3.504162281	-0.8764658569	 0.091597
H	-3.5582535054	-4.5171884916	 1.4012530553	 0.11182
H	-4.1600178038	-2.9287874304	 2.0552116954	 0.114724
H	-6.0989174156	-2.9832220486	 0.4407266904	 0.110877
H	-5.5103294917	-4.5684979648	-0.231557351	 0.112245
