17
gdb 51956	5.53941	0.69581	0.68199	3.2274	71.94	-0.2628	-0.0343	0.2285	1646.9774	0.133441	-458.990441	-458.981134	-458.98019	-459.02729	31.842	
O	-0.3505809757	 0.4943768352	 0.5294142346	-0.227477
C	 0.0917628041	 1.4546313541	-0.0406796394	 0.144588
C	 1.5553943126	 1.603525287	-0.4162047139	-0.17579
O	 1.6908513073	 2.5631482519	-1.4651053019	-0.254591
C	 2.3428885067	 3.7197410073	-1.1637513522	 0.467404
O	 2.8067823821	 3.9656684958	-0.077025127	-0.371203
C	 2.398288953	 4.6103918052	-2.3443985244	-0.136146
C	 2.3436210988	 6.108063216	-2.0842976777	-0.250538
C	 3.6341566026	 5.4844959264	-2.4925689248	-0.249855
H	-0.5400078987	 2.3248501574	-0.3291654266	 0.091446
H	 2.1205003539	 1.9338700749	 0.4626799102	 0.172749
H	 1.9506886343	 0.6457906766	-0.7641602645	 0.145901
H	 1.929368622	 4.225725496	-3.2403094864	 0.108331
H	 1.7976092956	 6.7072927156	-2.8033272966	 0.124902
H	 2.2360425894	 6.4069198847	-1.0484441634	 0.142428
H	 4.3958965943	 5.3628836456	-1.7317987301	 0.142849
H	 4.0000663478	 5.6429060705	-3.5001298657	 0.125002
