21
gdb 78539	2.3073	1.56844	1.22782	1.9039	83.27	-0.2172	0.0688	0.286	1155.088	0.179829	-387.023979	-387.014629	-387.013684	-387.05739	35.963	
C	-0.0802298714	 1.6313021077	-0.0740329159	-0.433949
C	 0.1436785965	 0.131860215	 0.0345843926	-0.042359
C	 1.3875620979	-0.6994946422	-0.2099774439	-0.214088
C	 2.691153956	-0.2008265431	 0.4924680647	 0.425947
C	 4.0857899526	-0.5144478595	 0.0655087236	-0.500449
O	 2.4311913512	 1.0504637565	 1.152469117	-0.284591
C	 2.0158844665	-0.1695171805	 1.7870113729	-0.119451
C	 0.6867173315	-0.7104823862	 1.1615806234	 0.279915
C	-0.0647278205	-1.8242539401	 1.8338286679	-0.489142
H	-0.1610092891	 1.9164672871	-1.1296222437	 0.108897
H	-1.0301033613	 1.8954311219	 0.4058250135	 0.106581
H	 0.7156908372	 2.21054077	 0.3823986409	 0.152538
H	-0.6993099023	-0.4075760307	-0.4043171061	 0.084042
H	 1.4073268524	-1.5000667349	-0.9411098002	 0.083187
H	 4.3353732158	 0.0108366552	-0.8638545984	 0.130667
H	 4.7977878037	-0.2076008032	 0.8362045129	 0.133272
H	 4.2029870526	-1.5880628384	-0.1156000113	 0.125316
H	 2.369395255	-0.3563219051	 2.7957104817	 0.097663
H	-0.6224090309	-1.4610925844	 2.7064691091	 0.120973
H	-0.7844292211	-2.282732322	 1.1481617762	 0.119696
H	 0.6118502378	-2.6143367231	 2.182487103	 0.115336
