19
gdb 93531	2.85975	1.33856	1.07863	2.9202	71.64	-0.2399	-0.0281	0.2117	1156.9958	0.158612	-460.187038	-460.178284	-460.17734	-460.220406	33.322	
C	-0.0917410752	 1.5215791784	-0.0100700077	-0.405728
C	 0.0496073282	 0.0090498718	 0.0396988866	 0.096585
O	 0.8333729912	-0.390333626	-1.0907770449	-0.26872
C	 0.8318663603	-1.7942377369	-1.2987628257	-0.180266
C	 1.2979225553	-2.5889185503	-0.0756980838	 0.364873
O	 1.9463040188	-3.6001465248	-0.1930854354	-0.294182
C	 0.8328584414	-2.0426250421	 1.2671003075	-0.333949
C	 0.7728803761	-0.5037288555	 1.2971717752	 0.12246
O	 2.071767553	 0.0583996933	 1.3809590551	-0.43802
H	 0.8821492368	 2.0000381022	 0.1148340033	 0.136113
H	-0.5195447787	 1.82953226	-0.9670456027	 0.125972
H	-0.7483424477	 1.8651420017	 0.7946592765	 0.120323
H	-0.9457342149	-0.4622444331	-0.0248562308	 0.067479
H	-0.1826963019	-2.1436904419	-1.5634137102	 0.113679
H	 1.4960372841	-2.0072239373	-2.1386372864	 0.138444
H	-0.1774877647	-2.445109269	 1.4338789168	 0.123727
H	 1.4794343154	-2.4305128661	 2.0571458818	 0.135411
H	 0.2406974454	-0.1767830262	 2.1971867406	 0.088775
H	 2.440019727	 0.0322334917	 0.4876953242	 0.287026
