18
gdb 8219	5.24399	1.10313	0.98564	3.4138	67.9	-0.2417	-0.0174	0.2243	1197.634	0.151845	-384.9396	-384.930761	-384.929816	-384.974755	30.187	
C	-0.1275883967	 1.5122608665	-0.0726045006	-0.473066
C	-0.2280742843	 0.0008262128	 0.018585643	 0.382833
O	-0.5355627167	-0.5612573777	 1.0456931608	-0.289365
C	 0.0749799723	-0.7809704523	-1.2553561922	-0.333761
C	 0.1048652624	-2.2845249086	-1.036226464	-0.005995
C	-1.2354011597	-2.9908098711	-0.73927447	-0.067732
O	-1.0918029712	-3.8476325032	-1.8941767299	-0.273847
C	 0.127461082	-3.1908312221	-2.2879801304	-0.098062
H	 0.9123015248	 1.8057815608	-0.2581952738	 0.142124
H	-0.7183307661	 1.8922572429	-0.9131674647	 0.137601
H	-0.470118355	 1.9650005295	 0.8584846451	 0.14543
H	-0.6888186937	-0.5121796497	-2.0004941498	 0.12629
H	 1.024282058	-0.4196711233	-1.6749533597	 0.118734
H	 0.8773715216	-2.5369899008	-0.3073322319	 0.091179
H	-1.2858618215	-3.5586520911	 0.1951963351	 0.111643
H	-2.1247915054	-2.3509271872	-0.8118984086	 0.094912
H	 0.0194460856	-2.6626340818	-3.246448445	 0.090627
H	 0.9681240735	-3.8912229236	-2.3663791635	 0.100455
