12
gdb 24741	3.82396	1.27192	0.95445	2.8364	72.43	-0.2671	-0.0895	0.1776	1120.5408	0.07721	-435.486068	-435.478661	-435.477717	-435.518646	26.421	
O	-0.0699318951	-0.0169722532	 0.0037600727	-0.287411
C	-0.0491574058	 1.1965380096	 0.0066160334	 0.124443
C	 1.1797534307	 1.9620571466	 0.0001426526	 0.311115
C	 2.2309159629	 2.5465869194	-0.0055409319	-0.418748
C	-1.2887784173	 2.0021559771	 0.0171308838	 0.342156
N	-1.41277345	 3.2986959627	 0.0213305275	-0.305256
C	-2.7726364431	 3.5168465552	 0.0310726521	-0.116524
C	-3.4095144114	 2.3139344104	 0.0324657713	-0.023403
O	-2.472050031	 1.3379542343	 0.0236994942	-0.147476
H	 3.1558275766	 3.0705354166	-0.010260991	 0.21842
H	-3.1950761633	 4.5089131257	 0.0364027799	 0.139125
H	-4.438650823	 1.9970241256	 0.0387135655	 0.163559
