20
gdb 88770	3.83737	1.0317	0.91162	3.0441	78.85	-0.2264	0.0763	0.3026	1314.8541	0.17152	-403.073755	-403.065392	-403.064447	-403.107394	32.319	
O	-0.0543142799	 1.5073561257	 0.3011980492	-0.416913
C	 0.0299757736	 0.1152607565	 0.1857408795	 0.097335
C	-0.5413268249	-0.7567403671	 1.2742690397	-0.340818
C	-1.2571085038	-0.6215640933	-0.0602654793	-0.041984
C	-2.5612081223	 0.1281123158	-0.1456932265	 0.014407
C	-3.1311945741	 0.5690117758	-1.526003868	-0.192889
N	-4.4690732928	-0.0705709893	-1.250028036	-0.127838
C	-4.1839943599	-1.5090559527	-1.114182204	-0.238463
C	-3.8766026388	-0.6338088541	 0.0339598445	-0.049952
H	 0.559467027	 1.78615889	 0.9884205135	 0.289158
H	 0.9184397185	-0.2420739842	-0.3349512297	 0.085996
H	-0.0472211064	-1.6909498176	 1.5180378985	 0.111207
H	-0.9877553542	-0.2434584862	 2.1202318494	 0.113615
H	-1.1774115639	-1.4775016375	-0.7250541863	 0.083175
H	-2.523257108	 0.990062062	 0.5223868565	 0.089879
H	-3.2367937175	 1.649195746	-1.6378140845	 0.114323
H	-2.6334538269	 0.1655789783	-2.4151505763	 0.097425
H	-5.0821119948	-2.1162155538	-1.0509071672	 0.117561
H	-3.3859099007	-1.9482513072	-1.7101597044	 0.106014
H	-4.4540932204	-0.6741216572	 0.9529075914	 0.088763
