15
gdb 77274	2.45618	1.20129	0.99702	4.2116	68.47	-0.258	0.0032	0.2611	1197.4926	0.111771	-453.958814	-453.949887	-453.948943	-453.993521	31.362	
O	-0.0555152277	 1.4187420232	 0.0195765688	-0.412424
C	 0.0221517565	 0.0318168106	 0.0005224812	 0.039525
C	-1.2895089649	-0.6666673407	 0.1129183471	 0.030786
N	-2.4532868656	 0.1292422952	 0.2500540158	-0.280855
C	-3.6815352579	-0.4235338029	 0.4678323669	 0.158577
O	-3.8941365202	-1.6128269107	 0.5488744963	-0.316697
C	-0.5195354548	-0.718136858	-1.2256247143	-0.270928
C	-0.9701372628	 0.0640998522	-2.3344179347	 0.293582
N	-1.3165810876	 0.7250074473	-3.2190901398	-0.332497
H	 0.4683760843	 1.7806027083	-0.7046238556	 0.312101
H	 0.8933127578	-0.3991268323	 0.4905097664	 0.120985
H	-1.3528455499	-1.6090977072	 0.6426848926	 0.150969
H	-2.339541604	 1.1308446206	 0.2057933181	 0.272046
H	-4.4654542029	 0.3496212668	 0.5741884624	 0.089596
H	-0.0496642703	-1.6617297925	-1.4809645412	 0.145232
