17
gdb 62984	2.31165	1.63048	1.28845	3.3724	72.18	-0.2516	0.0054	0.257	1032.4317	0.134833	-417.969527	-417.961027	-417.960083	-418.002239	32.398	
C	-0.1249799044	 1.5920490072	-0.1026795372	-0.469003
C	 0.0287323546	 0.081745597	-0.0430977073	 0.387153
O	-1.2111052936	-0.5567168729	 0.169818614	-0.464519
C	 0.7297871985	-0.6476878764	-1.1881281186	-0.046571
C	 2.1650283639	-0.3260539389	-1.2701803084	-0.260925
N	 1.7382739538	-1.3302695089	-0.2757477333	-0.131015
C	 1.1497231707	-0.5551190735	 0.8823557553	-0.192043
C	 2.0653433519	 0.3239997178	 1.5933855302	 0.301055
N	 2.7737762781	 1.0587660587	 2.1379561218	-0.337597
H	 0.8231976313	 2.0978295505	-0.2954883664	 0.141174
H	-0.8339759242	 1.8573365248	-0.892479603	 0.135201
H	-0.5080372938	 1.9756856	 0.8509143422	 0.124941
H	-1.6809148973	-0.0853038678	 0.8666885935	 0.286488
H	 0.1897263721	-1.2005990889	-1.9484837158	 0.115456
H	 2.7262925027	-0.7719892861	-2.0848254539	 0.137818
H	 2.5508322837	 0.6314095411	-0.9306385784	 0.136513
H	 0.6890726921	-1.2597798536	 1.5768833154	 0.135872
