21
gdb 114244	3.93988	0.85585	0.79182	1.0202	80.4	-0.2417	0.0734	0.3151	1513.3778	0.18068	-424.182218	-424.172655	-424.171711	-424.217019	35.601	
C	 0.3548039198	 1.6781669429	-0.5565081683	-0.240163
O	-0.3166451886	 0.4397151728	-0.5055385731	-0.240409
C	 0.4533545778	-0.6266556469	-0.9902882961	 0.165843
C	 1.5978556082	-1.189211187	-0.0868613343	-0.327991
C	 1.030156285	-2.5875238623	-0.3587282106	 0.328747
C	 1.8115859662	-3.7542076831	-0.9103383106	-0.36417
C	 1.2350607651	-3.8169626328	 0.4746311034	 0.035844
O	 2.1580156752	-3.7777115632	 1.5258918526	-0.418821
C	-0.2666849317	-1.9924333041	-0.9242685922	-0.346833
H	 1.2626380919	 1.6817864756	 0.0655880749	 0.107934
H	 0.6440991332	 1.9413362671	-1.5864242421	 0.103964
H	-0.3327209522	 2.4384249265	-0.1780464696	 0.126123
H	 0.8234588489	-0.4037071129	-2.0028404894	 0.065766
H	 2.6293460321	-0.9918269124	-0.3872756962	 0.10184
H	 1.4610416299	-0.8759867752	 0.9546247113	 0.092993
H	 1.3606202944	-4.368265932	-1.683637727	 0.110727
H	 2.8894820695	-3.6465549941	-0.9776772012	 0.121824
H	 0.3765569769	-4.4710857285	 0.6366568533	 0.080642
H	 1.7686818133	-3.2635996771	 2.2416015321	 0.285927
H	-1.0771354936	-1.9616851203	-0.1888850213	 0.108824
H	-0.6488968912	-2.397937943	-1.8641758555	 0.101389
