11
gdb 23878	3.37544	1.60465	1.38614	1.8053	40.7	-0.299	-0.0617	0.2373	844.2647	0.066602	-566.046119	-566.038572	-566.037627	-566.078624	26.135	
O	 0.0237297028	 1.4562630942	 0.1067927755	-0.416252
C	 0.027940861	 0.0699442461	 0.0320556572	-0.085378
C	 0.7235592016	-0.4095288132	-1.2400530026	 0.132712
O	 1.1471791662	 0.3880954169	-2.0366377105	-0.245422
C	 0.725240687	-0.537812488	 1.2575501468	 0.260885
F	 0.1599069093	-0.1330826754	 2.3912755691	-0.056522
F	 0.6430499827	-1.8802009171	 1.2033896568	-0.081506
F	 2.0200057069	-0.2059144905	 1.290959781	-0.071533
H	 0.5205163616	 1.7632417866	-0.6696130429	 0.305796
H	-0.9962556762	-0.3389942589	 0.03209903	 0.128456
H	 0.8067094771	-1.5014256406	-1.3860388205	 0.128764
