20
gdb 63079	2.33162	1.76918	1.36328	1.4473	78.6	-0.2334	0.0182	0.2516	1048.4315	0.169938	-403.156171	-403.147157	-403.146213	-403.189216	34.362	
C	-0.0727839768	 1.5325575505	 0.0395667661	-0.457655
C	 0.0260134644	 0.0197428055	 0.0308806905	 0.223129
C	-1.1822808767	-0.6478546211	-0.6088989501	-0.454879
C	 1.3314081035	-0.6907389999	-0.2395456264	-0.020016
O	 2.5366009703	 0.0547160827	-0.1019325847	-0.210594
C	 2.5748699661	 0.4111844981	 1.2078269181	 0.076352
N	 1.6439038088	 0.0230633496	 1.980318615	-0.293644
C	 0.7235363201	-0.7533797047	 1.1616756515	 0.262043
C	 0.1280639043	-1.9445650142	 1.8700239445	-0.474301
H	 0.7433534706	 2.0124096241	 0.5800725295	 0.133185
H	-0.0760626678	 1.9210917143	-0.9849581834	 0.117077
H	-1.0091134468	 1.843308856	 0.5163642184	 0.118464
H	-1.3751197446	-0.205382103	-1.5927598986	 0.12027
H	-1.0428512367	-1.7220625525	-0.7566792686	 0.117494
H	-2.0813717082	-0.5088076574	 0.0017360661	 0.123402
H	 1.4199676499	-1.4927625921	-0.9631783458	 0.104354
H	 3.4275028422	 1.0179538295	 1.4884889693	 0.141359
H	-0.4786650873	-1.6118145061	 2.7184256622	 0.132128
H	-0.5040732277	-2.5445157985	 1.2130071381	 0.116079
H	 0.9222141024	-2.5876885708	 2.261986218	 0.125752
