18
gdb 115421	4.30802	0.90989	0.83	3.2627	73.1	-0.2854	0.006	0.2914	1407.8634	0.147472	-439.102031	-439.093086	-439.092142	-439.13678	31.796	
C	 0.0288675338	 1.5475485921	 0.049004632	-0.388581
C	 0.0305387651	 0.0169589173	 0.02504038	-0.208089
C	 0.7633553506	-0.5415747209	-1.175508446	 0.225308
O	 2.1369326551	-0.2293793908	-1.1238322529	-0.239624
C	 2.7621534374	-1.1622710031	-1.9769722552	-0.13246
C	 1.8853747268	-2.4437049451	-1.7940866006	-0.040511
O	 0.7041329897	-1.9689406964	-1.1706053931	-0.261087
C	 1.5974430907	-3.1102034413	-3.0741073152	 0.267475
N	 1.3929547319	-3.6334480867	-4.0836365435	-0.314027
H	 1.0490834584	 1.9384527207	 0.087892051	 0.137651
H	-0.4561670193	 1.9594863084	-0.8425523361	 0.120046
H	-0.5127335812	 1.9183655925	 0.9232515219	 0.121595
H	 0.5079253477	-0.3898548766	 0.9224765268	 0.115473
H	-0.9929017064	-0.3714462504	-0.0051076357	 0.119032
H	 0.3326699963	-0.1691786542	-2.1233431646	 0.077695
H	 2.7453208811	-0.8306280825	-3.0237649434	 0.125569
H	 3.7950190116	-1.3048002413	-1.656267966	 0.136568
H	 2.3629096808	-3.1697630619	-1.1273539893	 0.137967
