21
gdb 78356	2.60747	1.36553	1.08662	1.8578	83.27	-0.2545	0.0853	0.3398	1219.1503	0.181372	-387.046748	-387.037811	-387.036866	-387.079999	34.414	
C	-0.1216279595	 1.4121932317	 0.0578694412	-0.425767
C	 0.0421967158	-0.0916009959	 0.1173129638	-0.004845
C	 1.3883916621	-0.665098336	-0.2225984365	-0.071499
C	 0.8865507081	-0.6540252539	 1.235648316	-0.165501
C	 0.8356818921	-2.1586218895	 1.2023719144	 0.456351
C	 1.0361735558	-3.1274642499	 2.2760681722	-0.278965
O	-0.2565033995	-2.9354722932	 1.6816585092	-0.275438
C	 1.3673430354	-2.2069461112	-0.2519944513	-0.106549
C	 0.5468693015	-2.9365562647	-1.3079461824	-0.401209
H	 0.7953183537	 1.9231324147	 0.3711822983	 0.114386
H	-0.3560603227	 1.7437146587	-0.9594295945	 0.119481
H	-0.9308931528	 1.747996965	 0.7148639437	 0.121765
H	-0.848170136	-0.6475900458	-0.1690728597	 0.092008
H	 2.1713640293	-0.0514922928	-0.6518741787	 0.083752
H	 1.2109937722	-0.0423994243	 2.0694548929	 0.085324
H	 1.5143538352	-4.0836024482	 2.0624082325	 0.110377
H	 1.1286460453	-2.7870112229	 3.3073820235	 0.111809
H	 2.3927661096	-2.5941555454	-0.247413704	 0.078348
H	-0.4785834246	-2.5603529676	-1.3578961457	 0.123436
H	 0.9988714478	-2.8225759681	-2.2988891957	 0.111605
H	 0.491216521	-4.0063854008	-1.0824192193	 0.121133
