16
gdb 47473	2.79279	1.29009	1.02727	5.1002	69.57	-0.2585	0.0173	0.2757	1154.929	0.126858	-434.125728	-434.117533	-434.116588	-434.159288	29.354	
O	-0.0543724524	-0.080367363	-0.1778319278	-0.415116
C	-0.0337525878	 1.1227029766	-0.0404516466	 0.472563
N	-1.087180762	 1.9544717388	 0.2821066918	-0.355249
C	-0.7297715386	 3.3556722302	 0.1122069894	-0.174118
C	 0.8056906754	 3.2994196095	 0.257049911	-0.175252
N	 1.09171329	 1.9406706065	-0.183247625	-0.1123
C	 2.402148181	 1.3458372585	-0.0996033676	-0.298115
C	 3.0137819154	 1.4670540894	 1.2381419301	 0.258696
N	 3.4765693532	 1.6025495713	 2.2881172996	-0.307593
H	-2.0160522062	 1.619366548	 0.0833955273	 0.260176
H	-1.0146988136	 3.7375978774	-0.87785445	 0.116163
H	-1.1896520647	 3.9894141046	 0.8742016078	 0.128394
H	 1.3094310788	 4.0430506237	-0.3670565284	 0.122255
H	 1.1150037288	 3.4540264532	 1.3003171061	 0.134467
H	 2.2811907492	 0.2863528368	-0.3478288412	 0.192278
H	 3.0840925535	 1.7952447084	-0.8308681963	 0.152752
