16
gdb 30458	4.91654	1.03533	0.85985	1.0792	82.56	-0.1825	-0.0595	0.123	1294.0873	0.125243	-434.091767	-434.083489	-434.082545	-434.124705	30.845	
C	-0.0711127625	 1.4150493157	 0.1069528491	-0.320592
N	-0.0164976373	-0.0316657199	 0.0345283181	-0.338328
C	 0.5596197283	-0.5733589643	-0.9763074998	 0.368685
N	 0.6114516977	-1.9655388682	-1.0450104788	-0.338045
C	 1.1927371838	-2.6666937021	-2.0627369552	-0.080343
C	 1.76383956	-1.9752007365	-3.0851910873	 0.37524
O	 2.3580600785	-2.6151804114	-4.1269588725	-0.435824
N	 1.7645941041	-0.6129471704	-3.1083222075	-0.30477
C	 1.208440176	 0.0440844485	-2.1344210882	-0.090437
H	 0.9245562721	 1.8859155915	 0.143183468	 0.10489
H	-0.6160538435	 1.8721513855	-0.7347594192	 0.104799
H	-0.5953214843	 1.7029958177	 1.0223841268	 0.11828
H	 0.1786692056	-2.4489875287	-0.2710208691	 0.265861
H	 1.1720017195	-3.7460544774	-2.0082520644	 0.144209
H	 2.6825220204	-1.9197771978	-4.712287421	 0.298388
H	 1.2293816019	 1.1279429777	-2.1884535789	 0.127988
