21
gdb 95275	2.54979	1.68133	1.21186	1.3996	82.18	-0.2314	0.0333	0.2647	1085.1122	0.185398	-387.116442	-387.108508	-387.107563	-387.149223	31.662	
O	 0.0420152986	 1.4198243811	-0.0797424949	-0.441691
C	 0.0474952271	 0.0126211699	 0.0957454802	 0.140076
C	 0.5390655188	-0.4809365704	 1.463215205	-0.245144
C	 0.0049946677	-1.9207873732	 1.5109498438	-0.223396
C	-1.4032496556	-1.8546609712	 0.8561559415	-0.009147
C	-2.5787391279	-1.6958061636	 1.8661809044	-0.266002
C	-3.0536832	-0.2794244445	 1.668441687	-0.077111
C	-2.4230602792	 0.3389101428	 0.6730061553	-0.044521
C	-1.3949844428	-0.5380321015	 0.0002017793	-0.078924
H	 0.9473838666	 1.7333678692	 0.0060914679	 0.281111
H	 0.6576439559	-0.4624907026	-0.6909710616	 0.057802
H	 1.6262686068	-0.4177524362	 1.5787998353	 0.081677
H	 0.0785927968	 0.1351695411	 2.2437745989	 0.110893
H	 0.6585876052	-2.5734986123	 0.9201580719	 0.094041
H	-0.0229812436	-2.3347978829	 2.5229427473	 0.09457
H	-1.5662282865	-2.7381715711	 0.2353332261	 0.066475
H	-3.3838170887	-2.416635807	 1.6694019054	 0.100772
H	-2.2582804374	-1.8831704435	 2.8998519907	 0.097921
H	-3.8384514837	 0.1589723266	 2.2765015471	 0.086624
H	-2.5977943475	 1.3578999628	 0.350877863	 0.102266
H	-1.6608807306	-0.7061171636	-1.0499115935	 0.071707
