21
gdb 69342	2.62392	1.35595	1.08789	0.6926	88.99	-0.2441	0.0572	0.3013	1216.564	0.180288	-349.902191	-349.892783	-349.891839	-349.935573	36.927	
C	 0.0363858911	 1.5697151159	 0.0655260603	-0.501067
C	 0.0441274392	 0.0694922714	 0.008062827	 0.392047
C	-0.896887493	-0.7995672547	 0.7929558725	-0.353715
C	 0.5863100803	-0.9560747548	 1.0057019449	-0.1153
C	 1.2394835551	-1.7804703475	-0.1330326107	 0.128244
C	 0.8220310779	-3.2501697379	-0.2748143089	-0.447193
C	 0.6183388945	-0.7473551849	-1.1603469286	-0.34362
C	 2.6920987061	-1.6718560478	-0.0873367449	 0.294134
C	 3.891682213	-1.5938723559	-0.0415214194	-0.468751
H	 1.0210632661	 1.9828564463	-0.181065505	 0.12089
H	-0.6873251146	 1.991757072	-0.6428301554	 0.118325
H	-0.2357657695	 1.9259403938	 1.0646947515	 0.116759
H	-1.4144116991	-0.3027348038	 1.6083407684	 0.108989
H	-1.4866676493	-1.5740048055	 0.3083091507	 0.1026
H	 1.0488979399	-0.7951963062	 1.9725138631	 0.088386
H	-0.2663275664	-3.3486080384	-0.3079965872	 0.112892
H	 1.2319380225	-3.6789537999	-1.1944671691	 0.123883
H	 1.1949980963	-3.8401368541	 0.5678110747	 0.124927
H	-0.1139003329	-1.1652383634	-1.8599082825	 0.092653
H	 1.3902806033	-0.2217810853	-1.7243806521	 0.115559
H	 4.9504991396	-1.5240432394	-0.0045510092	 0.189357
