22
gdb 109508	1.85768	1.37974	1.01508	4.2022	87.64	-0.2749	0.0336	0.3085	1329.4462	0.192327	-367.235713	-367.225198	-367.224254	-367.270997	38.491	
C	 0.2731759991	 1.5101399828	 0.1664510363	-0.378536
C	-0.1864521512	 0.0721912447	-0.1029185042	-0.216473
C	 0.5601657486	-0.5629153953	-1.2585760452	-0.031941
C	 1.9201169204	-1.2438826238	-1.0605442749	-0.237193
C	 2.460410325	-1.3893717	 0.2594396151	 0.297039
N	 2.891897381	-1.5066491107	 1.3277435849	-0.357961
C	 0.6820991502	-2.0452538681	-1.4895864004	 0.278217
C	 0.0683511277	-3.0342186496	-0.5163745107	-0.458058
C	 0.6823169733	-2.5258196347	-2.9296784324	-0.450096
H	 1.330973692	 1.536866114	 0.4456273541	 0.134144
H	 0.1425236507	 2.1411644552	-0.7196401101	 0.112505
H	-0.3007044441	 1.957553874	 0.9831520302	 0.117569
H	-0.0599643005	-0.5227260157	 0.806167345	 0.120246
H	-1.2595381807	 0.0631308994	-0.3329653975	 0.101672
H	 0.5233755801	 0.0322786185	-2.169400526	 0.090896
H	 2.6760448903	-1.0699230435	-1.8196076066	 0.123847
H	 0.1703775335	-2.7244002055	 0.5247240215	 0.142495
H	-0.9980289525	-3.1659502997	-0.7305936759	 0.120066
H	 0.5508241158	-4.0124924138	-0.6156636489	 0.125847
H	 1.2310860378	-3.4687194843	-3.0303766745	 0.125323
H	-0.3430753241	-2.698492873	-3.2759475243	 0.123721
H	 1.1419976376	-1.7938577309	-3.6009142157	 0.11667
