19
gdb 126542	5.41438	0.77774	0.72563	1.7197	78.78	-0.2733	-0.0122	0.2611	1630.7609	0.158794	-419.236906	-419.227541	-419.226596	-419.272522	32.888	
C	-0.4721367468	 1.5693211163	-0.5387955391	-0.383617
C	-0.5151974613	 0.0416208469	-0.6030247359	-0.170511
C	-0.8547340519	-0.5887166186	 0.763394581	-0.304481
C	-0.8967433562	-2.0764920288	 0.7157334073	 0.413505
N	-1.9293328318	-2.8632464936	 0.7779899368	-0.349059
C	-1.3576033376	-4.1137112338	 0.6535324465	 0.350487
C	-2.1464526724	-5.376847492	 0.6679329401	-0.488829
N	-0.05704185	-4.1017891531	 0.5222677712	-0.172196
O	 0.2608973103	-2.7353021699	 0.5631386643	-0.202714
H	-0.2321059581	 1.9959474625	-1.5170369108	 0.120463
H	-1.436621887	 1.9811174817	-0.2222966174	 0.120205
H	 0.2863860939	 1.9155702722	 0.1717665572	 0.119726
H	-1.2612126764	-0.2822127415	-1.3379120028	 0.114779
H	 0.4497563304	-0.3485865036	-0.9445969049	 0.12091
H	-0.1081039801	-0.2778798329	 1.503598043	 0.129987
H	-1.8323526542	-0.244158205	 1.1101294637	 0.136482
H	-2.8790728133	-5.3753482805	-0.1447143741	 0.147675
H	-1.4863612853	-6.2380534946	 0.5555624716	 0.149047
H	-2.7001828424	-5.4668348417	 1.6072811521	 0.14814
