20
gdb 19441	2.99704	2.048	1.54464	0.1826	79.05	-0.2426	0.0888	0.3314	920.2747	0.177302	-311.829815	-311.822167	-311.821223	-311.86189	30.342	
C	 0.0845610636	 1.4885108201	-0.0872847025	-0.320335
C	 1.3497453284	 0.6672887548	 0.0294163639	-0.330896
C	 0.013402315	-0.0095252045	-0.0028826599	 0.323232
C	-0.6729392988	-0.8151910294	 1.1128275332	-0.305794
C	-1.4339343605	-1.6281398728	 0.0181541883	-0.305794
C	-0.5577927746	-0.9542940172	-1.0510881158	 0.323232
C	-0.8910191006	-0.6812593433	-2.4861300342	-0.330896
C	 0.205748725	-1.661954476	-2.133917871	-0.320335
H	-0.2363762223	 2.0645733723	 0.775316197	 0.107957
H	-0.1309121229	 1.9593432743	-1.0416674195	 0.109182
H	 1.9879091065	 0.5885630707	-0.8459549225	 0.107914
H	 1.8913415999	 0.6846888467	 0.9702960509	 0.109263
H	 0.0218843791	-1.4271218065	 1.6954443912	 0.101506
H	-1.297219041	-0.2425933023	 1.8037120457	 0.097969
H	-1.3538834841	-2.7160666386	 0.0883109581	 0.097969
H	-2.4918511886	-1.3600211479	-0.056718772	 0.101506
H	-1.8259801805	-1.0711357391	-2.8769343917	 0.109263
H	-0.6009999199	 0.2763605909	-2.9087156066	 0.107914
H	 1.2337414329	-1.3634140872	-2.3157499159	 0.109182
H	 0.0169826734	-2.7206539748	-2.2837573368	 0.107957
