15
gdb 16921	3.7951	2.24944	2.05087	3.5932	64.08	-0.2308	-0.0147	0.2161	716.2888	0.122585	-362.692861	-362.687179	-362.686235	-362.722351	23.661	
O	-0.0002620993	-0.0061164779	 0.0943743768	-0.377078
C	-0.0025929743	 1.1959123455	-0.0130494104	 0.42033
N	-1.1072432518	 2.0314330402	-0.1042488279	-0.304242
C	-0.6272998648	 3.4296528464	 0.0241872135	-0.05111
C	 0.6187968987	 3.3189648594	-0.8848242959	-0.208487
C	 1.2087606134	 2.1693712749	-0.0238040527	-0.177123
C	 1.1481559504	 2.8287345887	 1.3611631937	-0.079639
C	 0.0564399492	 3.5966046822	 1.3940125881	-0.081934
H	-1.9673895968	 1.7328236967	 0.3307355507	 0.249201
H	-1.3971112802	 4.1491400251	-0.2493614037	 0.080174
H	 0.3677762033	 3.0314371138	-1.908977683	 0.112479
H	 1.2417947649	 4.2143243036	-0.8725854915	 0.109833
H	 2.1457222939	 1.702315822	-0.3153413576	 0.087144
H	 1.8426035752	 2.6155534058	 2.1621731232	 0.114464
H	-0.3387227318	 4.1653495737	 2.2248990267	 0.105988
