21
gdb 92588	1.97757	1.79315	1.58827	2.3004	76.93	-0.2471	0.0736	0.3207	1026.6041	0.183988	-424.225216	-424.21702	-424.216076	-424.257532	32.918	
C	 0.1968221645	 1.6106847629	-0.0401380081	-0.497024
C	 0.0084677603	 0.1050341568	 0.0274476619	 0.303751
C	-1.4453986135	-0.3640879382	 0.0154395455	-0.156133
O	-1.4155979006	-1.6693804327	 0.5989819873	-0.269648
C	-0.5252317624	-1.5654262824	 1.7148610129	-0.099134
C	 0.6345308748	-0.6828919908	 1.2402797051	-0.081541
C	 1.6338712086	-1.3749710944	 0.2775254897	-0.263558
C	 0.9168752008	-0.7413726654	-0.9478545111	 0.096085
O	 0.2545322048	-1.6297464179	-1.8146415673	-0.437859
H	 1.2565377452	 1.8818977519	 0.0139788426	 0.118197
H	-0.1965275215	 2.0142057454	-0.980701999	 0.123707
H	-0.3183099578	 2.1179349076	 0.7836295797	 0.114094
H	-2.0801471306	 0.3110375218	 0.611913224	 0.089463
H	-1.8655579889	-0.4584912242	-0.9883441534	 0.12173
H	-1.045800929	-1.0986697837	 2.5658810616	 0.092154
H	-0.2307032676	-2.5793826651	 1.999728697	 0.109377
H	 1.0709255942	-0.0945479492	 2.0496969571	 0.06844
H	 2.6690361513	-1.0471963742	 0.4025042247	 0.100911
H	 1.6171598837	-2.469646763	 0.2828860684	 0.098083
H	 1.5590490461	-0.1267869525	-1.5847651308	 0.080909
H	-0.3217717423	-2.1797127727	-1.2654541077	 0.287996
