17
gdb 50872	5.81378	0.75779	0.69937	6.1778	72.52	-0.2502	-0.0088	0.2414	1578.1685	0.135363	-455.181228	-455.171961	-455.171016	-455.216652	32.481	
O	-0.3446471357	 0.1225997018	-0.2994647951	-0.257656
C	-0.0532278105	 1.2546470107	-0.0303818592	 0.166927
N	 1.2239462535	 1.7779174873	 0.1095417624	-0.393687
C	 2.4515960519	 1.1158484017	-0.1446544685	 0.514608
O	 2.5475502144	 0.0671784975	-0.7277051502	-0.341364
N	 3.5259769318	 1.8506090663	 0.3226174675	-0.385507
C	 4.8457753829	 1.2910322033	 0.2391298515	 0.065397
C	 5.6109938819	 1.4471903269	-1.0450488781	-0.235349
C	 5.9998432331	 2.2542290889	 0.1684522084	-0.29783
H	-0.8055571047	 2.0484886734	 0.1613597791	 0.078514
H	 1.2684410536	 2.7561421255	 0.3539845171	 0.249091
H	 3.3569976957	 2.47323653	 1.0993135552	 0.240216
H	 4.9914765383	 0.3637613515	 0.7875107362	 0.109361
H	 6.2460133424	 0.6253233803	-1.3531518533	 0.125825
H	 5.1118149017	 1.9657851881	-1.8544048641	 0.125121
H	 5.7666413998	 3.3134779983	 0.1602692878	 0.114086
H	 6.90682481	 1.9967492484	 0.7029215333	 0.122246
