14
gdb 4791	6.81795	1.32485	1.12231	2.5641	60.82	-0.1876	0.0388	0.2264	1009.103	0.108005	-415.887704	-415.880084	-415.87914	-415.919682	27.502	
C	-0.0591189566	 1.4080953301	-0.0814896032	-0.328942
N	 0.147533816	-0.0281492413	 0.0053017926	-0.380785
C	 0.6460206875	-0.7347193345	-1.0467888701	 0.514419
N	 0.5776372509	-2.0263101556	-1.227882766	-0.451671
C	 1.2940266741	-2.2218208807	-2.3957874669	 0.330828
O	 1.4485835939	-3.4565129336	-2.9097231859	-0.432485
C	 1.7601178442	-1.0488713875	-2.8792176654	-0.176506
O	 1.3261785321	-0.0605382962	-1.9856451701	-0.190307
H	 0.8702483454	 1.8928438477	-0.3872151309	 0.155363
H	-0.8450536079	 1.6918633066	-0.7954686054	 0.126446
H	-0.3308763584	 1.7810400817	 0.9079908846	 0.132686
H	-0.5180812784	-0.5561903689	 0.5474432066	 0.260493
H	 0.9951126476	-4.0589634847	-2.3082246123	 0.303492
H	 2.3315918195	-0.7254055034	-3.7270622177	 0.13697
