12
gdb 127818	2.57487	1.88864	1.097	4.2114	60.68	-0.2965	-0.0914	0.2051	990.6523	0.075516	-505.908742	-505.900869	-505.899925	-505.941897	27.257	
C	-0.0274501392	 1.4291398876	 0.0000957145	-0.328561
N	-0.0739682637	-0.0339369632	-0.0152044264	-0.056024
N	-0.3284598678	-0.6068226231	-1.2150910833	-0.029121
N	-0.3976906743	-1.8267125079	-1.3817765836	 0.045003
O	-0.2000994065	-2.6961100725	-0.2528427127	-0.263249
C	 0.0650241739	-2.241294819	 1.0132778457	 0.398577
O	 0.2199988377	-3.0094663102	 1.9089052835	-0.26617
C	 0.1403876316	-0.7335938153	 1.1660738705	 0.297699
O	 0.3643755577	-0.1750378373	 2.2082070105	-0.303976
H	 0.9545063222	 1.7639616504	 0.3406751984	 0.168684
H	-0.2180894416	 1.7722397839	-1.0148096928	 0.168485
H	-0.7850926701	 1.8156250166	 0.6848895658	 0.168653
