14
gdb 14807	2.54594	2.1811	1.31161	1.4131	68.37	-0.2608	0.0143	0.2751	910.6805	0.104767	-345.304554	-345.296642	-345.295697	-345.337279	28.648	
C	-0.2946696175	-1.235768138	-0.2452848238	-0.448844
C	-0.1879008781	-0.0476319704	-0.0989837927	 0.349789
C	-0.0710506481	 1.3784201311	 0.0918319324	-0.262563
C	 0.1170719104	 1.9267947283	 1.5309849868	-0.076121
O	 1.2663058164	 2.7002011775	 1.1383856742	-0.268408
C	 1.3046184975	 2.0991513552	-0.1779890629	-0.082218
C	 2.4688547624	 1.262070036	-0.4015030843	 0.379294
C	 3.4372714559	 0.5781786287	-0.5968180553	-0.46022
H	-0.3819444517	-2.2857768087	-0.3777129948	 0.201055
H	-0.8724556319	 1.90084071	-0.4369770435	 0.119795
H	-0.6920982183	 2.5560129246	 1.9149430626	 0.113689
H	 0.3701243755	 1.1563084836	 2.2677074337	 0.118473
H	 1.2431127156	 2.8691105101	-0.9560270498	 0.112209
H	 4.292704882	-0.0283823979	-0.7657124726	 0.204072
