15
gdb 132098	3.01679	1.37906	0.95202	3.5921	73.26	-0.215	-0.0366	0.1783	1151.837	0.112858	-461.989524	-461.981665	-461.980721	-462.022191	29.277	
C	-0.0294835385	 1.5731794198	 0.0138697346	-0.504356
C	-0.0064468534	 0.0688643164	-0.0012489696	 0.03919
C	 0.1654547432	-0.652870847	-1.1392353288	 0.366266
F	 0.3276544657	-0.0971094018	-2.3347552776	-0.054937
N	 0.187592161	-2.0067370078	-1.1621215801	-0.443562
C	 0.0378705814	-2.8446512253	-0.0269365214	 0.435026
O	 0.0734899633	-4.0544399781	-0.1588121804	-0.393208
C	-0.1457812252	-2.0802785971	 1.189584219	-0.266393
C	-0.1636910403	-0.7186744637	 1.1819026436	-0.091684
H	 0.1073889586	 1.9789084212	-0.9900668439	 0.139132
H	-0.981101676	 1.9528554282	 0.402596804	 0.135708
H	 0.7657021764	 1.9770918878	 0.6505487493	 0.135715
H	 0.3199089763	-2.4792862559	-2.0464692258	 0.269983
H	-0.267487187	-2.6506061304	 2.1012838109	 0.118628
H	-0.3044426154	-0.1867927962	 2.1193223961	 0.114492
