19
gdb 96044	2.53487	1.21783	0.95113	4.1973	72.63	-0.27	0.008	0.278	1277.0872	0.158924	-460.203704	-460.194608	-460.193664	-460.238519	32.264	
C	-0.5935225475	 1.3648765578	 0.030169266	-0.414565
C	 0.0780043604	-0.0019646501	-0.0583678722	-0.016273
C	 1.3533806231	-0.0718513477	-0.9205164897	-0.248114
C	 2.0452197671	-1.339879241	-0.3987710704	-0.083224
O	 1.5018239088	-1.5872607133	 0.9168413173	-0.254138
C	 0.6065927672	-0.5802815679	 1.2574613154	 0.209142
O	 1.2789861024	 0.479421339	 1.9703999713	-0.202911
C	 1.5732270387	 0.251221056	 3.2658853742	 0.173369
O	 2.2008440904	 1.0203662561	 3.9298012238	-0.277249
H	 0.0971848278	 2.1163465202	 0.4192130068	 0.144031
H	-0.9350682098	 1.687167062	-0.958175895	 0.118869
H	-1.4674243122	 1.3360400128	 0.689286598	 0.118244
H	-0.6410081747	-0.7389594502	-0.4382884024	 0.089257
H	 1.1394303175	-0.1226144969	-1.990215871	 0.109423
H	 1.9714202068	 0.8120092935	-0.7372506016	 0.126493
H	 1.8262203521	-2.2182872541	-1.0161389294	 0.110471
H	 3.1314285538	-1.2347000707	-0.3216223391	 0.118776
H	-0.1580522747	-1.0103875264	 1.9132266473	 0.094564
H	 1.1639017226	-0.7062249793	 3.6398136607	 0.083834
