20
gdb 101217	3.64941	0.91828	0.7976	2.9068	77.74	-0.2591	0.029	0.2882	1473.4542	0.169077	-440.279124	-440.269371	-440.268427	-440.314489	34.993	
C	-0.6321974562	 1.2727266031	-0.0766036807	-0.236615
O	-0.0923036895	-0.0299250285	-0.1007922812	-0.252813
C	 0.6227851955	-0.4020674855	 1.0665331655	 0.125518
C	-0.2814910937	-0.6875577849	 2.2660108644	-0.417603
C	 1.4134334743	-1.6350207941	 0.6523216258	 0.120904
C	 2.6106522475	-1.4311331917	-0.294383917	-0.376368
C	 3.4269976348	-1.9011350982	 0.8909247806	 0.433804
N	 4.6440072197	-2.0975404901	 1.1137054526	-0.537732
O	 2.3264919965	-2.070778388	 1.7146743622	-0.267953
H	 0.1420740467	 2.0280648612	 0.1291153576	 0.107037
H	-1.0544371219	 1.4616295605	-1.0664834208	 0.131366
H	-1.4307817596	 1.3841287965	 0.6700597063	 0.11231
H	 1.3420001183	 0.3923311863	 1.3319505564	 0.069443
H	-1.0376916341	-1.4334897952	 2.0008573618	 0.124273
H	 0.3170304615	-1.0732787523	 3.0957158754	 0.141198
H	-0.7923126454	 0.2159621624	 2.6092001274	 0.11911
H	 0.7360317484	-2.4492481093	 0.3783557887	 0.098767
H	 2.6535532499	-2.0839319745	-1.1669073577	 0.139239
H	 2.7917112393	-0.4003606855	-0.6030519297	 0.138755
H	 4.7969397579	-2.4339413822	 2.0660824523	 0.227362
