18
gdb 52558	4.6907	0.68978	0.62764	3.8522	84.96	-0.2443	-0.0148	0.2295	1806.1795	0.145758	-401.938866	-401.928682	-401.927738	-401.977688	34.65	
C	 0.0127619418	 1.4180529255	 0.0399581488	-0.504997
C	 0.0824753362	-0.0299017458	-0.06689582	 0.150544
C	 0.1311421903	-1.2307295115	-0.1607364076	-0.058978
C	 0.1293122525	-2.6800149048	-0.3017990231	 0.259829
O	-0.7622053225	-3.2926171332	-0.8590698402	-0.358323
N	 1.2339177147	-3.2818767887	 0.2442894536	-0.325643
C	 1.3682612355	-4.7053950441	 0.3075068886	 0.055418
C	 1.7605376086	-5.4570092789	-0.9355431331	-0.236382
C	 2.7521101024	-5.2849423659	 0.1877895915	-0.296701
H	-0.0204730972	 1.7335100579	 1.0884623417	 0.156677
H	 0.8874206322	 1.889341686	-0.4213188207	 0.156609
H	-0.8815896938	 1.8078108263	-0.457230481	 0.16164
H	 1.8515489283	-2.7091304483	 0.7981072863	 0.250867
H	 0.6707294455	-5.2019758277	 0.9778750673	 0.106084
H	 1.3136680744	-6.4311442758	-1.094723563	 0.121811
H	 1.910332996	-4.8724606465	-1.8348110447	 0.127476
H	 3.5717265701	-4.5918282513	 0.0306891828	 0.114777
H	 2.9986453948	-6.1391858932	 0.8077004828	 0.119292
