19
gdb 110017	2.34084	1.4941	1.05216	4.5281	70.58	-0.2635	0.0022	0.2657	1167.9358	0.160261	-460.211412	-460.202811	-460.201867	-460.244695	32.375	
C	 0.3074432712	 1.6286113125	-0.2669754558	-0.403643
C	 0.0142110931	 0.1485725111	 0.0118952085	-0.046943
C	 0.5689334277	-0.7633631077	-1.1004779912	-0.094003
O	 1.9179929669	-1.0922577191	-0.7062749474	-0.217679
C	 2.0653366609	-0.9245387209	 0.6268524048	 0.46017
O	 3.1055998183	-1.1416494055	 1.1932198226	-0.364353
C	 0.7581384593	-0.4282004178	 1.2348278727	-0.169324
C	 1.0140002461	 0.4597237237	 2.462202648	-0.085016
O	 1.6431621666	-0.2680585501	 3.4918922567	-0.425238
H	 1.3788168759	 1.8085874273	-0.4072383559	 0.135045
H	-0.206040313	 1.9504419969	-1.1783969926	 0.121169
H	-0.0365331282	 2.2676695947	 0.5507484542	 0.131242
H	-1.066034964	 0.0081356151	 0.1078601561	 0.09038
H	-0.0004687352	-1.6950029662	-1.1949190654	 0.119198
H	 0.6237769349	-0.2802551649	-2.0784600227	 0.126706
H	 0.2308020795	-1.3238354612	 1.591948299	 0.120474
H	 1.6054198309	 1.3402992631	 2.1689905921	 0.094887
H	 0.0607640728	 0.8229796137	 2.8611994687	 0.10784
H	 2.4546582463	-0.6282596146	 3.1047810975	 0.299086
