23
gdb 100531	2.56139	0.87755	0.8742	2.9314	82.63	-0.257	-0.0242	0.2328	1552.3697	0.202452	-425.458269	-425.446921	-425.445977	-425.495812	40.475	
C	-0.2689262571	 1.495200468	-0.4195070043	-0.397524
C	-0.1533551751	-0.0313764789	-0.4235534533	-0.165982
C	 1.1006452127	-0.5694110341	-1.1608742607	-0.065031
C	 2.4142374019	-0.1920620482	-0.4611426028	-0.398304
C	 0.957580113	-2.0819025373	-1.2441308533	 0.368732
O	 1.1425515108	-2.7978428197	-0.279763929	-0.354058
C	 0.5238933895	-2.7233631782	-2.5638855039	 0.051213
C	 1.6347292669	-2.6033753964	-3.6234909473	-0.401908
O	 0.1921118722	-4.0694025422	-2.352303141	-0.438816
H	 0.5573895252	 1.9682366251	 0.1188929771	 0.124692
H	-0.2772477539	 1.8959721633	-1.4392706183	 0.116468
H	-1.1980709759	 1.8069487044	 0.0672155445	 0.120457
H	-0.1381029326	-0.4163411762	 0.6025818913	 0.119814
H	-1.0500942449	-0.453147792	-0.8952342379	 0.103183
H	 1.0936278594	-0.1596130699	-2.1782751455	 0.079033
H	 2.4485428057	-0.6344045991	 0.5378240289	 0.140989
H	 3.2792269243	-0.5607244311	-1.0210807255	 0.119411
H	 2.5146854991	 0.8921441066	-0.370669288	 0.118526
H	-0.362720356	-2.1746499834	-2.9238841936	 0.086474
H	 2.5496676418	-3.0867031251	-3.2678032961	 0.128297
H	 1.3091002377	-3.1172988805	-4.5310764543	 0.137102
H	 1.8567976415	-1.5624677717	-3.8767078155	 0.116317
H	 0.4590771737	-4.2511877834	-1.4360516216	 0.290916
