19
gdb 54217	2.11236	1.5011	1.32178	1.9201	76.71	-0.2411	-0.0433	0.1978	1106.8227	0.155989	-423.063603	-423.053844	-423.0529	-423.099005	35.096	
C	-0.1436220302	 1.5190368904	 0.0591899434	-0.490575
C	 0.0389940252	 0.0145309088	 0.0129777156	 0.346008
O	 1.1324031328	-0.5016848351	 0.0367320462	-0.300239
C	-1.2462816389	-0.8271287718	-0.0089161201	 0.089118
C	-2.240341709	-0.3639373288	-1.0803835611	-0.4639
C	-0.9871328827	-2.3568614306	 0.1299754559	-0.283798
C	-1.4486245947	-2.3320705449	 1.6194691012	-0.334711
C	-1.8514900391	-0.8694048585	 1.4276755177	 0.36611
O	-2.4488082693	-0.0585928106	 2.0739777788	-0.298866
H	 0.800954746	 1.9887098032	 0.3358521291	 0.143002
H	-0.4483245564	 1.8912676732	-0.9251081499	 0.145916
H	-0.9324915108	 1.7895422984	 0.7684255777	 0.161744
H	-1.7967042661	-0.420260625	-2.0798586487	 0.130218
H	-3.1305177889	-0.9999040262	-1.0714975472	 0.127013
H	-2.5664962915	 0.6633534029	-0.901340136	 0.140525
H	-1.6321413333	-2.9564823151	-0.5145331668	 0.105985
H	 0.0547189939	-2.6324274746	-0.0255343298	 0.136539
H	-2.2629000325	-2.9987399153	 1.915082095	 0.133794
H	-0.6344289547	-2.4411852904	 2.343427009	 0.146117
