14
gdb 53638	4.4541	0.63465	0.55938	4.9524	74.29	-0.2737	-0.0702	0.2036	1872.246	0.097917	-436.687273	-436.677416	-436.676472	-436.724848	31.835	
C	-0.1222128546	 1.4283282383	 0.0118091992	-0.499445
C	-0.0743911162	-0.0252266248	 0.0027139518	 0.146188
C	-0.0361851566	-1.2274235522	-0.0047337545	 0.012996
C	 0.0468438585	-2.6719701914	-0.0137773873	-0.245482
O	-1.3074756724	-3.2191939177	-0.0033529358	-0.222164
C	-1.3688340471	-4.5483150052	-0.0094308474	 0.376169
O	-0.4446396641	-5.3152682718	-0.0223204281	-0.331014
C	-2.771168556	-4.9852584515	 0.0020880506	 0.262817
N	-3.8542888625	-5.3852896927	 0.0106083807	-0.302651
H	 0.8884932554	 1.8502671197	 0.0075437124	 0.159092
H	-0.6484294092	 1.8126824704	-0.8681248872	 0.159238
H	-0.636433105	 1.8019362271	 0.9033882726	 0.159269
H	 0.5597409111	-3.0507588064	-0.9038198317	 0.16248
H	 0.5774512288	-3.0608551118	 0.8613981947	 0.162508
