23
gdb 67032	2.03392	1.94403	1.53953	0.3265	88.42	-0.238	0.0834	0.3214	1053.3182	0.207132	-351.155251	-351.146823	-351.145879	-351.187362	34.472	
C	 0.0025715553	 1.5404362594	-0.0766939517	-0.518081
C	-0.0022322372	 0.0433188628	 0.0012443586	 0.320037
C	 0.4811318121	-1.0231364533	-0.9695526632	-0.119866
C	 1.2266523816	-1.7632576702	 0.1373737433	-0.273365
C	 0.491855788	-0.8600825126	 1.1891600572	 0.279537
C	 1.3551881582	-0.2395455208	 2.2700695816	-0.4893
C	-0.7771326931	-1.5725251525	 1.6900622442	-0.245114
C	-1.5970577363	-1.8555191077	 0.4036311398	-0.243411
C	-0.9974739407	-0.8944159453	-0.6224898799	-0.084389
H	 0.9961950138	 1.9581613146	 0.1238637157	 0.11518
H	-0.2998557076	 1.8779887441	-1.0739386688	 0.116889
H	-0.693763918	 1.9863379289	 0.6444340977	 0.115223
H	 0.8207918205	-0.9003867159	-1.9927790274	 0.072839
H	 1.0839889827	-2.8476401117	 0.2243821014	 0.082639
H	 2.3000618079	-1.55360183	 0.1113784868	 0.092482
H	 2.2167419682	 0.2865020106	 1.8448141995	 0.111859
H	 0.7872101486	 0.4800322483	 2.8714417552	 0.111178
H	 1.7410862948	-1.0071940838	 2.9510162022	 0.113685
H	-0.544461866	-2.4814221121	 2.2561895052	 0.088892
H	-1.3335968752	-0.9043151675	 2.3593207473	 0.088521
H	-1.5084849785	-2.8999606124	 0.0842798698	 0.097283
H	-2.6636968226	-1.6610376287	 0.5523102347	 0.093833
H	-1.6224833464	-0.5153080142	-1.4249662294	 0.073449
