20
gdb 47935	2.21938	1.57558	1.08616	4.5987	75.8	-0.2304	0.02	0.2504	1158.4149	0.173491	-440.309772	-440.301369	-440.300425	-440.342974	32.274	
O	-0.0270534437	-0.0129745041	 0.2419880015	-0.364917
C	-0.0469606728	 1.199890268	 0.1389537287	 0.365837
C	-1.3821809998	 1.957308992	-0.0004140171	-0.17172
O	-1.7116466391	 2.2684188727	-1.340559981	-0.242276
C	-1.1956788098	 3.4671782344	-1.8983059396	-0.071122
C	 0.254934883	 3.3582146006	-2.4087366914	-0.200566
C	 1.3570083325	 3.8652049919	-1.4640235655	-0.197104
C	 1.251579076	 3.3721894355	-0.0122557329	-0.172711
N	 1.1063827376	 1.9353522632	 0.1367050488	-0.280578
H	-2.1434873726	 1.2557431098	 0.3457508653	 0.134161
H	-1.420571052	 2.8552027988	 0.6346749692	 0.094126
H	-1.8585824741	 3.67451348	-2.7438742952	 0.113782
H	-1.3084519326	 4.3025099723	-1.1875305761	 0.085601
H	 0.4240417157	 2.3067628884	-2.6637355192	 0.125281
H	 0.338203863	 3.9159074858	-3.3485871844	 0.101329
H	 2.3320983196	 3.5780183977	-1.8765535478	 0.101763
H	 1.347781623	 4.9629191506	-1.4362452799	 0.100579
H	 2.1432515271	 3.6818485295	 0.5430028776	 0.114113
H	 0.4083787719	 3.8604963395	 0.4835098771	 0.11955
H	 1.9425425172	 1.3684244733	 0.155129422	 0.244873
