21
gdb 105105	3.15012	1.18143	0.98379	2.0212	78.07	-0.2437	0.0774	0.3212	1285.6678	0.181643	-424.189359	-424.18007	-424.179126	-424.224112	34.084	
C	 0.5054384189	 1.7926820317	-0.2047153652	-0.40174
C	 1.0434580447	 0.3635575116	-0.2974559769	-0.247887
C	 0.8424631162	-0.4920674442	 0.9432487528	 0.372819
C	 0.7566424529	 0.0741202979	 2.2961086902	-0.234644
O	-0.423216117	-0.3567315911	 1.6079165894	-0.26479
C	 1.3452860602	-1.91455268	 0.7895467237	 0.088883
C	 0.7777793072	-3.0024333022	 1.7259656757	-0.305422
C	 0.270543171	-3.6545772015	 0.4250232837	-0.060106
O	 0.7816711832	-2.5671525515	-0.3754668836	-0.293793
H	 1.0799057223	 2.4027669601	 0.4998965278	 0.111709
H	 0.5613339057	 2.2828797418	-1.180710329	 0.114505
H	-0.5389136736	 1.7916365879	 0.1183057433	 0.13826
H	 0.5586670571	-0.1659992793	-1.1249822127	 0.132735
H	 2.1158541766	 0.3746753682	-0.5325046434	 0.099952
H	 1.0393921808	-0.5331535519	 3.1559591417	 0.108738
H	 0.8424849359	 1.1478808767	 2.4454228669	 0.117396
H	 2.4432622449	-1.8929057934	 0.7219845177	 0.075248
H	 1.514564595	-3.5726312444	 2.2923192131	 0.105819
H	-0.0116019293	-2.6408546886	 2.3843434261	 0.131391
H	 0.7441044607	-4.6081916486	 0.1607732159	 0.10009
H	-0.8162195535	-3.755778059	 0.3281554828	 0.110837
