19
gdb 17280	4.20362	1.32239	1.12224	2.6189	72.08	-0.2202	0.0942	0.3144	1097.9815	0.164496	-365.002034	-364.993637	-364.992693	-365.035421	30.631	
C	-0.2096926452	 1.5366503607	 0.3081543152	-0.317343
N	-0.0016931979	 0.0994100328	 0.1905620793	-0.071496
C	 1.3169345205	-0.3639094337	-0.22193713	-0.266235
C	 0.8268611165	-0.6081573036	 1.1653849719	 0.034133
C	 1.4826919904	 0.0538646211	 2.3648977979	-0.266305
C	 0.5707024903	 0.1073620766	 3.5704240482	 0.109582
C	 0.6286860354	 1.1958594815	 4.5530258902	-0.185293
O	-0.4270876743	 1.1320540842	 3.5919235637	-0.227002
H	 0.7058652946	 2.1136871475	 0.5153306079	 0.091697
H	-0.6240685815	 1.902353047	-0.6369664026	 0.117302
H	-0.9238530564	 1.7365263292	 1.1104134693	 0.147629
H	 1.3450780162	-1.1643551114	-0.95753779	 0.11137
H	 2.1017062515	 0.3846756984	-0.3392348339	 0.100031
H	 0.440294102	-1.6034254416	 1.3905003305	 0.086053
H	 2.3755135414	-0.5266993653	 2.6357414839	 0.108067
H	 1.8238174017	 1.0648546646	 2.1242448644	 0.105333
H	 0.2039523877	-0.8621850063	 3.9147306277	 0.093755
H	 0.3332150481	 1.0163997344	 5.5858025708	 0.115819
H	 1.3413831592	 2.007626994	 4.4103826257	 0.112903
