23
gdb 73370	2.32387	2.08525	1.52843	0.1233	87.67	-0.2729	0.0853	0.3583	1001.4449	0.209829	-351.168619	-351.161375	-351.160431	-351.19955	31.517	
C	 0.0034864158	 1.4689279499	 0.0159326255	-0.48979
C	 0.0127376828	-0.0507917941	 0.0196021971	 0.355186
C	 0.7021625623	-0.7011479529	-1.1999785658	-0.241628
C	 0.7532280908	-2.2091612198	-0.8236148923	-0.257021
C	 0.4652078151	-2.190824418	 0.6839098444	 0.00998
C	-1.001684981	-1.8528488471	 1.1426958129	-0.030978
C	-0.3596991629	-1.0230954684	 2.2889274526	-0.241374
C	 0.7243581862	-0.7529693429	 1.2235658654	-0.053224
C	-1.3925869053	-0.7323820803	 0.1609748081	-0.25621
H	 1.0201290374	 1.8722412931	-0.0585914537	 0.108093
H	-0.5700235485	 1.8606162883	-0.8322889579	 0.110628
H	-0.4491543618	 1.8682436912	 0.930423193	 0.110468
H	 0.1623828421	-0.5045340424	-2.1323412774	 0.088368
H	 1.7152937338	-0.2977343763	-1.3199831246	 0.087347
H	 0.0131553899	-2.8008034278	-1.3733956391	 0.096267
H	 1.7316240119	-2.6485940383	-1.0398378632	 0.094144
H	 0.9118477813	-2.9980216564	 1.267031423	 0.059628
H	-1.7373621581	-2.6347574076	 1.3388137067	 0.052123
H	-0.9298832959	-0.1805854051	 2.6938262534	 0.083222
H	 0.0140488403	-1.6438450172	 3.1075287183	 0.091347
H	 1.7233312849	-0.3904738437	 1.474794867	 0.049089
H	-2.1447647002	-0.0636355334	 0.5921212297	 0.087558
H	-1.7781565109	-1.0933622709	-0.797775063	 0.086778
