21
gdb 98198	3.04796	1.0225	0.92809	0.4409	75.28	-0.2644	0.0172	0.2816	1367.5309	0.178939	-461.39748	-461.386271	-461.385327	-461.433881	39.412	
C	 0.0283142523	 1.3456975354	 0.0086462576	-0.240353
O	-0.0412347728	-0.0847664651	 0.0018419773	-0.240566
C	-1.2858405184	-0.6050484623	 0.011371499	 0.454692
O	-2.2818421351	 0.07739003	 0.0244316208	-0.378019
C	-1.2552962522	-2.1314552824	 0.0027035374	 0.113047
C	-0.537753368	-2.6236072867	-1.2724738993	-0.418336
C	-0.5137056776	-2.6374413511	 1.2585682756	-0.418343
C	-2.7132853092	-2.6198950172	 0.0138913458	-0.088301
O	-2.6991859699	-4.0411808345	 0.0058601048	-0.431814
H	 1.0903334175	 1.591455394	-0.0003634149	 0.132251
H	-0.4683234603	 1.7607851179	-0.8720997164	 0.139931
H	-0.4511271014	 1.7515028148	 0.9031375924	 0.139932
H	 0.5040716664	-2.2968641753	-1.2842421802	 0.124443
H	-0.5722229427	-3.7144929289	-1.30859237	 0.13771
H	-1.0277406109	-2.2394850522	-2.1737521653	 0.113654
H	-0.9864484009	-2.2632458579	 2.1731344484	 0.113655
H	-0.5475949374	-3.7286597703	 1.2834047264	 0.13771
H	 0.5281880687	-2.3107358408	 1.2541140155	 0.124438
H	-3.2218565049	-2.2289443847	 0.9059045297	 0.097139
H	-3.238725327	-2.2191249264	-0.8638758232	 0.097144
H	-3.6098414863	-4.3476378063	 0.0128201684	 0.289987
