16
gdb 16704	2.88452	2.43471	1.88655	2.5958	59.04	-0.2373	0.0472	0.2845	759.2596	0.132013	-420.846581	-420.839939	-420.838995	-420.876972	26.744	
O	 0.1320065092	 1.5415066967	 0.1236874666	-0.434775
C	 0.0332766464	 0.1329068373	 0.0680264242	 0.102997
C	 0.0541933669	-0.630681837	 1.4065295259	 0.051372
C	-1.0355473382	 0.0426396391	 2.2553314532	-0.263725
C	-2.149289102	 0.1096021547	 1.1535859591	 0.150005
O	-2.6189451135	 1.3964095604	 0.823986336	-0.450723
C	-1.3456956953	-0.5807986401	 0.0218414932	-0.014699
O	-0.6988820745	-1.6861659445	 0.7203041975	-0.29856
H	 0.3026912246	 1.873962371	-0.7627769984	 0.29851
H	 0.7319185577	-0.3088046141	-0.6471363005	 0.096881
H	 0.9747362093	-0.9712579679	 1.8792309211	 0.083429
H	-1.3103372733	-0.579685655	 3.1089030418	 0.110036
H	-0.7608923664	 1.0390870172	 2.6102856223	 0.112909
H	-3.0256523846	-0.4832863728	 1.4225811961	 0.093296
H	-1.8350719539	 1.918831071	 0.6072314017	 0.283512
H	-1.8607315825	-0.859535516	-0.8969402399	 0.079539
