13
gdb 44176	5.83502	1.05714	0.9698	2.6262	64.73	-0.2922	-0.0331	0.2591	1134.8101	0.089493	-452.710191	-452.703036	-452.702092	-452.742303	26.11	
N	-0.1976525406	 1.1371235253	-0.6506704778	-0.528225
C	-0.0834107357	 0.013315574	-0.1228387973	 0.443225
O	 1.0397821124	-0.6603984844	 0.3756264045	-0.266721
C	 0.2615369955	-1.8388782009	 0.6819886499	 0.048012
C	-0.3616290627	-1.763402358	 2.0980754252	-0.0544
O	-1.5112788482	-1.0496613049	 1.5814851006	-0.281224
C	-1.0253267189	-1.130481562	 0.2185180924	-0.018265
C	-0.7339043937	-3.0505976534	 2.6840195759	 0.292018
N	-1.004733277	-4.0828118121	 3.1263802313	-0.302813
H	 0.6901594075	 1.6402072434	-0.6934029529	 0.24404
H	 0.7039581713	-2.7603145611	 0.3134803069	 0.138266
H	 0.2172309279	-1.1704897857	 2.813485852	 0.152951
H	-1.7764712277	-1.4646572402	-0.4941853007	 0.133137
