16
gdb 58403	2.12388	1.18958	0.79802	4.9725	67.43	-0.2978	-0.0235	0.2743	1366.363	0.120684	-475.044268	-475.03423	-475.033286	-475.080536	34.053	
C	 0.0088803499	 1.5371759029	 0.0998403323	-0.430347
C	 0.0326734472	 0.0134324389	 0.0762924544	 0.118543
O	-1.2524987547	-0.5615092017	 0.1912624175	-0.414588
C	 0.7155314178	-0.5231447733	-1.2076984686	-0.074661
O	 2.0615106918	-0.0386653211	-1.2283719569	-0.183582
C	 2.656530642	 0.1194226652	-2.4402951427	 0.180641
O	 3.7698277303	 0.5238816774	-2.5477500682	-0.250367
C	 0.703779814	-1.9939934332	-1.2532176365	 0.305465
N	 0.7209348469	-3.147052301	-1.3113050284	-0.303628
H	 1.019168923	 1.949145808	 0.0548417205	 0.154726
H	-0.5591790281	 1.9314659777	-0.7530064743	 0.11208
H	-0.4713256303	 1.8797077764	 1.0195750347	 0.142791
H	 0.6060974629	-0.3647380646	 0.9287441031	 0.130631
H	-1.8609523169	-0.0739546745	-0.3755151107	 0.289225
H	 0.1661818292	-0.1482467479	-2.0833807111	 0.124783
H	 1.9958457949	-0.1559585993	-3.2836356749	 0.098289
