21
gdb 103902	3.3986	0.79597	0.72415	3.262	80.77	-0.249	-0.0245	0.2245	1631.1421	0.178652	-424.227163	-424.216578	-424.215634	-424.264033	37.278	
C	 0.6048209583	 1.2763803635	 0.3856420124	-0.380086
C	-0.2628826391	 0.1556959652	-0.2041837494	-0.252901
C	 0.3623699919	-0.4919539699	-1.4286840394	 0.404081
C	 0.3888142	 0.3629100044	-2.6807633778	-0.461743
O	 1.5894805672	-1.2099051578	-1.1843440267	-0.299435
C	 0.4400671944	-1.959297293	-1.5993940592	-0.015903
C	-0.0821106932	-3.0053874338	-0.6363186005	-0.318964
C	 0.8641603634	-4.1904041376	-0.5597825765	 0.161308
O	 0.532618016	-5.3387454579	-0.701896668	-0.23774
H	 1.5967422552	 0.8936503344	 0.64239364	 0.136164
H	 0.733686173	 2.1072417109	-0.3144055489	 0.119821
H	 0.1473629502	 1.6787540331	 1.2939858711	 0.11588
H	-0.4382553168	-0.5962235502	 0.5696901626	 0.101962
H	-1.2476320936	 0.5499706866	-0.48472976	 0.102701
H	 0.9296730674	 1.2978355751	-2.5056409953	 0.131499
H	 0.8869059321	-0.1648751628	-3.49742077	 0.129136
H	-0.6285428651	 0.6168645595	-2.9971925554	 0.12239
H	 0.5051415105	-2.3179041417	-2.6298853532	 0.094347
H	-0.1554015803	-2.5852371986	 0.3731976812	 0.126494
H	-1.0697038128	-3.3649634456	-0.9410653688	 0.124456
H	 1.9214275314	-3.9131094838	-0.3538480484	 0.096534
