17
gdb 28805	3.42564	1.2372	0.91406	4.7318	90.29	-0.2294	-0.0732	0.1562	1243.6623	0.137633	-384.744797	-384.73688	-384.735935	-384.777538	29.927	
C	-0.1732790707	 1.5156195751	 0.0600149447	-0.483416
C	-0.0348066687	 0.0129877603	-0.0215668229	 0.244446
C	-0.1010202327	-0.6016497632	-1.2370226092	-0.150606
C	 0.0019973196	-1.9918652133	-1.5550070261	-0.062493
C	 0.1905299601	-3.0738429221	-0.7593167419	-0.172498
C	 0.3510089353	-3.1704983036	 0.6943559166	 0.315999
O	 0.5130180785	-4.2691850193	 1.2196446425	-0.3715
C	 0.3213969198	-1.967526825	 1.540275034	-0.152761
C	 0.1618133466	-0.6570280688	 1.2384173299	-0.10866
H	 0.7185056741	 1.9665818737	 0.5113693983	 0.139857
H	-0.3201115388	 1.9633302146	-0.9249438042	 0.129504
H	-1.0230860087	 1.7962075872	 0.6936078396	 0.13984
H	-0.2537809306	 0.0467033447	-2.0962813668	 0.096124
H	-0.0875415246	-2.2055570988	-2.6183972626	 0.10649
H	 0.236501741	-4.0497387776	-1.2358815042	 0.114375
H	 0.4554832434	-2.2232375876	 2.588665798	 0.115394
H	 0.1847123465	 0.0181055837	 2.0928625144	 0.099904
