21
gdb 39641	4.19029	0.93489	0.87713	1.8114	85.26	-0.2314	0.0213	0.2528	1401.7227	0.184405	-387.083117	-387.074643	-387.073699	-387.117509	31.403	
C	-0.0042465256	 1.4943259004	-0.1704280575	-0.08385
O	 1.3908718454	 1.6062058065	 0.1670112551	-0.272856
C	 1.4703627733	 0.2082412902	 0.5009901173	-0.083116
C	 0.0107808181	-0.0472477571	 0.0304978645	-0.156178
C	-0.9572961909	-0.6676300698	 0.979895084	 0.356315
C	-1.7151853563	-1.7410165689	 0.7357420704	-0.185558
C	-2.6201695752	-2.096890157	 1.8886737937	-0.244207
C	-2.0482053739	-1.2436746372	 3.0493893261	-0.205907
C	-1.2440228406	-0.1107078609	 2.3652064818	-0.308676
H	-0.6414380739	 2.0463059161	 0.5324347829	 0.09956
H	-0.2136210903	 1.843038891	-1.1885568719	 0.102175
H	 2.2529223375	-0.3095882951	-0.0661495149	 0.102487
H	 1.6464709859	 0.0497786594	 1.5729511715	 0.098706
H	-0.016082755	-0.580371065	-0.9226232347	 0.078284
H	-1.7196650942	-2.286371574	-0.2029309197	 0.083298
H	-3.6624047331	-1.8303952837	 1.659420371	 0.104604
H	-2.6244076298	-3.168675227	 2.1176051087	 0.101694
H	-2.8211706959	-0.8672331007	 3.72402444	 0.096655
H	-1.3683148662	-1.8581272426	 3.6482053397	 0.105192
H	-0.3388847882	 0.1550687225	 2.9226702127	 0.105605
H	-1.8338025512	 0.8139167028	 2.2883922894	 0.10577
