18
gdb 83136	2.02808	1.81596	1.4673	3.2381	71.42	-0.2447	0.0098	0.2545	1010.2533	0.148743	-439.115797	-439.107381	-439.106437	-439.148441	31.961	
C	-0.1054944415	 1.5554495542	-0.0179176572	-0.43213
C	 0.0571590088	 0.0506516689	-0.0001798889	-0.031885
C	 1.3571145685	-0.6683272816	-0.2337512664	-0.127618
C	 2.6309176718	 0.1306436227	-0.0292522117	-0.107506
O	 2.605269775	 0.6227470857	 1.3257829508	-0.227026
C	 1.5932965825	 0.0519011441	 2.0427535076	 0.381623
O	 1.5008691988	 0.1731381115	 3.23168542	-0.350956
C	 0.6965214137	-0.7415706176	 1.1304050037	 0.139208
N	 0.0128818328	-1.8972709956	 1.6239137975	-0.582607
H	 0.7521369094	 2.0759206433	 0.4152787474	 0.141902
H	-0.2307380992	 1.9131109106	-1.0456711653	 0.122453
H	-0.9941280673	 1.8541776193	 0.5472535662	 0.129441
H	-0.7944306077	-0.4965162594	-0.3965183568	 0.107296
H	 1.3831247667	-1.5321211317	-0.8860797603	 0.108823
H	 3.5232578904	-0.49310454	-0.1485878473	 0.123533
H	 2.7197482243	 0.9953485359	-0.6943471898	 0.124408
H	 0.6644390603	-2.5113763607	 2.1057311828	 0.236747
H	-0.6670576371	-1.6116984797	 2.324103648	 0.244294
