19
gdb 12136	4.74814	1.52335	1.39728	1.422	76.31	-0.2399	0.092	0.3319	970.1523	0.165838	-327.876133	-327.868585	-327.867641	-327.907507	29.893	
C	 0.0499022955	 1.5312905111	 0.0000956687	-0.48119
C	-0.0476514063	 0.0384963019	 0.0860650499	 0.35439
C	-1.3542038779	-0.7859292908	 0.032456557	-0.384339
C	-0.7019828775	-1.7899660443	 1.009807164	 0.385105
C	-1.3619340052	-2.4448919762	 2.1827069821	-0.332754
C	-0.8152022551	-3.2880353443	 1.0487359279	-0.327885
C	 0.5644443586	-0.9559482685	 1.0378732321	-0.175004
N	 1.0964393887	-0.7781445205	-0.31560531	-0.360942
H	 1.0675952213	 1.8590502346	 0.2273317518	 0.131708
H	-0.1979151752	 1.8828410859	-1.0089286969	 0.118939
H	-0.6402191512	 2.0138343019	 0.7004942643	 0.114871
H	-2.208131273	-0.2650916105	 0.4763196322	 0.106038
H	-1.6414962243	-1.1557341529	-0.9589300796	 0.092116
H	-0.8280007694	-2.4581551098	 3.1279655426	 0.113659
H	-2.4391682572	-2.3566048279	 2.2836435633	 0.111478
H	-1.5280137083	-3.7651307466	 0.3834881757	 0.111882
H	 0.0824797635	-3.8705255928	 1.2310666153	 0.114148
H	 1.234421697	-0.8138518462	 1.8797077235	 0.085925
H	 0.840772046	-1.5515155841	-0.9282241639	 0.221855
