19
gdb 37276	4.42495	1.56532	1.51364	0.3363	82.13	-0.2171	0.0119	0.229	931.2515	0.163035	-348.704437	-348.698451	-348.697507	-348.734226	27.066	
C	-0.0292021242	 1.5177842415	-0.0149127007	-0.302238
C	 1.3039468016	 0.8073677169	-0.0355955334	-0.053829
C	 0.0132543105	 0.0080505908	-0.0511255388	-0.053829
C	 0.1488747294	-0.7031400983	-1.3940419265	-0.018177
C	 1.6640206205	-1.188838044	-1.430226411	-0.063068
C	 1.8968430892	-1.5363922257	-2.8912597171	-0.110031
C	 1.2875653245	-0.5400102485	-3.5387352834	-0.111814
C	 0.7311236235	 0.3368519268	-2.4239069231	-0.082392
C	 1.9035121032	 0.3834968871	-1.3729316095	-0.018176
H	-0.3126760594	 1.9570282138	 0.9368205171	 0.105527
H	-0.371490772	 2.0871298875	-0.8710668586	 0.112526
H	 1.9435811921	 0.8490052843	 0.8385745818	 0.084392
H	-0.3241312394	-0.5553671621	 0.8112956653	 0.084392
H	-0.6458304331	-1.3809756479	-1.7117760411	 0.059183
H	 2.0567258039	-1.8381929261	-0.6459718012	 0.054461
H	 2.4317842212	-2.3926885922	-3.2766938543	 0.098049
H	 1.1858431689	-0.355172349	-4.5986727579	 0.098203
H	 0.180556121	 1.2314770597	-2.7120492749	 0.057639
H	 2.8697886085	 0.7962208754	-1.6694795729	 0.059183
