21
gdb 122088	2.78499	0.76227	0.62083	2.069	82.67	-0.2553	0.0567	0.312	1819.1003	0.178626	-424.178206	-424.1669	-424.165956	-424.215669	39.224	
C	 0.0160153477	 1.503383675	 0.0912288857	-0.385631
C	 0.041940985	-0.0143765034	 0.0345912697	-0.029555
O	 0.690778298	-0.4982598586	 1.194393049	-0.245572
C	 0.7715996539	-1.9042226894	 1.2443683856	-0.074668
C	 1.4841830014	-2.3066234305	 2.5462717894	-0.177991
C	 0.6956560169	-1.8383285283	 3.7789520407	-0.071837
O	 1.5001934222	-2.0702219836	 4.9213683851	-0.41862
C	 1.715342748	-3.748357774	 2.5595042514	 0.327894
C	 1.8733061852	-4.9393994431	 2.5314243531	-0.467563
H	 1.0330622937	 1.9029028393	 0.1357275343	 0.128718
H	-0.4786625524	 1.9090705896	-0.7962302401	 0.116375
H	-0.5255775928	 1.8456543445	 0.977693707	 0.125738
H	-0.9827853963	-0.4188639417	-0.0226947016	 0.08744
H	 0.5739431535	-0.3600570005	-0.8677323885	 0.088997
H	-0.233651933	-2.3572198206	 1.2108138977	 0.094825
H	 1.3344358038	-2.2963861333	 0.3834058701	 0.102327
H	 2.4506958498	-1.7869379172	 2.5696927671	 0.123358
H	 0.4653901108	-0.7729913679	 3.6505816277	 0.106703
H	-0.2536008396	-2.3945263339	 3.830691975	 0.087912
H	 1.0115769202	-1.7780181259	 5.6960012961	 0.287997
H	 2.031044994	-5.9893102566	 2.5257886854	 0.193152
