18
gdb 128658	2.304	1.48875	0.91666	1.5723	77.74	-0.1806	0.0349	0.2156	1268.4633	0.147961	-435.270993	-435.261318	-435.260374	-435.305914	33.889	
C	-0.0155125929	 1.3568794225	 0.1028040434	-0.232281
O	-0.0133756599	-0.0651473521	 0.0722918822	-0.280222
C	 0.6270704727	-0.6694552758	 1.0955478992	 0.426961
N	 1.2432692902	-0.0234433919	 2.0753669975	-0.376306
N	 1.7658464924	-1.0074401611	 2.8453628558	 0.030404
C	 2.3994983574	-0.6725468796	 4.0960537596	-0.315976
C	 1.4500250596	-2.2488759706	 2.3763399968	-0.084354
C	 0.7168570341	-2.0770487645	 1.2200938768	 0.047295
N	 0.1270187512	-3.0327425409	 0.3694601746	-0.62281
H	 1.0058338546	 1.7520799062	 0.0759633158	 0.129723
H	-0.5670848454	 1.6788120305	-0.7819606952	 0.122668
H	-0.5057898899	 1.7288757167	 1.0089839984	 0.13093
H	 1.6657446828	-0.4761635713	 4.8877335487	 0.134256
H	 3.0404671569	-1.5012540401	 4.4061440523	 0.13207
H	 3.0114925836	 0.221248211	 3.9575474207	 0.147353
H	 1.7755670569	-3.143308353	 2.8837256692	 0.121167
H	 0.772419112	-3.7654729735	 0.0996016621	 0.240104
H	-0.2180407463	-2.5847395125	-0.471086868	 0.249019
