20
gdb 88363	2.18667	1.38456	1.13102	5.0792	79.14	-0.2699	0.0452	0.3151	1192.1462	0.168949	-403.145788	-403.135832	-403.134888	-403.180409	37.199	
C	 0.0950787588	 1.4991084735	 0.0100420516	-0.405102
C	-0.0248446195	-0.0441781203	 0.0622205756	 0.066453
C	 0.5734284508	-0.552843296	 1.3928009528	-0.427852
C	-1.4594236993	-0.3911568189	 0.026396579	 0.28927
N	-2.5882577648	-0.6379746902	-0.0057763279	-0.351372
C	 0.6246668863	-0.6229867545	-1.2072126022	-0.015345
C	 2.0488176538	-1.1422809995	-1.2616456068	-0.357955
C	 0.8811969371	-2.0780581381	-1.4691863078	 0.093258
O	 0.5383615979	-2.9961125205	-0.4733193301	-0.408483
H	 1.1525848648	 1.779153706	-0.0017653172	 0.124233
H	-0.3818116017	 1.904574585	-0.8862243675	 0.130626
H	-0.3772652271	 1.9543396339	 0.8845044785	 0.130742
H	 0.0186231965	-0.1241205377	 2.2316021648	 0.12791
H	 0.5323230643	-1.6390341746	 1.4556935249	 0.156453
H	 1.614298396	-0.2272085598	 1.4768330285	 0.116847
H	 0.3041995204	-0.0781483507	-2.091179246	 0.102594
H	 2.6736739722	-0.8665336063	-2.1042224015	 0.116891
H	 2.5784083937	-1.2500980555	-0.321905328	 0.121851
H	 0.6852782678	-2.4249607944	-2.4834185973	 0.09649
H	 1.169594972	-3.7226003714	-0.5055970834	 0.292489
