12
gdb 5349	5.85236	1.5727	1.23959	3.8666	69.67	-0.2792	-0.0668	0.2123	885.3539	0.087293	-340.458164	-340.452186	-340.451241	-340.488381	22.163	
N	-0.0011843391	-1.1606114668	-0.0029142371	-0.323714
C	-0.0003487503	-0.0030140041	 0.0030263019	 0.213582
C	-0.003742613	 1.4255748115	 0.0104412552	 0.12888
C	-1.2157619722	 2.1326355244	 0.0301143091	-0.039123
N	-1.2880689427	 3.4602786338	 0.0379173227	-0.255818
C	-0.1384948524	 4.1420791918	 0.0262353876	 0.017607
C	 1.1180031933	 3.5395445673	 0.0065058991	-0.110432
C	 1.190864586	 2.1547435019	-0.0015967945	-0.152826
H	-2.1561012047	 1.5884634101	 0.0397429572	 0.138174
H	-0.2267807532	 5.2255089624	 0.0329790189	 0.126695
H	 2.0167989626	 4.1449496137	-0.002264728	 0.120557
H	 2.1435932658	 1.638253904	-0.0168600822	 0.13642
