18
gdb 84244	2.51982	1.9787	1.36473	3.2926	77.58	-0.2227	-0.0478	0.1748	972.8602	0.147259	-397.984958	-397.977102	-397.976158	-398.01668	31.729	
C	-0.0971488757	 1.5349330849	-0.0665054336	-0.386585
C	 0.0223194245	 0.0154474368	-0.0412964038	-0.025133
N	 0.9680130151	-0.3960997276	-1.1157342174	-0.16203
C	 1.6354890864	-1.3540013411	-0.6105297796	 0.120466
N	 3.024461086	-1.0493304422	-0.2134897372	-0.352448
C	 2.2830907583	-1.0304454689	 1.1594231771	-0.039182
C	 1.1902500513	-1.9422337899	 0.7674676503	-0.204615
C	 0.7260248204	-0.5968165328	 1.2117397888	 0.293281
N	 0.2511979649	-0.4160662521	 2.5484393331	-0.596896
H	 0.8941083631	 1.9947597784	-0.0285913772	 0.133878
H	-0.5922600387	 1.8657865958	-0.9829032463	 0.128891
H	-0.687568504	 1.8852393086	 0.7880448414	 0.09892
H	-0.9828960776	-0.431464128	-0.1212621504	 0.072294
H	 3.568698804	-1.9169061971	-0.1403240325	 0.222831
H	 2.8728705836	-0.9882843905	 2.0685813553	 0.118071
H	 0.8985105185	-2.9406169144	 1.0671546228	 0.104645
H	 0.2350336263	 0.5673165545	 2.8000460884	 0.239224
H	-0.6952542865	-0.7719916045	 2.6491355209	 0.234388
