21
gdb 11563	4.81725	0.9371	0.88585	1.2073	75.62	-0.2343	0.0737	0.308	1367.7496	0.187562	-366.225915	-366.21648	-366.215536	-366.260429	34.177	
C	-0.2212666121	 1.475831091	-0.0624064066	-0.402699
C	 0.0899160068	-0.0231869624	 0.0236550949	 0.014223
C	 0.7803192518	-0.5375808288	-1.2477781576	-0.067199
O	-0.0040676595	-0.3865192038	-2.4200801159	-0.42478
C	 0.950462556	-0.3497791048	 1.2518076272	-0.146717
N	 0.2611289907	-0.0143365658	 2.4937488312	-0.059371
C	-0.5597867398	-1.0670305598	 3.0826349119	-0.219533
C	 0.7387924328	-0.6784247256	 3.6992795162	-0.2208
H	 0.6927739768	 2.0558725272	-0.2452235523	 0.105703
H	-0.9303728473	 1.6918463543	-0.8684052877	 0.103752
H	-0.6571387377	 1.8298663636	 0.8741284036	 0.139795
H	-0.8574882592	-0.5709891222	 0.1201097842	 0.082733
H	 1.761277445	-0.0445365869	-1.3604041652	 0.081627
H	 0.9692199156	-1.6132284102	-1.1594758482	 0.104641
H	-0.0820869397	 0.5542464454	-2.60368113	 0.284061
H	 1.2423311601	-1.4169959702	 1.2259862752	 0.07429
H	 1.8796992022	 0.2349608589	 1.2202610358	 0.099056
H	-1.5001593279	-0.7480961524	 3.5227935892	 0.11701
H	-0.5982553115	-2.029501387	 2.5736261119	 0.109505
H	 1.5632670284	-1.38348169	 3.6007899138	 0.108021
H	 0.7661949983	-0.0694366706	 4.5984834286	 0.116682
