23
gdb 113081	2.01244	1.2323	0.99116	0.7686	82.42	-0.2431	0.0781	0.3212	1359.3471	0.204085	-425.400777	-425.390302	-425.389358	-425.436225	38.233	
C	-0.9516804131	 0.6397906062	 0.3285561517	-0.235721
O	-0.2166939073	-0.5546018925	 0.1933945887	-0.241499
C	 0.9185747596	-0.6120642605	 1.0338496246	 0.119243
C	 0.5990546526	-1.0210590636	 2.5015112126	-0.254126
C	 0.9486706858	-2.4943231564	 2.1454156218	 0.005008
C	-0.2763358338	-3.3647266164	 1.9170441323	-0.093819
O	-0.8902809857	-3.5716400114	 3.1851869604	-0.427529
C	 1.6548509098	-1.9678982856	 0.8518278205	-0.012408
C	 1.5446599115	-2.7056660357	-0.4758286292	-0.411294
H	-0.3350426736	 1.5207821636	 0.0898254966	 0.103698
H	-1.7858138719	 0.590716791	-0.3758450814	 0.124059
H	-1.3540886281	 0.7694232054	 1.3440831564	 0.108161
H	 1.523107033	 0.2972827269	 0.8952900863	 0.052939
H	 1.2950198632	-0.5775987912	 3.2183442767	 0.094963
H	-0.4217854192	-0.8429986909	 2.8469134547	 0.109727
H	 1.6036308247	-3.00466719	 2.857599243	 0.068505
H	-0.9644160602	-2.8649036356	 1.2205303863	 0.100024
H	 0.023038307	-4.3232947901	 1.4630763707	 0.080278
H	-1.7055465444	-4.061401584	 3.04436745	 0.283667
H	 2.7125091469	-1.8043287043	 1.0865318645	 0.074077
H	 0.5051536794	-2.8283544023	-0.7868757511	 0.130727
H	 2.0594418557	-2.1515578924	-1.2680837961	 0.111968
H	 2.0073635677	-3.6963795199	-0.4104091299	 0.109351
