18
gdb 89279	2.30402	1.79955	1.19847	2.9801	72.93	-0.2644	0.0131	0.2775	1059.3888	0.146993	-439.076081	-439.067721	-439.066777	-439.108827	32.28	
C	-0.1997173783	 1.6312407129	 0.2656835853	-0.485133
C	 0.0525024489	 0.1612137658	 0.1032348819	 0.430119
C	-1.095621824	-0.858127408	-0.0964795264	-0.320787
C	-0.4506430165	-1.789208612	 0.9915173417	 0.149824
O	-0.1730826271	-3.1252808194	 0.6958100575	-0.433066
C	 0.7483305111	-0.7967830985	 1.1197818044	-0.263214
C	 1.7338896654	-1.000143868	-0.0010842577	 0.405759
N	 2.7180708519	-1.7676439335	-0.1649842291	-0.55159
O	 1.1309998137	-0.12209291	-0.8709546896	-0.288418
H	 0.7209718978	 2.1607120759	 0.5269552994	 0.133635
H	-0.5893306292	 2.0563950785	-0.6654883253	 0.13821
H	-0.9394642147	 1.8054269676	 1.0529987345	 0.12847
H	-2.0870498471	-0.4874910691	 0.1737408117	 0.110093
H	-1.1280514597	-1.2790203197	-1.1031001976	 0.120076
H	-1.0531778834	-1.783956281	 1.9041562158	 0.09726
H	 0.6637908081	-3.1665363295	 0.2141373747	 0.296515
H	 1.1317597675	-0.5331101692	 2.1032584814	 0.102313
H	 3.1142035856	-1.6665149329	-1.1018881124	 0.229933
