16
gdb 38923	3.29208	1.79598	1.2925	0.5827	69.7	-0.2283	0.005	0.2334	937.2676	0.126377	-437.845457	-437.838846	-437.837902	-437.876346	26.473	
C	 0.0338054351	 1.448673665	 0.0697161629	-0.367225
C	 1.3316822293	 0.703598621	 0.0132991719	 0.037021
O	 1.6547884716	 0.1074386382	 1.2799754291	-0.300446
C	 0.458418053	-0.7143200156	 1.2118423862	 0.032626
C	 0.7774841597	-2.1728506412	 0.8956937707	-0.10128
O	-0.2666759581	-2.7607452989	 0.0940615228	-0.228898
C	-0.7364398318	-2.0123219079	-0.9353844641	 0.10296
N	-0.6224227024	-0.7603649797	-1.1232333278	-0.337732
C	 0.0113548496	-0.0521580651	-0.081918313	 0.322475
H	-0.2858233658	 1.9260408987	 0.9925345652	 0.116162
H	-0.2254322455	 1.9706533414	-0.8464333946	 0.131101
H	 2.1376627009	 0.8761811026	-0.6894086572	 0.115557
H	-0.1717340829	-0.6017729239	 2.1000117772	 0.092768
H	 1.7220823032	-2.21567577	 0.3423328499	 0.128736
H	 0.8558355032	-2.8009652945	 1.7843648568	 0.126848
H	-1.2787838892	-2.6370498801	-1.640748396	 0.129325
