16
gdb 128186	3.87672	1.12867	0.8807	5.8347	81.13	-0.2076	-0.0567	0.1509	1271.9419	0.124618	-434.044559	-434.036128	-434.035183	-434.078009	30.871	
C	 0.0576193593	 1.4896558853	 0.0660438993	-0.333405
N	-0.0971453189	 0.0561862058	-0.0979580258	-0.377528
C	 0.5348363322	-0.6914301216	-1.0557004661	 0.359581
C	 0.5996875744	-2.0489247686	-1.0414651381	-0.280582
C	 1.2406084645	-2.7706757772	-2.1055363809	 0.409911
N	 1.3334757971	-4.0371978301	-2.1605888871	-0.548753
O	 1.7981167712	-1.9995841812	-3.1409235137	-0.28985
N	 1.7488027247	-0.6240183495	-3.1633820255	-0.06462
C	 1.1586428447	-0.0282093535	-2.1901052255	-0.012316
H	 1.09882376	 1.7959006628	 0.2383777678	 0.134139
H	-0.3245263281	 2.0345473107	-0.8036458024	 0.145016
H	-0.5340546744	 1.8009571378	 0.9287224217	 0.140741
H	-0.3945644289	-0.4535343372	 0.7180197365	 0.25285
H	 0.1742495535	-2.6467040654	-0.2443172514	 0.112029
H	 1.8309503425	-4.3241757732	-3.003784429	 0.221035
H	 1.1594703663	 1.0524154751	-2.2783934398	 0.131752
