16
gdb 66744	2.52461	2.37608	1.84176	1.2882	74.49	-0.214	-0.0548	0.1593	811.6297	0.124323	-400.601759	-400.595148	-400.594204	-400.632134	27.688	
O	-0.0010505001	 1.5182678219	-0.2066438355	-0.48768
C	-0.0121253147	 0.1424745846	-0.1253626748	 0.377728
C	-1.19706675	-0.8533984867	 0.086489193	-0.150112
C	-0.3085141237	-1.6496400434	 0.9521726483	-0.071868
N	-0.3398748691	-1.8735927567	-0.600652256	-0.176725
C	 0.559177677	-0.7415361893	-1.2106799749	 0.002274
C	 2.092401322	-0.7389835169	-0.9317040827	-0.274456
C	 2.0590517231	-0.8931209823	 0.5900914959	-0.094262
C	 0.7935312391	-0.6274891585	 0.9806056858	-0.064309
H	 0.0641620042	 1.8768153133	 0.6861330497	 0.285003
H	-2.271912763	-0.8002963669	-0.0286535144	 0.099899
H	-0.4920414405	-2.5394710652	 1.5405804924	 0.108438
H	 0.2452815135	-0.6161587072	-2.2490818811	 0.08498
H	 2.6398791611	-1.5924498362	-1.3471282496	 0.122936
H	 2.5379309082	 0.1687923106	-1.3590246283	 0.12914
H	 2.7178677428	-1.5921749611	 1.0961492722	 0.109013
