10
gdb 23801	4.20078	1.89568	1.30622	0.1837	52.25	-0.2747	-0.093	0.1817	800.522	0.061158	-454.746596	-454.740799	-454.739855	-454.776767	21.335	
F	 0.0554609011	 0.0784278338	 0.002634496	-0.041771
C	-0.0396225311	 1.3912966399	 0.0111742411	 0.427736
C	-1.2480706055	 2.0026732307	 0.0308519732	-0.423887
C	-1.2666133902	 3.4447852321	 0.0382615149	 0.496939
O	-2.2114909225	 4.2016144754	 0.0565235958	-0.370708
N	 0.0611833242	 3.953498896	 0.023692414	-0.262694
N	 1.2099022327	 3.2870415576	 0.0044162506	-0.018613
N	 1.1810268104	 2.009107584	-0.0023712629	-0.254315
H	-2.1783558779	 1.451290982	 0.0408019102	 0.154937
H	 0.1670979089	 4.9613102283	 0.0282334371	 0.292376
