16
gdb 77203	3.63125	1.04773	0.90463	3.4643	76.5	-0.2552	-0.0026	0.2526	1259.1376	0.124305	-396.871967	-396.863045	-396.862101	-396.90596	32.7	
N	 0.0162255335	 1.3957431676	 0.1944627425	-0.501663
C	 0.0697327151	-0.0273523308	 0.0087298591	 0.005109
C	-1.34787988	-0.6715645668	-0.1585797897	-0.163895
N	-1.1007559732	-0.7633945617	-1.6277370217	-0.309618
C	 0.3568450617	-0.6127335832	-1.439358388	-0.16657
C	 1.0211283378	 0.277834145	-2.3847489019	 0.295333
N	 1.56433736	 1.014945181	-3.09068475	-0.323828
C	-1.5270463397	-1.9435472556	 0.5236978616	 0.325498
C	-1.6673626045	-3.0131791564	 1.0557686784	-0.450548
H	 0.9488908342	 1.7962496108	 0.2102362264	 0.246484
H	-0.4866306883	 1.8449225002	-0.5658822368	 0.250703
H	 0.6895297024	-0.4753144914	 0.7848460561	 0.112336
H	-2.1652652751	 0.0138849115	 0.0896232064	 0.118748
H	-1.3924001377	-1.63211714	-2.0624819259	 0.236335
H	 0.9136870935	-1.5569440437	-1.3822110711	 0.118319
H	-1.8011817997	-3.9510074964	 1.5365092148	 0.207256
