19
gdb 60037	2.40575	1.04614	0.83377	2.432	74.01	-0.2494	-0.0516	0.1978	1430.9836	0.153662	-460.172392	-460.161814	-460.16087	-460.209026	36.44	
C	 0.2929130083	 1.4281219534	-0.1380060059	-0.390371
C	 0.0224624451	-0.0541583642	 0.1188298704	 0.150279
C	 0.4925445709	-0.5158539611	 1.4907581309	-0.394982
O	-1.3943232484	-0.312933975	 0.0681236944	-0.265298
C	-1.9292224733	-0.5703822852	-1.1881992518	-0.068343
C	-1.6746211915	-2.0014361277	-1.6905333131	 0.145225
O	-0.9408856199	-2.7754033041	-1.139956463	-0.230506
C	-3.4377446845	-0.3265181338	-1.1303916366	 0.126202
O	-4.1713827632	-0.4932377454	-2.0678766045	-0.243658
H	 1.3686558395	 1.6292527488	-0.1200591623	 0.121115
H	-0.0859363936	 1.7458044005	-1.1151057142	 0.113019
H	-0.1877161944	 2.0413688445	 0.6306059269	 0.125688
H	 0.5188557457	-0.6610588281	-0.6480217251	 0.090222
H	-0.0293432774	 0.0374651006	 2.2781231803	 0.122175
H	 0.2848491933	-1.5808539208	 1.6157569816	 0.138133
H	 1.5675493348	-0.3487357081	 1.6054297971	 0.115121
H	-1.5442784694	 0.099749898	-1.9799555989	 0.118968
H	-2.2365196996	-2.2526090623	-2.6145119049	 0.113511
H	-3.7857904524	 0.0053911499	-0.1299447814	 0.1135
