19
gdb 53603	3.59281	0.8139	0.69838	2.4261	85.3	-0.2309	-0.0178	0.2131	1649.0106	0.156711	-385.878119	-385.868076	-385.867132	-385.915511	34.66	
C	-0.185463197	 1.5519036086	-0.0053111937	-0.497227
C	-0.0780291365	 0.1024048079	-0.0865541114	 0.083408
C	 0.0157423122	-1.0964271808	-0.1389370692	 0.065382
C	 0.1027936583	-2.5501214977	-0.2112350868	-0.378785
C	-1.2256089218	-3.2559907195	 0.0977783226	-0.075244
C	-1.2893793449	-4.8162894025	 0.0592793158	-0.262076
C	-2.0651836819	-4.8303995171	 1.4105301469	-0.334886
C	-1.6891490136	-3.3461510986	 1.5667368197	 0.392132
O	-1.646290305	-2.5950503897	 2.496155595	-0.286517
H	 0.7991391271	 2.0173231808	 0.1152755931	 0.146487
H	-0.6407770651	 1.9720179509	-0.9091112759	 0.143501
H	-0.8012287769	 1.8553561323	 0.8485387053	 0.152101
H	 0.4309132426	-2.8535733293	-1.2146641073	 0.128659
H	 0.8718598739	-2.9149191409	 0.4827632616	 0.127426
H	-2.0265309439	-2.8162642533	-0.5081494382	 0.111225
H	-1.7989373019	-5.2552412147	-0.7991142311	 0.11005
H	-0.2974372959	-5.2670365165	 0.149806528	 0.113122
H	-3.1455254069	-4.9601335821	 1.2883919251	 0.132244
H	-1.7221480628	-5.5007111379	 2.2021544906	 0.128997
