19
gdb 112668	3.30986	1.06594	0.85716	3.4302	72.04	-0.2702	0.0042	0.2744	1361.7835	0.158948	-460.217184	-460.208187	-460.207242	-460.251234	33.248	
C	 0.0916653631	 1.5915737848	-0.0219741524	-0.390131
C	-0.0461619279	 0.0669214266	-0.0225815926	-0.186109
C	 0.6393518368	-0.6042390861	-1.2020523927	 0.125384
C	 0.540219031	-2.138751519	-1.2467046911	-0.273323
C	 0.5876385959	-2.4150120129	-2.7472706557	 0.012264
O	-0.0575631129	-3.5898667415	-3.1546797941	-0.43733
C	-0.098857196	-1.1722823328	-3.3124703973	 0.405238
O	-0.6717773755	-1.1077278802	-4.3653608868	-0.359239
O	 0.0021639033	-0.1543857274	-2.4372451845	-0.228267
H	 1.1434194838	 1.8941275036	 0.0278259574	 0.116301
H	-0.3390981716	 2.0200933271	-0.9305899823	 0.143177
H	-0.4222501432	 2.0287717445	 0.8386560628	 0.119054
H	 0.3873481554	-0.354601427	 0.8932796775	 0.106917
H	-1.1044506035	-0.2202720968	-0.0313883171	 0.11222
H	 1.6884285565	-0.283654706	-1.256544332	 0.093465
H	 1.3348318863	-2.6232046487	-0.6769374478	 0.119632
H	-0.4269318384	-2.4729901788	-0.856089402	 0.125194
H	 1.6351657771	-2.3934181592	-3.0983384545	 0.098577
H	-0.4818744801	-3.3807518003	-3.9993826549	 0.296974
