21
gdb 112942	3.86099	0.87677	0.75899	1.8584	79.49	-0.2326	-0.0157	0.2169	1552.1077	0.17968	-424.23835	-424.228107	-424.227163	-424.275483	36.005	
C	 0.9381705985	 1.1886271793	-0.7535233158	-0.382365
C	 0.0661924252	 0.141019022	-0.0557097088	-0.189041
C	 0.5171420112	-0.1368567431	 1.3665776801	 0.169895
C	-0.0790647145	-1.3637743725	 2.0924098382	-0.322561
C	 1.3723606693	-1.8683961006	 2.1403943618	 0.051669
O	 1.8566579186	-0.7153707699	 1.4173577934	-0.314716
C	 1.9997832392	-2.0233392415	 3.5257215737	 0.344731
C	 3.4540915283	-1.6262478398	 3.6469694986	-0.47522
O	 1.3481796507	-2.4623741066	 4.4454711795	-0.296461
H	 1.9833415315	 0.8666636655	-0.7658192082	 0.135943
H	 0.6168032986	 1.3472892003	-1.7869539465	 0.113563
H	 0.8893173974	 2.1529794519	-0.2357028097	 0.114071
H	-0.9802609055	 0.4730407079	-0.0227238152	 0.098857
H	 0.0831509651	-0.7995944698	-0.6203205553	 0.098183
H	 0.4894783497	 0.789199356	 1.958159293	 0.07702
H	-0.525614582	-1.1880320824	 3.0709680608	 0.129248
H	-0.7581641583	-1.9638354114	 1.4845246473	 0.110241
H	 1.5696526407	-2.7991768621	 1.586246594	 0.10083
H	 4.0631668967	-2.21526294	 2.9510312976	 0.140993
H	 3.5758170077	-0.5804862012	 3.3507942993	 0.157578
H	 3.7997943919	-1.783879202	 4.6689429319	 0.137543
