21
gdb 57391	2.74946	1.31384	1.2049	2.9038	77.85	-0.2278	0.0596	0.2874	1153.5312	0.179997	-424.182894	-424.173433	-424.172489	-424.216775	36.552	
C	-0.2261007528	 1.4985916408	-0.0343696849	-0.417923
C	 0.0310200498	-0.0137538627	 0.0651577356	 0.213985
C	 0.8143545746	-0.3539518393	 1.3423218552	-0.418799
O	-1.2162796859	-0.721113161	 0.0740828657	-0.467057
C	 0.7483247158	-0.5044859736	-1.1748172622	 0.326085
C	 0.0347274287	-0.8499269607	-2.4699516663	-0.358411
C	 0.8778878451	-1.8798695286	-1.7838407072	 0.041382
O	 2.2602287109	-1.695969138	-2.1113214539	-0.290386
C	 2.2432369761	-0.3877269992	-1.4814419845	-0.153497
H	 0.7128615022	 2.0585276683	-0.0975205673	 0.11742
H	-0.8238647376	 1.7211287689	-0.9218758966	 0.128648
H	-0.7663573343	 1.8591575383	 0.84935015	 0.100897
H	 0.244851391	-0.0440207617	 2.2262036937	 0.101848
H	 0.9887322464	-1.4312449788	 1.4046711088	 0.128548
H	 1.7791346069	 0.1608534485	 1.3791815823	 0.116285
H	-1.7289224807	-0.3984503451	 0.8224748569	 0.277597
H	-1.0355412595	-0.9766370372	-2.3561015282	 0.133147
H	 0.3713173451	-0.4389611158	-3.4184245444	 0.105362
H	 0.5526601965	-2.8628402251	-1.4649309843	 0.10896
H	 2.5601456472	 0.409868459	-2.1647197798	 0.100943
H	 2.8850715146	-0.387031257	-0.5933638485	 0.104964
