20
gdb 22144	4.65753	0.55344	0.54191	0.6207	85.84	-0.2417	0.0111	0.2528	2041.9251	0.167069	-403.084465	-403.073547	-403.072603	-403.12179	38.483	
C	-0.091494509	 1.526462015	-0.0482864464	-0.469545
C	-0.0101901399	 0.0226443044	-0.0489385697	 0.35565
C	 0.0529190256	-0.731144216	 1.2537556087	-0.278652
C	 1.3598625239	-0.4839203575	 2.027624409	-0.17718
C	 1.3859105657	-1.2390227291	 3.371873355	-0.351775
C	 2.6141600459	-1.0165013221	 4.1245428344	 0.289517
C	 3.6356595003	-0.814793598	 4.7251555613	-0.433064
N	 0.0144069098	-0.6877264415	-1.1120792045	-0.164661
O	-0.0296148721	 0.1103101179	-2.2689066222	-0.401078
H	 0.8245846255	 1.9645541304	-0.4593381726	 0.147943
H	-0.9097208887	 1.859623544	-0.6933885136	 0.14912
H	-0.2434461453	 1.9185461175	 0.959399284	 0.11745
H	-0.7980897464	-0.4310643808	 1.8819603262	 0.103098
H	-0.0570426837	-1.7986412715	 1.0400112274	 0.116942
H	 2.2116403166	-0.802503589	 1.4175275314	 0.122045
H	 1.4948085434	 0.5861763803	 2.2196626298	 0.113492
H	 0.5243647708	-0.9319818374	 3.9798942389	 0.12881
H	 1.2579701514	-2.3139745024	 3.1885248076	 0.132709
H	 4.5342884298	-0.6450459141	 5.2642699082	 0.193757
H	-0.0281833536	-0.5509094202	-2.9687425428	 0.305419
