14
gdb 66892	2.65142	2.11119	1.46461	4.0219	65.13	-0.2174	-0.0255	0.1919	867.4198	0.100848	-436.646036	-436.639143	-436.638199	-436.677101	27.155	
O	-0.2169643908	 1.3980369393	 0.0561775117	-0.445815
C	-0.0144375315	 0.0443798837	 0.0680410053	 0.230299
C	-0.1501417007	-0.823392056	-1.2521405973	-0.16408
C	 0.7133051074	-2.0475548138	-1.38336836	-0.095024
C	 0.6428771275	-2.7134932052	-0.2319596899	-0.087096
N	-0.1877571422	-1.9905569849	 0.7347001048	-0.204599
C	-1.0419744114	-1.0633978421	-0.0914074892	-0.073051
C	 0.618189579	-0.7992972041	 1.1248053035	 0.363815
O	 1.3910300525	-0.6645903254	 2.0193537411	-0.316061
H	 0.5615481481	 1.8283597534	-0.31488098	 0.303425
H	-0.4910134018	-0.245461546	-2.1037780695	 0.111966
H	 1.2666666664	-2.3200304713	-2.2705320542	 0.118823
H	 1.1439581202	-3.6160381143	 0.0848354043	 0.131872
H	-2.1192092828	-1.0322603734	 0.0079004293	 0.125527
