20
gdb 116910	4.55122	0.58584	0.55895	1.7109	88.16	-0.2339	0.027	0.2609	2057.5082	0.168561	-403.080178	-403.069674	-403.068729	-403.117371	36.524	
C	 0.5352525378	 1.4330646814	 0.0230684653	-0.21881
O	 0.6830141564	 0.0341676273	-0.0519525342	-0.227701
C	 0.1157940355	-0.619300381	 1.0680566012	-0.2048
C	 0.2855747022	-2.0605704962	 0.9535502656	 0.001086
C	 0.422587779	-3.2554521242	 0.8746475053	 0.110983
C	 0.5602450201	-4.687596687	 0.7926941885	 0.16649
C	-0.7309278074	-5.4757293713	 0.6798587348	-0.452976
C	 1.8176240687	-5.2149412071	 0.1754495753	-0.262561
N	 1.6135005476	-5.3307439997	 1.6236483611	-0.345911
H	 1.0342735	 1.8515736508	 0.9119635153	 0.104513
H	 0.996450363	 1.8549560032	-0.872531204	 0.131501
H	-0.5246387378	 1.7327677943	 0.0532562592	 0.105093
H	 0.5868393277	-0.2591365094	 2.0000590524	 0.113805
H	-0.958825	-0.378027532	 1.149935631	 0.115656
H	-1.272817907	-5.2023392678	-0.2305663931	 0.125157
H	-0.5113775501	-6.5458440687	 0.6567056956	 0.127791
H	-1.3799506573	-5.2765027595	 1.5378611699	 0.127648
H	 1.7748899687	-6.1540992825	-0.3699358	 0.121102
H	 2.5380183115	-4.4955102449	-0.2015061035	 0.124423
H	 2.1482490816	-4.6094890257	 2.1015788945	 0.237511
