16
gdb 54167	3.30222	1.09551	0.97821	2.0279	72.75	-0.2486	-0.0058	0.2429	1223.2986	0.121267	-437.869712	-437.860299	-437.859354	-437.903832	34.583	
C	-0.4641727408	 1.6929574218	 0.3743038231	-0.471537
C	-0.1702053724	 0.2554249258	 0.0371677766	 0.280285
O	 1.1349128287	-0.0551250049	-0.4715745848	-0.287744
C	 0.791439833	-0.5629400147	 0.8313398569	-0.217509
C	 1.5031828848	-0.0362746859	 1.9621002997	 0.333506
C	 2.0937573768	 0.369737951	 2.927007395	-0.390262
C	-1.3153084556	-0.5008215581	-0.6267675896	 0.340672
N	-0.9079962628	-1.4532205816	-1.5069169298	-0.528959
O	-2.474939981	-0.2648154267	-0.3493109384	-0.362235
H	 0.3231849197	 2.1145383581	 1.0004507546	 0.136869
H	-0.5437095928	 2.2838501591	-0.5434405669	 0.133153
H	-1.4224551799	 1.748237428	 0.8945095809	 0.157491
H	 0.6283704733	-1.6398003548	 0.851530747	 0.127184
H	 2.6172787677	 0.7325955364	 3.7773190555	 0.208
H	 0.0538842072	-1.4675278619	-1.8044140384	 0.27568
H	-1.6087615658	-1.9445273318	-2.0365273812	 0.265405
