17
gdb 97221	1.99312	1.78039	0.96729	5.4099	74.36	-0.2406	-0.0069	0.2337	1192.7861	0.136042	-455.175814	-455.166913	-455.165969	-455.210345	30.694	
C	-0.052742999	 1.5090488206	-0.0101932343	-0.330808
N	-0.0147538642	 0.0598855523	 0.0602243319	-0.325645
C	-1.0680787505	-0.5976737121	-0.0920565553	 0.521456
O	-2.3119868032	-0.0920864215	-0.3950472484	-0.258743
C	-3.2978412449	-1.1197047274	-0.2682474462	-0.097314
C	-2.5109531644	-2.4173253828	-0.4671099913	-0.19816
N	-1.1891754443	-2.0029104448	-0.0081415059	-0.165478
C	-0.236767212	-2.9067808435	 0.4293608178	 0.152771
O	 0.8706779391	-2.6569535077	 0.8217052186	-0.271714
H	 0.4567279382	 1.8410850227	-0.9227753515	 0.128058
H	-1.0620837735	 1.9368856807	-0.0027275274	 0.1191
H	 0.5124720749	 1.9173687356	 0.8340583487	 0.129482
H	-3.7514885108	-1.0707403085	 0.7291204791	 0.124435
H	-4.0678229564	-0.9562202307	-1.0238349561	 0.132041
H	-2.9013257048	-3.2458893887	 0.1276749335	 0.134871
H	-2.4916615959	-2.7179284632	-1.5221234768	 0.130224
H	-0.6455617883	-3.9373194611	 0.3793257737	 0.075424
