25
gdb 122214	2.51873	0.79557	0.68283	1.2768	89.83	-0.2599	0.0729	0.3328	1803.2993	0.227331	-389.482438	-389.471312	-389.470368	-389.519713	40.488	
C	 0.8898179413	 2.3906003802	 1.4917402003	-0.38087
C	 0.7878628646	 0.9570952692	 0.9639898831	-0.160804
C	 1.2606943635	-0.094149492	 1.9743138274	-0.162887
C	 1.1295294832	-1.5310178907	 1.4509619915	-0.271528
C	 1.6763872856	-2.6008292247	 2.386035	 0.390148
C	 0.9673303602	-2.7413041335	 3.713917563	-0.14949
O	-0.3948599015	-3.0712325266	 3.465808609	-0.423538
C	 2.2151990326	-3.86973136	 1.7712714402	-0.307595
C	 3.1635985665	-2.8675280274	 2.3834149831	-0.31423
H	 1.9232073408	 2.6443621932	 1.754073901	 0.111586
H	 0.5480077952	 3.1172738334	 0.7478403625	 0.109412
H	 0.2800055026	 2.5249152773	 2.3923199763	 0.111569
H	-0.2514609815	 0.7440322662	 0.6805484639	 0.095618
H	 1.376812778	 0.8630080484	 0.0417342873	 0.091614
H	 2.3072295573	 0.1045739206	 2.2440780517	 0.089586
H	 0.6805437849	 0.0186650609	 2.8995649417	 0.093609
H	 0.0741379709	-1.7493720574	 1.2499108725	 0.113188
H	 1.6530693114	-1.6080092702	 0.4891198925	 0.083284
H	 1.4624476367	-3.5251234198	 4.3095913782	 0.076929
H	 1.0435165289	-1.803003581	 4.2854313039	 0.086303
H	-0.8698086741	-3.0286514886	 4.300756761	 0.285413
H	 2.0471543138	-4.8035242183	 2.2972082428	 0.110779
H	 2.1937689801	-3.9600634932	 0.6904732465	 0.108372
H	 3.78035252	-2.2731481045	 1.7173699231	 0.108231
H	 3.648447729	-3.1256128114	 3.3195830973	 0.105303
