21
gdb 61220	3.18239	0.91313	0.88487	1.7871	84.67	-0.2531	0.0503	0.3034	1438.4342	0.179216	-387.043151	-387.032719	-387.031774	-387.078575	38.836	
C	-0.01438131	 1.5201380735	 0.3433178622	-0.492118
C	 0.0016389632	 0.0285178283	 0.0637676114	 0.396789
C	 1.2826399337	-0.5938874584	-0.4416627992	-0.30824
C	 0.8250296313	-0.8463042986	 0.9750208411	-0.318748
C	-1.3021725676	-0.5773447438	-0.4492931151	 0.054457
O	-2.3550164803	-0.4678497868	 0.4965240351	-0.430457
C	-1.713483245	-0.0023834164	-1.8262764276	-0.405116
C	-2.8738180176	-0.6659126189	-2.4051343315	 0.313901
C	-3.8241087247	-1.2244332439	-2.8836935565	-0.437431
H	 0.9396497701	 1.8438205607	 0.7696029518	 0.120369
H	-0.1821601482	 2.1124134999	-0.5633366563	 0.118716
H	-0.7951501956	 1.7784794932	 1.0684802488	 0.114136
H	 1.2137572737	-1.4122985621	-1.1515992317	 0.111407
H	 2.138224393	 0.0543449902	-0.5994385313	 0.109405
H	 1.3710799766	-0.3688599138	 1.7816777036	 0.10948
H	 0.4398898069	-1.8295918332	 1.2226945853	 0.118929
H	-1.1518520841	-1.6559878449	-0.570537918	 0.093822
H	-2.6575918779	 0.446155458	 0.5099480903	 0.280462
H	-1.9200026023	 1.0717977887	-1.7216686771	 0.121274
H	-0.8588141742	-0.080078204	-2.5096480629	 0.135827
H	-4.6667627311	-1.7153403876	-3.3030850326	 0.193136
