17
gdb 43421	2.31033	1.69142	1.10849	4.1747	78.67	-0.2401	-0.0565	0.1836	1097.1849	0.136203	-421.827292	-421.819225	-421.818281	-421.861502	29.774	
O	 0.4836605873	 0.2949299272	 1.0696025317	-0.327224
C	 0.0651855368	 1.1937978065	 0.3624025363	 0.312382
C	-1.4116337159	 1.282984321	 0.1382089897	-0.147313
C	-2.1325381086	 1.5655206848	-0.945880109	-0.045622
C	-1.6662008352	 1.8132309306	-2.3482177003	-0.139339
O	-0.2924931063	 1.6067597522	-2.5707820672	-0.23461
C	 0.5450161902	 2.7341496295	-2.4881038903	-0.139334
C	 1.1981676933	 2.9508433298	-1.1569984257	-0.045582
C	 1.011037269	 2.2900314063	-0.0154607445	-0.147302
H	-1.9471235471	 1.0048840197	 1.0431133514	 0.119522
H	-3.2181374591	 1.5450745877	-0.8531575504	 0.101473
H	-2.1963876761	 1.1082711576	-3.0045605742	 0.128221
H	-1.9731753206	 2.821274761	-2.6744758769	 0.107762
H	 1.3428381013	 2.5832736226	-3.2294389931	 0.12819
H	 0.0109394845	 3.6479937783	-2.7987045664	 0.107788
H	 1.9819436032	 3.7075217385	-1.1829401211	 0.101476
H	 1.6801416633	 2.5119910366	 0.8127707901	 0.119511
