16
gdb 86290	1.91729	1.66538	1.18368	5.7104	65.23	-0.2744	0.0087	0.2831	1079.134	0.122689	-475.012534	-475.003581	-475.002637	-475.046105	33.255	
O	-0.2949453269	 1.4341614123	-0.0144275324	-0.436792
C	-0.0771990604	 0.0396876262	-0.0387215791	 0.072333
C	 0.3187693364	-0.68634575	 1.2696946206	-0.333069
C	-0.7925340319	-1.7451386208	 0.983683815	 0.130748
O	-1.6144546132	-2.1668808539	 2.0178124705	-0.423662
C	-1.4383617014	-0.733233442	-0.0330632037	 0.196221
O	-2.4229750171	 0.0112658669	 0.6441714451	-0.473055
C	-1.9298290981	-1.2522742225	-1.3099199349	 0.245635
N	-2.2743887206	-1.687120659	-2.3239793269	-0.336415
H	 0.3553902105	 1.8428510326	 0.5649873655	 0.303804
H	 0.5451445866	-0.2454741398	-0.8930764736	 0.107715
H	 1.3460612469	-1.0415531776	 1.3586159199	 0.119961
H	 0.0581204397	-0.0901626896	 2.1488385637	 0.112044
H	-0.3957956318	-2.6282027799	 0.4778564003	 0.114009
H	-2.2056695613	-1.4251074798	 2.2108033582	 0.296564
H	-2.1580376573	 0.9410668467	 0.5509971618	 0.303958
