15
gdb 45675	3.21965	1.7282	1.14039	3.0777	73.97	-0.2249	-0.0182	0.2066	1001.3809	0.115055	-416.867761	-416.860987	-416.860043	-416.899012	26.24	
O	-0.0121002908	-0.0469011039	 0.0023847535	-0.363007
C	-0.0177921866	 1.1588899587	 0.0090145898	 0.372958
C	-1.1967632198	 2.1603840826	 0.0320937929	-0.301603
N	-0.6286031237	 3.5187122486	 0.0312886095	-0.34418
C	 0.6327228607	 3.3438377443	 0.0118521824	 0.418172
C	 1.8574435519	 4.2300559663	-0.0011117225	-0.399324
C	 2.9789015216	 3.2007661924	-0.0232443409	-0.138853
C	 2.4775951639	 1.9592326577	-0.0228248518	-0.022123
N	 1.0774302154	 2.0128215815	-0.0021038261	-0.108629
H	-1.8419855715	 2.0055617996	-0.8395589842	 0.152199
H	-1.8159559072	 1.9957075338	 0.9206577815	 0.152221
H	 1.8635686847	 4.8901440013	-0.8762944292	 0.153205
H	 1.8892669333	 4.8803149904	 0.8808478592	 0.153206
H	 4.0285067529	 3.4528744541	-0.0371870043	 0.120155
H	 2.9763497954	 1.0019759428	-0.03545815	 0.155603
