18
gdb 63221	2.34785	1.60908	1.2447	2.8465	76.53	-0.2461	-0.0003	0.2458	1067.3532	0.148006	-398.160506	-398.151731	-398.150787	-398.193724	33.066	
C	-0.1750283466	 1.6009308941	-0.026862245	-0.419444
C	 0.0047391323	 0.0837154277	-0.0058855565	 0.267802
C	-1.3466258772	-0.6321161937	-0.15399415	-0.409288
N	 0.8813796889	-0.340336247	-1.1192172469	-0.25063
C	 1.7348498163	-1.1532901744	-0.6422032898	 0.053201
N	 1.6434297803	-1.4616157567	 0.7119856177	-0.300452
C	 0.7396029937	-0.4643862182	 1.2972840858	-0.181575
C	 1.4802712828	 0.546092577	 2.0660039315	 0.283761
N	 2.0823059193	 1.3143974335	 2.6856775605	-0.330109
H	 0.786884065	 2.1149420485	 0.0327282118	 0.139218
H	-0.659926288	 1.8916740548	-0.9622143783	 0.129321
H	-0.7993068221	 1.9377040332	 0.806932421	 0.118834
H	-1.7860349168	-0.3896446824	-1.1245970222	 0.134682
H	-1.2220807098	-1.7178265886	-0.0989616837	 0.126586
H	-2.041827825	-0.3191100489	 0.6322102407	 0.115652
H	 2.4925761167	-1.6546512557	-1.2376539472	 0.13434
H	 2.4867307774	-1.6943160847	 1.2174442231	 0.256813
H	 0.0191901627	-0.9343801483	 1.9735905875	 0.131288
