18
gdb 37463	2.76201	2.15418	1.82392	0.3584	72.07	-0.2234	0.0606	0.2839	840.241	0.151705	-401.911779	-401.905713	-401.904768	-401.941863	26.045	
C	-0.0473355027	 1.5598905404	-0.1283654255	-0.238706
C	 1.4432842617	 1.9571127074	 0.0458273499	-0.199721
C	 2.053194504	 0.7901458849	 0.8502874178	-0.049884
C	 1.760275515	 0.9128357581	 2.3509757605	 0.026962
O	 0.4835582146	 1.5058117386	 2.6471286774	-0.251334
C	 0.5914823454	 0.0759845885	 2.6366001887	 0.033318
C	 0.2347280007	-0.6427866174	 1.3611903721	-0.061062
C	-0.037762945	 0.0436272321	 0.0609995609	-0.032653
N	 1.3279394595	-0.4412134499	 0.364460635	-0.127296
H	-0.6875443212	 2.0692443316	 0.5903360847	 0.1307
H	-0.409080953	 1.7968014383	-1.1330683668	 0.095669
H	 1.933052719	 2.0186439192	-0.9304453758	 0.104485
H	 1.5711144106	 2.918236887	 0.549179463	 0.110318
H	 3.1236392263	 0.6615106213	 0.6750516533	 0.08224
H	 2.5510392814	 1.1317589337	 3.0642915599	 0.098628
H	 0.4100142166	-0.4132311411	 3.5895190324	 0.101944
H	-0.104482965	-1.6692477431	 1.4805079111	 0.087072
H	-0.5706681879	-0.5456456395	-0.6824976585	 0.089319
