21
gdb 121672	7.04141	0.53728	0.50745	2.712	86.28	-0.2466	-0.0139	0.2327	2179.9074	0.178143	-387.084103	-387.07295	-387.072006	-387.122493	38.64	
C	-0.1184998137	 1.5263760303	-0.1679733059	-0.38081
C	-0.0693349275	 0.0047386281	-0.0058348884	-0.17097
C	 0.7551101934	-0.4381188204	 1.207146152	-0.158414
C	 0.8071709339	-1.9566793263	 1.3715664147	-0.303179
C	 1.5893334691	-2.4167960801	 2.5946482469	 0.372436
O	 2.0108627383	-1.6545765858	 3.4264203718	-0.273655
C	 1.8066962205	-3.9414822926	 2.6833515983	-0.479744
C	 2.393138481	-4.4006623677	 3.9298279758	 0.32557
C	 2.8747521507	-4.7866134809	 4.9595694733	-0.424756
H	 0.8866570122	 1.9427197392	-0.2965719078	 0.116526
H	-0.7135737342	 1.8162862391	-1.0394674739	 0.111603
H	-0.5619082446	 2.0031561868	 0.713030003	 0.117378
H	-1.0913760374	-0.3873452458	 0.0853089101	 0.093511
H	 0.346759059	-0.4475449829	-0.9162832691	 0.09277
H	 1.7776935119	-0.0508091121	 1.1244378913	 0.107915
H	 0.3459201814	 0.0047830161	 2.1219525489	 0.115114
H	-0.2079631217	-2.3731245899	 1.4563345261	 0.123671
H	 1.235762864	-2.4388492882	 0.4814145053	 0.116002
H	 0.8448820808	-4.4382795197	 2.4976188079	 0.14708
H	 2.4423587657	-4.2242632022	 1.8317176591	 0.153752
H	 3.301301127	-5.1191858448	 5.8731680706	 0.1982
