17
gdb 126312	2.91468	1.41582	1.02594	2.6892	78.64	-0.2353	-0.0576	0.1777	1156.1811	0.138152	-418.06052	-418.05252	-418.051576	-418.093323	29.973	
C	-0.1630070538	 1.549915023	-0.0119721844	-0.38044
C	 0.0834334823	 0.0299826365	 0.0377858546	-0.277518
C	 0.7785040265	-0.4855310643	-1.189035936	 0.188144
C	 2.0718907761	-0.90624347	-1.2245449657	-0.204159
C	 2.6559041509	-1.372875158	-2.4389380229	 0.008113
N	 2.0040229678	-1.4320702834	-3.5656241512	-0.186833
N	 0.7296446774	-1.0223179441	-3.5179084228	-0.261311
C	 0.0019087959	-0.5354647978	-2.4300044186	 0.378044
O	-1.1667418566	-0.2049751447	-2.5643544911	-0.391799
H	 0.7808363013	 2.0998160932	-0.0818076545	 0.11387
H	-0.7805108046	 1.8038033764	-0.8759052466	 0.153428
H	-0.682344201	 1.8789967245	 0.892784823	 0.117151
H	 0.6738846405	-0.2272351377	 0.9234744946	 0.099687
H	-0.8845313735	-0.476711066	 0.1224207979	 0.131296
H	 2.6781397969	-0.8931651352	-0.3229485391	 0.111072
H	 3.6870040688	-1.7054795276	-2.4755191085	 0.127502
H	 0.228233925	-1.0743723649	-4.3953955887	 0.273753
