16
gdb 53844	3.99461	0.92525	0.79838	1.7613	67.93	-0.2498	-0.044	0.2057	1411.6744	0.122892	-475.064552	-475.05544	-475.054495	-475.100246	32.259	
N	-0.0346936711	 1.2296005084	 0.0138284085	-0.513204
C	 0.0436798652	-0.1135358999	 0.1609183899	 0.290626
O	 1.0542416434	-0.7591762364	 0.3240978977	-0.336025
C	-1.3669352285	-0.7437979293	 0.088321333	 0.375946
O	-2.3695011766	-0.093442533	-0.0945403913	-0.375165
O	-1.3076179899	-2.0602224267	 0.2609221674	-0.214507
C	-2.5331140524	-2.7761220032	 0.1996679365	 0.136476
C	-2.642747029	-3.8289137056	-0.8614772799	-0.281276
C	-2.4402804684	-4.2131964588	 0.5911825963	-0.294187
H	 0.8065853703	 1.78009263	 0.0303870605	 0.270762
H	-0.9345836479	 1.6583051407	-0.1264232285	 0.281608
H	-3.3913265572	-2.1727238474	 0.4637232995	 0.13197
H	-3.6108265964	-3.9868019094	-1.3230249553	 0.126001
H	-1.7929358652	-3.944446774	-1.5239754318	 0.135427
H	-1.4592155195	-4.5774955364	 0.8727669007	 0.140427
H	-3.2660182869	-4.6445865792	 1.1451847967	 0.125121
