27
gdb 100102	2.10915	1.06932	0.95807	1.0287	92.67	-0.2399	0.0739	0.3138	1507.0247	0.24785	-390.707039	-390.694941	-390.693997	-390.744048	45.107	
C	-0.5093036871	 0.9202839385	-0.0154927723	-0.393862
C	 0.0628848527	-0.4990811406	 0.0308423513	-0.17349
C	 0.9484113066	-0.8953206464	-1.1695857479	 0.361564
C	 1.4759174303	-2.3232672833	-0.9480419354	-0.416492
C	 0.1645227224	-0.8174602204	-2.4916363169	-0.419108
O	 2.0194494606	 0.0587939458	-1.1379234595	-0.308202
C	 3.0591535268	-0.0063724689	-2.1149275186	 0.148051
C	 3.0712837812	 1.3045912082	-2.9029484406	-0.382465
C	 4.3870575837	-0.2562641478	-1.397634253	-0.381216
H	 0.2914098669	 1.6502308319	-0.1550118794	 0.131854
H	-1.2312601713	 1.0467812041	-0.8282674103	 0.109621
H	-1.0278207261	 1.1534055264	 0.9197811555	 0.105796
H	 0.676484091	-0.6079234993	 0.9325783966	 0.097007
H	-0.7503065087	-1.2304615306	 0.113462141	 0.086599
H	 0.6461148861	-3.035926987	-0.9013547087	 0.110395
H	 2.1363082017	-2.6433453193	-1.7596815286	 0.109655
H	 2.0323114564	-2.3823192285	-0.0079591486	 0.117802
H	-0.1640684227	 0.2046725783	-2.6934848688	 0.123319
H	 0.769526867	-1.153187306	-3.339218353	 0.110634
H	-0.7201259442	-1.4611327141	-2.4483361511	 0.110911
H	 2.8762549936	-0.8331567883	-2.8128882618	 0.069632
H	 3.8781573632	 1.3105143919	-3.6433653472	 0.106508
H	 2.1223744514	 1.4535717248	-3.4251453392	 0.114112
H	 3.2213275306	 2.1497176542	-2.2232568887	 0.120663
H	 4.3677706402	-1.2101387448	-0.8636330307	 0.11382
H	 5.2202907923	-0.2741595273	-2.1080816609	 0.106191
H	 4.5730549352	 0.5378609383	-0.667352093	 0.120702
