23
gdb 122685	5.01133	0.60293	0.55842	2.8338	82.36	-0.2381	0.0773	0.3154	1986.679	0.206063	-425.427557	-425.417347	-425.416402	-425.464459	35.986	
O	-0.0617726634	 1.4896403626	-0.0634971821	-0.421356
C	 0.0351807102	 0.073648085	-0.0882992959	-0.073854
C	-1.3704651978	-0.4961827326	 0.0488103384	-0.171891
C	-1.3946232471	-2.028901608	 0.0414276219	-0.216606
C	-2.8015302092	-2.6236703579	 0.1245599683	 0.011668
C	-2.8561170589	-4.1610133347	 0.0977226069	-0.250815
C	-4.2309680182	-4.4512849338	 0.7090684645	-0.066964
O	-4.5253358343	-3.3631334485	 1.5867995151	-0.264751
C	-3.5514214926	-2.3358362481	 1.4349718396	-0.062795
H	 0.8243360606	 1.8539173911	-0.144534428	 0.285278
H	 0.4884222918	-0.2791720417	-1.0297741386	 0.082861
H	 0.6686629418	-0.2973653326	 0.7345599806	 0.083536
H	-1.8079137118	-0.1089634611	 0.9766037348	 0.112238
H	-1.9843657305	-0.1052751993	-0.7721062441	 0.105692
H	-0.9066732861	-2.3948736156	-0.8718912788	 0.094658
H	-0.7974099284	-2.4119691361	 0.8811886154	 0.094542
H	-3.4028863182	-2.2378921571	-0.7100646334	 0.076742
H	-2.7404476959	-4.5812787849	-0.9047466963	 0.100809
H	-2.0586476827	-4.571681472	 0.7287303371	 0.101582
H	-5.0076414065	-4.5095548898	-0.0678135018	 0.092519
H	-4.2567596207	-5.3880930218	 1.2779674643	 0.099226
H	-2.8503414109	-2.3493322679	 2.2869465384	 0.082905
H	-4.0644080814	-1.3683578551	 1.4390892238	 0.104777
