19
gdb 111168	4.07841	1.02744	0.95169	2.053	76.63	-0.2334	0.0689	0.3022	1276.0054	0.16044	-419.085928	-419.077735	-419.076791	-419.118856	31.678	
O	 0.0710476592	 1.4320533899	-0.147202536	-0.421867
C	 0.0606211451	 0.0394333175	 0.1542118497	-0.123581
C	-1.3452284107	-0.5331101739	 0.0974143691	 0.050841
C	-1.9949484397	-0.8549780512	-1.2872939268	-0.167402
N	-1.0016831126	-2.0080863022	-1.4041984323	-0.33194
C	-1.549798913	-2.0764082201	 0.0205356446	-0.147152
C	-2.9555288955	-1.7899695464	-0.5356707059	 0.454073
C	-4.3277415514	-1.7161731393	-0.0208299671	-0.348417
N	-3.9195870491	-2.7484222471	-1.0268897767	-0.407272
H	-0.0963549848	 1.5232698796	-1.0902547837	 0.282009
H	 0.7285380501	-0.5261178758	-0.5035645422	 0.117956
H	 0.4423131208	-0.0414108777	 1.1781624108	 0.105165
H	-2.0106273034	-0.013490155	 0.7916748967	 0.079394
H	-2.2027376349	-0.1812882855	-2.1220250428	 0.076087
H	-1.4302149325	-2.7609494131	-1.950888518	 0.217061
H	-1.2307007474	-2.8445056164	 0.7255130589	 0.088852
H	-4.5795272207	-2.1173958914	 0.9569661571	 0.126573
H	-4.9651810097	-0.9005541142	-0.3533836674	 0.117827
H	-4.2633221298	-2.4819445077	-1.947262278	 0.231793
