21
gdb 106171	3.00948	1.33883	1.29824	1.8276	81.04	-0.2193	0.0867	0.306	1127.0612	0.183918	-387.066985	-387.058929	-387.057985	-387.09966	31.755	
C	 0.1365460288	 1.4939518033	-0.3732695869	-0.373952
C	 0.0004073679	 0.0723137408	 0.1879904686	-0.320389
C	-1.4011518371	-0.4641827895	 0.1512971346	 0.297944
C	-1.8602650438	-1.9126647349	 0.0912564079	-0.154713
C	-2.8410305257	-2.2358354218	 1.2200270316	-0.228547
C	-3.1486537706	-0.8493099239	 1.8548261006	-0.210865
C	-2.6969030823	 0.1245403063	 0.773235992	 0.043969
O	-3.4552604478	-0.1747710864	-0.4482082629	-0.314041
C	-2.3278974411	-0.9004809449	-0.9415055751	 0.047255
H	 1.1762494884	 1.8331645028	-0.3335788318	 0.111218
H	-0.1957486753	 1.5374134657	-1.4153296456	 0.121655
H	-0.4672952098	 2.2078935817	 0.1963935639	 0.11809
H	 0.6493273849	-0.6082639797	-0.3775554745	 0.100754
H	 0.3737691915	 0.0477107866	 1.221550992	 0.098505
H	-1.1521925252	-2.6599304006	-0.2528560275	 0.081205
H	-3.7515823812	-2.7037411327	 0.8346190784	 0.111302
H	-2.3984869795	-2.9266269993	 1.9431893525	 0.097103
H	-4.2059013621	-0.7190321687	 2.1024571737	 0.10634
H	-2.5636661451	-0.6876059845	 2.7686307158	 0.095122
H	-2.7391810747	 1.1882076216	 1.0165610572	 0.075831
H	-2.2165369501	-0.9991769521	-2.0158718845	 0.096214
