20
gdb 40732	4.31812	1.05768	0.94267	2.8097	78.89	-0.2343	0.0746	0.3089	1277.5652	0.172134	-403.104476	-403.096594	-403.09565	-403.13771	30.59	
C	 1.2384214281	 0.1525320239	-0.3866483858	-0.223353
C	 0.5274839026	-1.0182582041	-0.9689146673	-0.223353
N	-0.1322873946	-0.1578091395	 0.0087454001	-0.05736
C	-0.3125650711	-0.7121997978	 1.3435985212	 0.056786
C	-0.4173238989	 0.4008775361	 2.4242363499	-0.254363
C	-1.4879695077	-0.0796956053	 3.3885521866	 0.0357
O	-2.8122208169	 0.0520628036	 2.8589067967	-0.248717
C	-2.1911989507	-1.2377874151	 2.812600248	 0.0357
C	-1.609866011	-1.5630240829	 1.4475321576	-0.254363
H	 2.0365292722	-0.0555146327	 0.3247101559	 0.108221
H	 1.3698397966	 1.06338457	-0.9633142433	 0.117865
H	 0.1299546901	-0.9784886197	-1.9787936513	 0.117865
H	 0.8518771794	-2.0064306196	-0.6455343785	 0.108221
H	 0.5403593696	-1.3631835016	 1.6111510671	 0.052899
H	 0.5393860917	 0.5653798727	 2.92873385	 0.095616
H	-0.7248695004	 1.3443994597	 1.9633020933	 0.126618
H	-1.3973582059	 0.091340885	 4.4587619935	 0.091892
H	-2.6704481346	-2.0052084802	 3.4160884874	 0.091892
H	-2.3138506752	-1.272365255	 0.6619105457	 0.126618
H	-1.4019044833	-2.6315751376	 1.3387966733	 0.095616
