15
gdb 67352	2.99564	1.95471	1.36969	3.8343	64.74	-0.2465	-0.0053	0.2412	894.9089	0.114652	-453.903749	-453.897031	-453.896087	-453.934618	27.032	
N	 0.1428530684	 1.4544216521	 0.0019401083	-0.619811
C	 0.0286896459	 0.0480273675	-0.0199437238	 0.215366
C	 0.0369525413	-0.8024443258	 1.2951535356	-0.090487
N	-1.4230844495	-0.4741404264	 1.5016028064	-0.350322
C	-1.3200557893	-0.8122533904	 0.0371860319	-0.125219
C	-0.3118971022	-1.9518226061	 0.3124652605	 0.095248
O	 0.65819627	-2.0270520094	-0.7417299804	-0.241867
C	 0.9018560534	-0.7017921861	-1.006820978	 0.432986
O	 1.6279045286	-0.2992225166	-1.8639819788	-0.340281
H	 0.1850274629	 1.8378129255	-0.9353032817	 0.24776
H	-0.6188887218	 1.8756779309	 0.5212097553	 0.25092
H	 0.7720561764	-0.7716037563	 2.0999173232	 0.102566
H	-1.8883307181	-1.2364651449	 2.0057091926	 0.215799
H	-2.1740090935	-0.7886430055	-0.6411351628	 0.097215
H	-0.6160978924	-2.9385029786	 0.6534547115	 0.110127
