19
gdb 81396	2.95221	1.35472	1.15453	3.5688	79.47	-0.2445	0.0291	0.2735	1122.0804	0.161978	-382.054086	-382.046349	-382.045405	-382.086221	30.452	
C	-0.1433502667	 1.5325696487	 0.0778057758	-0.434341
C	 0.0243843795	 0.0257014467	 0.0016608337	 0.070252
C	 0.7171483503	-0.5971952606	-1.2468038871	-0.041214
C	 2.0230120112	-0.2745370071	-0.4847339845	-0.200586
N	 1.2204084844	-0.5291506789	 0.7770033878	-0.12189
C	 0.9684202333	-1.980621968	 0.6250303626	-0.192297
C	 0.5930674602	-2.1064020463	-0.9201247265	-0.175003
C	-0.7252222161	-2.6699272302	-1.1718714573	 0.268717
N	-1.7766600331	-3.1140209799	-1.3603616145	-0.333821
H	 0.7370615351	 2.0876074108	-0.2544507409	 0.122173
H	-0.9879648378	 1.8404177193	-0.546870239	 0.127493
H	-0.3583407959	 1.8293043955	 1.1084417411	 0.135745
H	-0.9156620029	-0.4505750313	 0.3002175729	 0.093512
H	 0.5116493103	-0.2930705692	-2.2739946109	 0.083739
H	 2.887700149	-0.9312187638	-0.6193031119	 0.104377
H	 2.3406199198	 0.764852475	-0.5436304273	 0.119603
H	 1.8646237305	-2.5541977471	 0.8689541316	 0.118651
H	 0.1524239115	-2.2997303661	 1.2751809736	 0.133256
H	 1.3313904073	-2.6992811074	-1.4676701191	 0.121632
