19
gdb 116269	2.0988	1.4824	0.95912	2.7682	76.88	-0.2478	0.0438	0.2916	1233.481	0.159032	-422.992044	-422.982983	-422.982039	-423.026301	33.699	
O	-0.1092884073	 1.422007111	-0.4649169497	-0.425427
C	-0.0311167181	 0.0124734103	-0.4767155861	-0.065714
C	-1.2479894299	-0.5909482973	 0.2287250859	 0.100008
O	-2.4268436178	-0.0080541195	-0.3485870812	-0.290889
C	-3.2047308631	-0.992078108	-1.0341472881	-0.07838
C	-2.2984950784	-2.2098163901	-1.209424196	-0.236094
C	-1.4204693478	-2.1249542811	 0.0617754933	-0.217919
C	-0.1850827549	-2.8899248742	 0.0057128434	 0.315069
C	 0.8303038408	-3.5316744345	-0.0417299659	-0.446493
H	-1.0102943432	 1.6316750002	-0.7421130161	 0.287836
H	 0.0353343756	-0.3813173305	-1.5045765662	 0.081966
H	 0.8869163155	-0.2722094013	 0.0451725618	 0.115745
H	-1.2205709472	-0.3049492623	 1.2863503302	 0.09297
H	-4.090729903	-1.2414054769	-0.4321225137	 0.100641
H	-3.5483938929	-0.5692439192	-1.9833750243	 0.111845
H	-2.8492628549	-3.1502115188	-1.275357468	 0.116674
H	-1.6743714462	-2.1148528868	-2.1019949237	 0.124391
H	-2.0155326221	-2.4855831419	 0.9103421776	 0.114978
H	 1.7293928249	-4.095445999	-0.0817323232	 0.198792
