16
gdb 126205	2.40372	1.34258	0.91148	3.4578	74.45	-0.2623	-0.0563	0.2061	1249.6397	0.123696	-437.903036	-437.894582	-437.893638	-437.937142	29.831	
C	 0.1606020726	 1.611639071	-0.1538247128	-0.378445
C	-0.0810327104	 0.1093920857	 0.0840126467	-0.300192
C	 0.5773314149	-0.3922831472	 1.3241993355	 0.3889
C	 0.1080426466	-0.8870678338	 2.517565463	-0.042724
C	-1.2664219636	-1.1005368495	 2.9531541959	 0.064759
O	-1.5724362017	-1.5435538348	 4.0381680362	-0.274219
C	 1.3018026433	-1.155042988	 3.2559323763	-0.022623
N	 2.3775938066	-0.855515656	 2.5866182695	-0.129186
O	 1.913025794	-0.366386368	 1.348422519	-0.217924
H	 1.2294073369	 1.8251481644	-0.2302575412	 0.146998
H	-0.3220548789	 1.9272013299	-1.0823908475	 0.128338
H	-0.2487339812	 2.208937519	 0.6658253708	 0.132639
H	-1.1526587799	-0.0983396368	 0.149360927	 0.128665
H	 0.3042137691	-0.4637160773	-0.7676017867	 0.142084
H	-2.0448091361	-0.824519575	 2.2085001416	 0.070212
H	 1.3820333679	-1.5592299135	 4.2546256266	 0.162719
