25
gdb 120445	4.08632	0.67688	0.66969	1.3554	90.07	-0.2507	0.0746	0.3253	1860.2242	0.227044	-389.496691	-389.485986	-389.485042	-389.532538	40.43	
C	 0.0826124604	 1.5989521261	-0.0075809679	-0.379368
C	 0.1489847741	 0.0692529355	-0.0150033498	-0.161853
C	 0.6580380154	-0.5195236251	 1.3063695706	-0.189783
C	 0.7318960977	-2.0412056956	 1.3064740575	 0.048585
C	 1.8132585178	-2.7381361674	 0.4296588069	-0.26798
C	 2.075617979	-3.7374450057	 1.5822345698	 0.422818
C	 1.3652053219	-5.0770040741	 1.4152440296	-0.446342
O	 3.4630191132	-3.9236097631	 1.8025698961	-0.477017
C	 1.3397428363	-2.7553635545	 2.5467756723	-0.312327
H	 1.0711118526	 2.0368883637	 0.1705000158	 0.11362
H	-0.2867986937	 1.988970383	-0.96131401	 0.109505
H	-0.5849695744	 1.9622497104	 0.7818836735	 0.112064
H	-0.8469456777	-0.3399255789	-0.2317810321	 0.091428
H	 0.7982642702	-0.2649211317	-0.8346738515	 0.099988
H	 1.6546729999	-0.1118403424	 1.5278693118	 0.089141
H	 0.0050296624	-0.188256089	 2.1265265382	 0.088983
H	-0.2595839125	-2.4519676105	 1.0814802523	 0.063614
H	 1.5171264529	-3.1527028254	-0.5375258163	 0.091362
H	 2.6892867035	-2.0975486857	 0.2920321697	 0.106174
H	 1.8166070737	-5.6469708336	 0.5969968212	 0.122023
H	 1.4392821986	-5.6734872556	 2.3339054969	 0.102848
H	 0.3007161297	-4.9429199109	 1.1981306749	 0.118677
H	 3.5701988607	-4.565928205	 2.5127528229	 0.270347
H	 2.0693311864	-2.1187261662	 3.0561582263	 0.09871
H	 0.652565862	-3.1799954784	 3.2847263311	 0.084784
