19
gdb 94245	1.95603	1.45721	1.28933	2.2271	82.39	-0.249	-0.0318	0.2172	1143.5525	0.156464	-385.859668	-385.850127	-385.849183	-385.893969	35.336	
C	-0.644619836	 1.2166459107	 0.0548297272	-0.428288
C	 0.1826214319	-0.046902844	-0.1196205911	 0.012617
C	 1.5890374522	 0.034076363	-0.7647226788	-0.241582
C	 2.1006806251	-1.02432987	 0.2425455483	-0.258967
C	 0.8574809188	-0.7520748796	 1.1482994255	 0.032597
C	 1.1462127628	 0.2780141361	 2.2353498513	 0.110613
O	 2.1482498489	 0.9424801538	 2.2923389787	-0.253503
C	 0.1407498293	-1.8746951764	 1.7170548395	 0.209809
C	-0.4622313459	-2.7945913809	 2.2050685512	-0.40746
H	-0.0760531595	 2.008397668	 0.5531832316	 0.131506
H	-0.9523006261	 1.5992402573	-0.9244694757	 0.123616
H	-1.5532148703	 1.0273259978	 0.6365808069	 0.124839
H	-0.4142620745	-0.8178079735	-0.6154452038	 0.09345
H	 1.6555838155	-0.2064517325	-1.827591733	 0.101643
H	 2.0553143276	 1.0072756844	-0.5911357982	 0.120971
H	 2.0771200049	-2.0398062146	-0.1556441538	 0.113422
H	 3.0618936996	-0.8318490721	 0.7194748379	 0.126647
H	 0.331764801	 0.3903638405	 2.9825504445	 0.092664
H	-0.9886048855	-3.6151464281	 2.6263743918	 0.195405
