18
gdb 105280	2.37229	1.12445	0.90649	2.8368	81.4	-0.2473	-0.0389	0.2084	1337.8537	0.14453	-401.90035	-401.890591	-401.889647	-401.935302	35.274	
C	 0.0859691137	 1.5503477397	-0.1115117228	-0.386596
C	 0.0098499292	 0.0612835744	 0.2395219248	-0.244776
C	-1.3905073736	-0.5091479813	 0.0443982415	 0.118631
N	-1.7511322702	-0.8747887057	-1.3327548325	-0.359401
C	-1.6334101113	-1.9596593111	-0.346478019	-0.168712
C	-0.5138673418	-2.9250703124	-0.5508181714	 0.167004
O	-0.4824825085	-4.0155924841	-0.0386740729	-0.253539
C	-2.4181843911	 0.0730019809	 0.8745461594	 0.298516
C	-3.2700472336	 0.5744459137	 1.560162205	-0.439785
H	 1.1027635567	 1.92715778	 0.0303116072	 0.117747
H	-0.1950118567	 1.7138730097	-1.1563679836	 0.129732
H	-0.585842463	 2.1404732854	 0.5184462063	 0.130971
H	 0.7053824794	-0.4986261943	-0.3906573153	 0.109666
H	 0.3109940183	-0.1020614925	 1.2803404144	 0.115114
H	-2.7307823981	-0.6728428329	-1.5149302263	 0.250605
H	-2.5323961498	-2.4099584727	 0.0652389734	 0.117739
H	 0.2895245979	-2.567951293	-1.2293980716	 0.091873
H	-4.0225095474	 1.012461826	 2.1688123332	 0.205211
