15
gdb 48399	2.55655	1.5663	1.17261	5.0118	69.82	-0.2556	-0.0521	0.2035	1041.9469	0.111799	-416.765101	-416.757063	-416.756118	-416.798157	29.496	
O	-0.5989777945	 0.7732721818	 0.8888668921	-0.22623
C	 0.197308513	 0.8133787505	-0.006973378	 0.149336
C	 1.3710379505	 1.7930975146	-0.0817774512	 0.027356
N	 2.5932974952	 1.2285308422	-0.7488142393	-0.36868
C	 2.623787848	 2.3789412683	-1.6867166536	 0.011928
C	 1.4326360953	 2.2711414396	-2.5747456491	-0.291474
C	 1.2744503964	 2.8759108121	-1.1938077108	-0.10905
C	 1.6581500381	 2.3987097943	 1.2159894155	 0.272353
N	 1.9350526244	 2.8753246531	 2.2315160558	-0.327764
H	 0.1419927507	 0.1472591806	-0.891655455	 0.101116
H	 3.3794153517	 1.2154236558	-0.1078921863	 0.249668
H	 3.536952666	 2.9096968445	-1.9221624004	 0.118118
H	 1.3655458435	 3.0122681914	-3.3648632959	 0.132859
H	 1.0374709002	 1.2940283372	-2.8301606513	 0.130711
H	 0.8860008614	 3.869313254	-1.0205791323	 0.129752
