22
gdb 101401	2.91654	1.01411	0.80416	3.4942	83.21	-0.2438	0.0365	0.2803	1477.0113	0.193589	-404.382688	-404.372615	-404.371671	-404.417986	36.797	
C	-0.0119825819	 1.6029400174	 0.1652202076	-0.391074
C	 0.0510962004	 0.0755274844	 0.0622973187	-0.171864
C	 0.7004766856	-0.4524552004	-1.231450047	 0.025453
C	 2.1814134919	-0.0606579578	-1.3556251651	-0.408672
C	 0.557180374	-1.9749130256	-1.3250763226	-0.14401
C	-0.8655183	-2.5817159596	-1.5412867644	-0.190884
N	-0.3551520808	-3.1669073582	-2.7835563877	-0.321778
C	 0.9018517223	-2.6229113168	-2.6952000239	 0.422191
O	 1.8555146492	-2.6471100887	-3.4293295462	-0.367459
H	 0.985075608	 2.0519540383	 0.1918785107	 0.122673
H	-0.5483413179	 2.0346231318	-0.6874717986	 0.113966
H	-0.5351735912	 1.9106542283	 1.0759227064	 0.112755
H	 0.6011900668	-0.3287320952	 0.923452097	 0.093835
H	-0.9681485699	-0.3247352713	 0.1391955889	 0.091861
H	 0.1583016911	-0.0156542735	-2.0842457978	 0.071977
H	 2.7480059624	-0.4104261963	-0.4837567842	 0.108189
H	 2.6257303859	-0.511682631	-2.2461215078	 0.153037
H	 2.3046983193	 1.023796339	-1.4200325704	 0.111323
H	 1.0984585849	-2.4595091503	-0.5051350921	 0.096857
H	-1.1908277392	-3.3160474931	-0.7980421088	 0.111839
H	-1.6564552527	-1.8388562213	-1.692320322	 0.110712
H	-0.8073548784	-3.6825332603	-3.5238601404	 0.249073
