15
gdb 31439	3.01392	1.24867	0.88777	6.2002	72.01	-0.2321	-0.049	0.183	1222.6013	0.112607	-457.81551	-457.807497	-457.806553	-457.848582	29.297	
O	 0.0435448666	 1.4281111482	 0.0066356694	-0.407046
C	 0.0175110363	 0.0202945155	 0.0023057987	-0.156949
C	-1.4032356516	-0.4764112606	 0.012273909	 0.282528
C	-2.4669469034	 0.3656117632	 0.0226596391	-0.345414
C	-3.8305668649	-0.1182456299	 0.0321674621	 0.432306
O	-4.8437892129	 0.5251743613	 0.0415034597	-0.340773
O	-3.9647325713	-1.5293861381	 0.0296553501	-0.22098
C	-2.8989542611	-2.3390241355	 0.0193275778	 0.094672
C	-1.627900349	-1.8946329629	 0.0105298414	-0.254939
H	 0.9600091602	 1.7171316123	-0.0017309222	 0.297969
H	 0.5214085189	-0.3968459929	-0.8868092018	 0.113153
H	 0.5358603217	-0.4025298178	 0.8803666665	 0.113123
H	-2.3392849818	 1.438692971	 0.0242993843	 0.143151
H	-3.1844103484	-3.3850907399	 0.0189610815	 0.142071
H	-0.8074688392	-2.6009708436	 0.0024069544	 0.107128
