17
gdb 105338	2.35214	1.53206	1.16156	4.219	72.4	-0.2509	0.0335	0.2844	1087.1063	0.136035	-417.962557	-417.954012	-417.953068	-417.995801	31.664	
O	-0.0162369257	 1.3617151652	-0.1929403553	-0.418703
C	 0.0231619298	-0.0178658777	 0.1284795858	-0.137327
C	-1.4107603443	-0.5383864951	 0.0486462876	 0.164255
C	-2.108010247	-0.4824438257	-1.3756008279	-0.26501
C	-2.2481439781	-2.0058277332	-1.3263446533	-0.027521
N	-0.872465496	-2.5442176071	-1.2048755461	-0.339773
C	-1.5886984097	-2.0797446289	 0.0026383773	-0.114461
C	-2.2512613041	 0.0571197831	 1.0824193875	 0.252812
N	-2.9260410757	 0.4946885935	 1.912856189	-0.347078
H	 0.8772697193	 1.7124350496	-0.1370235338	 0.29485
H	 0.6251925067	-0.5922160092	-0.5857617615	 0.12112
H	 0.4199411653	-0.1894251604	 1.1407417169	 0.09846
H	-3.058083831	 0.050259504	-1.3446832976	 0.135199
H	-1.4799354056	-0.0857458607	-2.1745437438	 0.127371
H	-3.0480285867	-2.6099617378	-1.7340339757	 0.105908
H	-0.9366691722	-3.5616987654	-1.2119585809	 0.237537
H	-1.7631165152	-2.7281328544	 0.8515351318	 0.112362
