18
gdb 96497	2.578	1.53899	1.0783	0.5763	69.04	-0.254	-0.0001	0.2539	1107.3809	0.148563	-476.206052	-476.197805	-476.196861	-476.238713	31.232	
O	-0.1159429258	 1.4302218683	 0.012518329	-0.428809
C	 0.0365427316	 0.0161848763	 0.029919809	 0.098876
C	-1.399594267	-0.5028105092	 0.2009507258	-0.078696
O	-1.4563042806	-1.8973680772	 0.4859026723	-0.221569
C	-1.777646995	-2.7183216472	-0.5841518093	-0.010556
O	-0.8632211547	-2.5936694269	-1.6706910824	-0.22719
C	 0.4572959243	-2.7630756269	-1.3261722879	 0.100593
N	 1.2718538799	-1.8217481557	-1.150031329	-0.206234
C	 0.7643182653	-0.4535643319	-1.2478390517	-0.186582
H	 0.7599470472	 1.8270310106	-0.0169230792	 0.289359
H	 0.6190848137	-0.3131887405	 0.9035535156	 0.08765
H	-1.8356204422	 0.0167853563	 1.0589501308	 0.121826
H	-1.9932281024	-0.2556831878	-0.6886389511	 0.110255
H	-1.7796095421	-3.7408671455	-0.1866962801	 0.113694
H	-2.7516032291	-2.4745552332	-1.0276703258	 0.113059
H	 0.7759507196	-3.803912203	-1.2379154515	 0.117781
H	 0.0968481558	-0.3190555079	-2.1072908866	 0.117439
H	 1.6309055814	 0.2020605213	-1.3917277778	 0.089102
