21
gdb 41988	3.22557	1.41841	1.048	1.296	84.66	-0.2331	0.0224	0.2555	1179.1985	0.185998	-387.119613	-387.11194	-387.110996	-387.151821	30.607	
C	-0.0282629465	 1.430580901	-0.0563386995	-0.076604
C	 1.4235823143	 1.9164989295	 0.1945805873	-0.351938
C	 2.2241225389	 0.6493472205	-0.0173423324	 0.334172
C	 3.4797383209	 0.3702421949	 0.3170409033	-0.196457
C	 4.0731853084	-1.0102271003	 0.1770857028	-0.234649
C	 3.1278927323	-2.0110061925	-0.516396599	-0.21512
C	 1.6582300422	-1.795929728	-0.1179761823	-0.235171
C	 1.2562113175	-0.3910279922	-0.5377002125	 0.067732
O	 0.0028722549	 0.0084880741	 0.0077378306	-0.269748
H	-0.7433018389	 1.782985675	 0.691026798	 0.108312
H	-0.3775961537	 1.7596823591	-1.0478590296	 0.088772
H	 1.7044390814	 2.7173325431	-0.4978669962	 0.112397
H	 1.5540477816	 2.3041044709	 1.2095250792	 0.118685
H	 4.1139728062	 1.1351775896	 0.7619637346	 0.077318
H	 5.0273251088	-0.9618056601	-0.3640545778	 0.102646
H	 4.3323324285	-1.3755120993	 1.1823986739	 0.107474
H	 3.2167958558	-1.8974428705	-1.6045544242	 0.101082
H	 3.4385339486	-3.0351474938	-0.2870045907	 0.096268
H	 1.0117370016	-2.5443599062	-0.5868645214	 0.097803
H	 1.5339637033	-1.8836861874	 0.9676422943	 0.104107
H	 1.2011844838	-0.3418692973	-1.6429005883	 0.062919
