17
gdb 35367	3.81146	1.36463	1.28575	2.721	74.27	-0.2444	0.0251	0.2694	1006.4633	0.139183	-380.846849	-380.840037	-380.839092	-380.878172	27.124	
N	-0.044764822	-1.1716389116	-0.1274768738	-0.321856
C	-0.0375301959	-0.0175956417	-0.0593295901	 0.26608
C	-0.0101396672	 1.4422200416	 0.0333254423	-0.154823
C	-0.5975804982	 1.9589571142	 1.3891259188	-0.267718
C	 0.6359038146	 2.2765312811	 2.2272594232	-0.006542
C	 1.8797458955	 1.8773928158	 1.5438044494	-0.045324
C	 1.4398706776	 1.9790803777	 0.0634723194	-0.060533
C	 1.4090820852	 3.5073229933	 0.2998011744	-0.175781
N	 1.5875143672	 3.3391793872	 1.7822484637	-0.147924
H	-0.5598370473	 1.8471192065	-0.8231841108	 0.125086
H	-1.22763778	 2.838894206	 1.2292084525	 0.122256
H	-1.2144761576	 1.2014971823	 1.8770100849	 0.135183
H	 0.5634264623	 2.2305084843	 3.3078995671	 0.107049
H	 2.7308969653	 1.3602269209	 1.9683023251	 0.105392
H	 2.0847720419	 1.5924510704	-0.7232756976	 0.096971
H	 2.2901071401	 4.017765647	-0.0940875551	 0.121262
H	 0.5115843086	 4.0579325251	-0.0061634131	 0.101221
