19
gdb 40867	3.92976	1.45895	1.34312	1.4086	78.14	-0.2295	0.0898	0.3193	1010.6144	0.160721	-385.818391	-385.81136	-385.810416	-385.849971	28.529	
C	 0.0330337791	 1.3707163938	-0.2865554375	-0.078924
C	 1.4774433994	 1.5674493145	 0.2045918758	-0.373423
C	 1.3299175578	 0.1423023556	 0.7736463604	 0.514097
O	-0.0112870591	 0.0277269933	 0.2405005526	-0.336704
C	 2.1978175809	-1.0686504386	 0.4871102417	-0.140838
C	 3.1935433138	-1.2000393262	 1.6492086498	-0.076002
C	 2.9385312879	-0.0337715251	 2.6060294208	-0.241727
C	 1.4373433241	-0.2374788067	 2.2717413572	-0.141745
C	 1.7837398571	-1.7091768779	 1.7964148384	-0.073063
H	-0.7203547773	 2.0177137228	 0.1793306445	 0.099485
H	-0.1120294372	 1.3855808571	-1.3733238649	 0.101051
H	 2.229361146	 1.6728077814	-0.5798005823	 0.110806
H	 1.6268976856	 2.3510821012	 0.9508305484	 0.108029
H	 2.36775145	-1.548801593	-0.4681634598	 0.086323
H	 4.0989218411	-1.7817381647	 1.5285833978	 0.086357
H	 3.1675420466	-0.3092048139	 3.6393697684	 0.100068
H	 3.3783023549	 0.9460273057	 2.3824280113	 0.088196
H	 0.6444559318	 0.0595170762	 2.9548986894	 0.073709
H	 1.3745986976	-2.6826562854	 2.0182816579	 0.094305
