15
gdb 115264	3.40695	1.03807	0.83442	3.8422	69.37	-0.2744	-0.0658	0.2086	1304.7792	0.113369	-453.9571	-453.948845	-453.947901	-453.99084	29.208	
O	 0.0963779153	 1.3748830417	 0.0760330132	-0.414991
C	 0.0461765203	-0.0290573898	 0.0327705342	-0.057665
C	-1.3979025723	-0.5387782202	-0.04843397	-0.022355
C	-1.5395876838	-2.082144428	-0.0401783027	-0.136872
O	-2.3904484377	-2.3568797336	 1.1060092272	-0.249535
C	-2.6086133217	-1.1522180669	 1.6775445036	 0.331751
N	-2.1355230016	-0.0968169463	 1.1531649966	-0.327299
C	-3.3940253677	-1.1766704755	 2.8808607314	 0.28707
N	-4.0250737089	-1.196026887	 3.8477704843	-0.307427
H	-0.4863902286	 1.6512556047	 0.7940045943	 0.301087
H	 0.59838635	-0.3433188371	-0.8600800404	 0.116127
H	 0.534309976	-0.4909089146	 0.907902098	 0.092507
H	-1.8715421709	-0.0824819868	-0.924349346	 0.114561
H	-2.030032042	-2.4878038463	-0.9264853798	 0.140067
H	-0.5891585263	-2.6018965745	 0.1185957761	 0.132976
