18
gdb 74534	3.67214	1.44726	1.38873	0.9415	75.62	-0.2181	0.0163	0.2344	1014.2092	0.148278	-401.918644	-401.911162	-401.910218	-401.950252	29.841	
C	 0.0738246716	 1.478393358	 0.0751262639	-0.47622
C	-0.0102031476	-0.0012165976	-0.0589421838	 0.363188
N	-0.0808224992	-0.6730676185	-1.1468982429	-0.348557
C	-0.0594409064	-2.0590643354	-0.7475391241	 0.239159
C	 1.1474353722	-2.5877471069	-0.0194953247	-0.37051
C	-0.0079901205	-2.0565894058	 0.7740216377	 0.291909
C	-1.2404382273	-2.9686718614	 0.8400168822	-0.283582
C	-1.2575523628	-3.0258578886	-0.7362536098	-0.279192
O	 0.0114918068	-0.6936270017	 1.1459897157	-0.281745
H	 1.0484350543	 1.7701284799	 0.4800348597	 0.148326
H	-0.0630431335	 1.9420634007	-0.9012065472	 0.154501
H	-0.6888143322	 1.8387971877	 0.7721124203	 0.14578
H	 1.3422596283	-3.6563285737	-0.0123692204	 0.118545
H	 2.0302648934	-1.9604665835	-0.0507025495	 0.129643
H	-1.1177674781	-3.9116617355	 1.3813115342	 0.105057
H	-2.1080148338	-2.4416141666	 1.2405764101	 0.12039
H	-2.1565336365	-2.5797906352	-1.1639454816	 0.120041
H	-1.0915508186	-4.0040061758	-1.1971818897	 0.103266
