15
gdb 48123	2.4618	1.58448	1.01246	4.9131	70.76	-0.2652	-0.0736	0.1917	1119.3779	0.111822	-453.969927	-453.961523	-453.960579	-454.003829	29.428	
N	 0.0266485434	 1.3309412904	-0.6385110115	-0.484371
C	 0.0266845012	 0.0933269994	-0.3202505145	 0.270114
C	-1.3455645987	-0.5289584861	-0.1798231133	 0.147343
O	-1.5860553472	-1.5257199201	 0.4431429543	-0.2317
N	 1.1388159574	-0.6701577291	-0.011562059	-0.158556
C	 2.5323512063	-0.2211643417	 0.1654606945	-0.189353
C	 2.9446839658	-1.709364722	 0.3022798638	-0.372631
C	 1.4724117568	-2.0501612432	 0.0124275071	 0.42605
O	 0.8402693666	-3.0399933631	-0.1832615421	-0.311578
H	 0.9672968475	 1.7302436058	-0.653678069	 0.228153
H	-2.1180546809	 0.0947787391	-0.6699922239	 0.116947
H	 2.9411251477	 0.2852701093	-0.7146560671	 0.128501
H	 2.6731618377	 0.4039792443	 1.0510739355	 0.134004
H	 3.645390112	-2.0853597307	-0.4442227824	 0.146933
H	 3.2740081544	-2.0098673123	 1.2982242277	 0.150144
