22
gdb 78273	2.46988	1.41201	1.11919	1.582	87.08	-0.2122	0.0698	0.282	1228.8162	0.192944	-367.129663	-367.120357	-367.119413	-367.162972	36.091	
C	 0.0757024065	 1.3458890099	 0.8755973298	-0.41597
C	 0.1262279315	-0.1215721681	 0.5181058329	 0.010613
C	 0.9676694105	-0.5352964267	-0.6342435434	-0.115475
N	 1.4355696483	-0.746423767	 0.7830390722	-0.149154
C	 1.399729143	-2.2314225206	 0.5042410934	-0.088686
C	 0.181610145	-2.9049956962	-0.1156612485	-0.062543
C	-1.3214547446	-2.8199931905	 0.1389213471	-0.440003
C	 1.0729102028	-2.0431421188	-0.9682811747	 0.301552
C	 1.7886266319	-2.5004274857	-2.2069192295	-0.493848
H	 1.0196798077	 1.8374266403	 0.6244794933	 0.127182
H	-0.7345289838	 1.8492414182	 0.3373458817	 0.114847
H	-0.094543887	 1.4735593062	 1.949390867	 0.123702
H	-0.765810322	-0.6734508367	 0.7747010987	 0.089498
H	 1.4615033784	 0.2046731692	-1.2594763952	 0.088716
H	 2.1763055145	-2.8190144971	 0.9809959413	 0.093592
H	 0.4835401907	-3.9433098094	-0.2641555845	 0.089754
H	-1.7894485909	-1.9792543227	-0.3780260481	 0.129852
H	-1.8028931996	-3.7302965535	-0.2328884617	 0.111102
H	-1.5597997754	-2.7429508602	 1.2052313275	 0.127311
H	 1.1716958671	-2.3545601993	-3.102733098	 0.118596
H	 2.7228135185	-1.9460914669	-2.3556831461	 0.12142
H	 2.0363626771	-3.5648824245	-2.1459589851	 0.117942
