17
gdb 108453	2.37675	1.67922	1.21919	3.5935	67.52	-0.2743	0.0017	0.276	1042.9123	0.136382	-458.969334	-458.961299	-458.960355	-459.002207	29.987	
O	 0.0207835102	 1.4168543632	 0.0430099435	-0.417125
C	 0.0606155046	 0.003340722	 0.109549753	-0.175104
C	-1.3462763833	-0.5561942124	 0.0497403797	 0.123974
C	-2.3182654628	-0.391547864	 1.2649994293	-0.28206
C	-2.7606516864	-1.8803066636	 1.1125759128	-0.236021
C	-1.8434128918	-2.0216624677	-0.1155582004	 0.037128
O	-2.5312728029	-1.6431499629	-1.3598736708	-0.25983
C	-2.0700099266	-0.3550485365	-1.2721686733	 0.445329
O	-2.2137122238	 0.536504895	-2.0529241606	-0.350849
H	-0.4427367836	 1.6513913126	-0.7715465361	 0.302004
H	 0.6736698641	-0.4282522126	-0.6980391809	 0.098807
H	 0.5406781799	-0.2524522835	 1.0602222286	 0.111679
H	-1.7749481438	-0.1915720001	 2.1907170879	 0.123774
H	-3.0929656882	 0.3678395287	 1.1497480773	 0.127777
H	-2.4484739149	-2.5100065464	 1.9488203312	 0.118394
H	-3.8155061613	-2.0660901301	 0.903910041	 0.127875
H	-1.2215624894	-2.9014764616	-0.2725762025	 0.104248
