19
gdb 90742	3.08705	1.39639	1.18228	3.5121	74.97	-0.222	-0.0185	0.2035	1096.7037	0.160867	-419.198251	-419.190102	-419.189158	-419.231025	31.437	
C	 0.2897837601	 1.5762186665	-0.0478151981	-0.404473
C	 0.1254930463	 0.0687072968	 0.0130399709	 0.056304
N	 1.0767024451	-0.7115756415	-0.8178594234	-0.33706
C	 1.2868939051	-1.7048856361	 0.2708633855	-0.114469
C	 0.6246152923	-0.727063275	 1.2679848036	-0.023423
N	 1.7208249506	-0.1951315128	 2.0766111791	-0.313671
C	 3.0240124611	-0.4836861247	 1.4776131021	-0.277965
C	 2.7703843508	-1.7318875	 0.6280162451	 0.448749
O	 3.5838426325	-2.5511115206	 0.2939847968	-0.316216
H	 1.3171552675	 1.8716644169	 0.1850316676	 0.118317
H	 0.0584123708	 1.9493841137	-1.0510463011	 0.121988
H	-0.3886095437	 2.0716860412	 0.6563384844	 0.113833
H	-0.9241821061	-0.1974880155	-0.1842955206	 0.064789
H	 0.7208992829	-1.0887304353	-1.6880786619	 0.225418
H	 0.8477547549	-2.6956140401	 0.1321268199	 0.08343
H	-0.1755948075	-1.1036499611	 1.9097560259	 0.081029
H	 1.595683183	 0.7747586435	 2.3343295512	 0.224758
H	 3.4143341541	 0.3016256758	 0.809681995	 0.121761
H	 3.7860958202	-0.6889354915	 2.235987388	 0.126902
