18
gdb 72455	2.38956	2.16916	1.52854	2.0859	69.34	-0.2378	0.0711	0.3088	903.826	0.150621	-439.053252	-439.046497	-439.045553	-439.083846	28.779	
O	 0.0923938775	 1.356437752	-0.0971086971	-0.501566
C	 0.0558373066	-0.039220373	 0.0101044933	 0.381377
C	 0.8143420036	-0.709407563	-1.1582501989	-0.089375
O	 1.0505949862	-2.0534978631	-0.7018481019	-0.282062
C	 0.4892205743	-2.1284500446	 0.6300241036	 0.091571
C	 0.7749167989	-0.7344271179	 1.1938010309	-0.310415
C	-1.0306057187	-2.1206324892	 0.4296329498	-0.037029
N	-1.7784279133	-1.2115059587	 1.3309005906	-0.358596
C	-1.3179970102	-0.7267123701	 0.0097746948	-0.114261
H	-0.3968671577	 1.7226502199	 0.6471836454	 0.284445
H	 0.2320271701	-0.7252472732	-2.0870805319	 0.097833
H	 1.766261153	-0.197786705	-1.345366132	 0.106507
H	 0.9228815212	-2.9933953021	 1.1308548018	 0.077506
H	 1.8425442245	-0.5101441883	 1.2152018725	 0.104163
H	 0.3120689301	-0.5393791288	 2.1594521726	 0.124669
H	-1.5245841527	-2.9782117662	-0.0119985088	 0.097679
H	-2.7676925741	-1.4386521276	 1.2595145679	 0.234599
H	-2.0366765294	-0.4784765711	-0.7644012426	 0.092955
