19
gdb 71403	3.968	1.31473	1.25898	1.3065	79.77	-0.2326	0.0698	0.3024	1080.9213	0.160408	-381.987341	-381.979771	-381.978827	-382.018968	30.473	
C	-0.0131272304	 1.4429585812	 0.0372531808	-0.496675
C	 0.0820721531	-0.046541481	-0.0838426694	 0.332455
C	-0.5598910642	-0.928283843	-1.1491918284	-0.29033
C	-0.3948918535	-2.0494426862	-0.1053484178	-0.129589
N	-0.3350083734	-0.971579572	 1.0303186887	-0.193828
C	 1.1224833854	-0.8596358484	 0.6268019934	-0.181185
C	 1.10797775	-2.2417909091	 0.0466304421	 0.440236
C	 1.8106052265	-3.4497883227	 0.5088174499	-0.324059
N	 2.0877274884	-2.8650981552	-0.8297532545	-0.38752
H	 0.5998511363	 1.9356067317	-0.7257833833	 0.125344
H	-1.0477156882	 1.7802760544	-0.0854519417	 0.124483
H	 0.3357186741	 1.775418226	 1.0197509762	 0.130394
H	-1.6109717825	-0.6576204741	-1.2849497859	 0.106563
H	-0.0743794707	-1.0442044311	-2.1241800661	 0.099564
H	-1.0937203479	-2.8810030743	-0.0272478577	 0.08279
H	 1.8582109875	-0.4136315959	 1.2863265724	 0.095014
H	 2.6335879092	-3.3731722456	 1.2143892123	 0.123295
H	 1.2493923607	-4.3794016291	 0.5674885022	 0.113754
H	 1.6235640296	-3.4100110055	-1.5537324631	 0.229295
