15
gdb 51341	4.04384	1.2724	1.20294	5.5595	64.61	-0.2598	0.016	0.2758	1024.224	0.112394	-457.706374	-457.699365	-457.69842	-457.738354	26.48	
O	 0.4849456382	 0.1439206794	-0.2483470506	-0.279972
C	 0.9856222598	 1.2158789575	-0.084569616	 0.172257
O	 0.2446508902	 2.3099478106	 0.2055121269	-0.213748
C	 0.8415246718	 3.5947782765	 0.2296397933	 0.162971
C	 2.3197172173	 3.8449034228	 0.5144505955	-0.191767
C	 2.9910928135	 3.8277280839	-0.8679384778	 0.090906
O	 2.0065769793	 3.434387532	-1.8241134451	-0.280202
C	 1.0895439424	 4.3145284479	-1.122109474	 0.023723
C	 2.28416254	 5.0579376644	-0.4269785852	-0.152834
H	 2.0669633275	 1.4140840782	-0.1153498778	 0.094074
H	 0.21242487	 4.2022126922	 0.8821752764	 0.112561
H	 2.8586397839	 3.7394038011	 1.4464444075	 0.110995
H	 4.0315178634	 3.5965240908	-1.0502269845	 0.127053
H	 0.2904974794	 4.7092008267	-1.7432561428	 0.105154
H	 2.5613288333	 6.0909902257	-0.2811390559	 0.11883
