20
gdb 84133	2.53897	1.5044	1.08246	1.2202	80.63	-0.2291	0.0304	0.2595	1187.621	0.170184	-403.167652	-403.158706	-403.157762	-403.201548	33.845	
C	-0.2139847643	 1.5109049347	 0.0132241182	-0.383595
C	 0.0234772679	 0.0007803953	-0.0349587051	-0.064737
N	 0.9394594307	-0.3493287258	-1.1355494008	-0.314274
C	 1.9316626917	-0.9509013012	-0.6174857133	 0.39145
C	 3.1246336436	-1.4800955802	-1.3369112837	-0.477351
O	 1.9426281275	-1.1495136404	 0.731637035	-0.279579
C	 0.7102485145	-0.5988762169	 1.2081365907	 0.416672
C	 0.7307706115	-0.0310158644	 2.5910863664	-0.332534
C	 0.0268670563	-1.3488166473	 2.3053414323	-0.325375
H	 0.7174518958	 2.0449023803	 0.2243020991	 0.119201
H	-0.5955242854	 1.8536892216	-0.9519911727	 0.12875
H	-0.9459513323	 1.7728951333	 0.7842165593	 0.108898
H	-0.9379042672	-0.498358705	-0.2131637794	 0.086691
H	 3.0347318009	-1.2657981799	-2.4012238346	 0.151437
H	 4.0380922793	-1.0221463552	-0.9445434276	 0.143644
H	 3.2113427449	-2.5606237549	-1.1850478683	 0.143777
H	 1.6720543282	-0.0767165924	 3.1272870434	 0.126185
H	 0.1306934193	 0.847496693	 2.8004780152	 0.120076
H	-1.0587279867	-1.3681085568	 2.3065206692	 0.116705
H	 0.5008622037	-2.2569699379	 2.6605868069	 0.123958
