17
gdb 106213	2.87367	1.82768	1.33952	2.447	71.85	-0.2266	-0.0101	0.2165	966.6846	0.134954	-421.72822	-421.720841	-421.719897	-421.760028	29.114	
C	 0.0454683787	 1.3425483367	 0.1663730563	-0.263081
O	-0.0394082575	-0.0189649924	-0.212878454	-0.299225
C	-1.3058547652	-0.5509864269	-0.1321251903	 0.411874
C	-2.3959148511	-0.1402447419	-1.1165708128	-0.195744
C	-3.4367876551	-0.9109845159	-0.7937132578	-0.103509
C	-2.9420874619	-1.7483496527	 0.3687832149	-0.106215
C	-1.4350383284	-2.0948037922	 0.1024666794	 0.019193
O	-1.1068985728	-1.9673840548	 1.5252905542	-0.322508
C	-2.0173299874	-0.8513435853	 1.2582841465	-0.002099
H	 1.0834977074	 1.6484569969	 0.0223658534	 0.133919
H	-0.6039136322	 1.9812776174	-0.4491510923	 0.110633
H	-0.2260595342	 1.4829795782	 1.2217272729	 0.116613
H	-2.2944069482	 0.5953139523	-1.902171675	 0.112429
H	-4.4175817973	-0.9620406366	-1.2455396513	 0.113366
H	-3.567496963	-2.4918321948	 0.8564789274	 0.086768
H	-0.9900256257	-2.919387416	-0.4592176235	 0.095774
H	-2.2777426062	-0.189356692	 2.087855932	 0.091813
