16
gdb 29004	2.48949	1.59592	0.97838	4.2635	80.59	-0.2501	-0.0731	0.1771	1148.0823	0.125526	-400.824314	-400.81643	-400.815486	-400.856956	28.907	
C	-0.0305315473	 1.5344319496	-0.0241943096	-0.506798
C	-0.0074693472	 0.0252572621	 0.0077219302	 0.226889
C	-0.0235296918	-0.7041221967	-1.1804566931	-0.181278
C	-0.0020862549	-2.0945598112	-1.14275212	 0.01338
N	 0.0340367666	-2.8120299887	-0.0140476925	-0.281936
C	 0.0494326486	-2.1198411852	 1.1223503527	-0.022371
C	 0.0305396779	-0.720393202	 1.2013239113	 0.062182
C	 0.0516708602	-0.0904244118	 2.5419468723	 0.085743
O	 0.0823019962	-0.7066225636	 3.5830451039	-0.262558
H	 0.8556170439	 1.9630264595	 0.4549842633	 0.148263
H	-0.0599274128	 1.8931146465	-1.0555025658	 0.133181
H	-0.9055444507	 1.9370348017	 0.4961865897	 0.148267
H	-0.0527626217	-0.1912614945	-2.1363872631	 0.102697
H	-0.0146571684	-2.6624371467	-2.0705042139	 0.118288
H	 0.0787907574	-2.6854668317	 2.0495816619	 0.142022
H	 0.035207164	 1.0194288826	 2.5490613626	 0.074027
