22
gdb 6158	4.29551	1.08228	1.06887	1.3578	78.64	-0.2509	0.0746	0.3255	1254.3144	0.198639	-350.208239	-350.198898	-350.197953	-350.241832	35.573	
C	 0.0965165063	 1.484105374	-0.1725141177	-0.378308
C	 0.0328098221	-0.0260447781	 0.0774949032	-0.193164
C	-1.3881490596	-0.5759980976	 0.07331221	 0.065878
C	-2.17152845	-0.6066711435	-1.2718544062	-0.26946
C	-2.7115889633	-2.0098115291	-0.903163627	 0.424123
C	-4.1214683217	-1.999609083	-0.3206619638	-0.446233
O	-2.6224428325	-2.9037041051	-1.9989693876	-0.476493
C	-1.5892620209	-2.1141123102	 0.1767985256	-0.310454
H	 1.1293381609	 1.8462456326	-0.1705534901	 0.110508
H	-0.3452538233	 1.7437458365	-1.1407042598	 0.119388
H	-0.4515858735	 2.0364590488	 0.5991521733	 0.111354
H	 0.6205151097	-0.550940844	-0.6877231933	 0.092302
H	 0.5072605798	-0.2601453615	 1.0400992804	 0.092023
H	-1.9774498448	-0.062723499	 0.8427389016	 0.063143
H	-2.9054459704	 0.17903999	-1.4690224603	 0.091406
H	-1.494315144	-0.6870426379	-2.1273249794	 0.106507
H	-4.8510665673	-1.7456019472	-1.0960949694	 0.122062
H	-4.3798026382	-2.9852987121	 0.0877292139	 0.102937
H	-4.2141746514	-1.2739749927	 0.4936316893	 0.118485
H	-2.9882597273	-3.7519333766	-1.7248653157	 0.270413
H	-0.7309355526	-2.6572901004	-0.2298457766	 0.098698
H	-1.854212198	-2.5344955238	 1.1515779495	 0.084888
