13
gdb 25109	3.17989	1.47646	1.09609	4.1961	70.44	-0.2666	-0.0878	0.1787	1032.2113	0.089842	-452.76057	-452.753297	-452.752353	-452.79308	26.595	
N	-0.08742087	 0.964729046	 0.9152332407	-0.471262
C	-0.0015879741	 0.0963580429	 0.0026063807	 0.344397
O	 1.2081854274	-0.1562010702	-0.6100622254	-0.228003
C	 1.5078356597	-1.1922638853	-1.4364497155	 0.078425
C	 0.8229275103	-2.3083679827	-1.6952664787	-0.23173
C	-0.46458267	-2.7060579372	-1.0919754325	 0.347897
O	-0.713178439	-3.8529408463	-0.8067460328	-0.302696
N	-1.4631615323	-1.7133608312	-0.9349500729	-0.221766
C	-1.2583477881	-0.549217433	-0.4795461497	-0.005067
H	 0.8303546069	 1.3447381057	 1.1552744751	 0.243233
H	 2.4914034164	-1.0228130906	-1.8603498285	 0.146607
H	 1.3103992165	-3.0595319951	-2.3060018224	 0.138648
H	-2.1140483838	 0.1185413169	-0.3691195781	 0.161315
