20
gdb 22308	3.24084	1.08423	0.84481	1.2014	87.76	-0.2215	-0.027	0.1945	1377.5008	0.171543	-403.139917	-403.131171	-403.130227	-403.173071	33.965	
C	 0.0059234469	 1.5530191576	 0.0369782513	-0.403048
C	 0.0153833709	 0.0235143708	-0.0009064463	 0.0162
C	 0.7104124502	-0.5132259611	-1.2644999683	-0.249759
C	 0.9433540723	-1.9982318687	-1.2151548856	-0.083786
C	 0.8958694695	-2.719942773	-0.086841699	-0.106544
C	 0.6594924102	-2.0862264634	 1.2073856511	 0.340325
C	 0.6799704846	-0.5768682045	 1.2501002996	-0.27969
N	 0.4569572951	-2.6936110736	 2.3216658874	-0.214684
O	 0.4749665526	-4.0910727797	 2.1814332992	-0.396078
H	 1.0263404191	 1.9513568381	 0.0863598686	 0.113368
H	-0.4706391014	 1.969032313	-0.8571903303	 0.111595
H	-0.5391715778	 1.9243642248	 0.9108652099	 0.115382
H	-1.0246494945	-0.330346371	-0.023816858	 0.083388
H	 0.1213786216	-0.2607215614	-2.1556530606	 0.106606
H	 1.676202546	-0.0004126427	-1.4025073432	 0.110856
H	 1.154764465	-2.49670446	-2.158404681	 0.09707
H	 1.0382277896	-3.7929701336	-0.1006096271	 0.11351
H	 1.7252799908	-0.2352003186	 1.2911425424	 0.106753
H	 0.1950080069	-0.2325261836	 2.1674541653	 0.112986
H	 0.3304536924	-4.3828783196	 3.0870735146	 0.305552
