22
gdb 7010	2.33139	1.9393	1.51481	1.5935	77.97	-0.2376	0.0784	0.316	1014.3336	0.197911	-350.208161	-350.198623	-350.197678	-350.24167	35.918	
C	-1.0417178079	 1.0425050337	-1.056495853	-0.414643
C	-0.0400589879	-0.0553738842	-0.7631898784	 0.143617
O	 1.2834580188	 0.2470949389	-1.2592549648	-0.319665
C	 1.8938453359	-0.3118944437	-0.0742556806	 0.143617
C	 3.0796419962	 0.4958320432	 0.4116981931	-0.414643
C	 0.5214227921	-0.3144748107	 0.6707540478	 0.234436
C	 0.3266898971	 0.8437809164	 1.6486591062	-0.444271
C	 0.1172615692	-1.6387499847	 1.312187009	-0.458943
H	-0.7300768521	 2.0014250164	-0.635613509	 0.119605
H	-1.1439464797	 1.1659792686	-2.1395402433	 0.126767
H	-2.0268099314	 0.7837630587	-0.65306072	 0.113847
H	-0.3998493523	-0.9982227622	-1.2073126069	 0.059235
H	 2.220714909	-1.3458245271	-0.2737625141	 0.059235
H	 2.8069563107	 1.532259698	 0.6244183293	 0.119605
H	 3.5048600553	 0.0500218762	 1.3175440455	 0.113847
H	 3.8588997693	 0.5023814562	-0.3573246639	 0.126767
H	 0.6086881556	 1.8064744411	 1.2155151706	 0.124406
H	-0.7206578542	 0.9136385322	 1.9619743591	 0.112855
H	 0.930714697	 0.6945943287	 2.550258389	 0.112855
H	 0.7160413718	-1.8434902647	 2.2073799146	 0.11363
H	-0.9350550808	-1.6244825206	 1.6191923743	 0.11363
H	 0.2526237383	-2.4765246704	 0.6202730756	 0.114209
