17
gdb 57247	2.63527	1.28698	1.06591	1.0227	75.12	-0.254	-0.1003	0.1537	1168.6139	0.130726	-421.808399	-421.798202	-421.797258	-421.843446	36.335	
C	 0.0664721398	 1.5092603575	-0.2715726783	-0.431681
C	 0.0129243507	-0.027820862	-0.0491973187	-0.104473
C	 0.6832126767	-0.3970438676	 1.3032800872	-0.431682
C	-1.380005473	-0.4745615896	-0.0445307938	 0.370414
C	-2.5313478883	-0.8140775614	-0.0047309218	-0.461608
C	 0.7697345368	-0.7274635129	-1.1924682408	 0.305942
O	 0.2769835791	-1.5193094152	-1.9577861625	-0.272339
C	 2.2687815792	-0.4314951791	-1.4213882839	 0.09298
O	 2.9551811626	 0.3195056669	-0.7810175072	-0.223816
H	 1.0976123688	 1.8645345675	-0.2510929912	 0.149499
H	-0.3913848275	 1.7806057842	-1.2266417589	 0.133189
H	-0.4960413627	 2.0035689023	 0.5244711217	 0.136005
H	 0.1275672815	 0.0764884838	 2.1165961213	 0.136001
H	 0.6628083359	-1.4780944545	 1.4655540656	 0.13319
H	 1.7161022808	-0.0471677453	 1.3281325202	 0.149502
H	-3.5468067014	-1.1245074953	 0.0170988314	 0.199031
H	 2.6500552711	-1.0197649892	-2.2828386302	 0.119845
