16
gdb 125221	4.46017	1.03593	0.84511	4.5968	73.76	-0.2404	-0.0109	0.2295	1316.1408	0.1255	-434.137693	-434.128739	-434.127795	-434.172174	31.658	
C	-0.0239524682	 1.5035216998	 0.087402943	-0.503549
C	 0.0028297628	 0.017403103	-0.0577536561	 0.395767
C	-0.0243411788	-0.8036062641	-1.1648735251	-0.381141
C	 0.0280638062	-2.1180281131	-0.6520920031	 0.26989
N	 0.082823311	-2.1236204334	 0.680744014	-0.310059
N	 0.066690102	-0.8234060461	 1.0148034478	-0.25092
C	 0.0244387575	-3.375383542	-1.4470357011	 0.33812
N	 0.083138094	-4.5119824143	-0.7015528501	-0.54146
O	-0.0279934341	-3.3631377997	-2.665017032	-0.374477
H	 0.8819164699	 1.8818537911	 0.5747550018	 0.139419
H	-0.092745425	 1.9705687573	-0.8966879402	 0.151099
H	-0.8835004603	 1.8397857593	 0.678342096	 0.138762
H	-0.0742408901	-0.5170730317	-2.201615868	 0.127973
H	 0.1008296859	-0.5698044935	 1.9887408571	 0.271962
H	 0.1205253446	-4.463043043	 0.302352178	 0.270878
H	 0.0800688525	-5.4001055497	-1.172195132	 0.257734
