15
gdb 49170	2.96033	1.41746	1.03627	4.3893	74.22	-0.2447	-0.0855	0.1592	1105.0217	0.112878	-420.655693	-420.648255	-420.647311	-420.687867	27.82	
O	-0.9065465971	 1.1531530222	 0.3882493058	-0.270863
C	 0.2229979196	 0.8302366853	 0.0926520742	 0.074813
C	 1.356444343	 1.7697722247	 0.0258991239	 0.069233
C	 1.3138625964	 3.099001332	 0.2535945511	-0.134557
C	 2.6568689933	 3.726349785	 0.1727715986	-0.086608
C	 3.6398441496	 3.2081719419	 1.2112206097	-0.275519
C	 3.608781285	 2.6060497426	-0.1796127711	-0.155301
C	 2.7536487849	 1.3651261934	-0.3319372493	 0.342464
O	 3.1190535121	 0.2719924509	-0.694465025	-0.327187
H	 0.48335894	-0.2173474535	-0.1573790542	 0.101488
H	 0.4109053446	 3.6449120091	 0.5035571997	 0.149143
H	 2.77148705	 4.7365108594	-0.199722902	 0.115725
H	 4.4925845706	 3.83569988	 1.4476762483	 0.135959
H	 3.2450053839	 2.6351924898	 2.0429797144	 0.13889
H	 4.4668294143	 2.7361961772	-0.8257306542	 0.12232
