18
gdb 45579	2.88065	1.55334	1.20614	3.2679	72.45	-0.2558	0.0251	0.2809	1051.0282	0.150397	-439.088487	-439.081106	-439.080162	-439.120769	28.585	
N	-0.0817105801	 1.2541179702	-0.4422983098	-0.547266
C	-0.0174576951	 0.056050454	-0.0815089073	 0.439656
O	 1.0479042862	-0.7036822803	 0.3516868503	-0.266803
C	 0.1752771084	-1.8556847472	 0.6356905045	 0.102851
C	 0.1264875067	-2.1616863495	 2.1388360864	-0.230353
C	-1.2971344742	-2.060760106	 2.6986514456	-0.081422
O	-1.9161026387	-0.8489175307	 2.3089836019	-0.236668
C	-2.2493285942	-0.8590453856	 0.9352222306	-0.106507
C	-1.0272986343	-1.0654711784	 0.0414177629	-0.176713
H	 0.8294264808	 1.7125064396	-0.390790469	 0.228135
H	 0.503002747	-2.7114656346	 0.0422403137	 0.095341
H	 0.5427279758	-3.1516628561	 2.3519293417	 0.103892
H	 0.7578216285	-1.4248072207	 2.6433577323	 0.132666
H	-1.9073291361	-2.9184859988	 2.3676735362	 0.08789
H	-1.2788938133	-2.0681497802	 3.7918577466	 0.11605
H	-2.9884089231	-1.6532327685	 0.7375847515	 0.090559
H	-2.713421099	 0.1051568198	 0.7111866188	 0.137755
H	-1.3360085853	-1.4300764969	-0.9419601169	 0.110939
