18
gdb 99042	4.12145	0.72736	0.67338	1.9485	73.34	-0.2832	-0.0453	0.2379	1640.7082	0.144873	-439.11984	-439.109684	-439.10874	-439.156135	35.263	
C	-0.1445774207	 1.6390108694	 0.1050366571	-0.400183
C	 0.0003166388	 0.1055810814	 0.0463252365	-0.135785
C	 0.7991965043	-0.4607828065	 1.2388014222	-0.314957
C	 2.2796769913	-0.136051376	 1.163747108	 0.350357
O	 2.8155691054	 0.2590250521	 0.1493623554	-0.3188
C	 3.1160041812	-0.3406779779	 2.418180424	-0.12524
O	 4.4695358251	-0.1086166692	 2.1780138052	-0.415993
C	-1.3152876855	-0.5371355259	-0.0200231651	 0.265047
N	-2.3545984134	-1.0412052731	-0.0591750424	-0.318844
H	 0.8448743059	 2.1002855786	 0.0953573531	 0.145735
H	-0.705666019	 2.0069562258	-0.7568517513	 0.144304
H	-0.6740133137	 1.9456121932	 1.0119386378	 0.133954
H	 0.5458655531	-0.1554950706	-0.8672747021	 0.151553
H	 0.3877449295	-0.1071434366	 2.191427219	 0.140278
H	 0.7148704072	-1.5550862569	 1.2667487116	 0.159175
H	 2.7183643743	 0.3368770099	 3.1944491888	 0.119904
H	 2.9465158207	-1.3635501441	 2.7920350367	 0.12242
H	 4.5200126756	 0.1949863065	 1.2580271255	 0.297073
