19
gdb 105003	1.90905	1.6964	1.04337	4.8228	74.94	-0.2726	0.021	0.2936	1182.0154	0.15869	-419.191714	-419.182242	-419.181298	-419.22624	34.92	
C	 0.83441466	 0.6277371837	-0.1290968895	-0.39328
C	-0.0020322947	-0.6059901354	-0.5030715153	-0.296286
C	-1.408625468	-0.6505665485	 0.0860660764	 0.296857
C	-1.8193904782	-1.8160964177	 0.913061684	-0.275418
N	-1.6166571692	-0.4919975498	 1.532274346	-0.364277
C	-2.5411435567	 0.026387569	-0.7139642345	-0.065052
O	-3.7386294071	 0.0611575991	 0.0183045712	-0.410003
C	-2.174182455	 1.393895124	-1.1611093098	 0.27814
N	-1.9119121005	 2.46188857	-1.5164183109	-0.33505
H	 1.8300786165	 0.5498634206	-0.5754544561	 0.1216
H	 0.3785799891	 1.5556759811	-0.4775092718	 0.165248
H	 0.969585548	 0.7044800048	 0.9553205188	 0.110628
H	-0.0826457548	-0.6766972836	-1.5951893957	 0.11698
H	 0.534137465	-1.5072819771	-0.1851946948	 0.10593
H	-2.8500704137	-2.1548404315	 0.9087434179	 0.138508
H	-1.0755196118	-2.5877430306	 1.0889111157	 0.121001
H	-0.7339356669	-0.4367863611	 2.0311853107	 0.243025
H	-2.7271750182	-0.5645245981	-1.6195201648	 0.138015
H	-3.4667048439	 0.2542513512	 0.9325934324	 0.303435
