18
gdb 44569	2.99968	1.65764	1.43319	3.799	74.93	-0.242	0.0196	0.2616	961.6906	0.150651	-401.966347	-401.959455	-401.958511	-401.9976	27.936	
O	-0.2870699684	 0.243469852	 0.8368144264	-0.353568
C	-0.2103669292	 1.3049198962	 0.2818604902	 0.388498
C	-1.1898132312	 2.2923445332	-0.3964650209	-0.39469
C	 0.0120112987	 3.2824679251	-0.385335314	 0.004353
C	 0.1620747397	 4.3342877751	 0.7020287429	-0.045477
C	-0.0580970972	 3.9116977431	 2.1344754935	-0.305972
C	 1.3398251673	 3.9167659612	 1.5773548729	-0.035148
C	 1.8726023857	 2.5756841907	 1.0618010052	-0.210755
N	 0.8707027079	 2.166427139	 0.079313864	-0.084016
H	-1.5468216375	 1.9873324916	-1.3819655657	 0.130823
H	-2.0377934696	 2.5712425543	 0.2308968214	 0.134853
H	 0.295740638	 3.6853167817	-1.3625890731	 0.082503
H	 0.0122662422	 5.3747811156	 0.4389500296	 0.091036
H	-0.3194670365	 4.6919449316	 2.8403858412	 0.118806
H	-0.5282197007	 2.9557665111	 2.3453800577	 0.135578
H	 2.0540488923	 4.6469442451	 1.939879508	 0.092649
H	 2.8561406414	 2.7007327562	 0.5948348723	 0.113681
H	 1.9536950773	 1.8045378671	 1.8339195383	 0.136845
