21
gdb 105453	2.60624	0.98726	0.81377	1.2936	85.35	-0.2515	0.0354	0.2869	1491.778	0.179055	-387.032128	-387.021853	-387.020909	-387.067982	37.777	
C	-1.5030554498	-0.1311470405	-0.2446154491	-0.375064
C	-0.0015068109	-0.1761704836	 0.0585345884	-0.256502
C	 0.8222657248	-0.6475588461	-1.1267469417	 0.479086
C	 2.1708538653	-1.2919993822	-0.9135382808	-0.333741
C	 0.9853218935	-2.1141900074	-1.3840993794	-0.315619
O	 0.6660529035	 0.1069658516	-2.3050396729	-0.296256
C	 1.2704117531	 1.3927336988	-2.2545278711	-0.231686
C	 1.2365788359	 1.9986274919	-3.5791755063	 0.286244
C	 1.2189863964	 2.5218533398	-4.65985368	-0.422596
H	-1.7069148969	 0.5198631274	-1.0991871801	 0.13135
H	-1.8824072941	-1.12761987	-0.4932381081	 0.118928
H	-2.0679308415	 0.2421300609	 0.6147330899	 0.108197
H	 0.3434386259	 0.8151102742	 0.381009824	 0.097163
H	 0.1949712945	-0.8474418902	 0.9023857	 0.097956
H	 2.9424232624	-1.084097096	-1.6466249292	 0.119317
H	 2.5318228202	-1.4268175157	 0.1004935637	 0.111788
H	 0.5268755448	-2.811388707	-0.6911555013	 0.111313
H	 0.9825181454	-2.4283380658	-2.4210399954	 0.126813
H	 0.7474112507	 2.0483707857	-1.5415065291	 0.122851
H	 2.3122086217	 1.3111115981	-1.907353152	 0.120996
H	 1.2011425248	 2.9792876761	-5.6180024793	 0.199462
