18
gdb 56180	3.78468	0.90681	0.87712	1.0762	68.8	-0.2638	0.0532	0.317	1374.2657	0.145744	-476.248463	-476.238785	-476.237841	-476.284056	34.665	
C	-0.4731224989	 1.41736156	-0.0781677014	-0.46976
C	-0.110437283	-0.04563852	 0.0280362757	 0.417436
C	-1.1636335951	-0.9668355342	 0.6045715215	-0.137807
O	-1.6077574089	-0.5097806066	 1.8906652305	-0.266317
C	-2.8411309287	 0.0623863738	 1.9377722599	 0.507459
N	-3.0967552587	 0.4820044149	 3.2096840094	-0.560952
O	-3.5838667464	 0.2034848319	 0.9937744721	-0.401983
C	 0.8819599226	-0.6419350683	-0.8787055949	-0.230144
O	 1.2307233263	-0.3153073367	 0.4666402953	-0.274108
H	 0.3256828716	 1.9746739436	-0.5725393949	 0.12164
H	-1.4039554947	 1.5462867964	-0.6384156019	 0.139247
H	-0.6207131452	 1.8429662757	 0.9188952703	 0.137456
H	-2.027374274	-1.0283759903	-0.061994861	 0.14261
H	-0.735307117	-1.9592627327	 0.7632517308	 0.11225
H	-2.5163263828	 0.1488809852	 3.9602165718	 0.268112
H	-4.0443693008	 0.7462112417	 3.4148858197	 0.270494
H	 0.8470588265	-1.7069188728	-1.1087107796	 0.11034
H	 1.3365857372	-0.0212107616	-1.6496805232	 0.114028
