18
gdb 111962	3.26916	1.17312	0.91303	2.5396	75.16	-0.2093	-0.0004	0.2089	1270.6606	0.147206	-439.123006	-439.113767	-439.112823	-439.157379	33.019	
C	-0.0728986548	 1.4779271988	 0.0275054499	-0.35263
N	-0.0180233839	 0.0355846724	-0.0386931187	-0.082468
C	 0.0217614785	-0.7391442133	-1.212789795	-0.031631
C	 0.1009007045	-2.0453835609	-0.9444925669	-0.154793
C	 0.1117962381	-2.2235114423	 0.5515692332	-0.173785
C	 1.3179782732	-2.9693140021	 1.1234838426	-0.075972
O	 1.2279325662	-4.3167802925	 0.6882079133	-0.425945
C	 0.0540075884	-0.7787069591	 1.0772540158	 0.399859
O	 0.0810217623	-0.402421887	 2.2305635179	-0.396009
H	 0.7946181894	 1.9341093513	-0.4631284598	 0.130251
H	-0.9848606114	 1.8645483075	-0.4411459255	 0.131337
H	-0.069823212	 1.7512665861	 1.0841792909	 0.168605
H	-0.0159881577	-0.233515028	-2.1679956142	 0.125093
H	 0.145296466	-2.8500019979	-1.6607790898	 0.119224
H	-0.7868951903	-2.7500353247	 0.9003723033	 0.125701
H	 2.246192083	-2.4941370693	 0.7703258646	 0.091594
H	 1.2894594153	-2.8858447158	 2.2191348156	 0.112632
H	 1.9876205052	-4.7946946732	 1.0334936829	 0.288937
