23
gdb 36896	4.6574	0.81379	0.78244	0.2626	89.55	-0.2467	0.0919	0.3386	1569.0782	0.206962	-351.111796	-351.103151	-351.102207	-351.145723	33.913	
C	-0.2363756942	 1.5757680431	-0.043137299	-0.236928
C	-0.2595988894	 0.0698813368	-0.2130999148	 0.043253
C	-0.1656104611	-0.8355904441	 0.9903826178	-0.255461
C	-1.4586617645	-0.7349480209	 0.2164291232	-0.279068
C	 1.1790281876	 2.146276906	 0.0363832047	 0.040108
C	 2.0983208099	 2.1285733095	-1.2390122537	-0.252211
C	 2.3073439686	 3.6404141866	-1.0882278284	-0.036175
C	 0.9869678333	 4.3505085159	-1.1663642409	-0.274011
C	 1.3690044656	 3.6697582513	 0.1206038361	-0.072183
H	-0.7827552868	 2.0467628781	-0.8707602927	 0.09212
H	-0.7816882399	 1.842526005	 0.8730225082	 0.087248
H	 0.2482768103	-0.2858510113	-1.1067245993	 0.081415
H	 0.4119186752	-1.7502752408	 0.91314379	 0.107691
H	-0.127629405	-0.370478895	 1.9705897303	 0.107136
H	-2.2843027974	-0.2031750751	 0.6785989091	 0.107927
H	-1.7624833074	-1.5804217915	-0.3911259908	 0.107763
H	 1.7087838496	 1.6606205485	 0.8624544972	 0.072663
H	 3.0056590814	 1.5384418728	-1.0942384443	 0.100377
H	 1.6258332334	 1.8123914492	-2.1763879499	 0.089511
H	 3.2462713567	 4.1612620316	-1.2313801358	 0.0812
H	 1.0376800479	 5.4345662829	-1.1399510116	 0.10716
H	 0.1892738712	 3.96359692	-1.7963418597	 0.103026
H	 1.4653089452	 4.2311669513	 1.0430298242	 0.077438
