16
gdb 54351	1.994	1.82155	1.10401	4.3026	71.16	-0.2499	0.008	0.2579	1087.6576	0.122712	-437.857779	-437.848688	-437.847744	-437.89266	32.906	
N	 0.049578453	 1.2669396084	 0.4728598561	-0.56327
C	-0.0130419245	 0.1429651598	-0.2792797455	 0.376197
O	 0.8661447732	-0.2112306551	-1.0409967824	-0.364372
C	-1.2919763103	-0.7056201929	-0.1283125391	-0.056091
C	-1.8738692994	-1.1642320701	-1.508465326	-0.090731
O	-1.6523155687	-2.5493250853	-1.2122066857	-0.264496
C	-0.9836760857	-2.2346070664	 0.0162966705	-0.090735
C	-2.2690105789	-0.1856955093	 0.8070465234	 0.223074
C	-3.075689587	 0.252579309	 1.5856586838	-0.388685
H	 0.8697683129	 1.8457765726	 0.4003094421	 0.264934
H	-0.6994840941	 1.5263078128	 1.0921051395	 0.271093
H	-2.9323797278	-0.932140801	-1.6611340884	 0.1135
H	-1.2720477005	-0.8205833345	-2.3555649073	 0.127484
H	 0.0874567344	-2.4551908385	-0.0269913663	 0.127492
H	-1.4476744121	-2.7173602483	 0.8819001214	 0.113499
H	-3.8013591244	 0.6215105288	 2.2682652338	 0.201107
