21
gdb 23027	2.65059	0.96349	0.90235	0.9671	83.47	-0.2249	-0.0019	0.223	1447.6238	0.179956	-420.339967	-420.329522	-420.328577	-420.376379	37.466	
C	 0.1865431777	 1.691429245	 0.2667970944	-0.372435
C	 0.5212258389	 0.2458992875	-0.0933395898	-0.124882
N	 0.7693620499	-0.5230639737	 1.1266464968	-0.086306
C	-0.3868915117	-1.1537621474	 1.7508173327	-0.257802
C	 0.6433566292	-1.9992891272	 1.0886152076	-0.071718
C	 0.3703805207	-2.7519888817	-0.1699322906	 0.342815
C	 1.5220242733	-3.4299687455	-0.8647727823	-0.478463
N	-0.8327860487	-2.7741805416	-0.6089955613	-0.165322
O	-0.9267719226	-3.4724290973	-1.8224190103	-0.396359
H	 0.9898036486	 2.1386070549	 0.8591303156	 0.124534
H	 0.0442824885	 2.2900628125	-0.6382697522	 0.110147
H	-0.7357978069	 1.7436685817	 0.8546034744	 0.117851
H	-0.2849261975	-0.1842069974	-0.7062457831	 0.103114
H	 1.4382234798	 0.2154808729	-0.6948989321	 0.097415
H	-0.4289544491	-1.1098507212	 2.8361603424	 0.110802
H	-1.3469698912	-1.0786610687	 1.2454016706	 0.127528
H	 1.3933183935	-2.4828555155	 1.7126264412	 0.092294
H	 1.2552081955	-4.4545986071	-1.1379734134	 0.149135
H	 1.7626835096	-2.9102526613	-1.7992228519	 0.148014
H	 2.4132348126	-3.4380168265	-0.2347128542	 0.123061
H	-1.8730016199	-3.4438475524	-1.9992503546	 0.306578
