16
gdb 12211	4.0741	1.51221	1.18775	5.1139	70.04	-0.2473	-0.0199	0.2274	1013.762	0.130528	-379.946115	-379.938002	-379.937058	-379.979003	28.486	
C	-0.0967431297	 1.5990576377	-0.010336279	-0.403833
C	 0.0176977207	 0.080252195	-0.0230600676	-0.137645
C	 0.8334883618	-0.5876229519	-1.1695269645	-0.19463
N	 1.750140531	-1.1184640307	-0.1472924204	-0.097653
C	 2.8768709161	-1.9075147861	-0.296542972	 0.069437
N	 3.5847595475	-2.2924338301	 0.6835600873	-0.411097
C	 1.0706261998	-0.5246705942	 0.9326888566	 0.431121
O	 1.2724270443	-0.5050130354	 2.1096425799	-0.327486
H	 0.8772824623	 2.0707568126	-0.1765209983	 0.127065
H	-0.7834939587	 1.950637297	-0.7864709645	 0.122885
H	-0.4723066868	 1.9402464763	 0.9584625379	 0.144743
H	-0.9607728202	-0.3870591042	 0.1216428423	 0.110891
H	 0.3083011442	-1.3622295447	-1.73601113	 0.120527
H	 1.3099464157	 0.1164882781	-1.8593094696	 0.119628
H	 3.0577864721	-2.1420870718	-1.3541854038	 0.095676
H	 4.36136073	-2.8607395277	 0.3494864957	 0.23037
