21
gdb 80652	2.54658	1.67993	1.25797	1.7555	83.38	-0.2272	0.0106	0.2378	1090.9825	0.183543	-387.087015	-387.078791	-387.077846	-387.119302	32.874	
C	-0.0517364673	 1.5503457908	-0.0153054735	-0.403844
C	 0.0213611484	 0.0141945575	 0.0124588159	-0.070344
C	 0.722997107	-0.5070060259	-1.2577977797	 0.08627
C	 1.0561849522	-2.0116353711	-1.1960903642	-0.255878
C	 2.2778655146	-1.4658229099	-0.4165910605	 0.047158
O	 2.1451267378	-0.205227711	-1.1499612469	-0.296375
C	 1.8757567953	-1.2358412801	 1.0221897972	-0.167391
C	 0.7691834753	-0.5175464849	 1.2369114237	 0.315736
C	 0.222116742	-0.2164913108	 2.6024598745	-0.484554
H	 0.9566604639	 1.9670348612	-0.0892853606	 0.137528
H	-0.6286447517	 1.891849576	-0.8816543967	 0.109661
H	-0.5305960258	 1.9540991262	 0.8807784293	 0.112014
H	-1.0055948216	-0.3823789798	 0.031427025	 0.073073
H	 0.2819352764	-0.0971909188	-2.1717982634	 0.069088
H	 0.3753222012	-2.6906255946	-0.6795009769	 0.097218
H	 1.3280896729	-2.3985547908	-2.179937406	 0.105135
H	 3.2618520681	-1.9196105683	-0.5486618915	 0.07233
H	 2.455145946	-1.6690002765	 1.8319855886	 0.081514
H	 0.7980037801	-0.7252706463	 3.3803841136	 0.121053
H	 0.2392332279	 0.857766572	 2.8219526318	 0.130381
H	-0.8248818227	-0.5352877448	 2.6881333503	 0.120227
