19
gdb 35549	2.46838	1.59201	1.43436	3.165	77.59	-0.2366	0.0307	0.2672	1015.1632	0.162481	-382.078241	-382.070506	-382.069562	-382.110654	30.129	
N	 1.0987437134	-0.669988403	 0.8480081885	-0.34136
C	 0.5373877465	 0.284331844	 0.5120734312	 0.267773
C	-0.1522118926	 1.5024316069	 0.0266516068	-0.128442
C	-0.8954146648	 2.2543826783	 1.160108085	-0.23259
C	 0.1440330262	 3.2433230374	 1.7026560302	 0.002624
C	 1.2428743362	 2.6812536569	 2.6546919543	-0.238232
C	 2.3159209782	 2.8808152571	 1.5461732069	-0.23624
C	 1.2083346895	 3.395471186	 0.5700363395	 0.015507
N	 0.742460524	 2.5273388121	-0.5106851382	-0.294964
H	-0.8504792385	 1.170820046	-0.7504067109	 0.125479
H	-1.7351503994	 2.7913915343	 0.7109425822	 0.117359
H	-1.2897444614	 1.575191743	 1.9193300395	 0.122546
H	-0.3206583856	 4.1671648455	 2.0496046083	 0.074938
H	 1.4004239049	 3.2787451967	 3.5551327542	 0.102045
H	 1.0894068697	 1.6429411996	 2.9580268017	 0.120652
H	 3.0685165214	 3.6368400235	 1.7836709415	 0.099656
H	 2.8293975798	 1.9728397828	 1.2212987881	 0.11549
H	 1.3845890365	 4.3998827246	 0.1754310893	 0.076636
H	 1.4876190962	 2.1463886584	-1.0822514683	 0.231122
