21
gdb 90766	3.23472	1.32044	1.14358	1.5424	77.56	-0.2395	0.0745	0.314	1151.1378	0.183242	-424.220705	-424.212088	-424.211143	-424.253865	33.262	
C	 0.2573357464	 1.5823644651	 0.208190195	-0.40248
C	 0.1286446432	 0.0780461171	 0.0297239171	 0.017538
C	 1.087271192	-0.6508446619	-0.9621467765	-0.283865
C	 1.3920633823	-1.7219224787	 0.1244222859	-0.031201
C	 0.6415877514	-0.8517516674	 1.1744648126	 0.102614
O	 1.6290507206	-0.2874656898	 2.0291096893	-0.259058
C	 2.9216478556	-0.5179681649	 1.4859352857	-0.120716
C	 2.8219645728	-1.8016918139	 0.6449163261	 0.116267
O	 2.9084037698	-2.9814056584	 1.4323788789	-0.444533
H	 1.275770924	 1.8621367108	 0.4932668824	 0.120904
H	 0.0072495855	 2.1082493285	-0.7198674836	 0.109331
H	-0.4133696784	 1.9477324388	 0.9930750756	 0.11787
H	-0.9113008479	-0.1819024226	-0.1978515538	 0.07017
H	 0.6342483923	-1.0251349569	-1.8827310057	 0.100364
H	 1.9629000137	-0.0527571179	-1.236728711	 0.09353
H	 0.9872031259	-2.7143613922	-0.0711039392	 0.084159
H	-0.12124423	-1.3071452477	 1.8106547175	 0.075967
H	 3.2485173169	 0.3256359388	 0.8568066955	 0.088182
H	 3.6305951585	-0.61128908	 2.3167085479	 0.096697
H	 3.5662743853	-1.809012644	-0.1655826796	 0.066731
H	 3.7381677903	-2.9603538828	 1.9192006399	 0.28153
