20
gdb 104238	2.28142	1.33828	1.0851	1.2351	78.42	-0.2415	0.0241	0.2656	1242.9406	0.168315	-440.269334	-440.259061	-440.258117	-440.304885	35.983	
C	 0.076339861	 1.4146323184	-0.0562790158	-0.261733
O	-0.0397760078	 0.0055885418	 0.0903953662	-0.284627
C	 0.6462337122	-0.5510974996	 1.1891967804	 0.24351
C	 0.1235020776	-0.0810862775	 2.5417142769	-0.461579
C	 0.7867967685	-2.0783141764	 0.9929317728	-0.118474
O	 2.2406891415	-1.9551798795	 0.9229099509	-0.270523
C	 2.1717150095	-0.5782032399	 1.0504694478	 0.432029
N	 3.0711377267	 0.291328139	 1.0370283703	-0.340012
C	 4.4565848304	-0.1186887693	 0.8415630311	-0.342808
H	 1.1234514748	 1.7353314596	-0.0242091597	 0.145748
H	-0.3496229802	 1.6554814688	-1.0329012195	 0.127069
H	-0.4888765245	 1.9565539826	 0.7139837085	 0.108276
H	-0.9601845541	-0.2253468115	 2.594742863	 0.126348
H	 0.5945963066	-0.6446281259	 3.3520850959	 0.127125
H	 0.348144112	 0.9762829108	 2.701952714	 0.140243
H	 0.4862317344	-2.7131595001	 1.8295195637	 0.115124
H	 0.3723860542	-2.4384066288	 0.0497491577	 0.128664
H	 4.5861048366	-1.1947107284	 0.6792548578	 0.129098
H	 4.8697673626	 0.4204419623	-0.017621503	 0.128309
H	 5.044020558	 0.1779444334	 1.7175278312	 0.128211
