17
gdb 4073	6.19719	1.14855	1.06447	0.8563	73.19	-0.2406	0.0061	0.2467	1116.7774	0.141035	-363.794376	-363.786589	-363.785645	-363.826839	29.615	
O	-0.1917190104	 1.3296136854	 0.4204138878	-0.395121
N	-0.0050369477	-0.0622153964	 0.3028182576	-0.231168
C	-1.0637382627	-0.6249784911	-0.1010043376	 0.423454
C	-2.4617014304	-0.1717516376	-0.4828149471	-0.394119
C	-2.7771466468	-1.6553713458	-0.7699625515	 0.370727
C	-4.0521412388	-2.380309981	-0.4637332078	-0.318312
C	-3.6017274421	-2.1986831806	-1.8968163364	-0.318306
C	-1.3464706076	-2.0908771961	-0.3755105457	-0.391776
H	 0.6721185289	 1.6235375047	 0.7289534656	 0.305603
H	-3.0242621005	 0.2894147198	 0.3359024994	 0.125068
H	-2.4960554934	 0.5025117115	-1.3451571167	 0.12507
H	-3.9845437355	-3.3726352483	-0.028818511	 0.113723
H	-4.9003502079	-1.7985867104	-0.1165892717	 0.114309
H	-4.1454569394	-1.4941645411	-2.518413148	 0.114309
H	-3.2299915184	-3.0683540354	-2.429651402	 0.113724
H	-0.7489937184	-2.5289572508	-1.1818166332	 0.121408
H	-1.2782297688	-2.7421706568	 0.5020918383	 0.121407
