13
gdb 9567	4.49486	1.33422	1.23957	1.3959	64.62	-0.3008	-0.028	0.2728	960.3563	0.095118	-357.641102	-357.633312	-357.632368	-357.673277	27.464	
C	-0.057195963	 1.5455284468	-0.0728182117	-0.45152
C	-0.0044126084	 0.0352201154	 0.0184005169	 0.157923
N	 1.3078341023	-0.5933511121	-0.1948015439	-0.323757
C	 0.7116642237	-0.676588875	 1.1459404284	-0.227519
C	 1.3527985685	 0.0752625274	 2.1978430554	 0.343213
N	 1.8409006431	 0.6766174011	 3.0554365484	-0.318493
C	-1.1661928482	-0.6643762282	-0.49293396	 0.249709
N	-2.0837691257	-1.2220434425	-0.9220893033	-0.320396
H	 0.8527994548	 1.972421951	 0.3516175171	 0.163897
H	-0.1350709941	 1.8532990467	-1.1188270404	 0.151045
H	-0.92235662	 1.9337364653	 0.4709397411	 0.151159
H	 1.2224967908	-1.4893830641	-0.6694602308	 0.266362
H	 0.2889198562	-1.6230255619	 1.4705712328	 0.158378
