18
gdb 117422	4.81291	0.66681	0.59217	0.9465	77.28	-0.2612	0.0197	0.281	1851.1154	0.144458	-439.053507	-439.043278	-439.042334	-439.089917	35.467	
C	-0.3005214862	 1.4970248928	 0.0138353414	-0.390544
C	-0.0406682216	 0.0028166393	 0.0032245756	-0.027559
O	-1.3204659619	-0.6526049893	 0.0117163489	-0.245548
C	-1.3010602106	-1.9860972874	 0.0040449643	 0.518767
N	-0.2306762491	-2.6678777932	-0.0095673829	-0.609016
O	-2.5964393817	-2.3852072651	 0.0136463459	-0.232272
C	-2.8261686069	-3.7929795371	 0.00907924	-0.254897
C	-4.258907045	-4.0397298486	 0.0222777024	 0.278744
C	-5.434042338	-4.2825929375	 0.0327954702	-0.385665
H	 0.6509062159	 2.0370617396	 0.0077746131	 0.120722
H	-0.8756904291	 1.7994072725	-0.8656897166	 0.130344
H	-0.8589070611	 1.789741629	 0.9073347984	 0.130344
H	 0.5149351156	-0.3129054441	-0.8854688414	 0.121813
H	 0.5315676101	-0.3225295002	 0.8777774896	 0.121823
H	-0.3902301503	-3.6689492659	-0.0139409534	 0.228927
H	-2.3722960268	-4.2437895303	-0.8847755652	 0.143277
H	-2.3544548294	-4.2524318763	 0.8891778583	 0.143283
H	-6.4758261538	-4.4896398181	 0.0415763214	 0.207456
