17
gdb 77384	2.52285	1.6796	1.37339	1.5125	67.58	-0.2431	0.0684	0.3115	980.4759	0.134624	-458.901698	-458.893582	-458.892638	-458.933558	32.524	
O	-0.0843249336	 1.5219552508	-0.0571031816	-0.446447
C	-0.021975948	 0.1143749454	-0.0625096153	 0.018707
C	-1.3467457745	-0.6209055204	-0.0902238557	 0.387927
O	-2.2302272489	-0.7815323246	 0.9545556568	-0.464546
C	-1.7725873404	-0.7472255765	-1.5634216641	-0.141014
C	-0.696367354	-0.0699816362	-2.4142554291	-0.296247
C	 0.30510554	-0.6395657714	-1.3788657745	 0.335429
O	 1.648118726	-0.8289523202	-1.6506970025	-0.480568
C	-0.7890143778	-1.72344631	-0.9485527275	-0.237571
H	 0.8149363704	 1.8624272602	-0.0115747566	 0.288194
H	 0.6111450762	-0.2750870411	 0.7465653183	 0.078908
H	-2.7438052244	 0.030148748	 1.0353971073	 0.292067
H	-2.8076230794	-0.9420152161	-1.8112312682	 0.091083
H	-0.5905967715	-0.5657100406	-3.3863155645	 0.084622
H	-0.7164805888	 1.0169808591	-2.5354466367	 0.105155
H	 1.7305236715	-1.2472976116	-2.5144309686	 0.282906
H	-0.7916804828	-2.7954843149	-0.8238420775	 0.101395
