21
gdb 87147	2.62589	1.27419	1.13843	2.6394	78.29	-0.249	0.0848	0.3338	1218.6086	0.178657	-424.199586	-424.189417	-424.188472	-424.234605	37.413	
C	-0.1075922009	 1.7570144761	 0.6491445321	-0.430025
C	-0.3514749687	 0.2703290998	 0.690683727	 0.045524
O	 0.2305866483	-0.5265346112	-0.3563351832	-0.310702
C	 0.6656401016	-0.754949794	 0.9947964387	 0.285153
C	 2.1134646168	-0.4200338184	 1.2870989313	-0.473862
C	 0.2019324993	-2.0850207836	 1.558364455	 0.359083
C	 0.7848395821	-3.3142375508	 0.8963022898	-0.470448
C	-0.2750042154	-2.1377179074	 2.948997769	-0.223815
O	-1.1967014367	-2.1816786533	 1.8574038095	-0.267697
H	 0.9304661891	 2.0042958808	 0.4201821049	 0.124551
H	-0.7387060009	 2.2131557549	-0.1208329352	 0.132601
H	-0.3743471474	 2.2132345056	 1.6088647648	 0.121171
H	-1.3777816924	-0.0144611827	 0.9172149137	 0.109557
H	 2.4001807492	 0.5317525945	 0.8387023469	 0.130908
H	 2.2886068808	-0.3657708798	 2.366829581	 0.121266
H	 2.7765353197	-1.1890896047	 0.8784160176	 0.130004
H	 1.8674205444	-3.376002984	 1.0445697436	 0.121529
H	 0.325827755	-4.2157331821	 1.3085253312	 0.126666
H	 0.5886097559	-3.2803188899	-0.1793919884	 0.146649
H	-0.1791566415	-3.061554241	 3.5183932313	 0.113051
H	-0.3057218185	-1.2268632089	 3.5464521393	 0.108838
