17
gdb 110784	2.66825	1.5124	1.28346	4.4909	67.89	-0.2267	0.0469	0.2736	1038.9905	0.137342	-455.155304	-455.147228	-455.146284	-455.188092	30.359	
C	-0.4049107181	 0.9699225934	 0.0004950185	-0.232965
O	 0.5383653141	-0.0751546055	-0.1602754158	-0.232572
C	 0.966714963	-0.6135716429	 1.0373454387	 0.086257
C	 0.1403467933	-1.6870729036	 1.747292087	-0.08633
N	-0.8803027196	-2.3565222984	 1.0006435262	-0.328449
C	-0.3778563549	-2.8961525103	-0.1831119983	 0.421807
O	-1.0189256635	-3.3025344747	-1.1220910079	-0.395476
N	 1.0139636559	-2.8958290691	-0.0540107641	-0.328147
C	 1.4293496668	-2.0530221395	 1.0272197195	-0.085065
H	 0.029903552	 1.8222905429	 0.5425787163	 0.111452
H	-0.6955672863	 1.2939742496	-1.0006935477	 0.138505
H	-1.2970355855	 0.6301141801	 0.5439447581	 0.106921
H	 1.5191568792	 0.0625589599	 1.6930522042	 0.092644
H	 0.0552175499	-1.6992856206	 2.8282371996	 0.107231
H	-1.8302763735	-2.0231370205	 0.9759962081	 0.254748
H	 1.5274124637	-2.9034364329	-0.9217075325	 0.259183
H	 2.3319400734	-2.3397411379	 1.5546159102	 0.110253
