13
gdb 24884	3.48379	1.34332	0.96949	1.7722	80.99	-0.2384	-0.079	0.1595	1121.7555	0.089476	-415.603943	-415.596576	-415.595632	-415.635983	27.642	
N	 0.0475933645	 1.3096165393	 0.0093193488	-0.538087
C	-0.0148447643	 0.0465596718	 0.0032228364	 0.371842
O	 1.1637204643	-0.7268484879	-0.0073745214	-0.250989
C	 1.1003862289	-2.0816480088	-0.0139447593	 0.255501
N	 0.0270256776	-2.7870479184	-0.0114410125	-0.321339
C	-1.1658703316	-2.0812050813	-0.0011579669	-0.026805
C	-1.231629208	-0.7349679271	 0.0060546946	-0.121939
C	 2.3916540174	-2.683215117	-0.0240956665	 0.245158
C	 3.4847673101	-3.1827852616	-0.0326473392	-0.321685
H	 1.0148448974	 1.6330233537	 0.0055356926	 0.229794
H	-2.0605941586	-2.6944864328	 0.0007449867	 0.127519
H	-2.1668869691	-0.1918495421	 0.0140692314	 0.136255
H	 4.4476792915	-3.6324422876	-0.0402708748	 0.214775
