15
gdb 131928	4.47176	1.05888	0.86075	6.6961	74.2	-0.2334	-0.0597	0.1738	1272.5115	0.113215	-453.914363	-453.906391	-453.905447	-453.947394	28.957	
C	-0.0274737986	 1.4911406205	 0.0676039287	-0.50219
C	 0.0023314695	 0.0050215924	-0.0647800061	 0.358979
C	-0.0225110117	-0.8053961724	-1.1720987762	-0.349455
C	 0.0281537589	-2.1442283806	-0.697176312	 0.354572
C	 0.0825451935	-2.1321152744	 0.6794175824	-0.116228
N	 0.0659986781	-0.822205736	 1.0457389601	-0.307524
N	 0.0245339843	-3.3312082098	-1.4961639297	 0.333735
O	-0.0273942512	-3.1921928291	-2.7154291124	-0.37216
O	 0.0738510733	-4.413371977	-0.9130498221	-0.388106
H	 0.868998753	 1.8771910166	 0.5676421516	 0.135984
H	-0.0782681105	 1.9493480773	-0.921970159	 0.150428
H	-0.8979690672	 1.8353793578	 0.6389775966	 0.135956
H	-0.0707639461	-0.5001468341	-2.2036856609	 0.13315
H	 0.1297776957	-2.9435669528	 1.3842402851	 0.162412
H	 0.096040459	-0.4968126686	 1.9977378838	 0.270448
