18
gdb 50736	2.55308	1.39492	0.99973	12.4786	81.99	-0.172	-0.0109	0.1612	1184.4054	0.149489	-439.055296	-439.046972	-439.046028	-439.088584	30.963	
O	-0.3842367297	 0.2415691992	-0.6538652095	-0.317467
C	-0.0812561172	 1.3391048456	-0.2192937214	 0.052266
C	 1.2183517924	 1.8278149564	 0.1601560969	-0.014298
C	 1.3296237813	 3.2290044797	 0.7193377492	-0.313087
C	 2.3593415911	 4.0908851804	-0.0382026371	-0.190217
N	 3.4237422902	 3.1744285589	-0.617706085	-0.232069
H	 3.0445244029	 2.7983183134	-1.4911632348	 0.304769
H	 4.2737044451	 3.7002097089	-0.8288971114	 0.294333
C	 3.6818784601	 1.9603523988	 0.257676253	-0.312108
C	 2.4077794304	 1.052919523	 0.1206664048	 0.297193
O	 2.6129258178	-0.1388439898	-0.0782673073	-0.372773
H	-0.8786777122	 2.1254689795	-0.0989397876	-0.001553
H	 0.3580545822	 3.7299799603	 0.655604905	 0.12176
H	 1.6064296545	 3.2444802134	 1.7845442403	 0.106994
H	 1.9255173402	 4.6246951277	-0.8869039818	 0.146103
H	 2.881902344	 4.8047615746	 0.6045849813	 0.134514
H	 4.5455215454	 1.4275526746	-0.1402521469	 0.14948
H	 3.8895971617	 2.3304637255	 1.2653832723	 0.146161
