17
gdb 91307	2.48702	1.5837	1.14596	5.069	73.39	-0.2297	0.0001	0.2298	1086.677	0.135788	-417.958835	-417.950696	-417.949752	-417.991838	29.954	
C	-0.0416109623	 1.584168338	 0.1367707933	-0.332403
N	 0.117367816	 0.1484232915	 0.168203435	-0.056544
C	-1.0853333299	-0.7164262766	 0.2127565169	-0.191321
C	-0.3989533921	-1.5841140685	 1.2831251663	 0.105387
O	 0.544819685	-2.5484151026	 0.760569559	-0.302044
C	 1.663453949	-1.6534405077	 0.9690712507	-0.013812
C	 2.5042113651	-1.4680947497	-0.2120723319	 0.294514
N	 3.2042998926	-1.3171250386	-1.1185234423	-0.320951
C	 0.699197557	-0.4971543585	 1.3498664441	-0.073666
H	 0.9391851964	 2.0669623159	 0.184752441	 0.134262
H	-0.5083289868	 1.8764934854	-0.8090708166	 0.134288
H	-0.6657338665	 1.9785295119	 0.9607542995	 0.092857
H	-1.9744347861	-0.2061224053	 0.6164201473	 0.095367
H	-1.3399186814	-1.2054808123	-0.7324636984	 0.124951
H	-0.9833820066	-1.9816685949	 2.1129987189	 0.098173
H	 2.2861209286	-2.0026836773	 1.8033121657	 0.122458
H	 0.9478865319	 0.1325923195	 2.2062342613	 0.088484
