22
gdb 63370	2.27517	1.32317	1.29536	2.2731	82.8	-0.2339	-0.0185	0.2154	1197.7369	0.190734	-404.36502	-404.354367	-404.353422	-404.399878	39.479	
C	-0.5765986175	 1.4866094674	-0.3193043703	-0.411676
C	-0.0076640023	 0.0709713226	-0.2196257936	 0.20177
C	-1.0908519398	-0.9849489114	-0.461296597	-0.444417
N	 1.2531856276	-0.1122648248	-1.0171942537	-0.400709
C	 2.0719350193	-0.503110593	 0.1812715444	 0.201773
C	 2.4945810938	-1.9747354625	 0.2298900505	-0.444416
C	 3.2615360171	 0.4270619428	 0.4206010579	-0.411681
C	 0.8329889906	-0.1937727866	 1.0457962599	 0.32433
O	 0.6143428616	-0.1646502843	 2.2216976485	-0.314141
H	 0.2093501865	 2.2335230982	-0.1840984905	 0.122931
H	-1.0265548126	 1.645201247	-1.3052460708	 0.117299
H	-1.3454153793	 1.6452758682	 0.4436532939	 0.125707
H	-1.5014536879	-0.8767363852	-1.4718657509	 0.122791
H	-0.7014873023	-2.002236115	-0.3575775236	 0.119202
H	-1.9120059085	-0.8640151911	 0.2515453377	 0.136944
H	 1.1772058235	-0.8624018096	-1.6972471102	 0.209417
H	 3.2251210004	-2.1815756614	-0.5607317238	 0.122791
H	 2.961688957	-2.2094078671	 1.1910359006	 0.136943
H	 1.644112051	-2.649756737	 0.094670771	 0.119203
H	 2.9592405863	 1.4744002066	 0.345930556	 0.122931
H	 3.6881921614	 0.2557434023	 1.4140664789	 0.125709
H	 4.039971534	 0.2464979138	-0.3284838349	 0.117298
