21
gdb 64138	3.30888	1.01852	0.96095	2.0518	84.78	-0.2528	0.0558	0.3086	1335.4392	0.181263	-387.078006	-387.068544	-387.0676	-387.112182	36.933	
C	-0.2023119362	 1.5484155553	-0.010918189	-0.453481
C	 0.0648484877	 0.0438279215	-0.0080666434	 0.40172
O	-1.1780548704	-0.6735743874	 0.031687008	-0.472497
C	 0.9045278682	-0.4443255152	-1.2109200753	-0.247632
C	 1.4788705407	-1.7799159801	-0.7317946324	-0.211169
C	 1.9387737476	-1.4443851352	 0.7102164671	-0.155975
C	 0.8539047866	-0.4496377743	 1.233998058	-0.241098
C	 2.1513099676	-2.6041949845	 1.5624650289	 0.305221
C	 2.318517379	-3.5669481577	 2.2633994825	-0.453813
H	 0.7314187477	 2.1192509561	 0.0150295413	 0.113481
H	-0.7482037985	 1.8457143407	-0.9149594139	 0.103041
H	-0.8064496274	 1.8291557693	 0.8568828836	 0.125684
H	-1.6872182025	-0.4193342187	-0.7459712425	 0.272056
H	 0.3013659913	-0.5238288484	-2.1215192985	 0.08294
H	 1.7154015993	 0.2668025549	-1.415042593	 0.092389
H	 0.6875624596	-2.5337917155	-0.6960156703	 0.12199
H	 2.2934078921	-2.164976672	-1.3497488874	 0.099224
H	 2.8901369537	-0.9010850957	 0.6326934931	 0.098116
H	 1.3136694454	 0.3781610756	 1.7788535061	 0.099783
H	 0.1571452758	-0.9483092176	 1.9092772879	 0.130473
H	 2.4660169828	-4.4158387109	 2.883502279	 0.189547
