19
gdb 39824	2.68129	1.65974	1.58754	2.1411	74.5	-0.2401	0.076	0.3162	962.7459	0.161329	-422.98619	-422.979025	-422.978081	-423.017435	29.193	
C	 0.1859597905	 1.3389737733	-0.0824368542	-0.300333
O	 1.2877686969	 0.4133601129	-0.1030301207	-0.289863
C	-0.0222947343	-0.1042901522	-0.0144728077	 0.488119
C	-0.6236979696	-0.9552859906	 1.1125828543	-0.136754
C	-1.7948607173	-1.2166722846	 0.1141885378	-0.239532
C	-0.7449576266	-1.0172646654	-1.0187998788	 0.027471
O	-0.0417723684	-2.2285084409	-1.24437257	-0.279781
C	 0.8012996739	-2.5998826893	-0.1487736236	-0.067256
C	 0.1995153131	-2.253539503	 1.2315229211	-0.231944
H	 0.1035911126	 1.941009526	 0.8216486861	 0.117575
H	 0.0127273394	 1.8736981508	-1.0154807367	 0.119793
H	-0.8390698505	-0.492180039	 2.0774036561	 0.069773
H	-2.266185029	-2.2006650685	 0.1458248135	 0.103018
H	-2.5506466808	-0.4278614788	 0.1326964035	 0.101105
H	-1.0529690525	-0.6317532999	-1.9923850926	 0.080792
H	 0.9785178687	-3.6735446496	-0.2527695995	 0.104159
H	 1.7638273047	-2.0846002179	-0.254078659	 0.122242
H	 1.0192371055	-2.1342363659	 1.9477650221	 0.108019
H	-0.4464360963	-3.0570272372	 1.6029424883	 0.103397
