17
gdb 45656	3.04329	1.63693	1.12048	2.4908	82.45	-0.2196	-0.0232	0.1963	1052.4397	0.137687	-384.731443	-384.724378	-384.723433	-384.763016	28.044	
O	-0.144881154	-0.0000571697	 0.1364925383	-0.301491
C	-0.0792977624	 1.1973761625	 0.0781384309	 0.363999
C	-1.2752506747	 2.1850251967	 0.0475682632	-0.356656
C	-0.6759267985	 3.4482890203	 0.6273212435	-0.249918
C	 0.6607237852	 3.3605266086	 0.6663663922	 0.340101
C	 1.7778842328	 4.0029251745	 1.3424071023	-0.187101
C	 2.7886653652	 3.1233841926	 1.4638246641	-0.06785
C	 2.4686986703	 1.7656119186	 0.8573176664	-0.303126
C	 1.1785989999	 2.0705810361	 0.0675365111	-0.165624
H	-1.6185706121	 2.2916906938	-0.9931254138	 0.129949
H	-2.1239024465	 1.7865739662	 0.6139639003	 0.130766
H	-1.2762883365	 4.2512041587	 1.0379530393	 0.098302
H	 1.7585076909	 5.0028262979	 1.7582110974	 0.105349
H	 3.7148146853	 3.3143515153	 1.9947184214	 0.104463
H	 3.2762036038	 1.3770170879	 0.2300404419	 0.115746
H	 2.2984202847	 1.0191484417	 1.6452003875	 0.130101
H	 1.4322240168	 2.2286704083	-0.9924727661	 0.11299
