19
gdb 99227	5.11521	0.63052	0.58966	2.5079	74.63	-0.2438	0.03	0.2737	1873.8445	0.157715	-456.418519	-456.407653	-456.406709	-456.456621	36.905	
C	-0.0436971332	 1.4549122771	 0.0870391114	-0.332817
N	-0.0537627454	 0.0215097471	-0.1282843871	-0.314721
C	 0.7657307076	-0.5965233316	-1.0268560705	 0.421701
O	 1.5326189651	 0.0136980234	-1.7538895437	-0.378969
C	 0.6640687592	-2.119800741	-1.0287525576	-0.322066
C	 1.1498236595	-2.7232063208	-2.3425949095	-0.312688
C	 1.5709360641	-4.181372985	-2.1875208477	 0.410232
N	 1.6552762516	-4.8752350754	-3.3626622361	-0.524607
O	 1.8141806024	-4.6963885627	-1.1124626552	-0.359618
H	 0.3034608729	 1.7097704305	 1.0951788	 0.12541
H	 0.6419436995	 1.8863582787	-0.642937276	 0.170984
H	-1.0407590086	 1.8849002666	-0.0582893299	 0.123527
H	-0.6407703558	-0.5511767851	 0.4552081307	 0.245547
H	 1.2933670639	-2.5131053529	-0.2216265819	 0.158362
H	-0.3586117505	-2.4384090781	-0.7986300873	 0.104421
H	 0.3935380154	-2.6318288925	-3.1301550918	 0.110143
H	 2.0151822354	-2.1420821786	-2.6835725721	 0.158047
H	 1.601572904	-4.4082278931	-4.2515233922	 0.258051
H	 2.0668698927	-5.7941196967	-3.3332043134	 0.259061
