14
gdb 67555	2.63375	1.868	1.52838	2.5103	61.75	-0.2626	0.0031	0.2657	881.8685	0.09968	-473.748695	-473.741386	-473.740441	-473.780521	27.768	
O	 0.1333179012	 1.4225803029	 0.1918686456	-0.471907
C	 0.0994042744	 0.0521625084	 0.0430752294	 0.265727
C	 1.310991278	-0.7011997355	 0.6793897074	-0.013804
O	 1.0355791668	-2.0962142102	 0.6331339044	-0.21772
C	 1.5444381643	-1.480509835	-0.5511695709	-0.004965
C	 0.3511786717	-0.7776185841	-1.259560599	-0.010463
O	-0.9337391565	-1.445370009	-1.0784029118	-0.257346
C	-1.229341304	-0.692543345	 0.0445505292	 0.370881
N	-2.2792317126	-0.5806243827	 0.717479033	-0.556626
H	-0.7725509336	 1.7510390041	 0.1557035751	 0.304992
H	 1.9807019025	-0.3203247407	 1.4415548926	 0.124768
H	 2.4474424823	-1.8918603251	-0.9855458551	 0.120303
H	 0.487650985	-0.3592502112	-2.2544291975	 0.10932
H	-3.0222370695	-1.1933820569	 0.3773281976	 0.23684
