20
gdb 40833	3.8478	1.09076	0.90962	1.0641	75.74	-0.2488	0.0813	0.33	1310.9861	0.172963	-440.257906	-440.249804	-440.24886	-440.291008	31.093	
C	 0.0940195357	 1.4887475252	 0.0228265702	-0.235283
N	 1.2458146203	 0.5719135246	-0.0167709706	-0.315272
C	-0.1157124619	 0.0236329361	 0.0257042562	-0.043145
C	-0.4835099723	-0.7044502725	 1.2883056665	 0.232376
O	-1.8641029784	-0.5288141851	 1.5148920434	-0.255695
C	-2.2926778791	-1.2013546614	 2.691689283	-0.07478
C	-1.9528543119	-2.6913371384	 2.6128354557	-0.206055
C	-0.4670895863	-2.8299294857	 2.2742822137	-0.077247
O	-0.1499068191	-2.0617103282	 1.1209231676	-0.255126
H	-0.0086950599	 2.0509135444	 0.9467706679	 0.120538
H	-0.1795480069	 2.0384639088	-0.8734600192	 0.11309
H	 1.6166555884	 0.5084596896	-0.9604799186	 0.234998
H	-0.5231080733	-0.4359051708	-0.8713230124	 0.095106
H	 0.0861139736	-0.2911698273	 2.143256286	 0.058013
H	-1.8071558895	-0.7515145685	 3.5751440419	 0.087721
H	-3.3690899136	-1.0296223809	 2.773749826	 0.109721
H	-2.1826755527	-3.190644688	 3.5608040636	 0.097099
H	-2.5506178789	-3.1593047595	 1.8237300801	 0.113394
H	 0.1478571779	-2.4942035191	 3.1268458671	 0.090323
H	-0.1924016623	-3.8628681432	 2.045597082	 0.110225
