16
gdb 12320	3.18061	2.08505	1.31272	3.0065	68.45	-0.2345	-0.0526	0.182	913.6645	0.130467	-383.768567	-383.761025	-383.760081	-383.800457	27.675	
C	 0.0856892441	 1.5051481861	 0.0474449228	-0.478828
C	 0.0449140486	 0.005601614	-0.0213676023	 0.207188
C	-0.0794253153	-0.703405894	-1.1534393043	-0.155752
C	-0.0641664704	-2.203731583	-1.1839759282	-0.126167
O	 0.5121143994	-2.7737545083	-0.0298376193	-0.239299
C	-0.0318334876	-2.2551088231	 1.1659760879	-0.187263
C	 0.0759336555	-0.7341172735	 1.2648307494	 0.302378
O	 0.1102111663	-0.1751672167	 2.342452161	-0.31486
H	 1.0251517202	 1.8455767044	 0.4955054459	 0.143572
H	-0.0096313003	 1.9502775507	-0.9459785596	 0.116117
H	-0.7146457912	 1.8862315179	 0.6894538073	 0.143478
H	-0.2013639204	-0.1993076991	-2.1106590696	 0.106136
H	-1.0941328004	-2.5816851543	-1.3392154926	 0.10638
H	 0.5309322051	-2.5589245991	-2.0325558934	 0.128023
H	-1.0984239451	-2.5273959192	 1.2740133356	 0.109753
H	 0.5136612417	-2.705574663	 1.9977117194	 0.139144
