22
gdb 88438	2.16128	1.39708	1.09826	1.9945	82.64	-0.2418	0.0764	0.3182	1247.9681	0.192032	-404.312487	-404.302404	-404.30146	-404.347529	37.527	
C	-1.7162432394	-0.4684800109	 2.2747906761	-0.408374
C	-0.7907377467	-0.713661288	 1.1129561251	 0.08664
O	-0.4236280019	 0.4137793354	 0.3087070586	-0.271193
C	 0.6184032769	-0.289241921	 1.0005546212	-0.003308
C	 1.44092097	 0.4971525715	 1.9868155163	 0.274984
C	 2.048440701	 1.7426062821	 1.3677046161	-0.460224
N	 0.9891145435	 0.5603288441	 3.3896330502	-0.366929
C	 2.2017011187	-0.2113983507	 3.0569491229	-0.037358
C	 2.1489484667	-1.7025675643	 3.290225581	-0.401148
H	-1.4019958972	 0.3926920276	 2.8608841457	 0.145749
H	-2.7339381752	-0.3109205461	 1.9006057898	 0.1145
H	-1.7336329421	-1.3419144903	 2.9355729979	 0.116324
H	-1.0562064014	-1.5895787729	 0.5137251699	 0.080966
H	 1.2452022705	-0.879030665	 0.3243758204	 0.08595
H	 1.2583204805	 2.4274654001	 1.0450640147	 0.141427
H	 2.6966593663	 2.2611435676	 2.0817278944	 0.107086
H	 2.6490817482	 1.4930585535	 0.4858458666	 0.123456
H	 1.2375901585	 1.4626614144	 3.7883080715	 0.226041
H	 3.1545927769	 0.2481759479	 3.3197846579	 0.078836
H	 1.1750099235	-2.1095644065	 3.0098126605	 0.13018
H	 2.9214196416	-2.2173353163	 2.7083541444	 0.115732
H	 2.317176711	-1.9312867021	 4.3480031687	 0.120662
