18
gdb 38382	4.34161	1.28992	1.24212	0.9528	75.46	-0.2258	0.0652	0.291	1051.8376	0.148545	-401.842936	-401.835876	-401.834932	-401.874313	28.383	
C	 0.0496680061	 1.3981611328	 0.1292660955	-0.235474
C	 1.2974120358	 0.6213656611	 0.0102110215	-0.023169
C	 1.7216223221	 0.0279092289	 1.3556700941	-0.343159
C	 0.3151887065	-0.5759572432	 1.3843800395	 0.375443
C	-0.156546698	-1.9539759194	 1.7625574324	-0.232851
C	 0.4068195444	-2.3101646377	 3.1315236904	-0.091769
O	-0.0659497936	-1.055873981	 3.7019291841	-0.287636
C	-0.6999445021	-0.7173501436	 2.4648874819	 0.019653
N	-0.058315387	-0.0768334	 0.0336605278	-0.18744
H	-0.2016415266	 1.8816159908	 1.070599647	 0.118235
H	-0.3180467458	 1.9019142657	-0.7592226464	 0.121388
H	 1.9028270511	 0.6283045653	-0.8898091229	 0.09894
H	 2.5050240178	-0.7284595314	 1.2657126822	 0.113782
H	 1.9922807731	 0.7350656436	 2.1441301502	 0.116056
H	-0.6149844607	-2.6190662164	 1.0436382516	 0.111701
H	-0.0957381942	-3.1587075528	 3.6086876257	 0.113333
H	 1.4938004258	-2.4244720172	 3.2229807507	 0.105736
H	-1.6759932146	-0.2454009256	 2.4920455947	 0.107232
