16
gdb 27103	3.19196	1.29691	0.92751	2.8419	76.37	-0.2027	-0.0071	0.1956	1201.1277	0.125812	-434.139933	-434.131478	-434.130533	-434.174661	30.111	
C	-0.0570227066	 1.5317462344	 0.1063658998	-0.498021
C	-0.0658042394	 0.0403471003	 0.017355463	 0.18823
C	 0.0133948081	-0.7670229431	-1.0943410904	 0.345346
N	 0.1239781694	-0.4635442496	-2.4543884194	-0.404983
C	 0.1943627307	-1.3695161023	-3.4675351187	 0.14532
O	 0.1705856647	-2.5800953485	-3.3288192771	-0.340089
N	-0.0357348484	-2.0644548386	-0.6462775458	-0.29371
C	-0.142154092	-1.9969049307	 0.7108540307	 0.001862
N	-0.1628119164	-0.7566285154	 1.1391307347	-0.308539
H	 0.0259665217	 2.0019263845	-0.8796604506	 0.0958
H	-0.9743411009	 1.9052738043	 0.5740212694	 0.141571
H	 0.783048756	 1.8866108218	 0.713033498	 0.141577
H	 0.1533281963	 0.5148138899	-2.6948982716	 0.266865
H	 0.2773556476	-0.8787595095	-4.4529525471	 0.096409
H	 0.005277759	-2.8568541482	-1.2721604101	 0.290493
H	-0.2000693198	-2.8820109794	 1.3256196253	 0.131869
