20
gdb 45583	2.87553	1.48468	1.10511	3.9438	80.28	-0.2352	0.0374	0.2726	1131.1825	0.174352	-403.196835	-403.189206	-403.188262	-403.228973	30.262	
O	 0.059630516	 0.0562866137	 0.4548877467	-0.370761
C	-0.024400476	 1.20509971	 0.1078555846	 0.400038
C	-1.1626341449	 2.2262739297	-0.1506046301	-0.411439
C	-0.0209110247	 3.2653610258	-0.348267344	 0.046257
C	 0.2045022779	 4.3331099189	 0.7224509439	-0.213239
C	 1.7084672419	 4.6533928649	 0.8305079922	-0.19764
C	 2.5261449995	 3.3944598921	 1.1749838261	-0.193646
C	 2.3330467658	 2.285895962	 0.1238089461	-0.180091
N	 0.9291270933	 2.1526144188	-0.1930839218	-0.06464
H	-1.7732071301	 2.0162397151	-1.0306165624	 0.128783
H	-1.8097152031	 2.3983666109	 0.7119673295	 0.127911
H	 0.0199949251	 3.7112258379	-1.3505204783	 0.076956
H	-0.3734342595	 5.2349995942	 0.493838992	 0.099753
H	-0.1504170243	 3.9560993076	 1.6907630726	 0.099872
H	 2.0639805072	 5.0757795941	-0.1200814973	 0.097854
H	 1.8726529186	 5.4222914566	 1.5924216783	 0.101376
H	 3.5906559748	 3.6389038314	 1.2549358062	 0.100103
H	 2.2067475447	 3.0170332978	 2.1544379565	 0.109446
H	 2.8963063257	 2.5321572244	-0.7875621099	 0.106796
H	 2.6906625123	 1.3171316541	 0.483089629	 0.136312
