19
gdb 63990	3.01517	1.45437	1.27142	2.0897	69.99	-0.2493	0.0655	0.3148	1050.065	0.158821	-460.150488	-460.142162	-460.141217	-460.183202	32.213	
C	 0.201013794	 1.5398180167	 0.0006675075	-0.44844
C	 0.0627741033	 0.0278733355	-0.0042034576	 0.358308
O	-1.2976527344	-0.3777223078	-0.0866413915	-0.478789
C	 0.9803183014	-0.7937976086	-0.9737507835	-0.329272
C	 1.4165147838	-1.6991923233	 0.2160520447	 0.089236
O	 2.7733019247	-1.6356901738	 0.6123799057	-0.251544
C	 2.9218433815	-0.4139204244	 1.2945510666	 0.011709
O	 1.6918833731	-0.1293532564	 1.9370450633	-0.256175
C	 0.6635650903	-0.7643150575	 1.2013734465	 0.065389
H	 1.2362923259	 1.8497726919	 0.1631262218	 0.124066
H	-0.1292648264	 1.9567038075	-0.9591026956	 0.104915
H	-0.4143475419	 1.972362321	 0.7947070944	 0.131007
H	-1.6556719265	-0.0469650065	-0.9177725482	 0.276753
H	 0.4407040975	-1.3037395125	-1.7747520737	 0.102031
H	 1.8135071455	-0.2307503201	-1.4029008577	 0.104071
H	 1.1256175365	-2.74730285	 0.1583326819	 0.095934
H	 3.707259244	-0.5174359445	 2.0490411752	 0.122092
H	 3.183407176	 0.3977519415	 0.5924766752	 0.084206
H	-0.0816355983	-1.1643954488	 1.8904744251	 0.094502
