19
gdb 74935	2.95763	1.75421	1.48123	1.6923	79.65	-0.2283	0.0102	0.2385	967.4368	0.16125	-385.857612	-385.850689	-385.849745	-385.888554	28.956	
C	 0.0485293228	 1.4732888483	 0.032794919	-0.504231
C	-0.0102502223	-0.0217998062	-0.0113699871	 0.377155
C	-0.1135363648	-0.7756710233	-1.114253616	-0.191446
C	 0.0508971776	-2.244634781	-0.8549640247	 0.041645
O	 1.386150037	-2.386684059	-0.2270562765	-0.291116
C	 0.7417760758	-2.2451467336	 1.0255181171	 0.129078
C	-0.623440856	-2.7206194931	 0.5028749279	-0.074655
C	-1.3417458028	-1.6278433694	 1.2980345109	-0.238982
C	 0.003233294	-0.8250520519	 1.2672201557	-0.196277
H	 0.9968272473	 1.8130776519	 0.4689716882	 0.130567
H	-0.0400315355	 1.9085931716	-0.9664523139	 0.123344
H	-0.7492585241	 1.8888551358	 0.6614903583	 0.124596
H	-0.174837199	-0.3775009217	-2.1209378803	 0.087534
H	-0.0492221746	-2.893458782	-1.7254458639	 0.074039
H	 1.3100479842	-2.647013484	 1.8664325443	 0.07834
H	-0.9557421587	-3.7591235684	 0.5107267952	 0.072134
H	-2.2202533202	-1.1370434135	 0.8715447336	 0.097514
H	-1.5732132066	-1.992265438	 2.3041971338	 0.099621
H	 0.277201366	-0.2488568724	 2.1520279186	 0.06114
