23
gdb 115344	2.1303	1.38536	1.11971	1.8197	81.63	-0.2387	0.0654	0.3041	1255.6503	0.205337	-425.437688	-425.427706	-425.426762	-425.472336	37.397	
C	-0.0167247911	 1.42144939	-0.5204728575	-0.383478
C	-0.0776087365	-0.1084420909	-0.5224643436	-0.180092
C	-1.3454178875	-0.637903783	 0.1534645798	 0.13566
O	-2.5036381205	-0.1034893323	-0.5141090567	-0.277242
C	-3.2770288436	-1.1449683222	-1.0891245466	-0.090331
C	-2.3930413212	-2.3937673425	-1.1181415163	 0.090497
O	-1.5299183451	-2.4371926355	-2.2486726452	-0.427754
C	-1.5401689812	-2.1774189988	 0.141523104	-0.024186
C	-0.2812204382	-3.0368555554	 0.234963046	-0.417087
H	 0.884928188	 1.7815532253	-1.025396382	 0.103843
H	-0.8879827819	 1.8398410534	-1.0307990797	 0.131034
H	-0.0070477877	 1.8174450102	 0.5019326812	 0.105647
H	-0.0422006104	-0.4912681857	-1.5470088506	 0.113027
H	 0.7958357476	-0.5128378634	 0.0039249619	 0.087254
H	-1.3681477116	-0.2683820465	 1.189298858	 0.064849
H	-4.1814319616	-1.3333922679	-0.4880512862	 0.087304
H	-3.5997810519	-0.8393643645	-2.0929439489	 0.089154
H	-2.990429873	-3.3149521662	-1.0559319131	 0.063513
H	-2.0729473559	-2.4253454295	-3.0426033056	 0.284675
H	-2.19243851	-2.4216474215	 0.989640921	 0.077828
H	 0.3601070292	-2.900612263	-0.6369878317	 0.143093
H	 0.2948055667	-2.7905477492	 1.1328124626	 0.112621
H	-0.5457753824	-4.0976828107	 0.292759059	 0.110171
