18
gdb 14365	4.06107	2.15829	1.87626	1.4295	71.32	-0.2412	0.0872	0.3284	780.3739	0.156676	-347.732949	-347.726869	-347.725925	-347.763051	25.324	
C	 0.0322285407	 1.66398387	 0.1427427048	-0.287302
C	 1.5161334891	 1.2364367412	 0.0758178836	-0.10172
C	 1.1297014447	 0.0135230118	 1.0045982411	-0.29234
C	 0.0526615644	 0.1163730528	-0.1084811782	 0.441448
O	-0.9877188111	-0.6381891668	-0.6261477666	-0.323321
C	-0.8886566194	-0.4774970748	-2.0697091216	-0.08104
C	 0.3277446136	 0.4691034038	-2.4021916922	-0.323064
C	 1.1646548859	 0.290118887	-1.1334951824	 0.004411
H	-0.3349794503	 1.9947960576	 1.1169540887	 0.090915
H	-0.3424471519	 2.3039426788	-0.6568037141	 0.091659
H	 2.3904447403	 1.8721751076	 0.1993081636	 0.081494
H	 1.792288835	-0.8546409621	 0.9693362701	 0.097255
H	 0.8328124147	 0.2648059926	 2.0256496138	 0.096244
H	-0.7468376764	-1.473160433	-2.5053739482	 0.108527
H	-1.8347519085	-0.0715870518	-2.4416039974	 0.109903
H	 0.8375009646	 0.1427716176	-3.3115900749	 0.103682
H	-0.017377171	 1.4914831621	-2.5664940301	 0.114744
H	 1.8337142656	-0.5723379046	-1.21793086	 0.068504
