19
gdb 80073	2.4625	1.82611	1.52633	1.8086	79.68	-0.2375	0.0012	0.2387	970.8651	0.161173	-385.871541	-385.864071	-385.863127	-385.903137	30.145	
C	-0.2631461582	 1.5423722097	-0.178987963	-0.406214
C	-0.0196207645	 0.0628118121	 0.0226164987	-0.024344
C	 1.3285372596	-0.6169799776	-0.200351359	-0.1146
C	 2.5797887397	 0.1416861716	-0.3917356909	-0.062903
C	 3.2087377003	 0.814532259	 0.5813473744	-0.08663
C	 2.7007945424	 0.8493626345	 1.9706816908	 0.001906
O	 1.4888215603	 1.5945455675	 2.2364219703	-0.2537
C	 1.4225527586	 0.1699842811	 2.2711722869	 0.028052
C	 0.6942259234	-0.5746704705	 1.191563207	-0.077911
H	 0.6124918852	 2.1427295677	 0.0589948926	 0.145352
H	-0.5493268829	 1.7287003638	-1.2204339877	 0.104334
H	-1.0824796814	 1.8896324114	 0.4590900429	 0.117485
H	-0.8449413273	-0.5501886917	-0.3333648994	 0.089037
H	 1.2863068639	-1.5562774279	-0.7452780894	 0.08781
H	 3.0173207006	 0.1172519671	-1.386997177	 0.095289
H	 4.1407855278	 1.3317178024	 0.3743830134	 0.09154
H	 3.4437136184	 0.9569290825	 2.7593684197	 0.090556
H	 1.2863710695	-0.2372223329	 3.2726461632	 0.090825
H	 0.2676684546	-1.5079642098	 1.5457981166	 0.084116
