17
gdb 1676	4.25707	1.80855	1.37554	2.8471	61.16	-0.2643	-0.0256	0.2387	903.554	0.145654	-346.883119	-346.874529	-346.873585	-346.916229	30.144	
C	 0.0167032556	 1.5574284911	 0.0478067801	-0.379491
C	-0.0444877108	 0.0342922399	 0.1806200033	-0.19061
C	-1.4629867041	-0.5087135931	-0.0852302195	 0.052671
O	-1.9166651	-0.1210240533	-1.3540499055	-0.437618
C	-1.5218401563	-2.0335502672	 0.036445103	 0.365927
C	-1.1295278081	-2.6776069177	 1.3460038981	-0.480195
O	-1.8809629059	-2.6844872735	-0.9231834144	-0.320465
H	 1.0369678431	 1.9226812665	 0.1981875764	 0.111014
H	-0.3198123839	 1.865239719	-0.9447536885	 0.144789
H	-0.6277052892	 2.043401801	 0.788894865	 0.112685
H	 0.6414776583	-0.4315715851	-0.5377618509	 0.106151
H	 0.2791209537	-0.2687506747	 1.1835915395	 0.093965
H	-2.1356006553	-0.1014938089	 0.6923265679	 0.083573
H	-2.1125657476	-0.9539085842	-1.814825134	 0.29141
H	-1.491663437	-2.100450854	 2.2017673862	 0.139721
H	-1.5162224616	-3.6968503377	 1.38431618	 0.149806
H	-0.036527181	-2.7161785581	 1.4200424633	 0.156668
