12
gdb 1947	9.18247	1.61359	1.40562	2.2008	53.31	-0.2609	-0.0482	0.2127	787.1285	0.089185	-360.530885	-360.524349	-360.523405	-360.562089	22.315	
O	 0.0189337669	-0.0183016192	 0.237558129	-0.317398
C	 0.0436050003	 1.193320626	 0.2181980698	 0.137506
N	 1.1775683596	 1.928459524	 0.1074878201	-0.061178
C	 2.5212640205	 1.454709768	-0.2491868807	-0.281299
C	 2.8478516916	 2.922870119	-0.5938619717	 0.382986
O	 3.8116688436	 3.5054087903	-0.9773491245	-0.256785
C	 1.4005832286	 3.3421264629	-0.2298730823	-0.294468
H	-0.8596884047	 1.8297739514	 0.3056589688	 0.079579
H	 3.0974798696	 1.0286752398	 0.5792385645	 0.154983
H	 2.5440937796	 0.7588697221	-1.0959164153	 0.157856
H	 0.8134826122	 3.7214558321	-1.0748870094	 0.148931
H	 1.3249911423	 4.0416453136	 0.6103599516	 0.149286
