18
gdb 80413	2.52985	1.78277	1.30022	1.1307	71.66	-0.2284	-0.0241	0.2043	1008.947	0.14818	-439.069888	-439.061991	-439.061047	-439.101918	31.133	
C	-0.1180029902	 1.5298196268	 0.0039455827	-0.419397
C	 0.0776613521	 0.0196013809	-0.012717699	-0.062498
N	 0.8996404287	-0.4999771261	-1.1616255514	-0.135736
C	 1.0988775732	-1.9383042133	-0.7295120867	-0.246481
C	 1.9688662583	-1.3362292507	 0.4229185024	 0.308871
O	 2.8606842446	-2.0109872647	 1.2155105657	-0.480369
C	 2.3147759251	-0.2663861022	-0.663620063	-0.252664
C	 0.8868276763	-0.5660720071	 1.154103387	 0.370369
O	 0.7752544115	-0.4826055203	 2.3512227011	-0.361488
H	 0.8317542481	 2.0708165462	 0.0293130866	 0.126174
H	-0.6679616903	 1.8470322365	-0.8856600625	 0.135157
H	-0.6875286375	 1.8153156741	 0.89275829	 0.139831
H	-0.90392319	-0.4673132739	-0.0551547533	 0.109705
H	 0.1839575679	-2.4865206992	-0.4875635304	 0.11214
H	 1.6912209252	-2.4816169321	-1.4685278122	 0.12427
H	 2.5973160736	-1.8341452769	 2.1335790304	 0.291182
H	 3.0359930897	-0.6267960873	-1.3996901533	 0.125817
H	 2.5577761338	 0.7548392494	-0.3627822643	 0.115118
