16
gdb 11780	4.46312	1.76016	1.57848	2.7697	64.7	-0.2518	-0.0351	0.2167	834.2841	0.130853	-383.723419	-383.71657	-383.715626	-383.756993	25.686	
O	-0.3670915318	 0.3594172667	-0.5962171664	-0.25995
C	 0.0880120014	 1.0977086527	 0.2410515164	 0.059307
C	 1.3303061751	 1.9064064947	 0.0261042194	 0.364046
C	 2.7126587729	 1.2810426314	-0.3262244729	-0.261361
C	 3.017531211	 2.7743895039	-0.6609656793	-0.086394
C	 1.5515375755	 2.8494665851	-1.1910036701	-0.261006
C	 2.8349543953	 3.4042320858	 0.72720473	-0.076621
O	 1.6199019048	 2.74104503	 1.1559654795	-0.32638
H	-0.3843429931	 1.2272863142	 1.2385674076	 0.09471
H	 3.2561346353	 0.8063166367	 0.4939255112	 0.106367
H	 2.6714065529	 0.6384162008	-1.2052574747	 0.123763
H	 3.8783145797	 3.0854950157	-1.2510593318	 0.081056
H	 1.407949587	 2.3440736554	-2.1455531249	 0.124005
H	 1.0332196005	 3.8106851009	-1.1633513256	 0.106201
H	 3.6501405537	 3.1764240634	 1.4231469124	 0.106062
H	 2.6785187698	 4.4884400225	 0.6997512493	 0.106194
