23
gdb 120948	4.32477	0.88462	0.86255	1.4457	85.96	-0.2347	0.0948	0.3296	1491.8519	0.207118	-388.2785	-388.269848	-388.268904	-388.312218	33.801	
C	-0.0579807416	 1.50843035	-0.094105102	-0.382545
C	 0.0785282991	-0.0137515578	-0.0133873594	-0.159702
C	 0.6582081765	-0.4951812401	 1.3222253228	-0.200205
C	 0.8045421431	-2.0102178641	 1.3877825305	 0.149241
O	 1.6859812078	-2.5065874467	 0.3412426633	-0.300008
C	 2.6377210272	-3.2786591289	 1.0922344147	 0.120406
C	 1.7558456711	-4.0625338562	 2.0953856528	-0.238013
C	 1.5095267204	-2.6101760378	 2.6189256018	-0.083261
C	 3.0109768717	-2.3479386318	 2.2702425688	-0.236255
H	 0.9145687527	 2.0000517954	 0.0215895814	 0.112671
H	-0.4746350227	 1.820631834	-1.0569375266	 0.110629
H	-0.7163686436	 1.8928036156	 0.6934747046	 0.109542
H	-0.9035326957	-0.4800232016	-0.1695606794	 0.090246
H	 0.721562724	-0.3767873569	-0.8224218684	 0.117908
H	 1.6306738041	-0.0181218683	 1.4923639918	 0.093964
H	 0.0031663618	-0.1790111748	 2.1465317238	 0.08748
H	-0.1867034428	-2.4673400857	 1.2501124956	 0.067036
H	 3.3574090829	-3.7346619893	 0.4141047379	 0.076736
H	 0.9069461111	-4.6166038085	 1.6871529512	 0.0975
H	 2.3277507608	-4.676630924	 2.7931161546	 0.098553
H	 1.0804387419	-2.3977820433	 3.5975811284	 0.069457
H	 3.6891227548	-2.8115182681	 2.9886235023	 0.098981
H	 3.335207435	-1.3341996611	 2.0289273995	 0.099639
