20
gdb 107885	2.19751	1.89215	1.17878	1.5052	80.26	-0.2076	0.065	0.2725	1087.7849	0.170528	-403.036918	-403.028599	-403.027655	-403.069589	32.69	
C	-0.8381535	 1.4286091366	-0.2783600693	-0.358815
N	-0.502073424	 0.0351151746	-0.0096265412	-0.099355
C	-1.1790670066	-0.678025817	 1.1090440577	-0.081673
C	 0.0129055599	-1.6772044803	 1.2193236343	-0.044306
C	 0.115925923	-1.5417193005	 2.7416428165	-0.310818
C	-0.2669470529	-0.1109956474	 2.2928282114	 0.293012
C	-0.4619412528	 1.0024662131	 3.2983244959	-0.210992
O	-1.02310622	 2.2176071893	 2.8243437653	-0.390875
C	 0.5937621738	-0.2577190895	 0.9554835205	-0.062744
H	-0.128051901	 1.8235704647	-1.0134552314	 0.115589
H	-1.8333520626	 1.469891662	-0.7361378616	 0.107918
H	-0.8209604849	 2.0816145714	 0.6050654687	 0.125804
H	-2.2478361287	-0.9065260477	 1.118864238	 0.072983
H	 0.1609569685	-2.5409858523	 0.5732198267	 0.081617
H	-0.6296377458	-2.0785117041	 3.3374433579	 0.092433
H	 1.1117131814	-1.6644570685	 3.1796926615	 0.095347
H	-1.0626438691	 0.5996367342	 4.1300703749	 0.09452
H	 0.513645599	 1.27335304	 3.7190615948	 0.118247
H	-1.9250971341	 2.033537294	 2.542181809	 0.284013
H	 1.6355534869	 0.0239898472	 0.7886101404	 0.078096
