20
gdb 32912	4.12325	0.8412	0.73605	1.8115	83.46	-0.2231	0.0132	0.2363	1612.5896	0.170742	-403.205862	-403.196393	-403.195449	-403.241206	33.791	
C	 0.2062768986	 1.4841381797	 0.1337685647	-0.381689
C	 0.2013053937	-0.0446880597	 0.0774184835	-0.16594
C	 0.530630135	-0.5812063004	-1.32930502	-0.294132
C	 0.5414502867	-2.0678406484	-1.4076690798	 0.376076
N	-0.2558249333	-2.852696313	-2.0602429913	-0.304778
C	 0.1980634888	-4.1344002876	-1.7665796177	-0.199399
C	 1.2647253641	-4.063484435	-0.9352549132	 0.324183
C	 2.1616131486	-5.0510458404	-0.2863334277	-0.495604
O	 1.4967355565	-2.7308477759	-0.6955078858	-0.211431
H	 1.1862822682	 1.8883880973	-0.1435223999	 0.115825
H	-0.5331933993	 1.9090466038	-0.5539548097	 0.118291
H	-0.0295548473	 1.8433884524	 1.1400082565	 0.115295
H	 0.9282039661	-0.4484444818	 0.7912159847	 0.110702
H	-0.7796296894	-0.4277748537	 0.3824648503	 0.109519
H	-0.2074124974	-0.2277303804	-2.0545016364	 0.131024
H	 1.5088171752	-0.193247766	-1.6423317502	 0.116294
H	-0.276228875	-5.0127706114	-2.1755465202	 0.115637
H	 3.2047490446	-4.9109376791	-0.591776897	 0.140182
H	 2.1261267155	-4.9720960819	 0.8061697101	 0.139851
H	 1.85737378	-6.0624859084	-0.5652168809	 0.140092
