20
gdb 19614	3.6099	1.92241	1.59025	0.2136	77.99	-0.2429	0.0983	0.3412	907.31	0.177814	-311.824802	-311.817443	-311.816499	-311.855817	29.696	
C	 0.0418681689	 1.6013423395	 0.061588963	-0.422973
C	 0.1067291427	 0.0800506468	-0.0079991382	 0.029932
C	 0.8061112347	-0.6406397033	-1.1641356041	-0.092764
C	 2.2845801691	-0.8280626687	-0.7838421559	-0.059022
C	 1.2292740723	-1.7769261018	-0.2672834914	-0.082518
C	 1.0604825057	-0.7393472916	 0.9180391574	-0.077984
C	 2.4979456473	-0.225848001	 0.607213516	 0.018805
C	 3.5845350799	-0.9269286224	 1.4157389893	-0.405968
H	 1.0168574186	 2.0663241988	-0.1068855051	 0.119133
H	-0.6423777282	 1.991405134	-0.7003769843	 0.111326
H	-0.328428053	 1.9355282827	 1.0378742978	 0.110361
H	-0.9034574034	-0.3343266143	 0.0946786828	 0.067
H	 0.4914772949	-0.7017076284	-2.1992106369	 0.077405
H	 3.0316074454	-1.0225833116	-1.5444186367	 0.076623
H	 1.1003739481	-2.8457407394	-0.3521233494	 0.084481
H	 0.7740684361	-0.969779936	 1.9439391	 0.058921
H	 2.6424826995	 0.8598848186	 0.6659641593	 0.055773
H	 3.4558988783	-2.0146021648	 1.3903162498	 0.114465
H	 4.5813324607	-0.6994006398	 1.0216266092	 0.108804
H	 3.5614533023	-0.6071155171	 2.4635002074	 0.108201
