22
gdb 101857	2.45946	0.88764	0.75069	3.4315	83.71	-0.2401	0.037	0.277	1648.307	0.190729	-441.470647	-441.459443	-441.458498	-441.508095	38.655	
C	 0.685264608	 0.4008686259	-0.3672473577	-0.235834
O	 0.0531874905	-0.7714421429	 0.0937845393	-0.25125
C	-1.3649609405	-0.768517513	 0.0194099818	 0.137398
C	-1.8927603227	-0.8039397089	-1.4168564272	-0.405382
C	-1.830365137	-1.9733161028	 0.8377865145	-0.104643
O	-1.5334887617	-3.214098279	 0.2082174446	-0.208816
C	-0.309407884	-3.7411072849	 0.4411955388	 0.143179
N	 0.0657035664	-4.7667900893	-0.1807619224	-0.214706
C	 1.3688388282	-5.3023031057	 0.1519272011	-0.312384
H	 1.7451695369	 0.3113844919	-0.1166807027	 0.130021
H	 0.5954119203	 0.5318972032	-1.4542514203	 0.114449
H	 0.2799904203	 1.2988438749	 0.1252918167	 0.103526
H	-1.7523793526	 0.1323422925	 0.5292679645	 0.064708
H	-2.9872873588	-0.8212221323	-1.4146420399	 0.118125
H	-1.578222002	 0.0782217735	-1.9799725387	 0.115954
H	-1.5349862492	-1.6993908094	-1.9297678746	 0.151432
H	-1.3755302436	-1.9288248054	 1.835232584	 0.11109
H	-2.9179846321	-1.9457962225	 0.9480273651	 0.116564
H	 0.2760272482	-3.2076636505	 1.2025210193	 0.085522
H	 1.9050490427	-4.7330736196	 0.9295029641	 0.093856
H	 1.2656827562	-6.3379326829	 0.4967792274	 0.123562
H	 1.9970261566	-5.3290601828	-0.7460908775	 0.123631
