23
gdb 84107	2.41004	1.44764	1.10025	0.2567	91.97	-0.2153	0.0296	0.2449	1245.4822	0.2051	-351.172774	-351.163297	-351.162353	-351.206218	36.998	
C	-0.2042071658	 1.5622662886	 0.0590511026	-0.394011
C	 0.0149142742	 0.0433688108	-0.0041909241	-0.085362
C	 0.8297483555	-0.4280168905	-1.1920446143	-0.19526
C	 1.8316923143	-1.2462641192	-0.8509914867	 0.325451
C	 2.8127525507	-1.917706566	-1.7599829353	-0.494832
C	 1.8973430111	-1.3985613981	 0.6369902012	-0.180304
C	 2.2052547865	-0.1148094687	 1.3893455893	-0.329329
C	 0.7714195645	-0.5491511626	 1.2001416886	 0.357357
C	-0.036443024	-0.965007975	 2.4064500958	-0.485751
H	 0.7477739033	 2.0998215123	 0.1051771029	 0.114976
H	-0.7466205531	 1.9172015543	-0.8237292416	 0.109277
H	-0.7916040694	 1.8374426728	 0.9416424579	 0.111445
H	-0.9822587486	-0.4248235896	-0.0440499522	 0.070932
H	 0.6093506471	-0.1077282895	-2.205797359	 0.079458
H	 2.6191846235	-1.679225942	-2.8093606696	 0.120826
H	 3.8420985965	-1.6199568938	-1.5230572049	 0.125892
H	 2.7723648348	-3.0088902305	-1.6477900712	 0.123069
H	 2.1844027633	-2.3488399612	 1.0776672939	 0.075609
H	 2.6100220614	-0.2058943014	 2.3930593681	 0.102289
H	 2.6011181779	 0.7185004172	 0.8177031381	 0.106997
H	-0.5205886816	-0.1012789934	 2.8789154417	 0.11563
H	-0.8249522573	-1.6754691542	 2.1312914611	 0.114286
H	 0.5926302953	-1.4420947404	 3.1648614376	 0.111353
