16
gdb 15935	3.47213	1.96119	1.54546	1.9067	65.54	-0.2298	-0.0342	0.1956	842.8642	0.131528	-379.870533	-379.8634	-379.862456	-379.902101	26.668	
O	-0.7555807481	 1.18388477	 0.7311633744	-0.264461
C	 0.1750735538	 0.8989595418	 0.0161311162	 0.100489
C	 1.4161902265	 1.7289962299	-0.1217853213	 0.227319
C	 1.7069448282	 2.770730146	 0.9885567942	-0.229383
N	 1.9281004391	 3.846723755	-0.0215304004	-0.314796
C	 1.5337819954	 2.9496951146	-1.1240345688	-0.058117
C	 2.7456582619	 2.2160560009	-1.7425947717	-0.148304
N	 2.5335771736	 1.068108365	-0.8154522249	-0.38015
H	 0.1689274291	-0.0032374562	-0.6338907637	 0.083877
H	 0.823924401	 2.9153350233	 1.6191472913	 0.12928
H	 2.5787837362	 2.568664039	 1.6211600784	 0.100574
H	 1.2953968639	 4.6284965025	 0.0986329309	 0.227978
H	 0.7287826181	 3.2877358468	-1.7782260542	 0.08673
H	 2.6412479759	 1.9192840482	-2.7923721413	 0.105415
H	 3.6781877737	 2.7737133031	-1.6111572715	 0.110956
H	 3.3246810917	 0.8246408602	-0.2290411676	 0.222594
