16
gdb 3265	3.45271	3.37307	1.85	2.2758	61.91	-0.2388	0.0222	0.2609	696.4438	0.139349	-325.784473	-325.77811	-325.777166	-325.814814	23.752	
C	-0.0382176513	 1.5038714188	-0.1079303031	-0.20242
C	 1.3376574307	 2.1583149718	 0.0013548112	-0.206341
C	 2.2688976366	 1.8255414327	-1.1690556614	-0.139564
N	 2.6550061152	 0.4454812731	-1.3989896052	-0.247499
C	 1.9142683559	-0.5699648355	-1.3273537217	 0.121772
O	 0.6167671275	-0.7614441856	-0.9557683146	-0.227847
C	 0.0104892516	-0.0037851023	 0.0952349884	-0.056877
H	-0.707124262	 1.9101834706	 0.6610725858	 0.101635
H	-0.4973368666	 1.7286104788	-1.079257205	 0.106071
H	 1.2305316456	 3.2490370413	 0.042588671	 0.097778
H	 1.8125271945	 1.8546857797	 0.9439573431	 0.100318
H	 1.8055215958	 2.1904347895	-2.0990304243	 0.111714
H	 3.1946951473	 2.400243475	-1.0532506189	 0.106512
H	 2.3131232866	-1.5294783641	-1.6616911921	 0.114495
H	 0.5357992982	-0.2306903667	 1.0342227888	 0.104939
H	-0.9997014658	-0.4154107872	 0.1669531481	 0.115313
