16
gdb 51773	2.45924	1.3471	0.94207	3.3948	67.32	-0.2577	-0.0446	0.2131	1205.1567	0.12177	-474.991954	-474.982919	-474.981975	-475.027388	30.522	
N	-0.163470631	 1.1634740571	-0.4425036227	-0.431954
C	-0.3047788525	-0.0818174617	-0.5514780278	 0.131669
O	-0.9896390793	-0.7582711672	 0.4080244393	-0.189049
C	-1.074675666	-2.1570234795	 0.2686913984	 0.054596
C	-1.7383119598	-2.8192416895	 1.4855610175	-0.097912
O	-2.8213773977	-3.3333661938	 0.677243405	-0.284247
C	-2.3005088268	-2.7250725401	-0.5143217026	 0.006979
C	-3.2316693612	-1.6920922111	-1.1209408915	 0.135967
O	-2.9534645946	-1.07526041	-2.1160297951	-0.238971
H	 0.365719965	 1.5264286246	-1.2324800496	 0.236663
H	 0.0713546929	-0.7242445712	-1.3568546567	 0.099246
H	-0.11362416	-2.5793591626	-0.0383509722	 0.105384
H	-1.1689451984	-3.619722236	 1.9684445796	 0.1188
H	-2.0822598279	-2.0980865726	 2.2341980398	 0.134074
H	-2.0411532764	-3.4646509047	-1.283161272	 0.113389
H	-4.1840435264	-1.5523738017	-0.5652252495	 0.105367
