19
gdb 79155	4.5254	1.20843	1.14021	2.4127	74.84	-0.2353	0.0786	0.3139	1122.4123	0.160028	-422.982632	-422.975037	-422.974092	-423.01434	30.54	
C	-0.1214834201	 1.5217694113	-0.0666819318	-0.401385
C	 0.0321324848	 0.0110147068	 0.029585896	 0.118538
O	 0.8726689362	-0.4878555386	-1.0326074346	-0.297976
C	 1.8923427892	-1.1671108302	-0.3296115032	 0.146711
C	 1.2892889904	-1.9501243652	 0.8800652793	-0.117527
C	 2.5721998993	-1.681420171	 1.6748760864	 0.120909
O	 3.669421746	-2.4809268752	 1.2984277057	-0.445118
C	 2.3241804924	-0.3493536224	 0.9274658434	-0.146952
C	 0.7971277409	-0.5085712595	 1.24643792	-0.072278
H	 0.845734386	 2.0217135958	 0.04116114	 0.118333
H	-0.5423496898	 1.7986138201	-1.0374805523	 0.127231
H	-0.7941845757	 1.8913955719	 0.7148349611	 0.110967
H	-0.9540834203	-0.4681455835	-0.0511603478	 0.076222
H	 2.6124834484	-1.6137616986	-1.0086200942	 0.099403
H	 0.6914407533	-2.8614154531	 0.8534202595	 0.075044
H	 2.4554723297	-1.6400198795	 2.7658327075	 0.065213
H	 4.4566242307	-2.1356443631	 1.7306696548	 0.283436
H	 2.9122427429	 0.569008111	 0.9576520213	 0.069521
H	 0.4124984657	-0.2931224271	 2.2439552488	 0.069706
