19
gdb 100414	2.89161	0.78466	0.67538	2.6085	82.23	-0.23	0.0257	0.2557	1706.6112	0.157554	-419.181525	-419.170749	-419.169805	-419.218976	37.458	
C	-0.5288686989	 1.3590687403	-0.1811721638	-0.497467
C	-0.2780895848	-0.0700188855	-0.0489713186	 0.025023
C	-0.0569292	-1.2477441958	 0.0862343606	 0.083909
C	 0.1873344672	-2.6882942904	 0.2391185178	-0.315641
N	-1.0144726604	-3.5238114833	 0.3150979302	-0.282849
C	-1.7884335685	-3.5527341976	-0.7032031287	 0.311394
N	-1.663195853	-2.8632573384	-1.8858933019	-0.536018
C	-2.9617162588	-4.5203403773	-0.6801728284	-0.132934
O	-4.1150535093	-4.0087057201	-1.3405476224	-0.416063
H	 0.0128960195	 1.7850779149	-1.0329256406	 0.147035
H	-1.5946687723	 1.5651074864	-0.3305340045	 0.145764
H	-0.212028301	 1.9009523033	 0.7167365803	 0.151583
H	 0.8347949791	-3.0235845925	-0.5882830909	 0.124297
H	 0.7596372442	-2.8500139484	 1.1594154903	 0.131779
H	-1.1493585712	-1.9940726403	-1.8579310252	 0.258584
H	-2.5046725572	-2.8485695893	-2.4448926766	 0.25471
H	-2.6884921176	-5.427325348	-1.2310658144	 0.131824
H	-3.1536075227	-4.7985476277	 0.3606310241	 0.124176
H	-4.4806161743	-3.3099986607	-0.7877109073	 0.290896
