16
gdb 128111	2.67457	1.2969	0.88008	6.592	76.91	-0.217	-0.0239	0.1931	1259.3062	0.125401	-434.094207	-434.085537	-434.084593	-434.127835	30.886	
C	-0.0611152574	 1.4673559581	 0.0983256961	-0.346593
N	-0.0193917068	 0.0387260847	-0.1530971829	-0.386364
C	-1.1416703724	-0.7343137844	-0.0531596155	 0.404221
C	-1.299156371	-2.1305218462	-0.0043843137	 0.015469
C	-0.2685016269	-3.1390949633	-0.0011967063	 0.057598
O	-0.4544966254	-4.3391178304	 0.0448324583	-0.30038
C	-2.7114418525	-2.3133811912	 0.0427617978	-0.053888
N	-3.3747904789	-1.1790309844	 0.0276475504	-0.234187
N	-2.3906099068	-0.2189367691	-0.0265281791	-0.277663
H	 0.9485444231	 1.8703016219	 0.0064951042	 0.147448
H	-0.6813377897	 1.9703518412	-0.6528454702	 0.140164
H	-0.4477130545	 1.7194678814	 1.0969027694	 0.132485
H	 0.8375625025	-0.4302153001	 0.0906570642	 0.26159
H	 0.7755968562	-2.7389716035	-0.0459738617	 0.026053
H	-3.2359006456	-3.2560865762	 0.0867632685	 0.140509
H	-2.6620762639	 0.7481017416	-0.0542856195	 0.273537
