20
gdb 28320	4.51381	1.17557	0.96008	1.9813	88.15	-0.1875	0.0554	0.2429	1265.068	0.173945	-366.070941	-366.062852	-366.061908	-366.103593	31.153	
C	-0.0241118585	 1.4983071811	-0.0089267102	-0.493987
C	 0.003402609	-0.0011624962	 0.0126885359	 0.302403
C	-0.0105828766	-0.8327795266	-1.0915157347	-0.241589
N	 0.0589269012	-2.1247148468	-0.6384705048	 0.006546
C	-0.0151128793	-3.4435211103	-1.2404540766	-0.176858
C	 0.4404098142	-4.3521973963	-0.0723694302	-0.209105
C	 0.094711149	-3.5586979693	 1.2202468194	-0.347615
C	 0.0968958629	-2.1409164974	 0.7313268642	 0.386923
C	 0.0674013463	-0.8380458265	 1.1725048993	-0.451547
H	 0.8777737111	 1.9308329272	 0.4411527436	 0.119848
H	-0.0933581288	 1.8767487682	-1.0332951121	 0.113717
H	-0.8798423432	 1.8981549066	 0.5483171187	 0.119613
H	-0.0439236642	-0.6003983353	-2.1444298083	 0.106442
H	-1.04147686	-3.6712221192	-1.5590864804	 0.112909
H	 0.6341279911	-3.5223469427	-2.1177698749	 0.11672
H	-0.0312668927	-5.336545396	-0.1089267429	 0.105436
H	 1.5227674136	-4.4986981775	-0.1321807783	 0.117128
H	-0.8916712913	-3.8490824005	 1.6064217185	 0.112768
H	 0.8158710429	-3.7466468407	 2.0208493353	 0.115395
H	 0.0972120232	-0.5051110118	 2.1995080585	 0.084852
