20
gdb 92694	2.99644	1.28691	0.93486	3.2921	84.12	-0.2194	-0.0449	0.1745	1282.6618	0.170525	-403.177212	-403.168153	-403.167209	-403.210792	33.85	
C	-0.0097626355	 1.4824946311	 0.0090225282	-0.312373
N	 0.0098498837	 0.0315873446	-0.0153360818	-0.081182
C	 0.5901469068	-0.4919651933	-1.2390856723	-0.191932
C	 0.6639087527	-1.9887675521	-1.2387497099	-0.155361
C	 0.5983216568	-2.7403948508	-0.1307449759	 0.217281
C	 0.627918361	-4.2420960258	-0.1205130283	-0.478649
C	 0.5438620712	-2.0595207122	 1.185911769	 0.317349
O	 0.5051380847	-2.6758382641	 2.232171868	-0.321503
C	 0.6285228703	-0.5367941385	 1.1708829842	-0.259421
H	 1.001870187	 1.9325421645	 0.0077867882	 0.09353
H	-0.5487465493	 1.8597491577	-0.8661885325	 0.119734
H	-0.532525221	 1.8290005872	 0.9057204772	 0.124639
H	-0.021051933	-0.1578481184	-2.0877005901	 0.116768
H	 1.6104940128	-0.0865101893	-1.4292892612	 0.091642
H	 0.780725405	-2.4618145509	-2.2115996073	 0.102899
H	 1.4659350924	-4.6113360002	 0.4793110792	 0.140044
H	-0.2790212547	-4.642297443	 0.3444148288	 0.142198
H	 0.7102270381	-4.6446315315	-1.133263133	 0.113267
H	 1.7028736366	-0.2635181838	 1.2677095419	 0.093788
H	 0.1259202146	-0.1634909812	 2.0672409575	 0.12728
