19
gdb 91298	2.63684	1.53341	1.15343	4.5403	79.08	-0.2451	0.0153	0.2604	1098.9498	0.16072	-382.042719	-382.034531	-382.033586	-382.075536	31.599	
C	-0.6204960542	 1.3587016694	-0.0834447728	-0.410128
C	-0.02470351	-0.0424658053	-0.0907860503	 0.025754
C	 1.3124758681	-0.2424725291	-0.8855695556	-0.229068
C	 2.0120748972	-0.6541715251	 0.4231221962	 0.005598
N	 2.4539990997	 0.5291365819	 1.2170030446	-0.318314
C	 1.3740662282	 0.3125070274	 2.2057528561	-0.116555
C	 0.7291754959	 1.5137730716	 2.744740224	 0.293635
N	 0.2285247949	 2.4425620936	 3.2169039129	-0.333462
C	 0.656886048	-0.626981897	 1.198137212	-0.082645
H	 0.120520965	 2.1124929934	 0.1939311433	 0.143457
H	-0.9867470989	 1.6069966007	-1.085808627	 0.111181
H	-1.4621502785	 1.4407167929	 0.6111066615	 0.126013
H	-0.7882350689	-0.7501686073	-0.4278784913	 0.080699
H	 1.2588373512	-1.0462346437	-1.6252419311	 0.097124
H	 1.7281175817	 0.6526201703	-1.3540859931	 0.108711
H	 2.6935649027	-1.5086876951	 0.4282922859	 0.070552
H	 3.3917410525	 0.4843025279	 1.5981211094	 0.229239
H	 1.6891869136	-0.2866851652	 3.0731900216	 0.114497
H	 0.1798236519	-1.5030934613	 1.6335022036	 0.083715
