19
gdb 109363	2.52807	1.4507	0.95885	0.6756	80.33	-0.2171	-0.0532	0.164	1239.2119	0.160243	-419.250087	-419.240984	-419.24004	-419.284623	32.948	
C	 0.006537257	 1.4173715601	 0.0989890346	-0.309214
N	 0.0828856595	-0.016467512	-0.0420699629	-0.317465
C	 0.6400825013	-0.6149940957	-1.1250621315	 0.269985
N	 1.1813548437	 0.0614949142	-2.0747811158	-0.317309
C	 1.8063867782	-0.6410100612	-3.1839893704	-0.143215
C	 2.2668064059	-2.068547771	-2.870839988	-0.229322
C	 1.1033257826	-2.8621996525	-2.268943838	-0.305761
C	 0.5235397686	-2.1308760771	-1.0803229856	 0.355519
O	-0.0345905302	-2.6809811815	-0.1550970284	-0.328983
H	 1.0012822935	 1.864734821	 0.0007594275	 0.140102
H	-0.6307641155	 1.8712581926	-0.6710495738	 0.129069
H	-0.3989941892	 1.6581323337	 1.0837182314	 0.120384
H	-0.3869421995	-0.6324043386	 0.6010496748	 0.259489
H	 1.1018240864	-0.6615401059	-4.0320159355	 0.101544
H	 2.656960884	-0.039131505	-3.5247378353	 0.105504
H	 2.6456374309	-2.5590673676	-3.773663462	 0.102439
H	 3.0955858779	-2.0313266604	-2.1524738776	 0.109586
H	 0.295412913	-2.9533866833	-3.0111737815	 0.131687
H	 1.3703891717	-3.8771396197	-1.9624322618	 0.125961
