16
gdb 71170	2.80435	1.89088	1.49802	1.226	67.77	-0.241	0.0663	0.3073	898.5519	0.124266	-437.782812	-437.77588	-437.774935	-437.813798	28.152	
O	 0.0679638363	 1.4248898212	-0.068397566	-0.470576
C	 0.0312687682	 0.0628915486	 0.0542592533	 0.288605
C	-1.258181569	-0.7485207676	-0.0302407707	-0.191453
N	-0.5734630253	-1.8617001396	 0.7280271516	-0.149661
C	 0.8572841177	-1.8788538133	 0.2451645213	-0.157227
C	 0.4129398336	-0.9097240135	 1.2836067863	-0.142222
C	 1.0048442567	-0.783962952	-0.7745313829	 0.429778
C	 1.4124034464	-0.6717508436	-2.1685936261	-0.291262
O	 2.256588119	-0.1909158572	-1.0893260198	-0.307472
H	 0.9775297738	 1.6567817008	-0.3094326596	 0.294236
H	-2.0653850994	-0.3628149056	 0.5963029522	 0.121428
H	-1.6380790254	-1.0113580901	-1.0242261778	 0.10251
H	 1.3998622991	-2.8090629483	 0.343381557	 0.111161
H	 0.64576175	-0.7929014263	 2.3334563136	 0.109272
H	 1.8013662467	-1.5399395553	-2.6972913005	 0.128239
H	 0.9862624716	 0.1071567518	-2.798835982	 0.124643
