17
gdb 76610	2.72986	1.10757	1.0702	1.6604	72.38	-0.252	-0.0987	0.1533	1214.9603	0.133245	-458.969322	-458.960171	-458.959227	-459.003508	33.13	
C	 0.0348340619	 1.6974243616	 0.0348918414	-0.425704
C	-0.0135569659	 0.1938995726	 0.1740693611	-0.064038
C	 1.1147146953	-0.6889079244	-0.19557313	 0.126676
O	 2.3303233164	-0.2184125705	-0.6329794251	-0.411581
C	 0.7212898581	-0.5612813412	 1.317757828	-0.237404
C	 1.6936431554	 0.1045452988	 2.1666483935	 0.312425
O	 2.4882181383	 0.9698868392	 1.8068081308	-0.366071
C	 1.7801094622	-0.3448361951	 3.6300833967	 0.105453
O	 1.0824454251	-1.1936902103	 4.1179426886	-0.220344
H	 1.0149773075	 2.1052917778	 0.2837633716	 0.146588
H	-0.1992258569	 1.9783364083	-0.9971746146	 0.131256
H	-0.7028076425	 2.170487022	 0.690037894	 0.125637
H	-0.9967496236	-0.2386550792	 0.005259717	 0.10836
H	 0.8924276628	-1.6568843619	-0.6344405668	 0.123375
H	 2.6375032635	 0.4631573768	-0.0091083808	 0.312358
H	 0.1911545463	-1.3784956124	 1.7899439721	 0.1239
H	 2.5637666561	 0.204428388	 4.1928676625	 0.109114
