19
gdb 108764	2.46926	1.30419	0.9116	6.2973	81.22	-0.211	0.0054	0.2164	1295.6678	0.159712	-419.263487	-419.254045	-419.253101	-419.297593	34.694	
C	-0.0386701781	 1.4107140636	 0.1049780091	-0.326219
N	-0.0581658444	-0.0265185708	-0.075039206	-0.36812
C	 0.6044586929	-0.6208575733	-1.1021864275	 0.406548
C	 1.2136217858	-0.0676912101	-2.1747459824	-0.387627
C	 1.731489675	-1.1376878666	-3.0432939724	 0.423465
O	 2.4046112341	-1.0571023918	-4.0503581497	-0.400147
N	 1.2885987867	-2.3375410905	-2.4754333079	-0.351332
C	 0.6869324377	-2.139957944	-1.1722661651	-0.055801
C	 1.5069590929	-2.7537528712	-0.0269185312	-0.399937
H	 0.976811028	 1.8013285772	 0.2620652733	 0.129687
H	-0.4577759623	 1.90361211	-0.7788184044	 0.145735
H	-0.6546934534	 1.6745262703	 0.9667548548	 0.129989
H	-0.2397762438	-0.5865574325	 0.7412061143	 0.244415
H	 1.3391608846	 0.9780782852	-2.4068575957	 0.100834
H	 1.7773824411	-3.1886631106	-2.7033051171	 0.239734
H	-0.3309620441	-2.5577307469	-1.1427693781	 0.096871
H	 2.5162891135	-2.3327207775	-0.0124920087	 0.137033
H	 1.0374043325	-2.5692433527	 0.9457742303	 0.109349
H	 1.5820070312	-3.8388667279	-0.1491767156	 0.125524
