14
gdb 45955	2.04928	1.87483	1.03293	2.8824	68.5	-0.2495	-0.0447	0.2048	1082.8869	0.099726	-436.703891	-436.695652	-436.694707	-436.737636	29.896	
O	-0.105110398	 0.0566355552	 0.365856169	-0.276116
C	-0.0797077178	 1.2369039331	 0.1734083207	 0.393238
C	-1.3118151719	 2.1122042751	-0.0951337081	-0.272928
N	-0.7784707036	 3.4553279824	-0.0718964808	-0.328022
C	 0.5693514822	 3.5856595838	 0.1318707145	 0.422013
O	 1.1740721421	 4.621966473	 0.2435246516	-0.354362
C	 1.1625104535	 2.153396745	 0.1498556007	-0.436693
C	 2.1236865312	 1.901369704	 1.2020402881	 0.347773
C	 2.9032681474	 1.6833910952	 2.0881195268	-0.429901
H	-1.7539655114	 1.8392568831	-1.062763226	 0.146303
H	-2.0646405242	 1.9297203516	 0.6812004394	 0.151578
H	-1.3521915056	 4.2826527412	-0.1246744907	 0.26367
H	 1.6360658718	 2.0070611532	-0.8337557322	 0.167375
H	 3.5993128142	 1.496625984	 2.8681474069	 0.206071
