18
gdb 12227	2.59911	1.8904	1.63594	3.4098	67.8	-0.2421	-0.0305	0.2116	912.1001	0.151627	-384.934031	-384.925431	-384.924487	-384.967345	30.808	
C	 0.5313845611	 1.3758869819	-0.3565035484	-0.402878
C	 0.0491806652	 0.0081224032	 0.0891755782	 0.143584
O	 0.5601612664	-1.0455362969	-0.7702788455	-0.284257
C	 1.3172840502	-1.6334097511	 0.2840783179	 0.033497
C	 2.8183402848	-1.5243448808	 0.1085388546	 0.141585
O	 3.373285322	-0.8136230604	-0.6877398359	-0.237878
C	 0.6993999747	-0.6561997392	 1.3398287401	-0.068481
C	 1.5979269776	 0.1562148021	 2.261964296	-0.425166
H	 1.618928365	 1.3938453385	-0.457356963	 0.143683
H	 0.0992594119	 1.6134576561	-1.3334211321	 0.129046
H	 0.2175557363	 2.1511908249	 0.3510285023	 0.11121
H	-1.0477459863	-0.0175413691	 0.1068517636	 0.078763
H	 1.0688751402	-2.6937498666	 0.4411017038	 0.088111
H	 3.3945542443	-2.1632584927	 0.8200603548	 0.071626
H	-0.0545825321	-1.1789591134	 1.933226973	 0.091597
H	 2.3921603924	 0.6754466696	 1.7193340579	 0.139857
H	 1.0108386505	 0.9092931895	 2.7978351045	 0.12449
H	 2.0688481257	-0.4849249057	 3.0146932583	 0.121611
