21
gdb 29771	2.36533	1.50291	0.93957	1.3242	88.37	-0.1841	0.0562	0.2403	1294.8053	0.181657	-383.312096	-383.301373	-383.300429	-383.348407	37.776	
C	-0.0462207863	 1.4588114751	 0.0265314446	-0.334167
N	-0.0014088527	 0.0143339996	 0.0343566447	-0.053049
C	 0.0044131917	-0.7868309114	-1.0860491913	-0.219061
C	 0.0456509913	-2.1032629445	-0.6934419509	 0.230751
C	 0.0699394229	-3.3116872821	-1.5776921537	-0.50601
C	 0.0615893509	-2.0943497617	 0.7386495163	-0.012409
N	 0.101329286	-3.2092265039	 1.6334515476	-0.605998
C	 0.0286367683	-0.7792054991	 1.1603668603	 0.311181
C	 0.0230361409	-0.2334119703	 2.5468959088	-0.509658
H	 0.8201439313	 1.8886895001	 0.541514973	 0.133962
H	-0.0385491838	 1.8075471701	-1.0078532733	 0.136592
H	-0.9540198648	 1.8367240082	 0.5107372298	 0.133787
H	-0.0200724772	-0.3477173793	-2.0719420268	 0.105679
H	 0.9565900964	-3.9334320108	-1.3993000501	 0.113755
H	-0.8028215571	-3.9584016494	-1.4186092118	 0.114179
H	 0.0757070143	-3.0280615288	-2.6342242518	 0.117652
H	-0.6038342527	-3.8967790017	 1.383907058	 0.229034
H	 0.9943918106	-3.6918838439	 1.5779199927	 0.229775
H	 0.9118005215	 0.3720030273	 2.7693670105	 0.116278
H	-0.8533312912	 0.3963042691	 2.7482439014	 0.116413
H	 0.0040643498	-1.0752798025	 3.2423287519	 0.151315
