19
gdb 82121	3.34099	1.18073	1.00172	4.3236	79.49	-0.217	0.0335	0.2506	1209.0514	0.159369	-382.033745	-382.025122	-382.024178	-382.067117	32.456	
C	-0.4387756673	 1.4474719313	 0.193275409	-0.344907
N	-0.0288670419	 0.0637972799	 0.0375931599	-0.08392
C	 0.430175043	-0.4055465131	-1.2632352476	 0.010153
C	 1.7851165581	 0.1214071464	-1.6502291796	-0.304278
C	 1.6832932639	-1.009412621	-0.6510280808	-0.115799
C	 1.1876501836	-0.4965441233	 0.7037625409	 0.038636
C	 2.1376765851	 0.4350091338	 1.4815597401	-0.359469
C	 1.5751343772	 0.9152809643	 2.7421047625	 0.265777
N	 1.1189166901	 1.2834693371	 3.7382231963	-0.313059
H	 0.3033969778	 2.1938169031	-0.1396714856	 0.091921
H	-1.3488507718	 1.6064251816	-0.3946557022	 0.126267
H	-0.6793890717	 1.6470335264	 1.2410117876	 0.149506
H	-0.2687479908	-0.8285080572	-1.9767734017	 0.099344
H	 2.1364237675	-0.182328628	-2.6315370672	 0.119566
H	 2.1065815922	 1.1165069987	-1.356478169	 0.109142
H	 2.1214448502	-1.9834742549	-0.8220435531	 0.099654
H	 0.8942204697	-1.3141282884	 1.3723119254	 0.102938
H	 3.0517810545	-0.1274862886	 1.7055788897	 0.157348
H	 2.4372664308	 1.296366482	 0.8777285153	 0.151178
