21
gdb 83442	2.72486	1.16084	1.02126	0.6609	88.11	-0.2457	0.053	0.2987	1286.1803	0.181347	-349.896955	-349.887654	-349.88671	-349.931104	35.628	
C	-0.0260402659	 1.565293076	 0.1406467879	-0.420802
C	 0.080722221	 0.0550824213	 0.1777919484	-0.032493
C	 1.2885607377	-0.7536615504	-0.2355465827	-0.143223
C	 2.5949671483	-0.0707167201	 0.1882218987	-0.225135
C	 2.0965466959	-0.0654010995	 1.6689191995	-0.286793
C	 0.7988176478	-0.7574136725	 1.2221680787	 0.3648
C	 0.1182804519	-1.8561908667	 2.0089048853	-0.47215
C	-0.5650346058	-1.357650592	 3.2014885497	 0.319057
C	-1.1127448842	-0.9231061687	 4.1793644153	-0.463667
H	 0.9058013051	 2.0595878535	 0.426250745	 0.119639
H	-0.2848446578	 1.9100590666	-0.8666056068	 0.114746
H	-0.8068347464	 1.9152215414	 0.8244481322	 0.122114
H	-0.8415098547	-0.4371171248	-0.1301536892	 0.080442
H	 1.2117954497	-1.5383240668	-0.980662019	 0.078484
H	 3.4689765653	-0.7110424238	 0.0515337811	 0.101632
H	 2.807298702	 0.9003549852	-0.2701906388	 0.096911
H	 2.7069415755	-0.7078657408	 2.3087422689	 0.101245
H	 1.988753352	 0.9043518331	 2.1636535448	 0.099955
H	-0.6042339587	-2.3739101548	 1.3642760423	 0.126602
H	 0.8568014552	-2.6131856192	 2.3079670206	 0.125039
H	-1.601898604	-0.5479016772	 5.0436380182	 0.193598
