21
gdb 122124	2.59624	0.7493	0.60733	2.7812	77.79	-0.2455	-0.0322	0.2133	1850.6475	0.178144	-461.344792	-461.333529	-461.332585	-461.382831	37.598	
C	 0.0999910708	 1.3065870067	 0.2062917598	-0.228317
O	 0.0141216889	-0.0964957808	 0.144362445	-0.231175
C	-1.3126612509	-0.5586379273	 0.0237277901	-0.058984
C	-1.2718128524	-2.0797059879	-0.0712686737	-0.226737
C	-2.66989772	-2.6957715735	-0.18755127	 0.027712
O	-3.2713102333	-2.216681068	-1.3740727422	-0.242218
C	-4.6643538675	-2.450480317	-1.4372066493	-0.243483
C	-2.5367537341	-4.217582974	-0.2304257537	 0.13436
O	-2.4633370223	-4.9230412937	 0.7402618726	-0.242159
H	 1.1580320928	 1.566803278	 0.2888793482	 0.127624
H	-0.3143223507	 1.7820901155	-0.6970196433	 0.103952
H	-0.4344267124	 1.7116065491	 1.080694279	 0.102868
H	-1.9114654406	-0.2476602318	 0.8985000552	 0.08167
H	-1.7955797905	-0.136137048	-0.8699980618	 0.105579
H	-0.6722080333	-2.3671468841	-0.9423150353	 0.118963
H	-0.782210125	-2.4897375727	 0.8174849962	 0.12927
H	-3.2706178029	-2.4286920734	 0.6969407515	 0.088567
H	-5.0160809271	-2.044018524	-2.3878679648	 0.135373
H	-4.9095717947	-3.522467015	-1.3998083487	 0.115172
H	-5.194140586	-1.9488220611	-0.6136186621	 0.11456
H	-2.4773914487	-4.6211586369	-1.2686118429	 0.087403
