25
gdb 59780	2.90551	1.08169	0.9584	1.1962	89.07	-0.2419	0.0841	0.326	1404.7779	0.230098	-389.517452	-389.507801	-389.506857	-389.551626	37.459	
C	-0.0482177624	 1.536944984	-0.0516375383	-0.394307
C	 0.0145575917	 0.0076221051	 0.0738480507	 0.017041
C	 0.8401931882	-0.4057810021	 1.3016274545	-0.38684
C	-1.4035438823	-0.5888012633	 0.0793947457	 0.156472
C	-1.4632905433	-2.118838406	-0.0251595715	-0.212037
C	-2.9191127546	-2.6046826397	 0.0416187216	-0.210973
C	-3.6115260087	-2.0236725242	 1.2817980048	-0.192112
C	-3.4251778338	-0.5057030442	 1.3196123275	-0.062007
O	-2.0571899288	-0.1413660135	 1.2648299289	-0.264759
H	 0.9569785775	 1.9683137103	-0.0940860289	 0.104119
H	-0.5825554451	 1.8402154885	-0.9587160281	 0.102845
H	-0.5711027873	 1.9696401531	 0.805980361	 0.129854
H	 0.5069709063	-0.389511061	-0.8249481308	 0.066437
H	 0.3410678494	-0.0920041435	 2.2224689475	 0.131017
H	 0.9923367562	-1.4879289712	 1.3516522011	 0.107932
H	 1.82882962	 0.0633588076	 1.2715469453	 0.104824
H	-1.9449505638	-0.1743641301	-0.792748119	 0.050704
H	-0.9881860488	-2.4409404446	-0.9592186009	 0.089683
H	-0.8942962745	-2.5618030922	 0.8001945352	 0.101475
H	-3.4543758112	-2.2761096119	-0.8601099437	 0.093165
H	-2.9610472646	-3.6991058196	 0.0489226292	 0.093084
H	-4.6805282904	-2.2659992193	 1.2883638314	 0.091029
H	-3.1722960477	-2.4559569247	 2.1894258512	 0.101482
H	-3.9706919731	-0.0431314569	 0.4776589554	 0.080665
H	-3.8180416889	-0.0773801304	 2.2468905301	 0.101205
