20
gdb 93511	2.88083	1.35077	1.07592	5.	76.83	-0.2388	0.053	0.2918	1183.6189	0.171275	-440.309326	-440.300277	-440.299333	-440.343475	33.76	
C	-0.2224336634	 1.5006090371	-0.02667504	-0.420772
C	 0.0604965333	-0.0029781626	-0.0046059707	-0.022175
C	 0.786214897	-0.4596092159	-1.2611695726	-0.076487
O	 1.1472788156	-1.8438961397	-1.2109555974	-0.273586
C	 1.4307402791	-2.476898993	-0.0384553503	 0.457262
N	 1.948868903	-3.6281442444	-0.0010782281	-0.549372
O	 1.0665757717	-1.8913505267	 1.1207403696	-0.250648
C	 0.8802509168	-0.466452243	 1.2041882187	 0.118574
C	 2.2294918922	 0.2205175725	 1.4145392133	-0.410109
H	 0.6955152227	 2.0855021008	-0.1405883295	 0.127029
H	-0.8856508755	 1.7570435908	-0.8587031501	 0.125949
H	-0.7124834202	 1.8207423814	 0.8982806587	 0.126459
H	-0.8933920666	-0.5425994746	 0.0461829054	 0.098927
H	 0.1561908451	-0.351262976	-2.1485614599	 0.121204
H	 1.6950655331	 0.1353159371	-1.4246282979	 0.111305
H	 2.1055524571	-3.9564690006	-0.9518491132	 0.221888
H	 0.2804788945	-0.3414978606	 2.1113279835	 0.097917
H	 2.8783561075	 0.1336374279	 0.5377542925	 0.129189
H	 2.0964502356	 1.2820138691	 1.6418323215	 0.123217
H	 2.7426654613	-0.2493612097	 2.2569610865	 0.144231
