18
gdb 91473	2.58056	1.67509	1.24678	3.659	76.35	-0.2426	0.0096	0.2522	1029.2378	0.151162	-398.111828	-398.104224	-398.10328	-398.14368	30.383	
N	 0.1400077304	 1.4037707499	-0.036404377	-0.517044
C	 0.0281704337	-0.0365358305	 0.0157454558	 0.012417
C	 0.4437782041	-0.6204504976	 1.4058107456	-0.207761
C	-0.8749188771	-1.3132744458	 1.7777847689	-0.017563
C	-1.2448628142	-2.0809362093	 0.4823210737	-0.270244
C	-1.4337819376	-0.6175415703	 0.0008052592	 0.207621
N	-1.8630017114	-0.2215776784	 1.4012710559	-0.35791
C	-2.2709100581	-0.2506804449	-1.117837075	 0.157592
N	-2.9203237277	 0.0453956162	-2.0279196523	-0.340822
H	-0.1508773115	 1.7524089012	-0.9455479547	 0.237937
H	-0.489042385	 1.8060156739	 0.6547079567	 0.240527
H	 0.6065552801	-0.4658291438	-0.8065861152	 0.091061
H	 1.2830884719	-1.3162725613	 1.3431309252	 0.108059
H	 0.700115495	 0.182311037	 2.0990824319	 0.121376
H	-0.9709305355	-1.7530361208	 2.7691663044	 0.084429
H	-0.4897830269	-2.6998405451	-0.0125686386	 0.108406
H	-2.1940227998	-2.6161433979	 0.5579369429	 0.115382
H	-2.8050208901	-0.5883318624	 1.5466075027	 0.226537
