12
gdb 1601	3.97309	2.36945	1.54966	2.2356	51.07	-0.2641	-0.0015	0.2626	733.738	0.090402	-356.730212	-356.722687	-356.721743	-356.762044	26.165	
N	-0.2231547858	 1.5530932423	-0.0976373271	-0.499047
C	 0.0439283209	 0.1230108244	 0.0030663484	-0.209969
C	-1.1842058355	-0.6332693212	 0.2582802509	 0.28303
N	-2.1281325701	-1.2818043273	 0.4156708968	-0.322576
C	 0.8400788851	-0.438869394	-1.2225634553	 0.407991
N	 0.7068159297	-1.7614801886	-1.472738861	-0.526674
O	 1.574673048	 0.3091225298	-1.8333510246	-0.355107
H	 0.6208976671	 1.967155638	-0.491537275	 0.256449
H	-0.9493271522	 1.7074140321	-0.7930392512	 0.244146
H	 0.7049134996	-0.0400597622	 0.8670173739	 0.163889
H	-0.0117922146	-2.3135188744	-1.034190728	 0.28472
H	 1.206499208	-2.1500871089	-2.2568276076	 0.273148
