14
gdb 131189	3.6392	1.59467	1.2329	3.6711	68.45	-0.2246	-0.0173	0.2074	959.5191	0.102827	-432.787216	-432.780723	-432.779779	-432.818102	25.59	
O	 0.1500828405	 1.3515262134	-0.0873753437	-0.421398
C	 0.0762254743	 0.0107789731	-0.1219005694	 0.271592
C	-0.1608461652	-0.8455504552	-1.1746179624	 0.14549
C	 0.0691637034	-1.4590263608	-2.5433190719	-0.207445
C	 1.3616614615	-2.2611558795	-2.4825229584	-0.269745
C	 0.1241505659	-2.811151386	-1.8239173028	-0.00334
N	-0.1466096695	-2.0704414098	-0.5769319802	 0.080309
N	 0.1412362195	-2.0304727148	 0.7275354195	-0.172456
N	 0.1900080421	-0.7439865155	 1.0138866697	-0.273233
H	 0.2718842151	 1.5973247098	 0.8391601948	 0.309174
H	-0.4427485155	-1.219912521	-3.4635613397	 0.125172
H	 1.651952983	-2.7621680687	-3.4025784869	 0.132893
H	 2.1867815823	-1.911125017	-1.8711783796	 0.146328
H	-0.3595090172	-3.7511500081	-2.045847239	 0.136658
