18
gdb 41452	2.86456	2.15234	1.64987	1.7994	74.77	-0.2245	0.0488	0.2733	865.7031	0.150171	-401.806726	-401.800422	-401.799478	-401.836934	27.076	
C	 0.0863140977	 1.4866370754	-0.2090584516	-0.20395
O	 1.5375359378	 1.424699298	 0.0744202135	-0.342568
C	 1.3120316593	 0.2210339737	 0.8631980444	 0.367861
C	 1.1431555888	 0.3229192448	 2.3683905024	-0.294796
C	 0.0559752733	-0.7838635624	 2.5507604599	-0.234833
C	-0.1481398705	-1.2349849405	 1.1054250126	-0.083246
C	 1.2767760613	-1.2772392838	 0.3842637727	-0.105598
N	 0.6171407299	-0.9164246374	-0.9056486026	-0.354528
C	-0.0095138911	-0.0100397438	 0.1373176214	 0.196353
H	-0.4159525961	 2.173023283	 0.4809211411	 0.118589
H	-0.1147212989	 1.7684946914	-1.2464457023	 0.12596
H	 2.0632745329	 0.1116988192	 2.9206537876	 0.107561
H	 0.7919937401	 1.3125045595	 2.6738288398	 0.107769
H	 0.3963598461	-1.6144755858	 3.176148035	 0.109095
H	-0.8626538119	-0.3925117139	 2.9971964833	 0.1093
H	-0.8519099064	-2.0356651757	 0.8788608176	 0.088854
H	 2.012134887	-2.0857573542	 0.4650030578	 0.073033
H	 1.2800772409	-0.3571207775	-1.4510007925	 0.215144
