18
gdb 83486	2.94909	1.51734	1.46271	3.6425	70.68	-0.2318	0.013	0.2448	986.2585	0.150765	-439.125381	-439.118083	-439.117138	-439.156894	28.973	
C	-0.1171233313	 1.5420242031	 0.0169406086	-0.434822
C	 0.0527216031	 0.0275112132	 0.0316720299	 0.011761
C	 1.0616542711	-0.5885188282	-0.963308821	 0.081903
C	 2.4068314134	-0.0427049968	-0.465283168	-0.188773
N	 2.1892463783	-0.0013094633	 1.0049842935	-0.303371
C	 0.8327517826	-0.5749805033	 1.2157384781	-0.156697
C	 0.8981218094	-2.0375324105	 0.7708706914	 0.435801
O	 0.910193556	-3.0570496331	 1.3958643108	-0.354867
O	 1.0378619846	-1.9923013581	-0.5980535755	-0.240822
H	 0.8094500661	 2.0555043603	 0.2816956665	 0.146202
H	-0.4397062528	 1.8884966008	-0.9707773319	 0.11943
H	-0.883334373	 1.8441959678	 0.7373666126	 0.126672
H	-0.9151669972	-0.4691930001	-0.0866712445	 0.096343
H	 0.8572397847	-0.5022893767	-2.0291760228	 0.094504
H	 3.2221429488	-0.7098133378	-0.7599511886	 0.120274
H	 2.6152769755	 0.9579520486	-0.8612383144	 0.111758
H	 2.890054191	-0.5353199702	 1.5056740561	 0.238638
H	 0.4644178397	-0.4243114156	 2.2282423093	 0.096064
