17
gdb 35472	3.93127	1.22742	1.02708	1.5222	80.29	-0.2397	0.0033	0.243	1157.8335	0.135606	-384.632024	-384.624244	-384.6233	-384.66432	30.601	
C	 0.0407901577	-1.1915451397	 0.1489045949	-0.436705
C	 0.0035913558	 0.0069312106	 0.0870111587	 0.304976
C	-0.0141040496	 1.4636210018	-0.0295735055	-0.076737
O	-0.7369451184	 1.9814073528	 1.0934178256	-0.271551
C	-0.7413539003	 3.3792508109	 1.1876911551	 0.101738
C	 0.0647465528	 3.9737000329	 2.3094740497	-0.302454
C	 0.5339597809	 4.1050960378	 0.8654350166	-0.099348
C	 1.6367390701	 3.2681677693	 0.3341017693	-0.098284
C	 1.3931764333	 2.0381067761	-0.1104815222	-0.074391
H	 0.0648340324	-2.251435814	 0.2121099221	 0.199282
H	-0.5547959219	 1.7248507252	-0.9567922756	 0.110156
H	-1.6949410029	 3.8324452965	 0.9231220184	 0.09107
H	-0.309537194	 4.8611075205	 2.8082675597	 0.113034
H	 0.5909002767	 3.2673585496	 2.9408378922	 0.129615
H	 0.44426299	 5.0952122988	 0.4268231236	 0.099235
H	 2.638715881	 3.6873250102	 0.3003311426	 0.099654
H	 2.1645092064	 1.4036408107	-0.5319790953	 0.110709
