17
gdb 1177	4.01944	1.84116	1.71261	1.1577	65.99	-0.2629	0.0382	0.3012	834.2194	0.144853	-309.689486	-309.680724	-309.679779	-309.721766	32.264	
C	-0.0009250806	 1.549999988	 0.1445729802	-0.39922
C	-0.0424720148	 0.0306475623	-0.0339345515	-0.18324
C	 0.696395291	-0.4827327493	-1.2981962522	 0.163381
C	 0.1050809412	 0.0846800157	-2.5959713396	-0.397992
O	 2.064776082	-0.0544774174	-1.2858984944	-0.44596
C	 0.6347869784	-1.9536529912	-1.3153641953	 0.321587
C	 0.601028594	-3.1555003275	-1.2931509465	-0.481033
H	 1.0278991573	 1.9155635634	 0.0914600542	 0.130523
H	-0.5841746216	 2.0685902388	-0.6220565914	 0.119047
H	-0.4159355372	 1.8298163314	 1.1174099105	 0.111129
H	 0.4196974089	-0.4560794232	 0.8340307569	 0.094765
H	-1.077526761	-0.3282770584	-0.0673471048	 0.105987
H	 0.235009636	 1.1689290876	-2.6187524968	 0.128
H	 0.6229455103	-0.34360637	-3.4564052013	 0.132689
H	-0.9593227001	-0.1513582251	-2.6701795457	 0.121193
H	 2.5148564564	-0.5398264958	-0.585665658	 0.282081
H	 0.5715697798	-4.2172660792	-1.2882069343	 0.197063
