19
gdb 74001	2.791	1.91939	1.46711	0.9561	82.21	-0.2122	-0.004	0.2082	956.3037	0.160154	-385.834739	-385.827527	-385.826582	-385.866031	29.384	
C	-0.1571911607	 1.395907008	-0.0921025901	-0.485112
C	-0.0012968217	-0.0547329203	 0.2279435373	 0.264413
C	-0.9886810898	-0.9281216611	 0.4825133691	 0.017305
C	-2.2357450375	-1.162337613	-0.3668887452	-0.302336
C	-1.4058263691	-2.3857012901	-0.919608433	 0.129465
O	-0.2263019957	-2.0509511985	-1.7068942632	-0.325491
C	 0.6861427007	-2.1729339187	-0.5539461308	 0.120496
C	 1.2815461438	-0.8218898832	-0.1116142658	-0.317543
C	-0.5307991945	-2.3836882011	 0.3453553074	-0.130791
H	 0.4510944989	 2.0208670619	 0.5749762676	 0.126426
H	 0.1793463047	 1.6135224867	-1.1145804934	 0.127484
H	-1.1969121994	 1.7197788039	 0.0093308105	 0.123117
H	-3.1157205345	-1.552167946	 0.1589617495	 0.105323
H	-2.534888726	-0.3660284367	-1.0526924635	 0.109458
H	-1.9505299375	-3.2361274285	-1.3405987281	 0.077658
H	 1.4074300245	-2.9801690402	-0.7206557028	 0.066011
H	 1.8215498725	-0.3210577967	-0.9235054595	 0.113076
H	 1.9962881387	-0.9603887085	 0.7124321688	 0.104184
H	-0.5916265176	-3.0861838379	 1.1741841751	 0.076858
