21
gdb 81349	2.46022	1.4509	1.32396	1.4551	77.46	-0.2488	0.0665	0.3153	1098.0604	0.183389	-424.208676	-424.200075	-424.199131	-424.241164	34.427	
C	-0.1450565628	 1.5347785326	-0.0403178936	-0.424117
C	 0.0676058115	 0.0218240912	-0.0493890596	-0.014053
C	 0.9908096209	-0.5291898746	-1.1568648153	-0.037331
C	 1.1734930838	-2.0061510281	-0.6946518803	-0.249885
C	 1.9475978687	-1.3345948483	 0.476054846	-0.075111
C	 2.4090382442	-0.2746503224	-0.5772882576	 0.153665
O	 3.40632058	-0.7083455314	-1.4797212631	-0.452923
C	 0.8418794085	-0.5640276725	 1.2040916717	 0.101639
O	 1.4382106924	 0.406758423	 2.0517589065	-0.43417
H	 0.7940427927	 2.0860044244	 0.0480067159	 0.130967
H	-0.6407899514	 1.8539065317	-0.9629505798	 0.11542
H	-0.7891009356	 1.8428520339	 0.7921948645	 0.099489
H	-0.9127938184	-0.4626157563	-0.127336793	 0.06787
H	 0.7568193785	-0.2662744563	-2.1893525155	 0.061609
H	 0.2733015074	-2.5802398552	-0.4543992875	 0.08193
H	 1.8316998779	-2.5735622339	-1.3493270315	 0.116354
H	 2.6598349619	-1.8743711184	 1.1020236399	 0.057131
H	 2.6347682443	 0.725685474	-0.194102389	 0.074777
H	 4.2424633138	-0.7285008924	-1.0038788168	 0.282335
H	 0.2005607322	-1.2338341615	 1.7937545966	 0.061638
H	 0.7368373696	 0.8956910406	 2.4923942916	 0.282767
