26
gdb 58296	3.24264	0.83637	0.70337	0.9934	93.66	-0.2292	0.0858	0.315	1719.806	0.238913	-369.588817	-369.577786	-369.576842	-369.625415	40.984	
C	 0.0361437262	 1.5622822828	 0.0590194586	-0.397124
C	-0.0201623549	 0.0276403875	-0.0170932503	 0.049512
C	-1.4892235448	-0.4244825897	 0.0553289093	-0.39738
C	 0.7171112622	-0.5222916891	-1.2673787316	 0.042757
C	 2.1843960248	-0.0706401381	-1.3254767479	-0.408681
C	 0.6142581217	-2.0566708513	-1.3493982169	-0.153677
N	 1.2589787715	-2.5955200258	-2.546118823	-0.066755
C	 2.5731529113	-3.2096532183	-2.3846034299	-0.217317
C	 1.3662707177	-4.04847985	-2.6112588907	-0.221464
H	 1.0565458041	 1.9411261342	 0.1516897499	 0.114569
H	-0.4103473348	 2.0149270377	-0.8348785762	 0.110958
H	-0.526426468	 1.9233498396	 0.9262182285	 0.107245
H	 0.4966791564	-0.3692021605	 0.8702979245	 0.066266
H	-2.0326197965	-0.1376909324	-0.8533947883	 0.112621
H	-1.5944036849	-1.5051339395	 0.1805459248	 0.114336
H	-1.9939152122	 0.0501190753	 0.9032197371	 0.107092
H	 0.2077787443	-0.1246798011	-2.1573685497	 0.075527
H	 2.6770106297	-0.4795050821	-2.2101030637	 0.129971
H	 2.273792569	 1.0169603799	-1.3757163283	 0.112527
H	 2.7378977544	-0.4105044	-0.4406956849	 0.101688
H	 1.0266376308	-2.5072130653	-0.4251914214	 0.071936
H	-0.4381314656	-2.3495753573	-1.403252762	 0.10267
H	 3.2842870007	-3.0327825897	-3.18695701	 0.114777
H	 3.0087478627	-3.2262875213	-1.3864672224	 0.109057
H	 0.998427196	-4.6263838536	-1.7642059265	 0.105153
H	 1.1749973281	-4.4958716918	-3.5828071289	 0.113738
