21
gdb 108258	2.46083	1.39231	1.34933	1.9343	78.39	-0.2369	0.0662	0.3031	1128.5259	0.180507	-424.19064	-424.181208	-424.180264	-424.224856	35.006	
C	-0.1242255194	 1.4454938822	-0.0954463889	-0.264236
O	-0.1477934105	 0.0308039513	-0.0943304594	-0.292604
C	 0.649956199	-0.5419964663	-1.0792746226	 0.338795
C	 2.1958480395	-0.4892364705	-0.925253645	-0.297216
C	 2.2598414821	-2.0347118684	-1.1526791333	-0.266846
C	 0.7111311163	-2.0870483462	-1.2619571192	 0.379921
C	-0.0795559189	-3.1062421496	-0.4892785239	-0.47252
O	 0.2830610394	-1.9600435097	-2.6439541507	-0.331476
C	 0.1429178554	-0.5248741705	-2.5377125966	-0.134675
H	 0.8881226471	 1.8376585295	 0.0785705698	 0.11275
H	-0.4992138171	 1.8598889409	-1.0430458442	 0.110894
H	-0.7758990883	 1.7785996532	 0.7152000293	 0.130606
H	 2.7394110329	 0.1358364949	-1.6381335608	 0.096892
H	 2.4843008676	-0.2024461848	 0.088890416	 0.108793
H	 2.7588170255	-2.3602652011	-2.0670177087	 0.110515
H	 2.670879806	-2.5872753102	-0.3040837275	 0.101877
H	 0.2213355049	-3.1148077548	 0.5626761085	 0.12047
H	-1.1496899759	-2.8892171579	-0.5435647392	 0.128572
H	 0.0913028298	-4.10619799	-0.9039933895	 0.12533
H	-0.9063491794	-0.2153395892	-2.6293154776	 0.100659
H	 0.749616914	 0.0095529669	-3.2792840065	 0.093498
