20
gdb 20085	3.31555	1.4675	1.22427	0.5532	76.2	-0.2139	0.0789	0.2927	1075.5529	0.176693	-345.120281	-345.111392	-345.110448	-345.153984	32.35	
C	-0.1377308434	 1.576777506	 0.5827605434	-0.415327
C	 0.01694646	 0.1103933323	 0.2384668781	-0.01
C	 0.4155147746	-0.375022315	-1.1239431853	-0.035241
C	 0.7008532476	 0.5485537144	-2.2671634727	 0.015305
C	 1.0807348734	-0.0287427496	-3.5833803414	-0.247693
N	-0.2428397232	 0.5901045086	-3.4004287439	-0.324453
N	 1.3088708578	-0.5458804296	 0.0237105507	-0.109774
C	 2.5560676101	 0.2001074599	 0.1104008611	-0.310676
H	 0.4996941809	 2.2352459509	-0.0094928492	 0.12303
H	-1.1744123079	 1.8873475848	 0.4157789176	 0.127795
H	 0.0926489712	 1.7499306616	 1.6397692768	 0.122888
H	-0.6755983589	-0.522755534	 0.7945983254	 0.086763
H	-0.0163339735	-1.3187681902	-1.4687522608	 0.074826
H	 1.0956724993	 1.5280069651	-2.0180226937	 0.09112
H	 1.7516241052	 0.5118458426	-4.2450659343	 0.118693
H	 1.1456705491	-1.1116666264	-3.6578203607	 0.113494
H	-0.9467146307	-0.1361594081	-3.2817809635	 0.230026
H	 2.5149396527	 1.2492098678	-0.2135556528	 0.101047
H	 2.8993944556	 0.1848550131	 1.149905015	 0.122442
H	 3.3105140102	-0.3083478841	-0.4981796797	 0.125736
