18
gdb 38786	2.90126	2.03469	1.69196	0.6741	73.53	-0.2117	0.0754	0.2871	866.9342	0.150448	-401.8707	-401.864389	-401.863445	-401.90096	27.116	
C	 0.0401227999	 1.5591611019	-0.1716269423	-0.344698
C	 1.3228272375	 0.766479597	-0.0471530194	 0.112545
O	 2.1363508771	 0.8077622768	 1.0925016204	-0.266254
C	 1.5870991229	 0.3063254316	 2.3004028926	 0.092981
C	 0.377932059	 1.0844200339	 2.9233212314	-0.288136
C	-0.5228824666	-0.1060764391	 2.5629093764	-0.049951
C	 0.6807192573	-0.9355284933	 2.1767597164	-0.079295
N	-0.363414626	-0.6363585117	 1.2211222118	-0.095229
C	-0.0007935044	 0.0529656274	 0.0025246496	-0.020307
H	-0.2830028453	 2.1971173791	 0.6374486892	 0.125141
H	-0.2102157601	 1.9362321163	-1.1578237503	 0.113998
H	 1.94390327	 0.6629611198	-0.9302016451	 0.102288
H	 2.434798825	 0.2011023882	 2.9778412974	 0.092181
H	 0.4999024505	 1.1430169443	 4.0093019549	 0.108022
H	 0.1450782536	 2.0816205923	 2.5507183515	 0.107481
H	-1.4078957456	-0.4148386693	 3.1083701737	 0.098886
H	 0.9425860496	-1.9666715831	 2.3876109647	 0.091592
H	-0.2976599444	-0.5243862822	-0.8685073328	 0.098756
