15
gdb 47391	2.69047	1.42763	1.18276	5.6823	67.19	-0.2799	0.0109	0.2908	1058.4391	0.11235	-457.767783	-457.759832	-457.758887	-457.800998	29.179	
O	-0.0660972485	 0.1344542416	 0.7601011118	-0.354277
C	-0.0707271398	 1.1523662535	 0.1384239789	 0.480954
O	-1.2278005713	 1.765851784	-0.1794803177	-0.256514
C	-1.2843556879	 2.957071116	-0.9803108012	-0.068872
C	-0.0419091051	 3.8027764111	-0.7880556456	-0.256169
C	 1.1678776929	 2.9088560505	-1.0602887032	-0.049452
O	 1.1030236857	 1.7339008987	-0.2226541175	-0.258541
C	 1.2852531275	 2.5270374026	-2.4675496719	 0.346748
C	 1.3755413578	 2.2256192672	-3.6267818563	-0.466147
H	-1.3941324211	 2.6651565185	-2.0306855053	 0.136263
H	-2.191716171	 3.4767178142	-0.6656200658	 0.131762
H	-0.0468856428	 4.6563542363	-1.4702869492	 0.133455
H	 0.0154437982	 4.1754519014	 0.2393603628	 0.130791
H	 2.09089162	 3.4061136282	-0.7469338758	 0.134555
H	 1.4674050955	 1.950574526	-4.649114394	 0.215443
