19
gdb 127425	2.33962	1.60052	0.9686	1.9746	80.62	-0.1942	0.0463	0.2405	1226.3405	0.160116	-415.408789	-415.398796	-415.397852	-415.443428	35.897	
C	-0.0781095645	 1.3983663454	-0.0559349927	-0.334131
N	-0.0361405208	-0.040880574	 0.0237881878	-0.013811
N	 0.0215032902	-0.7940218799	-1.114309775	-0.359218
C	 0.0521108055	-2.0551550675	-0.6942864765	 0.324352
C	 0.1016070489	-3.1857709818	-1.6715713371	-0.497223
C	 0.0386168245	-2.1271607273	 0.7226050263	-0.043493
N	 0.0690569391	-3.2299683862	 1.6262008125	-0.621408
C	-0.0107661746	-0.8067612193	 1.1398849164	 0.383508
N	-0.1176254807	-0.2904582709	 2.4311121112	-0.611668
H	 0.9199251734	 1.8470831829	 0.0306840918	 0.125875
H	-0.498741258	 1.6689257719	-1.0248603651	 0.156115
H	-0.7140211849	 1.7901284289	 0.7430010169	 0.143609
H	 0.9967887636	-3.8038647258	-1.5320279591	 0.116537
H	-0.7645596496	-3.8499689571	-1.5657058089	 0.118287
H	 0.1115597019	-2.7948017239	-2.6911703279	 0.139647
H	-0.7590330198	-3.8120514018	 1.5397195949	 0.236236
H	 0.8667430731	-3.834062495	 1.4527367342	 0.234602
H	-0.0494864874	-1.0607460139	 3.0893581832	 0.257004
H	 0.5904528301	 0.4012304954	 2.6513824671	 0.245181
