14
gdb 25277	3.36535	1.77487	1.17057	2.2409	68.19	-0.2378	-0.0151	0.2227	958.1325	0.104891	-432.949158	-432.942397	-432.941452	-432.98076	25.268	
O	-0.0352125441	-0.0911695638	 0.0259232389	-0.383749
C	-0.0257856606	 1.1111403857	 0.0290350163	 0.496527
N	-1.0815803698	 1.9892765119	 0.0560822933	-0.376051
C	-0.7153462089	 3.4039423183	 0.0510693481	-0.292739
C	 0.7804634164	 3.2850342744	 0.0160260338	 0.388335
N	 1.8192388462	 4.0711767753	-0.0064626027	-0.359551
C	 2.898311492	 3.1933977944	-0.0339930853	-0.093033
C	 2.4900853318	 1.8840912953	-0.0276964045	-0.13961
N	 1.1140913695	 1.9603308788	 0.0049362873	-0.086354
H	-2.02555182	 1.6458447639	 0.0765947732	 0.272456
H	-1.1123052749	 3.9284311729	-0.8264016566	 0.150013
H	-1.0712816733	 3.9240109439	 0.9485260147	 0.150011
H	 3.9112976555	 3.5652313331	-0.0568850548	 0.119025
H	 3.0155455402	 0.9453762759	-0.0422457416	 0.154719
