16
gdb 85203	2.70908	1.1901	0.91745	6.9041	69.88	-0.2569	-0.0354	0.2215	1239.8024	0.122515	-437.899835	-437.890886	-437.889942	-437.934497	31.848	
O	-0.0278446363	 1.4150106862	-0.1378647474	-0.425741
C	 0.0437397718	 0.0166829971	 0.0442547659	 0.068962
C	 0.2290397478	-0.4035989868	 1.5364432055	-0.36863
C	-1.300815796	-0.5623700771	 1.6046996421	 0.396502
O	-2.1042829969	-0.5634290245	 2.4866873997	-0.274787
C	-1.4096398365	-0.5505978891	 0.0652928455	-0.108719
C	-2.5253406053	 0.2614471193	-0.6017238959	-0.353363
C	-3.8175091395	-0.4176402718	-0.5456433438	 0.265575
N	-4.8331323867	-0.9677396618	-0.5224664815	-0.305432
H	 0.8455215852	 1.7905101134	 0.0115933286	 0.295346
H	 0.7231362771	-0.4525067068	-0.6758533117	 0.081977
H	 0.7418335718	-1.3634685621	 1.6567745062	 0.136442
H	 0.6755679725	 0.333940331	 2.2074380842	 0.131921
H	-1.4116109717	-1.5835438044	-0.2997490417	 0.127419
H	-2.6080957943	 1.2421752724	-0.1260157832	 0.17164
H	-2.2727173429	 0.442404345	-1.6522853326	 0.160885
