16
gdb 11978	2.68595	2.31197	1.74355	2.4149	65.01	-0.235	-0.015	0.22	819.2511	0.128945	-383.728788	-383.721033	-383.720089	-383.760439	29.361	
C	-0.0780804677	 1.6422762177	-0.0668789788	-0.452749
C	 0.0318703113	 0.1272529244	-0.0523391364	 0.298842
O	-1.2266722409	-0.4750742495	 0.2187948112	-0.478197
C	 0.6871820457	-0.6141553407	-1.2304180051	-0.067646
C	 2.1205964735	-0.2532791082	-1.3519777624	-0.302277
C	 1.7418582359	-1.2808942286	-0.2932683003	-0.173685
C	 1.0853031845	-0.5979443708	 0.8570106629	 0.358516
O	 1.1089475586	-0.7394961146	 2.0497087566	-0.338114
H	 0.8598194231	 2.1257287472	-0.3536903166	 0.117141
H	-0.861663661	 1.9517346183	-0.7652193806	 0.129763
H	-0.347594172	 2.0030556031	 0.9316201668	 0.126866
H	-1.3724789045	-0.4112323072	 1.1706433452	 0.292418
H	 0.1202846421	-1.1091114316	-2.00721395	 0.116227
H	 2.6492023443	-0.6804155144	-2.1978334653	 0.132539
H	 2.4840920482	 0.726946721	-1.0599489947	 0.126016
H	 2.1578592687	-2.2804438362	-0.3006571826	 0.11434
