17
gdb 88914	3.3097	0.94259	0.91359	1.8872	77.25	-0.2717	-0.042	0.2297	1360.3818	0.132962	-421.802753	-421.793359	-421.792415	-421.838095	33.59	
C	-0.1663634931	 1.3957165863	 0.415368607	-0.411378
C	 0.1029741595	-0.0718564676	 0.1704869517	-0.015238
C	 1.4699709386	-0.5360958651	-0.3000760152	-0.337793
C	 1.0025122265	-0.8619145024	 1.0813989256	 0.131247
O	 1.6832687044	-0.1743689559	 2.121779455	-0.23391
C	 1.1613883027	-0.3187835411	 3.3572837404	 0.298188
O	 0.194793661	-0.9841514978	 3.6293138771	-0.351143
C	 1.9346028909	 0.4303844867	 4.3240657728	 0.222976
C	 2.5356303827	 1.0355706258	 5.1701532862	-0.360638
H	 0.7121520198	 1.8951530215	 0.8322252342	 0.127999
H	-0.4322995174	 1.902632123	-0.5178223168	 0.12096
H	-0.9941200859	 1.5306752519	 1.1196960719	 0.128178
H	-0.7464248098	-0.6322583179	-0.2111318603	 0.09637
H	 1.5484761659	-1.3413673603	-1.0216685044	 0.120178
H	 2.2419684017	 0.2220512197	-0.3797609406	 0.128238
H	 0.7312949046	-1.8739970522	 1.3547460381	 0.123075
H	 3.0679570178	 1.5703890153	 5.9186489874	 0.212691
