19
gdb 77116	3.03306	1.13872	0.93929	2.8794	76.81	-0.238	-0.0332	0.2048	1283.0383	0.156361	-423.002341	-422.993128	-422.992184	-423.037208	33.57	
C	-0.0577832617	 1.2464804181	-0.2026762137	-0.412636
C	 0.1306996169	-0.241957435	 0.0397309866	-0.147549
C	 1.4629424111	-0.884138698	-0.4595586318	 0.043724
O	 1.7697807141	-1.3736311683	 0.8599086936	-0.321494
C	 0.6195738032	-0.7204424305	 1.4087316666	 0.464904
C	 0.6830982989	 0.0021253422	 2.7133216098	-0.335588
C	-0.1191898785	-1.2871524003	 2.5705041818	-0.336148
C	 1.2973168452	-1.9988615593	-1.4670410503	 0.129502
O	 1.3723930602	-1.8416655509	-2.6581241813	-0.244638
H	 0.8097104319	 1.8158686534	 0.1447156269	 0.127427
H	-0.1962501466	 1.4495512322	-1.2692585417	 0.133397
H	-0.9423213474	 1.6201027221	 0.3241462383	 0.122674
H	-0.747491949	-0.7998823926	-0.3019892549	 0.093515
H	 2.1990949717	-0.1573061515	-0.8231129966	 0.102111
H	 1.6192040168	-0.0509324167	 3.2587437507	 0.128938
H	 0.1463273762	 0.9392328485	 2.8205413143	 0.117786
H	-1.2032057193	-1.2291207298	 2.5766810298	 0.117338
H	 0.2908969996	-2.1828610092	 3.0247044956	 0.128363
H	 1.0640699067	-2.9852637546	-1.0050435737	 0.088372
