14
gdb 34783	2.34302	1.65393	1.14092	4.8332	73.79	-0.268	-0.0119	0.2561	1047.7546	0.099467	-399.45051	-399.442856	-399.441912	-399.482768	29.045	
C	 0.0816964809	-1.137890499	-0.0239562807	-0.333371
C	 0.0255375076	 0.0618496953	 0.0050807298	 0.087899
C	-0.0744440397	 1.4853528494	 0.0341520884	 0.33986
C	-0.6818461346	 2.4278281008	 1.1134324557	-0.266006
C	 0.0362045174	 3.2852139494	 0.050159859	 0.025646
O	 1.1563146461	 2.3243350914	 0.0606997153	-0.32195
C	-0.6494117175	 2.4493971945	-1.0709526142	-0.208274
C	-0.0238625985	 2.4257781513	-2.3795109053	 0.288791
N	 0.4321581441	 2.4150089364	-3.4410791683	-0.317577
H	 0.1401952197	-2.1985978531	-0.0540354043	 0.201335
H	-1.7694146679	 2.4836642469	 1.1938551533	 0.113495
H	-0.1753284433	 2.3801103442	 2.0760425573	 0.133674
H	 0.2788509375	 4.3450832977	 0.0430581723	 0.126976
H	-1.7377466118	 2.5065544448	-1.1441225484	 0.129502
