16
gdb 42579	3.0075	2.11253	1.62331	3.1341	70.55	-0.2423	-0.0227	0.2197	837.3031	0.127317	-400.7116	-400.705702	-400.704758	-400.741701	24.813	
O	-0.0241904067	 0.0375190472	 0.1170648491	-0.335365
C	-0.0080847355	 1.2384410907	 0.0282555208	 0.459381
C	-1.1911111056	 2.1513683313	-0.0302477028	-0.171933
C	-1.0494147508	 3.4974320672	 0.6228204531	-0.049005
C	 0.4125517716	 3.9219858035	 0.8587899247	-0.049018
C	 1.3761586167	 2.8217849496	 1.3518859716	-0.252845
C	 1.2116469098	 2.1471215699	-0.05723066	-0.18634
C	 0.6238743624	 3.4827218899	-0.6088665546	 0.009673
N	-0.8894717039	 3.347152814	-0.8582602328	-0.153841
H	-2.182547789	 1.7291999696	-0.1432946806	 0.115013
H	-1.9233667248	 3.9757733153	 1.053683077	 0.107401
H	 0.5283938664	 4.9508236852	 1.1972082775	 0.085857
H	 2.3892233444	 3.2075338486	 1.492751485	 0.114638
H	 1.0926399087	 2.2287337864	 2.2257480276	 0.117058
H	 2.0747039177	 1.6722424298	-0.5193815237	 0.099059
H	 1.1521136588	 4.049964792	-1.370436282	 0.090266
