19
gdb 8390	4.74613	1.2578	1.16297	1.2245	72.38	-0.2271	0.0753	0.3024	1087.3311	0.164514	-365.015489	-365.00725	-365.006306	-365.047912	31.464	
C	 0.1391875325	 1.4336307535	-0.4605884287	-0.314829
N	 0.2249783532	 0.0016925635	-0.2107753	-0.130432
C	 1.559366803	-0.5405789893	 0.0594665031	-0.31686
C	 0.5425315568	-0.4270280256	 1.1357593785	 0.383277
C	 0.6712423737	 0.4045801409	 2.4229431976	-0.350654
C	 0.3768201872	-0.9091633568	 3.2081846821	 0.170633
O	-0.4359011064	-0.8665130748	 4.3516998151	-0.433389
C	-0.1623081976	-1.5527207586	 1.8971233811	-0.347985
H	 0.8625162899	 2.0324299592	 0.1168135944	 0.101227
H	 0.3131311683	 1.6223148845	-1.5246309258	 0.123902
H	-0.8683273098	 1.7863347692	-0.2160533345	 0.11922
H	 1.7816543184	-1.5011491994	-0.3994875559	 0.113264
H	 2.3971052008	 0.1566737127	 0.0877707797	 0.103922
H	 1.608487997	 0.9255365524	 2.6302016666	 0.106642
H	-0.1587056314	 1.114129321	 2.5319738329	 0.095284
H	 1.3067390297	-1.3872922572	 3.5270452086	 0.097593
H	-1.2827603485	-0.4817046917	 4.1017322094	 0.27611
H	-1.2526066199	-1.4560326051	 1.8263506946	 0.096734
H	 0.115594613	-2.5860040283	 1.6776393211	 0.106338
