15
gdb 81524	3.80768	1.28865	1.07785	2.1921	68.03	-0.2558	0.0201	0.2759	1079.0759	0.10971	-457.641851	-457.63371	-457.632765	-457.674121	31.69	
O	 0.1569234811	 1.4152658372	-0.1339449849	-0.448934
C	 0.1195384716	 0.0329828837	-0.0710050933	 0.169539
C	 0.006598392	-0.6247700786	 1.3417373939	-0.052072
O	-1.3741305867	-0.082587696	 1.4209234442	-0.330324
C	-1.2770816451	-0.6495307879	 0.0524007591	-0.073689
C	-0.5833661449	-1.9045773303	 0.6902716832	 0.24751
O	 0.3213250099	-2.6455440096	-0.0878981774	-0.479842
C	-1.4277471063	-2.7470529069	 1.5193146778	 0.295149
C	-2.096861525	-3.5313551154	 2.137552709	-0.445045
H	-0.4968734265	 1.7217843267	 0.5113467938	 0.290037
H	 0.8355217862	-0.3833830038	-0.7764943865	 0.120222
H	 0.6366376154	-0.5344114137	 2.2263936539	 0.107816
H	-2.1632316321	-0.5893857738	-0.5798861184	 0.103592
H	-0.0984298276	-3.4810876061	-0.3164918554	 0.293781
H	-2.6936664419	-4.2023977055	 2.7049853608	 0.202258
