20
gdb 12525	3.22973	1.81878	1.2322	0.6115	83.71	-0.2092	-0.0197	0.1896	1023.4655	0.178786	-311.890098	-311.882139	-311.881195	-311.92516	30.349	
C	 0.0255027812	 1.5903594953	 0.0121820109	-0.391176
C	-0.015236589	 0.0546753547	 0.0043647512	 0.009994
C	 0.568001095	-0.4715555406	-1.3186659419	-0.242311
C	 0.4064012192	-1.9369371608	-1.612396868	-0.079521
C	 0.28619116	-2.9596106294	-0.7537301969	-0.06675
C	 0.3261834374	-2.9663283845	 0.7062092123	-0.065728
C	 0.5141659471	-1.9524390186	 1.5628762545	-0.080864
C	 0.6899454723	-0.490287904	 1.259890868	-0.243218
H	 1.0590482994	 1.9554788378	-0.030370462	 0.111682
H	-0.5085771311	 2.0079510869	-0.847455631	 0.1098
H	-0.4317841101	 1.9964634423	 0.9202048283	 0.109882
H	-1.0655504032	-0.2611733339	 0.0521898203	 0.083937
H	 0.0990728765	 0.0855407045	-2.1406652351	 0.099272
H	 1.6354187034	-0.2042715665	-1.3758058317	 0.108352
H	 0.384191346	-2.1834518767	-2.6723159013	 0.0852
H	 0.166435237	-3.9470355583	-1.1951265737	 0.07947
H	 0.2135900256	-3.9553874324	 1.1457133652	 0.07956
H	 0.5449289174	-2.2038332094	 2.6212551726	 0.085163
H	 1.7645388964	-0.2542409252	 1.2026527884	 0.108736
H	 0.3260282497	 0.076319249	 2.1268264998	 0.09852
