22
gdb 58276	2.44464	1.0286	0.9267	2.2982	78.82	-0.2652	0.059	0.3241	1423.7225	0.19178	-441.54913	-441.538075	-441.537131	-441.585598	40.01	
C	-0.0457957687	 1.5364898969	 0.0152747568	-0.394826
C	 0.0890204431	 0.0082174712	-0.0446065401	 0.024674
C	 0.8121919197	-0.4319248773	-1.3257874115	-0.387767
C	 0.7399445945	-0.5329000916	 1.2388326272	 0.152791
C	 0.7629130778	-2.0536413912	 1.360381764	-0.422548
O	 2.0973522726	-0.0236626285	 1.2749527333	-0.278678
C	 2.6489753632	 0.1401300999	 2.5012164614	 0.497504
N	 3.946009108	 0.5559238128	 2.3727741627	-0.562978
O	 2.0926014457	-0.0752925518	 3.553713625	-0.403058
H	 0.9393103074	 2.011768833	 0.0520192176	 0.11906
H	-0.570676178	 1.9171909735	-0.8664728518	 0.109371
H	-0.6041358468	 1.8536599314	 0.9025791848	 0.112868
H	-0.9227782908	-0.420035226	-0.0582566267	 0.075248
H	 1.8444525954	-0.0693749294	-1.3331429849	 0.121952
H	 0.8363728698	-1.5202409827	-1.431292025	 0.113556
H	 0.3058659547	-0.0254093729	-2.2069556134	 0.10981
H	 0.2164091489	-0.1196479963	 2.1062448727	 0.104493
H	-0.2518818323	-2.4549415813	 1.272096366	 0.114679
H	 1.3840362329	-2.508004887	 0.5837595443	 0.122344
H	 1.1598717947	-2.3398826308	 2.3367919363	 0.142589
H	 4.2507003473	 0.9226875311	 1.487222535	 0.261841
H	 4.3794315707	 0.9134595871	 3.2064905365	 0.267076
