19
gdb 2943	5.70536	1.77367	1.47048	1.5051	67.58	-0.2373	0.087	0.3243	889.0251	0.172677	-310.936083	-310.92849	-310.927546	-310.968383	27.56	
C	-0.1077379638	 1.5492854804	-0.0183353702	-0.381545
C	-0.0049737982	 0.0219911811	-0.0076966074	-0.180563
C	 0.6986989385	-0.5401064469	-1.2389911623	 0.172851
C	 0.8190140213	-2.0694655584	-1.2824908359	-0.2388
C	 0.8451629461	-2.3489384835	-2.7908338592	-0.230637
C	-0.1210181961	-1.2803911969	-3.3180985671	-0.055659
O	-0.0343212903	-0.1772950035	-2.4185736276	-0.279053
H	 0.885705478	 2.0119101457	-0.0289478874	 0.109325
H	-0.6444482416	 1.8890573491	-0.9078407487	 0.135789
H	-0.6373024122	 1.9170956654	 0.8658392774	 0.10632
H	 0.5412470689	-0.3131477745	 0.883865334	 0.089702
H	-1.0073891473	-0.4209655926	 0.0476622638	 0.09464
H	 1.7050329993	-0.0913739454	-1.3083105972	 0.059914
H	 1.7025464335	-2.435664232	-0.7538540178	 0.100534
H	-0.0649781387	-2.5270985764	-0.822082668	 0.100293
H	 1.8515768508	-2.1853611332	-3.1910188987	 0.106007
H	 0.5387400853	-3.3640232694	-3.0551773837	 0.101129
H	 0.1288753927	-0.9376917064	-4.3288662637	 0.099223
H	-1.1545080862	-1.6582366226	-3.3381717504	 0.09053
