18
gdb 62588	2.88612	1.7308	1.41278	4.1631	75.06	-0.2423	0.0046	0.2469	972.0654	0.146539	-401.908939	-401.901028	-401.900083	-401.940832	31.307	
C	 0.1195518309	 1.5100361727	 0.0987878611	-0.45796
C	 0.0374455672	-0.0060211074	-0.0101459184	 0.303321
C	-1.3911557854	-0.5010427678	 0.1759830842	-0.432758
C	 0.7623101693	-0.725450704	-1.1628319945	-0.102734
C	 1.2341194433	-1.7548256048	-0.2151422158	-0.032974
C	 2.2636714453	-0.7737844704	-0.7685397558	-0.23636
C	 2.2982490859	-0.2029008482	 0.6053632696	 0.430495
O	 3.0805348845	 0.3635935852	 1.300704139	-0.323919
N	 0.9683417635	-0.7872075278	 0.9487626111	-0.248368
H	 1.1240900067	 1.8912153918	-0.0996815448	 0.135724
H	-0.5668403852	 1.9725115236	-0.6177548673	 0.118086
H	-0.1717661535	 1.8324967478	 1.1035144997	 0.138331
H	-2.0373461925	-0.1106493066	-0.6181793228	 0.113892
H	-1.439650723	-1.5928842035	 0.1536019658	 0.121881
H	-1.7854896847	-0.1614065983	 1.137873328	 0.13115
H	 0.473110983	-0.8408534534	-2.2021830146	 0.100848
H	 1.2574025637	-2.8312868973	-0.1500859349	 0.122756
H	 3.050530871	-0.9333907714	-1.4934626295	 0.118591
