18
gdb 47462	2.78377	1.21985	0.96266	3.5113	78.39	-0.2424	0.0252	0.2676	1248.7053	0.148056	-401.962408	-401.953641	-401.952697	-401.996556	32.084	
O	-0.0785137667	 0.0171787087	-0.4585292735	-0.39145
C	-0.0901203163	 1.187546966	-0.1389739361	 0.416033
C	-1.3083712629	 2.0585927649	 0.1647778018	-0.329503
C	-0.7598219404	 3.4940752551	 0.1827754177	-0.224864
C	 0.7382572687	 3.3182283445	 0.5138324707	-0.164873
N	 1.023718848	 1.9747583122	 0.0357647796	-0.067514
C	 2.3597082193	 1.4121070779	 0.0007899097	-0.320086
C	 3.0217752162	 1.4120530998	 1.3067734982	 0.309675
C	 3.5615564484	 1.4344394673	 2.3800587711	-0.460377
H	-2.097973339	 1.8844693519	-0.5679333849	 0.13182
H	-1.697528897	 1.751550522	 1.1426483406	 0.133204
H	-0.8647808462	 3.9468477551	-0.8074113213	 0.117407
H	-1.2629225566	 4.1447137099	 0.9003361079	 0.112281
H	 1.3698259265	 4.0551540485	 0.0049341024	 0.110698
H	 0.9385453289	 3.4009445334	 1.5911235297	 0.117303
H	 2.2427361346	 0.3880480821	-0.3704337597	 0.174093
H	 2.9793797815	 1.9607869366	-0.721801104	 0.133155
H	 4.0427045029	 1.4362315241	 3.3268443001	 0.202997
