21
gdb 95158	2.62226	1.4754	1.30381	1.8632	77.53	-0.2483	0.0822	0.3306	1093.9346	0.183413	-424.217775	-424.209342	-424.208398	-424.250193	33.892	
C	 0.0658723831	 1.5100862202	-0.0063101186	-0.462519
C	-0.0467438205	-0.0016500804	 0.0382418382	 0.302243
C	-0.8715528442	-0.5986757847	 1.1630662833	-0.349668
C	 0.6307514865	-0.7247067347	 1.1811771449	 0.061333
O	 1.191524829	-1.9996809045	 0.9788852332	-0.272458
C	 1.6922821785	-2.1982898358	-0.3417067338	-0.110581
C	 0.5169002363	-2.1224902704	-1.314201837	 0.119261
O	-0.4703117158	-3.0781405252	-0.9439874129	-0.44478
C	-0.0296634834	-0.6806376345	-1.3298296024	-0.288422
H	 0.9825222808	 1.826998335	-0.5175735886	 0.113962
H	-0.783716571	 1.9483485588	-0.5434493313	 0.120274
H	 0.0766402869	 1.9413331219	 0.9998859454	 0.113586
H	-1.3401377706	 0.0778731155	 1.8705646411	 0.107357
H	-1.4405758999	-1.4960633882	 0.9501775513	 0.118589
H	 1.1938726728	-0.1399980347	 1.9062776237	 0.089117
H	 2.4643936211	-1.4561975213	-0.5916858548	 0.095033
H	 2.1416114829	-3.1949754022	-0.3439919587	 0.114742
H	 0.8474595947	-2.3869601995	-2.3254574702	 0.07978
H	-0.3762552212	-3.2071199258	 0.0080606314	 0.289682
H	-1.0272587655	-0.6809056272	-1.7823476341	 0.110852
H	 0.6195868297	-0.0913990122	-1.9912229799	 0.092617
