22
gdb 98587	2.93138	0.98182	0.94965	1.5391	85.28	-0.2216	-0.0192	0.2024	1426.8934	0.191515	-404.34434	-404.333769	-404.332825	-404.380138	38.133	
C	-0.2988049201	 1.3266394479	 0.7919899099	-0.380702
C	 0.1665993699	-0.0906228158	 0.4723708927	-0.281841
C	-0.1179889235	-0.5165187501	-0.9641995694	 0.390614
O	-0.5999590734	 0.2586713267	-1.7699091982	-0.338526
C	 0.2506948578	-1.9307063135	-1.2791345634	-0.134477
C	-0.6156508161	-2.7912246094	-2.1862807768	 0.011946
C	-1.8937721164	-2.3013782304	-2.8296660429	-0.431166
N	 0.7067239512	-2.3917745772	-2.6023966376	-0.103946
C	 0.9057896412	-1.4557678299	-3.7064727452	-0.326219
H	 0.1795251065	 2.0512151004	 0.1285546413	 0.132958
H	-1.3786170466	 1.4245802805	 0.6522902587	 0.128943
H	-0.0583779701	 1.588744627	 1.8260662834	 0.109166
H	 1.2472067749	-0.2014036313	 0.6420133215	 0.126693
H	-0.2993190741	-0.8272286431	 1.1421649017	 0.122304
H	 0.758141065	-2.4350018974	-0.4584288942	 0.086679
H	-0.6566549494	-3.8399492334	-1.8877892404	 0.095301
H	-1.9117992479	-1.2182747213	-2.9460483924	 0.162432
H	-2.0194850906	-2.767454671	-3.8134037769	 0.121992
H	-2.750813166	-2.5972291317	-2.2158490411	 0.11906
H	 0.2143811346	-0.6094080201	-3.7304821438	 0.147686
H	 1.926024561	-1.0650472018	-3.641155532	 0.121152
H	 0.8241574622	-2.021464525	-4.640002335	 0.119949
