16
gdb 17592	2.76076	2.45946	1.85125	1.6213	64.26	-0.228	0.0672	0.2952	781.3269	0.129962	-383.681226	-383.674005	-383.67306	-383.712076	28.611	
O	-0.1122995623	 1.3940270705	 0.0472864108	-0.462381
C	 0.0144807431	 0.0166414276	-0.0018598077	 0.296057
C	-0.2161218938	-0.8706639293	 1.2091961504	-0.390363
C	-1.1368996848	-1.0054583082	 0.0256718559	 0.352464
O	-2.4919833283	-0.8168156321	 0.2145528238	-0.456012
C	-0.4921472774	-1.7684602428	-1.1024796738	-0.120046
C	-0.2637925432	-0.8755111882	-2.299808062	-0.308953
C	 0.6668006894	-0.7540001953	-1.123441727	-0.10446
H	 0.5983167097	 1.7494067646	 0.5915486719	 0.286411
H	 0.4806362819	-1.6594932664	 1.4825512516	 0.103063
H	-0.6768910031	-0.351357328	 2.0446201911	 0.119654
H	-2.8590148722	-0.4471446197	-0.5965638001	 0.286446
H	-0.3951717151	-2.8466327153	-1.1645769705	 0.089334
H	 0.1458896151	-1.368718227	-3.1762080145	 0.112377
H	-0.9522943358	-0.0660341125	-2.5278573118	 0.111437
H	 1.7190698569	-1.0069163978	-1.1942332882	 0.084971
