18
gdb 46330	3.12038	1.28023	1.1711	3.0242	72.08	-0.2486	0.0301	0.2788	1106.8288	0.149449	-439.108514	-439.100358	-439.099413	-439.142617	29.818	
O	-0.2736276961	 0.0470936493	 0.1224886807	-0.368551
C	-0.155942551	 1.2416607737	 0.0501478575	 0.381643
N	-1.0524660965	 2.2761645771	-0.0425032463	-0.333891
C	-0.0516880972	 3.3488103347	-0.009617741	-0.219115
C	 1.0379772218	 2.2291984196	 0.0259624849	 0.184577
C	 2.0242392789	 2.1878991744	 1.2132967762	-0.326553
C	 3.4140134471	 2.3635672718	 0.5467032083	-0.075662
O	 3.1642299472	 2.7891466988	-0.7860704054	-0.242817
C	 1.9762594476	 2.1298474544	-1.1855557155	-0.155002
H	-2.060886375	 2.2904824301	-0.0110455435	 0.2526
H	-0.0455501105	 3.9857385939	-0.8999709628	 0.11585
H	-0.097333254	 3.9730627528	 0.8887677757	 0.112406
H	 1.8119407968	 2.9828434592	 1.9320519451	 0.112341
H	 1.9524888167	 1.2324798662	 1.739494225	 0.130442
H	 4.0392762663	 3.1196092464	 1.0279432819	 0.111007
H	 3.9622288132	 1.4092116113	 0.5467463716	 0.098985
H	 2.1669573621	 1.067986182	-1.4134731991	 0.108516
H	 1.5954906127	 2.6194749943	-2.0851022332	 0.113224
