15
gdb 131391	3.21661	1.27482	0.91298	0.865	71.49	-0.192	0.0223	0.2143	1192.402	0.114942	-450.145746	-450.13752	-450.136575	-450.178683	30.535	
O	 0.0998757048	 1.3167522498	 0.1678910193	-0.447194
C	 0.0697945491	-0.0317672627	 0.0454516916	 0.337935
N	 0.0569764252	-0.6547876971	-1.1185000986	-0.326606
N	 0.0268938217	-1.9667806437	-0.778393319	-0.20997
C	 0.0210338473	-2.177383174	 0.5630071288	-0.086503
C	 0.0486370654	-0.9226870675	 1.1433577508	 0.215045
N	 0.055832612	-0.5283879964	 2.480584943	-0.408388
C	 0.0362376088	-1.3576504624	 3.5643128299	 0.076159
N	 0.007718757	-2.6324614343	 3.465133616	-0.470732
H	 0.1101095914	 1.6865483786	-0.7232950495	 0.305789
H	 0.0132998801	-2.6567736141	-1.5070748307	 0.274907
H	-0.0011835978	-3.1505042447	 1.0178722652	 0.169732
H	 0.0787173811	 0.4640969373	 2.6432482066	 0.263012
H	 0.0479703227	-0.7929193918	 4.5037121649	 0.087629
H	-0.002722119	-3.052839117	 4.3907954318	 0.219187
