19
gdb 89393	2.6884	1.45373	1.18451	3.1964	75.43	-0.2364	-0.0282	0.2081	1120.7282	0.158284	-423.0501	-423.041418	-423.040473	-423.083192	32.986	
C	-0.3611417381	 1.4676889382	 0.0597193804	-0.403391
C	 0.0117886371	-0.0212282549	-0.0353315306	-0.101093
C	 0.9078370316	-0.3860516275	-1.2473835391	-0.301602
C	 2.3169576225	-0.5674909267	-0.6888920223	 0.412354
C	 3.3905653778	-1.2307701476	-1.5058677526	-0.483814
O	 2.71404416	 0.5656089198	 0.0911581225	-0.283122
C	 2.2576211277	-0.615486081	 0.7876130993	-0.153484
C	 0.8171185921	-0.4670792821	 1.2001030472	 0.421912
O	 0.3660193072	-0.7025510324	 2.2922497112	-0.32864
H	 0.5366610918	 2.0905574425	 0.0565805181	 0.141412
H	-0.9893629149	 1.7594068724	-0.7878562253	 0.115294
H	-0.9177148889	 1.6626492589	 0.9808508904	 0.133495
H	-0.910090646	-0.6106432545	-0.0399145883	 0.10283
H	 0.5782993349	-1.3217701993	-1.7120453779	 0.108571
H	 0.8976568813	 0.3849938622	-2.0251178575	 0.112612
H	 3.5568310382	-0.6792083857	-2.4377394959	 0.132981
H	 4.3328181341	-1.2602195362	-0.9536675857	 0.136656
H	 3.1019193499	-2.2537123358	-1.7676610131	 0.128748
H	 2.9806295515	-1.1145370702	 1.4255261491	 0.108279
