18
gdb 6145	4.88588	1.18194	1.13067	1.8364	74.81	-0.2504	0.0496	0.3	1107.5171	0.15141	-347.76525	-347.756659	-347.755715	-347.797831	33.027	
C	-0.1711382636	 1.5413183167	-0.0334721839	-0.452651
C	-0.0196001708	 0.0233215865	-0.0224650037	 0.416478
O	-1.2689655104	-0.6148500586	-0.2011423517	-0.475692
C	 1.1569606896	-0.4957621508	-0.9066856544	-0.287064
C	 2.0361734488	-0.591097019	 0.3824823759	-0.161919
C	 0.7184973069	-0.5282947882	 1.2210946237	-0.26427
C	 2.9071570973	-1.7354179883	 0.5455222643	 0.308724
C	 3.6166431414	-2.697763218	 0.6780992834	-0.445812
H	 0.7825620654	 2.0448840607	 0.1543145465	 0.121754
H	-0.5364966308	 1.8872247192	-1.008943473	 0.107338
H	-0.8851544926	 1.8560778353	 0.7338834889	 0.126352
H	-1.7091550362	-0.2126072149	-0.9579468071	 0.273098
H	 0.9250621571	-1.4890239062	-1.2955112693	 0.117693
H	 1.5223336646	 0.1435851276	-1.7143997283	 0.096507
H	 2.6122800785	 0.3306377841	 0.5144600537	 0.10027
H	 0.7252319769	 0.0829106679	 2.1263034543	 0.102375
H	 0.3549712252	-1.5301115539	 1.455978845	 0.125028
H	 4.2457768727	-3.5446750501	 0.7959270357	 0.191791
