15
gdb 48804	2.29542	1.52366	1.14285	2.6089	73.3	-0.2549	-0.0331	0.2218	1082.9129	0.109961	-420.5517	-420.54353	-420.542586	-420.5847	30.233	
O	-0.0974576695	-0.0159845255	 0.0372419465	-0.270211
C	-0.0338687864	 1.1907005893	-0.0037120503	 0.061398
C	 1.2190910652	 1.9462930205	 0.0275435933	 0.170901
C	 1.3432518156	 3.4367099782	 0.3156339906	-0.36002
C	 1.7913097024	 2.9413891017	-1.0043247794	 0.074854
O	 3.0809476233	 2.3565185378	-0.9644226452	-0.280388
C	 2.6195991053	 1.3209604434	-0.0277507377	-0.124144
C	 3.4022448473	 1.2424313293	 1.1900347542	 0.34059
C	 4.0441744869	 1.1761435944	 2.2035621353	-0.437404
H	-0.9497982633	 1.8194981277	-0.0840094956	 0.072984
H	 0.393538786	 3.9641573606	 0.3212256515	 0.132303
H	 2.07058076	 3.766584021	 1.0508615518	 0.144806
H	 1.3995746654	 3.2505969771	-1.9663313723	 0.127008
H	 2.5916561492	 0.3564258165	-0.5436617822	 0.138633
H	 4.6138558725	 1.109961308	 3.0979312396	 0.208688
