21
gdb 112057	1.99057	1.51269	0.94299	0.5472	89.72	-0.2419	0.019	0.2609	1300.9202	0.182083	-349.938314	-349.929003	-349.928059	-349.972472	35.452	
C	-0.2800964119	 1.5541478399	 0.0791574877	-0.390195
C	-0.3638632835	 0.0338254833	 0.2438669776	-0.169924
C	 0.7622714142	-0.5476767844	 1.1222418632	-0.041601
C	 0.6709719463	-0.0920027803	 2.5643244082	-0.066973
C	 0.2360962515	-1.0508236254	 3.3797515103	-0.076294
C	-0.01013875	-2.3483528102	 2.6507700586	-0.261394
C	 0.7217058071	-2.1103581802	 1.2948716799	-0.193312
C	 0.1788387178	-2.8668146825	 0.1775443969	 0.323315
C	-0.2680810437	-3.5064458154	-0.7379973792	-0.465378
H	 0.6840134527	 1.8535345359	-0.3480828994	 0.112133
H	-1.0655134871	 1.9187057514	-0.5900756234	 0.113127
H	-0.3950895906	 2.0748729402	 1.0353781822	 0.115428
H	-1.3349958147	-0.2387000261	 0.6753827903	 0.097815
H	-0.318468032	-0.4452267485	-0.7399650471	 0.10897
H	 1.7186264494	-0.2575717103	 0.6678804337	 0.075812
H	 0.8903592304	 0.9267925347	 2.8633772441	 0.095286
H	 0.0450479539	-0.9333534012	 4.4408174941	 0.093754
H	 0.3842682666	-3.2271445432	 3.1713543419	 0.110435
H	-1.0827792811	-2.5283759848	 2.5022106487	 0.118412
H	 1.7619562995	-2.4258278018	 1.4428120686	 0.109364
H	-0.6614500348	-4.0706133909	-1.5468005268	 0.19122
