19
gdb 66996	2.48222	1.96497	1.36826	3.168	78.8	-0.2296	-0.0068	0.2227	989.5448	0.16041	-385.901491	-385.893936	-385.892992	-385.933199	30.347	
C	 0.0242975094	 1.468053067	-0.0288916313	-0.491285
C	-0.007305453	-0.03846915	 0.0302845978	 0.233659
C	-0.3628025345	-0.7907394263	-1.2715882943	-0.087081
C	-0.08628738	-2.2881656769	-1.190204961	-0.248223
C	-0.7491805719	-2.2817088946	 0.2267716137	-0.06193
C	 0.3202359669	-2.1073627807	 1.3057373393	-0.325061
C	 0.9184533241	-0.7294565886	 0.9904143064	 0.347135
O	 1.9157322885	-0.2515383552	 1.4748288985	-0.333919
C	-1.2838219339	-0.8431497097	-0.0805436856	-0.130025
H	 1.028656621	 1.8148325113	-0.2893088415	 0.139915
H	-0.6790473142	 1.8536002992	-0.7730549117	 0.11343
H	-0.2320189892	 1.9061252303	 0.9410020758	 0.12648
H	-0.4537244858	-0.2000237563	-2.1762643624	 0.091947
H	-0.6940693613	-2.8346846165	-1.9161253871	 0.106868
H	 0.9506377069	-2.6366933815	-1.2566648932	 0.099007
H	-1.4801860457	-3.0641341016	 0.4229997176	 0.077998
H	-0.1234484836	-2.0583379274	 2.3085509306	 0.125275
H	 1.0884554765	-2.8853365294	 1.3185637691	 0.122977
H	-2.2775933701	-0.442296853	 0.0717819292	 0.092832
