17
gdb 19054	4.36449	2.0913	1.78814	2.2269	67.11	-0.1987	0.0819	0.2807	784.016	0.143613	-363.799574	-363.793216	-363.792272	-363.829824	25.573	
C	-0.0070842239	 1.4621900276	-0.0111832376	-0.324544
N	-0.0140748624	 0.0098016272	 0.0250583716	-0.061752
C	-1.3704808332	-0.5759318199	 0.0049981397	-0.154061
C	-1.2534071013	-1.7814497734	 0.929633832	 0.064866
O	-0.2220757997	-2.6608848117	 0.3748718181	-0.301055
C	 0.7207498029	-2.0707653093	 1.2677732676	 0.08101
C	-0.3126393259	-1.334246895	 2.0771770254	-0.186431
C	 0.6411016067	-0.5574403422	 1.1930185584	-0.020778
H	 1.0237308107	 1.8298298213	-0.0215537358	 0.119754
H	-0.4893299576	 1.8045798393	-0.9323918988	 0.121795
H	-0.5342477912	 1.9318381425	 0.8412818642	 0.089729
H	-2.1272939858	 0.1262369534	 0.397491379	 0.081004
H	-1.6588481368	-0.8714313756	-1.0090961086	 0.115202
H	-2.1776368654	-2.3163619478	 1.1482173527	 0.084905
H	 1.597665071	-2.6465374209	 1.5409726526	 0.101717
H	-0.5162334924	-1.2469402745	 3.1354765608	 0.094652
H	 1.4540113843	 0.0163438789	 1.622383829	 0.093987
