22
gdb 96668	2.7453	1.08082	0.97101	0.8693	85.46	-0.2389	0.034	0.273	1383.9234	0.190608	-404.345818	-404.335027	-404.334083	-404.38221	38.716	
C	 3.9791884935	-3.7867748931	 0.2741715897	-0.328728
N	 2.5850162704	-3.4123288269	 0.1770813917	-0.276533
C	 2.1766571937	-2.7046034479	-0.7882136458	 0.389128
C	 2.9615390638	-2.1326319287	-1.9500291752	-0.485955
O	 0.8692554761	-2.3452364334	-0.9035857384	-0.301569
C	-0.0578107603	-2.7899283996	 0.0786965296	 0.476125
C	 0.0425111916	-2.0667504069	 1.3997610959	-0.459007
C	-1.3962217033	-3.1266199256	-0.5131683799	-0.323358
C	-0.4838694378	-4.224886709	-0.003067568	-0.292663
H	 4.623367633	-3.4318800284	-0.5422060825	 0.098969
H	 4.3936963417	-3.409146605	 1.2170140816	 0.123538
H	 4.0597710986	-4.8798594012	 0.3146741521	 0.124104
H	 3.4281357516	-2.9306416204	-2.5350359887	 0.142123
H	 2.2984411111	-1.5620752049	-2.5997254856	 0.141528
H	 3.7602322349	-1.4748961013	-1.5950937108	 0.142408
H	-0.0378485335	-0.9846415084	 1.2501424294	 0.115185
H	-0.771018224	-2.3784669439	 2.0613324836	 0.112203
H	 0.9931756009	-2.2892661685	 1.8879819956	 0.142278
H	-2.2837410611	-2.8737878255	 0.0565707781	 0.10984
H	-1.4980480159	-3.0205264159	-1.5870624821	 0.118045
H	 0.011171741	-4.848169194	-0.7376220227	 0.118142
H	-0.737355596	-4.7330329416	 0.9208084324	 0.114199
