20
gdb 38993	2.99914	1.66116	1.23826	2.4928	78.35	-0.2313	0.0853	0.3166	1043.2484	0.173915	-403.106231	-403.099018	-403.098074	-403.137648	29.541	
C	-0.0438643546	 1.4461477443	 0.0994566625	-0.304084
N	 1.2816274918	 0.8157647635	-0.0807369042	-0.163531
C	 1.6344171778	 0.2727261957	 1.2816941	-0.179399
C	 0.4206608514	-0.6970779007	 1.2869925132	-0.084667
C	 0.7633840752	-2.1787898784	 1.0575055519	-0.224113
C	-0.1932526045	-2.7977162374	 0.0341537747	-0.076177
O	-0.0893060399	-2.1338291532	-1.2151889133	-0.240414
C	-0.5777876095	-0.8031391335	-1.1627517806	-0.184094
C	 0.0065837234	-0.0192954647	-0.0235941935	 0.344163
H	-0.2855107957	 1.9112242876	 1.054140506	 0.105715
H	-0.3603307162	 2.0145669238	-0.7709605554	 0.119214
H	 2.6018667569	-0.2331070167	 1.2503353693	 0.111489
H	 1.6594900477	 1.0431967326	 2.059741117	 0.101108
H	-0.2933958487	-0.5923339838	 2.1114522497	 0.068245
H	 1.7766733794	-2.2707089735	 0.6506753838	 0.111614
H	 0.7354318267	-2.7390942087	 1.9984915213	 0.095481
H	 0.0611467915	-3.8443556291	-0.1557815394	 0.109095
H	-1.234240647	-2.7645320457	 0.40172798	 0.082526
H	-0.3296194933	-0.335483729	-2.1204506394	 0.119879
H	-1.6786578624	-0.8154267831	-1.0611847236	 0.087948
