19
gdb 89707	3.2136	1.2565	1.09674	2.0541	75.76	-0.2466	-0.026	0.2206	1140.5289	0.159922	-423.023656	-423.015611	-423.014667	-423.056323	31.345	
O	-0.0796142214	 1.4019574391	-0.0467784764	-0.443715
C	-0.0297910668	-0.0135394531	 0.0026283418	 0.132963
C	 0.5116558099	-0.5944782856	 1.3539906514	-0.298708
C	-0.7585439853	-1.3172165067	 1.8326803212	 0.253811
C	-1.2311618415	-2.027939643	 0.5166423652	-0.278113
C	-1.4630935965	-0.5657900058	 0.0464531023	-0.027306
C	-1.8791322958	-0.2673345336	 1.5137206323	-0.265927
C	-0.7377122437	-2.0455126277	 3.1338334157	 0.047747
O	 0.212128356	-2.1063923029	 3.8759331116	-0.250534
H	 0.8213256563	 1.7362633728	 0.0004895576	 0.284109
H	 0.5231178023	-0.4076354193	-0.8618754973	 0.064806
H	 1.3543290922	-1.2789216734	 1.2282500173	 0.10632
H	 0.8154087754	 0.2057255439	 2.033800835	 0.109027
H	-0.4950905254	-2.6419108566	-0.0110034376	 0.101259
H	-2.1646465948	-2.5806528351	 0.6440888552	 0.106543
H	-2.1035169266	-0.3205000058	-0.8001054005	 0.072479
H	-2.8789211619	-0.6377320958	 1.7513428092	 0.101004
H	-1.7384524908	 0.7472043342	 1.8895646715	 0.118444
H	-1.6970554216	-2.5538835655	 3.3914473444	 0.065791
