12
gdb 575	11.47792	2.02229	1.84983	4.3345	50.4	-0.2641	0.0237	0.2878	642.9501	0.097425	-265.396194	-265.390273	-265.389329	-265.425905	20.503	
N	-0.0098446883	-1.0404455288	 0.4331767068	-0.297567
C	-0.0034489674	 0.0724337746	 0.1233768987	 0.264495
C	 0.011523362	 1.483665342	-0.2688600969	-0.370747
C	 1.400893439	 2.0994248958	-0.2066136018	 0.040719
C	 1.5399656422	 3.5393810133	 0.120145957	-0.247196
N	 1.981895379	 2.5077775471	 1.0745239165	-0.298789
H	-0.3901136216	 1.5632190503	-1.2864426073	 0.161387
H	-0.6753038946	 2.0347049438	 0.385037241	 0.147215
H	 2.1181853441	 1.6410353045	-0.883058616	 0.117266
H	 2.3375920175	 4.1257140924	-0.3258934651	 0.131108
H	 0.6331156584	 4.1000216404	 0.3351864885	 0.115515
H	 1.3039127797	 2.4025222746	 1.8258771285	 0.236594
