22
gdb 119140	2.35439	1.00049	0.86112	2.8765	77.88	-0.2424	0.0658	0.3082	1461.0646	0.192786	-441.447469	-441.436934	-441.43599	-441.483286	38.846	
C	 0.2150536198	-0.9566701317	-1.2044684432	-0.436686
C	-0.2855678549	-0.2319177581	 0.0477057036	 0.066811
O	-1.6741896269	-0.4813079335	 0.2656772787	-0.424661
C	 0.4906536606	-0.505928871	 1.3415712281	 0.301444
C	 0.2011725217	 0.479623121	 2.4643300812	-0.266735
C	 0.8860470985	 1.8378466915	 2.2712552528	-0.06039
O	 0.6234827112	 2.7318993251	 3.3425217951	-0.419922
C	 0.8109841814	-1.9197778593	 1.6915918864	-0.301401
N	 1.885385362	-0.9849820521	 1.3176997863	-0.355883
H	 0.2447688703	-2.0444724155	-1.074649667	 0.11541
H	-0.4724402932	-0.7419894986	-2.0262242123	 0.135468
H	 1.2107370295	-0.6148378266	-1.5054045958	 0.121822
H	-0.2432855199	 0.8442888589	-0.1557221961	 0.096458
H	-1.7561542813	-1.3903771373	 0.5759508902	 0.277038
H	-0.8804575174	 0.6233999493	 2.5519536511	 0.119703
H	 0.5553244916	 0.051243838	 3.4101286141	 0.083734
H	 1.9649677047	 1.681316111	 2.1276718878	 0.103721
H	 0.5055670962	 2.3425505746	 1.3769775756	 0.108124
H	 1.0137959616	 2.3551449574	 4.1376056018	 0.279858
H	 0.8086838292	-2.2276813055	 2.7338225399	 0.118773
H	 0.5516376069	-2.7122048958	 0.9937358977	 0.107115
H	 2.1867421683	-1.177895212	 0.3665710842	 0.2302
