22
gdb 118644	2.80202	0.71113	0.59218	2.9681	83.43	-0.2739	0.0326	0.3065	1915.5585	0.192484	-404.36989	-404.358721	-404.357777	-404.407182	38.752	
C	-0.0330666035	 1.601767954	 0.0198135577	-0.382736
C	 0.0030448753	 0.0715017774	-0.0120892358	-0.185962
C	-1.3966389386	-0.5500703438	 0.0112786161	-0.17551
C	-1.4053495735	-2.0961763793	-0.0098056946	-0.157296
C	-2.8312516323	-2.6662094293	 0.1403913097	-0.182109
C	-2.8850095056	-4.1879005063	 0.2130778008	-0.090485
O	-4.2399176863	-4.5481871547	 0.4268538034	-0.419659
C	-0.7678484095	-2.6002181922	-1.2331873598	 0.291157
N	-0.2751602644	-2.9921002724	-2.2031878023	-0.344093
H	 0.9773268874	 2.0209019264	 0.0065220997	 0.118533
H	-0.5710537684	 2.0028004056	-0.8460389559	 0.11997
H	-0.5351358078	 1.9700828384	 0.921429822	 0.114813
H	 0.536003434	-0.2662456396	-0.9086218025	 0.125289
H	 0.5783660525	-0.3008805605	 0.8459325314	 0.097228
H	-1.9277754742	-0.2333221815	 0.9170930281	 0.104119
H	-1.9829907431	-0.1824664048	-0.8397356084	 0.114404
H	-0.7960146122	-2.4539452805	 0.832037683	 0.122631
H	-3.2683377906	-2.2566301141	 1.0572921644	 0.115822
H	-3.4557063422	-2.3270912961	-0.6929663211	 0.123907
H	-2.494469153	-4.6213887296	-0.7193031368	 0.114022
H	-2.2417266603	-4.5438579121	 1.0355600511	 0.08592
H	-4.3084874535	-5.5059137147	 0.3771356199	 0.290035
