17
gdb 17044	5.14742	1.30013	1.23536	2.0104	69.7	-0.2478	0.0022	0.25	1027.8364	0.142567	-363.808298	-363.800846	-363.799902	-363.84021	27.934	
C	-0.1445852034	 1.5347936563	 0.052094446	-0.379864
C	 0.1423561479	 0.0354115392	-0.0869081357	-0.22159
C	 0.8104041793	-0.5443072486	 1.1535683736	 0.059731
C	-0.0617770165	-0.8499683912	 2.4168369813	-0.167631
N	-0.6349823999	-2.0281525002	 1.62906752	-0.313729
C	 0.8634753145	-2.0956163848	 1.3280912673	-0.181984
C	 1.0476796976	-1.8394570584	 2.8412219294	 0.440256
O	 1.5812331824	-2.2877304718	 3.8077632204	-0.326878
H	 0.7716864659	 2.1024684886	 0.2497751738	 0.114465
H	-0.5915724619	 1.9342065266	-0.8631824559	 0.117174
H	-0.8406074864	 1.7318320826	 0.8744243946	 0.11823
H	-0.7813761241	-0.5100294836	-0.2934103641	 0.126756
H	 0.8090134056	-0.1298477654	-0.9429631387	 0.098142
H	 1.7530092699	-0.0348783717	 1.3769804921	 0.084865
H	-0.6951398457	-0.1825798389	 2.9982644808	 0.10042
H	-0.9178413603	-2.7860044757	 2.2567959083	 0.232094
H	 1.2847385551	-2.847227803	 0.6627039767	 0.099544
