19
gdb 26253	3.77241	1.13541	0.89033	1.8504	81.78	-0.1856	0.0357	0.2213	1332.7442	0.158921	-419.245762	-419.236201	-419.235256	-419.280387	33.754	
C	 0.0381318237	 1.381617071	 0.0487748917	-0.330361
N	-0.1571921929	-0.0564563399	-0.0246359776	-0.17037
C	 0.2070078351	-0.8277417884	 1.1509032115	-0.339593
C	-0.0610606859	-0.6265616798	-1.2620286705	 0.518682
N	-0.0178519554	-0.0261366765	-2.4160415756	-0.379182
C	-0.0082601415	-1.0788419523	-3.3301062396	-0.193933
C	-0.0301470472	-2.2661272051	-2.6893455115	 0.314447
C	-0.0186356674	-3.6934980585	-3.0868612512	-0.49401
O	-0.0617341137	-1.9817538564	-1.3266791439	-0.23994
H	 1.1030026404	 1.65718699	 0.0912874387	 0.115753
H	-0.4005142889	 1.8471475607	-0.8334367703	 0.16599
H	-0.4560876677	 1.7625376254	 0.9474536694	 0.119643
H	-0.2785924602	-0.3875358009	 2.026692632	 0.126433
H	-0.1356981821	-1.8565081797	 1.0432211728	 0.152318
H	 1.2940418817	-0.8377016009	 1.329705906	 0.116665
H	 0.0211209847	-0.8980966857	-4.3936168508	 0.112423
H	 0.8551888054	-4.2228018689	-2.6879441089	 0.133223
H	-0.9113978519	-4.2243386588	-2.7349158529	 0.133993
H	 0.0104291439	-3.7662026952	-4.1767867593	 0.137817
