19
gdb 8335	5.74959	1.27796	1.27152	2.2979	72.67	-0.2104	0.0796	0.29	1049.1196	0.165136	-365.015635	-365.007716	-365.006771	-365.048204	29.377	
C	 0.1317254437	 1.5476189144	 0.0548791485	-0.318929
N	-0.0028872115	 0.1111391454	 0.0970785457	-0.065915
C	-1.3004409202	-0.4698498631	 0.4890505449	-0.224397
C	-0.5470689606	-1.5470293729	 1.3008122964	 0.442658
C	-1.0427647562	-2.153461678	 2.6225109108	-0.358425
C	-0.9098316032	-3.5033376093	 1.8921454789	-0.070465
O	-0.450791002	-2.8479624503	 0.6908467466	-0.312938
C	 0.693459474	-0.6369796371	 1.1602139577	-0.224394
H	 1.1679172478	 1.8185048119	-0.1745226712	 0.120833
H	-0.503501628	 1.958606935	-0.7371261004	 0.120833
H	-0.1474887223	 2.0412338485	 1.0073102089	 0.083787
H	-1.9032909303	 0.186224212	 1.1411484642	 0.077988
H	-1.9203580316	-0.8285310087	-0.3396925171	 0.110108
H	-0.3761613735	-2.0094102343	 3.475353318	 0.111922
H	-2.0572355776	-1.8687808329	 2.9093202801	 0.111926
H	-0.1583437631	-4.1932740249	 2.2938210918	 0.103655
H	-1.8442727239	-4.0523834123	 1.7264623193	 0.10366
H	 1.6245362986	-1.1256665867	 0.8535455453	 0.110106
H	 0.8731350801	-0.0464911368	 2.0757102817	 0.077987
