21
gdb 106762	2.24194	1.44013	1.10432	2.5873	78.71	-0.2442	0.0574	0.3017	1197.6906	0.181514	-424.194111	-424.184616	-424.183672	-424.228267	36.235	
C	-0.0230167948	 1.5285992541	 0.0596679286	-0.495595
C	-0.0000469349	 0.0259972492	 0.0863346652	 0.288265
C	 1.2064782011	-0.7865256121	-0.3154833749	-0.377532
C	 0.6508035084	-0.9619218053	 1.0715530827	 0.25697
C	 1.3944932337	-0.7801617126	 2.3699219339	-0.185225
O	 1.7717231524	-2.0300082351	 2.9288026454	-0.417745
C	-0.5747580846	-1.8868945471	 0.9717760044	 0.093569
O	-1.242692986	-2.1279005001	 2.2002281418	-0.445542
C	-1.2495245255	-0.8687774359	 0.0005111464	-0.324592
H	 0.9534954344	 1.9479230878	 0.323268556	 0.120025
H	-0.2802138615	 1.9003555036	-0.9398932861	 0.123589
H	-0.7621752182	 1.934886067	 0.7602414198	 0.110837
H	 1.1234218433	-1.5849013086	-1.0517018373	 0.102574
H	 2.1394415937	-0.2322382541	-0.3715183441	 0.110734
H	 2.3166909461	-0.2098703192	 2.2184762104	 0.108791
H	 0.7795744921	-0.2081463823	 3.0851120436	 0.073742
H	 0.9460573012	-2.4978921171	 3.1054170591	 0.291611
H	-0.3734971031	-2.8809802537	 0.5611327345	 0.09185
H	-1.5401798077	-1.2818444962	 2.5534327949	 0.28171
H	-2.1274925003	-0.4162536608	 0.4748880242	 0.093994
H	-1.5411660097	-1.2278531515	-0.9927501287	 0.097968
