18
gdb 5846	3.23461	1.50984	1.33791	3.0189	64.75	-0.2638	0.0177	0.2815	1018.3984	0.149875	-422.110392	-422.100476	-422.099532	-422.145093	34.733	
C	-0.0374677793	 1.3417101827	 0.0498982675	-0.240036
O	 0.0270671242	-0.0866448384	-0.0375817744	-0.242339
C	 0.6533648253	-0.5673195875	-1.1364679564	 0.448999
O	 1.1287880163	 0.1292853575	-1.9898197622	-0.351725
C	 0.6552030236	-2.1036318998	-1.1124980389	 0.232122
C	 1.4169349194	-2.5963039324	 0.1308525611	-0.420422
C	-0.7954831715	-2.6178878401	-1.1231840181	-0.420514
O	 1.3307425406	-2.4904423922	-2.2975392397	-0.446598
H	 0.9667761456	 1.772413065	 0.0740623006	 0.141665
H	-0.5748195847	 1.7567340766	-0.8065474397	 0.141854
H	-0.5687968542	 1.5593986922	 0.9765490991	 0.131261
H	 0.9519697012	-2.2392363896	 1.0520770281	 0.133808
H	 1.4208342169	-3.6922944329	 0.1491916451	 0.106626
H	 2.4538248737	-2.2508470436	 0.0979366011	 0.133432
H	-1.3047770002	-2.2875966013	-2.0326276015	 0.133465
H	-0.7971065125	-3.713931229	-1.1077187294	 0.106643
H	-1.3522437532	-2.2615210781	-0.2540642957	 0.13382
H	 1.3476733988	-3.4530108491	-2.3126905866	 0.277941
