21
gdb 86589	3.45035	0.99597	0.8373	2.5405	84.08	-0.2298	-0.0143	0.2155	1442.7325	0.181459	-387.091543	-387.082176	-387.081232	-387.126484	34.599	
C	 0.0807407228	 1.6981163286	 0.2027732181	-0.405872
C	 0.0825743768	 0.184373008	 0.0462228446	-0.0838
C	 0.6116540816	-0.4853114902	-1.2622416988	-0.278147
C	 1.3972101441	-1.5474311684	-0.4214092854	-0.101828
C	 2.8062615781	-1.9232757248	-0.7831936971	 0.02552
C	 3.4214081214	-3.1889880704	-0.2418195169	-0.259884
C	 3.0795026866	-3.088098985	-1.7064888749	-0.278988
C	 1.1649464727	-0.6182099249	 0.7906292558	 0.372556
O	 1.7334312171	-0.460255086	 1.833002016	-0.304969
H	 1.0552121586	 2.1207478448	-0.0629793373	 0.119905
H	-0.6762035541	 2.1632727098	-0.4365615104	 0.118125
H	-0.129708359	 1.9765077162	 1.2397340142	 0.134421
H	-0.9007078635	-0.2291289908	 0.306504775	 0.099866
H	-0.1361515346	-0.8683967521	-1.95773988	 0.105145
H	 1.2944070212	 0.1766325743	-1.8032991334	 0.10901
H	 0.7860431449	-2.4509965301	-0.2945863783	 0.092586
H	 3.4793735336	-1.0748391778	-0.8771547212	 0.083577
H	 4.4652520634	-3.1655168922	 0.0493157926	 0.116348
H	 2.8029394289	-3.8237759743	 0.383668664	 0.114432
H	 2.2292830613	-3.6550687821	-2.0714143615	 0.109127
H	 3.8897291081	-2.9967185525	-2.421318845	 0.112871
