20
gdb 13214	4.77016	1.17745	1.13212	1.597	71.22	-0.2524	0.0718	0.3242	1156.1208	0.176641	-386.126949	-386.118164	-386.11722	-386.160565	32.083	
C	 0.0886453534	 1.548291687	 0.1252275532	-0.383238
C	-0.0560747219	 0.0358136745	-0.0525421368	-0.187984
C	 0.725020795	-0.5026356449	-1.2608052359	 0.113004
O	 2.1034016849	-0.1636774335	-1.1931464914	-0.439365
C	 0.5793174306	-2.0163753381	-1.3953883054	 0.137935
C	 1.3718223638	-2.7287610469	-2.5121390848	-0.295438
C	 2.017956341	-3.5176853985	-1.3588949309	-0.06506
O	 1.3616187307	-2.6903921086	-0.3676592589	-0.311622
H	 1.1423619227	 1.8232329224	 0.2162876991	 0.130589
H	-0.3220923716	 2.0881711805	-0.7356147901	 0.109845
H	-0.4390086824	 1.8941542332	 1.0191346292	 0.107839
H	 0.2964338029	-0.4874490988	 0.8459656682	 0.107642
H	-1.1139465159	-0.2324212891	-0.1717027596	 0.090269
H	 0.3444621238	-0.0353952167	-2.1798190361	 0.082626
H	 2.4694788325	-0.7496990579	-0.5163338592	 0.284013
H	-0.4777457379	-2.3091480492	-1.335882127	 0.071867
H	 0.7887643062	-3.3037938879	-3.2322010885	 0.107121
H	 2.0609634906	-2.0621221326	-3.0317022457	 0.127091
H	 1.6988078799	-4.5640907789	-1.2771240798	 0.104994
H	 3.1088617517	-3.469076586	-1.2729831296	 0.107874
