20
gdb 57960	3.71142	0.90233	0.78729	4.0081	76.84	-0.2535	0.0201	0.2736	1495.1718	0.16907	-440.276063	-440.266323	-440.265379	-440.311383	35.817	
C	-0.0277998942	 1.0083205819	-0.7502339601	-0.39072
C	-0.0451017592	-0.0641932704	 0.3477274309	 0.090266
O	 0.3812243657	 0.4747524413	 1.5736513742	-0.442365
C	-1.426437459	-0.6786185018	 0.4972060295	 0.389803
N	-2.0632016266	-0.5364266428	 1.5830183108	-0.558889
O	-1.8013115636	-1.3304828567	-0.6320344302	-0.2412
C	-3.0913101729	-1.8943848263	-0.6595202457	 0.110901
C	-3.2547227594	-3.0807424792	-1.5498237644	-0.290031
C	-3.302664985	-3.2522524687	-0.0457340913	-0.285261
H	 0.9762840152	 1.4342889692	-0.8175383788	 0.127192
H	-0.3008226252	 0.5849656091	-1.7202958525	 0.120028
H	-0.725705148	 1.8131583532	-0.5000185487	 0.120725
H	 0.6334951897	-0.8791974519	 0.047965988	 0.089381
H	-0.3716951015	 0.3706246911	 2.177647531	 0.29302
H	-2.9701490001	-0.9963392912	 1.5934514177	 0.230401
H	-3.8862870183	-1.1550805181	-0.6047674161	 0.112668
H	-4.1726392084	-3.1698239821	-2.1188066945	 0.125903
H	-2.3637781584	-3.4270208921	-2.0604177997	 0.136186
H	-2.4441018576	-3.7138494854	 0.4278970412	 0.136821
H	-4.2542617333	-3.461535279	 0.4302056088	 0.125172
