18
gdb 115556	2.73388	1.08404	1.02324	2.4068	72.87	-0.246	0.0196	0.2656	1245.13	0.148561	-435.236848	-435.227531	-435.226587	-435.271318	33.987	
N	 0.0182214566	 1.5247966473	-0.0222550834	-0.543699
C	-0.000043749	 0.0666943123	-0.0573562285	 0.110277
C	-0.0076255766	-0.5539288569	 1.3734229171	-0.183724
N	-1.4488887852	-0.8722660525	 1.2449013047	-0.333554
C	-1.4356455895	-0.5627903988	-0.2091915336	 0.004185
C	-2.6087924358	 0.3284378773	-0.6079287086	-0.07824
O	-3.8176424063	-0.287590899	-0.2000638107	-0.42091
C	 1.0042503771	-0.4968760596	-0.9676469196	 0.225499
N	 1.803122451	-0.9067265761	-1.6974713478	-0.342884
H	 0.9127723329	 1.8444244911	 0.3399008879	 0.24485
H	-0.062870292	 1.9042163323	-0.9619659209	 0.246494
H	 0.6524507172	-1.4221983177	 1.4667371772	 0.121116
H	 0.2198511331	 0.1646286971	 2.1671957151	 0.121159
H	-1.6714770003	-1.8377802904	 1.4552914054	 0.232663
H	-1.4104751667	-1.4556748796	-0.8438696906	 0.090769
H	-2.4868549254	 1.3198510711	-0.1553070294	 0.111101
H	-2.6608609944	 0.442243836	-1.6961002493	 0.107436
H	-3.7562816067	-0.3564100539	 0.7612019651	 0.287461
