16
gdb 74470	2.943	1.51323	1.086	3.6086	73.08	-0.22	0.0035	0.2235	1085.997	0.126129	-434.118041	-434.110191	-434.109247	-434.150139	30.525	
N	 0.0075951491	 1.3471589304	 0.1428856077	-0.586146
C	-0.0396729493	-0.0250719087	 0.0316148054	 0.407815
N	-1.1071928633	-0.7401675742	 0.0197805766	-0.371634
C	-0.6496501069	-2.1021954093	-0.0036521003	 0.223971
C	-1.3892274404	-3.2051684747	 0.7305389836	-0.299809
C	-1.4030640857	-3.1773085379	-0.7634905555	-0.298638
C	 0.8512973841	-2.1077806927	-0.0130754624	 0.386794
O	 1.6367890298	-3.0260299079	-0.0116023767	-0.382191
N	 1.1554814838	-0.7452535005	-0.0173645982	-0.39903
H	 0.7196035298	 1.8030221049	-0.4111914821	 0.254826
H	-0.9046865907	 1.7642314382	 0.0149152316	 0.267537
H	-0.7725534271	-3.9477340758	 1.2246363119	 0.136735
H	-2.2819205783	-2.8951240882	 1.2601696912	 0.130564
H	-2.3058089209	-2.8491336034	-1.2645049967	 0.129752
H	-0.7969476053	-3.9018641441	-1.2960775313	 0.135661
H	 2.0846237813	-0.3791780661	 0.1128545253	 0.263793
