20
gdb 83327	2.00892	1.77375	1.66292	2.1454	79.42	-0.2311	0.005	0.236	1013.2731	0.170979	-403.143561	-403.134981	-403.134037	-403.176117	33.306	
C	 0.0106763189	 1.4632588794	-0.1578101173	-0.34768
N	-0.0011929837	 0.0114851307	 0.0264751525	-0.117342
C	-1.2489361729	-0.5403447848	 0.682885622	-0.10698
C	-0.9673386128	-2.0453358993	 0.6209758545	-0.223776
C	 0.5388680232	-2.0293627979	 1.0487760151	-0.249671
C	 0.7440854319	-0.518551232	 1.2550712664	 0.223693
C	 2.1067960007	 0.0106866269	 1.6027555995	-0.508334
C	-0.5515518075	-0.0865214636	 1.9820135239	 0.366185
O	-0.8063062844	 0.6587388135	 2.8857229141	-0.334648
H	 1.0108531509	 1.7723372081	-0.4733962671	 0.127893
H	-0.6864250008	 1.7142633893	-0.9624473308	 0.127137
H	-0.2684321974	 2.0441958994	 0.7361540308	 0.127142
H	-2.2110582432	-0.1499600067	 0.3559819734	 0.08719
H	-1.603111802	-2.6131509526	 1.3050706158	 0.108585
H	-1.1046868845	-2.4325022696	-0.3906544955	 0.111244
H	 0.7317308277	-2.5930337331	 1.9657741786	 0.105491
H	 1.1958161711	-2.4069129061	 0.2613869767	 0.107585
H	 2.8235689338	-0.1917565948	 0.79982248	 0.127766
H	 2.085991441	 1.0871248301	 1.7932624851	 0.134282
H	 2.4722939999	-0.4787161372	 2.5106871622	 0.134237
