15
gdb 17593	2.75429	2.52864	1.86708	2.5213	60.61	-0.2153	0.0701	0.2854	759.3456	0.118879	-399.719744	-399.712839	-399.711894	-399.750348	27.467	
O	 0.0018991274	 1.375634361	 0.0670376275	-0.456353
C	 0.0220941418	-0.0003024278	 0.0056267809	 0.346004
C	-0.2922094191	-0.8209226859	 1.228004859	-0.37089
C	-1.1550654149	-1.0298902758	 0.0121836573	 0.346005
O	-2.5156500077	-0.8263050907	 0.0810608564	-0.456353
C	-0.4314340004	-1.8088202213	-1.0527954606	-0.143384
N	-0.2545645986	-0.8858732264	-2.2135027046	-0.366181
C	 0.6910168236	-0.8270856281	-1.0590447315	-0.143381
H	-0.2669337425	 1.6960778902	-0.8025959023	 0.291581
H	 0.3816623637	-1.5890112473	 1.6001912491	 0.106767
H	-0.7920996287	-0.2444581512	 2.0006793646	 0.133436
H	-2.8029403722	-0.5220553493	-0.7884873794	 0.291581
H	-0.3615746077	-2.882962219	-1.1822762321	 0.097427
H	 0.2064783343	-1.4177112784	-2.9541017763	 0.226316
H	 1.7454579309	-1.04007812	-1.1940076778	 0.097427
