15
gdb 12213	4.09558	1.50964	1.18712	5.7018	64.73	-0.2551	-0.0374	0.2176	993.299	0.118111	-399.844672	-399.836729	-399.835785	-399.877417	27.556	
C	-0.1225342008	 1.5877537008	 0.0074766508	-0.405188
C	-0.0056589701	 0.0689978211	-0.0237363248	-0.140499
C	 0.7948189362	-0.5862366225	-1.190156596	-0.196196
N	 1.7242325967	-1.1368468799	-0.1828320708	-0.128292
C	 2.8510912387	-1.9257739437	-0.3278535669	 0.153147
O	 3.5472922736	-2.3140951625	 0.572384398	-0.266882
C	 1.0528443924	-0.5462646658	 0.9157038286	 0.434219
O	 1.2731030816	-0.5421985213	 2.0871931882	-0.314257
H	 0.8491618601	 2.0638148243	-0.1587735037	 0.129787
H	-0.8141680028	 1.944223078	-0.7617104325	 0.127224
H	-0.494765247	 1.9169112861	 0.981553835	 0.147515
H	-0.981911704	-0.4010765188	 0.1271282868	 0.117403
H	 0.2617258817	-1.3513107077	-1.7599032351	 0.1286
H	 1.2681635809	 0.1254470916	-1.8725430745	 0.127436
H	 3.0358451728	-2.1613489397	-1.3960781631	 0.085983
