21
gdb 122367	5.02562	0.70989	0.69711	2.6775	80.44	-0.2353	0.0822	0.3175	1709.0993	0.181313	-424.141308	-424.132189	-424.131244	-424.176528	33.362	
C	-1.0972609934	 1.0306685924	-0.5460508732	-0.384473
C	 0.0003640503	 0.1034439214	-0.0526449026	-0.023816
O	 0.5930746489	-0.5280507688	-1.1694849874	-0.244584
C	 1.6343955556	-1.4173327137	-0.8225318055	-0.115743
C	 2.2234360263	-1.9555332334	-2.1103744442	 0.034656
C	 3.0950324762	-3.2410337029	-2.1831813684	 0.023824
C	 1.8486403453	-4.1329439868	-1.9628190897	-0.232161
C	 1.5124092643	-3.0238591857	-2.9880257981	 0.051735
O	 2.8211033725	-3.2873912407	-3.6383903984	-0.310849
H	-0.6852276294	 1.7885153018	-1.2183125651	 0.128016
H	-1.8590710638	 0.4669564696	-1.0919629355	 0.126638
H	-1.5767530614	 1.5369005087	 0.2970410529	 0.114882
H	 0.7615926717	 0.6691727497	 0.5115358602	 0.085459
H	-0.4122675881	-0.6525420186	 0.6375477286	 0.084048
H	 2.4188258975	-0.8883701264	-0.2528441907	 0.087393
H	 1.2521221767	-2.2161271567	-0.1679520285	 0.086158
H	 2.6348501807	-1.146700003	-2.7184956347	 0.091152
H	 4.1260153404	-3.39649601	-1.86263878	 0.092284
H	 1.9290291111	-5.1331540007	-2.3892958413	 0.109937
H	 1.3529197295	-4.1297714546	-0.9904372146	 0.09776
H	 0.6425835992	-2.9148456016	-3.6350252738	 0.097683
