20
gdb 81174	2.83894	1.21792	1.02022	3.5547	82.21	-0.2551	0.0224	0.2775	1245.1419	0.170827	-403.099476	-403.09074	-403.089796	-403.133796	32.829	
C	-0.2328901875	 1.5879201149	-0.1777601057	-0.452793
C	-0.0259445328	 0.085972231	-0.0668498263	 0.00732
C	 1.219900856	-0.6352957666	-0.6818885866	-0.074709
C	 2.0972751938	-0.0710654836	 0.4755334952	-0.293968
C	 0.765183171	-0.5705882711	 1.1144024937	 0.414202
C	 0.8934107772	-1.8403160113	 0.2514777753	-0.273899
O	 0.3960656266	-0.6159847608	 2.4613800588	-0.236777
C	 0.6741715277	 0.459882279	 3.2281488963	 0.103543
N	 0.2529861494	 0.5082539191	 4.4168349392	-0.442979
H	 0.6760396563	 2.17127783	-0.0080934308	 0.116159
H	-0.6052553613	 1.8464011351	-1.1749327579	 0.123884
H	-0.9843480921	 1.9237446581	 0.5453418179	 0.129259
H	-0.9654598701	-0.4362745256	-0.2788428022	 0.073874
H	 1.491032635	-0.6816539478	-1.7335229611	 0.086691
H	 2.9915295242	-0.6459596456	 0.7277405666	 0.10301
H	 2.3051518249	 0.998947314	 0.4714562739	 0.098483
H	-0.0303064374	-2.3863805164	 0.0469386383	 0.101321
H	 1.7223720236	-2.5088935127	 0.493557847	 0.098941
H	 1.2824818168	 1.2165117285	 2.7183847858	 0.090172
H	 0.5674636987	 1.370136032	 4.8581827424	 0.228267
