17
gdb 90517	4.76263	0.89689	0.88546	3.5832	72.81	-0.2536	0.0211	0.2748	1316.7997	0.135656	-417.955545	-417.947209	-417.946265	-417.989198	31.036	
O	 0.2771190455	 1.3313106391	 0.1401127882	-0.432274
C	 0.09003767	-0.0566858913	 0.0128549788	 0.141738
C	 0.2784709769	-0.889302061	 1.3236283905	-0.29678
C	-1.208023014	-1.2885825005	 1.260397435	-0.041524
C	-1.3949402226	-0.4967542794	-0.0191649904	-0.112823
N	-1.5736870656	-1.9314399438	 0.0159478	-0.075487
C	-0.6900106975	-2.8449273169	-0.7021678557	-0.288825
C	-0.823779154	-4.2041344139	-0.167790822	 0.281943
N	-0.908248404	-5.2747313579	 0.2567452174	-0.300099
H	-0.2677140672	 1.6454701527	 0.8709265822	 0.283061
H	 0.6987509109	-0.3509576698	-0.8470424291	 0.092765
H	 1.0136099304	-1.7000374659	 1.3314026992	 0.112993
H	 0.4956399931	-0.2220729842	 2.1616482991	 0.11377
H	-1.8740686358	-1.4183202616	 2.106051437	 0.109406
H	-2.2173355737	 0.1235968247	-0.3631204333	 0.106097
H	-0.9943537557	-2.8515881576	-1.7545585186	 0.161689
H	 0.3774241632	-2.5819120627	-0.6785488182	 0.14435
