16
gdb 10167	3.72418	1.36317	1.05921	1.2058	65.25	-0.2541	-0.0384	0.2157	1073.1092	0.130988	-417.082444	-417.074285	-417.073341	-417.115397	29.074	
O	 0.9476680161	-0.1929371939	-1.0565341789	-0.421633
C	 0.011777942	 0.4526887038	-0.2385060564	-0.045602
C	-1.3390802385	-0.2836200414	-0.1346982902	-0.203448
N	-2.3450897954	 0.0873417005	-1.141254813	-0.066451
C	-2.1698237004	-0.1921328479	-2.4860285692	 0.115241
N	-1.0786656281	-0.6651604276	-2.9427521245	-0.48352
C	-3.5429080605	 0.6748178969	-0.7450983506	 0.166041
O	-4.4367208576	 0.9994366493	-1.4870907285	-0.307818
H	 0.4770211262	-0.4286292517	-1.8779064095	 0.300084
H	 0.4460801322	 0.4916921918	 0.7678022974	 0.107843
H	-0.1812615156	 1.4958053055	-0.5457278826	 0.08385
H	-1.1499856189	-1.3603955382	-0.1989262483	 0.140146
H	-1.7972892895	-0.076560093	 0.836779944	 0.117226
H	-3.0624236463	 0.0400109757	-3.0671257945	 0.154133
H	-1.1424752358	-0.8200462753	-3.9456742869	 0.244107
H	-3.5825971398	 0.8140593256	 0.3499851117	 0.0998
