18
gdb 102155	2.28304	1.14845	0.83248	3.7455	73.57	-0.2541	-0.0376	0.2165	1377.5281	0.143991	-439.104337	-439.093889	-439.092945	-439.140832	35.472	
C	 0.0893058032	 1.4105019923	 0.1641602609	-0.248352
O	 0.0445152062	 0.0107750499	-0.0603946679	-0.22291
C	-1.2274178253	-0.5562594831	-0.0049239986	 0.018179
C	-1.1219776398	-1.9369889497	-0.6901125001	-0.370754
C	-0.7933914653	-1.8163141036	-2.1081908585	 0.278781
N	-0.5575472556	-1.7225254153	-3.2349958134	-0.301868
C	-1.7598237717	-0.7061197579	 1.4407233301	 0.356974
C	-3.164267818	-1.2640563567	 1.6020022021	-0.488254
O	-1.0840138266	-0.3790832392	 2.38404732	-0.279914
H	 1.1241384407	 1.7170860642	 0.0009918661	 0.13919
H	-0.5553268628	 1.9448842295	-0.5495040062	 0.110058
H	-0.2058757981	 1.6657986133	 1.1870056892	 0.13462
H	-1.9625068419	 0.0548450891	-0.5594144247	 0.096773
H	-0.3369610558	-2.5115902526	-0.1868532889	 0.17419
H	-2.0591883594	-2.4929707196	-0.5942521318	 0.154465
H	-3.8304763253	-0.9516348636	 0.7921552186	 0.137733
H	-3.1276083171	-2.3601083933	 1.5946842918	 0.154851
H	-3.5682008174	-0.9478410238	 2.5648389512	 0.156239
