14
gdb 19393	3.34094	2.29744	1.63438	3.2016	62.62	-0.2524	-0.0238	0.2286	781.8468	0.108024	-378.665285	-378.658752	-378.657808	-378.695937	24.732	
O	 0.0348201708	 0.054163461	-0.1095360882	-0.310686
C	 0.01040325	 1.2383430816	 0.0236180614	 0.344267
N	-1.1232329261	 2.1573682303	-0.0190865618	-0.18821
C	-1.0132983679	 3.0161540168	 1.2022368889	-0.247352
C	-0.1110180006	 3.3164965299	 0.0843470535	-0.111711
C	 1.0465240778	 2.3404900037	 0.0863071026	 0.238552
C	 2.3914994911	 2.3285486785	 0.7117172034	-0.296633
N	 2.2377495003	 2.408416765	-0.7458304943	-0.363481
H	-1.8953112734	 3.6316709747	 1.3452691471	 0.144534
H	-0.6128639662	 2.5749821488	 2.111899682	 0.134491
H	-0.2048350594	 4.1724102867	-0.5709769126	 0.131545
H	 2.7671941221	 3.2332787107	 1.1808940249	 0.133795
H	 2.7243506759	 1.3949326873	 1.1579198634	 0.136266
H	 2.4030074558	 1.500515345	-1.1771980703	 0.254624
