11
gdb 204	9.29377	3.53254	2.60086	1.3204	47.12	-0.2395	0.0074	0.2468	485.0096	0.086195	-285.326726	-285.321574	-285.32063	-285.355221	18.123	
C	-0.0115450038	 1.5002632076	 0.0434035852	-0.487794
C	 0.0026838551	 0.0110236792	-0.0272936283	 0.256376
C	-0.0774680933	-0.8100816436	-1.102477516	-0.107519
O	-0.0226615477	-2.1069819008	-0.6642472285	-0.138787
C	 0.0896683237	-1.9935324196	 0.6764717629	 0.076911
N	 0.1107441581	-0.7806298966	 1.1186867263	-0.298087
H	 0.9068365528	 1.8773315888	 0.5052723796	 0.140804
H	-0.1019742959	 1.9406459979	-0.9528066151	 0.124262
H	-0.8489191874	 1.8534988807	 0.6541083353	 0.140802
H	-0.1696517169	-0.6658941423	-2.1650236938	 0.143671
H	 0.1497966653	-2.9130275314	 1.2375538624	 0.149362
