21
gdb 5964	3.1906	1.14138	1.04784	4.1225	79.01	-0.3095	0.0443	0.3538	1258.1635	0.186916	-329.15972	-329.149725	-329.148781	-329.194249	36.188	
C	-0.077877173	 1.6418113919	 0.0114786326	-0.380726
C	 0.0280933389	 0.1129505418	 0.0023525626	-0.197352
C	-1.3547555539	-0.5509026663	 0.0121941873	-0.171862
C	-1.3663006533	-2.1084110866	 0.0038740035	 0.073615
C	-0.7109148811	-2.6815277733	-1.2732071188	-0.405339
C	-0.6868361625	-2.6952895701	 1.2619570716	-0.405342
C	-2.7807696929	-2.5243059286	 0.0151524265	 0.267262
N	-3.8914217238	-2.8454107096	 0.0234526977	-0.345577
H	 0.9125829034	 2.106535918	 0.0043860747	 0.115923
H	-0.6245745197	 2.0062497886	-0.8649587135	 0.119539
H	-0.6075238042	 1.9968777319	 0.9021171477	 0.119537
H	 0.5925344066	-0.2026083111	-0.8826548267	 0.10373
H	 0.6094892557	-0.2119127487	 0.872894909	 0.103726
H	-1.908889657	-0.2116716323	 0.8959241623	 0.111597
H	-1.9258761632	-0.2022052352	-0.8569172696	 0.111609
H	 0.355299707	-2.4421287069	-1.2902652222	 0.125035
H	-0.8148208647	-3.7693081719	-1.3058386676	 0.133335
H	-1.1743628275	-2.2679284491	-2.1731636567	 0.13147
H	-1.1329057331	-2.2913676783	 2.1749957288	 0.131459
H	-0.790395222	-3.7833507882	 1.284854694	 0.133338
H	 0.3795678704	-2.456147086	 1.2611957067	 0.125022
