16
gdb 47193	2.24315	1.70967	1.00824	4.0081	73.66	-0.2567	-0.0614	0.1952	1120.6018	0.126625	-437.963122	-437.955449	-437.954505	-437.995853	28.714	
O	 0.018479142	-0.0629425852	 0.3945168831	-0.334592
C	-0.0262185918	 1.1274980663	 0.1718887585	 0.393174
C	-1.3316504248	 1.8525270348	-0.0803577408	-0.30915
C	-1.5532836247	 3.1287348463	 0.7431238577	-0.277754
C	-0.7174936749	 4.2953346131	 0.3035799974	-0.070861
C	 0.54472849	 4.277146405	-0.1330990831	-0.114677
C	 1.5233600014	 3.1685373233	-0.1767738274	 0.38825
O	 2.6961664098	 3.4055367052	-0.3969865213	-0.343803
N	 1.1644142498	 1.8449929623	 0.1039583374	-0.374421
H	-1.3858710621	 2.100483532	-1.1478278951	 0.134916
H	-2.1132964896	 1.1206397527	 0.1296126939	 0.139377
H	-2.6089791641	 3.4075532183	 0.6669167061	 0.125104
H	-1.3799808518	 2.9252853568	 1.8094895454	 0.140297
H	-1.2075966101	 5.2658448345	 0.3414957527	 0.116306
H	 1.0193613514	 5.2061992478	-0.4306973938	 0.124036
H	 1.9794500995	 1.2444764068	 0.1644956692	 0.263798
