19
gdb 78951	2.44253	2.09391	1.54656	1.637	77.02	-0.2314	0.0826	0.314	932.0593	0.159985	-385.820339	-385.813027	-385.812083	-385.851526	30.37	
C	-0.0087983525	 1.4958043295	 0.0110073808	-0.519327
C	 0.0792588463	-0.0071825344	-0.0176309416	 0.297024
C	-1.1480879715	-0.8519402535	 0.4215888919	-0.135704
C	-0.5715291152	-2.2736354871	 0.3247711551	-0.094475
C	-0.440018373	-1.4759444171	 1.6013655485	-0.099848
C	 0.884152231	-0.9004080446	 1.0128285775	-0.110805
C	 0.8646077577	-1.9575858994	-0.1572794537	-0.112689
C	 0.7405272603	-0.8018048577	-1.1767287142	 0.111471
O	 0.0597702226	-0.9839346348	-2.3903074018	-0.446121
H	 0.9744236685	 1.9549034908	-0.1389252082	 0.114867
H	-0.6702570518	 1.8608961885	-0.7837615186	 0.122448
H	-0.4069404055	 1.855065373	 0.9667226514	 0.116947
H	-2.2013287587	-0.6306698116	 0.3016887076	 0.083054
H	-1.1832821597	-3.1454558754	 0.132631496	 0.087135
H	-0.7820549458	-1.6841946991	 2.6061924666	 0.088137
H	 1.7751980347	-0.5761048382	 1.5436150424	 0.068022
H	 1.5803087976	-2.7711688114	-0.2629919193	 0.064135
H	 1.7226605041	-0.3833159926	-1.4237447154	 0.083486
H	-0.7964854691	-1.3723192447	-2.1761371948	 0.282244
