12
gdb 6060	5.6948	0.87853	0.76739	1.0071	62.97	-0.2673	-0.0609	0.2063	1357.8921	0.082453	-414.688052	-414.679052	-414.678108	-414.724261	29.707	
N	-0.0426066213	 1.3138090547	-0.1181770621	-0.518106
C	 0.0670287736	-0.026542978	 0.0934201003	 0.270242
O	 1.1201780821	-0.6067636781	 0.2667838353	-0.328175
C	-1.2165346414	-0.7248658364	 0.0857197038	 0.027425
C	-2.2470197394	-1.3504718879	 0.0922528163	 0.027429
C	-3.5302736163	-2.0489655092	 0.1170646732	 0.270242
N	-3.4248037684	-3.3870382746	-0.11047649	-0.518106
O	-4.579886649	-1.4706812955	 0.3163997783	-0.328175
H	 0.7953681009	 1.8719749491	-0.095652822	 0.271911
H	-0.9382101367	 1.7628876976	-0.2013533143	 0.276701
H	-2.5309839559	-3.8351388769	-0.2152991748	 0.276701
H	-4.2622545782	-3.9454915248	-0.077850984	 0.271911
