20
gdb 50084	2.6915	1.21305	1.03033	3.7346	80.25	-0.2477	0.0086	0.2563	1239.3236	0.171392	-403.12849	-403.119836	-403.118892	-403.162372	32.079	
O	-0.2517511272	 0.5890871352	-0.1398462307	-0.305789
C	 0.0577407857	 1.6931759639	 0.243795046	 0.138245
N	 1.3399940645	 2.0946966845	 0.5392195738	-0.05053
C	 2.5489423224	 1.7061664522	-0.136594716	-0.249408
C	 2.1737547117	 3.1606338385	 0.0124779876	-0.051679
C	 1.7934640834	 3.9995075002	-1.1824016222	 0.036618
C	 1.0595782502	 3.3974811252	-2.4151924429	-0.261107
C	 0.2634150984	 4.7267314414	-2.5340496974	-0.21121
C	 0.6535231271	 5.0562708696	-1.0678998502	-0.236907
H	-0.683737174	 2.479993614	 0.4804757764	 0.083544
H	 3.3339304153	 1.28035741	 0.4826394007	 0.127217
H	 2.4351143305	 1.2534815072	-1.1187848571	 0.138165
H	 2.6892657845	 3.7210141096	 0.7931895784	 0.101184
H	 2.7100935341	 4.4996597193	-1.5185043399	 0.085463
H	 1.6786782744	 3.0951554706	-3.262834947	 0.102547
H	 0.4084682334	 2.5604102903	-2.1502943087	 0.134319
H	 0.7291058268	 5.4168187541	-3.2430127703	 0.106248
H	-0.8004482134	 4.6549110052	-2.7679412492	 0.105579
H	-0.1199006615	 4.7377341764	-0.362596701	 0.10646
H	 0.9376713235	 6.0838777123	-0.8291544104	 0.101041
