18
gdb 117434	6.51684	0.55863	0.52116	4.2863	74.84	-0.2666	-0.031	0.2355	2031.4894	0.144194	-439.102835	-439.092299	-439.091355	-439.141479	34.64	
C	 0.0252149837	 1.4282242817	-0.0703370414	-0.22899
O	-0.003519167	 0.0205355754	 0.0118824018	-0.210927
C	 0.6134938536	-0.5982624921	-1.0714099836	-0.147064
C	 0.5475421549	-2.1144733739	-0.9221674296	 0.345995
O	 0.0222105103	-2.6575208833	 0.0164161612	-0.271347
C	 1.1994407767	-2.9028445078	-2.0551590464	-0.309561
C	 1.0800185154	-4.4173949852	-1.8252430773	-0.338793
C	 1.7008434972	-5.1845211771	-2.9013720201	 0.254182
N	 2.1966683172	-5.7762857754	-3.7611863274	-0.303107
H	 1.05606378	 1.815085639	-0.0911392601	 0.108777
H	-0.4991669478	 1.7956948829	-0.9662902438	 0.10878
H	-0.4797661706	 1.8115772468	 0.8185668647	 0.139198
H	 0.1381134816	-0.3245297316	-2.0325429609	 0.10967
H	 1.6764837958	-0.3057889841	-1.1671471763	 0.109569
H	 0.7344545284	-2.6183187528	-3.0068190194	 0.146686
H	 2.2520977398	-2.6068833947	-2.1402914996	 0.146979
H	 1.5439796403	-4.6886209802	-0.8721892744	 0.17009
H	 0.0267156507	-4.7007988479	-1.7390698274	 0.169863
