19
gdb 22546	2.1639	1.08881	0.88226	1.7992	76.77	-0.2315	-0.0379	0.1935	1389.4604	0.15552	-456.30191	-456.291208	-456.290264	-456.338623	37.026	
C	 0.5377158744	 1.1842328674	-0.3350712137	-0.315956
N	-0.300115178	 0.1633648643	 0.2745762494	-0.29004
C	 0.3102288325	-0.5533273101	 1.3678643272	-0.141498
C	-0.7523278092	-0.9998216155	 2.3683170081	 0.150247
O	-1.9010549803	-0.6417071221	 2.3290759207	-0.254437
C	 1.1170689987	-1.757362964	 0.9042297971	 0.364101
C	 0.4958028187	-2.7412350465	-0.0442396409	-0.47688
N	 2.2931359398	-1.8465903211	 1.3985029985	-0.17494
O	 2.9514918201	-3.0051237029	 0.967292846	-0.39333
H	 1.4205051209	 0.7200110172	-0.7875485407	 0.128718
H	-0.0209457981	 1.6831110349	-1.1317556163	 0.123306
H	 0.894203436	 1.9536895979	 0.3723352428	 0.099593
H	-1.1943875539	 0.5302648124	 0.5819049332	 0.237106
H	 1.0064527776	 0.0595662014	 1.9756515547	 0.098747
H	-0.3719177709	-1.6713862888	 3.1662361957	 0.102989
H	-0.4112870792	-2.3193501765	-0.4779077017	 0.144781
H	 1.1997609687	-2.9976697814	-0.8403671789	 0.148489
H	 0.2561791977	-3.6767151905	 0.4750025434	 0.141111
H	 3.8190591946	-2.910485576	 1.3750531253	 0.307891
