19
gdb 98482	2.38023	1.28913	0.95843	3.2741	73.11	-0.2557	-0.0274	0.2283	1266.6404	0.156248	-460.150875	-460.141122	-460.140178	-460.185743	35.365	
C	 0.7272138123	 0.0872934796	 0.9323542006	-0.257672
O	-0.1327451531	 0.0544027081	-0.1976111635	-0.283982
C	-1.2923015488	-0.7023446976	-0.032890017	 0.30518
C	-1.6148663479	-1.6769532592	-1.1555526685	-0.282522
C	-1.1978965915	-2.2016558796	 0.1818234565	-0.310089
C	-2.4719598441	 0.0145251073	 0.5374823435	 0.287771
O	-3.5011147181	-0.5643390198	 0.8347326425	-0.351572
C	-2.406920878	 1.5298214306	 0.6778157398	-0.135636
O	-3.6199651036	 2.0362897554	 1.1488614887	-0.424855
H	 1.5594949917	 0.7436780726	 0.6703459685	 0.136509
H	 0.2257013478	 0.4869467705	 1.823894152	 0.115479
H	 1.1184815594	-0.9093998409	 1.1731567975	 0.116289
H	-2.6555171786	-1.7641911098	-1.4437794496	 0.139149
H	-0.8895819018	-1.6969291893	-1.9602935098	 0.135131
H	-0.1997288435	-2.6129910973	 0.2747711445	 0.127783
H	-1.955768402	-2.641308188	 0.8191777307	 0.145617
H	-1.577928234	 1.7946782932	 1.35220404	 0.117098
H	-2.1402955426	 1.9503581804	-0.3049817496	 0.127728
H	-4.1911768136	 1.2585062538	 1.2584291232	 0.292594
