14
gdb 3523	5.91977	2.56829	2.27334	2.6564	57.9	-0.2372	0.0778	0.315	615.0009	0.114122	-324.461004	-324.455481	-324.454537	-324.490018	21.923	
C	 0.0090498722	 1.5574710042	-0.0102913735	-0.346093
N	 1.2469185383	 0.7256723514	 0.0529148049	-0.389699
C	-0.0369188952	 0.0888597504	 0.0119116314	 0.469572
C	-0.5881954069	-1.0306109542	 0.9082332849	-0.038034
C	-1.8650160936	-1.0564256994	 0.0309993479	-0.216777
C	-0.626115639	-1.0008308106	-0.898033989	-0.055338
O	 0.0251055923	-2.0117545925	-0.0275672974	-0.313064
H	-0.1884750225	 2.1395605407	 0.8856828067	 0.125361
H	-0.2321212827	 2.064273923	-0.941972605	 0.115963
H	 1.7117500412	 0.6911835662	-0.8509064084	 0.236976
H	-0.4640268623	-1.2023458114	 1.9763359811	 0.103864
H	-2.3850328832	-2.0143209683	 0.0247423926	 0.111203
H	-2.5348651632	-0.193461849	 0.0589311804	 0.100237
H	-0.5535632455	-1.1376317906	-1.9775543665	 0.095827
