16
gdb 44254	2.97112	1.50658	1.19673	2.8835	68.81	-0.2486	-0.0347	0.2139	1022.4901	0.125875	-437.938128	-437.930715	-437.929771	-437.970532	28.095	
O	-0.4050454187	 0.4482270298	-0.9437861938	-0.2874
C	-0.2209512528	 1.3949249001	-0.2384590936	 0.402287
C	-1.1204161991	 2.2718888756	 0.6483086544	-0.350433
C	 0.0750750219	 3.2687796428	 0.7625213003	-0.158663
C	 1.0282562557	 2.2603286813	 0.0587410072	-0.149723
C	 1.6430374988	 2.9820476931	-1.1550689143	-0.187942
N	 0.7959208211	 4.1558859502	-1.2802622669	-0.306193
C	-0.028595173	 4.4374324021	-0.2210686757	 0.405844
O	-0.7270900687	 5.4200355819	-0.107097552	-0.378488
H	-2.0451162965	 2.6428323676	 0.1987104239	 0.150107
H	-1.3653260814	 1.7761106217	 1.5932910146	 0.138694
H	 0.3122016553	 3.6267840569	 1.7633214573	 0.106413
H	 1.7680589397	 1.7434381384	 0.6726641222	 0.109698
H	 2.6913715754	 3.2551365238	-0.9772287179	 0.114766
H	 1.6039913506	 2.3523750218	-2.0508969633	 0.135257
H	 0.9041795417	 4.8324504328	-2.0196309123	 0.255777
