21
gdb 109357	2.66373	1.30548	0.95984	3.196	86.47	-0.2348	-0.0435	0.1913	1296.1131	0.183451	-387.144636	-387.135668	-387.134724	-387.178491	33.917	
C	-0.1825232827	 1.5447052059	 0.0043572557	-0.375699
C	 0.0553815062	 0.0248582068	 0.0175066559	-0.274199
C	 0.7768883181	-0.4747734433	-1.2106203483	 0.215523
C	 2.0658227101	-0.8550109645	-1.2009440125	-0.142632
C	 2.8202044259	-1.3766164035	-2.3917043259	-0.249499
C	 1.8793272913	-1.8922971283	-3.486136532	-0.220621
C	 0.7595532545	-0.8809502467	-3.7487469515	-0.301
C	-0.0042780706	-0.5231886823	-2.4796598211	 0.332158
O	-1.1912222682	-0.2572700548	-2.5062060751	-0.331831
H	 0.7652588103	 2.0910632055	-0.0453029876	 0.107903
H	-0.7916693009	 1.8314793178	-0.8560264565	 0.140689
H	-0.7069137877	 1.8599459117	 0.9117995738	 0.111498
H	 0.6298143044	-0.2521218108	 0.9082980763	 0.092116
H	-0.9140023669	-0.4805775331	 0.0818863434	 0.120467
H	 2.6228217937	-0.7844321322	-0.267153644	 0.094531
H	 3.4585560769	-0.5718699609	-2.7901824956	 0.117978
H	 3.5124575614	-2.1644836785	-2.0720586099	 0.110455
H	 2.4346133394	-2.1003590572	-4.4063480756	 0.101295
H	 1.4381576168	-2.8418953718	-3.1588017553	 0.110331
H	 1.1897586304	 0.0534657559	-4.1393937731	 0.120124
H	 0.0381890377	-1.2334786858	-4.4902668011	 0.120411
