14
gdb 25264	3.40935	1.75571	1.16745	3.2787	69.93	-0.2416	-0.0196	0.222	962.2622	0.104991	-432.914595	-432.908181	-432.907237	-432.945586	24.559	
N	-0.0893799878	 1.3127525467	 0.0096881941	-0.563706
C	-0.0183362933	 0.0581942183	 0.0028684416	 0.499698
O	 1.0998391609	-0.7244444197	-0.0064241618	-0.267528
C	 0.7645583384	-2.1367727683	-0.0121689416	-0.207733
C	-0.7304723877	-2.1324690748	-0.0051156843	 0.271175
C	-1.888068149	-2.8551338004	-0.0033843375	-0.217862
N	-2.9731509951	-1.9912994852	 0.0062220043	-0.272245
C	-2.4839642872	-0.7746078285	 0.0101497449	 0.016472
N	-1.114900173	-0.8120162803	 0.0035046049	-0.084767
H	 0.8388542809	 1.7306251386	 0.0074984764	 0.241875
H	 1.2057858269	-2.5891539502	-0.906452125	 0.149016
H	 1.2141575831	-2.5983836889	 0.8731827072	 0.149017
H	-2.0246208648	-3.9247025856	-0.0082568553	 0.123332
H	-3.0363135023	 0.1509033381	 0.0175257122	 0.163257
