18
gdb 50339	3.82689	1.19098	1.04051	4.5018	79.12	-0.2362	0.0028	0.239	1166.3539	0.14962	-401.970135	-401.962426	-401.961482	-402.00368	28.75	
O	-0.0494079778	 0.0003448454	 0.7480618801	-0.335326
C	 0.0276937126	 1.2102322186	 0.6621265623	 0.12519
N	 1.0785801368	 1.87591768	 0.1418108737	-0.027361
C	 2.3116303786	 1.3763050943	-0.4661109418	-0.184519
C	 2.7632265604	 2.852454002	-0.68920173	-0.041698
C	 2.8527675623	 3.3632863151	-2.1399450609	-0.27831
C	 1.4658714037	 3.901912415	-2.4117702049	-0.051341
C	 0.6700612335	 3.8795399732	-1.3426791966	-0.080553
C	 1.3639163406	 3.2957593923	-0.1375290821	-0.047703
H	-0.7639109125	 1.9018070547	 1.0202771345	 0.06111
H	 2.9261170139	 0.7835153305	 0.2178236639	 0.125844
H	 2.1442839184	 0.7973955425	-1.3816549043	 0.12029
H	 3.6179108432	 3.1353707618	-0.076139126	 0.087029
H	 3.6117803026	 4.1477848662	-2.2541087848	 0.113348
H	 3.1305621985	 2.5672772304	-2.8425632268	 0.114944
H	 1.1758686592	 4.2712678617	-3.3899683537	 0.103831
H	-0.357770527	 4.2232364048	-1.3167780688	 0.104566
H	 1.3226863329	 3.9311628617	 0.7537843562	 0.090659
