21
gdb 115011	2.30371	1.46861	0.99122	1.9066	84.12	-0.239	0.012	0.251	1253.3005	0.182602	-387.088043	-387.079301	-387.078356	-387.121622	33.626	
C	-0.0950416284	 1.688161822	-0.2383667375	-0.389035
C	-0.2453384332	 0.163266475	-0.2459437346	-0.203057
C	 0.8004920204	-0.5446206986	-1.109011259	-0.046361
C	 2.2751727187	-0.3690994107	-0.6498956247	-0.283707
C	 2.919884725	-1.6920346166	-0.9917196133	-0.086343
C	 2.0209399415	-2.62006633	-1.3170714025	-0.142925
C	 0.6418285954	-2.0687155577	-1.2522266653	 0.414217
C	-0.5067748498	-2.8641341744	-0.7825876093	-0.251222
O	-0.3483754819	-2.5584950093	-2.1692583985	-0.289205
H	 0.8730002265	 1.9954139148	 0.1706855148	 0.11847
H	-0.1706910281	 2.0959971716	-1.2525439389	 0.117282
H	-0.8750566108	 2.1580407823	 0.3684273382	 0.112464
H	-0.1892187006	-0.2188841887	 0.782077063	 0.093864
H	-1.2438435822	-0.0937907242	-0.6205611785	 0.106716
H	 0.7207081653	-0.1526347817	-2.1319941847	 0.092741
H	 2.7707520816	 0.4800800045	-1.132901396	 0.108301
H	 2.3331552007	-0.1821603869	 0.4325748623	 0.107821
H	 3.9913229083	-1.8497629784	-0.936750684	 0.099065
H	 2.2171564419	-3.6537106536	-1.5761270976	 0.102844
H	-0.3613717843	-3.9106235339	-0.5132630916	 0.106501
H	-1.3424801058	-2.3754555455	-0.2846454424	 0.111569
