17
gdb 128681	3.29226	1.24365	0.91301	0.8421	72.77	-0.1941	0.0345	0.2286	1257.8993	0.135006	-455.157426	-455.147575	-455.14663	-455.192659	33.973	
C	-0.0489635709	 1.3640877467	-0.0328583803	-0.234368
O	-0.017473048	-0.0593395174	-0.0433029543	-0.287266
C	-1.2220490611	-0.6685439597	-0.0224783001	 0.356958
N	-2.387926437	-0.044488102	 0.0045297829	-0.326441
N	-3.2903610796	-1.0580389369	 0.0167296649	-0.301604
C	-2.7230574439	-2.3008611994	-0.0022058762	 0.315821
C	-3.4975874323	-3.5744972994	 0.0059034321	-0.508999
C	-1.3638128076	-2.0753472576	-0.0279812001	 0.067157
O	-0.3783499094	-3.0186086689	-0.0530001599	-0.463006
H	 0.9917527005	 1.6908640535	-0.0509352504	 0.125062
H	-0.5817906939	 1.7494609608	-0.9086697054	 0.13348
H	-0.5471236997	 1.7371365892	 0.8683144173	 0.13351
H	-4.2685211758	-0.8332810315	 0.0373728757	 0.266231
H	-4.1591087197	-3.6591530801	-0.8643720477	 0.132332
H	-2.8045682771	-4.4181952934	-0.0171448865	 0.15516
H	-4.1174614973	-3.6734243179	 0.9048829789	 0.132473
H	 0.4638326429	-2.5511593261	-0.0698977008	 0.303502
