18
gdb 4829	4.30312	1.39894	1.13177	0.1285	76.35	-0.2017	0.0265	0.2282	1102.7218	0.153629	-347.854034	-347.84574	-347.844795	-347.887101	30.152	
C	-0.3220508821	 1.4627890134	-0.1905609125	-0.370284
C	 0.1332731955	 0.0062904466	 0.0069540196	-0.293488
C	 0.9297943922	-0.5276941249	-1.1331159389	 0.357539
C	 2.2110254677	-0.9626747148	-1.2656256768	-0.268133
C	 2.3750716375	-1.3449758874	-2.6388692152	-0.256532
C	 1.182741363	-1.1158163737	-3.2502364254	 0.347629
C	 0.6902262636	-1.2963826891	-4.6408190698	-0.491664
O	 0.2918099016	-0.6166784419	-2.3412616513	-0.216742
H	 0.5389871013	 2.1301984931	-0.2934654667	 0.120291
H	-0.9307865376	 1.5577957189	-1.0939407909	 0.130056
H	-0.9195404208	 1.801870653	 0.6612075144	 0.110656
H	 0.7457448806	-0.07737159	 0.9105430217	 0.111588
H	-0.74926715	-0.6271750078	 0.1677950516	 0.113448
H	 2.9501665596	-1.0077847303	-0.4806252355	 0.101321
H	 3.2634148671	-1.7396503716	-3.1075137277	 0.101394
H	-0.1568630761	-1.9910392867	-4.6833080222	 0.134968
H	 0.3554986739	-0.3483727521	-5.0779837463	 0.134699
H	 1.490606943	-1.6965492249	-5.2672572782	 0.133257
