15
gdb 13318	5.16961	1.29803	1.14966	4.4508	61.25	-0.2745	0.0309	0.3053	1008.3247	0.119817	-399.808727	-399.801288	-399.800344	-399.841472	25.92	
N	-0.1321930833	-1.0894324902	 0.2799535907	-0.301831
C	-0.0523881663	 0.0608348395	 0.2102306562	 0.270775
C	 0.0411923719	 1.5138196754	 0.1000782381	-0.354441
C	 1.4801504088	 2.000113053	-0.1642129415	 0.11495
C	 1.5952638565	 3.5347570104	-0.0996361529	-0.134474
O	 1.9129368629	 3.7625408468	 1.2645640801	-0.23213
C	 2.7813206011	 2.7103994344	 1.59604291	 0.022986
O	 2.3372980603	 1.563845797	 0.8843352368	-0.261245
H	-0.6156104382	 1.8452119392	-0.7129327018	 0.149057
H	-0.3207326807	 1.9704616663	 1.0276237907	 0.162494
H	 1.839815275	 1.5957861981	-1.1161960811	 0.106647
H	 2.398307545	 3.8928455091	-0.7605268735	 0.10824
H	 0.6709322073	 4.0660649544	-0.3352628177	 0.124758
H	 3.8192626802	 2.9444544783	 1.3023745497	 0.095783
H	 2.7234060395	 2.5276171982	 2.672884986	 0.12843
