17
gdb 77536	3.08507	1.34005	1.10873	3.9431	75.44	-0.2497	-0.0024	0.2472	1117.0071	0.135278	-417.956175	-417.947671	-417.946727	-417.98891	32.561	
C	 0.0441000131	 1.4369185152	 0.1343635665	-0.514499
C	-0.0337291109	-0.0402410278	-0.0636159664	 0.369337
C	 0.5856551611	-0.9461941595	-1.1575677782	-0.292835
C	 0.0465124693	-1.8496100632	-0.0307028631	 0.290923
O	 0.6236079739	-0.9248454322	 0.965578673	-0.372385
C	 0.1985517435	-3.2667843388	 0.1637012251	 0.162154
N	 0.2619852122	-4.4136012142	 0.2992181572	-0.345903
C	-1.2783505488	-0.9728356677	 0.0014902255	-0.014772
N	-2.078472024	-0.8820802844	 1.1746437732	-0.525396
H	 1.0847460358	 1.760118686	 0.2263217469	 0.140992
H	-0.4074890416	 1.9523594983	-0.7189727724	 0.135241
H	-0.5002085151	 1.7273070416	 1.0373749106	 0.147941
H	 0.0944215979	-0.9919470915	-2.1321660267	 0.110969
H	 1.6727424275	-0.9108359029	-1.2193116283	 0.127567
H	-1.8929336189	-1.0275796923	-0.900839235	 0.090871
H	-2.7686592368	-1.6230007916	 1.2202029365	 0.243371
H	-1.4844220382	-0.9375594049	 1.9968071055	 0.246425
