20
gdb 117051	4.03258	0.76875	0.68238	1.3263	78.56	-0.237	-0.0576	0.1794	1722.8024	0.168584	-440.348565	-440.337818	-440.336874	-440.386099	36.935	
C	-0.386969683	 1.3173224258	-0.2439904016	-0.373593
C	 0.4235212351	 0.1009154223	 0.2084573587	-0.145834
N	 1.1110154595	-0.5525759369	-0.8906236627	-0.305807
C	 0.8330189608	-1.8047880187	-1.3110269116	 0.319086
O	 0.0062006679	-2.5627695788	-0.830421768	-0.376134
C	 1.7035456355	-2.2200140089	-2.5222518046	 0.295973
O	 2.5090664112	-1.4436592187	-2.9880829815	-0.316194
C	 1.4677611346	-3.6140763462	-3.0461860939	-0.270711
C	 2.3407007664	-3.9695281772	-4.2456009476	-0.386946
H	 0.254305075	 2.0699829321	-0.7150988962	 0.118045
H	-1.1558685726	 1.0256326463	-0.9650255015	 0.132496
H	-0.8780638319	 1.7859102936	 0.6144160061	 0.123154
H	 1.1570210179	 0.3979633237	 0.9684566863	 0.112568
H	-0.2270573669	-0.6557613985	 0.6533455268	 0.148311
H	 1.821452561	-0.0652079176	-1.4195975305	 0.261866
H	 1.6145641509	-4.3050797091	-2.2057923964	 0.144326
H	 0.396611273	-3.7006806504	-3.2695488715	 0.144605
H	 2.1590033705	-3.2867467326	-5.0800443191	 0.12955
H	 3.4022686525	-3.8985444611	-3.9937732104	 0.129947
H	 2.1334250625	-4.9885223891	-4.5826808808	 0.115294
