19
gdb 61962	2.30223	0.92828	0.7133	5.4981	77.56	-0.2659	0.0144	0.2803	1564.1563	0.158162	-419.258685	-419.248434	-419.24749	-419.295434	35.441	
C	 0.0322408205	 1.8560577005	 0.2664660562	-0.41303
C	-0.0168498058	 0.3409464145	 0.0548871858	 0.028722
C	 0.706453868	-0.4072455602	 1.18820394	-0.176026
C	 0.7675071923	-1.9311921894	 0.9642695515	-0.346325
C	 1.499305409	-2.6096228845	 2.0310137309	 0.257953
N	 2.0799368668	-3.1264853867	 2.8861900789	-0.306383
N	-1.4049547266	-0.0951598897	-0.0963148258	-0.274676
C	-1.8078434814	-0.9762526415	-1.0509602481	 0.153252
O	-1.0666463326	-1.5642922552	-1.8115561798	-0.329241
H	 1.067232283	 2.2018716956	 0.3348540608	 0.133198
H	-0.4511727985	 2.3794761197	-0.5627183127	 0.13105
H	-0.4737195203	 2.1427084816	 1.1964662032	 0.1188
H	 0.4681374768	 0.0875848411	-0.8931653784	 0.12493
H	 1.7256987767	-0.0150175146	 1.2706147039	 0.124254
H	 0.2117192681	-0.1998986653	 2.1447456688	 0.112836
H	-0.2424708042	-2.3495686542	 0.9137096394	 0.15961
H	 1.2403789465	-2.1590405674	 0.0032758453	 0.16861
H	-2.1120764529	 0.3506211116	 0.4683142201	 0.247993
H	-2.9077113952	-1.1074139758	-1.0565290799	 0.084473
