17
gdb 10038	3.33491	1.25556	0.97894	4.1628	74.23	-0.276	0.0301	0.3061	1190.9044	0.140148	-326.715406	-326.706225	-326.705281	-326.749519	32.492	
C	 0.0574167815	 1.556503787	-0.0012674497	-0.395062
C	-0.0133129634	 0.0291663093	-0.023596485	-0.178445
C	-1.4571947269	-0.5202299631	 0.047939104	-0.152219
C	-1.4445175164	-2.0673467163	-0.102116767	-0.35108
C	-2.7800109023	-2.650717935	-0.1993972688	 0.267708
N	-3.8364383529	-3.1086505126	-0.2937390502	-0.303257
C	-2.129963653	-0.1262578862	 1.2830532709	 0.351282
C	-2.6630743749	 0.180798508	 2.3153710818	-0.470315
H	 1.0959311941	 1.8959984707	-0.0513309229	 0.119548
H	-0.4774321858	 1.9899590963	-0.8533512923	 0.119396
H	-0.3883669787	 1.9563345148	 0.9136302731	 0.138036
H	 0.4475134296	-0.3508279479	-0.9436425712	 0.100754
H	 0.5612076689	-0.3853788859	 0.8134302154	 0.11091
H	-2.0210922626	-0.1110335589	-0.8009203891	 0.125841
H	-0.8827918308	-2.3367358418	-1.0034209926	 0.150871
H	-0.9237251367	-2.5140406233	 0.7514955122	 0.159734
H	-3.1531550199	 0.453678375	 3.2173615614	 0.206297
