17
gdb 10912	3.2859	1.93601	1.53539	3.7074	63.75	-0.2326	0.0622	0.2948	872.1845	0.14188	-400.95342	-400.94544	-400.944496	-400.985599	30.25	
C	-0.1005190738	 1.497417894	 0.0665994989	-0.51882
C	 0.1564646971	 0.0271493579	-0.04252226	 0.317433
N	-0.756418791	-0.9829684645	 0.564835403	-0.418755
C	 0.6891027749	-0.9629426785	 0.937404082	-0.150374
C	 1.3481380966	-1.8007333718	-0.1589500646	 0.115622
O	 0.9366175148	-3.1313732762	-0.2718968238	-0.432099
C	 0.7815144634	-0.7423166347	-1.2168577664	 0.056681
O	-0.0831696489	-1.1945884085	-2.2158597535	-0.431287
H	 0.7981343338	 2.0682707465	-0.1894498128	 0.13157
H	-0.8979882378	 1.80823729	-0.6174614064	 0.137967
H	-0.3981336917	 1.7770496502	 1.0834319497	 0.117806
H	-1.2798897919	-0.5260841851	 1.3094054227	 0.233066
H	 0.9860550079	-0.8267954692	 1.9707712075	 0.096171
H	 2.4398398937	-1.7954586765	-0.1239108853	 0.088114
H	-0.0149212411	-3.1307912414	-0.1061733245	 0.28561
H	 1.5891623349	-0.1924733453	-1.7070712388	 0.087286
H	-0.8532579008	-1.5554611967	-1.7586419477	 0.284011
