21
gdb 88955	3.2592	1.00722	0.92394	2.5802	79.25	-0.2366	0.0803	0.3169	1367.6195	0.17987	-424.18089	-424.171288	-424.170344	-424.215619	36.589	
C	-0.3822553893	 1.2859225784	-0.992825156	-0.454263
C	-0.120500748	 0.0703630359	-0.1331565938	 0.4499
C	 1.2304470644	-0.5750854234	-0.1253159922	-0.312252
C	 0.7425355322	 0.1756325143	 1.1000036362	-0.316582
O	-1.176002644	-0.8644920298	-0.0717229156	-0.3119
C	-2.3131373819	-0.4628573913	 0.6396901703	 0.053466
C	-3.4886880919	 0.1267757542	-0.118858643	-0.347247
C	-3.508922172	-1.3166466513	 0.3439422094	 0.113225
O	-3.3695576142	-2.346305329	-0.5840751703	-0.434579
H	 0.5109919335	 1.91513504	-1.0414784242	 0.117473
H	-0.6446044997	 0.9855697059	-2.0127471923	 0.123213
H	-1.2006001339	 1.8917777085	-0.5929826305	 0.130507
H	 1.2520853136	-1.6569403994	-0.0652868864	 0.123726
H	 2.0146393755	-0.1340051355	-0.7305643402	 0.113305
H	 1.1911552267	 1.1339414253	 1.3382998233	 0.114288
H	 0.458400808	-0.4193564626	 1.9605343354	 0.120338
H	-2.1123739596	-0.1306612875	 1.6564711638	 0.091916
H	-4.1176157917	 0.8557989266	 0.3818927491	 0.109869
H	-3.3558481462	 0.2784390936	-1.1842447391	 0.121523
H	-4.1711118633	-1.5864859857	 1.1615261459	 0.098988
H	-2.439767328	-2.3501226972	-0.8471809999	 0.295085
