18
gdb 75157	3.3741	1.10655	1.07531	1.809	73.88	-0.2506	-0.0349	0.2157	1211.1209	0.145316	-439.126931	-439.117636	-439.116692	-439.161431	33.215	
C	 0.2440183332	 1.4370051004	 0.0671419242	-0.478047
C	-0.0022538841	-0.0277302161	-0.0404390699	 0.402906
N	 0.0951549203	-0.7407926761	-1.0856944953	-0.297279
C	-0.2734363875	-2.1046639267	-0.7063181402	-0.237381
C	-0.4496501923	-2.058123353	 0.8531289589	 0.259902
C	 0.6349382506	-2.8006388167	 1.61777198	-0.437775
O	-0.3719768305	-0.6365159828	 1.1283231593	-0.285786
C	-1.8496550672	-2.5088482188	 1.2410980103	 0.123363
O	-2.1157933247	-3.591454186	 1.6914970519	-0.247171
H	 1.0433559416	 1.634840993	 0.7879371383	 0.148564
H	 0.5207629168	 1.8351059378	-0.9082495771	 0.155914
H	-0.6547110041	 1.9448292895	 0.4309280133	 0.148465
H	-1.1924201344	-2.39837745	-1.2286115925	 0.122238
H	 0.5039192196	-2.8201090014	-0.991915373	 0.12766
H	 1.6238995765	-2.508350658	 1.2546817286	 0.125231
H	 0.5720115763	-2.5830100491	 2.686951559	 0.134776
H	 0.5054746459	-3.8769692151	 1.4810969482	 0.144807
H	-2.6298888461	-1.7415276909	 1.0374836261	 0.089614
