17
gdb 79308	3.99045	1.22306	1.13931	4.9369	78.37	-0.2641	0.0008	0.2649	1110.019	0.137202	-380.819506	-380.811941	-380.810997	-380.851508	29.192	
C	 0.0740918343	 1.6393634338	-0.0139512467	-0.433314
C	 0.0865737171	 0.1177231715	 0.0217169643	 0.023298
C	 0.7343200953	-0.7008942175	-1.1004717239	-0.107802
N	 2.188048251	-0.9386489126	-0.8176321288	-0.175165
C	 2.4426676062	-0.2687137608	 0.5054944262	-0.159404
C	 1.0377539865	-0.6685242743	 0.9782192756	-0.15748
C	 1.1357557159	-1.7764507234	-0.1503761154	 0.307416
C	 1.0452078914	-3.1896891514	-0.1713394914	 0.123183
N	 0.9469345266	-4.3431286309	-0.152823065	-0.355017
H	 1.0621117323	 2.0639611192	-0.2089917296	 0.127414
H	-0.596197658	 1.9948124251	-0.8035775706	 0.12835
H	-0.2896630651	 2.0470407709	 0.9353849533	 0.125412
H	-0.9305129544	-0.2628528455	 0.163488023	 0.09636
H	 0.4324293335	-0.8087517505	-2.1342064397	 0.122098
H	 3.2381797722	-0.8191392381	 1.0116740209	 0.128378
H	 2.7023882342	 0.792089343	 0.4481905598	 0.10998
H	 0.7835160313	-0.8213140587	 2.0244670179	 0.096294
