17
gdb 125178	3.25632	1.52538	1.06134	3.8632	75.05	-0.2058	0.0259	0.2317	1105.204	0.138406	-418.029753	-418.021715	-418.020771	-418.063106	29.283	
C	-0.1555225223	 1.5319332093	 0.1376500114	-0.500386
C	-0.0440439902	 0.0559621884	-0.0628172282	 0.173262
C	 0.0984165206	-0.7338399139	-1.1825356715	 0.109528
C	 0.2611563828	-0.7913637229	-2.6705357064	-0.397147
C	 0.1829507237	-2.3432667952	-2.891287288	-0.083489
O	 0.3490680515	-3.0059914902	-1.6085788188	-0.271684
C	 0.1797206666	-2.0392424149	-0.6784309134	 0.435593
N	 0.095319329	-2.1406517639	 0.6292841336	-0.355354
N	-0.0327204376	-0.8214051145	 0.987368632	-0.26019
H	 0.8235416622	 1.9960215115	 0.306828652	 0.142693
H	-0.5962850031	 2.004863193	-0.7432927298	 0.140661
H	-0.7883090097	 1.7728113398	 0.9982575023	 0.130002
H	-0.5202455772	-0.2805935561	-3.2418857127	 0.115977
H	 1.2245237189	-0.3900040732	-3.0079650473	 0.118143
H	-0.7963022258	-2.6296607244	-3.2908731694	 0.116702
H	 0.9593238629	-2.7221621133	-3.5590920921	 0.119856
H	-0.1729571823	-0.6039260396	 1.9585220663	 0.265833
