16
gdb 126206	2.27648	1.4076	0.92814	7.3427	74.26	-0.2523	-0.049	0.2033	1233.3648	0.124563	-434.082029	-434.073545	-434.072601	-434.116326	29.86	
C	-0.2618257789	 1.5764137772	-0.0448117536	-0.373184
C	 0.0357239196	 0.0668058036	 0.0313601511	-0.311998
C	 0.7960977829	-0.4415857549	-1.152268347	 0.288478
C	 2.1361946903	-0.733470116	-1.3750930392	 0.121921
C	 3.2429266788	-0.6480703525	-0.4195658246	 0.088965
O	 4.3982739201	-0.9020848234	-0.6594708992	-0.258287
N	 2.2872659152	-1.1389718806	-2.6796831362	-0.225372
N	 1.1419367254	-1.1149912283	-3.268800248	-0.098978
N	 0.2297938299	-0.6907778887	-2.3516453657	-0.234113
H	 0.6649619672	 2.1539025946	-0.1000381555	 0.140322
H	-0.8613023948	 1.8211377439	-0.926937278	 0.124039
H	-0.8158484851	 1.8985524956	 0.8410150692	 0.13128
H	 0.6107990804	-0.1491049761	 0.9358218403	 0.137684
H	-0.9037355312	-0.4912338702	 0.1246328237	 0.124468
H	 2.9291037179	-0.3150597601	 0.5965519401	 0.061206
H	-0.7387222678	-0.614343814	-2.6226909372	 0.283568
