19
gdb 121665	4.1346	0.73607	0.67282	3.5638	75.2	-0.2485	0.0199	0.2685	1677.0602	0.159924	-456.344371	-456.334803	-456.333858	-456.380222	34.005	
O	 0.1685267152	 1.3647199028	-0.318918813	-0.417926
C	-0.0308257696	-0.0058982018	 0.0133390397	-0.077333
C	-1.5115993635	-0.3323834794	 0.1898559469	-0.165043
N	-2.2530452966	 0.0748445651	-0.9869237128	-0.33186
C	-3.2173404132	-0.6889238075	-1.5611991983	 0.445031
O	-3.5889673391	-1.7622990513	-1.1048444103	-0.406725
C	-3.8200047911	-0.1248535578	-2.8165901908	-0.124797
C	-4.0379323296	-1.0885215271	-3.9360363669	-0.220916
N	-5.169873939	-0.5939477669	-3.1571184532	-0.306159
H	-0.0197443381	 1.8915321657	 0.4650859844	 0.288666
H	 0.3776430631	-0.5745871778	-0.8277858608	 0.125728
H	 0.5260428125	-0.2894661959	 0.9173754511	 0.101469
H	-1.6687407889	-1.4045602963	 0.3319581654	 0.147432
H	-1.8978329883	 0.1765271937	 1.0866654955	 0.101747
H	-1.9620550314	 0.9370663573	-1.421542386	 0.253232
H	-3.6204551899	 0.9199265935	-3.0413200619	 0.088129
H	-3.9821381569	-0.7294344612	-4.9596263769	 0.120186
H	-3.704226625	-2.1086557514	-3.7707872438	 0.131564
H	-5.4061770406	-1.3029850838	-2.4611975883	 0.247576
