17
gdb 51343	6.58114	0.90651	0.88998	1.6533	76.16	-0.244	0.0198	0.2638	1316.799	0.136312	-417.893207	-417.885683	-417.884739	-417.926595	28.02	
N	-0.0258326123	 1.3441944275	 0.0832521684	-0.440784
C	 0.0118533874	 0.0837716444	 0.0689853907	 0.12401
O	-1.1172330081	-0.6217524778	-0.1478795657	-0.208458
C	-1.0394131792	-2.0267970068	-0.0298690142	 0.160726
C	-1.7306112409	-2.6775226646	 1.1723041869	-0.059904
C	-3.1649414088	-2.4678952038	 0.5934274911	-0.056828
C	-3.4201589532	-3.961605309	 0.7536867441	-0.184816
N	-1.9459931443	-3.9772439027	 0.345964408	-0.172382
C	-2.2259487282	-2.7833839149	-0.6125883411	-0.063242
H	 0.9089294078	 1.71718023	 0.235154918	 0.230676
H	 0.9007564067	-0.5474453561	 0.2068691417	 0.088545
H	-0.0441745419	-2.4078219721	-0.2852292611	 0.099811
H	-1.4276656386	-2.7289955813	 2.2190597539	 0.08905
H	-3.8249400412	-1.6075429772	 0.7242911974	 0.088945
H	-3.5946884228	-4.3544906844	 1.7605079321	 0.106277
H	-4.0744427153	-4.4577180816	 0.0296370709	 0.106655
H	-2.5006123372	-2.9566442795	-1.6535436611	 0.091719
