21
gdb 69591	3.31143	1.30064	1.2187	1.5161	83.11	-0.2265	0.0903	0.3168	1146.1962	0.182833	-387.075193	-387.066949	-387.066005	-387.107478	33.261	
C	-0.0691731018	 1.4925551617	-0.0244096604	-0.487666
C	 0.0078362518	-0.0127659488	 0.0184457557	 0.329389
C	-0.8101376412	-0.8172832307	 0.9990882619	-0.342291
C	 0.6976841643	-0.7964152303	 1.1157720717	-0.171291
C	 1.4136919193	-1.9164771056	 0.4215523677	 0.471163
C	 2.899784397	-2.1297886317	 0.553127985	-0.339966
C	 1.9092884871	-3.1737013705	 1.0522732667	-0.335146
O	 0.8184237407	-2.0516295561	-0.8531116096	-0.297054
C	 0.3703637232	-0.7595778783	-1.259527519	-0.149033
H	 0.8558182372	 1.928024151	-0.4203012209	 0.117816
H	-0.8949008106	 1.8320798064	-0.6611598546	 0.119955
H	-0.234143608	 1.9085152617	 0.9741767147	 0.118362
H	-1.3712806742	-0.2613578659	 1.7428053476	 0.105371
H	-1.2825149714	-1.7345986977	 0.6619060326	 0.120999
H	 1.1747093585	-0.3059386866	 1.9562247365	 0.08564
H	 3.4438629252	-2.3611317197	-0.3557577736	 0.118561
H	 3.4527967833	-1.5477227261	 1.2835372009	 0.107183
H	 1.78043433	-3.2992164229	 2.121880773	 0.113703
H	 1.8134129608	-4.0848043798	 0.4722725524	 0.122657
H	-0.4689754347	-0.9089699965	-1.9474579828	 0.103916
H	 1.1656290735	-0.2142052035	-1.7942603655	 0.087734
