17
gdb 81399	2.8753	1.55533	1.32666	3.9137	71.78	-0.2515	0.0354	0.2869	989.8642	0.138445	-417.992489	-417.984927	-417.983982	-418.024441	29.378	
O	 0.2991910584	 1.4521451183	 0.1051932204	-0.424447
C	 0.1058617198	 0.0683222025	 0.0480329058	 0.140077
C	 0.0940996392	-0.6762929308	 1.4013737536	-0.041107
C	-0.961574746	 0.093197299	 2.2126167486	-0.219205
C	-2.0874827171	 0.1407846652	 1.1141958872	-0.111959
C	-2.5630510096	 1.4692898188	 0.7484785983	 0.264283
N	-2.9710546909	 2.5045925835	 0.4339637784	-0.343733
C	-1.3107585066	-0.5774118034	-0.0201309118	-0.09122
N	-0.7657079863	-1.7444937098	 0.7590896583	-0.329855
H	-0.0403800323	 1.86408085	-0.6965357913	 0.298673
H	 0.7789703911	-0.423033583	-0.6687389223	 0.076204
H	 1.0029699815	-0.9866520366	 1.9149522758	 0.082291
H	-1.2842814803	-0.4608009067	 3.09432302	 0.118262
H	-0.6188036343	 1.0868074151	 2.499214757	 0.139505
H	-2.9477693502	-0.4659721591	 1.4053676455	 0.133463
H	-1.8473882021	-0.7738058425	-0.9479870551	 0.085116
H	-0.1741720944	-2.2884728706	 0.1292739515	 0.223651
