16
gdb 48510	3.48978	1.66131	1.46494	2.2943	72.52	-0.2407	-0.0384	0.2022	906.0736	0.125057	-400.664911	-400.65823	-400.657286	-400.696329	26.148	
O	-0.4531424411	 0.5072555623	-0.73688827	-0.259111
C	 0.0503555997	 1.0579672685	 0.2159214012	-0.001661
C	 1.2141268215	 1.9600493776	 0.1210867898	 0.277335
C	 1.7086019597	 3.1375985619	 1.0019757413	-0.142763
C	 3.1018559689	 2.7361350796	 0.7042984407	-0.0476
C	 2.7235388841	 1.3908100204	 0.0637083283	-0.116963
C	 2.7388785667	 1.6267098623	-1.463158511	-0.245121
C	 1.7208890956	 2.7286446697	-1.1387970321	-0.034575
N	 2.396855639	 3.7143350096	-0.1917982431	-0.143393
H	-0.3379610841	 0.8891722299	 1.2465223268	 0.074802
H	 1.26124413	 3.7368842234	 1.7857479122	 0.105895
H	 4.0383287311	 3.0415616736	 1.1528997117	 0.105284
H	 3.0212350606	 0.4606542781	 0.5428407541	 0.091694
H	 3.6829387841	 1.9085718715	-1.9365991774	 0.109431
H	 2.2607967033	 0.8052595175	-2.0022106039	 0.132313
H	 1.0771405309	 3.202319544	-1.8766139786	 0.094432
