15
gdb 11736	5.35519	1.32305	1.21052	1.6723	62.33	-0.247	-0.0259	0.2211	976.1805	0.118769	-399.765735	-399.758328	-399.757384	-399.797847	27.299	
O	 0.176313844	 1.3123539985	-0.2519939725	-0.410649
C	 0.0762581382	-0.0294819756	 0.19705506	-0.164092
C	-1.349581308	-0.4955357489	 0.2320226538	 0.31792
C	-2.4387078923	-0.0982131294	 1.2454936681	-0.422822
C	-2.9386162307	-1.569872221	 1.1374678738	 0.416451
O	-3.720575724	-2.2184365165	 1.7691221357	-0.302462
C	-1.8986722116	-1.9101313215	 0.0928317394	-0.218099
N	-1.9707922995	-0.9254165795	-1.0058206591	-0.355128
H	-0.1353666942	 1.3275631826	-1.1637414706	 0.290678
H	 0.6619784367	-0.7148663563	-0.43175851	 0.10516
H	 0.5017957434	-0.0447460615	 1.2053685721	 0.118042
H	-2.0782802042	 0.0962763116	 2.2604731892	 0.1397
H	-3.1083961243	 0.7123213223	 0.9445464873	 0.125252
H	-1.4121159131	-2.8595231484	-0.0969578296	 0.117749
H	-2.9105044303	-0.5526764462	-1.1311129975	 0.2423
