21
gdb 72440	2.31365	2.11114	1.48983	1.5679	80.29	-0.2363	0.0848	0.3212	977.768	0.185396	-387.087522	-387.080297	-387.079353	-387.118497	30.87	
C	-0.0263676402	 1.4982885743	 0.0138394421	-0.489588
C	 0.0090048435	-0.019303797	 0.0380753911	 0.279344
C	 0.7774307096	-0.6844245056	-1.1356602153	-0.085468
O	 1.0596229693	-2.0221752638	-0.684168811	-0.282311
C	 0.4942877259	-2.1162438378	 0.6424360603	 0.085961
C	 0.7629877344	-0.7129358234	 1.1985741355	-0.284172
C	-1.0207010371	-2.1687864751	 0.4551122923	-0.032413
C	-1.9203314582	-1.3136761678	 1.3136927964	-0.33987
C	-1.3500619656	-0.7421388895	 0.0408387866	-0.045693
H	 0.9852054036	 1.9192347964	 0.0206897128	 0.113397
H	-0.5354156534	 1.8698519182	-0.8828866837	 0.114548
H	-0.5628768953	 1.8918652428	 0.8832706735	 0.119117
H	 0.1836848927	-0.7170550184	-2.0579044149	 0.091458
H	 1.7228421235	-0.1661288679	-1.3482867053	 0.088389
H	 0.9605045526	-2.9650341694	 1.1435066047	 0.070566
H	 1.8312301628	-0.4829554812	 1.1993148217	 0.101183
H	 0.3586322509	-0.5115053337	 2.1904244859	 0.100504
H	-1.4318127468	-3.0249976914	-0.0665498299	 0.090829
H	-2.9744684479	-1.5683153201	 1.2733261808	 0.111672
H	-1.6040573029	-0.961993192	 2.2889014696	 0.110829
H	-2.0233055515	-0.5358693874	-0.7853015632	 0.081719
