17
gdb 67623	2.8966	1.73677	1.4282	2.6069	70.15	-0.2228	0.0724	0.2952	954.2379	0.135778	-421.763778	-421.756577	-421.755633	-421.79492	29.499	
C	-0.061860217	 1.5148804785	 0.0250479059	-0.514873
C	 0.0300065079	 0.0196599365	 0.0290999927	 0.314433
C	 0.0019087612	-0.889492747	-1.1900993167	 0.033285
O	 0.9787035098	-1.8916337506	-1.1371084434	-0.228089
C	 1.034617959	-2.1280693902	 0.2419371374	 0.031335
C	 0.7879257979	-0.8549263198	 1.0547327423	-0.301557
C	-0.2931674474	-1.9347828485	 0.9181843115	 0.355663
O	-0.8222519259	-2.8519954958	 1.7942449384	-0.458471
C	-1.0505021854	-1.0552660142	-0.1067282076	-0.288199
H	 0.9253834137	 1.9717705287	-0.1126210335	 0.125325
H	-0.7057081725	 1.8644550756	-0.7889753318	 0.120329
H	-0.4792008153	 1.898144958	 0.9632659831	 0.119328
H	-0.2211396046	-0.5356776497	-2.188562158	 0.105634
H	 1.7357011019	-2.8896205407	 0.5548376042	 0.115081
H	 1.4058002748	-0.5240615865	 1.8785607875	 0.091906
H	-1.3404301792	-2.3784682873	 2.4547649445	 0.289376
H	-2.1205583489	-0.976143077	-0.2465893565	 0.089493
