19
gdb 43793	2.45137	1.59903	1.15185	2.8299	81.06	-0.237	-0.0185	0.2185	1111.3561	0.158235	-385.872372	-385.864048	-385.863103	-385.905422	32.331	
O	 0.0229015106	 0.1715634493	-0.6754503179	-0.318161
C	-0.0056397171	 1.2608935705	-0.1745686351	 0.361343
C	-1.1120781293	 2.1284202713	 0.4685408305	-0.467368
C	-0.0314985379	 3.205031624	 0.713642855	 0.284134
C	-0.1956117398	 4.6885083164	 0.5750409735	-0.324413
C	 0.1088597918	 4.0753751012	 1.9259336188	-0.324414
C	 1.0315419988	 2.3198497283	 0.0722827648	 0.175637
C	 2.4676675919	 2.0539174059	 0.4664707187	-0.311749
C	 2.1669104473	 2.659582296	-0.8679710595	-0.31175
H	-1.9138503797	 2.4044603032	-0.2233355716	 0.130898
H	-1.5559491175	 1.6837305379	 1.3646211217	 0.130896
H	 0.592682379	 5.2485132653	 0.081328023	 0.112882
H	-1.1928901485	 5.0797308281	 0.4008233759	 0.116498
H	-0.6816251739	 4.0501729399	 2.6692162036	 0.116498
H	 1.1016718954	 4.2235322566	 2.3396231614	 0.112882
H	 2.8910894456	 2.6893346387	 1.2376504382	 0.121984
H	 2.7744648554	 1.0140364484	 0.5071853617	 0.136109
H	 2.2650262467	 2.0399353073	-1.7531523662	 0.136109
H	 2.3829555309	 3.7126221118	-1.0169361063	 0.121985
