16
gdb 33055	6.30637	0.80017	0.71648	4.5182	68.39	-0.2119	0.0281	0.2399	1517.1076	0.123668	-475.061872	-475.053065	-475.052121	-475.096466	30.69	
C	-0.1881265047	 1.4592220441	-0.5045717613	-0.225912
O	-0.3185636547	 0.0705648205	-0.7095890769	-0.23343
C	 0.8808864819	-0.6273359387	-0.4869919187	-0.165208
C	 0.6201890391	-2.0702904775	-0.7315176898	 0.327565
C	-0.4729898295	-2.748901974	-1.0962574258	-0.187263
N	-0.0908167282	-4.0921145196	-1.164224838	-0.364934
C	 1.2373541387	-4.2303096059	-0.8380898166	 0.475499
O	 1.9272604564	-5.2102327979	-0.7800859213	-0.399335
O	 1.6780460131	-2.9410519857	-0.5665042329	-0.248844
H	 0.1111138826	 1.6909381526	 0.5291849399	 0.112116
H	 0.5532861402	 1.9027999293	-1.1868125584	 0.112113
H	-1.1641651929	 1.9080070987	-0.7006917605	 0.133452
H	 1.6839561036	-0.2689017267	-1.1559162201	 0.112669
H	 1.2466150614	-0.4782915158	 0.5449404926	 0.112664
H	-1.4676310274	-2.4030247879	-1.3106218208	 0.161376
H	-0.6668102297	-4.8786539356	-1.4043053215	 0.277471
