21
gdb 119916	2.31789	1.06255	0.91227	2.2116	76.17	-0.2317	0.0666	0.2983	1406.8913	0.178817	-461.324693	-461.313873	-461.312928	-461.360642	38.944	
C	 0.649682456	 1.2637304085	-0.1370765234	-0.222388
O	 0.8384402469	-0.1179603514	-0.3172622334	-0.232851
C	-0.1548721956	-0.6987098969	-1.1440050518	-0.085697
C	 0.0943065847	-2.1814019989	-1.2238900994	-0.10032
C	-0.1642978306	-2.9536711639	-2.5006122724	-0.016862
O	-0.6551425218	-2.2227017273	-3.590003534	-0.410519
C	 1.2547307596	-2.7523359916	-2.0003977756	 0.346849
C	 2.2249297795	-1.8681408734	-2.747119019	-0.458333
O	 1.8413999753	-3.85054628	-1.3461580854	-0.457619
H	 0.6854276476	 1.8122620375	-1.0925370021	 0.0997
H	-0.3158448982	 1.4869768744	 0.3453355634	 0.101253
H	 1.4560293777	 1.6245399385	 0.5064302222	 0.124555
H	-1.1566361833	-0.5118799688	-0.7210150417	 0.088096
H	-0.1437579422	-0.2421931957	-2.1436133459	 0.10243
H	-0.1229319795	-2.726729731	-0.3108318372	 0.104337
H	-0.5807556399	-3.9545517483	-2.3854025303	 0.089465
H	-0.289120195	-2.6028789556	-4.3953424058	 0.289163
H	 1.7036488572	-1.1013647033	-3.3238842226	 0.127117
H	 2.9090151359	-1.3776271356	-2.0503032705	 0.142196
H	 2.8193215828	-2.4660552478	-3.4507371625	 0.094188
H	 2.2448813532	-4.4133599694	-2.0170700626	 0.275238
