13
gdb 125497	2.73566	1.46182	0.95841	3.4989	63.59	-0.2712	-0.0469	0.2243	1135.6053	0.088667	-489.948295	-489.940509	-489.939565	-489.981024	27.369	
C	 0.0354052444	 1.454111717	-0.0163111477	-0.488669
C	-0.0455237522	-0.0232419033	 0.0093508417	 0.43203
N	-1.0896170732	-0.7459291504	-0.1767338476	-0.255105
N	-0.617578513	-2.0456332003	-0.0471687999	-0.156281
C	-1.4267643741	-3.1823655935	-0.175142435	 0.181233
O	-2.6003827909	-3.149422002	-0.4080027655	-0.261418
C	 0.7490579275	-2.0708273418	 0.2235833707	 0.508153
O	 1.491163555	-2.9883975311	 0.3959635334	-0.3685
O	 1.1010442832	-0.7299311801	 0.2554633479	-0.229815
H	 0.7379160044	 1.784977298	-0.7876144269	 0.164129
H	-0.953455752	 1.8632450834	-0.2239277646	 0.172525
H	 0.3945876492	 1.8335737333	 0.9453108909	 0.164127
H	-0.8198511882	-4.0904989093	-0.0299421673	 0.137591
