16
gdb 65902	2.56535	1.32572	1.2403	4.4244	70.11	-0.2694	-0.0894	0.18	1091.0907	0.122113	-437.886047	-437.876986	-437.876042	-437.920765	31.703	
C	-0.2923071139	 1.6333188041	-0.158040365	-0.463893
C	 0.0103670089	 0.1441340942	-0.1148097478	 0.316413
C	 0.8943556847	-0.4711568428	-1.2197317738	-0.336949
C	 1.8110910279	-0.8924778508	-0.0546135543	-0.0701
O	 0.9743512156	-0.2015970359	 0.9114948678	-0.315169
C	-1.2586618612	-0.6636013014	 0.1587054609	 0.261411
O	-1.8234983132	-1.3645393755	-0.6405971245	-0.275421
C	-1.7668763091	-0.5432404489	 1.5433901232	 0.255594
N	-2.2010042726	-0.4276919762	 2.6086744015	-0.305061
H	 0.6391253927	 2.1891035045	-0.2939859666	 0.137716
H	-0.9683610387	 1.8649728035	-0.9877720455	 0.1392
H	-0.7566360504	 1.9632614412	 0.7763129789	 0.153636
H	 0.4237859893	-1.2705317085	-1.7909097447	 0.141543
H	 1.3237291718	 0.2662166019	-1.8986162625	 0.120036
H	 1.8557580445	-1.9681674861	 0.1472577028	 0.120956
H	 2.8258220938	-0.4835845234	-0.0615617104	 0.12009
