15
gdb 49135	3.40041	1.15296	0.88076	0.7056	72.56	-0.2497	-0.108	0.1418	1226.0378	0.112103	-457.792116	-457.784235	-457.78329	-457.825054	28.502	
O	-0.0395795832	-0.0243553564	 0.0890410613	-0.256906
C	-0.0020878856	 1.1798421181	-0.0084206022	 0.113168
C	 1.2577480003	 1.9566004393	-0.0481875951	 0.17958
C	 1.228522747	 3.2979514483	-0.1300290181	-0.249086
C	 2.4785845746	 4.0847919353	-0.0460301283	 0.368792
O	 2.4912205784	 5.2966181128	-0.0319793121	-0.304567
C	 3.7500517582	 3.25042744	 0.1038156856	-0.19543
O	 3.6384674294	 1.975118749	-0.4941504628	-0.237853
C	 2.5651410926	 1.2113805756	 0.0120933945	-0.171644
H	-0.9273308498	 1.7915895634	-0.0746320492	 0.091985
H	 0.2966852497	 3.8536338029	-0.2001767083	 0.12536
H	 4.5794091774	 3.7698068167	-0.3802854418	 0.146978
H	 3.9801392748	 3.1730264485	 1.1823603221	 0.117893
H	 2.756258405	 0.8912144492	 1.0525354957	 0.121386
H	 2.5022764313	 0.3023250473	-0.5911443814	 0.150344
