17
gdb 61024	3.64983	1.07537	0.92717	2.563	68.72	-0.2581	-0.0388	0.2193	1238.3653	0.134152	-458.922495	-458.914163	-458.913219	-458.956104	30.743	
O	 0.9239126669	-0.0601560637	-1.0663498792	-0.439281
C	-0.0008432482	-0.0257544691	-0.0112680132	 0.040105
C	-1.2564325575	-0.7815868482	-0.3859187076	 0.128078
O	-1.3756992069	-1.3277496942	-1.4571986101	-0.264252
C	 0.6204277289	-0.5985027402	 1.2706641477	-0.042872
C	 1.8713993006	 0.1645843239	 1.8435274763	-0.271368
C	 1.0782184021	 0.3938504762	 3.1354425693	 0.035945
O	-0.1140415865	 1.1078161776	 2.7834112289	-0.240121
C	-0.0989091028	-0.3131591582	 2.6049232981	-0.005008
H	 0.4966069399	-0.5731829617	-1.770510215	 0.29393
H	-0.3019114558	 1.0127984027	 0.2077762443	 0.111826
H	-2.0627188929	-0.8124209076	 0.3748096353	 0.102181
H	 0.8380475189	-1.6623682029	 1.1391493352	 0.09031
H	 2.7332493772	-0.4935062783	 1.9680451228	 0.11491
H	 2.1738112791	 1.0690571783	 1.3122533809	 0.12735
H	 1.4327522877	 0.5015417824	 4.15365485	 0.11068
H	-0.8714703307	-0.8842816969	 3.1072673664	 0.107585
