20
gdb 124439	3.1297	1.20183	1.07546	4.9358	80.	-0.249	0.0044	0.2534	1211.9772	0.171068	-399.342569	-399.333441	-399.332497	-399.376459	34.488	
C	-0.0188383022	 1.544247511	 0.0138923367	-0.400439
C	-0.015389735	-0.0011439356	 0.0170204831	 0.116131
C	 0.7507480135	-0.5148361922	 1.2569314233	-0.400491
C	-1.4663850618	-0.511715314	 0.0696196245	-0.407685
C	 0.6467648941	-0.5121717553	-1.2395808299	 0.385451
C	 0.2193387306	-1.301887124	-2.2849489787	-0.184405
N	 1.2354695809	-1.4628655032	-3.1800155205	-0.193156
N	 2.2802118602	-0.8171475985	-2.7556719005	-0.117472
N	 1.9333126677	-0.241201139	-1.5856004268	-0.260932
H	 0.9970956956	 1.9527113701	-0.0061309103	 0.104873
H	-0.5535055317	 1.9341030123	-0.8571367751	 0.128559
H	-0.509249359	 1.9239280504	 0.9161170737	 0.118883
H	 0.2692709431	-0.1597093564	 2.1738453398	 0.118901
H	 0.7707087509	-1.6082526147	 1.2812322561	 0.128565
H	 1.786894501	-0.1604254283	 1.2699036955	 0.104851
H	-2.0429924705	-0.1596702856	-0.7910449001	 0.124223
H	-1.502705622	-1.6051933299	 0.0814758142	 0.124225
H	-1.9583793885	-0.1479701252	 0.9768477696	 0.115102
H	-0.7441224114	-1.7568890652	-2.4436998692	 0.119763
H	 2.6178065246	 0.3103903433	-1.0939690954	 0.275054
