12
gdb 42260	2.90744	1.13871	1.01553	3.1022	67.96	-0.29	-0.1042	0.1858	1155.4156	0.074219	-435.430107	-435.421611	-435.420666	-435.464258	29.343	
O	 0.3284626132	 0.2859859441	 0.7927259194	-0.256851
C	 0.1602233655	 1.2884809896	 0.1514346418	 0.310905
C	 1.2373599766	 1.8593205508	-0.6850502534	 0.209341
N	 2.0675216267	 2.3217909601	-1.3438404731	-0.293043
C	-1.1054873183	 2.0933400533	 0.1245347789	-0.05889
O	-2.2545266825	 1.4878699524	 0.6753432683	-0.205055
C	-1.702010098	 2.5787247567	 1.4109708374	-0.159139
C	-1.1161190624	 2.3102261723	 2.6915198352	 0.35693
C	-0.6421137924	 2.1304418497	 3.7803118084	-0.400976
H	-1.2564945069	 2.7035054277	-0.7660427402	 0.13627
H	-2.2784291359	 3.5006478406	 1.3399733843	 0.141014
H	-0.2196890655	 1.9543705028	 4.739555463	 0.219494
