21
gdb 61516	2.4118	1.14773	0.94334	4.6111	82.59	-0.245	0.0317	0.2767	1352.9591	0.181618	-383.269689	-383.25965	-383.258705	-383.305064	36.783	
C	 0.5281607673	-1.1707638808	 1.11717291	-0.397674
C	-0.2516436049	-0.8293849219	-0.1681962806	-0.131919
C	 0.7012081026	-0.4727662245	-1.338513559	-0.282787
C	 0.0347154485	 0.130181102	-2.5665426402	 0.345994
C	-0.5486245755	 1.5185183034	-2.3872235152	-0.449592
C	 0.5794386758	-0.2548720068	-3.8972193085	-0.28602
N	-0.7429578444	-0.7388258178	-3.4687073031	-0.339036
C	-1.124850469	-1.9506715757	-0.5337275273	 0.285839
N	-1.7831518909	-2.8574617272	-0.8191060352	-0.333119
H	 1.2030899799	-2.0149779846	 0.9492847122	 0.138007
H	 1.1246427698	-0.307995735	 1.4265739111	 0.126541
H	-0.1503782559	-1.4338733466	 1.9321155533	 0.139349
H	-0.8996787786	 0.0305047992	 0.0379091302	 0.131361
H	 1.4379966647	 0.2405120075	-0.9483319501	 0.109729
H	 1.2561364539	-1.3757789137	-1.6179943335	 0.109665
H	 0.2249086076	 2.2348681097	-2.087576181	 0.11213
H	-0.9960614455	 1.8607043376	-3.3228949795	 0.135092
H	-1.3372849462	 1.5332680041	-1.6267248782	 0.119806
H	 0.5622886356	 0.4603886112	-4.7155565082	 0.115087
H	 1.4108535374	-0.9550396344	-3.9308559575	 0.108472
H	-0.6958241122	-1.7109628456	-3.1745742997	 0.243075
