20
gdb 121301	4.31338	0.86879	0.75157	2.7028	76.66	-0.2456	0.0282	0.2738	1514.1475	0.171881	-440.285258	-440.276214	-440.27527	-440.31972	32.44	
C	-0.0354884247	 1.3831952522	 0.0161361974	-0.228934
O	-0.0240872348	-0.0246305447	-0.0064126053	-0.238112
C	 0.6623032424	-0.5542175408	-1.120145363	-0.071677
C	 0.6117904864	-2.074504618	-1.0515923036	-0.055197
C	-0.8248062951	-2.5886230899	-1.106543439	-0.069182
O	-0.8683697522	-4.0231626338	-1.0960791726	-0.22536
C	 0.1223617685	-4.6479606768	-1.7751003538	 0.129048
N	 1.1563195722	-4.1663047412	-2.3205773641	-0.275748
C	 1.4003425309	-2.7326425886	-2.1923966442	-0.16793
H	 0.9837315868	 1.7981364945	 0.06191912	 0.106812
H	-0.5360192474	 1.8022745818	-0.8711196647	 0.105692
H	-0.5830977009	 1.6919644982	 0.9096452845	 0.130369
H	 0.2003255918	-0.1998540527	-2.0596225381	 0.086181
H	 1.7109627717	-0.2104274715	-1.1285483834	 0.092061
H	 1.0467380479	-2.3876206651	-0.0943985219	 0.099599
H	-1.4062906835	-2.2586708116	-0.2455149395	 0.135097
H	-1.3223381676	-2.2328062154	-2.0200270189	 0.105143
H	-0.0729654389	-5.7185756701	-1.8058244906	 0.121938
H	 1.1592360824	-2.2507570265	-3.1512907793	 0.107736
H	 2.4767877342	-2.5876375501	-2.0447641198	 0.112463
