19
gdb 81449	3.38853	1.33754	1.24211	2.0344	74.81	-0.2538	0.071	0.3248	1070.5657	0.160465	-422.986744	-422.979276	-422.978332	-423.018311	30.521	
O	-0.0182041431	 1.3483436858	-0.1575997483	-0.450911
C	 0.0011848943	-0.0565435458	-0.0454476059	 0.15242
C	 0.1252743257	-0.6203874852	 1.4097684139	-0.077062
C	-1.3745804592	-0.2274568056	 1.5782990606	-0.239397
C	-1.44070488	-0.62753892	 0.0699100941	-0.115008
C	-1.1374332432	-2.1140677169	 0.1493820774	 0.491893
C	-2.0846081465	-3.1962148921	-0.1108070466	-0.284379
O	-1.0459064641	-2.8777783174	-1.0503731039	-0.295598
C	 0.0343642863	-2.1379373771	 1.1555769216	-0.319135
H	 0.8744131226	 1.6711513624	 0.0016651497	 0.283563
H	 0.6499047722	-0.5090196189	-0.808189574	 0.073535
H	 0.8998639144	-0.2672833716	 2.0922905368	 0.058235
H	-1.9772215046	-0.802501934	 2.2867615886	 0.088641
H	-1.5155525329	 0.8416436311	 1.7240928355	 0.119261
H	-2.2369692722	-0.3085934529	-0.6009998529	 0.072669
H	-1.9712041641	-4.1512612012	 0.4018085683	 0.110393
H	-3.0976642062	-2.9675746454	-0.4411842967	 0.111929
H	 0.932041087	-2.5581001625	 0.691978061	 0.113756
H	-0.1878094163	-2.7061566627	 2.0635406709	 0.105195
