23
gdb 122436	4.6271	0.59567	0.56992	2.7979	83.71	-0.2551	0.079	0.3342	2022.0879	0.20239	-425.41559	-425.404412	-425.403468	-425.452718	39.814	
C	 0.1321195827	 1.4643641357	-0.2362834745	-0.455743
C	-0.0632617226	 0.0039228974	 0.1105565	 0.394224
C	-1.1681551127	-0.685115889	-0.6644622093	-0.451011
O	 1.1443294516	-0.7713725725	 0.2317501355	-0.300998
C	 0.3505920679	-0.5638350769	 1.4089736146	 0.018391
C	 0.984946857	 0.1879325545	 2.5550742608	-0.242415
C	 2.0189099942	-0.6728052796	 3.2931703504	-0.156254
C	 2.6691255848	 0.0576590284	 4.4598750381	-0.076004
O	 3.5868688155	-0.8318019202	 5.0770962396	-0.420782
H	 0.9885404564	 1.8963408717	 0.2827006216	 0.12794
H	 0.3044519317	 1.5714778264	-1.3129656566	 0.123994
H	-0.7613590569	 2.0461471238	 0.015802182	 0.118445
H	-0.9715997353	-0.6295325189	-1.7409113049	 0.12304
H	-1.2408604238	-1.7390910613	-0.3855270909	 0.125781
H	-2.1351792852	-0.2057847997	-0.4762743372	 0.117152
H	-0.1829725774	-1.4643477237	 1.7281297855	 0.077767
H	 1.4615313126	 1.1030117526	 2.1904291248	 0.10088
H	 0.1910215028	 0.4959035069	 3.2499008033	 0.097437
H	 1.5473470671	-1.5867047156	 3.6749828177	 0.104439
H	 2.7986582409	-0.9896199876	 2.5921068451	 0.124588
H	 3.1775652976	 0.9650750192	 4.0933653043	 0.083905
H	 1.8934429589	 0.3873466298	 5.1717256802	 0.080401
H	 4.0123721921	-0.3685890414	 5.8042866399	 0.284824
