19
gdb 95125	2.55752	1.49961	1.13995	1.5953	76.29	-0.2506	-0.0288	0.2218	1116.0038	0.158846	-423.037857	-423.029396	-423.028452	-423.070861	31.924	
C	 0.025498243	 1.5842087475	-0.2942065646	-0.405395
C	 0.029940274	 0.0881201613	-0.0211919921	 0.052793
O	 0.7213873829	-0.5639292442	-1.0889888329	-0.267628
C	 1.1942882456	-1.8228315048	-0.6268327742	-0.100308
C	 1.5319011005	-1.6223359858	 0.8400604367	-0.08713
C	 2.2624114781	-0.3755174559	 1.2011348227	-0.327844
C	 0.7458294168	-0.3677012394	 1.2476127269	 0.228742
C	 0.0613864543	-0.3419076987	 2.5576841499	 0.064443
O	 0.5907057935	-0.5859862893	 3.6170628391	-0.273189
H	 1.0437890553	 1.9824135472	-0.294647152	 0.125753
H	-0.4267908901	 1.7880225079	-1.2684994491	 0.130752
H	-0.5543969393	 2.1103094793	 0.4704990681	 0.118903
H	-1.0129971519	-0.274807578	 0.0265923412	 0.069148
H	 0.4255874506	-2.6051265109	-0.7320314514	 0.098128
H	 2.0530844265	-2.0974986047	-1.2482723444	 0.116513
H	 1.5595647142	-2.4736095318	 1.5098755144	 0.113786
H	 2.7483254708	-0.3496219917	 2.1694287628	 0.142467
H	 2.7348751534	 0.1963864709	 0.4097643888	 0.130223
H	-1.0232081983	-0.090434449	 2.5097765901	 0.069844
