18
gdb 72672	2.39193	1.491	1.43909	2.1749	78.49	-0.2278	0.0186	0.2464	1042.4552	0.14605	-401.871196	-401.862518	-401.861574	-401.904208	33.212	
C	-0.1593288019	 1.550465995	-0.0261105073	-0.4771
C	 0.0131875937	 0.0591593709	 0.0327903199	 0.372754
C	-1.2121912392	-0.8765661361	 0.1337368954	-0.207305
N	-0.4844174932	-1.7568891819	 1.0969553836	-0.367858
C	 0.6511623225	-0.7897222747	 1.1953714694	 0.094087
C	 1.7361587023	-1.1271637437	 0.1506298592	-0.102961
O	 1.0059130365	-0.4376934861	-0.8908430609	-0.331051
C	 1.0106057314	-0.3105087738	 2.4994217369	 0.212277
C	 1.2972066891	 0.0899099021	 3.5977295627	-0.433834
H	 0.8030673144	 2.0558173767	 0.0925457276	 0.131396
H	-0.5783109463	 1.8394967457	-0.9968294716	 0.133019
H	-0.8376864975	 1.8972274315	 0.7589735572	 0.123929
H	-2.0935427019	-0.379254	 0.5572500521	 0.099218
H	-1.4904154454	-1.3780688786	-0.7978673453	 0.113661
H	-0.9672286271	-1.8650786917	 1.9813343581	 0.225983
H	 2.7089608041	-0.6561328037	 0.3350434171	 0.10467
H	 1.8542015923	-2.1959170487	-0.0508895305	 0.113566
H	 1.5572929261	 0.4440908571	 4.5646318865	 0.195549
