14
gdb 9083	6.33168	0.9727	0.8821	1.6882	60.15	-0.2843	0.0006	0.2849	1207.3572	0.106553	-415.878646	-415.870201	-415.869257	-415.912263	28.785	
N	-0.3540053939	 1.2821589679	 0.3667310842	-0.497712
C	-0.1709939381	-0.1226365914	 0.0131688954	-0.126543
C	-1.5415380958	-0.8231643246	-0.0867308166	-0.082566
O	-2.1328596531	-0.9011035116	 1.198743012	-0.177274
C	-2.962394376	 0.1031141418	 1.5773207577	 0.191961
O	-3.4192372525	 0.1672951031	 2.6754592019	-0.26794
C	 0.5881737121	-0.3309665965	-1.2363685123	 0.252315
N	 1.1631818344	-0.4519635426	-2.231952418	-0.307342
H	 0.5089044952	 1.6814467704	 0.7197486014	 0.256644
H	-0.6208011453	 1.8243136459	-0.4497201412	 0.248522
H	 0.3744797497	-0.6090600204	 0.8289250066	 0.155255
H	-2.1862502367	-0.2807455549	-0.7905460186	 0.125643
H	-1.4217301105	-1.8471610427	-0.4463024156	 0.14848
H	-3.1755707196	 0.8125760855	 0.7582845031	 0.080557
