17
gdb 78532	2.43576	1.6096	1.27327	1.9901	67.76	-0.232	0.0517	0.2837	1042.4694	0.133325	-458.87636	-458.868027	-458.867083	-458.908633	32.828	
C	-0.1299230209	 1.4732606155	 0.0553048509	-0.501013
C	 0.1233139453	 0.0049425171	 0.0079429729	 0.433732
O	-0.8108856367	-0.8778933878	 0.6957298249	-0.316017
C	 0.6028970508	-0.9646201388	 0.9869427503	-0.129339
C	 1.3172740786	-1.7969523497	-0.1266457529	 0.264756
O	 2.6225147158	-2.2195054202	 0.0376852414	-0.448617
C	 0.3978107844	-2.243796179	-1.2276703006	 0.070755
O	-0.8676387159	-2.8006631252	-1.1386661369	-0.425815
C	 0.7906247722	-0.7757185022	-1.1637126466	-0.277124
H	 0.782692876	 2.0261680011	-0.1890316833	 0.13486
H	-0.9007272334	 1.7580821521	-0.6696101677	 0.136765
H	-0.4652153879	 1.7694211943	 1.0525814766	 0.137808
H	 0.9168481201	-0.8647825817	 2.0200991714	 0.115211
H	 2.609301585	-3.1502602077	 0.288962976	 0.2937
H	 0.9674340918	-2.7470318536	-2.0079676816	 0.113476
H	-1.3163608422	-2.3054747165	-0.4390853049	 0.295237
H	 1.325086927	-0.2811226077	-1.9654979597	 0.101625
