23
gdb 59759	2.55736	1.24059	0.96614	1.6754	81.32	-0.2402	0.0643	0.3045	1320.6966	0.205109	-425.433348	-425.423245	-425.422301	-425.468496	37.352	
C	-0.0513010121	 1.5648233932	 0.0485207362	-0.399943
C	 0.0494644348	 0.0324266874	 0.0852883159	 0.026033
C	 0.7286424295	-0.4359277562	 1.37969167	-0.398477
C	-1.3330568551	-0.6141852648	-0.0935699366	 0.006441
C	-2.0500981717	-0.2846461439	-1.4141235904	-0.081399
O	-3.0151477916	-1.3152116619	-1.621999846	-0.266484
C	-2.7290640532	-2.4177094452	-0.7708456083	-0.085951
C	-1.3628794466	-2.1527215382	-0.1295494901	 0.065791
O	-0.2835018585	-2.5874575586	-0.9495056151	-0.436179
H	 0.9364086976	 2.0208927726	 0.1719459079	 0.110675
H	-0.4655438088	 1.9266395307	-0.8976771322	 0.116855
H	-0.6909249287	 1.9381020269	 0.8577917702	 0.109423
H	 0.6720861946	-0.2926432929	-0.756127835	 0.094197
H	 0.8956950043	-1.5163527843	 1.3722907347	 0.123139
H	 1.7020341668	 0.0501558258	 1.5036026287	 0.108324
H	 0.1222995974	-0.1872349152	 2.2594773481	 0.105098
H	-1.9802943701	-0.3021321795	 0.7384181341	 0.072443
H	-2.5744065675	 0.6757307985	-1.3912370909	 0.101391
H	-1.3322953764	-0.2679536513	-2.2476263238	 0.099138
H	-3.5093250184	-2.5100298072	 0.0004094819	 0.090638
H	-2.7273456418	-3.3457753761	-1.3590258505	 0.087216
H	-1.2952415671	-2.5999521049	 0.871553127	 0.066824
H	-0.3831298674	-3.5318251652	-1.1028646156	 0.284805
