18
gdb 42083	3.87111	1.29643	1.26784	2.9081	71.06	-0.2519	0.0263	0.2782	1057.8276	0.150153	-439.117788	-439.110323	-439.109379	-439.150635	28.329	
C	 0.0103447487	 1.5285949699	 0.223251967	-0.219039
C	 1.4845612885	 1.8695436116	-0.0472465972	-0.092771
O	 1.9075856164	 0.9023375594	-1.0109159912	-0.260942
C	 1.3275148096	-0.3202585461	-0.6707571978	 0.473948
C	-0.0434270001	 0.0055168937	-0.0437922643	-0.30628
C	 1.4308269495	-1.3025073956	-1.8572393417	-0.253083
N	 2.4704663913	-2.2728679648	-1.4928234158	-0.264012
C	 2.7783502157	-1.9960395616	-0.2953498519	 0.106578
O	 2.1590983941	-0.9753409192	 0.3443445519	-0.259573
H	-0.2969038078	 1.7942447353	 1.2368863783	 0.110759
H	-0.6372106072	 2.0658202247	-0.4744302535	 0.113663
H	 1.6442683585	 2.8589207763	-0.4805837149	 0.112783
H	 2.0906102677	 1.7795117423	 0.8638784023	 0.110295
H	-0.1790425838	-0.5810521268	 0.8661659918	 0.126742
H	-0.8484833047	-0.2564080041	-0.7339033458	 0.116201
H	 0.485921098	-1.8247542469	-2.0417666443	 0.115623
H	 1.7031831113	-0.7584688571	-2.7654747753	 0.133107
H	 3.5125722243	-2.525039811	 0.3027276724	 0.136002
