21
gdb 108101	3.39958	1.33427	1.28629	1.4946	80.5	-0.2255	0.0928	0.3183	1108.0764	0.184936	-387.098202	-387.090584	-387.08964	-387.130256	30.996	
C	 0.1621125939	 1.4913215466	-0.2149762903	-0.377273
C	-0.1001660026	 0.0197041252	 0.1320307904	-0.299426
C	 0.6530006618	-0.4623241757	 1.3456669247	 0.321139
C	 0.5231545846	 0.1611941561	 2.7363827381	-0.283575
C	 1.5819491902	-0.7371096287	 3.412015278	 0.052096
C	 1.0706385805	-2.1593176258	 3.0883697954	-0.231264
C	 1.0020463534	-1.9402283138	 1.5824840845	-0.174705
C	 2.0936760259	-0.9263129363	 1.3122830948	 0.055425
O	 2.7177220023	-0.5990675639	 2.5400112672	-0.262251
H	 1.2282691648	 1.6709367168	-0.3881526327	 0.119698
H	-0.381302892	 1.7831602822	-1.1189165019	 0.110422
H	-0.1584986468	 2.1558803778	 0.5935502502	 0.118726
H	-1.177424735	-0.1338575412	 0.2837027927	 0.096193
H	 0.1718328677	-0.6081248013	-0.7263492558	 0.094316
H	 0.8098872923	 1.2162514606	 2.7597028141	 0.103409
H	-0.4722804399	 0.045227373	 3.1762203631	 0.095666
H	 1.8737389934	-0.5129428706	 4.4357931433	 0.078319
H	 1.7909258879	-2.9303611008	 3.3761893806	 0.104646
H	 0.1026032745	-2.3740532311	 3.5499453024	 0.098106
H	 0.7356175674	-2.7140255374	 0.8746001191	 0.082994
H	 2.7467815857	-0.9071169618	 0.4508798724	 0.097335
