21
gdb 113546	2.95876	1.02824	0.95039	2.2873	80.06	-0.2245	0.0626	0.2872	1375.6273	0.180658	-424.18945	-424.17974	-424.178796	-424.224442	35.753	
C	-0.3722629797	 1.4402652291	 0.1487921805	-0.371472
C	 0.3263375864	 0.0936907574	-0.0680459141	-0.195122
C	 0.9090764199	-0.4831548626	 1.205191047	-0.064465
C	 0.0160429801	-1.2451757649	 2.1816692619	-0.378457
C	 1.0411477398	-1.9627840844	 1.3712663435	 0.428925
O	 0.6959334195	-2.8897654528	 0.3361024049	-0.306347
C	 1.9622470757	-3.5716368792	 0.4933079444	-0.104389
C	 2.2849058204	-2.7449774213	 1.7643300678	-0.027238
O	 3.4603429732	-1.9738790542	 1.7820399531	-0.424277
H	 0.3230149027	 2.1876505649	 0.5469275287	 0.111566
H	-0.7801690029	 1.830620935	-0.7890959109	 0.108672
H	-1.1979981031	 1.3454654337	 0.8618890355	 0.115125
H	-0.3738983403	-0.6302088897	-0.4995364547	 0.109678
H	 1.1303027985	 0.2102942292	-0.8060870478	 0.098628
H	 1.7120634935	 0.0967713321	 1.6545088157	 0.096403
H	 0.1754739314	-1.1337512676	 3.2498383815	 0.109784
H	-1.0193454479	-1.3958898271	 1.8902609984	 0.118759
H	 1.829651122	-4.6526107009	 0.6082818662	 0.100634
H	 2.6524438563	-3.3589613755	-0.3323715983	 0.104937
H	 2.1652358626	-3.3187866482	 2.6923201517	 0.079491
H	 4.1637964719	-2.495459553	 2.1796735553	 0.289165
