19
gdb 72156	2.71944	1.95807	1.81446	0.2689	73.17	-0.2328	0.0935	0.3263	883.318	0.162181	-423.024406	-423.017891	-423.016947	-423.054826	28.113	
C	-0.0866388068	 1.479268621	 0.0083151081	-0.501799
C	 0.0222905952	-0.0207499847	-0.0454364949	 0.377217
C	 0.6626728378	-0.7370425141	-1.2547542374	-0.227771
C	 0.5972338287	-2.0826029579	-0.517695031	 0.032932
O	 1.5318291087	-1.7936475296	 0.5368699872	-0.267639
C	 0.7236030634	-0.8018455816	 1.190749763	 0.007791
C	-0.4093666334	-1.7177694938	 1.6840273742	-0.203839
C	-0.8302419068	-1.9806890508	 0.2274897197	 0.045356
O	-1.2738146187	-0.6584156358	-0.1090846245	-0.298542
H	 0.9079137501	 1.9348536421	-0.0040420356	 0.124016
H	-0.6482970946	 1.8548350709	-0.8523642688	 0.130823
H	-0.6039633734	 1.8017913524	 0.9171967281	 0.125978
H	 0.0256329974	-0.6248226737	-2.1332892096	 0.102237
H	 1.6992874777	-0.4833809707	-1.4812091487	 0.102511
H	 0.8519109876	-3.0096047342	-1.0267776794	 0.081786
H	 1.3102884743	-0.215620112	 1.8953887519	 0.078487
H	 0.0030448426	-2.5607363233	 2.240038098	 0.104486
H	-1.2260843429	-1.2434227718	 2.2294251157	 0.104439
H	-1.5888344269	-2.7248406824	-0.0054401457	 0.081533
