18
gdb 54028	2.10895	1.30301	0.94094	2.2483	73.54	-0.2469	-0.0578	0.189	1281.6798	0.144679	-439.079355	-439.069567	-439.068623	-439.115318	33.852	
C	-0.4031930499	 1.445546392	 0.225906671	-0.48539
C	-0.1016229502	-0.0348613679	 0.2433743713	 0.378281
O	 0.9302394722	-0.5046126108	 0.6550536503	-0.285885
C	-1.212608704	-0.9466212184	-0.3382270957	-0.228629
C	-1.0627254369	-0.8989482222	-1.8620285257	 0.148868
O	-1.4921792825	-0.0116573997	-2.5523666949	-0.243343
C	-1.1118324169	-2.3602769919	 0.1870571161	 0.027045
C	-1.9142565507	-2.7890139234	 1.3558226999	-0.245579
N	-2.232005282	-3.2998603931	 0.0090369	-0.330193
H	 0.4982551359	 2.0163559831	 0.4513300382	 0.146414
H	-0.8190063487	 1.7355758765	-0.7442383595	 0.166933
H	-1.1686759361	 1.6658312578	 0.9799659325	 0.146107
H	-2.1839437155	-0.4939257938	-0.1063702177	 0.103929
H	-0.4919167381	-1.7492306942	-2.2931541636	 0.108425
H	-0.1342023728	-2.8117039296	 0.0452887447	 0.119691
H	-1.5161959905	-3.5277470171	 2.0446889003	 0.130916
H	-2.5847864764	-2.0632339325	 1.8097508918	 0.111353
H	-3.0462579169	-2.810949375	-0.357517479	 0.231055
