21
gdb 95297	2.03587	1.80219	1.38733	1.8078	76.87	-0.2473	0.0672	0.3145	1057.3216	0.183273	-424.22855	-424.219965	-424.219021	-424.261328	34.264	
O	-0.071792579	 1.448954912	 0.0296509538	-0.450967
C	-0.0242112126	 0.0324596333	 0.1169813554	 0.062492
C	 0.5163314445	-0.5458288258	 1.4347185801	-0.265338
C	-0.0420960956	-1.9839809521	 1.4369420109	-0.230093
C	-1.4581929816	-1.8379388887	 0.8536188461	-0.037781
C	-2.5079494446	-1.1740596955	 1.7950291696	-0.226533
C	-2.5172028165	 0.1010786908	 0.9052149448	-0.284315
C	-1.4430143266	-0.5434740256	-0.0206692705	 0.433957
O	-1.8256093451	-0.7342720305	-1.3650085055	-0.500345
H	 0.8292196723	 1.7844644653	 0.0601795402	 0.284229
H	 0.5568509697	-0.382396198	-0.7226550704	 0.068795
H	 1.6081796774	-0.5060029332	 1.5029946961	 0.088187
H	 0.1131191652	 0.0357291433	 2.2722082626	 0.108251
H	 0.5685556653	-2.6205700727	 0.785841049	 0.100373
H	-0.0382176102	-2.4409733139	 2.4315461156	 0.096944
H	-1.8136459054	-2.7324639529	 0.3402166306	 0.072591
H	-3.4637020596	-1.6995189396	 1.8471258121	 0.100237
H	-2.1522220552	-1.0175983678	 2.8176474141	 0.093734
H	-3.457109604	 0.2602415867	 0.3726459928	 0.099133
H	-2.2173836746	 1.0340471459	 1.3860779053	 0.10824
H	-1.8039909038	 0.131196579	-1.7904177426	 0.278211
