21
gdb 121215	2.33809	1.11485	0.82384	1.8363	80.31	-0.2441	-0.0218	0.2222	1443.1404	0.180685	-424.210625	-424.200717	-424.199773	-424.246412	34.86	
C	-0.1561469065	 1.3259833158	-0.1861413536	-0.226144
O	 0.0225562252	-0.0674768012	-0.117963702	-0.234225
C	 0.7064009715	-0.5875084905	-1.242259361	-0.074044
C	 0.8465338461	-2.0877612016	-1.0226568974	-0.031574
C	-0.5161865053	-2.8412816918	-1.0479086059	-0.20931
C	-0.2186232707	-3.3337196041	-2.4905957825	-0.244868
C	 1.2765979098	-2.9330715744	-2.2600822352	-0.087084
C	 2.0183892049	-2.3549969434	-3.4291339859	 0.138933
O	 2.5547417065	-1.2753090463	-3.4735249976	-0.249295
H	 0.8056630923	 1.8604851003	-0.2372683122	 0.105167
H	-0.7547775603	 1.6204932788	-1.0633521343	 0.101221
H	-0.6839720467	 1.634669588	 0.719853073	 0.123201
H	 0.1393332111	-0.3722990672	-2.1646832595	 0.079026
H	 1.6906187688	-0.114416737	-1.3574537362	 0.111756
H	 1.449651204	-2.2486085702	-0.1257750402	 0.081117
H	-0.5461667655	-3.666220393	-0.3319701656	 0.10327
H	-1.4023732023	-2.2212953494	-0.9045253723	 0.115338
H	-0.4218361275	-4.3807218314	-2.7233651095	 0.105875
H	-0.6964627702	-2.7103623577	-3.2515988599	 0.112815
H	 1.8381244261	-3.8217965257	-1.942246733	 0.103171
H	 2.0352162088	-3.032356058	-4.317085219	 0.075653
