21
gdb 93061	2.32075	1.53233	1.05223	0.4322	94.87	-0.209	-0.0297	0.1793	1216.1682	0.184249	-349.968528	-349.960086	-349.959142	-350.001199	33.374	
C	 0.1866539304	 1.6673199443	 0.0642460224	-0.407429
C	 0.0126461406	 0.1416458733	-0.0023754218	-0.03575
C	 0.581319937	-0.4085958833	-1.323466297	-0.244668
C	 0.2227117328	-1.8218260939	-1.6845534695	-0.060977
C	-0.542907521	-2.7517422208	-1.0909455373	-0.067504
C	-1.2607706226	-2.8380073096	 0.18261128	-0.101364
C	-0.934727563	-2.4155800746	 1.4196036645	-0.102386
C	 0.2116100119	-1.6102997979	 1.8180307311	-0.102601
C	 0.6542963121	-0.5148862915	 1.1909687588	-0.036197
H	 1.246444204	 1.9439715089	 0.0075044186	 0.1123
H	-0.3312103442	 2.1604997771	-0.7645297798	 0.112054
H	-0.2126651491	 2.0695783264	 1.0003368413	 0.116295
H	-1.0588247317	-0.0896038061	 0.0123808618	 0.09259
H	 0.2500923963	 0.2323564156	-2.156208155	 0.100117
H	 1.6762945881	-0.307037946	-1.314340729	 0.106371
H	 0.6084773261	-2.1059658862	-2.6637279148	 0.086004
H	-0.6958917721	-3.6510462771	-1.6888944076	 0.085872
H	-2.147481039	-3.4682305506	 0.1201424951	 0.087631
H	-1.5713585661	-2.758741271	 2.2342895874	 0.089811
H	 0.7140163175	-1.9220965516	 2.7329556659	 0.088456
H	 1.5383211217	-0.0144773352	 1.5856048349	 0.081374
