20
gdb 62156	2.22213	0.87467	0.68937	4.0564	77.88	-0.2495	-0.0213	0.2281	1640.8367	0.168202	-440.326941	-440.316258	-440.315314	-440.36506	36.348	
C	 0.0633901218	 1.8213446016	 0.2080145894	-0.40439
C	-0.0236647965	 0.2989782051	 0.0662588071	 0.033144
C	 0.6542580746	-0.4205703426	 1.2464917856	-0.192946
C	 0.6333263488	-1.9549263499	 1.1314723359	-0.271778
C	 1.4814756128	-2.5944051162	 2.205548225	 0.155579
O	 1.0759919834	-3.348052347	 3.0521847425	-0.236182
N	-1.4159052498	-0.112017455	-0.098744243	-0.272249
C	-1.8387178045	-0.9408512189	-1.0909505866	 0.158253
O	-1.1231045165	-1.4608792017	-1.921645952	-0.329319
H	 1.1057607254	 2.1428764089	 0.2898755103	 0.126637
H	-0.3828411857	 2.3177074055	-0.6578218035	 0.13009
H	-0.460393034	 2.1661381706	 1.1079523408	 0.114414
H	 0.4700952806	-0.0116760262	-0.8592720724	 0.12556
H	 1.6923938512	-0.0684357491	 1.3042921821	 0.106345
H	 0.1731879158	-0.1170495991	 2.1861537461	 0.104115
H	-0.3835105297	-2.3464261082	 1.2074004341	 0.123682
H	 1.0389565843	-2.2480823231	 0.1535482508	 0.136403
H	 2.5584951137	-2.3013861218	 2.1714521756	 0.068465
H	-2.1064499444	 0.2604037437	 0.535318375	 0.24539
H	-2.9357749814	-1.0932639766	-1.0593431527	 0.078789
