20
gdb 17677	3.80745	1.45694	1.2526	1.6084	75.01	-0.2411	0.0645	0.3056	1054.1962	0.176939	-345.135742	-345.126996	-345.126052	-345.168849	32.698	
C	 0.1360205036	 1.1440085339	-0.547254118	-0.400914
C	 0.29888324	-0.1952015763	 0.1311155617	-0.023026
N	 1.6460195014	-0.560465292	 0.6117483445	-0.379195
C	 0.5514186101	-0.4001588029	 1.5893067874	 0.282466
C	 0.7125381899	 0.7659993601	 2.5470282264	-0.448864
C	-0.0548918603	-1.612213887	 2.2489096168	-0.026768
C	 0.1378234403	-2.9980997932	 1.7659552037	-0.268072
N	 0.784589074	-2.5562595848	 3.0165606947	-0.324206
H	 0.7601288034	 1.9096301023	-0.0827188273	 0.127861
H	 0.4279759168	 1.0732269514	-1.600705401	 0.121241
H	-0.9076742391	 1.4749911784	-0.5107528261	 0.116728
H	-0.2721849932	-0.997411008	-0.3361108603	 0.080361
H	 1.8408222417	-1.5401545266	 0.4197765159	 0.221399
H	 1.2166950103	 1.6072655686	 2.0700684582	 0.127851
H	-0.2618939418	 1.1042420272	 2.9168743969	 0.115904
H	 1.3106078832	 0.4644227387	 3.413703026	 0.125514
H	-0.9938965585	-1.3927159458	 2.7556368255	 0.093026
H	-0.6568855494	-3.7277617693	 1.8936586478	 0.12204
H	 0.7576829814	-3.1746714484	 0.8894940677	 0.104781
H	 1.7647667762	-2.3517161064	 2.8275811797	 0.231873
