19
gdb 90177	3.42949	1.44208	1.37231	1.8117	73.74	-0.2206	0.0612	0.2818	1006.4755	0.160577	-422.976425	-422.968998	-422.968054	-423.007788	30.531	
O	-0.6179908654	 1.1694625638	-1.0689009303	-0.423365
C	-0.0690757548	 0.247318848	-0.1286987096	 0.091983
C	-1.2405409448	-0.664188723	 0.3505697022	-0.290435
C	-1.1871896432	-1.876135931	-0.5576670535	 0.156501
C	-1.1112058739	-1.7045437041	-2.0668439077	-0.375951
C	 0.1419005877	-1.8663531205	-1.2725953804	 0.39572
C	 0.9785721687	-0.7121154179	-0.7839866539	-0.326206
O	 0.425612108	-3.2460898425	-0.9790845529	-0.32982
C	-0.80161315	-3.3135599384	-0.192109953	-0.143439
H	 0.1007643749	 1.7118152964	-1.4091208534	 0.283669
H	 0.377370854	 0.8015091525	 0.7090059188	 0.072602
H	-1.0650429227	-0.9720745356	 1.3872347344	 0.100902
H	-2.1752960543	-0.0969376709	 0.326134094	 0.117598
H	-1.4246590079	-2.5246164384	-2.7055704498	 0.11308
H	-1.3286753793	-0.7076153591	-2.430289358	 0.140373
H	 1.5669251068	-0.1920690681	-1.5486408062	 0.095471
H	 1.6741398407	-1.0849072843	-0.0242339218	 0.115111
H	-0.5742200306	-3.445746624	 0.8729989899	 0.101796
H	-1.458512084	-4.124054443	-0.5299022186	 0.104411
