15
gdb 87342	1.90658	1.46016	0.96094	3.4351	69.11	-0.2574	-0.0227	0.2347	1207.912	0.110925	-453.945442	-453.936382	-453.935437	-453.979772	31.898	
N	-0.0032706626	 1.4141802238	 0.0537072115	-0.497875
C	-0.0319987056	-0.0085998221	 0.1069956066	-0.012648
C	-0.6584237335	-0.721583995	 1.2582568808	-0.345301
C	-1.3410563503	-0.8056754034	-0.1035324445	 0.208304
O	-2.4690756908	 0.0152788994	-0.3138663214	-0.230521
C	-3.6520066318	-0.4097743757	 0.2188976265	 0.163831
O	-4.6477800359	 0.2323753132	 0.1151442212	-0.249641
C	-1.3231171506	-2.0327097148	-0.8502091889	 0.255117
N	-1.282464586	-3.0211558626	-1.4515274859	-0.333424
H	 0.1033481216	 1.7333381751	-0.9044040603	 0.250303
H	-0.8680557018	 1.8136237559	 0.4034480933	 0.249589
H	 0.8445320984	-0.4744030721	-0.3309844399	 0.13516
H	-0.1879212573	-1.6176051971	 1.6452606332	 0.154136
H	-1.1796684766	-0.1219559048	 1.9980941817	 0.143794
H	-3.5650845772	-1.3833585197	 0.7321716361	 0.109176
