19
gdb 30729	3.00884	1.18035	0.9095	2.8311	80.22	-0.1753	0.0465	0.2218	1315.5426	0.159861	-419.238792	-419.229081	-419.228136	-419.273668	35.732	
C	 0.1171885772	 1.5488281803	 0.3099538044	-0.362701
C	 0.0128700714	 0.0508174411	-0.0332398241	-0.302639
C	-1.3857470658	-0.4694252976	-0.0915591481	 0.208979
C	-2.1733667102	-0.8308222722	-1.1611562763	 0.246318
O	-1.8260899548	-0.8077391214	-2.4763281279	-0.461623
C	-3.446576516	-1.2474302922	-0.6796684117	 0.072391
N	-4.4608250977	-1.6856373508	-1.5859926967	-0.626018
C	-3.4142345756	-1.1301520074	 0.6955941652	-0.155063
N	-2.1743027385	-0.6595230192	 1.0349358799	-0.308835
H	 1.1624954358	 1.8741860033	 0.336348197	 0.107973
H	-0.4126404524	 2.1530270499	-0.4322842423	 0.126141
H	-0.3244917347	 1.7660843358	 1.2887420502	 0.102695
H	 0.4709193745	-0.1304305504	-1.0106681908	 0.126547
H	 0.6041078741	-0.5265241649	 0.692262838	 0.093971
H	-2.6068149406	-1.1445765647	-2.9414821251	 0.28966
H	-5.285397561	-1.0950087293	-1.5509851899	 0.239669
H	-4.7638242884	-2.6339286686	-1.3896996253	 0.239435
H	-4.1601252888	-1.3450853884	 1.4441229992	 0.108149
H	-1.8610706085	-0.4969446533	 1.9750930044	 0.254951
