20
gdb 36795	4.75066	0.61089	0.58398	1.0267	82.28	-0.2349	0.0328	0.2676	1921.7183	0.168569	-403.061078	-403.051104	-403.05016	-403.097586	35.359	
C	-0.369265365	-0.7321547563	-0.7001306404	-0.464682
C	-0.3053387332	 0.3409846877	-0.1627789189	 0.311973
C	-0.217847002	 1.6502090418	 0.4922067915	-0.210723
O	 1.1039165011	 2.1003447249	 0.7026709408	-0.234001
C	 1.801085272	 2.4151900725	-0.4904844505	-0.059725
C	 3.1917788757	 2.894845023	-0.0951015555	-0.156417
N	 3.9602531474	 3.2271139	-1.2869622803	-0.065824
C	 3.8905166086	 4.6148203983	-1.7377620376	-0.220225
C	 5.1198128424	 4.0862893423	-1.0856403762	-0.217893
H	-0.4295300852	-1.6817490465	-1.1720067793	 0.202526
H	-0.7909268081	 2.3876404787	-0.0947240416	 0.117031
H	-0.6782380725	 1.596151206	 1.4846350171	 0.138903
H	 1.8796112153	 1.5382293544	-1.146667715	 0.116544
H	 1.2676432125	 3.2032495441	-1.0482866668	 0.085922
H	 3.0979156342	 3.7450129386	 0.6038561649	 0.086659
H	 3.7072609673	 2.0890036349	 0.4387601336	 0.115266
H	 3.8538448231	 4.7635137534	-2.8130288584	 0.117337
H	 3.2826943461	 5.3097076102	-1.1593637414	 0.109542
H	 5.3304672003	 4.4296300692	-0.0737600514	 0.11027
H	 5.9984201599	 3.8409826628	-1.6754455447	 0.117517
