18
gdb 82169	2.8928	1.66137	1.30774	3.7025	70.18	-0.2376	0.0631	0.3007	1007.1248	0.148033	-439.041705	-439.033905	-439.03296	-439.073584	31.044	
C	-0.0765358972	 1.5433532265	 0.0350208911	-0.500494
C	 0.1588279426	 0.0601408937	-0.021223257	 0.442415
O	-0.4898661402	-0.7386268425	 0.9775283963	-0.285449
C	 0.9445683982	-0.7273236938	 0.9445692806	-0.077972
C	 1.528656992	-1.9781079637	 0.2673973682	 0.117182
O	 1.0734689271	-3.1778497372	 0.8504524388	-0.437633
C	 1.1259739388	-1.8371791007	-1.2125594237	-0.07914
N	-0.3275255466	-1.9942016223	-1.4069691917	-0.332294
C	 0.2660992428	-0.6399226153	-1.3754328009	-0.128251
H	 0.6754686801	 2.0798450586	-0.5537429117	 0.122833
H	-1.0631152045	 1.7938414948	-0.3702824178	 0.132717
H	-0.0312012793	 1.8995230102	 1.0668452202	 0.134639
H	 1.42605664	-0.3056605146	 1.8247908528	 0.093585
H	 2.6197731261	-1.9753840514	 0.3613175639	 0.084456
H	 0.1178813163	-3.1770835964	 0.6994603216	 0.300269
H	 1.8019102037	-2.1883482492	-1.985347472	 0.091034
H	-0.5107289001	-2.2569399542	-2.3727554488	 0.235379
H	 0.2639041002	-0.0364572626	-2.27708051	 0.086724
