17
gdb 48796	2.84529	1.4623	1.15312	1.1117	75.03	-0.243	-0.0428	0.2002	1075.6682	0.136078	-417.937588	-417.929753	-417.928809	-417.969935	29.953	
O	-0.1298878441	 0.2097865302	-0.7574269629	-0.285746
C	 0.0662249934	 1.015247293	 0.1286198032	 0.051174
C	 1.2294515098	 1.9038697814	 0.1659244044	 0.155632
N	 2.0848023335	 2.0555922047	-1.0421459558	-0.357725
C	 2.6743998999	 1.4137435753	 0.1183165785	-0.076816
C	 3.1094414236	 2.5080851257	 1.1047210102	-0.295334
C	 1.644260958	 2.9982997906	 1.1355900202	 0.29848
C	 1.0700224018	 4.3477135828	 1.2869416796	-0.294144
N	 0.9732756816	 3.3510718528	 2.3813213303	-0.371805
H	-0.6326681847	 1.1037862189	 0.9877848672	 0.074069
H	 1.7718031442	 1.3201925676	-1.6812018258	 0.253576
H	 2.997114087	 0.379913592	 0.0913539364	 0.122155
H	 3.4139067946	 2.1149423442	 2.0766982002	 0.12559
H	 3.8607053634	 3.2023687761	 0.7216936829	 0.120191
H	 1.7187894591	 5.1918354718	 1.5027071877	 0.127125
H	 0.1773917544	 4.5925366875	 0.7172553888	 0.118495
H	 0.0346988644	 2.9604546156	 2.4178436251	 0.235081
