21
gdb 63065	3.13611	1.4158	1.33953	2.086	82.34	-0.2104	0.0697	0.2801	1081.1642	0.183609	-383.22235	-383.214103	-383.213159	-383.254484	33.256	
C	-0.2954643281	 1.593171855	 0.0577890028	-0.475898
C	-0.0535281716	 0.0996485951	-0.0418095539	 0.317358
C	-1.119592808	-0.7012231653	 0.692506424	-0.431935
C	 0.6034507016	-0.6043375875	-1.1912324441	-0.075962
C	 1.4874598634	 0.033790808	-2.2341861981	-0.051529
N	 1.7361751057	 1.491343263	-2.1446037186	-0.333166
C	 2.6993718975	 0.549284129	-1.5443217652	-0.03919
C	 2.4994603152	 0.3073054722	-0.0473085197	-0.180553
N	 1.2814922044	-0.5207586167	 0.1323040184	-0.152523
H	 0.4298013031	 2.1848937277	-0.4920876459	 0.15933
H	-1.2899238564	 1.8275797945	-0.3381561274	 0.111663
H	-0.2911612614	 1.8886166789	 1.1147527045	 0.10594
H	-2.1068152984	-0.5351750634	 0.2465816854	 0.108186
H	-0.896075393	-1.7702799806	 0.6642149874	 0.119037
H	-1.1681867367	-0.39421647	 1.7433676222	 0.113801
H	 0.2264696483	-1.5873187511	-1.4713117096	 0.076405
H	 1.5368390909	-0.4393896765	-3.2089991006	 0.08732
H	 2.096867644	 1.8178352565	-3.0384383359	 0.231078
H	 3.694361669	 0.4738891935	-1.9725861674	 0.089564
H	 3.3464862481	-0.2641459284	 0.3469572227	 0.107377
H	 2.4397039025	 1.2434592959	 0.5183237893	 0.113696
