17
gdb 67075	2.66784	1.59852	1.34256	2.0962	79.19	-0.2331	0.0163	0.2494	1020.0689	0.134229	-384.591892	-384.583903	-384.582958	-384.624095	31.315	
C	-0.040048854	 1.5791263047	-0.1135632889	-0.5258
C	 0.0087468225	 0.0913894178	-0.0284385449	 0.224031
C	 0.567518999	-1.019066671	-0.9169226913	-0.187544
C	 1.3733737153	-1.6220841188	 0.228045942	-0.273072
C	 0.3301706871	-0.9336757108	 1.1593170248	 0.296256
O	-0.9040004285	-1.6666272325	 0.8708089597	-0.337187
C	-0.8885358237	-1.0327532626	-0.4064911413	 0.04855
C	 0.5717423621	-0.6414579881	 2.5385316558	 0.079333
C	 0.8011293484	-0.3659440953	 3.6862909221	-0.324837
H	 0.9446236041	 2.0256154863	 0.0643721001	 0.127978
H	-0.3707880623	 1.8931269238	-1.1095359873	 0.127389
H	-0.7378139098	 1.9967356422	 0.6201663924	 0.135398
H	 0.8189165785	-0.9666627946	-1.9685632853	 0.093269
H	 1.4428255634	-2.7094139914	 0.3258622607	 0.10665
H	 2.3575342248	-1.1580622112	 0.3220700136	 0.11287
H	-1.7707735568	-1.0882169827	-1.0302554354	 0.109175
H	 0.9968145998	-0.1319798558	 4.7036262932	 0.187541
