18
gdb 46876	3.02266	1.54314	1.20012	3.6542	81.94	-0.2331	-0.031	0.2021	1054.0032	0.15044	-401.950402	-401.943018	-401.942074	-401.982276	29.398	
N	 0.0367005534	 0.8820713282	-1.3077065197	-0.502932
C	-0.011856126	 0.1112242522	-0.2952103582	 0.330437
O	 1.0701857372	-0.0001046821	 0.5407280476	-0.257985
C	 1.3406169523	-1.2468018432	 1.1827422916	-0.122135
C	 0.5650591783	-1.4634059927	 2.4634112247	-0.034235
C	-0.1632930063	-0.3340515114	 3.1167852883	-0.29181
C	-0.9526790852	-1.4310440505	 2.4072454283	-0.067058
C	-1.6605629539	-1.2105354439	 1.131690292	-0.079346
C	-1.2626276762	-0.5964644045	 0.0057402197	-0.10058
H	 0.9661516302	 1.3025849848	-1.371220401	 0.218365
H	 1.1642172645	-2.0722937913	 0.4811198488	 0.117077
H	 2.4121050692	-1.2174897722	 1.402618492	 0.122901
H	 1.0032585262	-2.2201737409	 3.1085147217	 0.094751
H	-0.2184046404	-0.3075954774	 4.1990439416	 0.118588
H	-0.123270289	 0.6348110341	 2.6344449356	 0.141748
H	-1.4615355245	-2.1233438378	 3.0694519137	 0.09043
H	-2.6672915181	-1.6221996672	 1.1103192874	 0.104343
H	-1.9659032817	-0.5232260544	-0.8163286242	 0.117439
