15
gdb 18820	4.29422	2.25187	1.85759	3.8513	63.57	-0.2304	0.0276	0.258	725.602	0.12196	-362.66712	-362.661353	-362.660409	-362.696725	23.68	
O	 0.0260598804	-0.0401749347	-0.0182200607	-0.380746
C	 0.0222345916	 1.1688309857	-0.0569338965	 0.409537
N	-1.0836373279	 1.9923208395	 0.0393981458	-0.317632
C	-0.7126449496	 3.3805880018	 0.0204764507	 0.001958
C	 0.422296339	 3.8914189654	 0.913431094	-0.087315
C	 1.2892754754	 2.7263999761	 1.3850006851	-0.234273
C	 1.2173856117	 2.1263585607	-0.0728720801	-0.175882
C	 0.6632957262	 3.4984211231	-0.5441404578	-0.081042
H	-1.9468790031	 1.6455145978	 0.4257484081	 0.251832
H	-1.4808042511	 4.0856610436	-0.2713131855	 0.107594
H	 0.3800236657	 4.8804086508	 1.354940352	 0.089522
H	 2.3061406785	 3.0603287692	 1.6008292003	 0.116044
H	 0.930842906	 2.0996279985	 2.2083512414	 0.109429
H	 2.1265740379	 1.70620635	-0.4923695304	 0.094274
H	 0.9506477593	 4.0756050526	-1.4128276263	 0.0967
