19
gdb 101649	2.74825	0.92679	0.8749	1.1763	72.83	-0.2579	0.0314	0.2893	1408.885	0.156634	-460.110201	-460.099924	-460.09898	-460.14572	37.769	
O	 0.2463876604	 0.7413453684	 0.5845326897	-0.41115
C	-0.0458566773	-0.0995548015	-0.5193884912	-0.090598
C	-1.4639197964	-0.6803094215	-0.46220477	 0.094556
O	-1.7243054443	-1.4529997483	-1.6373959612	-0.442775
C	-1.7307279085	-1.4533947496	 0.8409179368	-0.248427
C	-2.9441080475	-2.4121054929	 0.7268410506	-0.029324
O	-4.0383566898	-1.8199710546	 0.045257505	-0.423423
C	-2.5455058529	-3.6920895043	 0.1158339839	 0.309806
C	-2.1979326271	-4.7249350061	-0.3952684423	-0.487508
H	-0.2748858848	 1.5451792396	 0.4912437148	 0.28803
H	 0.0879770264	 0.4149263095	-1.4816460722	 0.100996
H	 0.6843510671	-0.917131911	-0.4793982404	 0.106841
H	-2.1805975116	 0.1482866712	-0.524418979	 0.091105
H	-1.334264764	-2.3291719274	-1.5254678479	 0.289578
H	-0.8469154684	-2.0333938301	 1.1317627573	 0.111483
H	-1.9104385378	-0.7301412879	 1.6403009402	 0.118494
H	-3.3117629422	-2.6259214947	 1.7369256836	 0.120848
H	-3.7429663591	-1.7067911034	-0.8695857571	 0.297161
H	-1.918967392	-5.6527796955	-0.8312038803	 0.204308
