25
gdb 119086	2.08319	1.21491	0.92508	0.9469	89.23	-0.2405	0.0807	0.3212	1445.7971	0.227452	-389.486401	-389.475844	-389.4749	-389.52199	39.408	
C	-0.8429647406	 1.7168156297	-1.2174414216	-0.382442
C	-1.2041997975	 0.2450863042	-1.3453769592	-0.055685
O	-1.0699408076	-0.3507979054	-0.0671257802	-0.301687
C	-1.5727636503	-1.6693345285	 0.062851787	 0.45143
C	-0.7905653669	-2.6819210529	-0.7852684603	-0.236805
C	 0.7193680569	-2.6600600919	-0.5324757318	-0.385647
C	-1.6931530691	-2.0658141113	 1.5585094712	-0.27038
C	-3.11464646	-2.6197699978	 1.2741620134	-0.219825
C	-3.1224530933	-1.8335052036	-0.0645166799	-0.274615
H	-0.9223010596	 2.2168892746	-2.187584498	 0.111074
H	-1.512030499	 2.2160611581	-0.5108111923	 0.122924
H	 0.1821485285	 1.828434353	-0.852427793	 0.125424
H	-2.2362491363	 0.1350991096	-1.7139264127	 0.088272
H	-0.5448946132	-0.2422206802	-2.0800803661	 0.088545
H	-1.1917426357	-3.6820269363	-0.5800902483	 0.095798
H	-0.9935633829	-2.4941961284	-1.8473949924	 0.09401
H	 1.2338785781	-3.3832525859	-1.1724667133	 0.107456
H	 1.1359441677	-1.6689382401	-0.7309603526	 0.127242
H	 0.9547893934	-2.9101997159	 0.5071331289	 0.117662
H	-0.9461063478	-2.7547603516	 1.9598888877	 0.093672
H	-1.7160354871	-1.1654983691	 2.1764705604	 0.109074
H	-3.1200412613	-3.702205128	 1.1219696851	 0.10241
H	-3.8954273947	-2.373320017	 1.9962808413	 0.099343
H	-3.6192710033	-0.8651968437	 0.0386639187	 0.102842
H	-3.5083998282	-2.3416626116	-0.9524487819	 0.08991
