17
gdb 99504	2.62863	1.11377	0.8161	2.3687	69.81	-0.2539	-0.009	0.2449	1384.5658	0.134698	-455.178036	-455.167836	-455.166892	-455.214772	34.356	
C	 0.0640909255	 1.3531449751	-0.1655322245	-0.244745
O	-0.0687894428	-0.0772928183	-0.2120831438	-0.223967
C	-1.2656886743	-0.5586525702	 0.1366047667	 0.477445
O	-2.2037267225	 0.1106582888	 0.4818579976	-0.356248
C	-1.2848435922	-2.0927964657	 0.0947732749	-0.274238
C	-2.72908185	-2.6375314191	 0.0751859656	-0.155785
N	-2.7116144695	-4.0803154152	 0.2882246489	-0.520819
C	-0.503850353	-2.6332224124	-1.0190062714	 0.289283
N	 0.0621656813	-3.1058952941	-1.9086712696	-0.330315
H	 1.0810296608	 1.5629893705	-0.4941416779	 0.146996
H	-0.6621916765	 1.8239852222	-0.8316599557	 0.149883
H	-0.0965130568	 1.7175456451	 0.8518261587	 0.146647
H	-0.8132426099	-2.4415422296	 1.0235492793	 0.168132
H	-3.2614333206	-2.1583020794	 0.8996134846	 0.136667
H	-3.2135802479	-2.3070461256	-0.8567822628	 0.108551
H	-3.6585615566	-4.4196441073	 0.4194134724	 0.237622
H	-2.3463571652	-4.5533779749	-0.5337953029	 0.244889
