18
gdb 63363	2.87301	1.16215	1.06031	2.6092	79.81	-0.2392	-0.0295	0.2097	1227.5708	0.144157	-401.912	-401.902318	-401.901373	-401.94646	35.682	
C	-0.8811885562	 1.5006269311	-0.0417943116	-0.416458
C	-0.1775532827	 0.1462890729	-0.0166274923	 0.190473
C	-1.1440667508	-1.0123274545	-0.2887774733	-0.442256
N	 1.0817938954	 0.1158569465	-0.8316017764	-0.348216
C	 1.9183208597	-0.3937113905	 0.2956018716	-0.306411
C	 3.161639678	 0.3027900696	 0.5548432294	 0.348902
C	 4.1860272333	 0.8818276287	 0.7991118215	-0.423387
C	 0.6969892676	-0.1106093051	 1.2252631543	 0.370711
O	 0.5238183053	-0.0841626632	 2.402381412	-0.285715
H	-0.1648939931	 2.3091997208	 0.1202569491	 0.133219
H	-1.3618420795	 1.6603204025	-1.0128239353	 0.119637
H	-1.6490024616	 1.5469736388	 0.7367073138	 0.129007
H	-1.5808826073	-0.9064741926	-1.2882662359	 0.12644
H	-0.6400311779	-1.9830289978	-0.2363557819	 0.120512
H	-1.9610986378	-1.0152766794	 0.4387169993	 0.140105
H	 1.0459855144	-0.5217119184	-1.6197218917	 0.221216
H	 2.0978911708	-1.4799386617	 0.26600588	 0.121724
H	 5.0902960824	 1.3974288922	 1.0093344974	 0.200498
