15
gdb 42901	2.8431	1.62551	1.28554	2.5547	65.43	-0.233	-0.0386	0.1944	981.7681	0.111433	-457.703553	-457.696049	-457.695105	-457.736138	27.561	
O	-0.2503630186	-0.0122366165	-0.0637733536	-0.294714
C	-0.1694799267	 1.1735353055	 0.0295369037	 0.374968
C	-1.1458533668	 2.3425216481	-0.0769061794	-0.126001
O	-0.808424795	 3.1661361144	 1.0636945702	-0.231872
C	 0.0017485476	 3.2870714182	-0.1003192114	-0.061258
C	 1.0522474008	 2.1742747881	 0.057348385	 0.340732
C	 2.1702571434	 2.175475527	 1.1081609428	-0.356304
C	 3.0965552472	 1.9154248575	-0.097760706	-0.076209
O	 1.9731605419	 1.9732870567	-1.0152905856	-0.321329
H	-2.1475426118	 2.4249732265	-0.4806108405	 0.12957
H	 0.0781660272	 4.2455700075	-0.5984951372	 0.129399
H	 2.3125609494	 3.1268316521	 1.6223542665	 0.126143
H	 2.1111352263	 1.3699419675	 1.8406796115	 0.133473
H	 3.8353669171	 2.6920973071	-0.3221389377	 0.111963
H	 3.581045618	 0.9341868506	-0.1202421583	 0.121438
