16
gdb 51257	5.22938	0.9828	0.94738	3.8268	71.18	-0.2634	-0.0302	0.2332	1239.1956	0.125377	-437.880914	-437.873525	-437.872581	-437.914335	27.278	
O	 0.0552708802	 0.0331414239	-0.0509550611	-0.247306
C	-0.0068585325	 1.2178843348	 0.0221290365	 0.158021
O	 1.1402888648	 1.9837394033	-0.0592257317	-0.252775
C	 1.0122664882	 3.3328947374	-0.0221860108	 0.455347
N	-0.0588251225	 4.0239020961	-0.0261180045	-0.302622
C	 0.5567899571	 5.4039506735	 0.0291711885	 0.016499
C	 1.702868165	 5.2998074348	-1.0208484754	-0.212111
C	 2.2207689281	 4.247775312	 0.0274497189	-0.169394
C	 1.6606504681	 5.2367811065	 1.1155104871	-0.212243
H	-0.9074109741	 1.8296823595	 0.1599709231	 0.149102
H	-0.1843850825	 6.1995845375	 0.0378897514	 0.084495
H	 1.4389325707	 4.9372788371	-2.0166638001	 0.111987
H	 2.3356109269	 6.1885333045	-1.0784222926	 0.108851
H	 3.2223768591	 3.8240683223	 0.0347938259	 0.092774
H	 2.2902353253	 6.1193674572	 1.2510685844	 0.109024
H	 1.358040748	 4.8166846296	 2.0772436702	 0.11035
