17
gdb 44958	2.632	1.77747	1.56081	1.0197	66.17	-0.2419	-0.0288	0.2131	916.5396	0.138331	-458.992406	-458.985611	-458.984666	-459.02352	27.418	
O	-0.0177346991	-0.0034162917	 0.0803663602	-0.316097
C	-0.0455608165	 1.1954143278	 0.0105468186	 0.402848
C	-1.2704440806	 2.112954856	-0.0620595376	-0.373015
C	-0.6260309171	 3.5063657362	 0.0671615089	 0.178395
O	 0.629525438	 3.339754818	-0.5852488921	-0.254176
C	 1.1604347346	 2.1521807244	 0.0112541174	-0.031019
C	 1.5556208886	 2.4958395737	 1.4584407151	-0.225866
C	 0.3112921418	 3.0245605465	 2.1945035414	-0.097018
O	-0.4466230415	 3.9347203428	 1.3943143812	-0.253711
H	-1.742122362	 2.0127346725	-1.0445319455	 0.144956
H	-2.0107005184	 1.8701996071	 0.7028226296	 0.141979
H	-1.1652758521	 4.3072985798	-0.4381433369	 0.101891
H	 1.9939892089	 1.7831976441	-0.5874673272	 0.106397
H	 1.9581544977	 1.621219215	 1.9791646522	 0.120413
H	 2.3306584833	 3.2669524083	 1.4161519743	 0.122733
H	-0.3236965602	 2.1823030439	 2.5090569545	 0.109467
H	 0.5873977145	 3.5769971654	 3.0954529061	 0.121821
