18
gdb 36422	3.65011	1.08387	1.02025	4.6659	74.67	-0.2735	0.0363	0.3098	1201.436	0.149315	-401.963749	-401.95593	-401.954986	-401.996471	29.83	
N	-0.3354631219	-0.8504577149	-0.6195424434	-0.313895
C	-0.1419531255	 0.2774484022	-0.4563493164	 0.256957
C	 0.1316079913	 1.6970135668	-0.2427671996	-0.346223
C	 1.5730064975	 1.9552443976	 0.2590095613	-0.003151
C	 2.6480159268	 1.5435428419	-0.7876257407	-0.260723
C	 2.9870338154	 2.8262801331	-1.5179372659	 0.056882
O	 1.8330403812	 3.5639066325	-1.9562903027	-0.257704
C	 2.4920651919	 3.9719107197	-0.7464350211	 0.057576
C	 1.8109188096	 3.4721469269	 0.5112197016	-0.273762
H	-0.0295863056	 2.2383726719	-1.1795848294	 0.175012
H	-0.5915309847	 2.0796882844	 0.486578177	 0.143655
H	 1.7078698246	 1.3891186085	 1.1836450269	 0.097225
H	 3.5512864917	 1.1699921699	-0.2916525788	 0.111683
H	 2.2966534951	 0.7503856117	-1.4545108893	 0.133296
H	 3.8497287968	 2.8833130143	-2.1764935397	 0.100455
H	 2.9541820322	 4.9551617758	-0.7781435138	 0.099581
H	 0.8829045206	 4.0103793015	 0.7311970625	 0.112223
H	 2.4831179331	 3.6241959961	 1.3636160315	 0.110913
