20
gdb 114092	2.92366	1.26773	1.06231	3.7665	74.84	-0.2239	0.0655	0.2894	1203.2848	0.170694	-440.236251	-440.227365	-440.226421	-440.269854	33.796	
C	-0.1067896351	 1.4885328187	-0.1073735102	-0.477673
C	 0.1455543827	 0.0134626845	 0.0504882048	 0.455688
C	-1.0342484329	-0.9896085658	 0.0630270877	-0.216309
N	-0.3694598224	-1.7723689184	 1.1475122251	-0.315433
C	 0.6980102984	-0.7499319399	 1.28707099	-0.15368
C	 1.9259814759	-1.0416943246	 0.4023307606	 0.13228
C	 2.3552089506	-2.4658577562	 0.1095437804	-0.08545
O	 3.1929463034	-2.498503747	-1.0354744553	-0.426223
O	 1.258510579	-0.4507510396	-0.7579141387	-0.370925
H	 0.8034841184	 2.0616479297	 0.090762201	 0.128216
H	-0.4256783346	 1.706970782	-1.1330860528	 0.132485
H	-0.8928995144	 1.8290122897	 0.5737474537	 0.117312
H	-1.9850885362	-0.5288394492	 0.3590377997	 0.095597
H	-1.1795387301	-1.5507516565	-0.8655068594	 0.110576
H	-0.9386284178	-1.8676656704	 1.9789306267	 0.223585
H	 0.8567280039	-0.3289119881	 2.2810728449	 0.072729
H	 2.7981404804	-0.4286945237	 0.6680588892	 0.078236
H	 2.9423626407	-2.8612292579	 0.946301118	 0.100459
H	 1.465324951	-3.0959356175	-0.0115254603	 0.10744
H	 2.6996005594	-2.0527521797	-1.7344782052	 0.291088
