19
gdb 77529	2.39466	1.77078	1.28259	3.3964	70.43	-0.2474	0.0637	0.3111	1022.2515	0.158728	-460.145066	-460.136468	-460.135523	-460.17738	34.34	
O	 0.0641674394	 1.3956869207	 0.0841299987	-0.45556
C	 0.0610833814	-0.0073063983	 0.062947217	 0.095575
C	 0.1336048827	-0.6606146201	 1.4683253606	 0.41232
O	 1.1227761196	-0.2325583947	 2.343006166	-0.481875
C	-1.3820183124	-0.3023968938	 1.6271913424	-0.38416
C	-1.369127028	-0.6156032216	 0.0971572635	 0.371959
O	-2.2720101453	-0.0519252532	-0.8063437719	-0.497307
C	-1.0844288661	-2.1258093385	 0.0552363285	-0.282357
C	 0.0775940548	-2.1609719255	 1.1017408088	-0.284236
H	-0.618421548	 1.6788966456	-0.5370832298	 0.289975
H	 0.7532285612	-0.4003080289	-0.6960019405	 0.058269
H	 1.0404540397	-0.7320167005	 3.1626481329	 0.277758
H	-1.9992488637	-0.9303222806	 2.2770373224	 0.076004
H	-1.524120083	 0.7572100019	 1.8301666746	 0.119246
H	-3.1690264879	-0.2344807223	-0.5088112245	 0.285077
H	-1.9501100643	-2.722838213	 0.3590815852	 0.09225
H	-0.7749559753	-2.453278848	-0.9410272962	 0.107124
H	 1.0253071305	-2.5075001751	 0.6801978708	 0.108462
H	-0.1566530054	-2.7813538341	 1.9731772314	 0.091477
