21
gdb 97898	5.36278	0.54918	0.51488	0.8626	95.68	-0.2451	0.0433	0.2884	2176.7585	0.179147	-349.907599	-349.896366	-349.895422	-349.946925	39.437	
C	-0.019810624	 1.5961696838	 0.059253862	-0.362955
C	 0.00411878	 0.0575337006	 0.0029725016	-0.314871
C	 0.6739228787	-0.4594207544	-1.1868860938	 0.11327
C	 1.2334207924	-0.850170908	-2.1803118362	 0.017282
C	 1.9138757906	-1.3570857963	-3.3663404407	-0.352559
C	 1.9248323982	-2.9135708268	-3.446580619	-0.151193
C	 0.5018130752	-3.4935946909	-3.5421153857	-0.384077
C	 2.7522185725	-3.346839803	-4.5703598991	 0.32165
C	 3.4230266227	-3.6833216036	-5.5097937067	-0.464299
H	 0.9960653773	 2.0003770178	 0.0633403928	 0.12803
H	-0.5425481861	 2.0082482236	-0.8081259954	 0.12797
H	-0.5308698514	 1.93704841	 0.9646431661	 0.113694
H	 0.5009760661	-0.3327386346	 0.9005917742	 0.127225
H	-1.0242054939	-0.3247559033	 0.0392612583	 0.126905
H	 1.4385765746	-0.9658613391	-4.2747825834	 0.13272
H	 2.9498421754	-0.9998280473	-3.3850109085	 0.135463
H	 2.3834245129	-3.2802800539	-2.5191627307	 0.114925
H	-0.0939704422	-3.161678414	-2.6881008885	 0.130019
H	 0.0114539949	-3.1580942514	-4.4612780305	 0.123008
H	 0.5291804611	-4.5860316497	-3.551875291	 0.124075
H	 4.020827295	-3.9923413995	-6.3311025156	 0.193719
