16
gdb 93396	3.24694	1.46634	1.1201	5.043	64.91	-0.2596	0.0073	0.2669	1043.5129	0.125184	-475.019683	-475.011942	-475.010998	-475.052204	29.069	
O	-0.0450013477	 1.4695933862	 0.1460320393	-0.420079
C	-0.0006178668	 0.0572642643	 0.0167121439	 0.064402
C	 0.7907399876	-0.5757256297	 1.1643032616	-0.130754
O	 0.6195607426	-1.9945238278	 1.2200366597	-0.230067
C	-0.6585691981	-2.4589781817	 1.3553981664	 0.435108
O	-0.8767589886	-3.4607016712	 1.9700577886	-0.324845
N	-1.6744851966	-1.7603595815	 0.6597887908	-0.163246
C	-2.2447907063	-0.5357087811	 1.2426217822	-0.253769
C	-1.4123892718	-0.475799193	 0.0099603194	-0.002255
H	 0.8059936924	 1.8283291273	-0.1258824818	 0.293805
H	 0.4679584503	-0.2353561401	-0.9340788071	 0.091585
H	 1.8636479605	-0.4112901911	 1.0389942898	 0.123261
H	 0.4906584013	-0.1172098297	 2.1146365026	 0.125489
H	-3.3245987976	-0.4523603512	 1.1698502298	 0.139061
H	-1.8216578897	-0.1682184639	 2.1728017383	 0.13952
H	-1.9351140514	-0.3667679359	-0.9372669936	 0.112786
