19
gdb 126212	1.75657	1.69859	0.96751	2.7455	78.49	-0.2251	0.0227	0.2478	1254.9686	0.160441	-419.228682	-419.219344	-419.2184	-419.264114	33.437	
C	 0.2772405305	 1.2789556615	 0.1402714588	-0.36991
C	-0.0640754017	-0.1911074179	-0.1668346518	-0.308503
C	-1.5325640789	-0.4816918085	-0.1317575105	 0.302733
C	-2.4886769662	-0.526944171	-1.1374427724	 0.137119
C	-2.2838535435	-0.2989993507	-2.5996257002	-0.221264
O	-1.2488773227	-1.1650001661	-3.0718702147	-0.411754
C	-3.6938146899	-0.8346325069	-0.4679966655	-0.087024
N	-3.5248144287	-0.9692033278	 0.8430733903	-0.238724
N	-2.2052274038	-0.7494870507	 1.0167452321	-0.249351
H	 1.358527721	 1.4417911958	 0.0956729009	 0.116006
H	-0.1978217509	 1.9505666743	-0.58113091	 0.124875
H	-0.0677161079	 1.5691499324	 1.1378931022	 0.11594
H	 0.3009396583	-0.4611368902	-1.1608083496	 0.140533
H	 0.4568741168	-0.8424736323	 0.5465554038	 0.103166
H	-3.2303460892	-0.4899720919	-3.1279825277	 0.096727
H	-2.014578109	 0.7513451657	-2.7975522216	 0.092332
H	-1.0742592836	-0.9382681286	-3.991024203	 0.285262
H	-4.6769790596	-0.964857297	-0.8986270118	 0.105088
H	-1.8185372708	-0.8277434	 1.9427869109	 0.266747
