14
gdb 52598	2.06672	1.1142	0.92445	6.0614	75.73	-0.2828	-0.0314	0.2514	1336.3788	0.098485	-395.698648	-395.688546	-395.687602	-395.735233	33.87	
C	-0.0053497174	 1.4790263538	 0.0173801051	-0.501855
C	 0.0140701949	 0.0255397925	 0.0110171981	 0.073914
C	 0.043999116	-1.1773191294	 0.0072085249	 0.122803
C	 0.016431255	-2.6498378414	-0.0041814197	-0.26331
N	-1.3240282725	-3.2492561332	-0.1481476054	-0.499428
C	 0.8501568613	-3.1421252313	-1.1318000028	 0.345531
N	 1.4800486488	-3.4987677463	-2.0303606776	-0.318869
C	 0.5988093073	-3.1559658198	 1.2661095198	 0.345534
N	 1.0291401008	-3.5235765972	 2.2716176544	-0.318871
H	 0.5961762123	 1.8795022914	-0.8049963503	 0.168642
H	-1.025786212	 1.8602076879	-0.0930174341	 0.161712
H	 0.4018653677	 1.8692181518	 0.9556997248	 0.168612
H	-1.9057028255	-2.9129093334	 0.6152792728	 0.257793
H	-1.7351604066	-2.9035249454	-1.01170729	 0.257793
