18
gdb 79265	2.47751	2.03277	1.57353	2.2174	68.99	-0.2314	0.0538	0.2852	902.1332	0.149826	-439.069093	-439.061881	-439.060937	-439.100122	29.884	
O	 0.0209378123	 1.4242220675	 0.0310570008	-0.452398
C	 0.0252158449	 0.0144283285	-0.0197627421	 0.123948
C	-1.3682621654	-0.543825002	-0.2448902916	-0.051537
C	-1.5847537793	-0.611730546	-1.7187580531	-0.028786
C	-0.3313727921	-0.0777599487	-2.3931380545	-0.291406
C	 0.6520917117	-0.5724724813	-1.3072503049	 0.307055
O	 2.0101081829	-0.2438853541	-1.4114778964	-0.509665
C	 0.2111506706	-2.0414338589	-1.1609215219	-0.209392
N	-1.2463870383	-1.8476095116	-0.9543057454	-0.138286
H	 0.940873637	 1.7039881334	-0.0473758353	 0.289817
H	 0.5109045238	-0.410176945	 0.8718090816	 0.071117
H	-2.1635294205	-0.4418103764	 0.4828662341	 0.094885
H	-2.5658239209	-0.5764201073	-2.1763067264	 0.094186
H	-0.139097049	-0.5285804868	-3.3733182133	 0.089326
H	-0.3325425261	 1.0103837783	-2.4795632109	 0.119999
H	 2.3213072139	-0.480653823	-2.290992336	 0.28509
H	 0.3897593141	-2.6496798205	-2.0539678531	 0.096205
H	 0.6577597804	-2.5403938463	-0.2958821616	 0.109843
