19
gdb 81952	2.32686	1.90627	1.15628	3.5485	77.05	-0.216	0.0635	0.2794	1086.4865	0.160003	-419.238733	-419.229873	-419.228929	-419.272377	32.365	
C	-0.0726648991	 1.3773917008	 0.0168921632	-0.342136
N	-0.0395565654	-0.0480504448	 0.2397846699	-0.111065
C	-1.1768804831	-0.9023131383	 0.1005807713	-0.014241
C	-1.310205973	-1.718032928	-1.1761103367	-0.339199
C	-0.6096201341	-2.292639302	 0.0453543343	-0.014233
N	 0.8042072475	-2.1160084945	 0.1575863873	-0.111078
C	 1.7701948414	-3.1392393722	-0.1626274613	-0.342136
C	 1.1452725128	-0.7694393683	 0.1664509862	 0.452641
O	 2.2683927657	-0.3088593015	 0.1077136283	-0.434024
H	 0.9520203217	 1.7441680402	 0.0981825521	 0.164117
H	-0.462702821	 1.627183149	-0.9796599239	 0.116966
H	-0.6955515023	 1.877807149	 0.7671869891	 0.119993
H	-2.0544559712	-0.6476521453	 0.685266559	 0.105758
H	-2.2950173072	-2.1107873929	-1.4054455988	 0.118239
H	-0.7066193175	-1.4377408028	-2.0327715651	 0.123574
H	-1.0428163976	-3.126898009	 0.5868369238	 0.10575
H	 1.6380978184	-3.5219342817	-1.1842615349	 0.116965
H	 2.7612812753	-2.6900997586	-0.0782056907	 0.164117
H	 1.6953956187	-3.9818098892	 0.5343862369	 0.119992
