19
gdb 83173	2.90281	1.43082	1.22513	3.3437	77.2	-0.2252	0.03	0.2552	1091.9785	0.161105	-419.194222	-419.18605	-419.185106	-419.227046	31.528	
C	-0.5631722621	 1.3845461732	 0.0776789787	-0.403332
C	-0.0995265567	-0.0496250196	-0.0170281307	-0.058731
C	 0.7241592111	-0.544678226	-1.2026530327	-0.066283
N	 1.2497066635	 0.4151672382	-2.1334399937	-0.303082
C	 2.7084122141	 0.4717958726	-2.0588186653	-0.255699
C	 3.1103083867	 0.9699669819	-0.6877225836	 0.430048
N	 4.1173828201	 1.7139463006	-0.5184433065	-0.519811
O	 2.3025963857	 0.5991497202	 0.3541517673	-0.243583
C	 1.3508104616	-0.4243326348	 0.1585853036	 0.076785
H	 0.1165622484	 2.0493114488	-0.4564166371	 0.141775
H	-1.5584917268	 1.4938946068	-0.3652572064	 0.113965
H	-0.6203490953	 1.709745977	 1.1213404666	 0.119284
H	-0.7891955982	-0.7860761709	 0.3882405811	 0.087198
H	 0.5332587098	-1.553599706	-1.5707165587	 0.082816
H	 0.9236275987	 0.2534809611	-3.0762909011	 0.232413
H	 3.1934568451	-0.5049176895	-2.2385961518	 0.10423
H	 3.102813423	 1.1784878587	-2.7898268501	 0.139195
H	 4.2357219904	 1.9251413551	 0.4748890246	 0.219247
H	 1.6067601008	-1.3180519373	 0.7194346359	 0.103566
