16
gdb 74198	2.43768	1.64209	1.02829	3.4597	76.3	-0.2193	-0.0203	0.199	1107.1801	0.127031	-434.114813	-434.106838	-434.105894	-434.147274	30.357	
N	 0.1382063261	 1.2885821426	 0.4741025889	-0.552285
C	 0.0013064432	-0.0084484797	 0.075482438	 0.352804
C	-1.2054265866	-0.6278672524	 0.0221144774	-0.263865
C	-1.4684459414	-2.0093491464	-0.3233399665	 0.379076
O	-2.5771396028	-2.4305992853	-0.6082113274	-0.383577
N	-0.4105815191	-2.9574953112	-0.2737217063	-0.350211
C	 0.8044457161	-2.8774960028	 0.3894968275	 0.084258
N	 1.5981176795	-1.8904777597	 0.4821459582	-0.226163
C	 1.2888425661	-0.7053879065	-0.3092123942	-0.261941
H	 0.9831588276	 1.7866195994	 0.2532737893	 0.263528
H	-0.6848695503	 1.8519746952	 0.6133439097	 0.263373
H	-2.1108928089	-0.0586495314	 0.2054963373	 0.090357
H	-0.7959026676	-3.8875558945	-0.3789681176	 0.250392
H	 1.0944751139	-3.8138135032	 0.8698556088	 0.120535
H	 1.2225966511	-0.9786086363	-1.3733785196	 0.131338
H	 2.1253502431	-0.0073969077	-0.2033744336	 0.102379
