21
gdb 60822	2.04911	1.31275	0.865	2.0298	78.93	-0.2507	-0.0239	0.2268	1365.1358	0.17913	-424.216167	-424.205785	-424.204841	-424.25239	36.787	
C	 0.0384231158	 1.518892745	 0.1974551052	-0.424981
C	-0.0506687499	-0.0081468649	 0.0208942793	-0.064122
C	 0.3475558659	-0.656803715	 1.33459974	 0.169912
O	 1.3086138561	-1.360601872	 1.5048465468	-0.255788
C	-1.462811087	-0.4938985101	-0.3958912859	-0.019176
C	-1.9684791276	 0.1584900683	-1.6913971851	-0.416059
C	-1.4675797594	-2.0035493637	-0.5555427102	 0.096446
C	-1.9191698298	-2.9210251908	 0.498539053	-0.182757
O	-2.7489544368	-2.6285707921	-0.6284952421	-0.24491
H	 1.0392558945	 1.8127434826	 0.5278618547	 0.132066
H	-0.1670991368	 2.0362787918	-0.7421251286	 0.13383
H	-0.6817361756	 1.8745810537	 0.9432302074	 0.122988
H	 0.6814136684	-0.3331392604	-0.7279959106	 0.093869
H	-0.3371667144	-0.4073847045	 2.1823529542	 0.066381
H	-2.1669141456	-0.2475554227	 0.4114272402	 0.080267
H	-1.2635144222	-0.0019246533	-2.5153833618	 0.117178
H	-2.926347466	-0.285940852	-1.9747989935	 0.141167
H	-2.117257504	 1.2348862103	-1.5777305596	 0.119405
H	-0.7478787806	-2.3886133851	-1.2821038477	 0.097507
H	-1.5242345461	-3.9345063441	 0.5419923603	 0.12329
H	-2.2690822788	-2.5195260011	 1.448966594	 0.113489
