22
gdb 22975	1.86756	1.41988	0.89255	0.6583	85.58	-0.2356	0.0141	0.2497	1377.2553	0.193442	-404.303289	-404.293447	-404.292503	-404.338439	36.658	
C	 1.0287577849	 1.5980137519	-2.4136865539	-0.381201
C	-0.1096526813	 0.7250517869	-1.8578480328	-0.259949
C	 0.3851499403	-0.4434487451	-1.0418774724	 0.323162
N	 0.189608591	-0.3497273859	 0.2205460792	-0.178912
O	 0.6965639213	-1.469223322	 0.9117120527	-0.404678
C	 1.0603659172	-1.6293592051	-1.6762066166	-0.019178
C	 0.274189166	-2.9797381365	-1.7475664506	-0.207053
C	 0.9577797334	-3.2522455795	-3.1125758711	-0.224189
C	 1.2847781122	-1.7378033384	-3.2111930565	-0.251463
H	 1.6249955134	 2.0156209181	-1.5968104343	 0.126771
H	 1.6997665519	 1.027360078	-3.062248728	 0.124444
H	 0.624241076	 2.4290640245	-2.999643373	 0.115372
H	-0.7571500913	 1.3289173233	-1.2164264994	 0.11679
H	-0.7271692531	 0.3582364776	-2.6875593371	 0.103022
H	 0.4909444977	-1.2475626357	 1.8255888872	 0.30346
H	 2.0002491558	-1.8122162239	-1.1455228196	 0.100272
H	 0.433060713	-3.6849594165	-0.9312057612	 0.110453
H	-0.800565552	-2.8073810143	-1.8591457336	 0.101112
H	 1.8632254759	-3.8550062468	-2.9977551619	 0.103802
H	 0.3493365221	-3.6890765714	-3.907666318	 0.096666
H	 0.5174079338	-1.204445529	-3.7791045677	 0.103322
H	 2.2649807517	-1.44917182	-3.5989846313	 0.097975
