21
gdb 92640	3.09099	1.31533	1.00508	1.2507	85.89	-0.2254	0.0253	0.2507	1223.946	0.184595	-387.092285	-387.084137	-387.083192	-387.124707	32.597	
O	-0.1276590947	 1.4470164413	-0.0767509735	-0.429589
C	 0.0211448875	 0.0509663061	-0.0008519244	 0.04538
C	 0.2707592782	-0.639173076	 1.3915650107	-0.300535
C	-0.7713208242	-1.7300275617	 0.9849446929	-0.039723
C	-1.9119442207	-2.1930671079	 1.8876081284	-0.224373
C	-3.0991384798	-2.587054033	 0.9840159137	-0.202607
C	-3.6197094728	-1.4086531394	 0.1301222148	-0.230881
C	-2.5204579091	-0.5096332874	-0.3861027325	-0.216143
C	-1.2580415064	-0.7430388569	-0.056967772	 0.303975
H	 0.7460811321	 1.8415455248	-0.1574660376	 0.283203
H	 0.7586522614	-0.3103481367	-0.7353331721	 0.070765
H	 1.2889152439	-0.9603619426	 1.6266902704	 0.088752
H	-0.1131802626	 0.0024062098	 2.1892217013	 0.109659
H	-0.2628206787	-2.5948203883	 0.5391600274	 0.071374
H	-1.6199115989	-3.0345296349	 2.5256903309	 0.088475
H	-2.2099080522	-1.3708586724	 2.5508843344	 0.094235
H	-2.7734493263	-3.3979618648	 0.3197805802	 0.098051
H	-3.9207253979	-2.9913834287	 1.5848130363	 0.090804
H	-4.2254959341	-1.7950872763	-0.7004888524	 0.102217
H	-4.3110864309	-0.7950119115	 0.7270581543	 0.105764
H	-2.8007825742	 0.3711788365	-0.9580771513	 0.091197
