17
gdb 54220	2.23519	1.47947	1.31133	3.2284	68.42	-0.2604	-0.0384	0.2219	1070.6825	0.133617	-459.012017	-459.00281	-459.001866	-459.046321	32.701	
C	-0.1847292155	 1.4981045206	-0.0588511255	-0.49546
C	 0.0113650219	 0.0021149311	 0.0644625936	 0.346429
O	 0.1306037432	-0.5587549922	 1.1278712395	-0.298044
C	 0.0339576651	-0.7890682489	-1.2520562841	-0.003768
C	 1.1596153088	-0.3378959179	-2.1898613733	-0.467973
C	-0.1906441899	-2.3026750643	-1.0949658644	-0.123895
O	-1.5003340116	-2.1853194969	-1.7585636143	-0.240716
C	-1.3551617359	-0.8416610505	-1.9255608342	 0.441175
O	-2.1053460871	-0.0683329892	-2.4306599421	-0.330651
H	 0.7433525579	 1.9690977332	-0.4025624324	 0.148968
H	-0.959240163	 1.7251264842	-0.7982326141	 0.169334
H	-0.4456822678	 1.9105385581	 0.9162394338	 0.14936
H	 2.1342881395	-0.438322822	-1.7022764432	 0.138805
H	 1.1676697119	-0.9450747926	-3.0995667448	 0.139967
H	 1.0255120274	 0.7049032169	-2.486950097	 0.148117
H	 0.470503528	-2.9501536954	-1.6729514925	 0.124648
H	-0.302571093	-2.6504897942	-0.0691447349	 0.153704
