16
gdb 125766	3.21649	1.38637	0.97525	3.9187	79.08	-0.2138	-0.0337	0.1801	1164.0254	0.12448	-434.061197	-434.052869	-434.051924	-434.093844	31.806	
C	-0.0202431636	 1.4742732998	 0.0348665178	-0.450846
C	-0.0168425943	-0.0248137191	 0.0298616389	 0.347727
N	-0.0675850134	-0.5753085814	-1.1315763265	-0.151853
O	-0.0682455834	-1.9837669636	-1.18981575	-0.281747
C	-0.0282787801	-2.720341441	-0.0620242314	 0.462292
N	-0.1084355603	-4.0554827992	-0.3655433729	-0.562296
C	 0.0340337356	-2.1771918154	 1.1789995225	-0.334734
C	 0.0430966271	-0.7485667349	 1.3234980471	 0.246699
N	 0.0964853827	-0.0359492268	 2.3971138708	-0.546475
H	 0.8754314769	 1.8433764092	 0.5420654147	 0.151897
H	-0.0636086959	 1.8573747683	-0.9852097827	 0.133326
H	-0.8733169834	 1.8390136454	 0.6137526305	 0.152279
H	 0.1643567307	-4.2957174862	-1.3070916249	 0.269879
H	 0.2268179975	-4.6904344043	 0.3414219144	 0.2672
H	 0.065439458	-2.8212226808	 2.0499835715	 0.091932
H	 0.134276206	-0.64191879	 3.2200115602	 0.20472
