17
gdb 48978	3.3466	1.50863	1.3326	3.1947	72.51	-0.2532	-0.0318	0.2215	984.7743	0.136906	-421.8285	-421.821362	-421.820418	-421.860134	28.251	
O	-0.8453710868	 1.0633819569	-0.3569513265	-0.253796
C	 0.2959370985	 0.8442258697	-0.0416709898	 0.068437
C	 1.3806945149	 1.8851045383	-0.0522498012	 0.317466
C	 1.6988038338	 2.5787132482	 1.2956542681	-0.261139
C	 2.8745860881	 3.3576579332	 0.6459449125	-0.111554
C	 3.6718058244	 2.1409811088	 0.0883184681	-0.073116
O	 2.6489814236	 1.2315372665	-0.3425696582	-0.32014
C	 2.1656380419	 3.9701945458	-0.5525710709	-0.095047
C	 1.2537435771	 3.0873839053	-0.9730381031	-0.105349
H	 0.6363397506	-0.1550985696	 0.3055296544	 0.090372
H	 0.8954184525	 3.2259210003	 1.6465446091	 0.123597
H	 2.0007098777	 1.8708845509	 2.0731542362	 0.10572
H	 3.4517495737	 4.0265613212	 1.2835754811	 0.077495
H	 4.3144691498	 2.4082689925	-0.7572402513	 0.105931
H	 4.2816233435	 1.6637170872	 0.865239476	 0.103772
H	 2.4470200077	 4.9035793856	-1.0234299292	 0.107081
H	 0.6165522388	 3.1237631592	-1.8454336654	 0.120272
