17
gdb 68758	2.53549	1.72947	1.25651	3.4185	68.51	-0.257	0.0021	0.2591	1017.7954	0.135245	-458.996768	-458.988382	-458.987437	-459.029419	31.664	
C	-0.0085989114	 1.5238744682	-0.0162654638	-0.486665
C	 0.0104159876	 0.0180725445	 0.027742348	 0.221075
C	 1.2605449825	-0.7700534688	-0.2949077119	-0.389397
C	 0.6938974789	-0.7816994009	 1.1106866621	 0.259913
O	 1.3905894514	-0.2483164218	 2.1767238935	-0.47185
C	-0.2098325918	-1.9300339465	 1.4151080557	 0.399096
O	-0.0977673734	-2.6889516172	 2.3391625414	-0.368562
O	-1.2140753257	-1.9819702531	 0.5070941459	-0.228919
C	-1.2727260785	-0.7542592132	-0.2570831448	-0.139501
H	 0.9332619909	 1.9296137166	 0.3620410053	 0.142996
H	-0.1499784199	 1.8911409327	-1.0386933493	 0.126153
H	-0.8173050783	 1.9259919279	 0.6033200659	 0.127711
H	 1.2029184987	-1.6587250928	-0.9172051497	 0.12458
H	 2.1749340762	-0.1941617226	-0.3914439696	 0.131925
H	 1.4098618363	-0.9432476863	 2.8504380882	 0.301537
H	-2.1588628158	-0.1984288164	 0.069142955	 0.12347
H	-1.3914111277	-1.0273032902	-1.3099097718	 0.126438
