16
gdb 12033	3.8039	1.73612	1.53274	1.278	69.99	-0.2529	0.0448	0.2977	873.3228	0.128451	-346.530745	-346.523128	-346.522184	-346.562174	29.408	
C	-0.0322231472	 1.5488813507	 0.0693020896	-0.455302
C	 0.0042428097	 0.0195545505	 0.0051012211	 0.118633
C	 1.1131562162	-0.6236019073	-0.939449648	-0.306667
C	 1.7393555342	-1.26683512	 0.3003871754	 0.050653
O	 2.0752577677	-0.2064884082	 1.2089921324	-0.250183
C	 0.732141816	-0.6829218925	 1.1929678596	-0.00495
C	-1.3104341459	-0.5555470839	-0.2270245863	 0.272633
C	-2.4005053177	-1.0352489708	-0.3961315431	-0.458769
H	 0.9622506285	 1.9266644083	 0.317584257	 0.136037
H	-0.3409792295	 1.9669495731	-0.8932979302	 0.124458
H	-0.7417776921	 1.8894789433	 0.8292178867	 0.124397
H	 0.6851943663	-1.3417973967	-1.6398827017	 0.123529
H	 1.7523687999	 0.0865199945	-1.4694934725	 0.11344
H	 2.3078910232	-2.1852544385	 0.3824414014	 0.107917
H	 0.2983929879	-1.027602406	 2.1244704866	 0.109535
H	-3.3637609674	-1.4538883767	-0.5521079179	 0.194638
