20
gdb 78471	2.78456	1.85357	1.63767	0.39	77.59	-0.2176	0.0894	0.307	933.9041	0.174388	-403.106242	-403.09936	-403.098415	-403.136995	29.249	
C	-0.0854568974	 1.5511840944	 0.0774454928	-0.445222
C	-0.006137479	 0.038563141	-0.0404029219	 0.020586
C	 0.3839547297	-0.7819428994	-1.2153523479	-0.052989
C	 1.4699541847	-0.3588093409	-2.2140836545	 0.078861
C	 2.6251874095	-1.246193317	-1.7034902174	-0.221476
C	 2.5421008026	-0.5705852913	-0.3132966611	-0.015306
C	 2.7454478486	 0.8792610485	-0.7493397537	-0.095398
O	 1.954882205	 0.9684683623	-1.9549693316	-0.27757
N	 1.1377642263	-0.9114409993	 0.0764495275	-0.146862
H	 0.4720552648	 2.0826210148	-0.6881990989	 0.159691
H	-1.1404602537	 1.8294739298	-0.0241056138	 0.115969
H	 0.2345412147	 1.8822920049	 1.0715853256	 0.120067
H	-0.8281259951	-0.4130776056	 0.5178783786	 0.096767
H	-0.2349552648	-1.6278942393	-1.5171479901	 0.083547
H	 1.1915755542	-0.4237251575	-3.2658820526	 0.079931
H	 2.3802161513	-2.3087877246	-1.6678175294	 0.112408
H	 3.5694668265	-1.0855205633	-2.2304490378	 0.100996
H	 3.2371763201	-0.9157367883	 0.4525767802	 0.07934
H	 2.4026368529	 1.6154658636	-0.0201554744	 0.108366
H	 3.8000598391	 1.0854387471	-0.9787914395	 0.098294
