18
gdb 29921	2.01518	1.89931	0.98993	1.6599	91.26	-0.194	0.0046	0.1986	1188.3017	0.146386	-364.829402	-364.819808	-364.818864	-364.864571	34.409	
C	-0.0133556889	 1.4382200331	 0.0564725372	-0.337976
N	-0.027522187	-0.0093058504	 0.0147346045	-0.065156
C	-0.0051696215	-0.7780598677	-1.1118907881	-0.1034
C	 0.0421058891	-2.1058834294	-0.7429683185	-0.243979
C	 0.0531732697	-2.1609610475	 0.6726605257	 0.175693
C	 0.0894116219	-3.3826465082	 1.5372602387	-0.517985
C	 0.012918371	-0.8434969233	 1.1237150475	 0.096471
C	 0.0043508057	-0.339068086	 2.4375627094	 0.277613
C	-0.0032380959	 0.0947028561	 3.5639441187	-0.495303
H	 0.9867001467	 1.8245697446	 0.2827842592	 0.141451
H	-0.3299922698	 1.8248103202	-0.9140377318	 0.136544
H	-0.7025462328	 1.7978625674	 0.8238897623	 0.152372
H	-0.0253590666	-0.3170975628	-2.0872445758	 0.11744
H	 0.0567756402	-2.9484861691	-1.4178189312	 0.096501
H	 0.9734812993	-3.9964277546	 1.3293171259	 0.125403
H	 0.1116141749	-3.1095636867	 2.5954056503	 0.132242
H	-0.7880827286	-4.0192081859	 1.3736158352	 0.125796
H	-0.0087845075	 0.4680017401	 4.5575687308	 0.186271
