21
gdb 91022	2.63787	1.68257	1.22655	1.6891	82.07	-0.2362	0.0816	0.3178	1089.5295	0.18263	-387.050161	-387.041837	-387.040893	-387.082656	33.068	
C	-0.9643196758	 1.0560280492	 0.63469922	-0.41023
C	-0.3730176953	-0.3319347908	 0.7807630848	 0.151765
O	 0.3005079154	-0.7776723173	-0.4231539903	-0.317902
C	 1.4476861269	-1.2202522896	 0.3198158896	 0.131943
C	 2.5763571295	-0.2075287679	 0.3729440037	-0.130232
C	 3.3064532399	-0.4181558926	 1.6697211123	-0.33539
C	 2.0161159064	 0.3671776075	 1.6912896359	 0.373551
C	 1.9835167978	 1.7702869066	 2.2357234253	-0.509086
C	 0.8674371048	-0.6458381877	 1.6599334141	-0.197127
H	-0.2154361975	 1.7716927471	 0.2896607313	 0.1298
H	-1.7719933303	 1.0342974776	-0.1042979649	 0.123891
H	-1.3842782875	 1.403953782	 1.5846801325	 0.114291
H	-1.1779691333	-1.04098474	 1.0285731521	 0.072178
H	 1.6866594078	-2.2714439863	 0.1300765594	 0.073973
H	 3.0092516733	 0.302500674	-0.479540993	 0.090888
H	 3.3674258763	-1.4109710999	 2.1119914596	 0.102859
H	 4.204363344	 0.1773737294	 1.8012499965	 0.110424
H	 2.9150421443	 2.2969291967	 2.0031055186	 0.117704
H	 1.1579467648	 2.3630938939	 1.8350726723	 0.121371
H	 1.8812195483	 1.7580079241	 3.3280997509	 0.118944
H	 0.6783765901	-1.2284732859	 2.5644722792	 0.066383
