17
gdb 51482	3.1065	1.24253	1.15764	4.9859	68.81	-0.2561	0.0027	0.2588	1110.6065	0.136334	-458.963729	-458.955825	-458.954881	-458.996927	28.748	
O	 0.0981053781	 0.0834039585	 0.1805768816	-0.270642
C	 0.2926103754	 1.2473298731	 0.3549587323	 0.175213
O	 0.8815436455	 2.0326846375	-0.5738628906	-0.17875
C	 0.980318354	 3.4088573614	-0.2738963566	 0.096756
C	 1.9035161795	 3.9520984364	 0.7897805007	-0.124679
C	 3.0029391486	 3.0487800702	 1.3219192124	-0.091504
O	 3.6195773105	 2.4526909143	 0.1921113971	-0.246522
C	 3.4628847412	 3.3018200868	-0.9380423787	-0.082844
C	 2.2189139079	 4.1394465659	-0.6848590374	-0.122196
H	 0.0182631007	 1.8041612123	 1.2709512019	 0.080871
H	 0.038486424	 3.9336144362	-0.4112827885	 0.11441
H	 1.5503564765	 4.761544582	 1.4182859765	 0.102523
H	 3.7153184974	 3.656960311	 1.9028611003	 0.100822
H	 2.6500210941	 2.2363975436	 1.967341361	 0.116732
H	 4.3298531894	 3.9693150622	-1.0634045366	 0.097948
H	 3.3876117467	 2.6575026908	-1.8191061686	 0.127963
H	 2.1247285608	 5.0938627478	-1.1888315669	 0.103901
