16
gdb 13313	5.76328	1.20017	1.05989	1.3286	66.12	-0.2538	0.0502	0.304	1084.5598	0.129966	-383.700328	-383.692463	-383.691519	-383.733518	28.071	
C	-0.0896179193	-1.2039755399	 0.0237644822	-0.432536
C	-0.0246870603	-0.0058730377	 0.0835308582	 0.303047
C	 0.0648810837	 1.4468901428	 0.1364232843	-0.373651
C	 1.4901913922	 1.980779393	-0.0847434243	 0.114607
C	 1.5606045494	 3.5267261078	-0.101742006	-0.133127
O	 2.7217597784	 3.8236039189	 0.6543172767	-0.230439
C	 2.7766560669	 2.8060075377	 1.6203897226	 0.023811
O	 2.3601233832	 1.6150151109	 0.9860272737	-0.256927
H	-0.1477465205	-2.2631839755	-0.0193944805	 0.196762
H	-0.5908512579	 1.884307728	-0.6294079644	 0.131012
H	-0.2987177672	 1.8124984167	 1.1050930903	 0.133248
H	 1.8968142697	 1.551579099	-1.0072740985	 0.09919
H	 1.6791544526	 3.9478998173	-1.1019047081	 0.123731
H	 0.6630470855	 3.9634623735	 0.3659196749	 0.095634
H	 3.8080987246	 2.6947677331	 1.9665046367	 0.123026
H	 2.1129698591	 3.0407733543	 2.4734427522	 0.082611
