13
gdb 1450	8.178	1.49631	1.28869	6.333	53.67	-0.2511	-0.0073	0.2438	884.9329	0.101046	-377.82658	-377.818602	-377.817658	-377.859713	26.01	
C	 0.0914316413	 1.4566360633	-0.1412271105	-0.324739
N	-0.0607053153	 0.0127465416	-0.0844314859	-0.363059
C	-1.3019740946	-0.5384726321	 0.1356816834	 0.515058
O	-2.2952611922	 0.0964760466	 0.3900352674	-0.348444
N	-1.2616924868	-1.9544729482	 0.078383065	-0.386302
C	-2.3447058269	-2.8210301634	 0.0526645748	 0.167967
O	-3.5054548306	-2.5268747619	-0.0167990888	-0.257603
H	 1.082700832	 1.7395342471	 0.2227985049	 0.126206
H	-0.0425533574	 1.8529082051	-1.1555994917	 0.130207
H	-0.6705614331	 1.899145012	 0.500426918	 0.173419
H	 0.6265442973	-0.5400452885	-0.5714117105	 0.240678
H	-0.3554511154	-2.3960847974	 0.1251884425	 0.248407
H	-1.9833649683	-3.8702720443	 0.0918766914	 0.078205
