20
gdb 116344	2.93209	1.27716	0.98354	2.9099	74.52	-0.2391	0.0673	0.3063	1220.0668	0.173059	-440.252293	-440.243891	-440.242947	-440.285419	32.168	
O	-0.0563980037	 1.4230154633	-0.0044868434	-0.425498
C	 0.01064908	 0.003230839	 0.0253866693	-0.08914
C	-1.4148754016	-0.5388064461	-0.0163019457	 0.00784
C	-2.1513516159	-0.112726813	-1.2978427088	-0.09594
O	-3.4310371828	-0.7183214053	-1.3711450461	-0.250851
C	-3.3607592216	-2.111664277	-1.6115313075	-0.076793
C	-2.4039105123	-2.8405674093	-0.6761344437	-0.061421
N	-0.9762434607	-2.8140228914	-1.0536632631	-0.336701
C	-1.4318069286	-2.0491757951	 0.1221441424	-0.046236
H	 0.8386457549	 1.7660350489	-0.0769855643	 0.287432
H	 0.5713399075	-0.3929149586	-0.8345586592	 0.102968
H	 0.514032195	-0.3509453514	 0.9404106895	 0.078258
H	-1.9651877829	-0.1203391253	 0.8363655312	 0.087438
H	-2.31263266	 0.9660191956	-1.2949896524	 0.1219
H	-1.5478597146	-0.373839999	-2.1812143791	 0.098062
H	-4.3785383298	-2.4887079425	-1.4719172872	 0.103963
H	-3.0603820674	-2.3067491697	-2.6538294851	 0.09623
H	-2.7847209935	-3.7598207846	-0.2376769983	 0.087808
H	-0.5181954413	-3.6720474819	-0.7590834447	 0.229763
H	-1.1604369607	-2.4322222765	 1.1046583863	 0.080917
