17
gdb 97502	3.86934	0.66477	0.5914	3.0011	77.01	-0.2695	-0.0675	0.202	1829.0069	0.132276	-458.94087	-458.930411	-458.929467	-458.977983	35.78	
C	 0.2081894004	 1.537294272	 0.0697648768	-0.399976
C	-0.0711023227	 0.0291441362	 0.0065000823	 0.049767
O	-1.4473884012	-0.2214662243	-0.0572695862	-0.436653
C	 0.6172248487	-0.6226553767	-1.1956670954	 0.193008
O	-0.0472969091	-1.2015112591	-2.0360063295	-0.323596
C	 2.0521654802	-0.5340744579	-1.2711749408	-0.011616
C	 3.2571033396	-0.45580816	-1.3155555442	 0.156849
C	 4.7155433344	-0.4261102377	-1.410722107	-0.202638
O	 5.2131130262	-0.7916648029	-2.6831871748	-0.391669
H	 1.2768177633	 1.7400411512	 0.1813216591	 0.122138
H	-0.1571743938	 2.0293549044	-0.8363147574	 0.130006
H	-0.3217597986	 1.9589666761	 0.9270592654	 0.137159
H	 0.3606330774	-0.4441451764	 0.9058083443	 0.09539
H	-1.5802209316	-0.7381415914	-0.8688695998	 0.293862
H	 5.0759365283	 0.5916655778	-1.2235990992	 0.156319
H	 5.127864517	-1.0579697752	-0.6068438635	 0.135002
H	 4.8446923617	-1.6518509362	-2.9117756999	 0.296646
