16
gdb 45890	2.58671	1.79097	1.23739	1.4938	71.44	-0.2419	-0.0228	0.2191	992.5454	0.127614	-434.07518	-434.06788	-434.066935	-434.107231	27.851	
O	 0.0333065309	-0.08829238	-0.1714396041	-0.358032
C	 0.0374206202	 1.115128456	-0.0078483734	 0.437493
N	-1.1670500469	 1.8026150469	 0.0663845231	-0.35084
C	-1.4942972581	 3.1606448315	 0.1430314109	 0.109464
N	-0.8548880912	 4.2050960913	-0.1641241446	-0.2216
C	 0.4627956178	 4.1937499934	-0.7669785973	-0.187574
C	 1.5281033532	 3.3038906641	-0.14572097	-0.033134
N	 1.3622857994	 2.8928157131	 1.240348061	-0.32659
C	 1.3169503162	 1.8637041866	 0.1747310254	-0.133729
H	-1.9496551816	 1.1626197609	 0.1099925795	 0.257015
H	-2.515045874	 3.2850706913	 0.5109453422	 0.117928
H	 0.3724387228	 3.9255882987	-1.8313885599	 0.118366
H	 0.8346181398	 5.2247155528	-0.7449578555	 0.116599
H	 2.5347084634	 3.5463327817	-0.4872980388	 0.096616
H	 2.2522805965	 2.8445593584	 1.7278224584	 0.245997
H	 2.1637927515	 1.1934760432	 0.0654237132	 0.112021
