21
gdb 84370	2.59269	1.40927	1.1847	2.6243	79.51	-0.2413	0.0204	0.2617	1157.4947	0.180737	-424.240951	-424.231222	-424.230278	-424.274793	37.451	
C	-0.0510756738	 1.5897888116	-0.0294759901	-0.41885
C	 0.0581737621	 0.0619891401	-0.0233038661	-0.030642
C	 0.8262887255	-0.5234615819	-1.1921525511	-0.072274
C	 1.6046182651	-1.5370511663	-0.8252586617	-0.131553
C	 1.4874925325	-1.8440932988	 0.659183118	 0.369903
C	 0.6082943463	-3.0741122172	 0.907360084	-0.417096
O	 2.7304576228	-2.1036562988	 1.2832279891	-0.483931
C	 0.8207430383	-0.5316496855	 1.1957510302	 0.012952
O	 1.8932408176	 0.3190068027	 1.6054127949	-0.440429
H	 0.9396771348	 2.0507777393	-0.020898078	 0.130053
H	-0.5790144115	 1.9327672575	-0.9249520224	 0.1164
H	-0.611146944	 1.9559640693	 0.8391907961	 0.102517
H	-0.9627927415	-0.3497961594	-0.0191062497	 0.081103
H	 0.7080473846	-0.1481131174	-2.2037387341	 0.090201
H	 2.2331201977	-2.138548959	-1.4722439779	 0.094963
H	 1.0566583954	-3.9534843719	 0.4359325004	 0.123617
H	 0.5310667651	-3.2670406738	 1.9815743245	 0.117791
H	-0.3952689091	-2.9379092078	 0.4932682865	 0.112568
H	 3.099248705	-1.2373903139	 1.5020940134	 0.286768
H	 0.1595403972	-0.7336952323	 2.0473908161	 0.061959
H	 1.55327761	 0.9732141238	 2.2204030577	 0.29398
