21
gdb 84038	2.53703	1.50458	1.20497	2.3529	77.99	-0.2306	0.0738	0.3044	1119.5353	0.184748	-424.212718	-424.204646	-424.203702	-424.244983	32.541	
O	-0.0368589196	 1.432755012	-0.107786713	-0.42554
C	-0.0225590049	 0.0441400698	 0.0014516109	 0.076741
C	-1.3404245776	-0.7181590911	 0.0795123409	-0.09926
C	-2.6603844635	 0.0311630455	 0.1213497122	-0.221361
C	-3.6685577187	-0.3996227222	-0.9584454392	-0.188454
C	-3.3344550525	 0.1088606379	-2.369046199	-0.186652
C	-2.0266140489	-0.4048372518	-2.9700784046	-0.065671
O	-0.8644654074	 0.0456396448	-2.2704289487	-0.266593
C	-0.4957781633	-0.7488048706	-1.1822859751	 0.028345
H	-0.2420405394	 1.6258269341	-1.0329110042	 0.295062
H	 0.8232442805	-0.3187586202	 0.5784617903	 0.097011
H	-1.3113587327	-1.6398823922	 0.6556726989	 0.082591
H	-3.1053724734	-0.1173760767	 1.1116521545	 0.096696
H	-2.4658829614	 1.10621329	 0.0364010674	 0.109665
H	-3.7504144919	-1.4951920976	-0.970598834	 0.091221
H	-4.6621196969	-0.0224480694	-0.686692325	 0.093075
H	-4.1428954822	-0.1701078296	-3.0580963218	 0.094076
H	-3.2990354279	 1.2062956396	-2.3612620189	 0.102316
H	-2.0239995431	-1.5035821372	-3.0156354798	 0.094428
H	-1.9173123518	-0.029439843	-3.9931448982	 0.106481
H	 0.0094983968	-1.6742599821	-1.4592022935	 0.085823
