21
gdb 40280	2.7932	1.36587	1.04375	2.1239	84.67	-0.2378	0.0115	0.2493	1205.8437	0.184326	-387.086689	-387.078524	-387.07758	-387.119631	32.329	
C	 0.641418799	 1.460873458	 0.0855319398	-0.215345
O	 1.4488909843	 0.2939073765	-0.0086718986	-0.281623
C	 0.0166309561	 0.1189633544	 0.0219593072	 0.370352
C	-0.4793430405	-0.5152863432	 1.3070304015	-0.267465
C	-1.9716495618	-0.3197517741	 1.6056597423	-0.198192
C	-2.9138277163	-1.1161443998	 0.6944725755	-0.184965
C	-3.0374986901	-0.5989795867	-0.7463144383	-0.255387
C	-1.7984716864	-0.6234709483	-1.6084583911	-0.062186
C	-0.5400723582	-0.3162762926	-1.2898462106	-0.112716
H	 0.6799954554	 1.9878749603	 1.0393615657	 0.108611
H	 0.6339283903	 2.100105318	-0.796488819	 0.11082
H	-0.2570899685	-1.589700264	 1.2680642819	 0.105253
H	 0.1199411994	-0.1027179002	 2.1252386948	 0.101222
H	-2.1489914152	-0.6284543675	 2.6423635355	 0.096504
H	-2.224597384	 0.7485683664	 1.5581935398	 0.092022
H	-2.5923005541	-2.1655994069	 0.675167356	 0.09853
H	-3.9175935221	-1.1091207348	 1.136034998	 0.093071
H	-3.8163417959	-1.1805106407	-1.2526020566	 0.101481
H	-3.4228284347	 0.4326481047	-0.7177722733	 0.111087
H	-1.9791649925	-0.8781774413	-2.6510394749	 0.089714
H	 0.2140105756	-0.3387762783	-2.0734024756	 0.099213
