18
gdb 75219	3.64805	1.15206	1.03791	4.5308	83.25	-0.2433	0.0041	0.2474	1201.3452	0.148493	-364.839022	-364.830889	-364.829945	-364.871505	31.342	
C	-0.0066255704	 1.4933262442	 0.0720710392	-0.497558
C	-0.0055872218	-0.0010029748	-0.0007774859	 0.337288
C	 0.0306221604	-0.767896255	-1.0956632253	-0.184798
C	-0.0202977544	-2.2474034887	-0.7920680469	-0.335167
C	 0.0117578958	-2.2940944788	 0.7434509014	 0.188674
C	 1.2172646911	-1.6945926235	 1.447459066	-0.31134
C	-0.005928	-0.8405964162	 1.2398092074	-0.167174
C	-0.7275071985	-3.3186734432	 1.4195297462	 0.202545
N	-1.3265318098	-4.1525399534	 1.9540738905	-0.352286
H	 0.861856995	 1.8657838021	 0.6292565558	 0.132281
H	 0.0062471333	 1.942191514	-0.9242687559	 0.129532
H	-0.8963368057	 1.8605146132	 0.5987588567	 0.133026
H	 0.1007105118	-0.392563813	-2.1105139395	 0.097535
H	-0.9389024257	-2.709809426	-1.1736707483	 0.130761
H	 0.8158465612	-2.8028239695	-1.2339677633	 0.123194
H	 1.4167391669	-2.0608132182	 2.4481748352	 0.136861
H	 2.0946945628	-1.487032717	 0.8438696961	 0.125794
H	-0.5939029621	-0.5493444862	 2.1034344307	 0.110831
