24
gdb 122359	3.09823	0.90763	0.79842	0.7874	87.57	-0.2098	0.0894	0.2993	1577.1093	0.215091	-405.50871	-405.497697	-405.496753	-405.545229	39.44	
C	-2.8137640025	 0.7430151034	 4.37453619	-0.224848
O	-2.4472909017	 0.0011835341	 3.2376440184	-0.22526
C	-1.0535590268	 0.0076932842	 3.0036349031	-0.045938
C	-0.7386661798	-0.8899907377	 1.8152919629	-0.155241
N	-0.9141985771	-2.2899528162	 2.1756699038	-0.105744
C	-2.1444836417	-3.0121456894	 1.831415583	 0.012753
C	-3.320977104	-2.373362926	 1.1247050017	-0.420362
C	-0.8492717418	-3.3427819209	 1.1559426463	-0.004509
C	-0.5727266881	-3.0656644332	-0.3063632224	-0.412174
H	-3.9004281406	 0.6804476208	 4.4729390286	 0.123968
H	-2.3497255045	 0.3433276599	 5.2900657031	 0.105798
H	-2.5267368795	 1.803111034	 4.2816429095	 0.100699
H	-0.7090480295	 1.0356245009	 2.794952383	 0.075904
H	-0.5134213697	-0.3591062899	 3.890666737	 0.093954
H	-1.3405256815	-0.5500529934	 0.9598896582	 0.092833
H	 0.3150239554	-0.7392708106	 1.5502379821	 0.09936
H	-2.4583047735	-3.6796439824	 2.6346153869	 0.080904
H	-3.049633209	-1.8597619334	 0.2000537683	 0.113226
H	-4.0552156335	-3.1442385026	 0.8675277939	 0.111883
H	-3.7997550763	-1.642663845	 1.7827148546	 0.143859
H	-0.3217115165	-4.2277604392	 1.5150707328	 0.080113
H	-1.1207271017	-2.2060761243	-0.6959988924	 0.119444
H	 0.4951394725	-2.879420704	-0.4683151366	 0.119897
H	-0.8470365787	-3.937428479	-0.9104408759	 0.119484
