21
gdb 105904	2.22128	1.77607	1.2244	1.112	82.69	-0.2115	0.0735	0.285	1115.1921	0.182185	-383.155737	-383.147129	-383.146185	-383.188801	33.396	
C	 0.589816786	-0.4600336784	-1.8621801981	-0.377787
C	 0.0760960234	 0.0715897482	-0.518589266	-0.33654
C	-1.3371447331	-0.3424364904	-0.2296733518	 0.413341
N	-2.5163084437	-0.019149759	-1.103637384	-0.153447
C	-2.8933266548	 1.3904382903	-1.1591215502	-0.331242
C	-3.1175989848	-0.7977936226	 0.0164270851	-0.034632
C	-1.9001256789	-1.7672665539	 0.0692530274	-0.08511
N	-1.6405176692	-1.6292019272	 1.5377721767	-0.353586
C	-2.135085459	-0.2738216091	 1.1315380049	-0.113349
H	 1.6051193132	-0.1045706969	-2.0610855727	 0.110551
H	 0.6089705043	-1.5544738812	-1.8691736457	 0.119961
H	-0.0555477265	-0.136361761	-2.6838846749	 0.131398
H	 0.7017837617	-0.2911992646	 0.3053071828	 0.12397
H	 0.1390687959	 1.1675437931	-0.4995148847	 0.100565
H	-2.2089851377	 1.9253399821	-1.825739615	 0.120374
H	-3.899980541	 1.4766635666	-1.5815565226	 0.118659
H	-2.8887847352	 1.9034598686	-0.1818363927	 0.094511
H	-4.1837146009	-1.0271249991	 0.0853135956	 0.075766
H	-1.7415616493	-2.6841938161	-0.4982483735	 0.086278
H	-2.3633663873	-2.1211744688	 2.0697597664	 0.207808
H	-2.2398271928	 0.5447623495	 1.8445306531	 0.082511
