12
gdb 129349	7.30337	0.87365	0.78031	3.3525	59.91	-0.2631	-0.0317	0.2313	1325.741	0.077318	-505.952279	-505.944518	-505.943574	-505.98681	26.661	
N	-0.2238574054	 1.3198351321	 0.0154467801	-0.40883
C	-0.0348820317	 0.0824152084	 0.0030594068	 0.115793
O	-1.1630160582	-0.7239971148	 0.0104736378	-0.22637
C	-0.9863388827	-2.0477548013	 0.0017100938	 0.578098
N	 0.1303674001	-2.6938050664	-0.0080996467	-0.234718
O	-0.2661220679	-4.064505848	-0.0140987578	-0.235205
C	-1.6321037503	-4.1713540255	-0.0069925887	 0.524678
O	-2.2539673689	-5.1904679901	-0.0094193898	-0.376662
N	-2.0835910391	-2.8530669494	 0.0032034215	-0.464452
H	 0.666926557	 1.8135971513	 0.0077544774	 0.25391
H	 0.8953958958	-0.4854202543	-0.0134662756	 0.171982
H	-3.0490002188	-2.5709263419	 0.0101981713	 0.301777
