21
gdb 72334	2.24824	2.0273	1.52324	0.2203	85.82	-0.2355	0.028	0.2635	992.6112	0.184309	-349.939882	-349.93237	-349.931425	-349.971172	31.595	
C	-0.0122773621	 1.4830055066	 0.0118380006	-0.475459
C	-0.0190699621	-0.0388096843	-0.0137682813	 0.351068
C	-1.3737241093	-0.648775091	-0.4649401347	-0.33535
C	-1.7186536596	-1.621793978	 0.6431697955	-0.065973
C	-0.8092266667	-1.6608284362	 1.6207592505	-0.082934
C	 0.3344986313	-0.727400334	 1.3550837911	-0.096306
C	 1.6444161862	-1.2754393788	 0.7287057596	-0.056259
C	 1.3592239794	-2.123556428	-0.4769683159	-0.304348
C	 1.2804762977	-0.6292788059	-0.61056113	-0.090832
H	 0.9377904675	 1.8679270172	 0.3987016382	 0.112631
H	-0.1529581784	 1.8958012612	-0.9945565548	 0.11167
H	-0.8176747306	 1.8683181206	 0.6471478979	 0.113224
H	-2.1528474508	 0.116847086	-0.5816592966	 0.096656
H	-1.294267897	-1.1523847565	-1.4375200858	 0.104767
H	-2.6262129333	-2.2177672308	 0.6202744036	 0.088282
H	-0.8707911422	-2.2977352358	 2.4972377309	 0.088254
H	 0.5352343505	-0.0282264456	 2.1733449862	 0.066229
H	 2.6036710384	-1.3012725291	 1.2318303018	 0.079466
H	 2.2343911178	-2.5739860435	-0.9351014933	 0.106666
H	 0.4683934334	-2.743389751	-0.5201724579	 0.11268
H	 1.9241326099	-0.0880727131	-1.2960202056	 0.07587
