19
gdb 94818	2.51071	1.62854	1.22849	1.4255	70.87	-0.2382	0.072	0.3101	1061.3999	0.159645	-460.144252	-460.136071	-460.135127	-460.176982	32.509	
O	-0.358726131	 1.4616753949	 0.4791872283	-0.449849
C	 0.0036820304	 0.1567119788	 0.0315893957	 0.090466
C	 0.7291690338	-0.618146265	 1.1236740359	-0.141456
O	-0.3148753449	-0.9184050939	 2.0490611967	-0.302196
C	-1.4392994254	-1.3051588294	 1.2656291408	 0.40236
C	-2.0294845818	-2.666303394	 1.4965876795	-0.335945
C	-2.7491054166	-1.4111090032	 1.9649060411	-0.329889
C	-1.2824345784	-0.6954195648	-0.1455138384	 0.025223
O	-2.3742661948	 0.0621098114	-0.6005448567	-0.430313
H	-0.5668021669	 1.3788701232	 1.4197557848	 0.297034
H	 0.56970505	 0.2840083936	-0.8928950552	 0.094324
H	 1.1899034747	-1.5342055909	 0.7223437933	 0.102066
H	 1.489983656	-0.0295684011	 1.641870024	 0.118954
H	-2.4302939428	-3.2072836142	 0.6449269739	 0.115356
H	-1.5649890174	-3.2827560362	 2.2582703376	 0.118433
H	-2.7588366427	-1.2137459708	 3.0312851967	 0.11961
H	-3.6237219663	-1.077029852	 1.4183528858	 0.132199
H	-1.1139635341	-1.4902650806	-0.8803907011	 0.090067
H	-2.2087956517	 0.962161354	-0.2815681925	 0.283557
