21
gdb 64384	2.21485	1.51648	1.14903	1.2853	83.57	-0.2471	0.0444	0.2914	1166.89	0.181011	-387.067739	-387.058075	-387.057131	-387.101906	36.531	
C	 0.3779026148	 1.4673085497	-0.3685050453	-0.42849
C	 0.0067955174	 0.0092538385	-0.0569703879	 0.25643
C	-1.4978839454	-0.1292826949	 0.1784942892	-0.450074
C	 0.5333282221	-0.9211610335	-1.1630858299	-0.093456
O	 1.9280435664	-1.0700495979	-0.9297914655	-0.266155
C	 2.1947213616	-0.918015129	 0.4614122076	-0.088989
C	 0.8435955629	-0.561560332	 1.1355508751	-0.218426
C	 0.965158227	 0.2940657256	 2.3026055452	 0.321547
C	 1.0690247174	 0.9981937053	 3.2721073079	-0.45913
H	 1.4373848745	 1.5640657439	-0.6218874445	 0.128766
H	-0.204101756	 1.8296442986	-1.2223410706	 0.110331
H	 0.1712602681	 2.1171283158	 0.4859795788	 0.127543
H	-2.0646281267	 0.2050442093	-0.6972226852	 0.116343
H	-1.7784796972	-1.1681793538	 0.3841223705	 0.111884
H	-1.8141179275	 0.4804584963	 1.0309535284	 0.128726
H	 0.0240820341	-1.8984445239	-1.1213127985	 0.080983
H	 0.4004742436	-0.5095253385	-2.1685965897	 0.105441
H	 2.612330995	-1.8455747223	 0.8716231491	 0.105178
H	 2.9325048707	-0.1198699604	 0.6015173091	 0.111692
H	 0.3587018925	-1.496526021	 1.4457079404	 0.104581
H	 1.1628719146	 1.6178436944	 4.1293030257	 0.195275
