18
gdb 126169	4.00598	0.93451	0.91911	2.2098	74.52	-0.2606	-0.0161	0.2446	1353.8439	0.147182	-439.082793	-439.07388	-439.072936	-439.11722	32.239	
C	 0.0803785767	 1.5398494309	 0.1580384077	-0.38766
C	 0.0224279728	 0.0169594185	 0.0286003595	-0.189433
C	 0.6640485376	-0.487069105	-1.277302023	 0.002567
O	 2.0208454208	-0.0748644707	-1.4022214722	-0.425867
C	 0.5452658662	-1.9768738919	-1.4145656364	 0.457209
C	-0.1231180627	-2.8086281074	-2.25723344	-0.359994
C	 0.2351639159	-4.1049100529	-1.7983970796	 0.038437
N	 1.0498828064	-4.0646321139	-0.7742451655	-0.13916
O	 1.2451673097	-2.7060273055	-0.5228788732	-0.230423
H	 1.1123657148	 1.8926778079	 0.0911990968	 0.13347
H	-0.4909870253	 2.0264724832	-0.6403196599	 0.114891
H	-0.3369054154	 1.8669113015	 1.1146624268	 0.114744
H	 0.5365619771	-0.4603152142	 0.8724618149	 0.109916
H	-1.0162442327	-0.3338855467	 0.062995047	 0.104829
H	 0.1464966555	-0.0338149006	-2.1299113873	 0.103649
H	 2.5344298001	-0.5672005505	-0.7511196335	 0.293095
H	-0.7636655617	-2.5415228694	-3.0807220106	 0.12361
H	-0.0702518758	-5.0676333635	-2.1838144314	 0.136117
