20
gdb 104368	2.22939	1.50555	1.29674	3.5825	74.64	-0.247	0.0258	0.2727	1112.665	0.171507	-440.340665	-440.331498	-440.330554	-440.374265	34.785	
C	-0.3124714819	 1.3687806451	 0.1379163896	-0.400624
C	-0.1215738134	-0.1227250988	-0.1485593807	-0.207384
C	 0.9168639901	-0.4339881427	-1.2506398	 0.304816
O	 2.1739427666	 0.1255071515	-0.9289976715	-0.489002
C	 1.0122019605	-1.9439281586	-1.5340028964	-0.263968
C	-0.0482754343	-2.1929670291	-2.6319690306	-0.176964
N	-0.1320924336	-0.8967105019	-3.2936152173	-0.314303
C	 0.4542960154	 0.1192677207	-2.6118758705	 0.38227
O	 0.6249501314	 1.2656992867	-2.9831892061	-0.409717
H	 0.6325076122	 1.8185749373	 0.4548184534	 0.124635
H	-0.6619836972	 1.9097662773	-0.7453533194	 0.136842
H	-1.0405163969	 1.514704667	 0.9413686164	 0.107588
H	 0.2251220655	-0.6302976417	 0.7599486999	 0.103687
H	-1.0811384195	-0.5836244705	-0.418614047	 0.09246
H	 2.2000712239	 0.9802222437	-1.3842124489	 0.290536
H	 2.0126415044	-2.1530880968	-1.9215892867	 0.123103
H	 0.8464407986	-2.5628651247	-0.6496389698	 0.108128
H	 0.2568081385	-2.9739212156	-3.335021721	 0.119132
H	-1.0163042051	-2.4876517317	-2.2056243046	 0.113989
H	-0.544608695	-0.7528479972	-4.2016053288	 0.254776
