17
gdb 24590	4.69121	1.11784	0.99642	2.8714	74.62	-0.2165	0.0266	0.243	1192.4243	0.138869	-418.026328	-418.018794	-418.01785	-418.059535	27.861	
C	-0.2187644728	 0.9171539944	 0.3807434999	-0.066844
C	 0.9659602701	 1.1948276254	-0.5617384833	-0.281107
C	 1.809631499	 0.4641198164	 0.5197684356	 0.040097
O	 0.6075859311	 0.1059752603	 1.2511614541	-0.306369
C	 2.585237329	-0.7480222153	 0.1365425247	 0.335761
N	 3.8180961619	-0.7911313808	-0.3213686039	-0.321993
C	 4.0675575768	-2.1234525398	-0.5600597785	-0.091189
C	 2.9770560045	-2.8872677596	-0.2334671445	-0.112641
N	 2.0294948577	-1.9896030846	 0.2027039637	-0.260981
H	-0.6083002253	 1.7974404509	 0.9062654559	 0.109243
H	-1.0595605115	 0.3472367808	-0.0293146778	 0.107701
H	 0.9240638782	 0.6647260727	-1.5137539716	 0.122195
H	 1.2204918051	 2.2401613808	-0.7364515423	 0.120072
H	 2.4501077551	 1.1431161555	 1.0952196202	 0.104462
H	 5.0183804277	-2.4565393413	-0.9476991017	 0.105096
H	 2.7918791968	-3.9479619634	-0.2604674386	 0.125389
H	 1.1186993866	-2.1758390225	 0.589210328	 0.271108
