15
gdb 77348	2.52044	1.33966	1.2164	1.1725	66.54	-0.2487	-0.044	0.2046	1075.8512	0.110417	-457.729548	-457.721018	-457.720073	-457.763355	31.119	
O	 0.0017578176	 1.6045521655	-0.5419122282	-0.433374
C	-0.0422341062	 0.3075288307	 0.0265672724	 0.033851
C	-1.4954285715	-0.1885116498	 0.0155618835	-0.129426
O	-1.6797990997	-0.807348674	-1.2705354276	-0.241932
C	-0.4775322591	-1.4614043045	-1.6302602785	-0.181179
C	 0.6400811795	-0.6776089601	-0.9491246543	 0.339936
O	 1.8214542931	-0.7391102396	-1.1610837521	-0.30325
C	-1.7588894864	-1.1312229562	 1.1057321855	 0.340945
C	-1.9583979555	-1.9203668957	 1.9896963679	-0.460269
H	 0.9248928433	 1.7979652647	-0.7460335822	 0.299507
H	 0.414326601	 0.2720718188	 1.0220933657	 0.109116
H	-2.1873296512	 0.6568258148	 0.0567691937	 0.136217
H	-0.4504417323	-2.5059692482	-1.2802261597	 0.133492
H	-0.3737099386	-1.4559331258	-2.7183412481	 0.148396
H	-2.1486488642	-2.6116030305	 2.773764652	 0.207971
