17
gdb 68016	2.91565	1.61829	1.24999	3.3737	68.26	-0.2715	0.0075	0.279	1016.4869	0.135611	-458.991712	-458.983919	-458.982974	-459.023455	30.956	
C	-0.1166121378	 1.482533557	-0.0240695192	-0.48804
C	 0.1008580238	 0.0015594061	 0.0459091744	 0.408948
C	 1.0426970679	-0.8168695383	-0.8734333279	-0.323115
C	 0.7016698434	-1.9214870691	 0.1880190423	 0.265109
O	 1.3617364231	-3.1167209599	 0.3228704762	-0.476094
C	 0.7003718643	-0.7669923552	 1.2509657459	-0.323073
C	-0.7968968269	-2.007611715	-0.0516179843	 0.402958
O	-1.4867281426	-2.983449533	-0.1394497169	-0.379655
O	-1.1908808146	-0.7143938772	-0.1456749863	-0.268938
H	 0.8326493672	 2.0066893673	 0.1170744895	 0.129247
H	-0.5294506494	 1.7670877604	-0.9961134874	 0.139845
H	-0.8124524877	 1.8082592378	 0.7543828803	 0.139851
H	 0.7298482601	-0.971180617	-1.9086244003	 0.118574
H	 2.0838088753	-0.4937095368	-0.815470888	 0.118525
H	 0.6950936627	-3.8138241766	 0.2312314538	 0.298721
H	 1.7094151951	-0.4392060314	 1.5080178804	 0.118554
H	 0.0770354361	-0.876040389	 2.1413989475	 0.118583
