12
gdb 132845	3.15513	1.56749	1.04722	3.8076	66.34	-0.2643	-0.0956	0.1687	1017.4803	0.077938	-476.824879	-476.818022	-476.817078	-476.856678	24.75	
F	 0.2509098467	 0.1876669451	-0.5141320577	-0.023025
C	 0.1159433681	 1.4632466453	-0.2250231166	 0.319886
N	-1.1074866981	 1.9416358389	-0.246520118	-0.288886
C	-1.2397103846	 3.237061436	 0.0477059371	-0.003894
C	-0.1412603644	 4.0365880848	 0.360048548	-0.030704
N	 1.0920585297	 3.5378042071	 0.3777961107	-0.274112
C	 1.2458992433	 2.2426049386	 0.0860328701	 0.064731
C	 2.6484021856	 1.7361560819	 0.1207335421	 0.107297
O	 2.9901596665	 0.604703054	-0.1111537219	-0.244104
H	-2.2470217403	 3.6438540115	 0.03306089	 0.140044
H	-0.2607255194	 5.0890507087	 0.5977380526	 0.132693
H	 3.3639004268	 2.5406341979	 0.3917779135	 0.100074
