21
gdb 93945	3.98586	0.97713	0.90238	1.8383	78.3	-0.2462	0.0854	0.3315	1371.3151	0.183135	-424.211839	-424.203006	-424.202062	-424.246391	32.915	
C	-0.032936915	 1.503962801	 0.0869690024	-0.409857
C	 0.140597131	-0.0029680379	 0.0355810646	 0.16279
C	 0.7627279133	-0.5598938778	-1.2644190951	-0.261038
C	 1.6502133197	-1.745437171	-0.7811906703	-0.027157
C	 1.4382577879	-1.7239336793	 0.7514924476	-0.116776
O	 1.0379819354	-0.4037680216	 1.0682850841	-0.260392
C	 1.3155367195	-3.054855281	-1.4612487272	 0.071387
C	 1.3492610461	-4.3643015792	-0.7979003816	-0.188022
O	 0.105487074	-3.7137331109	-1.0742269882	-0.232196
H	 0.9289501701	 2.003422025	-0.0666405426	 0.119598
H	-0.7271499888	 1.8364044585	-0.6909886577	 0.115689
H	-0.4303959255	 1.8132920997	 1.0576516353	 0.125555
H	-0.8337323072	-0.4937506039	 0.2005818049	 0.070434
H	-0.0059841501	-0.8821095914	-1.971656711	 0.110365
H	 1.3695558432	 0.2067327874	-1.7548675094	 0.100342
H	 2.699402549	-1.5252546852	-1.0064351976	 0.083277
H	 0.6510161187	-2.4418501075	 1.028512388	 0.105734
H	 2.3427333045	-1.9481014317	 1.3222893692	 0.103259
H	 1.4747610823	-3.0485154484	-2.5415777788	 0.093006
H	 1.5462579935	-5.2617102312	-1.3825771465	 0.116925
H	 1.6134332284	-4.4343176035	 0.2561133098	 0.117076
