17
gdb 127285	4.86895	1.20562	0.98445	3.2604	76.58	-0.2253	0.0128	0.2381	1176.9453	0.138296	-418.016735	-418.008799	-418.007855	-418.050442	28.343	
C	-0.0754874578	 1.3877219397	 0.0905850807	-0.315764
N	 0.0247855255	-0.0519401856	-0.0129403495	 0.05204
C	 0.1589600781	-0.7957532233	-1.1517095557	-0.224789
C	 0.1366919791	-2.1107122526	-0.7486684871	 0.17473
C	 0.226318803	-3.5401298514	-1.1655628929	-0.187784
O	 0.0710620663	-4.2787610778	 0.0626157542	-0.285119
C	-0.0366243424	-3.4271406273	 1.2147474376	-0.175037
C	-0.0160813259	-2.0477311955	 0.6402695234	 0.30601
N	-0.0884131523	-0.8100657692	 1.1061015659	-0.371015
H	 0.2757930934	 1.8370050634	-0.8401028522	 0.137844
H	-1.1093211682	 1.6992182717	 0.2721153762	 0.145206
H	 0.5470049525	 1.7352723742	 0.9174437306	 0.154936
H	 0.2564473508	-0.3196091239	-2.114506872	 0.135041
H	-0.5651877469	-3.8488159	-1.862400432	 0.111465
H	 1.1913802168	-3.8015635563	-1.6236733449	 0.10944
H	-0.9659367989	-3.6615841586	 1.7510670485	 0.117635
H	 0.8029615369	-3.6200719775	 1.897630149	 0.115159
