21
gdb 54401	3.12954	1.30743	1.16548	2.7565	82.3	-0.2361	-0.0096	0.2265	1154.7189	0.183509	-387.107953	-387.099521	-387.098577	-387.141476	32.675	
C	-0.0520307873	 1.4780543803	-0.02147573	-0.489762
C	 0.0410411844	-0.0383251582	 0.0434145412	 0.254223
O	 1.110509879	-0.6073293773	 0.0814064863	-0.299776
C	-1.2553836147	-0.8026359243	 0.0446301888	 0.285573
C	-2.1193045435	-0.916510821	-1.2620436444	-0.265165
C	-2.7086147018	-2.14545711	-0.5133422308	-0.025402
C	-1.2806353256	-2.354808033	 0.0665925233	-0.260603
C	-3.4404270797	-1.4789084463	 0.6673049499	-0.210567
C	-2.345200575	-0.4420606152	 1.087256352	-0.274274
H	 0.9345974914	 1.8975689528	-0.2222229957	 0.140197
H	-0.7627712686	 1.8008391638	-0.7894819873	 0.133781
H	-0.4173863528	 1.86820879	 0.9356680506	 0.143988
H	-2.7888183703	-0.0865863298	-1.5089498397	 0.089735
H	-1.5188083095	-1.1955522616	-2.1305604072	 0.108421
H	-3.2338704472	-2.9367710462	-1.0483377757	 0.062951
H	-0.5781923916	-2.7828287108	-0.64980774	 0.111308
H	-1.1825091838	-2.853186274	 1.0351105959	 0.09205
H	-4.3760692117	-1.0003991229	 0.3641061306	 0.097112
H	-3.6695677559	-2.1888656657	 1.4668921461	 0.100687
H	-1.992607853	-0.5895316209	 2.1120217606	 0.106303
H	-2.6884034525	 0.5919295003	 0.9935140654	 0.099219
