17
gdb 76254	2.52179	1.37835	0.96823	4.9316	71.75	-0.2417	-0.0395	0.2022	1200.0389	0.135126	-455.180106	-455.170753	-455.169809	-455.214616	32.919	
C	 0.0002597884	 1.6293981254	 0.1249668852	-0.396125
C	 0.010719936	 0.111159535	 0.0490373002	 0.021573
C	 0.6660564648	-0.5251603995	-1.2303897991	-0.142287
N	 0.9948501017	 0.3487394482	-2.3306569693	-0.509772
C	 1.7678861326	-1.0626595956	-0.2774260881	 0.405423
O	 2.8081750782	-1.6360775185	-0.3910637149	-0.318603
N	 1.0711428821	-0.5546941617	 0.8456330127	-0.130178
C	 1.2402211171	-0.6608827894	 2.2136370223	 0.148607
O	 2.1463573531	-1.234795216	 2.7587863773	-0.269843
H	 1.0016549575	 2.0438433889	-0.0252264841	 0.122233
H	-0.655565704	 2.032714926	-0.6511217045	 0.145527
H	-0.363901185	 1.9722650211	 1.0980993782	 0.126532
H	-0.98170837	-0.2940299697	 0.2703529581	 0.099503
H	 0.0590147747	-1.3538434157	-1.6058079204	 0.119561
H	 1.8094341453	 0.9166814065	-2.1209823504	 0.242705
H	 1.2252338766	-0.1943522089	-3.1550422707	 0.249596
H	 0.4221164109	-0.148596636	 2.7598669374	 0.085548
