21
gdb 58356	2.19891	1.28399	0.90506	2.7013	78.88	-0.2499	-0.0246	0.2253	1347.6778	0.179311	-424.213344	-424.203078	-424.202134	-424.249504	36.618	
C	 0.028707017	 1.5112266034	-0.0825973593	-0.402963
C	 0.0087804349	-0.021918992	 0.0274747212	 0.017824
C	 0.8375299832	-0.4689938196	 1.2397697232	-0.40609
C	-1.4526822492	-0.536203488	 0.0736258082	-0.091518
C	-2.2175118333	-0.0724957654	-1.1649797485	 0.154277
O	-3.3788729916	 0.2453792059	-1.1656821119	-0.26533
C	-1.5657510598	-2.0543695595	 0.1528519632	 0.06321
C	-2.795881108	-2.7791552337	-0.1852025328	-0.189463
O	-1.6871839434	-2.7541720106	-1.0937395084	-0.239457
H	 1.0550615349	 1.8817409227	-0.164843956	 0.117931
H	-0.5237267239	 1.8736106569	-0.9556907833	 0.12324
H	-0.422202397	 1.9695772996	 0.8055111458	 0.121141
H	 0.474403322	-0.4387263388	-0.8770540698	 0.090806
H	 1.8407290383	-0.0335577051	 1.1925244197	 0.118402
H	 0.3763741518	-0.1335827219	 2.1763079575	 0.116817
H	 0.9586099623	-1.5539386775	 1.2925776495	 0.121869
H	-1.9616406921	-0.1112059002	 0.9490314201	 0.099103
H	-1.6189674935	-0.0657239209	-2.1015855591	 0.093095
H	-0.8906377964	-2.5344192802	 0.8599301727	 0.098409
H	-2.9876961807	-3.7438830073	 0.2814567777	 0.117954
H	-3.6751053155	-2.2261080178	-0.5076100198	 0.140742
