21
gdb 61930	4.61111	0.67265	0.63578	1.2661	85.29	-0.2547	0.0573	0.3121	1791.47	0.180212	-387.042659	-387.032481	-387.031537	-387.078495	37.607	
O	-0.3725908383	 1.3203687633	 0.0348077825	-0.428963
C	-0.1116444179	-0.0810050663	 0.043785922	 0.09364
C	 0.6602800686	-0.5145428885	-1.2089585447	-0.198818
C	-0.0824187421	-0.1605708289	-2.5126324844	-0.357325
C	 0.6761026133	-0.5012141377	-3.7091448319	 0.292029
C	 1.3247420833	-0.7905878717	-4.6791522535	-0.439841
C	 0.5854300077	-0.5351316102	 1.3195104645	 0.010657
C	 1.6181671304	 0.3251059199	 2.0062239795	-0.27373
C	 0.2659488984	 0.1066690454	 2.6411590627	-0.272012
H	 0.4718057378	 1.7744177443	-0.0645821905	 0.281801
H	-1.1107301166	-0.5374868532	 0.0178140079	 0.089546
H	 1.6488776159	-0.0368267976	-1.2075107265	 0.103698
H	 0.8413636327	-1.5944832081	-1.1712192872	 0.109977
H	-1.049853961	-0.6798138573	-2.5310633349	 0.128664
H	-0.3173372178	 0.9097668404	-2.5074840632	 0.139225
H	 1.885949685	-1.0412117224	-5.5446915355	 0.191845
H	 0.7776120427	-1.6049701824	 1.3384761283	 0.084258
H	 2.4854921225	-0.1620246197	 2.4372338072	 0.113309
H	 1.825539955	 1.314207451	 1.6100413657	 0.096526
H	-0.4228004175	 0.9435192515	 2.6221195251	 0.126096
H	 0.2007704581	-0.522605812	 3.5216038767	 0.109419
