21
gdb 68794	2.83134	1.25567	1.06197	0.9961	89.68	-0.2433	0.052	0.2953	1240.0131	0.180373	-349.907498	-349.897925	-349.896981	-349.941257	36.844	
C	 0.0207337077	 1.5814195404	 0.0570108886	-0.499177
C	-0.0180397949	 0.0800113114	 0.0484549509	 0.314829
C	 1.1502812543	-0.7780392413	-0.3673655416	-0.384569
C	 0.5916132114	-0.9417313056	 1.0212442049	 0.319351
C	 1.4042790976	-0.7702423037	 2.2715253383	-0.502686
C	-0.6962058004	-1.7974865057	 0.9491611657	-0.229447
C	-1.3000786359	-0.7538572091	-0.0647126841	-0.300056
C	-0.5748084103	-3.1829643565	 0.5320071127	 0.333656
C	-0.4635506748	-4.3243712087	 0.1676032659	-0.476354
H	 1.0077548695	 1.9529920966	 0.352034096	 0.116883
H	-0.1977213155	 1.9895322679	-0.9376082414	 0.121592
H	-0.7160358951	 1.9988972724	 0.7534395781	 0.11356
H	 1.0350140645	-1.5649206391	-1.1096287266	 0.113044
H	 2.1060986364	-0.2636002945	-0.4114899062	 0.104511
H	 2.1471188427	 0.0258657992	 2.1555550921	 0.117656
H	 0.7733592177	-0.5166280241	 3.1317191072	 0.113561
H	 1.94596405	-1.6915323829	 2.5179041193	 0.128698
H	-1.2377775682	-1.746541981	 1.8995541027	 0.097684
H	-2.1819151158	-0.2571755568	 0.3476008097	 0.102188
H	-1.5425288998	-1.1404132162	-1.0589092354	 0.103109
H	-0.368111261	-5.3341156128	-0.1462566469	 0.191966
