18
gdb 23609	3.06435	1.05798	0.82583	1.1533	76.95	-0.2467	-0.002	0.2447	1377.1934	0.146347	-439.001273	-438.99249	-438.991546	-439.035459	32.251	
O	-0.1054983799	 1.3623115301	-0.0372987296	-0.389914
N	 0.0470657459	-0.0287627218	 0.0987753972	-0.219984
C	-1.0646951129	-0.6159338096	-0.0076483382	 0.331029
C	-2.5103604855	-0.2735689916	-0.2554183812	-0.164488
O	-2.8335624593	-1.6837391918	-0.2484431695	-0.300454
C	-1.4561652201	-2.079188803	 0.0374900096	 0.04113
C	-0.873478718	-3.0118132429	-0.98036971	 0.020158
C	 0.2906413834	-3.8920528888	-0.5925345196	-0.264025
C	-1.0663309459	-4.5004462112	-0.8212640019	-0.270196
H	 0.7992654434	 1.6783483795	 0.0604681996	 0.310354
H	-3.0072336067	 0.2824186792	 0.5502012221	 0.125683
H	-2.7330215813	 0.2106267204	-1.2145365197	 0.12884
H	-1.3837925253	-2.5229638199	 1.0418434729	 0.091283
H	-0.8777538285	-2.6218529986	-1.9934963406	 0.087658
H	 1.0669847918	-4.0548245	-1.3309377921	 0.11794
H	 0.656661456	-3.8280688785	 0.4267338535	 0.118608
H	-1.6230259519	-4.8479953967	 0.0426280892	 0.118881
H	-1.2277645752	-5.0867084848	-1.7184983215	 0.117496
