15
gdb 13065	4.4009	1.12548	0.96221	2.5272	71.52	-0.2527	0.0221	0.2747	1208.3044	0.117919	-362.634154	-362.625784	-362.62484	-362.670511	28.407	
C	 0.0218143125	 1.5217299967	-0.0906360401	-0.497789
C	 0.0352606245	 0.0680629729	-0.0256743979	 0.062168
C	 0.0383456719	-1.1347948692	 0.0174222557	 0.100169
C	 0.0399294029	-2.5799666457	 0.0857217507	-0.314302
C	 0.0549004378	-3.2604436766	 1.4836392435	-0.088036
O	-1.1943120181	-3.9452563665	 1.1719759612	-0.249213
C	-1.2963157191	-3.317691151	-0.0510252873	 0.444278
N	-2.1821511128	-3.3691254484	-0.9313683798	-0.536201
H	 0.8065119337	 1.8976780091	-0.756055578	 0.151287
H	-0.9388655125	 1.8894547202	-0.4671082553	 0.156298
H	 0.1829834662	 1.9651769303	 0.8980515713	 0.149567
H	 0.7887899029	-3.0068872882	-0.5895506608	 0.134576
H	 0.8613203891	-3.9733102888	 1.6680613135	 0.124203
H	-0.0684602605	-2.5801310291	 2.3281150917	 0.131524
H	-2.9462996084	-3.9896312958	-0.6588731384	 0.231473
