16
gdb 75665	2.84562	1.33376	1.118	3.6823	76.98	-0.2507	-0.0229	0.2278	1117.4707	0.122176	-400.697834	-400.689305	-400.688361	-400.730881	31.91	
C	-0.0415071872	 1.6517096686	 0.002017033	-0.42067
C	 0.0724288707	 0.1349574365	 0.0591422389	-0.182545
C	 1.1253744861	-0.6030214162	-0.7850602454	 0.402766
O	 1.4126031601	-0.6429113459	-1.9390332332	-0.294823
N	 1.6744767487	-1.3828756394	 0.3173784085	-0.203155
C	 2.1939238621	-0.3611784182	 1.2682749649	-0.272216
C	 0.7312609263	-0.5737614854	 1.2597939347	 0.118054
C	 0.0152492428	-1.1861428217	 2.3264970559	 0.216216
C	-0.6186424026	-1.6620044108	 3.2310165349	-0.380638
H	 0.9058219131	 2.1427967907	 0.2415258147	 0.124539
H	-0.3352584817	 1.9644446494	-1.0042432736	 0.144068
H	-0.798588824	 2.0108844764	 0.7053544833	 0.134348
H	-0.8994076195	-0.3288125466	-0.1441785658	 0.12699
H	 2.757508288	-0.8048138876	 2.0817654436	 0.150918
H	 2.6171662997	 0.5576012842	 0.8696147847	 0.136123
H	-1.1709028126	-2.0959762541	 4.0278431908	 0.200024
