19
gdb 73498	2.91338	1.79255	1.4249	2.8667	73.16	-0.2489	0.0821	0.331	967.9243	0.161654	-423.02982	-423.022573	-423.021628	-423.061319	28.997	
C	 0.003192065	 1.4752279106	 0.0696312728	-0.496666
C	 0.036133924	-0.031779326	-0.0265214819	 0.309348
C	 1.0080660131	-0.6672626494	-1.0203508693	-0.151052
O	 0.3466221396	-1.8000273918	-1.5828804367	-0.257482
C	-0.7292344792	-2.1690020229	-0.7416050425	 0.182956
O	-0.3085690033	-3.0424238404	 0.2870154972	-0.256264
C	 0.1987446053	-2.2637174549	 1.3736128237	-0.108062
C	-0.3607556382	-0.8590342815	 1.1900125415	-0.13102
C	-1.204272822	-0.8820422859	-0.0559874474	-0.14722
H	 0.9614819366	 1.8715195271	 0.4248435942	 0.123532
H	-0.2041438501	 1.9300374127	-0.9055368912	 0.123896
H	-0.7700659087	 1.8106826224	 0.7675598807	 0.12018
H	 1.2457466331	 0.0292702624	-1.8328294716	 0.10303
H	 1.9536496113	-0.9724942262	-0.5496214371	 0.100284
H	-1.4553891415	-2.7071307492	-1.3512477565	 0.094821
H	-0.1515498976	-2.7116568838	 2.3099105209	 0.107437
H	 1.2976114364	-2.2881859722	 1.3765543298	 0.10155
H	-0.6821500409	-0.3149223042	 2.0713437647	 0.089504
H	-2.2191961928	-0.5162426968	-0.1416783612	 0.09123
