16
gdb 29345	1.96235	1.87859	0.97134	3.7736	78.73	-0.2365	-0.022	0.2145	1172.2705	0.123965	-400.814455	-400.805651	-400.804707	-400.848203	31.291	
C	 0.006033592	 1.5019470867	 0.0390089502	-0.507533
C	-0.0346579615	 0.008244594	 0.0298466957	 0.159222
C	-0.1850159296	-0.8249288934	-1.0269199505	-0.117317
O	-0.1713451839	-2.1356583972	-0.6295928344	-0.175369
C	-0.0092297979	-2.158563657	 0.7100290599	 0.285903
C	 0.0382031188	-3.4793645628	 1.3835223195	-0.50095
C	 0.0813121115	-0.8711110384	 1.1758558653	-0.01731
C	 0.2553957212	-0.4872466388	 2.5266524868	 0.195514
N	 0.3978278058	-0.1624460212	 3.6300385957	-0.35613
H	 0.9523524546	 1.8709768269	 0.4487111909	 0.146242
H	-0.1054904653	 1.9025990436	-0.9715597423	 0.130368
H	-0.7949049149	 1.9173420049	 0.6599041881	 0.146235
H	-0.309243486	-0.6587867059	-2.0840055336	 0.147222
H	 0.8664978711	-4.0866320689	 1.0025999474	 0.151178
H	 0.1722082511	-3.3415637276	 2.4580045297	 0.161555
H	-0.8869551069	-4.041299475	 1.2154883816	 0.151168
