17
gdb 19079	2.95411	2.50265	1.70513	1.33	67.85	-0.2171	0.0542	0.2712	805.4182	0.141713	-363.745306	-363.737891	-363.736947	-363.776885	28.623	
C	-0.0580519756	 1.6130322283	 0.0138182447	-0.397756
C	 0.0540640781	 0.1063400326	-0.1322231911	 0.027916
C	 0.6215773235	-0.8214548841	-1.1515166515	-0.069491
C	 1.9865626434	-0.5737782137	-1.8233048303	-0.112753
C	 2.6433493408	 0.7096145218	-1.5266827652	 0.090782
O	 2.0503346162	 1.9491705609	-1.7560306047	-0.414534
C	 2.5107794364	-0.3115973394	-0.3997097223	-0.088365
N	 1.2054153531	-0.742399443	 0.2417515275	-0.167166
H	 0.8771931145	 2.0587697138	 0.3490705502	 0.109612
H	-0.3469813969	 2.0996393005	-0.9184245579	 0.138713
H	-0.8172574214	 1.830730934	 0.7713475382	 0.106893
H	-0.8220031118	-0.3830857671	 0.2976013515	 0.10098
H	 0.0595803312	-1.7058477612	-1.4409385894	 0.096845
H	 2.3469992447	-1.269236242	-2.571643144	 0.094709
H	 3.6896550914	 0.6805512665	-1.8468989151	 0.097061
H	 2.5025039096	 2.6040889579	-1.2130070387	 0.285687
H	 3.4017190528	-0.6841523558	 0.0929627481	 0.100866
