17
gdb 83183	3.22555	1.34452	1.17352	2.1175	67.68	-0.2333	-0.0206	0.2126	1063.7061	0.136386	-458.957651	-458.950022	-458.949078	-458.989928	29.79	
O	 0.4953787482	 1.0044188081	 0.3546984577	-0.419907
C	 0.0839238447	-0.2951490102	 0.0852097297	 0.093515
C	-1.4038794959	-0.6091361057	-0.0084185974	-0.134117
C	-2.401339509	 0.5364806373	 0.0991149319	-0.336072
C	-3.0054326691	 0.8613591253	-1.2566364937	 0.361315
O	-4.1616253705	 1.1579357807	-1.4339400541	-0.302952
C	-2.0338383946	 0.7787737831	-2.4397371785	-0.175662
O	-0.6829587346	 0.5602012883	-2.0482168317	-0.263615
C	-0.5337091071	-0.5843953569	-1.2516485439	 0.017697
H	 0.4367605946	 1.4873849129	-0.4812151497	 0.298427
H	 0.729958349	-1.0452734189	 0.5310975889	 0.107646
H	-1.7328715494	-1.5788226114	 0.3491342803	 0.102991
H	-3.2105898229	 0.3205598791	 0.7982757482	 0.132555
H	-1.8779670109	 1.4317579398	 0.463697744	 0.144419
H	-2.3811807024	-0.0105152016	-3.1227464142	 0.130309
H	-2.0593173458	 1.7255105049	-2.9862586449	 0.145769
H	-0.3031145043	-1.4952958747	-1.8011419226	 0.097681
