15
gdb 70045	4.07173	1.20251	1.03704	5.2409	72.99	-0.2683	-0.0588	0.2095	1132.8938	0.112689	-416.816463	-416.80881	-416.807866	-416.848565	28.854	
C	-0.006263014	 1.503682306	-0.0898421378	-0.476975
C	 0.0622790087	 0.0126259936	 0.0333789701	 0.386733
C	-0.823583323	-0.8311460739	 0.8977488146	-0.346526
C	 0.677103283	-0.8456447048	 1.1408850927	-0.068209
N	 1.409187861	-1.8941841	 0.4803636524	-0.289326
C	 1.2163938318	-1.7074698547	-0.7674227042	 0.291188
O	 0.4869667836	-0.6360870584	-1.1728338811	-0.266149
C	 1.7316127535	-2.5425015365	-1.8113417924	 0.279912
N	 2.1439032398	-3.2119053009	-2.6578963436	-0.315054
H	 0.9536779156	 1.9133369266	-0.4169528756	 0.140458
H	-0.7743319442	 1.8016146083	-0.8106256086	 0.143432
H	-0.2609373788	 1.9450642225	 0.8773121675	 0.133165
H	-1.4179348051	-0.2990812663	 1.6320651853	 0.132512
H	-1.2843705205	-1.7209349031	 0.4821434302	 0.137363
H	 1.0887662885	-0.4744009285	 2.0710921305	 0.117475
