18
gdb 30278	3.03853	1.57844	1.09131	0.5325	78.13	-0.1712	0.0605	0.2317	1100.6264	0.149998	-401.976636	-401.968797	-401.967853	-402.009017	30.39	
C	-0.0209493762	 1.5902389407	-0.096778063	-0.392318
C	-0.0075315451	 0.0655313695	 0.0628051925	-0.151338
C	 0.8023997633	-0.6417675922	-1.0853576013	-0.101298
O	 1.6218881145	-1.7078362683	-0.5090148071	-0.293344
C	 1.578344073	-1.4431731833	 0.8168627299	 0.414622
C	 0.7298020012	-0.4771817538	 1.2602304148	 0.205752
C	 0.8513309462	-0.4578915646	 2.6823925793	-0.334074
C	 1.7823035633	-1.4160687538	 3.0190330716	-0.082813
N	 2.2315780462	-2.032409861	 1.847578702	-0.387403
H	 0.9978152118	 1.9910502384	-0.0782828451	 0.116855
H	-0.4923775167	 1.8885830492	-1.0402996007	 0.108627
H	-0.5821205355	 2.0596566837	 0.717020432	 0.119595
H	-1.0492970049	-0.2870576753	 0.0455457751	 0.08038
H	 0.1705625114	-1.0985773407	-1.8495672662	 0.116709
H	 1.4841488685	 0.0711846102	-1.5644470088	 0.110045
H	 0.3340320427	 0.1767346081	 3.3859735248	 0.091032
H	 2.1818484804	-1.7114944657	 3.9747554436	 0.113942
H	 2.9219142859	-2.7592422511	 1.7862280366	 0.26503
