23
gdb 37979	2.86525	1.61099	1.23656	0.2155	89.41	-0.2809	0.0859	0.3668	1106.7644	0.210615	-351.119491	-351.112289	-351.111345	-351.150765	30.708	
C	-0.0063837578	 1.7285305147	-0.0002878248	-0.222571
C	 1.4717158949	 1.2353848949	 0.0367617543	-0.084682
C	 0.9933614613	 0.2200026261	 1.1266248848	 0.071169
C	 1.8103630834	-0.9670197512	 1.6375731332	-0.253777
C	 2.7942461367	-1.6447002396	 0.6821432166	-0.188548
C	 2.1304991167	-2.1117408565	-0.6113500711	-0.188549
C	 1.8636772827	-0.9622033375	-1.5847442936	-0.253799
C	 1.0482356685	 0.235700394	-1.0972483049	 0.071219
C	-0.0813835133	 0.1717881686	-0.0167519976	-0.084683
H	-0.3782985967	 2.2266832345	 0.8985358994	 0.085025
H	-0.3276937694	 2.2431616329	-0.909294866	 0.085057
H	 2.3665832521	 1.8618903788	 0.0606791995	 0.05996
H	 0.593795093	 0.7310382646	 2.0116893448	 0.058487
H	 2.3639766181	-0.6240461377	 2.5215964013	 0.091229
H	 1.1030862039	-1.7216876612	 2.0119945614	 0.094538
H	 3.6158746214	-0.9561048008	 0.4408872151	 0.090812
H	 3.2518896571	-2.4945765152	 1.2026911268	 0.08705
H	 2.7618335891	-2.8528083459	-1.1162593538	 0.08705
H	 1.1890206852	-2.6252414746	-0.3718155656	 0.090811
H	 2.8265745098	-0.5809840675	-1.9554941621	 0.094532
H	 1.3516892034	-1.3659891329	-2.468169402	 0.091224
H	 0.7245995437	 0.7812295592	-1.9926912581	 0.058488
H	-0.9890676337	-0.4359926877	-0.0408492475	 0.05996
