15
gdb 26838	3.61439	1.08056	0.8337	4.5901	79.39	-0.1899	-0.0327	0.1573	1285.7018	0.112664	-453.987763	-453.978943	-453.977998	-454.021146	32.008	
N	 0.1145483322	 1.3998125584	-0.1487655006	-0.611731
C	-0.0075046334	 0.0116481618	-0.0689169808	 0.263755
C	-1.1497523153	-0.788809335	-0.0952179896	 0.280246
O	-2.400733359	-0.237177688	-0.1216311995	-0.461459
C	-0.7434925765	-2.130364343	-0.0700169449	-0.353276
C	 0.6496814881	-2.1424304806	-0.0216746527	 0.237999
N	 1.0675806885	-0.8195853105	-0.0236871428	-0.361422
C	 1.5815188858	-3.2359514282	 0.0350728398	 0.06326
O	 1.2880015415	-4.4171754859	 0.021343748	-0.30345
H	 0.5532867696	 1.8149171658	 0.6672019062	 0.252349
H	-0.7974389199	 1.8221033951	-0.2763372143	 0.265662
H	-3.046711926	-0.9364996092	-0.2549784496	 0.303669
H	-1.3634005114	-3.0138837098	-0.0610896401	 0.122423
H	 2.0253518864	-0.5162890934	-0.0853654367	 0.266229
H	 2.6499528994	-2.9113709175	 0.0946542377	 0.035747
