19
gdb 48135	2.87617	1.28003	0.91873	3.8022	79.41	-0.2252	-0.0534	0.1719	1259.9036	0.1609	-419.230786	-419.222128	-419.221184	-419.264728	31.563	
N	 0.0648979101	 1.4760352163	 0.2991520499	-0.529664
C	 0.0866368349	 0.1949118316	 0.1418414117	 0.280115
C	-1.2932532934	-0.4133816855	 0.2170384169	 0.141389
O	-1.5682797946	-1.5857348431	 0.1617433254	-0.272708
N	 1.1696047217	-0.6089954031	-0.0439909977	-0.104794
C	 1.1702656917	-2.053838594	-0.3379279654	-0.145565
C	 2.5926659972	-2.3043206353	-0.8559810892	-0.223673
C	 3.4361425096	-1.280812511	-0.0821069125	-0.228334
C	 2.5218022158	-0.0500093123	-0.0248053815	-0.171385
H	 0.9959761204	 1.8893387304	 0.2550870276	 0.214218
H	-2.054106263	 0.379765384	 0.3481969495	 0.116775
H	 0.9671316502	-2.6375486133	 0.5682073937	 0.115585
H	 0.3997572783	-2.3101064504	-1.0640269093	 0.134211
H	 2.9135173578	-3.3365882471	-0.6997612407	 0.110315
H	 2.6412898651	-2.0964539721	-1.9305673972	 0.111122
H	 3.6351671403	-1.6442589388	 0.9316418655	 0.114544
H	 4.3966065115	-1.0613530976	-0.5530187769	 0.110421
H	 2.6803454924	 0.611905854	-0.8898296279	 0.111138
H	 2.6803852641	 0.5511508572	 0.8789176083	 0.11629
