17
gdb 15546	3.28675	1.84558	1.27756	4.0551	71.03	-0.2362	0.0055	0.2418	952.2258	0.142844	-363.901392	-363.89371	-363.892766	-363.933608	28.204	
C	-0.0205723194	 1.6215569545	-0.00078689	-0.385122
C	-0.0025134581	 0.0851161817	 0.0154713425	-0.017106
C	 0.738316678	-0.5109906767	-1.1570018315	-0.070464
C	 1.7872672529	-1.2304564352	-0.771428925	-0.089011
C	 1.9149151723	-1.264971396	 0.7255383398	-0.200878
N	 0.7550858646	-0.4759290887	 1.1476978347	-0.053426
C	 0.3493740514	-0.4530257426	 2.4391880843	 0.140593
O	 0.9419748865	-0.9824557674	 3.3589370057	-0.343677
H	 0.9987939899	 2.0168498161	-0.029185623	 0.127487
H	-0.559971651	 1.9846323763	-0.8818893537	 0.119223
H	-0.5223625732	 2.0172232946	 0.8871499866	 0.124997
H	-1.0425364534	-0.2739804979	 0.0440060963	 0.097929
H	 0.4257197989	-0.3246214518	-2.1769261632	 0.107848
H	 2.485738249	-1.7422786167	-1.4212539952	 0.111544
H	 1.8655462129	-2.2775936387	 1.1464022789	 0.134686
H	 2.8558235503	-0.8257080206	 1.0853368002	 0.127955
H	-0.5976494115	 0.1078236391	 2.5741760025	 0.067423
