20
gdb 65347	3.17379	0.99717	0.96784	1.305	88.06	-0.2319	0.0555	0.2874	1345.305	0.168556	-365.934244	-365.924745	-365.923801	-365.968523	35.922	
C	-0.0484691951	 1.5428973669	-0.0130391356	-0.460729
C	-0.0168668253	 0.0218362834	 0.0038626357	 0.108439
C	 1.3251671223	-0.6832042893	-0.1849524188	-0.339284
C	 0.6686842706	-0.7046141605	 1.1623385268	 0.016024
N	 1.2524523043	 0.0849663463	 2.2073343874	-0.06362
C	 0.6257904714	-0.0110609494	 3.5232647039	-0.223823
C	 1.9436291763	-0.6533164379	 3.2632552544	-0.221827
C	-1.1779546778	-0.6227635988	-0.550879922	 0.274987
C	-2.1575859939	-1.1477594965	-1.0126399699	-0.456829
H	 0.8262075856	 1.9455976732	 0.5001041829	 0.135325
H	-0.0634185965	 1.9130062887	-1.0427434327	 0.121494
H	-0.9446872946	 1.9161647454	 0.4920279393	 0.122769
H	 1.3463656754	-1.5959227413	-0.768116237	 0.121807
H	 2.1903212218	-0.0386375223	-0.2943497692	 0.122601
H	 0.1980692489	-1.6433393975	 1.4651552234	 0.084308
H	 0.5645222369	 0.916529958	 4.0848146125	 0.119544
H	-0.2372427101	-0.6660747637	 3.6276710596	 0.117184
H	 1.9641171068	-1.7392375756	 3.1929011023	 0.114137
H	 2.8611612262	-0.2021013914	 3.6296270534	 0.119086
H	-3.0201067032	-1.611880608	-1.4218543564	 0.188408
