16
gdb 81679	3.85122	1.31866	1.23424	4.2562	64.23	-0.2525	0.0442	0.2967	1016.0643	0.125672	-475.042764	-475.035256	-475.034311	-475.074935	29.08	
O	-0.0665322382	 1.3906494181	 0.0525023598	-0.433679
C	 0.0081602562	-0.014049331	 0.0385213882	 0.109005
C	-1.4132807253	-0.6223358911	-0.1258369275	-0.015134
C	-1.2552906414	-0.3962351658	-1.6575959031	-0.257663
C	 0.2518411766	-0.6200128078	-1.3798632511	 0.070928
O	 0.5422588588	-2.0220646045	-1.2557834483	-0.263666
C	-0.3067574421	-2.7812871521	-0.4886360582	 0.461577
O	-0.1600027692	-3.9710562311	-0.3965154257	-0.388911
N	-1.2821560987	-2.047183542	 0.1373423795	-0.356298
H	 0.8216305466	 1.7427306191	-0.069064701	 0.293011
H	 0.6185387562	-0.4206263858	 0.8541263799	 0.086637
H	-2.2462868545	-0.1936053956	 0.4296913651	 0.092868
H	-1.7582428183	-1.0912805835	-2.3313371064	 0.115515
H	-1.4480687583	 0.6396277842	-1.9327848073	 0.131448
H	 1.0169324585	-0.2027460885	-2.0355608102	 0.090343
H	-1.9845748269	-2.5661831327	 0.6354054562	 0.264019
