13
gdb 3746	6.76738	2.20545	1.68098	2.3359	56.45	-0.2132	0.028	0.2412	708.1475	0.103371	-340.657975	-340.651529	-340.650585	-340.688556	23.232	
C	 0.0155378021	 1.3768461005	 0.1058677986	-0.313995
N	 0.0147366986	-0.0609460369	-0.0168144449	 0.056613
C	-0.1769793537	-0.809847136	-1.1259882549	-0.007824
C	-0.0891962469	-2.1366126048	-0.7545287841	-0.332985
C	 0.1633080997	-2.0735766296	 0.6309202503	 0.441846
O	 0.3289839077	-3.1331355101	 1.4502383117	-0.428694
N	 0.2276220306	-0.8284677684	 1.0843136671	-0.382913
H	 0.9818694591	 1.7295383186	 0.4786326471	 0.145509
H	-0.1706043918	 1.8137576064	-0.8768828199	 0.136199
H	-0.7664144234	 1.7032657671	 0.7980746391	 0.145502
H	-0.3593859985	-0.3512796124	-2.0856836449	 0.128936
H	-0.1895063099	-3.0108933979	-1.3743684369	 0.109828
H	 0.4855598865	-2.7812891165	 2.3354681217	 0.301977
