17
gdb 28328	4.7895	1.22506	0.99372	2.5017	76.71	-0.1636	0.0586	0.2222	1159.9274	0.138935	-418.027072	-418.019369	-418.018425	-418.059103	29.762	
N	-0.0070514675	 1.3978746099	-0.0091943469	-0.602663
C	-0.00507721	-0.0093856431	-0.0089875062	 0.295614
C	-1.0957215533	-0.8426201536	 0.1182810048	-0.247092
N	-0.6036036233	-2.1498421594	 0.0734884481	-0.043715
C	-1.1205941052	-3.4588992537	-0.2630925291	-0.198725
C	 0.1932075702	-4.2727528852	-0.157266762	-0.100131
O	 1.2574571172	-3.3331647067	-0.4134747414	-0.277932
C	 0.7353915619	-2.104519928	-0.1600637671	 0.458323
C	 1.1775851546	-0.810622056	-0.2007827146	-0.439905
H	 0.8015076984	 1.7820006561	 0.4636917366	 0.239312
H	-0.843033385	 1.7831002148	 0.4116513824	 0.235628
H	-2.1256925316	-0.6315486936	 0.3515457694	 0.09875
H	-1.8775220661	-3.8111043027	 0.4434851812	 0.121892
H	-1.5465546889	-3.4824601254	-1.2759847102	 0.119743
H	 0.3149856365	-4.679511068	 0.8537308855	 0.119817
H	 0.2685420069	-5.0811950661	-0.8858239997	 0.126299
H	 2.1850493451	-0.4624095192	-0.356820911	 0.094784
