19
gdb 72149	2.50392	1.98033	1.76484	2.664	72.84	-0.2328	0.0704	0.3032	892.5255	0.16217	-423.028323	-423.021623	-423.020678	-423.058821	28.831	
O	-0.0427003182	 1.3694808204	 0.0787023328	-0.50601
C	 0.056683404	-0.0203752694	 0.048302805	 0.426594
C	 0.9150759953	-0.7600540239	 1.077927282	-0.302471
C	 0.5224960922	-2.1722566967	 0.59076176	-0.03882
C	-1.0252488043	-2.0956430723	 0.6939648479	-0.227697
C	-1.3095505251	-0.7634801868	-0.0256317325	 0.064503
O	-1.1733474028	-0.9536271922	-1.4553136089	-0.301521
C	 0.2549415216	-0.7600392779	-1.322818815	 0.028459
C	 0.9140014979	-2.0888515132	-0.9104084748	-0.227516
H	 0.8392340363	 1.7404387965	-0.0325471267	 0.27844
H	 1.9856706432	-0.5482536669	 0.9750626543	 0.085763
H	 0.6084345514	-0.5477585197	 2.1066430906	 0.101685
H	 0.9725517536	-3.0078253657	 1.1288292618	 0.064476
H	-1.547724344	-2.9231350067	 0.2073215964	 0.106159
H	-1.3374924759	-2.0548524325	 1.7436725251	 0.095982
H	-2.2291934973	-0.2407455662	 0.24330615	 0.08252
H	 0.6880725642	-0.2407267626	-2.1812832588	 0.071542
H	 2.0040037619	-2.0435991537	-1.0191575821	 0.091179
H	 0.5394577159	-2.9186079605	-1.5155496572	 0.10673
