16
gdb 51140	3.13951	1.16141	0.9427	2.9636	70.71	-0.2502	-0.0258	0.2244	1210.5062	0.122752	-437.860894	-437.852611	-437.851667	-437.894955	29.957	
N	 0.3564188337	 1.1517174564	 0.0264218633	-0.55812
C	 0.168250498	-0.0839375271	 0.1056326064	 0.411575
O	 1.0485535139	-1.12782821	 0.3860671493	-0.273958
C	 0.0062024295	-2.0874664718	 0.0604604335	 0.030467
C	-1.1068841086	-1.9485075453	 1.0333942916	-0.331615
C	-1.0030633553	-0.9785635957	-0.155146377	 0.175599
C	-2.0947691721	-0.7301979171	-1.160214901	-0.392897
C	-3.0955436452	 0.2998148056	-0.6528667753	 0.155166
O	-4.2873517332	 0.1345015938	-0.6523852272	-0.237007
H	 1.3244194283	 1.4033382919	 0.2318415465	 0.236208
H	 0.2865261136	-2.9439495827	-0.5366848983	 0.133251
H	-1.9176266233	-2.665089573	 0.9370649465	 0.136895
H	-0.8960827001	-1.6168212315	 2.0451220206	 0.138544
H	-1.652026403	-0.3320891656	-2.0837891245	 0.138197
H	-2.6361780297	-1.6481527183	-1.4050760335	 0.124738
H	-2.6332306664	 1.2380982605	-0.2782349309	 0.112959
