14
gdb 33327	3.07002	0.87138	0.70847	1.8734	91.82	-0.2388	-0.0238	0.215	1519.5168	0.098281	-362.286999	-362.278135	-362.277191	-362.321112	32.543	
C	-0.1428537529	-3.8229842303	-0.0219234975	-0.56497
C	-0.0917844485	-2.6164813467	-0.0033360115	 0.294862
C	-0.0371371914	-1.25832607	 0.0158275891	-0.167054
C	 0.0162713568	-0.0493166562	 0.0387121978	 0.474634
C	 0.0489583448	 1.3806821152	 0.0193885155	-0.335284
N	 0.5269606758	 2.0792220437	 1.2292369424	-0.309023
C	 1.3457183742	 2.1625264667	 0.0075148679	-0.242974
C	 2.6282728698	 1.5204038451	 0.0104807298	 0.382234
C	 3.7096990705	 0.9981835222	-0.0234684745	-0.416282
H	-0.1855791705	-4.8837048001	-0.0355469083	 0.192702
H	-0.763318096	 1.8441686324	-0.5381938272	 0.122364
H	 0.0037296874	 2.9433648796	 1.3506566172	 0.244589
H	 1.3041388007	 3.0907196238	-0.5595903509	 0.120752
H	 4.6613261093	 0.5271273746	-0.04117801	 0.20345
