16
gdb 30054	2.79304	1.55819	1.00967	1.2391	73.42	-0.2361	-0.0222	0.2139	1114.8571	0.126359	-434.143	-434.134573	-434.133629	-434.17645	30.629	
C	-0.020290877	 1.4478700069	 0.0570717537	-0.321473
N	-0.0141135739	-0.0085377212	 0.0591901845	-0.067788
C	-0.1008617569	-0.7962780805	-1.0400572132	 0.014848
N	-0.0766268466	-2.0857733282	-0.7556124652	-0.275012
C	 0.0344378343	-2.1347071323	 0.6013291985	-0.167832
C	 0.0801771527	-0.8647453569	 1.1461705343	 0.211129
C	 0.18043991	-0.3778533595	 2.5305633196	 0.308379
N	 0.4008255579	-1.3502825376	 3.4732465516	-0.533847
O	 0.0470862824	 0.7988102895	 2.8346336887	-0.387809
H	 0.8910648786	 1.8366876589	 0.5133371458	 0.157428
H	-0.0843450526	 1.7815284254	-0.9806879067	 0.128716
H	-0.8683545386	 1.828318142	 0.6263168822	 0.165079
H	-0.1797804412	-0.3734576714	-2.0313089196	 0.134396
H	 0.0544490936	-3.0801498348	 1.1246245337	 0.110814
H	 0.7871520826	-2.2410973128	 3.2106490341	 0.261356
H	 0.5973826447	-1.0189911876	 4.4043403979	 0.261617
