21
gdb 106264	2.94261	1.23644	1.07193	2.8152	83.67	-0.2294	0.0178	0.2472	1249.3957	0.181281	-387.078531	-387.069114	-387.06817	-387.112666	35.237	
C	 0.025828318	 1.5341581504	 0.0303636436	-0.388189
C	-0.0328297813	 0.0013263693	-0.0107199944	-0.31406
C	-1.4423880627	-0.5237825712	 0.0118455084	 0.20902
C	-2.6076333321	-0.2751937996	-1.0179148425	-0.302963
C	-3.2856273299	-1.2103541832	 0.0482511664	 0.186245
C	-4.6909641577	-1.7372455422	 0.0726676678	-0.512717
C	-1.935172212	-2.0156287271	 0.0198012911	-0.319398
C	-2.5475132886	-0.3216591029	 1.0617835416	 0.404653
O	-2.7329472461	 0.2307213617	 2.1053469766	-0.345969
H	 1.0614509258	 1.885995252	 0.041883054	 0.113775
H	-0.4659104147	 1.9723088006	-0.844463048	 0.116715
H	-0.4747123657	 1.9173228419	 0.9245366476	 0.142527
H	 0.4851248309	-0.3723484041	-0.9032401689	 0.100409
H	 0.5054478608	-0.4107839284	 0.8522514588	 0.109443
H	-2.9947707125	 0.7413693127	-1.1178142534	 0.108021
H	-2.4512997043	-0.7475585917	-1.9921008941	 0.100374
H	-4.9061150773	-2.3469946035	-0.8109741739	 0.122095
H	-4.8578666976	-2.356689037	 0.9598582658	 0.131473
H	-5.4133802042	-0.9150244484	 0.1005239609	 0.131394
H	-1.7537464935	-2.5528309991	-0.9157025473	 0.100527
H	-1.6897231055	-2.6263900402	 0.8920356596	 0.106625
