19
gdb 33846	3.96094	1.26392	1.13221	0.9135	85.53	-0.229	0.0467	0.2757	1123.6174	0.160141	-348.703844	-348.69615	-348.695206	-348.735583	31.712	
C	-0.0232513295	-1.170986762	-0.1234570539	-0.421806
C	-0.0150617802	 0.0311589725	-0.0574097026	 0.196781
C	-0.0194412362	 1.4601740308	 0.0342486418	 0.17401
C	 0.4307024343	 2.2663526381	-1.1745043357	-0.329873
C	 1.2805681846	 2.2801493293	 0.0633293599	-0.081228
C	 1.1255620186	 3.3814727623	 1.0899357668	-0.031287
C	 0.1327177819	 4.4958262374	 0.8589903936	-0.302903
C	-0.2710516884	 3.2956492704	 1.6770386775	-0.027813
C	-1.0046488521	 2.122184313	 1.0214109966	-0.314106
H	-0.0267017718	-2.2306046847	-0.1850087882	 0.184339
H	 0.795939425	 1.6929645156	-2.019009472	 0.121579
H	-0.1410943277	 3.1441682793	-1.4521174924	 0.115122
H	 2.2345958711	 1.7683255617	 0.024717452	 0.098189
H	 1.9857049684	 3.5839161904	 1.7172924824	 0.085813
H	 0.3002744883	 5.4214019234	 1.4001970178	 0.110265
H	-0.290888499	 4.6467969293	-0.1275342969	 0.111901
H	-0.4368940854	 3.4491701494	 2.7378025175	 0.086393
H	-1.9344497742	 2.4232355217	 0.5257162343	 0.108051
H	-1.2744051077	 1.3889083122	 1.7861562713	 0.116574
