20
gdb 100850	2.11066	1.22836	0.82678	2.4473	83.68	-0.2298	-0.0354	0.1943	1414.896	0.166518	-403.099943	-403.089162	-403.088218	-403.136383	38.044	
C	 0.0448582749	 1.6834535673	 0.0292423659	-0.398233
C	 0.1136768897	 0.157567117	-0.0083072138	-0.118677
N	 0.7749945949	-0.3655402233	-1.2100284833	-0.088001
C	 2.2034191436	-0.0670484256	-1.2285452825	-0.332533
C	 0.4804883654	-1.7917227152	-1.3738525494	-0.188867
C	-1.0223532116	-1.9542860176	-1.6935035181	 0.157692
O	-1.750996317	-2.7382424014	-1.1524986466	-0.239915
C	 1.1766202786	-2.3972615587	-2.5074776162	 0.276703
C	 1.6720287021	-2.934028973	-3.462335095	-0.409509
H	 1.0307285144	 2.1418632072	 0.1439310251	 0.123169
H	-0.4079748997	 2.0691626773	-0.8887040398	 0.12753
H	-0.5650065443	 2.004748425	 0.8789215859	 0.120374
H	 0.6054851393	-0.219799534	 0.9093391899	 0.084987
H	-0.9085444297	-0.2358923868	 0.0119469661	 0.119144
H	 2.7408361094	-0.4846975361	-0.3568252011	 0.095194
H	 2.6538179449	-0.4715602196	-2.1360389261	 0.13976
H	 2.3528196469	 1.0146085056	-1.2323015251	 0.125447
H	 0.6881289789	-2.3849892261	-0.4640171679	 0.100941
H	-1.3583065603	-1.2660595566	-2.4982373181	 0.099576
H	 2.1311839897	-3.4074338652	-4.2952092899	 0.205217
