19
gdb 72097	2.78819	1.77264	1.641	1.2138	73.76	-0.2163	0.0825	0.2989	937.9489	0.161425	-423.022147	-423.014963	-423.014019	-423.053359	29.264	
C	 0.0127819465	 1.5030862825	-0.0240233123	-0.484633
C	 0.0364849455	 0.0075807694	 0.0614796709	 0.404563
O	 0.2927714909	-0.618725168	-1.1821372804	-0.295492
C	 0.4766472644	-2.003498373	-0.8653557694	 0.019959
C	 1.3186915586	-2.0007716048	 0.4292698072	-0.23135
C	 0.6870390654	-0.8272182121	 1.15992549	-0.195388
C	-0.8239347867	-0.8089962751	 0.9920914528	 0.049391
O	-1.492291265	-1.9631116785	 0.5550238991	-0.278156
C	-0.9053242833	-2.5888532645	-0.5878442017	-0.056269
H	 0.9745867229	 1.8853316992	-0.3822017419	 0.126032
H	-0.7677419192	 1.8406625287	-0.7135733996	 0.130574
H	-0.1866309139	 1.9393261799	 0.9586762721	 0.119815
H	 0.9498949158	-2.4897302826	-1.7207493451	 0.085529
H	 1.2344521819	-2.9500862043	 0.9669690353	 0.109712
H	 2.3750917404	-1.8104207005	 0.217204806	 0.107102
H	 1.1656411274	-0.3898791952	 2.0288257775	 0.084952
H	-1.4244748949	-0.2915014703	 1.7325478918	 0.101384
H	-1.545920284	-2.4271525459	-1.4653378344	 0.103472
H	-0.8493851228	-3.6670126349	-0.3893152377	 0.098803
