19
gdb 26124	2.42825	1.50238	0.97394	1.165	78.88	-0.2137	0.0158	0.2295	1221.2052	0.158338	-423.061194	-423.051893	-423.050949	-423.09572	34.394	
C	-0.0416115331	 1.3604309075	 1.0896464744	-0.388642
C	-0.1864270206	 0.4517934958	-0.1329707767	 0.010544
O	 0.894281008	-0.4822059871	-0.2209560546	-0.416694
C	-1.5130429292	-0.258207142	-0.1868637451	 0.24182
C	-1.9861010968	-1.2862857664	-0.9554573539	 0.155107
C	-1.2661011646	-2.0300880416	-2.0402133995	-0.51711
C	-3.3421351525	-1.4986985948	-0.5282470851	-0.258175
C	-3.5868776615	-0.5934785702	 0.451521678	-0.027153
O	-2.4873118345	 0.1686286419	 0.6762540698	-0.182813
H	 0.9479707816	 1.8229585382	 1.0722882347	 0.120759
H	-0.8033150477	 2.1443154169	 1.0941667688	 0.127298
H	-0.1456314064	 0.7879006508	 2.0171038438	 0.11463
H	-0.0661916827	 1.0640030235	-1.0363090138	 0.105297
H	 0.7593770047	-1.1379637019	 0.4729892009	 0.276646
H	-1.35912235	-3.1136406463	-1.9050756192	 0.122597
H	-1.6832409077	-1.7962502852	-3.0271256267	 0.126452
H	-0.2048038201	-1.7776011895	-2.0459939967	 0.149376
H	-4.0327433371	-2.2351754412	-0.9105982537	 0.108153
H	-4.4443453597	-0.3712077983	 1.0653538947	 0.131909
