18
gdb 15557	2.91163	1.88897	1.29188	2.9236	73.24	-0.2365	-0.0277	0.2088	967.3825	0.153687	-347.8277	-347.819762	-347.818817	-347.860409	29.334	
C	-0.707738503	 1.2662841537	 0.0532789454	-0.416674
C	 0.0918919858	-0.0346055577	-0.0343497861	 0.016551
C	 1.2690741664	-0.0196472433	-1.0464598526	-0.264296
C	 2.2513583878	-0.9932454928	-0.4430251775	-0.057798
C	 1.9436463485	-1.3032875664	 0.8162224091	-0.094226
C	 0.7216255667	-0.5496935358	 1.3056847228	-0.131344
C	 1.1664521709	 0.5725462882	 2.2318597336	 0.162048
O	 0.7925360832	 0.7171303482	 3.3670902302	-0.252868
H	-0.0770838092	 2.1180519378	 0.3296075022	 0.120521
H	-1.1676989643	 1.5001274232	-0.9123446335	 0.117062
H	-1.5096130559	 1.1923865541	 0.794877491	 0.127192
H	-0.5897425327	-0.8324881771	-0.3511684002	 0.091391
H	 0.9481061314	-0.3024480436	-2.0556282731	 0.106874
H	 1.7143274527	 0.981801476	-1.1384828661	 0.1082
H	 3.1098220332	-1.3748975422	-0.9851040284	 0.100143
H	 2.51237425	-1.9611204411	 1.4634991555	 0.105575
H	 0.0211097683	-1.1673162347	 1.8762120978	 0.088832
H	 1.9109689201	 1.2682418537	 1.7790319101	 0.072818
