25
gdb 93908	2.48541	1.23864	0.98149	0.2067	94.38	-0.2342	0.026	0.2602	1362.8824	0.230545	-352.378647	-352.36908	-352.368136	-352.412776	37.503	
C	-0.2531915633	 1.5968350293	 0.1170775611	-0.397831
C	-0.1024052564	 0.0689369736	 0.0764998977	 0.042215
C	 0.7284531922	-0.3529652558	-1.1463197598	-0.180563
C	 0.6621048209	-1.8425404619	-1.5073193884	-0.215432
C	 1.3920641249	-2.8401854459	-0.5863183678	-0.015814
C	 2.9236757184	-2.643004258	-0.5982293879	-0.383491
C	 0.8832125382	-2.9064771916	 0.8375394523	-0.061264
C	 0.5182543201	-1.9187577063	 1.6566256997	-0.067133
C	 0.4797499824	-0.4285872154	 1.4129407678	-0.23728
H	 0.7233165005	 2.0854063161	 0.2211102369	 0.110684
H	-0.7154153131	 1.974196775	-0.8009744349	 0.108337
H	-0.8740490988	 1.9159815397	 0.960907146	 0.107812
H	-1.1051377787	-0.3688151235	-0.0331126784	 0.06993
H	 0.3684502374	 0.213955412	-2.0143603317	 0.087413
H	 1.7710594564	-0.0377317978	-1.0008189484	 0.089192
H	-0.3930242143	-2.1385428308	-1.569934662	 0.091232
H	 1.0745922947	-1.970528262	-2.5166618794	 0.085548
H	 1.2077665808	-3.8295878678	-1.0261932044	 0.071255
H	 3.2092662157	-1.6822895297	-0.1597719401	 0.11987
H	 3.4211591006	-3.4264961127	-0.0182409953	 0.112288
H	 3.3139720047	-2.6800438886	-1.6215778759	 0.106993
H	 0.8721344412	-3.9115928971	 1.2577863526	 0.078375
H	 0.2356800665	-2.2110401898	 2.6668654073	 0.080028
H	 1.4965785731	-0.0174144789	 1.5204270428	 0.104237
H	-0.0978875643	 0.0297613379	 2.22435878	 0.0934
