14
gdb 33365	5.71286	0.69552	0.66827	3.8811	76.1	-0.2848	-0.0568	0.228	1589.7018	0.101656	-436.659398	-436.65133	-436.650386	-436.693621	27.861	
N	 0.0073112516	-3.7435870001	-0.1452568456	-0.330164
C	 0.0042496448	-2.5828183765	-0.1032206173	 0.215118
C	-0.0028497921	-1.2184029042	-0.0511990504	-0.024131
C	-0.0112241386	-0.0114361874	-0.0017922516	 0.18389
C	-0.0298138451	 1.4463676948	 0.0540202843	-0.106135
C	-0.6038385946	 1.9986872094	 1.4009959832	-0.127545
O	 0.2783097082	 3.0576836665	 1.7120177282	-0.220112
C	 1.526291405	 2.6235552224	 1.2418104926	 0.018459
O	 1.2847707766	 1.9992384151	-0.008766416	-0.241062
H	-0.5964468789	 1.8289099152	-0.8031945691	 0.135113
H	-1.6150155322	 2.3949591898	 1.3017582706	 0.13938
H	-0.5870278863	 1.2182429998	 2.1736622871	 0.120595
H	 2.1769169611	 3.4873456204	 1.0886033018	 0.135828
H	 1.9869865105	 1.9071216948	 1.9439898922	 0.100766
