17
gdb 73515	3.09436	1.75177	1.36833	1.6521	73.78	-0.2319	-0.0065	0.2254	953.2046	0.135328	-421.754866	-421.747524	-421.74658	-421.786228	29.27	
C	-0.1171310912	 1.627680971	-0.2205403884	-0.446149
C	-0.0041336545	 0.129200527	 0.0228453834	 0.361666
O	 0.9994303463	-0.4366965914	-0.8113664961	-0.32334
C	 2.1407639989	-0.7034108806	 0.0289672013	-0.12533
C	 1.5570114637	-0.9344318296	 1.4177860766	-0.211293
C	 0.3286960712	-0.4287518979	 1.4068467488	 0.147743
C	-1.0656254577	-0.9002507515	 1.6572544544	-0.064837
O	-2.0130140864	 0.10940858	 1.2841455546	-0.226829
C	-1.3785727756	-0.6117533469	 0.2266449468	-0.061174
H	 0.834838909	 2.1178790747	 0.0054437292	 0.119007
H	-0.3491722252	 1.811630789	-1.2743308397	 0.122533
H	-0.8958500914	 2.0707107874	 0.4013687282	 0.14015
H	 2.6363536796	-1.6051140853	-0.3485473157	 0.117459
H	 2.8646721153	 0.1246832445	-0.0294123463	 0.106625
H	 1.9985054455	-1.6066673485	 2.1422052355	 0.107719
H	-1.4115011405	-1.690133125	 2.312120621	 0.118394
H	-1.995508557	-1.1658122269	-0.4724974736	 0.117657
