16
gdb 16487	2.97866	2.57061	1.80902	2.169	63.13	-0.2338	0.0756	0.3094	772.309	0.130517	-383.675391	-383.668619	-383.667674	-383.705947	26.831	
C	 0.0099348547	 1.5084085812	 0.0730320369	-0.517105
C	 0.0423328202	 0.0143946526	-0.0340909136	 0.234922
C	-0.9229888058	-0.9264682607	 0.6957351737	 0.039716
O	-1.0260145871	-2.1483121857	-0.0526067903	-0.310008
C	 0.4227489742	-2.0459869624	-0.2288913536	 0.005262
C	 0.5396118803	-1.0418525965	 0.9647364728	-0.193863
C	 0.5399223019	-0.8474325198	-1.2060997877	 0.130274
O	-0.1950521505	-0.9074353826	-2.391671992	-0.447127
H	 1.0053846972	 1.9418322479	-0.0746867632	 0.124178
H	-0.6560854443	 1.9345746541	-0.6850549983	 0.13527
H	-0.3507627659	 1.8335467313	 1.0549856023	 0.119715
H	-1.760240194	-0.6114451591	 1.3047057478	 0.111615
H	 0.910884401	-3.0061926501	-0.3787985807	 0.088352
H	 1.1492733601	-0.988949694	 1.8549797581	 0.103485
H	 1.5804124307	-0.6187135637	-1.4525483277	 0.090058
H	-1.0333577226	-1.3243180624	-2.1470361845	 0.285256
