25
gdb 77921	2.11291	1.33692	1.3047	0.1735	94.02	-0.2743	0.0879	0.3622	1251.9518	0.227431	-352.312222	-352.301666	-352.300722	-352.347495	39.709	
C	 0.4789315653	 1.4890006417	-1.1888859677	-0.45151
C	 0.424701166	-0.010716398	-0.8834532826	 0.023622
C	 1.6429231707	-0.9955964355	-0.9133707985	-0.109724
C	 2.1220491007	-0.4427941641	 0.4636022563	 0.03344
C	 2.9190175637	 0.8547211491	 0.6115907845	-0.457534
C	 0.5541698526	-0.579607344	 0.5727654894	 0.291689
C	-0.3062212922	-0.2470028381	 1.7644330236	-0.522476
C	 0.7630039076	-1.9925983488	-0.0859379806	 0.032745
C	-0.3773578262	-2.8031913178	-0.6871423119	-0.456432
H	 1.0508530443	 1.6938189953	-2.1015345512	 0.114593
H	-0.5367169951	 1.8616951232	-1.3602778638	 0.108706
H	 0.9040540987	 2.0922675861	-0.3866578178	 0.121676
H	-0.4335985153	-0.4146055133	-1.4247054523	 0.05795
H	 2.2687328751	-1.2390291104	-1.7758325466	 0.055773
H	 2.6177014663	-1.2095737286	 1.0721830195	 0.055545
H	 2.6044414214	 1.422469499	 1.4956972491	 0.113154
H	 3.9781773662	 0.6128489823	 0.750854797	 0.110529
H	 2.8576428264	 1.5172127676	-0.2511500173	 0.123587
H	-0.2736207449	 0.8248762891	 1.9922836357	 0.117374
H	-1.3539070068	-0.5146364213	 1.5850145868	 0.116609
H	 0.0290485231	-0.7868359259	 2.6574657637	 0.115427
H	 1.3672967915	-2.6586398159	 0.5416558466	 0.055319
H	-1.0380621451	-2.2367469058	-1.3473868552	 0.119224
H	 0.0233503388	-3.6421919441	-1.2672650746	 0.115785
H	-0.9977795731	-3.2301810317	 0.1094310178	 0.114929
