19
gdb 119182	3.44158	0.91269	0.79236	2.3886	71.15	-0.2571	0.0749	0.3321	1447.7014	0.157092	-460.103891	-460.094368	-460.093424	-460.139322	33.944	
O	 0.2705384519	 1.4327520606	 0.5755063255	-0.422256
C	 0.1915319085	 0.094307266	 0.1062876068	-0.091259
C	-1.2414470515	-0.3711678771	 0.338745275	-0.25671
C	-1.5050310455	-1.8382273253	 0.0502298098	 0.356113
C	-0.7807726995	-2.6116127645	-0.9681708969	-0.227311
O	-0.470306258	-2.7610894208	 0.4241024763	-0.276712
C	-2.8891677274	-2.2822335319	 0.4387891194	 0.014335
C	-4.0041596716	-2.260430131	-0.5180820902	-0.174823
O	-3.3848867881	-3.4883618309	-0.130676526	-0.226756
H	 1.1826320129	 1.7250028537	 0.4913426922	 0.28722
H	 0.443258381	 0.0403172003	-0.9643856168	 0.084865
H	 0.8802485772	-0.5695693216	 0.6456142573	 0.113543
H	-1.4866107375	-0.1701149546	 1.3897365679	 0.118784
H	-1.9263576938	 0.2423084345	-0.2588187628	 0.114736
H	-1.2746175531	-3.4678998456	-1.420465801	 0.134138
H	-0.0087856432	-2.1348669299	-1.5685936029	 0.110519
H	-3.1194875005	-2.1609924633	 1.4987129027	 0.104664
H	-5.0221089946	-2.1148375107	-0.161121879	 0.121602
H	-3.8192927773	-1.9512974581	-1.5459360274	 0.115309
