19
gdb 70871	2.74106	1.635	1.22078	0.5212	75.57	-0.2123	0.0702	0.2825	1073.0166	0.156733	-422.97168	-422.962974	-422.96203	-423.004154	34.256	
C	 0.0276203702	 1.398907158	-0.0502081497	-0.517219
C	 0.0112714523	-0.0887643218	 0.0133365247	 0.403648
O	 0.9143526924	-0.8542406556	-0.789865139	-0.359484
C	 0.1140950802	-2.0303866152	-0.4318779192	 0.419509
C	 0.1364665815	-3.1210283907	-1.4561586444	-0.501677
C	 0.4623109598	-2.2450844377	 1.0701232577	-0.336772
C	-0.2907360682	-0.9307750245	 1.2771818757	 0.293572
O	-0.7761209137	-0.3882945653	 2.448703418	-0.457074
C	-1.0903778352	-1.1041708813	-0.0031095161	-0.306422
H	 1.0230304034	 1.7846434378	 0.1981435606	 0.127278
H	-0.2360535062	 1.7600499649	-1.0490011207	 0.131456
H	-0.6891334056	 1.8066045914	 0.6685584149	 0.133515
H	 1.1576703095	-3.4973543118	-1.5807141904	 0.132041
H	-0.5018872405	-3.9536940341	-1.146165137	 0.12308
H	-0.2130778147	-2.750361192	-2.4238634469	 0.130721
H	-0.0888653671	-3.0866493563	 1.4986242692	 0.104058
H	 1.5276408591	-2.3061852077	 1.3174787881	 0.090819
H	-0.0558385954	 0.0757530071	 2.8906544073	 0.288835
H	-2.1472740219	-1.0757863851	-0.2311471427	 0.100116
