18
gdb 76863	2.39621	1.88057	1.63102	4.2598	69.73	-0.2308	0.0521	0.2829	916.3515	0.149511	-439.005862	-438.998657	-438.997713	-439.037081	29.906	
O	 0.1208235305	 1.4202137593	-0.1875368175	-0.430465
C	 0.0220404042	 0.0379665478	-0.0218478943	 0.084983
C	 0.3161156997	-0.5905129244	 1.4119141327	 0.084991
O	 0.664657181	 0.258050503	 2.4637135695	-0.430467
C	-1.1052007692	-1.2437008619	 1.4036168808	-0.072714
C	-2.2728973441	-0.4064137198	 1.9667082174	-0.060428
N	-1.9758627784	 1.0331352481	 1.70879772	-0.378152
C	-2.5480785249	 0.1815771718	 0.6250762643	-0.060412
C	-1.3947677167	-0.624857584	-0.0082974582	-0.07271
H	-0.4445589775	 1.8106461056	 0.4931518054	 0.286256
H	 0.6661871751	-0.4117686525	-0.7830776667	 0.085965
H	 1.1038150952	-1.3471086957	 1.3506806826	 0.085968
H	-0.0315254209	 0.9280666445	 2.506622339	 0.286257
H	-1.1877248536	-2.3140714687	 1.5886069212	 0.070288
H	-2.94461005	-0.6662563099	 2.7754165345	 0.104125
H	-2.7398632015	 1.5779771162	 2.1042810554	 0.242105
H	-3.4806512123	 0.4791322005	 0.1619404755	 0.104124
H	-1.6890417165	-1.24263381	-0.8559294416	 0.070287
