21
gdb 39665	3.92735	1.0372	0.89982	1.9583	82.44	-0.24	0.0242	0.2642	1326.79	0.184178	-387.078025	-387.069673	-387.068729	-387.112162	31.198	
C	-0.0582757476	 1.2921872368	-0.3739216587	-0.092564
O	 1.3225409296	 1.4911770237	-0.0098608028	-0.273571
C	 1.4522816329	 0.1267397455	 0.4376537829	-0.092564
C	-0.0170834927	-0.1884285809	 0.071569825	-0.015144
C	-0.9482884896	-0.6042793633	 1.2076156767	-0.008278
C	-2.4274882703	-0.6655835204	 0.7237799178	-0.271482
C	-2.6621378035	-2.1390824285	 0.4926014586	-0.054353
C	-1.6919547446	-2.8875948808	 1.0138146922	-0.054356
C	-0.631391251	-2.0513295347	 1.6887697719	-0.271482
H	-0.7330933586	 1.9358271054	 0.2072040198	 0.095764
H	-0.2298149479	 1.474770525	-1.4420919992	 0.097619
H	 2.2216538676	-0.4166234736	-0.1249944907	 0.097619
H	 1.6895904445	 0.0666429151	 1.5088358953	 0.095764
H	-0.1151014349	-0.893869866	-0.759026872	 0.08145
H	-0.8331055267	 0.1147227651	 2.0257342953	 0.070546
H	-3.1206019344	-0.2758223248	 1.4820054923	 0.10477
H	-2.5933889453	-0.0598354787	-0.1761580872	 0.101874
H	-3.5434825209	-2.5177231636	-0.0134324039	 0.090873
H	-1.6591411122	-3.9715268806	 0.9989056441	 0.090872
H	 0.3882842848	-2.3602834427	 1.42580716	 0.101873
H	-0.7019193691	-2.1419260681	 2.7814943726	 0.104771
