15
gdb 31216	2.29116	1.49154	0.91446	5.7461	75.3	-0.2244	-0.0047	0.2197	1193.492	0.114388	-416.860633	-416.852383	-416.851439	-416.894129	29.859	
O	-0.1160165635	 1.3991163453	-0.338773711	-0.427921
C	 0.0053865023	 0.0443700513	 0.0805034135	-0.212203
C	-1.3604751736	-0.5593295064	 0.0369866928	 0.245826
C	-1.7865462043	-1.8794978213	-0.0304561288	 0.087907
C	-3.2184635569	-1.86836716	 0.0072854373	-0.257698
C	-3.6072352214	-0.5577369681	 0.0898152741	-0.074625
N	-2.4714100248	 0.2179840545	 0.1159278609	-0.272869
C	-0.9352195365	-3.0059443596	-0.1179554976	 0.187658
N	-0.2255676168	-3.9200352935	-0.1906368495	-0.364332
H	 0.7112902185	 1.8495576569	-0.1470040004	 0.300324
H	 0.6808402341	-0.5311472334	-0.5681541768	 0.133194
H	 0.4130747622	-0.0117912149	 1.1026446364	 0.121144
H	-3.8603892994	-2.733458755	-0.0287216795	 0.120668
H	-4.5871882223	-0.1111761933	 0.123176668	 0.133446
H	-2.4211126376	 1.2236021675	 0.1168716006	 0.279482
