17
gdb 26578	2.30532	1.81985	1.02995	4.5898	79.27	-0.2242	-0.0498	0.1744	1126.0257	0.135142	-421.90168	-421.892956	-421.892012	-421.935783	31.553	
C	 0.0275023062	 1.5288951019	-0.020412389	-0.493775
C	 0.0065854675	 0.0221322031	-0.011897855	 0.231377
C	-1.1722288044	-0.6706533487	 0.0062085047	 0.019625
C	-2.5215802819	-0.0026145319	 0.017814737	-0.499868
C	-1.1751895113	-2.1284940902	 0.0107836994	 0.38827
O	-2.136663707	-2.8538387294	 0.0212885007	-0.347483
O	 0.0853784358	-2.7491549932	 0.0026434485	-0.216339
C	 1.2235834418	-2.0430790239	-0.0136030191	 0.07796
C	 1.2477230917	-0.6978136217	-0.0216380177	-0.246681
H	 1.046749724	 1.9147689357	-0.0901634871	 0.12814
H	-0.5487073499	 1.9278634788	-0.8622205207	 0.144409
H	-0.4271773698	 1.9338087121	 0.8911328146	 0.145745
H	-2.7029888813	 0.5531077781	-0.9105373867	 0.130397
H	-3.3042664024	-0.7537479694	 0.123440496	 0.161242
H	-2.6079516626	 0.7149743512	 0.8415762894	 0.126437
H	 2.0987849383	-2.6820949194	-0.020008415	 0.141397
H	 2.1955645354	-0.175597263	-0.03573834	 0.109147
