16
gdb 126775	2.69086	1.36767	0.9628	3.6179	68.2	-0.2132	0.0337	0.2469	1204.8331	0.124916	-471.254385	-471.245728	-471.244784	-471.288302	31.296	
C	-0.1370039435	 1.5947305846	-0.1779571281	-0.377301
C	 0.1154973932	 0.0911871878	-0.0672739765	-0.146493
N	 0.7844747852	-0.4524828602	-1.2305740287	-0.091894
N	 0.1430455074	-0.5116107447	-2.4733594789	-0.339963
C	 1.0464571865	-1.0310535647	-3.2323535771	 0.48957
N	 0.9787656725	-1.2418039974	-4.5814018194	-0.583346
O	 2.212526322	-1.3372493546	-2.6206768063	-0.232347
C	 2.0445140197	-0.953206557	-1.2694532196	 0.474952
O	 2.8869084298	-1.0870798571	-0.4259807879	-0.40593
H	 0.805804412	 2.1434828942	-0.2575495059	 0.130969
H	-0.7437315334	 1.8179271502	-1.059337173	 0.140873
H	-0.6704045441	 1.9507323526	 0.7084746895	 0.12097
H	 0.7659174206	-0.1409153794	 0.7798261612	 0.148427
H	-0.8286951022	-0.4477017252	 0.0700624921	 0.123069
H	 0.03790119	-1.2137196404	-4.946737514	 0.2749
H	 1.5208546843	-2.0273852587	-4.9111149675	 0.273545
