15
gdb 17084	5.36842	1.52311	1.4485	4.703	73.37	-0.2485	-0.0482	0.2003	880.272	0.12168	-325.514376	-325.508272	-325.507327	-325.544604	24.203	
N	 0.0515193208	-1.1057617072	-0.0377467277	-0.351586
C	-0.0031577456	 0.0524071256	-0.0165145777	 0.160226
C	-0.0290652252	 1.4614916376	 0.0095228968	 0.253147
C	-1.0673080783	 2.3159083869	 0.0178900512	-0.177754
C	-0.3963416432	 3.6870684016	 0.0481845751	-0.067727
C	 0.7397315302	 3.4665846936	-1.0150233835	-0.21067
C	 1.196739154	 2.4001768066	 0.0360781933	-0.119685
C	 0.723957099	 3.4270174801	 1.1191377672	-0.210669
H	-2.1261480589	 2.1029100235	 0.0061871404	 0.131747
H	-1.0293336151	 4.5724155318	 0.0599239755	 0.077161
H	 0.4457417411	 3.1102683887	-2.0045144239	 0.108142
H	 1.4244721165	 4.3158230839	-1.091141313	 0.106584
H	 2.186055119	 1.9472664901	 0.0349898712	 0.086357
H	 1.4072457582	 4.2726793985	 1.2367910983	 0.106585
H	 0.4154808877	 3.0343471984	 2.0902897668	 0.108141
