19
gdb 66228	2.33961	1.3241	1.12628	3.2134	75.07	-0.2511	0.017	0.2682	1177.4815	0.158408	-419.180895	-419.171381	-419.170437	-419.215636	34.349	
C	-0.6799444736	 1.6563618209	 0.0373914549	-0.466452
C	-0.4655890566	 0.1619739758	 0.1500378577	 0.31293
C	-1.692562979	-0.7002682815	-0.0641773488	-0.125549
O	-2.7641203427	-0.4243088099	 0.8363335949	-0.235681
C	-2.5548119471	-0.8334156929	 2.168404166	-0.189117
C	-1.9700841113	 0.2241358593	 3.0163584655	 0.281096
N	-1.5338998396	 1.0622448933	 3.681750246	-0.328966
C	 0.8569263756	-0.4131534559	-0.2125181778	-0.290923
N	 0.4319660212	-0.370861094	 1.1963938205	-0.342457
H	 0.2569068053	 2.198194717	 0.2002993827	 0.115298
H	-1.0539446777	 1.922577402	-0.9576695968	 0.121196
H	-1.4084131785	 2.0055002512	 0.7738717635	 0.150883
H	-2.1155415483	-0.5201323512	-1.0578898044	 0.114703
H	-1.408387583	-1.7595143904	 0.0081520338	 0.100463
H	-3.5348681757	-1.0926413164	 2.5844913937	 0.153083
H	-1.9062004998	-1.7165017472	 2.2289934136	 0.154948
H	 0.9310469008	-1.4105715866	-0.6391381393	 0.115711
H	 1.6261534379	 0.2772009015	-0.5484938013	 0.116444
H	 0.8854767218	 0.3941763551	 1.6893992058	 0.242388
