16
gdb 27945	3.82543	1.12319	0.87294	2.0932	81.5	-0.2612	-0.0794	0.1818	1272.0297	0.12498	-400.828332	-400.820276	-400.819331	-400.861789	29.052	
C	-0.0054778539	 1.5090439409	 0.0174931899	-0.465674
C	 0.0272681315	 0.0037433976	-0.0151568911	 0.340317
C	-0.0461215084	-0.7099506881	-1.2148645516	-0.260685
C	-0.0114862773	-2.1024418115	-1.1871495357	 0.216524
C	-0.0882213555	-2.8797718228	-2.4512321396	 0.101955
O	-0.0646583624	-4.084948638	-2.5126674182	-0.256065
C	 0.0961481841	-2.7456792622	 0.0461380795	-0.204712
C	 0.1631973828	-1.9545084194	 1.1855078784	 0.005129
N	 0.1306035698	-0.6186902015	 1.1673369177	-0.316534
H	 0.9027457128	 1.8981665923	 0.4882366831	 0.145445
H	-0.0906167399	 1.9350970119	-0.9849412304	 0.119713
H	-0.8504756708	 1.8571783642	 0.6197134471	 0.145445
H	-0.129502856	-0.1843595433	-2.1617692679	 0.104537
H	-0.1717166582	-2.2562249525	-3.3691421756	 0.077794
H	 0.1250354464	-3.8275416161	 0.0940088403	 0.129466
H	 0.2476712749	-2.4134304014	 2.1676964442	 0.117345
