17
gdb 124927	2.27983	1.83728	1.03024	3.6958	80.79	-0.2309	-0.0658	0.1651	1127.9747	0.134936	-418.006687	-417.997821	-417.996877	-418.041276	31.862	
C	 0.0530757402	 1.5337737567	 0.0170067591	-0.505948
C	-0.0180069043	 0.0278134709	-0.0312206667	 0.176192
C	-1.1680952794	-0.6852304245	 0.0243199639	 0.143248
C	-2.541535314	-0.1009521855	 0.1413688095	-0.479003
C	-1.092938357	-2.1449057309	-0.0325587698	 0.359195
N	-2.128732543	-2.8810012921	 0.0141530941	-0.526981
O	 0.1600881605	-2.7280059632	-0.1411577555	-0.288345
N	 1.3389563589	-1.996141863	-0.1980746424	-0.081256
C	 1.2163841628	-0.718077479	-0.1442799294	-0.01542
H	 1.0882822095	 1.8784328115	-0.0428289963	 0.132241
H	-0.4969641476	 1.9890886298	-0.8128793031	 0.148496
H	-0.3747333984	 1.9270448798	 0.9448351242	 0.148492
H	-3.1604473636	-0.4248478719	-0.7015892056	 0.157298
H	-3.0384639608	-0.4864521135	 1.0374621968	 0.1573
H	-2.5249698425	 0.9887829164	 0.1787901708	 0.11687
H	-1.871723381	-3.8675772127	-0.0387618706	 0.226711
H	 2.1655379098	-0.1905053088	-0.192280899	 0.130909
