15
gdb 34551	4.30714	1.30806	1.19038	4.7411	76.76	-0.2534	-0.0553	0.1981	1020.7325	0.11523	-379.63819	-379.631717	-379.630773	-379.669088	25.857	
N	 0.063314791	-1.1222309314	 0.1400258027	-0.338423
C	-0.0049908147	 0.0315868298	 0.0605809814	 0.191975
C	-0.0580583237	 1.4443538703	-0.0556199471	 0.223581
C	-1.163117674	 2.2177781465	-0.0472380885	-0.180206
C	-0.7400628235	 3.6558915696	-0.0054719386	-0.121616
C	-0.0256446239	 3.8345388957	 1.3905161233	-0.1453
N	 1.3045661784	 3.4952966276	 0.8191067805	-0.148685
C	 0.7203583734	 3.665925594	-0.5489691389	-0.03746
C	 1.1521479519	 2.3137926086	-0.1420897835	-0.139615
H	-2.1776657097	 1.8725752867	 0.1050227882	 0.132498
H	-1.4652861121	 4.4046547305	-0.3140533274	 0.09211
H	 0.0065742099	 4.8842455789	 1.6885986476	 0.128938
H	-0.3679500916	 3.2118002259	 2.2226666775	 0.115756
H	 1.1604983943	 4.2905015588	-1.3189389909	 0.107937
H	 2.1158008543	 1.9078735485	-0.4196026063	 0.11851
