19
gdb 120025	2.56807	1.0235	0.80999	3.7883	72.52	-0.2432	-0.0225	0.2207	1424.6212	0.156905	-460.15805	-460.148229	-460.147285	-460.193587	35.228	
O	 0.42426486	 1.276778646	 0.3793409432	-0.419208
C	 0.1799011629	-0.0752808575	 0.0234334206	-0.073923
C	-1.26897249	-0.4948680526	 0.2942648438	-0.221814
C	-1.5164389644	-1.9617988074	-0.0416008909	-0.109722
C	-2.9480999687	-2.5752364031	 0.0850740883	 0.076229
O	-3.9014394183	-1.5363545094	 0.0086032649	-0.424503
C	-2.7499696653	-3.328739859	-1.2683844312	-0.366508
C	-1.5360392306	-2.4147793314	-1.5131202358	 0.393431
O	-0.9163196821	-2.095983173	-2.4862888393	-0.296869
H	-0.0747754737	 1.8325883932	-0.2275052623	 0.281666
H	 0.4353760459	-0.2731814914	-1.0268321665	 0.117707
H	 0.8624126164	-0.6701306792	 0.6420350086	 0.103777
H	-1.5043487009	-0.3080520811	 1.3481093571	 0.111388
H	-1.9504771119	 0.1280195171	-0.2954732907	 0.108195
H	-0.8074331943	-2.605524403	 0.4977494022	 0.103527
H	-3.112129209	-3.208995786	 0.9641515342	 0.072832
H	-4.7747573909	-1.9327596609	-0.0708592994	 0.289447
H	-2.4513218185	-4.3754963528	-1.1487046095	 0.128988
H	-3.5649420065	-3.2653631085	-1.9937034574	 0.125359
