19
gdb 73525	2.6701	1.77789	1.40005	1.5855	81.98	-0.2306	0.015	0.2456	999.4194	0.160131	-385.898959	-385.891273	-385.890329	-385.930673	30.791	
C	-0.0577788099	 1.6516299075	-0.1411323425	-0.424998
C	-0.0227157272	 0.1191706931	-0.0045425927	 0.332693
O	-1.3599632909	-0.3557566565	 0.1981513392	-0.318665
C	-1.5101003071	-0.6782689713	 1.5840918277	-0.127973
C	-0.1001285616	-0.8487945559	 2.1091213338	-0.251582
C	 0.7485191203	-0.4040466952	 1.1933549838	 0.270309
C	 2.1764710994	-0.6575190359	 0.8001150241	-0.375536
C	 1.9819801892	-0.8934574842	-0.6974403447	-0.066562
C	 0.773532993	-0.5199617287	-1.1285774185	-0.131341
H	 0.9513373718	 2.0675684759	-0.22154	 0.112964
H	-0.6178618128	 1.934502425	-1.0378859484	 0.121077
H	-0.5523974845	 2.0973820905	 0.7272390855	 0.116933
H	-2.0766249799	 0.1102853288	 2.1079154831	 0.097796
H	-2.0916989952	-1.6058973221	 1.6691511074	 0.110089
H	 0.1291110951	-1.3553042035	 3.0383812115	 0.100744
H	 2.8379207366	 0.2031773468	 0.9768929442	 0.118961
H	 2.6231218499	-1.5114184317	 1.3203166969	 0.117435
H	 2.7703817126	-1.3039968334	-1.3191457952	 0.097579
H	 0.4205482412	-0.5679712793	-2.1522284154	 0.100074
