18
gdb 127505	2.37246	1.60564	0.97158	2.7116	76.86	-0.1983	0.0436	0.2419	1197.8245	0.147758	-435.293735	-435.283998	-435.283054	-435.328143	34.943	
C	 0.0242766435	 1.3891366068	-0.0720836216	-0.330417
N	 0.018125521	-0.049056073	 0.0113796656	-0.006904
N	 0.0465077627	-0.8073233081	-1.1287632088	-0.401542
C	 0.0399939013	-2.0506638271	-0.6805277369	 0.374029
O	 0.0515055707	-3.1094552656	-1.5229020844	-0.43485
C	 0.0354324335	-2.1503693511	 0.7280971796	 0.040511
C	 0.0480886444	-3.3843111217	 1.5725461672	-0.522079
C	 0.0296376081	-0.8208914811	 1.1278471659	 0.29988
N	-0.0314936029	-0.2445636564	 2.4033810921	-0.61216
H	 1.0402648336	 1.796580282	-0.15660698	 0.12592
H	-0.5431714824	 1.6882626241	-0.9550619366	 0.151162
H	-0.4517602656	 1.7975071071	 0.8227090421	 0.145577
H	 0.0811630573	-2.7513644499	-2.4189432508	 0.298573
H	 0.534041121	-3.2035148532	 2.5391927645	 0.103663
H	-0.9576060349	-3.7712662249	 1.7812856926	 0.12648
H	 0.6016417227	-4.1858926466	 1.0745337655	 0.13985
H	-0.1301637412	-0.9524114822	 3.1196772682	 0.252305
H	 0.7735378272	 0.3319836211	 2.6235487158	 0.250001
