17
gdb 37824	3.01727	2.00959	1.77703	0.7345	71.22	-0.2566	0.0675	0.3241	841.7595	0.137251	-421.716807	-421.710344	-421.7094	-421.747654	26.436	
C	-0.0773948728	 1.6539885648	 0.125214025	-0.327129
C	 1.4247339182	 1.3057505949	 0.0449291392	-0.121031
C	 1.2574656441	-0.044112387	 0.8746640265	-0.121033
C	 1.9822431012	-0.8993362713	-0.1871252719	-0.327124
C	 1.1659758849	 0.1388996129	-0.9798534116	 0.362008
O	 0.6105498043	 0.0325704219	-2.2524633381	-0.321111
C	-0.6406052413	-0.6615263988	-2.0422902244	-0.0086
O	-0.9388823757	-0.7344139101	-0.6291273616	-0.321104
C	-0.0162312538	 0.1232740987	-0.0354682446	 0.362001
H	-0.4481205256	 2.0486390418	 1.0745160219	 0.097594
H	-0.4816443682	 2.2155583943	-0.7213235033	 0.106427
H	 2.2898733712	 1.9635060462	 0.105469977	 0.088515
H	 1.3001074127	-0.1098138181	 1.9603152457	 0.088515
H	 3.0717942189	-0.8251686112	-0.2288180466	 0.097593
H	 1.6533742522	-1.9390424076	-0.2662446286	 0.106427
H	-1.4235015648	-0.1034421496	-2.5686042233	 0.119023
H	-0.5755379555	-1.6875855216	-2.4222317913	 0.119029
