18
gdb 55641	2.83946	1.08857	0.95116	2.6691	73.07	-0.2652	0.0214	0.2866	1281.1511	0.146267	-435.325006	-435.314895	-435.313951	-435.359646	37.093	
C	 0.0636925808	 1.5712976025	 0.0084071839	-0.402573
C	 0.0119949542	 0.0282872701	 0.0477928656	 0.128423
C	 0.8238464826	-0.5255768096	 1.2411567369	-0.406483
N	-1.3854403308	-0.4458291433	 0.0531798481	-0.381335
C	-2.243717268	-0.1869355133	 1.1050004391	 0.469393
N	-3.4437674278	-0.8767205544	 1.0158973601	-0.563077
O	-1.9803942815	 0.5537602458	 2.0354623415	-0.392156
C	 0.5989786093	-0.4917841752	-1.2040165309	 0.256707
N	 1.063408289	-0.9093940151	-2.1759753511	-0.332971
H	 1.100910869	 1.9071876644	-0.0645350129	 0.129308
H	-0.4900136793	 1.9475074078	-0.8546938119	 0.131133
H	-0.3839460635	 1.9615094821	 0.9219084845	 0.167195
H	 0.3738231108	-0.1624658662	 2.1655711648	 0.165003
H	 0.8136996354	-1.618605455	 1.2394300811	 0.125519
H	 1.8618576435	-0.1880094209	 1.1831816962	 0.130957
H	-1.5557328243	-1.288838566	-0.4734885555	 0.255019
H	-3.8043850571	-1.0879265795	 0.0975290873	 0.254349
H	-4.1363394124	-0.5314179041	 1.6630158231	 0.26559
