14
gdb 14816	2.6259	1.9506	1.2324	5.4291	62.6	-0.2617	-0.0401	0.2216	937.3074	0.107236	-378.708051	-378.700484	-378.69954	-378.740691	26.367	
O	-0.0558242297	-0.0813256083	-0.27068753	-0.245068
C	-0.0020550365	 1.0733737224	 0.0608961609	 0.172859
C	 1.2679297618	 1.892726663	 0.0289571709	-0.120786
C	 1.1026318563	 3.206852533	-0.7964378126	-0.184822
N	 0.8369767906	 3.934692179	 0.4626262586	-0.294704
C	 1.4575675354	 2.8548734011	 1.251789913	-0.138658
C	 0.7953940449	 2.5381274864	 2.5201969266	 0.300303
N	 0.2873244969	 2.2832949581	 3.5262612896	-0.314841
H	-0.9049483122	 1.6318273455	 0.390499137	 0.10963
H	 2.1132915259	 1.2509708011	-0.2131014727	 0.112314
H	 2.0360518998	 3.4793485913	-1.3058109879	 0.114794
H	 0.2800357591	 3.2419104646	-1.5175578352	 0.12826
H	 1.2547065949	 4.8528354545	 0.5638866362	 0.236862
H	 2.529587023	 2.9894712585	 1.4543533256	 0.123858
