21
gdb 114339	3.12473	1.15128	1.09285	1.8084	77.8	-0.2354	0.0721	0.3075	1239.7978	0.182906	-424.216088	-424.207383	-424.206439	-424.249639	33.738	
C	-0.27306705	 1.4267609377	-0.0636529	-0.383742
C	-0.1061171729	-0.0949672795	-0.0872845281	-0.194445
C	 0.7126245663	-0.5987725754	-1.2660636811	 0.154933
C	 0.8907404231	-2.1305801137	-1.3543270784	-0.274536
C	 0.907191028	-2.4023768886	-2.8549214483	-0.130594
C	-0.4396319013	-2.3394368594	-3.5667264546	 0.102882
O	-1.6266719104	-2.3344795636	-2.8420636334	-0.428956
C	 0.4413815313	-1.1214752081	-3.5090603	 0.014472
O	 0.0502684013	-0.2225197438	-2.4984451281	-0.290288
H	 0.6982070699	 1.929699538	 0.0014605487	 0.113401
H	-0.7688210587	 1.7757811154	-0.9731531993	 0.134483
H	-0.8708577093	 1.7433371622	 0.79622693	 0.111914
H	 0.3869677817	-0.434775862	 0.8321896869	 0.101166
H	-1.0884808473	-0.5842072716	-0.1113321374	 0.100628
H	 1.7027533086	-0.1148848461	-1.2597835992	 0.072736
H	 1.8162086576	-2.455369914	-0.8729645418	 0.103756
H	 0.0526726039	-2.6444280827	-0.8711411309	 0.116883
H	 1.6983811397	-3.0026652232	-3.2880020175	 0.091339
H	-0.5234031956	-2.8726696506	-4.5098245277	 0.097164
H	-1.7252873192	-1.4297802996	-2.5110149058	 0.291963
H	 0.8962843633	-0.6640001913	-4.381969644	 0.094839
