21
gdb 87770	3.73991	1.05148	1.04528	1.7196	83.94	-0.2391	0.0945	0.3336	1294.8194	0.180645	-387.0482	-387.039141	-387.038197	-387.081622	34.993	
C	-0.1341585418	 1.4968140056	-0.0227612759	-0.40438
C	-0.0225684874	-0.0100375729	 0.0454762652	-0.051484
C	 1.3039661917	-0.6967186602	-0.2097414112	-0.365895
C	 0.710919148	-0.6771049116	 1.1707418468	 0.373691
C	 1.3528722651	-0.0667296137	 2.4438986676	-0.388516
C	 0.9027968349	-1.3405757546	 3.1989816932	 0.425858
C	 1.5362254228	-1.9791126209	 4.3911917358	-0.498651
O	-0.5255132495	-1.4077183776	 3.0648829917	-0.290584
C	 0.2869302298	-1.8884325279	 1.975963968	-0.143994
H	 0.7742858115	 1.9793017349	 0.3531015658	 0.114299
H	-0.286669153	 1.8365213701	-1.053212841	 0.115883
H	-0.9751019359	 1.8596790049	 0.5781846723	 0.12277
H	-0.9006686847	-0.5416898307	-0.3146452035	 0.084759
H	 1.3088194785	-1.6340902162	-0.7579066278	 0.108721
H	 2.1718364104	-0.0702266304	-0.3958526761	 0.107553
H	 2.4397134442	 0.0319809063	 2.3693528447	 0.103343
H	 0.921759636	 0.863796721	 2.8229861587	 0.106461
H	 1.4054593359	-1.3541851281	 5.2822369237	 0.129472
H	 1.0800437981	-2.9526001319	 4.5898069159	 0.133087
H	 2.6107918389	-2.1181816102	 4.2342490063	 0.122965
H	 0.1259450264	-2.9108380258	 1.6496573299	 0.094641
