23
gdb 96334	1.974	1.45577	0.90733	1.072	81.63	-0.2416	0.074	0.3155	1340.2978	0.206405	-425.428726	-425.419185	-425.41824	-425.463037	36.441	
C	 0.084240812	 1.592533526	 0.0092762277	-0.402671
C	-0.020473767	 0.0595419425	 0.0256929184	-0.015518
C	 0.6237768506	-0.5032943882	-1.2568895846	-0.053136
O	 0.146762502	-1.7501083237	-1.7294452938	-0.263821
C	-0.067603131	-2.8116922073	-0.8168098208	-0.059226
C	 0.8694895695	-2.8944915646	 0.3923884099	-0.24609
C	 0.4572873904	-1.9864076289	 1.5597889674	 0.107126
O	 1.2243188807	-2.2638598932	 2.7277702074	-0.437182
C	 0.6405309336	-0.4924909113	 1.2989874029	-0.167842
H	 1.1314661134	 1.9131575715	-0.0487953806	 0.117414
H	-0.4427669997	 2.0175216404	-0.850721612	 0.114417
H	-0.3427738615	 2.0279949765	 0.9177905701	 0.115485
H	-1.0858921655	-0.2089355042	 0.0140225444	 0.080228
H	 0.436306536	 0.1819435317	-2.0903699628	 0.099989
H	 1.7175832926	-0.5344906316	-1.1129695047	 0.083364
H	-1.1084980723	-2.7883847798	-0.4500449552	 0.08468
H	 0.0315390653	-3.721449976	-1.4187369265	 0.104221
H	 0.8385163033	-3.9327679988	 0.7509137424	 0.084116
H	 1.9077615649	-2.6991662451	 0.1004073053	 0.113017
H	-0.6127338313	-2.1755025329	 1.7603155072	 0.061098
H	 1.1087416274	-3.1939367806	 2.9468789293	 0.278096
H	 1.7196222618	-0.2901464458	 1.2557560891	 0.101919
H	 0.2632921248	 0.0427375835	 2.1774379793	 0.100316
