17
gdb 127264	5.89528	0.95656	0.87935	4.628	77.34	-0.2266	-0.0042	0.2224	1325.8987	0.138116	-414.162411	-414.154276	-414.153332	-414.196006	29.194	
C	-0.0888323883	 1.4385648291	 0.0770538236	-0.331648
N	 0.0221172102	 0.0018016083	-0.0740549291	 0.079563
C	 0.0008994538	-0.7461712385	-1.2054802557	-0.216822
C	 0.1412966018	-2.043136778	-0.7658850751	 0.344029
N	 0.2324032407	-2.0139185881	 0.5959510281	-0.282388
N	 0.1609472213	-0.7813824488	 1.0102277362	-0.136716
C	 0.1803766681	-3.3103343212	-1.5179477719	-0.100661
C	 1.0835190552	-4.4072787956	-1.0664072117	-0.23442
N	-0.3679280169	-4.5310477703	-0.8941162619	-0.32084
H	 0.727803405	 1.9455506943	-0.4440881649	 0.149352
H	-1.044885458	 1.7950788945	-0.3159532579	 0.149963
H	-0.0302806788	 1.6552330314	 1.1434203512	 0.172959
H	-0.1082311296	-0.3125332806	-2.1852255081	 0.145329
H	-0.0368614315	-3.2188766136	-2.5787895755	 0.086974
H	 1.5201692365	-5.0787709848	-1.80078431	 0.116173
H	 1.6939086286	-4.2080680103	-0.1905043428	 0.130871
H	-0.6020800881	-4.3062022178	 0.0719339655	 0.248282
