20
gdb 107290	3.45015	1.32644	1.17943	2.2699	78.46	-0.2099	0.0735	0.2834	1126.2558	0.171105	-403.059612	-403.05151	-403.050566	-403.092274	31.615	
C	 0.1555267978	 1.3317377492	-0.2233687992	-0.257345
O	-0.2012426672	 0.0003329126	 0.1127506112	-0.281058
C	 0.5377706842	-0.5177881513	 1.1509744018	 0.422014
C	 1.9537445496	-1.0016423975	 0.9842609359	-0.369247
C	 0.8704328225	-1.9689047583	 1.4360750103	-0.107716
N	 0.4673272922	-1.8398071745	 2.8530111575	-0.11741
C	 1.534416349	-1.4714687378	 3.849181639	-0.171414
C	 1.1881717148	 0.039477375	 3.7125325046	-0.264991
C	 0.1514700612	-0.383001877	 2.6371108754	-0.042957
H	 1.2139616863	 1.4023207584	-0.5098459026	 0.111844
H	-0.4685661332	 1.6248808095	-1.07026889	 0.129096
H	-0.028098156	 2.0246028587	 0.6100706904	 0.111863
H	 2.2342439181	-1.143413367	-0.0551758754	 0.119298
H	 2.7702251381	-0.6912108209	 1.6285184833	 0.109196
H	 0.6516022008	-2.8744168017	 0.8813252276	 0.102418
H	 1.3241556001	-1.9035866053	 4.8311129091	 0.10636
H	 2.5473390634	-1.7616175854	 3.5543560835	 0.105445
H	 0.7431467111	 0.4808681642	 4.6065081498	 0.106773
H	 1.9944937141	 0.6909054163	 3.3662526339	 0.104608
H	-0.8918308567	-0.0891902173	 2.785188214	 0.083224
