19
gdb 102031	2.21931	1.3529	0.90236	2.0351	75.98	-0.2478	-0.0049	0.2429	1322.4567	0.157641	-456.370586	-456.360429	-456.359484	-456.406988	35.303	
C	-0.0260534435	 1.4610134695	 0.0633886162	-0.374903
C	 0.0536063638	-0.0632452836	-0.0182526666	-0.153284
N	 0.7068608596	-0.5524027394	-1.2446975235	-0.150198
C	 2.0848131484	-0.7496730266	-1.1993746307	 0.155579
O	 2.8343211543	-1.0118438211	-2.1029871558	-0.294897
C	-0.0986043756	-0.6784278047	-2.3894892673	 0.502907
N	-1.2899181217	-0.230282774	-2.369246746	-0.585959
O	 0.548429104	-1.3187673345	-3.3782633029	-0.201658
C	-0.1346461351	-1.4682799392	-4.6136712015	-0.261696
H	 0.9717845026	 1.9109386376	 0.0386717459	 0.117099
H	-0.6122036168	 1.8540719794	-0.7691565109	 0.151297
H	-0.5093976157	 1.7586076244	 0.9994166413	 0.117593
H	 0.6232347142	-0.4613667076	 0.8269859426	 0.110985
H	-0.9459235603	-0.4966219508	 0.0148529445	 0.143098
H	 2.4363782137	-0.6218421499	-0.1563826992	 0.078998
H	-1.7878048499	-0.4213932394	-3.2324925357	 0.224436
H	-0.4242589876	-0.4960366588	-5.0288988445	 0.135484
H	 0.5741164838	-1.9545271884	-5.2839280179	 0.153365
H	-1.0251829882	-2.099254713	-4.5056323382	 0.131752
