21
gdb 118530	1.55227	1.31549	0.79291	2.1013	80.99	-0.2479	0.0555	0.3034	1505.6237	0.179054	-424.183901	-424.172963	-424.172019	-424.221102	38.755	
C	-0.1240248929	 1.4752426264	 0.0868123898	-0.386615
C	-0.0351130782	-0.0387053658	 0.0040013535	-0.04187
O	-1.3499666071	-0.5678996679	 0.0922038956	-0.264595
C	-1.4347722139	-1.9898121671	 0.0526863902	 0.090058
C	-1.4870282781	-2.5084880063	 1.4947176198	-0.071685
O	-2.5433927818	-1.9006090779	 2.2110326549	-0.420191
C	-2.706865412	-2.3513200888	-0.734160152	-0.35634
C	-2.6593142854	-1.9087252808	-2.1208063166	 0.305506
C	-2.6013514034	-1.5556929874	-3.2682042142	-0.446962
H	 0.8716566075	 1.9192103228	-0.0047287812	 0.117987
H	-0.755317586	 1.8633345113	-0.7171071453	 0.134984
H	-0.554517986	 1.7874592357	 1.0428989503	 0.122621
H	 0.4206046357	-0.3480457437	-0.9489020735	 0.102087
H	 0.5995156861	-0.4312706785	 0.8141586482	 0.090309
H	-0.5598036179	-2.409300314	-0.46356426	 0.079064
H	-1.6600213926	-3.5900281846	 1.5113981943	 0.106368
H	-0.5144854791	-2.3219243952	 1.9787632875	 0.086812
H	-2.4666089444	-0.9560880699	 2.0224759094	 0.287296
H	-2.8471780791	-3.4387329004	-0.6944561596	 0.127629
H	-3.5638141163	-1.9077620265	-0.2159248639	 0.145412
H	-2.564674685	-1.2399006013	-4.281031577	 0.192122
