10
gdb 3857	3.77715	3.6801	1.86706	3.8743	46.71	-0.2105	-0.022	0.1885	604.2693	0.066349	-392.601894	-392.59556	-392.594616	-392.631856	22.62	
N	 0.1054927234	 1.4268135266	-0.1123356116	-0.592093
C	-0.0011522325	 0.0621958488	-0.0481814838	 0.378731
C	-1.079642122	-0.784486706	-0.1131277585	 0.24304
O	-2.3882787455	-0.4418715218	-0.1969575977	-0.444037
N	-0.6042843236	-2.048980625	-0.0766176735	-0.188171
N	 0.6605503521	-2.068824834	 0.0070675658	-0.050001
O	 1.0951239547	-0.682653072	 0.0251067496	-0.209593
H	 0.927065943	 1.8098213839	 0.3332699284	 0.273335
H	-0.7432172395	 1.9170784593	 0.1308678084	 0.276322
H	-2.9041554301	-1.2562188097	-0.1881340771	 0.312467
