14
gdb 130246	5.96811	0.99484	0.90441	2.0435	65.51	-0.2421	-0.0266	0.2154	1233.219	0.101866	-469.981486	-469.97392	-469.972975	-470.01417	27.663	
N	-0.0142201575	 1.3610420579	-0.1291660057	-0.587431
C	-0.0008729112	 0.0018610831	 0.0308281209	 0.407524
N	-1.050974749	-0.6974724114	 0.4018865042	-0.204852
O	-0.5287193295	-2.0075331713	 0.4982417044	-0.207296
C	 0.7563797996	-1.9277691484	 0.1602856925	 0.45655
N	 1.1560778783	-0.728664756	-0.1420019336	-0.369013
C	 1.5844681566	-3.1475157402	 0.1754308413	-0.051381
C	 1.297168377	-4.2612468813	 1.0985920644	-0.168656
O	 0.9681058982	-4.3521772231	-0.2817744806	-0.214907
H	 0.6913401881	 1.7101926242	-0.7591278902	 0.269731
H	-0.9275992473	 1.76879767	-0.2592356557	 0.269452
H	 2.6024471444	-2.97692148	-0.1650853324	 0.128362
H	 2.1223197979	-4.8885837152	 1.4315199936	 0.129662
H	 0.4503675444	-4.1794857782	 1.7762683469	 0.142254
