21
gdb 56902	2.41833	1.10265	0.92976	1.2558	84.74	-0.2566	0.049	0.3056	1389.5497	0.178206	-387.052904	-387.042235	-387.041291	-387.088605	39.16	
C	-0.2909652702	 1.361085832	 0.1319142123	-0.393022
C	 0.1381931764	-0.0815981227	-0.2090765126	-0.194138
C	 0.9039557344	-0.1408752941	-1.4531474392	 0.329689
C	 1.5565449261	-0.1795632237	-2.4621076729	-0.47848
C	 0.9594912338	-0.66697463	 0.934168978	 0.020307
O	 0.2510640804	-0.9925078619	 2.1314090013	-0.303432
C	 0.9051048999	-2.0606133388	 1.410045704	 0.395657
C	-0.0131881604	-3.094937157	 0.7962219845	-0.458626
C	 2.1182890657	-2.6309663815	 2.1148752807	-0.451708
H	 0.5843380109	 2.0053407967	 0.2575813837	 0.125503
H	-0.9096720103	 1.7794496896	-0.6657493703	 0.124723
H	-0.8627455555	 1.3615392204	 1.0636416343	 0.135474
H	-0.7694371341	-0.6832781582	-0.3263508565	 0.107558
H	 2.1220085996	-0.2188975276	-3.3599853996	 0.19661
H	 1.8933066532	-0.1242744288	 1.1023763386	 0.088918
H	-0.9189501995	-2.6480024976	 0.3843161115	 0.128427
H	 0.5014785358	-3.6404689712	-0.0017246789	 0.127994
H	-0.3162500528	-3.8222146353	 1.5572477954	 0.12479
H	 1.809782831	-3.3111301235	 2.9163047074	 0.123884
H	 2.7421429387	-3.1977964741	 1.4154813431	 0.123074
H	 2.7232165569	-1.8351947125	 2.5558876853	 0.126797
