16
gdb 68811	2.90388	1.29161	1.0871	3.2266	69.76	-0.2457	0.0277	0.2734	1113.0849	0.122642	-437.859011	-437.850192	-437.849248	-437.892677	32.432	
O	-0.0044061445	 1.4384354403	-0.1290746072	-0.456011
C	-0.0434469934	 0.0634161721	-0.0841693534	 0.376287
C	-0.2694330272	-0.7761296471	 1.1448021556	-0.432956
C	-1.1796714959	-0.9664452865	-0.0571251087	 0.318652
O	-2.5417846483	-0.7936826301	-0.0046889026	-0.455292
C	-0.4642723503	-1.7978909037	-1.1424271972	-0.214615
C	 0.7013303484	-0.7359885203	-1.1450560397	-0.290674
C	-0.1244175884	-3.1753338996	-0.8113093082	 0.26192
N	 0.1410600393	-4.2600125622	-0.5095553973	-0.332102
H	-0.2933632505	 1.7941271705	 0.7166699294	 0.294166
H	 0.4341982659	-1.5377718026	 1.4775266271	 0.129815
H	-0.7751456195	-0.2468800431	 1.949628362	 0.115163
H	-2.9216834152	-1.4686733522	 0.5705544097	 0.296032
H	-1.0232430361	-1.7712629817	-2.080596723	 0.134935
H	 0.7548574376	-0.2107970767	-2.099788031	 0.132006
H	 1.6918261982	-1.1074693972	-0.8709870157	 0.122673
