17
gdb 3324	6.01715	1.82011	1.64299	1.1774	63.61	-0.2509	0.0791	0.33	796.4095	0.149039	-309.679242	-309.67232	-309.671376	-309.710085	26.134	
O	-0.0613998876	 1.4262023354	-0.1885631814	-0.423144
C	 0.050417456	 0.0349793445	 0.0850398847	-0.093152
C	-1.3387341834	-0.5651586129	-0.0205152764	 0.040739
C	-2.0325872445	-0.6445404172	-1.4232708584	-0.24265
C	-2.2299058469	-2.1529070732	-1.2195649715	-0.034289
C	-0.9003071919	-2.8253956754	-1.0433104926	-0.274243
C	-1.4986420311	-2.0856015955	 0.1251677028	-0.075404
H	 0.8211402909	 1.8074745887	-0.1758650552	 0.285336
H	 0.7334447961	-0.4532798349	-0.6272281549	 0.081158
H	 0.4522418889	-0.1435372768	 1.0966921011	 0.081429
H	-1.9904366526	-0.0382868268	 0.6827502502	 0.081053
H	-2.9632219082	-0.0756285403	-1.4592765644	 0.103944
H	-1.4181065648	-0.3580606902	-2.2833638878	 0.095449
H	-3.1227040146	-2.7106136198	-1.4746757573	 0.082613
H	-0.9313621114	-3.9070341055	-0.9570792493	 0.108259
H	-0.0210737502	-2.4510061334	-1.5623613066	 0.102655
H	-1.7305050946	-2.5980209467	 1.0516766271	 0.080246
