20
gdb 106002	3.29591	1.57883	1.38012	2.0372	80.77	-0.2197	0.0776	0.2973	1017.6415	0.172302	-365.930905	-365.923538	-365.922594	-365.962657	29.959	
C	-0.1409281817	 1.5278275332	 0.1390657167	-0.384698
C	-0.0117506064	 0.0028406013	 0.0321132184	-0.338376
C	 0.7066023598	-0.4829124305	-1.1944347556	 0.37614
C	 1.0169577339	-1.9515919206	-1.5965750258	-0.136048
C	 0.9067465368	-1.5458585599	-3.0152493645	-0.044168
C	 0.3328035485	-0.1498778354	-2.7099377453	-0.1253
C	 1.5414748637	 0.8126643686	-2.8048096933	-0.24829
C	 2.1349654817	-0.0952894625	-1.7171585762	-0.041126
N	 2.2417945524	-1.4917935371	-2.3190381071	-0.15131
H	 0.8412630599	 2.0110630252	 0.1637311219	 0.122219
H	-0.6974844074	 1.9422519219	-0.7078266325	 0.121624
H	-0.6712165714	 1.807815393	 1.0540633649	 0.115191
H	 0.5111010686	-0.3805465678	 0.9194629819	 0.103409
H	-1.0128266858	-0.4498976743	 0.056255989	 0.101792
H	 0.9451086022	-2.9102003227	-1.0951147424	 0.089351
H	 0.8362536879	-2.1409530662	-3.9172068179	 0.092751
H	-0.6713801055	 0.1009075844	-3.0482546792	 0.069882
H	 2.0734963618	 0.8895924872	-3.7572648027	 0.101642
H	 1.3085977734	 1.8087648007	-2.4190226706	 0.104378
H	 2.9950827076	 0.1694849815	-1.1025046296	 0.070937
