18
gdb 111536	5.08826	0.90509	0.85412	1.8221	72.81	-0.2436	0.0669	0.3105	1357.0765	0.147191	-439.002665	-438.994479	-438.993535	-439.035731	31.1	
O	 0.0183676857	 1.2128112599	 0.4651407627	-0.418813
C	-0.021142405	-0.0146829563	-0.2367530262	-0.086187
C	-1.4117106766	-0.6066056605	-0.2174033713	-0.021288
C	-1.5985412302	-2.0654513471	-0.0547837154	-0.160705
N	-1.7860856998	-1.1125144403	 1.1200886238	-0.153622
C	-3.2706121799	-1.3866735156	 1.0673869316	-0.26115
C	-3.0714786508	-2.3969392178	-0.0663376189	 0.453002
C	-3.9401638466	-2.9276322195	-1.1168543066	-0.27021
O	-3.5537014786	-3.7206152668	 0.01958228	-0.272104
H	-0.3201152259	 1.0211713873	 1.3481087745	 0.292945
H	 0.2870600025	 0.2008534508	-1.2650335909	 0.112323
H	 0.6894327751	-0.744046313	 0.1820397228	 0.093308
H	-2.1628159118	-0.0377099194	-0.7656410374	 0.092348
H	-0.7895084951	-2.7876590284	-0.0953938254	 0.112445
H	-3.5995682349	-1.8706784235	 1.9895181638	 0.133711
H	-3.8796601592	-0.497855833	 0.8733637224	 0.113094
H	-4.9909175457	-2.6426519896	-1.1473288978	 0.120592
H	-3.5131157831	-3.2382236972	-2.0694051117	 0.120312
