21
gdb 71624	2.63129	1.64732	1.55705	1.2631	82.02	-0.2333	0.0935	0.3268	1009.2893	0.18491	-387.058746	-387.051223	-387.050279	-387.090249	30.912	
C	-0.0175271799	 1.485970384	 0.0043540494	-0.523247
C	 0.023920933	-0.0175158539	-0.0290433502	 0.305644
C	 0.6709909462	-0.9437558212	-1.0945065539	-0.279062
C	 0.060250939	-1.9208602555	-0.0590823914	-0.121547
C	 0.6209088722	-0.9778385458	 1.0599822377	-0.025862
C	-0.0859344259	-0.9941367064	 2.4137361744	-0.269052
C	-1.513612833	-1.5081482965	 2.2135020372	-0.065522
O	-2.0882076905	-0.9937672026	 1.0194380173	-0.28183
C	-1.1963821221	-0.9940598315	-0.0658302719	 0.130596
H	 0.9881471745	 1.9138066165	 0.0827318784	 0.115702
H	-0.4827395728	 1.8855187745	-0.9036406034	 0.119133
H	-0.6036785009	 1.8397118408	 0.8596495579	 0.124029
H	 0.2236860754	-0.9371826287	-2.0936165596	 0.086549
H	 1.7629690195	-0.9254090044	-1.146174047	 0.090458
H	 0.0912478314	-3.010757085	-0.0900887952	 0.069702
H	 1.7125303547	-0.949210211	 1.1447422327	 0.057264
H	 0.4374002727	-1.6418242985	 3.1263376319	 0.097714
H	-0.0885007806	 0.0159740073	 2.8428552435	 0.102295
H	-1.498711177	-2.6081432644	 2.1644419239	 0.092252
H	-2.1806456291	-1.2203065808	 3.0307457078	 0.10364
H	-1.8003340171	-0.9814126569	-0.9780551297	 0.071144
