12
gdb 1711	4.41776	2.2858	1.93691	2.2852	50.59	-0.2744	-0.0029	0.2716	668.6074	0.089259	-360.48972	-360.482931	-360.481987	-360.520873	23.553	
O	 0.0156361688	 1.4399857568	-0.1040785102	-0.446251
C	 0.0122780507	 0.04001359	 0.0094207328	 0.20365
C	 0.1302926226	-0.5586142992	 1.4453446725	-0.108078
O	-1.1963109561	-1.1043849413	 1.3700950048	-0.260884
C	-1.4294232989	-0.5216563012	 0.0770983258	-0.093312
C	 0.8940468116	-0.5800923926	-0.9851769473	 0.22731
N	 1.6178601239	-1.0445551884	-1.7574584443	-0.3273
H	 0.9271005584	 1.7523552894	-0.143304194	 0.299879
H	 0.8919875276	-1.3307271599	 1.5938687538	 0.12607
H	 0.2248578354	 0.225028609	 2.2066030512	 0.117922
H	-2.1687148247	 0.2867136483	 0.0997314361	 0.129883
H	-1.7002119593	-1.2661091008	-0.6772134311	 0.131108
