18
gdb 127043	6.70282	0.79298	0.71863	1.7842	76.88	-0.2413	0.0062	0.2475	1593.2786	0.146405	-439.092188	-439.08301	-439.082066	-439.126877	32.515	
C	-0.05528996	 1.4999724714	 0.0729988949	-0.393195
C	-0.0061054842	-0.0084211026	-0.0697105125	-0.044677
O	-1.3458221959	-0.50397242	 0.1039790445	-0.273062
C	-1.4997914659	-1.8262627185	 0.0109343358	 0.500181
N	-0.506522414	-2.6537149463	-0.2245533118	-0.252593
O	-1.101943096	-3.9237913449	-0.2411187764	-0.233564
C	-2.4241091923	-3.8030669919	-0.0152413076	 0.462668
C	-3.2149083959	-5.062756597	 0.0009052494	-0.488872
C	-2.7498767833	-2.4961868024	 0.1544725454	-0.470006
H	 0.9479950626	 1.9173455951	-0.0529405493	 0.123029
H	-0.7108105685	 1.9413032839	-0.6830087893	 0.129867
H	-0.4270896869	 1.7855491951	 1.0610467904	 0.129867
H	 0.3620236173	-0.3153264051	-1.0552238765	 0.123756
H	 0.6445377246	-0.4704168996	 0.6814018828	 0.123756
H	-2.8511775213	-5.7421549053	 0.778662708	 0.150906
H	-4.2673139632	-4.8456828573	 0.1921406742	 0.141167
H	-3.1345205513	-5.5865506619	-0.9572024425	 0.150904
H	-3.7145880158	-2.0609637326	 0.3502865207	 0.119868
