13
gdb 49747	3.63713	1.31798	0.96742	1.2794	70.3	-0.2632	-0.1026	0.1605	1101.92	0.090313	-452.804882	-452.797547	-452.796602	-452.836988	26.707	
N	-0.0836945353	 1.2917311266	 0.0066666167	-0.497045
C	-0.0049587948	 0.0330207671	-0.0001598738	 0.290034
N	-1.1056259521	-0.8477229123	 0.001737327	-0.130105
C	-2.4530882125	-0.4996264221	 0.0112639302	 0.17055
O	-3.339913322	-1.3156332274	 0.0122258873	-0.301389
C	-0.6293652301	-2.1618006729	-0.0077325733	 0.017666
C	 0.7188429454	-2.2345514912	-0.0159313234	-0.29633
C	 1.2423451118	-0.8683254254	-0.0117331175	 0.336925
O	 2.3706076439	-0.4329741263	-0.0162775973	-0.321536
H	 0.8681698096	 1.6718324662	 0.0031771072	 0.258935
H	-2.5891345335	 0.5913979122	 0.0176216204	 0.143363
H	-1.3684346216	-2.9502061526	-0.0075602409	 0.184374
H	 1.3116241211	-3.1353255519	-0.0240800589	 0.144559
