18
gdb 45129	2.79721	1.65393	1.12863	3.7172	80.35	-0.2503	-0.0374	0.2129	1075.5306	0.149798	-401.941533	-401.934088	-401.933144	-401.973517	29.595	
N	-0.1224209872	 1.3242764858	 0.2834325937	-0.476871
C	 0.0198675251	 0.0799505745	 0.0655748861	 0.34672
O	-1.1349791678	-0.6352573788	-0.1363414175	-0.240532
C	-1.2948764114	-1.828068323	 0.5915779538	 0.107166
C	-2.0195480485	-2.9315798538	-0.1175328102	-0.328861
C	-0.5319898075	-3.0398059118	 0.1447107922	-0.033201
C	 0.4741549093	-2.8293743531	-0.9779021044	-0.292491
C	 1.5405466171	-1.8379309558	-0.5790295033	-0.085734
C	 1.3174689527	-0.6101129897	-0.0946707744	-0.099909
H	 0.7905562372	 1.7760726465	 0.3344785558	 0.220682
H	-1.4798701849	-1.6643749585	 1.6504913169	 0.101518
H	-2.7030791479	-3.5482272707	 0.4548106163	 0.119068
H	-2.3345193964	-2.7254824944	-1.1346504284	 0.129572
H	-0.2118887323	-3.7221062467	 0.9268129023	 0.093037
H	 0.9306472778	-3.7822234704	-1.2609894086	 0.108393
H	-0.0465566437	-2.4598472556	-1.8689172512	 0.132079
H	 2.5757879927	-2.1508667333	-0.6928476292	 0.104276
H	 2.1726480856	 0.0087677888	 0.1648998801	 0.095088
