10
gdb 4226	5.17434	1.61232	1.59733	1.5037	37.03	-0.2745	-0.0448	0.2297	741.196	0.061541	-490.831786	-490.825028	-490.824084	-490.863587	22.491	
F	 0.05707362	 0.1000302582	-0.0097382827	-0.079761
C	 0.0113715213	 1.4433887218	-0.0042732028	 0.271107
F	 1.2688524404	 1.8863867876	-0.149706603	-0.074999
F	-0.6861654967	 1.8304261169	-1.0782122477	-0.068943
C	-0.6072646982	 1.9634817474	 1.2782727721	-0.404729
C	 0.1779420616	 1.5388357162	 2.511726851	 0.160702
O	 0.3702798209	 2.2610222973	 3.4514353735	-0.226584
H	-0.6781425627	 3.0519452769	 1.2436979786	 0.158626
H	-1.6192120942	 1.5470176763	 1.3487948876	 0.159433
H	 0.5458087575	 0.4914876914	 2.4925487735	 0.105148
