19
gdb 91647	2.48865	1.68551	1.36296	2.9583	70.33	-0.2437	0.0637	0.3074	1011.4868	0.158304	-460.127951	-460.119435	-460.11849	-460.16029	33.726	
C	-0.2417135595	 1.6139867996	-0.1266314348	-0.489868
C	-0.0129316003	 0.1147195091	-0.0206737529	 0.443851
O	-1.231096968	-0.579938788	-0.2096506844	-0.473677
C	 1.1841458711	-0.5940252274	-0.7358465735	 0.016668
C	 2.4408533671	 0.1524539489	-0.2552376477	-0.281552
C	 2.0920033575	 0.1461326855	 1.2786746818	 0.113796
O	 1.9851778266	 1.4119978764	 1.903691803	-0.434142
C	 0.7265347217	-0.5621535162	 1.16682409	 0.014592
O	 1.0896824052	-1.653691634	 0.2695965056	-0.299731
H	 0.6363903358	 2.2013001972	 0.1347754312	 0.14092
H	-0.5472921645	 1.8704155267	-1.1498565545	 0.099046
H	-1.05467445	 1.9023284143	 0.5462504252	 0.130537
H	-1.6189907543	-0.2704784131	-1.0348867133	 0.275807
H	 1.1226165474	-0.9454802526	-1.7670277011	 0.073959
H	 3.346740441	-0.41241597	-0.4853601014	 0.107662
H	 2.5437740785	 1.1669496737	-0.6493778972	 0.10097
H	 2.7780502781	-0.5024269214	 1.8357464931	 0.085889
H	 2.8730446028	 1.7512868003	 2.0493798474	 0.288905
H	 0.2102754438	-0.8669867888	 2.0763214737	 0.086368
