13
gdb 3314	6.45407	2.01535	1.8093	2.9334	53.8	-0.2513	-0.0385	0.2128	693.1507	0.100749	-344.406447	-344.400275	-344.399331	-344.436909	22.272	
O	-0.5629454489	 0.7473906329	 0.7979119054	-0.240793
C	 0.2472094898	 0.705603139	-0.0916740131	 0.142683
C	 1.4616343886	 1.6090373568	-0.1459027933	 0.041903
O	 2.5618425541	 1.0797671586	-0.92563547	-0.298729
C	 2.6052015553	 2.2790184217	-1.7116186788	 0.112584
C	 1.3543567009	 2.4400849245	-2.50719422	-0.299096
C	 1.3754348374	 2.8518461629	-1.0444403905	-0.141351
H	 0.1459568053	 0.0110612986	-0.954014335	 0.089471
H	 1.7813520345	 1.8522319089	 0.8731837159	 0.111951
H	 3.5774155076	 2.6945102974	-1.9467036183	 0.114292
H	 1.3460169655	 3.2834660284	-3.1908314242	 0.125433
H	 0.8129164972	 1.5664829074	-2.8547071919	 0.125268
H	 1.1448478528	 3.8506807929	-0.7030686061	 0.116383
