16
gdb 106017	3.287	1.62352	1.43601	1.3223	65.92	-0.2515	0.0493	0.3008	926.9805	0.125263	-437.778294	-437.771519	-437.770575	-437.809708	26.811	
O	 0.5777002953	 0.4327760997	 0.852898637	-0.414908
C	-0.1430986232	 0.4218402599	-0.367166327	-0.222228
C	-1.471198582	-0.2381453485	-0.1847862459	 0.351742
C	-2.6963326432	 0.2196529891	 0.6589424388	 0.008029
O	-3.480812952	 0.4891615459	-0.5255157937	-0.290601
C	-2.6400957707	-0.4841156113	-1.1810630194	-0.016784
C	-2.7847645912	-1.8233305381	-0.413472078	-0.062226
C	-2.8299004134	-1.2902712079	 0.9750541174	-0.056803
N	-1.5114095975	-1.6762817867	 0.3698623619	-0.228603
H	 0.6214424284	-0.4834397307	 1.1528370273	 0.298663
H	-0.2762534317	 1.4648058254	-0.6740389602	 0.125961
H	 0.4161912295	-0.0936768188	-1.1649554111	 0.099372
H	-2.7429119828	 0.986041436	 1.4285210199	 0.101039
H	-2.6362222081	-0.4328381541	-2.2676726695	 0.094114
H	-3.1644328639	-2.786123025	-0.7293857483	 0.106693
H	-3.2472873436	-1.8042859748	 1.8308804008	 0.10654
