15
gdb 11213	4.5432	1.34845	1.18148	2.9921	62.12	-0.2507	-0.0328	0.2179	988.0883	0.119499	-399.853266	-399.845746	-399.844802	-399.886068	26.6	
O	-0.5249974527	 0.3817092807	 0.1257452531	-0.245361
C	-0.0799056693	 1.498895721	 0.1131455619	 0.159986
C	 1.3939383657	 1.8390108375	 0.0187175673	-0.084205
C	 1.6422231655	 2.8034519674	-1.1799563922	-0.197763
N	 1.6528719873	 4.1111983795	-0.5588363701	-0.296239
C	 1.8435843839	 4.120751163	 0.7986838373	 0.407662
O	 1.9903937017	 5.1007110807	 1.4914252191	-0.368323
C	 1.8431072997	 2.6567787311	 1.252694592	-0.359897
H	-0.7497950081	 2.3890813694	 0.1741545913	 0.087539
H	 1.942599846	 0.9036478872	-0.0974130183	 0.106021
H	 2.5953697101	 2.5672548804	-1.6716480624	 0.121207
H	 0.853479896	 2.7272088929	-1.9380559069	 0.124025
H	 1.7331316413	 4.9684115957	-1.0828627516	 0.257117
H	 1.19746287	 2.5349746081	 2.1259742617	 0.14396
H	 2.8573568328	 2.3894731554	 1.5643294579	 0.144272
