21
gdb 36945	4.10524	0.9191	0.82519	1.3215	78.92	-0.2387	0.0754	0.314	1447.6353	0.182956	-424.201077	-424.192262	-424.191318	-424.236607	32.594	
C	-0.4446264771	 1.1881011026	-0.0055846341	-0.291967
C	 0.9963352202	 1.0645529448	 0.4532828374	-0.292287
C	 0.2403238563	-0.1572124831	 0.0501196636	 0.144804
O	-0.0549217325	-1.0715096201	 1.0605236731	-0.261197
C	-1.0751373971	-2.0050722178	 0.7264399739	 0.105631
C	-1.0008949368	-3.2046464466	 1.6942241935	-0.245061
C	-2.2232945312	-3.0022425892	 2.5982340341	-0.081067
O	-3.1978934166	-2.4109225289	 1.749980056	-0.246359
C	-2.5113165698	-1.4519575798	 0.9619643168	-0.090311
H	-1.1825678646	 1.4074258044	 0.7567373072	 0.121703
H	-0.6504661958	 1.6246725581	-0.9770805689	 0.112597
H	 1.7899495077	 1.4221766412	-0.1927284633	 0.114767
H	 1.1845288906	 1.1834562384	 1.5142240121	 0.126099
H	 0.496485999	-0.6249982233	-0.9019602424	 0.084296
H	-0.9377735316	-2.3234236009	-0.3149163695	 0.072217
H	-1.0927372032	-4.143415016	 1.1419855394	 0.107967
H	-0.0488797151	-3.2044207011	 2.2279659209	 0.11723
H	-2.6432275174	-3.9276045831	 2.9996255015	 0.107644
H	-1.9808836956	-2.3333484969	 3.4403122114	 0.093623
H	-2.4246188038	-0.4937226858	 1.495552642	 0.094417
H	-3.0867360357	-1.297235997	 0.0456907952	 0.105257
