15
gdb 9224	6.47419	0.94677	0.85267	5.5214	61.19	-0.2497	-0.0301	0.2195	1283.0869	0.115845	-436.925215	-436.916218	-436.915274	-436.959945	30.127	
O	-0.4031141734	 1.1814777131	-0.5510459653	-0.389943
C	-0.1852976485	-0.0584440975	 0.0615611215	-0.17462
C	-1.4689115704	-0.8777939637	 0.0342775819	 0.371833
O	-2.5438288613	-0.4215616077	-0.2511990649	-0.262881
C	-1.2849571735	-2.3604820552	 0.3847320063	-0.206018
O	-2.4637072838	-2.9673979288	 0.8535937599	-0.167026
C	-3.4362499365	-3.2077750856	-0.0607259308	 0.149347
N	-4.530936035	-3.6995005139	 0.3209299656	-0.443612
H	 0.3910266764	 1.7136586083	-0.446774506	 0.29794
H	 0.611988702	-0.6478674621	-0.4265561696	 0.107984
H	 0.1052236971	 0.030790674	 1.1241393479	 0.12234
H	-0.8905489879	-2.8687546182	-0.5105199186	 0.131371
H	-0.5372448741	-2.4799692005	 1.1748798605	 0.138892
H	-3.1464106815	-2.9562343922	-1.0874345906	 0.093237
H	-5.1455723097	-3.83977982	-0.4779079679	 0.231157
