23
gdb 114243	3.89098	0.84725	0.78729	0.9762	87.82	-0.241	0.0842	0.3252	1577.1991	0.204226	-388.26086	-388.250989	-388.250045	-388.295897	36.887	
C	 0.3197852625	 1.7487916053	-0.7615206301	-0.239445
O	-0.3595779273	 0.5186423588	-0.6561239687	-0.240149
C	 0.4302641712	-0.5825905869	-1.0145334271	 0.165585
C	 1.5180784032	-1.082684497	-0.0109685185	-0.337302
C	 0.9818405755	-2.5026971973	-0.2514521619	 0.368441
C	 1.784846692	-3.6568367224	-0.7871745536	-0.350842
C	 1.1524940313	-3.7337231148	 0.587103464	-0.059201
C	 2.0104054084	-3.7153041442	 1.8328031302	-0.404334
C	-0.2962413752	-1.938920108	-0.8875631131	-0.340812
H	 1.1881573989	 1.8006298596	-0.0873149466	 0.107041
H	 0.6724395451	 1.9316617785	-1.7892033005	 0.102401
H	-0.3856632547	 2.536348529	-0.485479233	 0.12524
H	 0.8586824336	-0.4371610576	-2.0183155648	 0.063629
H	 2.5654605409	-0.8834052154	-0.2520269116	 0.094076
H	 1.3025599095	-0.7189126423	 0.9997942352	 0.103542
H	 1.3601785499	-4.254259788	-1.5884111251	 0.105906
H	 2.8646497109	-3.5452222128	-0.8400567912	 0.10448
H	 0.2717615586	-4.3693796371	 0.6578929056	 0.079201
H	 2.8749180599	-3.0551811149	 1.7073655293	 0.114384
H	 1.4463016181	-3.3588431123	 2.7023471475	 0.115454
H	 2.3892461389	-4.7158348426	 2.0695386821	 0.115509
H	-1.1202991325	-1.8566869072	-0.1714920546	 0.109396
H	-0.6624261587	-2.4020392004	-1.8073390337	 0.097801
