13
gdb 33627	3.59189	1.68159	1.46558	3.9543	65.14	-0.2763	-0.0193	0.257	863.9461	0.090685	-415.513053	-415.507081	-415.506137	-415.543493	23.683	
N	-0.0198466209	-1.1668722593	-0.075518926	-0.331162
C	-0.0275689121	-0.0104495909	-0.0560179453	 0.137084
C	-0.0276370531	 1.4183512349	-0.0170081472	 0.272478
C	-0.4776018977	 2.3544132339	 1.1536196267	 0.011281
O	 0.881558835	 2.6866251616	 1.4896284219	-0.275159
C	 1.1973446417	 2.3826925929	 0.1190133259	 0.011252
C	 0.3427209291	 3.3104878554	-0.7797455857	-0.058814
C	-0.9211835175	 3.2894135621	 0.0012356301	-0.058777
N	-0.7083679407	 2.2817687398	-1.0950240353	-0.195564
H	-1.1191950384	 2.1065152309	 1.9943943848	 0.121222
H	 2.2420918235	 2.1632150053	-0.0818116261	 0.121224
H	 0.6375139136	 4.0695788094	-1.4907487295	 0.122469
H	-1.7069967723	 4.0305444639	-0.0420023245	 0.122465
