16
gdb 44748	2.65379	1.83366	1.29889	3.717	68.5	-0.2287	-0.0863	0.1424	960.571	0.125541	-437.87718	-437.87007	-437.869126	-437.90899	27.606	
O	 0.0125825269	 0.1246197527	 0.62472324	-0.272977
C	-0.0316200022	 1.2309828023	 0.1572606841	 0.289786
C	-1.3374431082	 1.9594366933	-0.2027874651	-0.295739
N	-1.1448715697	 3.3046546387	-0.7588846557	-0.109203
C	-0.0754856222	 3.2433860588	-1.8140930695	-0.196182
C	 1.0106725017	 3.4106255722	-0.7128794586	-0.137941
C	-0.1557295857	 4.0449848551	 0.0979871916	-0.196178
C	 1.2837266842	 2.0432792743	-0.128499385	 0.329809
O	 2.3664965567	 1.5818107643	 0.1120264228	-0.289412
H	-1.8891794861	 1.3408075682	-0.9201599021	 0.144074
H	-1.9568108679	 2.0202360586	 0.6996743423	 0.144116
H	-0.07011269	 2.3354205066	-2.4254505414	 0.120377
H	-0.1387938998	 4.1165393883	-2.4694858418	 0.126759
H	 1.9288785658	 3.9678141485	-0.9078816166	 0.095511
H	-0.2395387054	 5.122273007	-0.0704517641	 0.126781
H	-0.2210756483	 3.8435236613	 1.1719200592	 0.120419
