19
gdb 73061	3.47729	0.96925	0.87418	3.1492	77.24	-0.2358	-0.0179	0.2179	1364.3789	0.157117	-422.995721	-422.986717	-422.985773	-423.030184	32.873	
C	-0.3049252868	 1.4996882541	 0.0131509389	-0.488345
C	 0.0288288991	 0.044929574	 0.0569756881	 0.438185
O	-1.0677774643	-0.8841342483	 0.0114586308	-0.314266
C	-0.4190385748	-1.7232001624	 1.0038493094	-0.100684
C	 0.8270023231	-0.8498304697	 0.9892641946	-0.198487
C	 1.2809513865	-0.6151866663	-0.4494225467	-0.09464
C	 1.2859608716	-1.6705670591	-1.5402695179	-0.315678
C	 2.3449549369	-2.7254156914	-1.3142798188	 0.168072
O	 3.1550879228	-3.0795327219	-2.1318794284	-0.243071
H	 0.5989559333	 2.1045366757	 0.1281761318	 0.126992
H	-0.7639773057	 1.7566729963	-0.9482225862	 0.136886
H	-1.0096044343	 1.7653318462	 0.807073868	 0.131337
H	-0.96453744	-1.6820431758	 1.9529921971	 0.11574
H	-0.3325385964	-2.7666298302	 0.6777451118	 0.104354
H	 1.4421534852	-0.6081531299	 1.8458634755	 0.102133
H	 2.1241102226	 0.0719612643	-0.4838492967	 0.10075
H	 0.3042863066	-2.1628369517	-1.5542854821	 0.139947
H	 1.4447357228	-1.2222929638	-2.525496398	 0.120054
H	 2.3313418516	-3.1720683902	-0.2921370413	 0.070721
