20
gdb 107001	2.94658	1.24636	1.04552	1.9801	75.06	-0.2335	0.0585	0.292	1213.2661	0.169595	-440.230681	-440.221038	-440.220094	-440.265169	35.671	
C	-0.2801166324	 1.5064224158	 0.0705491446	-0.410099
C	 0.0794065982	 0.0334870613	 0.0238109498	 0.031793
C	 1.1552424399	-0.4788034807	-0.9913731904	 0.007846
O	 1.9063050897	 0.4675355855	-1.7235442721	-0.428726
C	 1.9035832644	-1.0300187825	 0.2132796508	 0.314599
C	 2.5164797209	-2.3985774368	 0.2890057317	-0.174238
O	 3.6111842556	-2.5339900817	-0.605960056	-0.410769
C	 2.1991649623	 0.071710617	 1.1561920282	-0.294228
N	 0.8528613648	-0.5322398506	 1.1968364342	-0.190799
H	 0.5986113582	 2.1537606622	 0.0262869649	 0.128825
H	-0.9227837335	 1.7657589437	-0.7781500107	 0.112374
H	-0.8319975389	 1.7298207341	 0.9891922813	 0.129092
H	-0.8329917063	-0.5651320188	-0.0566544919	 0.081448
H	 0.7727057643	-1.2714223701	-1.6453037549	 0.078282
H	 1.406983484	 0.7093049455	-2.5099769043	 0.286642
H	 2.8000127125	-2.6157489841	 1.3309887018	 0.09395
H	 1.7904856794	-3.1608160209	-0.0155617825	 0.11001
H	 4.1991543262	-1.7849917054	-0.4608307885	 0.286012
H	 2.7861134222	-0.1781040033	 2.0355334247	 0.118428
H	 2.3394398885	 1.0822133898	 0.7875389994	 0.129556
