13
gdb 131429	5.93383	0.99413	0.85148	5.7718	64.95	-0.2412	-0.0245	0.2167	1247.062	0.090597	-486.066164	-486.058478	-486.057534	-486.099008	27.616	
O	 0.0788865682	 1.3763729436	 0.1044083896	-0.402175
C	 0.0609319076	 0.0497973662	-0.0206839078	 0.451848
N	-0.0015780363	-0.5209524138	-1.1966206841	-0.208277
O	 0.0030852426	-1.9054878122	-0.8478721995	-0.183047
C	 0.0673327917	-1.951067928	 0.4742494856	 0.588199
N	 0.089589769	-3.1392903152	 1.1466223461	-0.403351
C	 0.0539678972	-4.4380506941	 0.6510302678	 0.078614
N	-0.0086240109	-4.7127329066	-0.5823423081	-0.406832
N	 0.1065999119	-0.7833854114	 1.0645698441	-0.458519
H	 0.1267548315	 1.571909516	 1.0478888683	 0.317532
H	 0.139468505	-3.0239447216	 2.1464846119	 0.279754
H	 0.0879377797	-5.1571095632	 1.4772233093	 0.107923
H	-0.024235487	-5.7209000597	-0.7202779532	 0.238332
