17
gdb 65694	2.60296	1.20469	1.05573	6.5524	74.25	-0.2646	0.0079	0.2725	1189.2036	0.134873	-418.037225	-418.027986	-418.027042	-418.0716	33.248	
C	 0.0894822407	 1.5328844936	-0.3319498942	-0.454112
C	 0.025603768	 0.0494052092	-0.0323013991	 0.327537
C	 1.2579710979	-0.8028969243	-0.1158121481	-0.34144
C	 0.6573449022	-0.4948521346	 1.2485320724	-0.180588
C	 1.3492193587	 0.3835374414	 2.1479590356	 0.301108
N	 1.917576907	 1.0902660599	 2.8662105642	-0.340323
N	-1.1973548202	-0.6075638457	-0.4141761939	-0.33259
C	-2.3838648874	-0.4011772478	 0.232548292	 0.151905
O	-2.5157583945	 0.2520569872	 1.2422531915	-0.312115
H	 1.0326354129	 1.965715142	 0.0093091516	 0.143015
H	-0.0016939309	 1.7056955291	-1.409245485	 0.117166
H	-0.7287256046	 2.0468049563	 0.1783185904	 0.163298
H	 1.1616304111	-1.8246546807	-0.4651920899	 0.128623
H	 2.1900478462	-0.3136762516	-0.3718006117	 0.145706
H	 0.1123496594	-1.2948432105	 1.7349508783	 0.146808
H	-1.2220027746	-1.078815281	-1.3061144601	 0.251892
H	-3.2206373619	-0.9251376324	-0.2713016741	 0.084109
