20
gdb 78991	2.85543	1.85354	1.47491	0.7185	82.01	-0.2155	0.0879	0.3035	979.3372	0.171455	-365.931761	-365.924228	-365.923283	-365.963161	30.912	
C	 0.0165053148	 1.5451732481	-0.0727374336	-0.324139
N	-0.0070527475	 0.0978457894	 0.0451494761	-0.069736
C	-1.2338405072	-0.5635117123	 0.5286163935	-0.093215
C	-1.4997352439	-0.1616282593	 2.0170777385	-0.079815
C	-0.0556013747	-0.1441909822	 2.5196117715	-0.079816
C	-0.8675088531	-1.4156651638	 2.5703281362	-0.181507
C	-0.3605505519	-1.7281430366	 1.1243110471	 0.373381
C	-0.1192417479	-3.0570838157	 0.4769655899	-0.535664
C	 0.6685690657	-0.540558008	 1.1906308616	-0.093204
H	 1.0330069949	 1.8758553522	-0.3119311288	 0.11608
H	-0.6387851522	 1.8556814153	-0.8937241648	 0.11608
H	-0.3087210887	 2.0658135886	 0.8437529074	 0.100979
H	-2.0687367865	-0.6758177219	-0.1644982288	 0.063363
H	-2.280905195	 0.4515282769	 2.445492979	 0.0845
H	 0.2775081032	 0.4824226656	 3.3357738635	 0.0845
H	-1.1493079008	-2.0464619139	 3.4020251107	 0.086313
H	-1.0369131016	-3.6557614132	 0.4437525352	 0.117858
H	 0.235860663	-2.92265267	-0.5500295967	 0.132819
H	 0.634371244	-3.635106025	 1.0243212406	 0.117858
H	 1.7555546355	-0.6296816339	 1.166300472	 0.063362
