17
gdb 116740	4.16929	0.70177	0.60515	1.2297	79.01	-0.256	-0.0919	0.1642	1783.549	0.13415	-455.184964	-455.175355	-455.174411	-455.220451	33.286	
C	 0.2208301663	 1.2045237366	-0.3723521194	-0.39825
C	 0.3739338162	-0.2991509903	-0.1316417637	-0.11282
N	-0.8254531101	-1.1125623679	-0.0019966257	-0.251172
C	-1.968660518	-0.5815827542	-0.0875139567	 0.121693
N	-3.107933827	-1.3719475124	 0.0385116855	-0.338443
C	-4.3838031182	-0.8981357974	-0.0378467183	 0.311349
O	-4.716131921	 0.2561027543	-0.222731946	-0.341719
C	-5.4353549123	-1.9966106271	 0.137623843	 0.100856
O	-5.1597452301	-3.1531826659	 0.3232527147	-0.239682
H	 1.2103886729	 1.6649301576	-0.4455859552	 0.119173
H	-0.3134665397	 1.4167159859	-1.3044402619	 0.126298
H	-0.3142586929	 1.6969238327	 0.4464940518	 0.126299
H	 0.966896377	-0.7431358706	-0.942439021	 0.119276
H	 0.9661410227	-0.4678465748	 0.7777269546	 0.119277
H	-2.2059899033	 0.4696096087	-0.2558655519	 0.135777
H	-2.9868304906	-2.3651935855	 0.1975503131	 0.27855
H	-6.4711822119	-1.6107576398	 0.0752024371	 0.123538
