18
gdb 81916	2.38428	1.73004	1.2347	2.8039	70.85	-0.2383	-0.0242	0.2141	1035.9162	0.148504	-439.08475	-439.076526	-439.075581	-439.117645	31.627	
C	 0.6676024171	 1.5217245711	 0.1576491939	-0.408804
C	 0.0548551321	 0.1210310151	 0.0040893602	-0.156729
C	 0.5653570013	-0.6988459365	-1.2316113758	 0.124025
O	 1.2743655063	 0.0456336051	-2.1996979494	-0.430503
C	 1.4191787816	-1.8224518745	-0.648131255	-0.076979
N	 2.5162565203	-1.2458635733	 0.1416154061	-0.345746
C	 1.3228841649	-1.8252909928	 0.8343151426	-0.167293
C	 0.3467179035	-0.7537071333	 1.2342267715	 0.447248
O	-0.1681305064	-0.6450637394	 2.3181313044	-0.33091
H	 1.7488163905	 1.4683693376	 0.3099056669	 0.131603
H	 0.4718211481	 2.1206121179	-0.7346368659	 0.130837
H	 0.2272334995	 2.0212505066	 1.0244828969	 0.132138
H	-1.0329759933	 0.2305586182	-0.0509586955	 0.104468
H	-0.2904026609	-1.1271041393	-1.7620400092	 0.095214
H	 2.1226853915	 0.2718385896	-1.7979340737	 0.291733
H	 1.5895716434	-2.7309960751	-1.2157238514	 0.102597
H	 3.276371315	-1.917671715	 0.2199515957	 0.246776
H	 1.4408480557	-2.7093842519	 1.4495270777	 0.110326
