15
gdb 15324	3.13519	1.34531	1.01244	3.7779	75.17	-0.2478	0.0173	0.2651	1153.3287	0.117782	-325.507269	-325.498698	-325.497754	-325.542065	29.362	
C	 0.0536925885	 1.4975760731	 0.0270052603	-0.500016
C	 0.0598412409	 0.0432176862	 0.0617728804	 0.085991
C	 0.0539751559	-1.1606851385	 0.0901591336	 0.082889
C	 0.0424936871	-2.5926601933	 0.1133413683	-0.187925
C	-0.5447411472	-3.3436246228	 1.2842239815	-0.284745
C	-1.2783406506	-3.3687894625	-0.0400942394	-0.170049
C	-2.5160978263	-2.6590021506	-0.1899177403	 0.295222
N	-3.5201316348	-2.0994868098	-0.3195038471	-0.33484
H	 0.6512121822	 1.8755232149	-0.8096775036	 0.151724
H	-0.9655216042	 1.8803541805	-0.0925848236	 0.161342
H	 0.4646798965	 1.9222848017	 0.9494275848	 0.149868
H	 0.8802020725	-3.0747440536	-0.3827618473	 0.12547
H	-0.0642210981	-4.2625537292	 1.5986754638	 0.133915
H	-0.9825696086	-2.7519036794	 2.0781003356	 0.15242
H	-1.2217352939	-4.2843869667	-0.6187748671	 0.138733
