18
gdb 79918	2.66824	1.4814	1.27771	1.815	79.4	-0.2339	0.0075	0.2414	1083.5457	0.146557	-401.92071	-401.912291	-401.911347	-401.95353	31.928	
C	 0.0299838838	 1.4860261832	-0.1682823348	-0.342826
N	 0.0088861158	 0.0284168974	-0.0172347561	-0.068037
C	-1.1459188843	-0.5120248432	 0.7891373964	-0.166703
C	-0.793766776	-1.9783971793	 0.8343773398	-0.182206
C	 0.5381275745	-1.985289588	 1.0379310221	 0.354789
C	 1.4982418975	-3.1025764776	 1.2555724055	-0.518816
C	 0.8729754069	-0.5076097461	 1.0945016635	-0.230695
C	-0.3083059385	-0.0349526434	 2.0563736405	 0.402549
O	-0.4581685324	 0.5771708849	 3.0599550197	-0.308363
H	 0.9899235642	 1.777331233	-0.604681023	 0.12735
H	-0.7585471358	 1.7740618245	-0.869692058	 0.128093
H	-0.112448322	 2.0541609447	 0.7658010209	 0.121048
H	-2.1530579521	-0.1772526966	 0.5497072567	 0.08692
H	-1.4873266637	-2.8056207869	 0.7933323633	 0.110897
H	 0.9898879429	-4.0703215721	 1.230483641	 0.13117
H	 2.2843184247	-3.1095526003	 0.4907371695	 0.135166
H	 2.0024217119	-3.0103473214	 2.2256641491	 0.13584
H	 1.9049002227	-0.1681222829	 1.1666745438	 0.083823
