15
gdb 4781	5.76106	1.29355	1.13618	1.1878	63.66	-0.213	0.0082	0.2213	1042.428	0.119255	-399.841992	-399.834386	-399.833442	-399.874647	27.562	
C	-0.0045601308	 1.5074391443	 0.177002044	-0.379024
C	-0.0711390067	-0.001358216	-0.1158677069	-0.28659
C	-1.4617950222	-0.5355302366	-0.1195797164	 0.402265
N	-2.1231840976	-1.0549057992	-1.1136153633	-0.387158
C	-3.3568786949	-1.3714313889	-0.5812724216	 0.317928
O	-4.3206851039	-1.9388967031	-1.3300272362	-0.429585
C	-3.3978812915	-1.0266145132	 0.7285915557	-0.154977
O	-2.1652200641	-0.4828658616	 1.0296879733	-0.176265
H	 1.0343687612	 1.8488559044	 0.1811210327	 0.119886
H	-0.5488123471	 2.0773029551	-0.5817492577	 0.129877
H	-0.4433115926	 1.7348607415	 1.1521664632	 0.134975
H	 0.3600856428	-0.2251207664	-1.0944379031	 0.133762
H	 0.5178160092	-0.5446578073	 0.6332049388	 0.125344
H	-3.9525640042	-2.0457605997	-2.2153981146	 0.306032
H	-4.1229325076	-1.0830827332	 1.5183645421	 0.143532
