16
gdb 26043	3.33573	1.14191	0.95959	5.4648	76.24	-0.2181	0.0065	0.2246	1213.7449	0.126531	-396.96414	-396.955733	-396.954789	-396.997938	30.851	
N	 0.3064614051	 1.2072010763	 0.4612986828	-0.491021
C	-0.1031476514	-0.1239322793	-0.0354718363	-0.272435
C	-1.5745081627	-0.1636368987	-0.0915591094	 0.323242
N	-2.7278122343	-0.1859311252	-0.1467531238	-0.325629
C	 0.4779417925	-0.5552131999	-1.3563030363	 0.315744
C	 0.0465513876	-0.3653495746	-2.651769259	-0.214399
C	 1.0410490027	-0.8939268359	-3.5184589681	-0.13859
C	 2.0514922787	-1.3927330616	-2.7302849612	-0.092287
N	 1.7035945343	-1.1794758218	-1.4203867735	-0.312479
H	 1.3204073255	 1.2195595926	 0.5375576106	 0.231682
H	 0.0747326758	 1.9003157728	-0.2464851466	 0.242346
H	 0.1972841881	-0.8464004185	 0.7365000345	 0.130296
H	-0.8887285989	 0.0915208435	-2.9370591275	 0.116686
H	 1.0126091146	-0.9141550812	-4.5967551865	 0.102872
H	 2.9770441133	-1.883327755	-2.9850670249	 0.12381
H	 2.2428786291	-1.4791574834	-0.6261284047	 0.260162
