16
gdb 34264	4.19762	1.34307	1.21397	5.294	74.13	-0.2286	0.0082	0.2368	1017.8124	0.127557	-396.880645	-396.87382	-396.872876	-396.911802	27.308	
N	 0.0333580454	-1.1116559541	-0.1050710418	-0.346433
C	 0.0069251991	 0.0450170696	-0.0549086586	 0.165957
C	-0.0282132586	 1.4679049452	-0.0042309046	 0.263887
N	-1.132504237	 2.2318436377	 0.6284212482	-0.362788
C	-0.7709046346	 3.3905366645	-0.2866513742	-0.057219
C	 0.1149922263	 4.3312069502	 0.529704997	-0.134764
N	 1.2421431087	 3.4535175564	 0.9267903447	-0.295726
C	 1.2319838392	 2.3471137597	-0.0044513259	-0.054788
C	 0.2196442161	 2.5053481733	-1.0978565838	-0.179088
H	-2.006029179	 1.8290898475	 0.2931964782	 0.231053
H	-1.6140145489	 3.8569633447	-0.7919191691	 0.090303
H	 0.43768348	 5.1873365412	-0.0814365081	 0.092802
H	-0.4168043911	 4.7017856629	 1.41060855	 0.124504
H	 2.1297002369	 3.9386810091	 0.8849285203	 0.230241
H	 2.1693755454	 1.834355292	-0.1805822592	 0.120243
H	 0.3524163523	 2.40769058	-2.1674893431	 0.111814
