19
gdb 36551	8.04673	0.48533	0.47421	0.9659	94.24	-0.2325	0.0429	0.2753	2288.0171	0.157161	-348.684258	-348.674214	-348.673269	-348.72175	35.621	
C	-0.0115899166	-1.1786728489	 0.1567070882	-0.441243
C	 0.0271718597	 0.0200338699	 0.2379121437	 0.294567
C	 0.1111758462	 1.4725036788	 0.3138567219	-0.336981
C	 1.3660379818	 2.0301025734	-0.4114217027	-0.348664
C	 1.4553917165	 3.4826118617	-0.3366680672	 0.014586
C	 1.4998477342	 4.6850948676	-0.2558037202	 0.128669
C	 1.560796015	 6.1157914081	-0.1736878536	-0.156458
C	 1.5200388825	 6.8095839417	 1.1795354538	-0.251792
C	 2.7958579263	 6.8005851531	 0.391682647	-0.250932
H	-0.0607705198	-2.2373740402	 0.0940116037	 0.195164
H	-0.7845529092	 1.9249256273	-0.1267020512	 0.140837
H	 0.133618567	 1.7935087555	 1.3615688558	 0.13945
H	 2.2598977582	 1.5712888583	 0.027589231	 0.138309
H	 1.3415012275	 1.705264735	-1.4583597877	 0.139344
H	 1.0642523529	 6.6423767095	-0.9838373114	 0.108462
H	 0.9567339941	 7.7334827722	 1.2468311912	 0.117807
H	 1.4569548572	 6.1747200942	 2.0551244716	 0.124848
H	 3.6008273759	 6.1599280018	 0.7311189243	 0.125995
H	 3.1173158706	 7.7182827108	-0.0878474882	 0.118032
