18
gdb 107858	3.59494	1.35784	1.29861	1.6142	70.21	-0.2382	0.0558	0.2939	1023.5517	0.149596	-439.01983	-439.01262	-439.011676	-439.051733	28.933	
O	 0.0678632457	 1.3793322031	-0.2080709506	-0.418164
C	 0.0082842661	 0.0024003532	 0.1464806231	-0.195965
C	-1.4041086203	-0.5216393441	 0.1260115807	 0.284876
C	-2.4651032735	-0.0228474486	 1.1365189764	-0.252064
C	-3.4032422039	-1.210258169	 0.8663973766	 0.045126
O	-2.5916215219	-2.326568697	 1.3422926765	-0.292301
C	-1.797417403	-2.0843702522	 0.1848690893	 0.057204
C	-2.9658151736	-1.5426557136	-0.6436128963	-0.052326
N	-2.1255187327	-0.4734207852	-1.1888159818	-0.360964
H	-0.1375416038	 1.4337030084	-1.1473874053	 0.288964
H	 0.6374677501	-0.604435897	-0.5209486717	 0.094969
H	 0.4203598472	-0.0752684143	 1.1582296256	 0.115299
H	-2.1402549369	-0.0198282469	 2.1792731716	 0.113314
H	-2.8553077949	 0.9616993404	 0.8657293984	 0.100177
H	-4.426494337	-1.21978683	 1.2372862921	 0.082241
H	-1.0791083732	-2.8554049612	-0.0855817441	 0.092563
H	-3.626238887	-2.1169784185	-1.2913029319	 0.086709
H	-2.6148038373	 0.4071481227	-1.3506156584	 0.210342
