17
gdb 13876	4.09248	1.55245	1.4444	2.1131	63.85	-0.2515	0.0204	0.2719	926.6539	0.142753	-401.01509	-401.007261	-401.006317	-401.047496	28.765	
C	 0.061241919	 1.5353546463	-0.0871443687	-0.409588
C	-0.0013428637	 0.0162507114	 0.0776884698	 0.116944
O	 0.6119025073	-0.4105894691	 1.2843202832	-0.433383
C	-1.4311619538	-0.526815711	-0.0123854894	 0.093336
C	-1.5625630759	-2.0644259704	 0.1341129906	-0.203043
N	-2.490135809	-2.271254568	 1.261186083	-0.253853
C	-2.736071869	-1.1186332554	 1.7169924988	 0.110277
O	-2.1877560584	-0.0208928276	 1.1297432418	-0.251489
H	 1.0938542013	 1.8786491057	 0.0131020521	 0.127026
H	-0.3146152756	 1.8422668824	-1.0688796595	 0.11531
H	-0.5478966018	 2.030089328	 0.6763579939	 0.127783
H	 0.5775354991	-0.4606553465	-0.7234547015	 0.095256
H	 0.0906198712	-0.0387844974	 2.0060283963	 0.286287
H	-1.9219868116	-0.1486919523	-0.9160062981	 0.089207
H	-1.9563707414	-2.5397454454	-0.7683783323	 0.115727
H	-0.5985641254	-2.5260638879	 0.3722240298	 0.133191
H	-3.3692394823	-0.8964965328	 2.5691619402	 0.141011
