19
gdb 32675	3.46976	1.28186	0.99066	4.0574	81.79	-0.2134	0.0421	0.2555	1214.0035	0.161252	-382.083011	-382.074881	-382.073936	-382.116336	30.464	
C	-0.2538979398	 1.5769934954	-0.0432769479	-0.388377
C	-0.4082166679	 0.0766595397	 0.2204652787	-0.186925
C	 0.6826926282	-0.4889261305	 1.1151527832	 0.051435
C	 0.7892199406	-2.063904809	 1.2477234294	-0.408386
C	 2.1740985327	-1.8788441579	 0.6576370314	 0.37951
N	 3.3642870713	-2.3398668856	 0.3603567457	-0.371279
C	 4.0451304477	-1.1847799085	-0.0020440725	-0.090432
C	 3.2646160834	-0.0482359594	 0.106703928	-0.18216
N	 2.0462200968	-0.5436513535	 0.5144328365	 0.012698
H	 0.6908767977	 1.7907788376	-0.5534229003	 0.129474
H	-1.0642896188	 1.949020079	-0.6764144894	 0.12337
H	-0.2692235854	 2.1492903229	 0.8906780135	 0.119222
H	-1.3724509844	-0.1223475132	 0.7052442728	 0.108762
H	-0.409474173	-0.4754757224	-0.726907029	 0.111636
H	 0.6969740944	 0.0201483745	 2.0851874997	 0.101486
H	 0.7536933242	-2.4374402176	 2.273850568	 0.130866
H	 0.0696974256	-2.6156538803	 0.6369325479	 0.126634
H	 5.0716308681	-1.2336889136	-0.33470144	 0.1051
H	 3.4655956986	 0.9901088025	-0.0934540656	 0.127366
