16
gdb 32023	2.95519	1.43065	0.97025	5.8649	80.64	-0.2018	-0.0333	0.1685	1170.4426	0.125453	-434.102329	-434.093864	-434.09292	-434.136281	30.354	
C	-0.1203634954	 1.4929661591	 0.0427466168	-0.331317
N	-0.0747015367	 0.0415564527	-0.0411553455	-0.364535
C	-1.1611142344	-0.7558343822	-0.0074244771	 0.521299
C	-1.149951211	-2.1331317856	 0.0189315781	-0.320088
C	-2.4152730823	-2.751353151	 0.038448834	 0.034324
N	-3.566539298	-2.1297576806	 0.0217246064	-0.341302
C	-3.5630153251	-0.7595822423	-0.020967073	 0.420235
N	-4.5468157912	 0.0363945838	-0.0630674358	-0.538231
O	-2.3061635802	-0.0808756086	-0.013473839	-0.233062
H	 0.8389560422	 1.8887074906	-0.2954938356	 0.135085
H	-0.9105042825	 1.8784198125	-0.6026349022	 0.173608
H	-0.3092782685	 1.8440463557	 1.0643476445	 0.143946
H	 0.8151822772	-0.4165427582	 0.0589493383	 0.26386
H	-0.2263826376	-2.693224679	 0.027583845	 0.092433
H	-2.4623890988	-3.8399809541	 0.0709702765	 0.112891
H	-5.3977946378	-0.5232815728	-0.0594230115	 0.230854
