16
gdb 82015	2.59345	1.4456	1.31969	2.2831	69.95	-0.2382	0.0075	0.2458	1024.2135	0.124457	-434.01541	-434.006925	-434.005981	-434.048197	32.047	
N	-0.1176191183	 1.4705443759	 0.1348853756	-0.499704
C	-0.0227838643	 0.0496356525	 0.0130555128	-0.07867
C	-1.356483117	-0.6969349049	 0.0277694155	-0.013411
N	-2.1091249458	-0.1716457894	-1.1305550701	-0.343181
C	-1.1396058468	-1.26935239	-1.3317096196	-0.103036
C	 0.2349245883	-0.6140722712	-1.4616476177	 0.271935
O	 0.3552420103	 0.2575529634	-2.5525237968	-0.453761
C	 1.3255325287	-1.5901053252	-1.4167386761	 0.211831
N	 2.2192571351	-2.3226812693	-1.3594836652	-0.336655
H	 0.7835568029	 1.9230338244	 0.0294344243	 0.229167
H	-0.744759372	 1.8287062175	-0.5789069108	 0.256055
H	 0.6938141662	-0.354750165	 0.7307179301	 0.102979
H	-1.8609893553	-1.1260217794	 0.8833066031	 0.107533
H	-3.0371521483	-0.5915540852	-1.1194695525	 0.241691
H	-1.4366389174	-2.2230091524	-1.7472512843	 0.116373
H	 1.2491725936	 0.618249398	-2.5620968783	 0.290855
