17
gdb 66020	2.31821	1.33902	1.12186	4.4273	77.1	-0.3176	-0.0063	0.3113	1147.7861	0.135991	-380.895665	-380.886852	-380.885908	-380.929231	32.256	
C	-0.1301094501	 1.5665373356	 0.0246333263	-0.447105
C	-0.056942499	 0.0352539174	 0.0023092887	 0.13399
C	 1.1290515395	-0.5175013574	-0.8625882261	-0.258094
C	 1.9725180557	-0.6979016194	 0.4239355774	-0.242077
C	 0.6637964425	-0.5973859064	 1.2657364259	-0.173276
C	 0.6852752841	 0.174501196	 2.4947865321	 0.284948
N	 0.7160094326	 0.8110323539	 3.4595648288	-0.324138
C	-1.3636331485	-0.5436766395	-0.2872847552	 0.245878
N	-2.3905094523	-1.0206939681	-0.5215408861	-0.333361
H	 0.8549650188	 1.9925467802	 0.2333047068	 0.136555
H	-0.4694072558	 1.9376602066	-0.9460026467	 0.141765
H	-0.8225600667	 1.9166638065	 0.7938556062	 0.158433
H	 0.8788140879	-1.4679814672	-1.3366650044	 0.13567
H	 1.5084417231	 0.1697716677	-1.6201793803	 0.126603
H	 2.5329193946	-1.6265170743	 0.5312376757	 0.13116
H	 2.6418562978	 0.1423180467	 0.613978804	 0.136503
H	 0.2538777658	-1.5891222083	 1.4700202071	 0.146547
