17
gdb 43217	2.89239	1.81394	1.61016	1.5769	70.21	-0.2376	-0.0215	0.2161	888.7048	0.138534	-421.815893	-421.80947	-421.808526	-421.846533	26.532	
O	 0.063023118	 0.0250793153	 0.2241076739	-0.323379
C	 0.030897445	 1.2191064236	 0.1275326948	 0.437221
C	-1.0927706716	 2.2576243996	-0.0476533897	-0.211582
C	-1.4048157364	 2.8775050325	 1.3330909375	-0.206167
C	-0.0657429476	 3.188259726	 2.0488561143	-0.238705
C	 0.9617283735	 3.4811959027	 0.9585336053	 0.101719
O	 0.326297678	 4.3440849769	-0.0321779308	-0.297402
C	-0.0099417237	 3.1649365474	-0.7684601871	 0.118193
C	 1.0825101918	 2.2955690525	-0.0821927826	-0.225382
H	-1.9836774639	 1.9593116887	-0.6012831043	 0.090948
H	-1.964923005	 3.8029482449	 1.1776954623	 0.123785
H	-2.0275013697	 2.2015066154	 1.9242427091	 0.115446
H	-0.170624006	 4.0523423289	 2.7116554153	 0.112792
H	 0.2727400481	 2.3425291177	 2.6584056235	 0.117738
H	 1.9043546082	 3.9010978099	 1.3149343902	 0.090719
H	-0.1117652933	 3.3215985388	-1.8418255478	 0.097223
H	 2.0747336047	 2.0776085791	-0.4730305639	 0.096832
