17
gdb 48784	2.97206	1.5027	1.25533	2.6653	72.46	-0.2569	-0.0371	0.2198	1028.2724	0.136314	-421.814342	-421.807077	-421.806133	-421.846027	28.639	
O	-0.8070229492	 0.9627287754	 0.4208706048	-0.259665
C	 0.2281085689	 0.9382103785	-0.1965150861	 0.088528
C	 1.3720687267	 1.8526161739	 0.056229173	 0.309772
O	 2.2693151083	 2.0225991844	-1.061541214	-0.286124
C	 2.7726940094	 1.3392738781	 0.0789918092	-0.017354
C	 3.5798374762	 2.1800897061	 1.0598049213	-0.263187
C	 2.6350378851	 3.2727084833	 1.5706298922	-0.04679
C	 2.0450900649	 4.2634250345	 0.6019238791	-0.289193
C	 1.2536252842	 3.0353750472	 0.9812438779	-0.121249
H	 0.4181357231	 0.2116234287	-1.0165002096	 0.0875
H	 3.0306435891	 0.2952807363	-0.0912875362	 0.105969
H	 3.8956464046	 1.5367556545	 1.8886611283	 0.11519
H	 4.4877561062	 2.574566017	 0.5901956741	 0.123726
H	 2.7448181956	 3.5834432337	 2.603508725	 0.093415
H	 1.7085917314	 5.209107426	 1.0125747456	 0.113368
H	 2.440997194	 4.3148249791	-0.4048283887	 0.135219
H	 0.3403088014	 3.1125650131	 1.5558147342	 0.110875
