16
gdb 86486	2.14313	1.48485	1.03579	3.3599	70.52	-0.2704	-0.0635	0.2069	1168.7042	0.121749	-437.885843	-437.876819	-437.875875	-437.92042	31.78	
C	 0.3769423185	 1.5228440401	-0.0885042018	-0.400426
C	-0.0228601866	 0.0659308008	-0.1339504	 0.153262
C	 0.5650616407	-0.8198012463	-1.2560676529	-0.357719
C	 1.1711078639	-1.643217523	-0.1020819498	 0.200747
O	 0.6708087788	-0.723213913	 0.8931371247	-0.327491
C	 0.488092596	-2.9994816703	 0.1618133419	 0.127614
O	-0.291876628	-3.5080620863	-0.5934728961	-0.228512
C	 2.6268818915	-1.7925207793	-0.0572425396	 0.240295
N	 3.7724241061	-1.9449236621	-0.0299875743	-0.31691
H	 1.4578405668	 1.635777893	-0.2138407392	 0.133461
H	-0.1291875422	 2.0753018521	-0.8875967006	 0.128584
H	 0.0905650615	 1.9677497395	 0.8690567955	 0.138803
H	-1.1055081981	-0.0479808653	-0.0095271452	 0.100128
H	-0.1427798292	-1.3861877251	-1.8599461197	 0.151371
H	 1.2992412554	-0.3223856122	-1.8890605556	 0.136055
H	 0.735990795	-3.4277097725	 1.1539792928	 0.120738
