14
gdb 27650	3.11943	1.294	0.92057	6.0077	73.69	-0.2207	-0.0102	0.2104	1194.8868	0.101432	-432.927168	-432.9188	-432.917855	-432.96024	30.12	
C	-0.0157814519	 1.4454787485	 0.1109561735	-0.493822
C	-0.0233691021	-0.027318189	-0.0602494965	 0.373195
N	-0.0544189475	-0.7286724342	-1.135076836	-0.33499
C	-0.0334960812	-2.0625493418	-0.7050845331	 0.083334
C	-0.0390382065	-3.1898973208	-1.5518630133	 0.187359
N	-0.0365373428	-4.1557745492	-2.1942319022	-0.356145
C	 0.002817369	-2.0746215293	 0.6671632298	 0.318471
N	-0.0390290596	-3.0600440868	 1.6079067342	-0.60194
O	 0.0117159847	-0.7955508639	 1.0970682422	-0.19877
H	 0.8863116447	 1.7788613594	 0.6347946628	 0.148184
H	-0.0473777157	 1.9101832027	-0.8746237673	 0.166283
H	-0.8803899732	 1.7810121842	 0.6931200749	 0.150235
H	 0.1677135421	-3.9854062705	 1.2611179233	 0.284592
H	 0.40325643	-2.8444725393	 2.4894191676	 0.274014
