19
gdb 98792	4.19303	0.91422	0.84108	2.9384	77.12	-0.2483	-0.0244	0.2239	1396.73	0.159006	-423.053521	-423.044633	-423.043689	-423.088666	32.39	
O	 0.4961231478	 1.1972473713	-0.068095788	-0.420558
C	 0.1690655298	-0.1581135836	-0.0442248258	-0.134191
C	-1.3380637092	-0.3724842793	-0.0535123838	 0.342234
O	-2.0655971924	 0.59558834	-0.1469231112	-0.331385
C	-1.8530457932	-1.7890262444	 0.0882297071	-0.082458
C	-2.0724830949	-2.1540037946	 1.5998392557	-0.269316
C	-3.3585976291	-2.943483978	 1.5775670516	-0.059029
C	-3.9713575262	-2.8846393787	 0.3984169613	-0.058524
C	-3.2205630768	-2.0404168888	-0.6005188416	-0.275385
H	-0.356691581	 1.6555798823	-0.1456967391	 0.293389
H	 0.5829113774	-0.6934085925	-0.9176051313	 0.114654
H	 0.5905913071	-0.6570176207	 0.8442825213	 0.117078
H	-1.1012318473	-2.4750981257	-0.3153289393	 0.08713
H	-1.2256725615	-2.7166600919	 2.0073348162	 0.112749
H	-2.1796254071	-1.2552375519	 2.2228428675	 0.124188
H	-3.7328027788	-3.4530679323	 2.4584291817	 0.097492
H	-4.9245362936	-3.3457231875	 0.1649313891	 0.098048
H	-3.7359095469	-1.0892717223	-0.7822124124	 0.136651
H	-3.101852774	-2.5299614415	-1.5734668291	 0.107234
