13
gdb 48192	2.68448	0.82481	0.65151	2.0231	88.56	-0.2526	-0.0537	0.1989	1609.3133	0.084431	-382.196886	-382.187375	-382.186431	-382.232253	33.084	
O	-0.0414827662	 0.0344587988	 0.0661193495	-0.224511
C	 0.0056822493	 1.2287474099	 0.0338254998	 0.179894
C	 1.3431324689	 2.0272365295	-0.0102109609	-0.458635
C	 1.370632594	 2.8093398217	-1.2462363699	 0.310883
C	 1.3346005021	 3.4216653345	-2.2785455272	-0.422274
C	 1.427892706	 2.8547468774	 1.1890208591	 0.441233
C	 1.4531240457	 3.5100234621	 2.2053606289	-0.271807
C	 1.4885176101	 4.2521167967	 3.3447076441	 0.298219
C	 1.5197149589	 4.9096450422	 4.3565825351	-0.540607
H	-0.8929920484	 1.8771719729	 0.0309028699	 0.114597
H	 2.1453880309	 1.2786552654	-0.0128847597	 0.160747
H	 1.3262077212	 3.9718585999	-3.1873875267	 0.212814
H	 1.5475003276	 5.4883072191	 5.2466547181	 0.199447
