21
gdb 99893	2.25954	1.27218	1.14305	3.3241	81.97	-0.2542	0.0278	0.282	1237.4304	0.181582	-383.265593	-383.25547	-383.254526	-383.300532	37.008	
C	 0.0465959333	 1.4786624993	 0.2349681621	-0.411998
C	 0.0896780818	-0.0280078731	-0.0297776226	-0.184935
C	 0.7011547081	-0.4579650343	-1.3960899311	 0.062474
C	-0.1141383809	 0.0904955703	-2.58906838	-0.412019
C	 2.0813620379	 0.0450315477	-1.4794568935	 0.275499
N	 3.1728261216	 0.4241386604	-1.5311261325	-0.363632
C	 0.712604922	-1.9923223257	-1.4625575952	 0.013351
C	 1.6898144419	-2.7592125676	-2.2693806693	-0.262841
N	 1.7303966992	-2.8061071051	-0.7934483248	-0.332384
H	 1.0459813694	 1.9215506259	 0.1823515183	 0.143104
H	-0.5948556533	 2.0035129237	-0.478817697	 0.122306
H	-0.3509797222	 1.6714177397	 1.2355480544	 0.124093
H	 0.6575582629	-0.5253214287	 0.7638237095	 0.121824
H	-0.9239491863	-0.4447633913	 0.0070090009	 0.106514
H	-0.1364517444	 1.1820261919	-2.5937824394	 0.137677
H	 0.3130889814	-0.2482645364	-3.5357900039	 0.138017
H	-1.1431335429	-0.2764183674	-2.5236947704	 0.125646
H	-0.2940842827	-2.3953418851	-1.3605526927	 0.098407
H	 1.3863610911	-3.6840144068	-2.7511789917	 0.121765
H	 2.4722745284	-2.2088630599	-2.784551095	 0.133893
H	 2.4924997539	-2.2151503376	-0.4642828761	 0.243239
