20
gdb 11675	3.23398	1.78345	1.4559	0.9276	75.68	-0.2467	0.098	0.3447	967.995	0.176907	-348.950679	-348.942566	-348.941622	-348.983059	30.961	
C	-0.7107760094	 1.5881149432	-0.3205628988	-0.261825
O	-0.5185222504	 0.1871647378	-0.3017468232	-0.290444
C	-1.6708808874	-0.5422154443	-0.1104270513	 0.442282
C	-2.6235490762	-0.560359118	 1.130911955	-0.28945
C	-3.1626742283	-1.6287415955	 0.1372602892	-0.068903
C	-2.9594710151	-0.586544737	-1.0004087507	-0.3002
C	-1.6798215686	-2.0937244564	-0.0576816992	 0.005592
C	-1.2381049332	-2.9400550441	-1.2412141819	-0.445078
H	 0.2674865859	 2.0434875741	-0.489389513	 0.127369
H	-1.390481198	 1.8940274856	-1.1284598883	 0.11207
H	-1.1151774484	 1.9554137784	 0.6332751416	 0.112043
H	-2.1984938873	-0.9295960092	 2.0680979588	 0.090393
H	-3.2573993075	 0.3162981559	 1.2862662647	 0.086294
H	-4.0329342942	-2.2643368263	 0.284797931	 0.077119
H	-3.6113517959	 0.2902232037	-0.964108937	 0.087836
H	-2.8595227644	-0.9579247302	-2.0204309685	 0.094807
H	-1.233451673	-2.4844262192	 0.8644503506	 0.063071
H	-1.6700219454	-2.6200894859	-2.1924744339	 0.116643
H	-0.1484840932	-2.9033763539	-1.3450174058	 0.126218
H	-1.5185495901	-3.9876527387	-1.0860667492	 0.114162
