20
gdb 56760	2.59932	1.31733	1.0767	1.2491	84.08	-0.2508	0.0557	0.3065	1209.382	0.170043	-365.942025	-365.93294	-365.931996	-365.975895	34.698	
C	 0.0645078347	 1.4442512592	-0.2079400249	-0.398832
C	 0.0285300638	-0.0708031551	 0.0888527585	-0.253598
C	 0.7775048278	-0.3942236445	 1.3039780757	 0.328341
C	 1.3855616821	-0.6428709608	 2.3110840831	-0.476201
C	-1.3982798826	-0.5723253209	 0.17028667	 0.374893
C	-2.3945495212	-0.3354383101	 1.3209359282	-0.303129
C	-3.0159067704	-1.7423579043	 1.0264481722	-0.23543
C	-2.0018236216	-1.9186615469	-0.1115454004	-0.094862
N	-2.1008749097	-0.8282881632	-1.0826743736	-0.368876
H	 1.0946370777	 1.7954285398	-0.3065820783	 0.124577
H	-0.4689893012	 1.6473060403	-1.1405304857	 0.127962
H	-0.4099323593	 2.0097055969	 0.5996315206	 0.124536
H	 0.4930307952	-0.5926845824	-0.7574111204	 0.115572
H	 1.9314379446	-0.8717752025	 3.1926389766	 0.193984
H	-1.9111032679	-0.294957325	 2.2989672468	 0.122452
H	-3.0474366098	 0.5369728944	 1.2112248004	 0.093044
H	-2.8650835571	-2.4410550806	 1.8524153276	 0.11197
H	-4.0696877559	-1.7735282362	 0.7290322676	 0.096783
H	-1.5376838965	-2.8436382059	-0.435416709	 0.095715
H	-3.0308126828	-0.4124123421	-1.111882255	 0.2211
