19
gdb 85628	3.28588	1.0721	0.84824	4.4078	86.2	-0.2218	-0.0443	0.1775	1361.773	0.159031	-382.091353	-382.082222	-382.081278	-382.125261	33.46	
C	-0.0392198443	 1.5405240891	 0.0338132772	-0.388293
C	 0.0137810822	 0.0115639813	-0.0673224049	 0.021219
C	 0.8303964705	-0.498353654	-1.2227283974	-0.180641
C	 1.6618626777	-1.4673517328	-0.8278611502	 0.19323
C	 1.4843067752	-1.7408577246	 0.6499291977	-0.257155
N	 0.679765457	-0.6033323479	 1.0914691848	-0.080394
C	-0.1612049037	-0.8634590773	 2.2408196044	-0.327808
C	 2.5652508122	-2.1960201996	-1.644543186	 0.206333
N	 3.3114288365	-2.807248454	-2.2861470888	-0.333862
H	 0.970770327	 1.9509100101	 0.1138471559	 0.128602
H	-0.531743484	 1.9705597702	-0.8444999154	 0.115839
H	-0.6064193385	 1.8488669609	 0.9170960611	 0.122747
H	-1.0265814599	-0.3591403135	-0.1840540409	 0.074661
H	 0.7284808129	-0.1243189864	-2.2333356011	 0.127774
H	 0.9777150608	-2.7149519541	 0.7942595787	 0.103958
H	 2.4384868537	-1.7958912163	 1.1900110571	 0.126027
H	 0.4523293157	-1.2005921506	 3.0823505783	 0.126318
H	-0.6679772827	 0.0549005076	 2.5516283743	 0.124619
H	-0.9332633881	-1.633915738	 2.0526839154	 0.096829
