21
gdb 119360	4.83999	0.78382	0.76569	1.2101	79.5	-0.2569	0.0771	0.334	1535.1432	0.181759	-424.174823	-424.165534	-424.16459	-424.2091	35.383	
O	-0.1317615648	 1.4254382702	 0.0258407414	-0.418653
C	 0.0186097088	 0.0136184675	 0.0100748747	-0.074376
C	-1.3776729572	-0.5995932908	 0.0049760185	-0.315409
C	-1.3730199101	-2.1056348085	-0.0111924196	 0.347162
C	-0.7489953435	-3.0735016162	 1.0510436205	-0.28928
C	-1.3931447564	-3.9775839826	-0.0195639411	 0.395297
O	-1.3636349472	-5.357631347	 0.0483698513	-0.469249
C	-2.6301685962	-3.0284200657	 0.0007124345	-0.335457
C	-0.7732867485	-3.047081748	-1.1063371332	-0.323798
H	 0.7444777454	 1.8210498555	 0.0362209485	 0.285026
H	 0.5744417905	-0.318788897	-0.8812190624	 0.088015
H	 0.5758674863	-0.3384731333	 0.8927739313	 0.089114
H	-1.9175465103	-0.2396986586	 0.8893947963	 0.108008
H	-1.9206398138	-0.2200569696	-0.8693770044	 0.106705
H	 0.3422198979	-3.0990089152	 1.1171155943	 0.089678
H	-1.2152630326	-3.0783806342	 2.0402465984	 0.091453
H	-1.8260136736	-5.7100757399	-0.719606154	 0.281163
H	-3.2313082021	-3.0242113702	 0.9143735879	 0.091201
H	-3.2559263582	-3.0072636875	-0.8973639173	 0.081592
H	-1.265248847	-3.0288043376	-2.0842375493	 0.081913
H	 0.3159293825	-3.0672933112	-1.2018223762	 0.089895
