15
gdb 27833	2.07175	1.78623	0.95981	3.4142	76.49	-0.1871	-0.0106	0.1765	1146.3512	0.113458	-453.991392	-453.983455	-453.982511	-454.023523	31.214	
N	 0.0110877848	 1.3889583596	 0.1536412558	-0.582412
C	-0.0090396522	 0.0153157605	 0.0564319894	 0.387351
C	-1.1746211708	-0.7010559678	 0.035292415	-0.28613
C	-1.1854724405	-2.1294758351	-0.001808737	 0.379229
N	-2.2084655092	-2.882056746	-0.0183797772	-0.554083
O	 0.1088404838	-2.7442406393	-0.0303976628	-0.286486
C	 1.230194516	-2.0171073865	-0.0125558969	 0.496499
O	 2.3335770067	-2.7748581941	-0.0412668373	-0.404202
C	 1.2563160458	-0.6700153397	 0.0296361301	-0.390217
H	 0.8355882513	 1.8570117474	-0.1875742055	 0.255948
H	-0.8475673346	 1.8699546978	-0.0644453095	 0.258117
H	-2.1432117612	-0.2191169024	 0.0510602128	 0.097891
H	-1.943221294	-3.864582004	-0.0510178118	 0.211299
H	 2.0540416003	-3.6991824732	-0.0617562883	 0.310541
H	 2.2015975839	-0.1478494072	 0.0588133832	 0.106654
