17
gdb 22974	2.16269	1.33705	0.94666	14.0608	81.62	-0.1474	-0.0254	0.122	1235.9713	0.134829	-455.009993	-455.001552	-455.000608	-455.043768	30.723	
O	 1.7577804304	 3.5529339915	-1.4908114442	-0.382119
N	 0.8623894694	 3.1860341819	-0.6977672935	-0.074879
C	 1.0956407897	 2.0519859112	 0.0249332458	 0.135373
C	 0.1057522708	 1.5895382235	 0.9444546776	 0.113454
O	-0.9869517224	 2.0294236228	 1.2413890462	-0.314282
C	 2.3937975456	 1.3339478288	-0.1799987961	-0.097174
C	 3.2261779123	 0.9811337304	 1.0855147512	-0.196093
N	 2.7188638423	-0.4622980207	 0.9900888294	-0.262352
H	 3.3689383241	-1.2222521868	 1.1899926072	 0.299932
H	 1.8654194799	-0.5585820582	 1.5542882354	 0.300636
C	 2.3313632639	-0.1930645721	-0.4684486574	-0.196085
H	 0.4413548485	 0.6235039373	 1.4814052112	-0.094081
H	 2.9158664334	 1.934395285	-0.9343304971	 0.125232
H	 4.3107894237	 0.9682908629	 0.9516093607	 0.149404
H	 2.9528481952	 1.4492130704	 2.0307329839	 0.171816
H	 1.3670408101	-0.6317168769	-0.7232262672	 0.171815
H	 3.1248482832	-0.5879294411	-1.1079329931	 0.149404
