21
gdb 52238	5.13507	0.67871	0.65502	3.0087	83.76	-0.2454	-0.0179	0.2275	1727.2101	0.18188	-387.07039	-387.06133	-387.060385	-387.105487	33.333	
O	-0.6314523113	 0.8012303228	 0.8828315409	-0.238425
C	-0.0000956098	 1.0273463034	-0.1171378222	 0.159438
C	 1.3072949398	 1.7810337138	-0.1712752824	-0.270964
C	 1.2276189536	 3.001527449	-1.1075982427	-0.219529
C	 2.5692772798	 3.7154464789	-1.256537115	 0.030885
C	 3.7429471374	 3.0125262474	-2.0302274634	-0.253424
C	 3.8531455462	 4.2420907996	-2.9407671298	-0.034983
C	 2.5550368847	 4.4648398722	-3.6597673228	-0.274626
C	 2.6726404432	 4.9042062313	-2.2252343737	-0.072635
H	-0.3680410379	 0.683808644	-1.1138740043	 0.067259
H	 1.5870442699	 2.0705653986	 0.846126916	 0.119164
H	 2.072560928	 1.0883719562	-0.5517859159	 0.120085
H	 0.8633402557	 2.6808187103	-2.0919097416	 0.100048
H	 0.483875589	 3.7088088852	-0.7184480984	 0.11042
H	 2.9236855074	 4.0155164753	-0.2646790202	 0.076453
H	 4.6198230649	 2.8445046464	-1.4018098648	 0.105134
H	 3.4972504627	 2.0735256503	-2.5403492407	 0.09045
H	 4.7798662074	 4.6904607621	-3.2768027185	 0.086513
H	 2.5543118483	 5.273857178	-4.3832914868	 0.112222
H	 1.9310603621	 3.6209028634	-3.9450092423	 0.10295
H	 2.5423453289	 5.9425655019	-1.9434504513	 0.083566
