16
gdb 13510	3.19934	1.87403	1.37896	2.2103	60.82	-0.2452	-0.0394	0.2059	912.3143	0.129018	-420.868842	-420.86079	-420.859846	-420.901893	28.856	
C	 0.2365782925	 0.7963185814	-1.0862862736	-0.478592
C	-0.13471017	 0.3333213967	 0.3008519788	 0.403287
O	 0.6380603795	 0.3942593817	 1.238000766	-0.322937
C	-1.5190926901	-0.3086248727	 0.4284376401	-0.036251
O	-1.4204445028	-1.6262906342	-0.1744846788	-0.294077
C	-1.4068963759	-2.2655927629	 1.1316979139	-0.123358
C	-1.8711521886	-0.9463275642	 1.8025022185	 0.103333
O	-1.2860378066	-0.4870073624	 2.9733956371	-0.430537
H	 1.2904771595	 1.0732947092	-1.1255396278	 0.146257
H	 0.0209400656	 0.0002406645	-1.8059640498	 0.166152
H	-0.3815089214	 1.6586394255	-1.3637147512	 0.146873
H	-2.283453395	 0.3065802725	-0.0619543242	 0.089287
H	-2.0811710816	-3.1263875547	 1.1643276305	 0.114208
H	-0.3953584729	-2.5707360582	 1.4276064805	 0.111838
H	-2.9540127249	-0.9507176792	 1.9551258365	 0.103811
H	-0.3833032172	-0.215888363	 2.7417782036	 0.300708
