20
gdb 97983	5.54375	0.43478	0.41937	4.135	90.36	-0.2536	0.0265	0.2801	2573.8195	0.169267	-366.015062	-366.004215	-366.003271	-366.054803	36.725	
C	 0.0392767251	 1.3075005451	-0.6123470323	-0.364392
C	-0.0813336797	 0.2195464446	 0.470345182	-0.314648
C	-1.4055726761	-0.3919730691	 0.5238524439	 0.152433
C	-2.5089013171	-0.8744069885	 0.5546864467	-0.014275
C	-3.828179161	-1.4945483735	 0.583048532	-0.361731
C	-3.8384914999	-2.8971161798	-0.055241824	-0.16905
C	-5.2448494728	-3.5255147841	-0.0100064048	-0.341042
C	-5.2837801844	-4.8570378778	-0.6096899679	 0.254358
N	-5.297376088	-5.9090111479	-1.0876664757	-0.302032
H	 1.0466052	 1.7343154352	-0.6136361202	 0.115537
H	-0.1606180801	 0.8925795185	-1.6039693863	 0.127959
H	-0.6768136174	 2.1142633249	-0.4339787225	 0.127742
H	 0.6709746931	-0.5595004206	 0.2918395277	 0.130105
H	 0.16018045	 0.6498670045	 1.4507972029	 0.129316
H	-4.183522581	-1.5652774111	 1.6204262464	 0.129031
H	-4.5513911555	-0.8530704344	 0.0606644281	 0.128885
H	-3.4989388913	-2.8311893694	-1.092956258	 0.132952
H	-3.1298993826	-3.5448087222	 0.4690450834	 0.133377
H	-5.5945244689	-3.6018246416	 1.0266039265	 0.152787
H	-5.9642485124	-2.8870199528	-0.5367500479	 0.152689
