15
gdb 125768	3.24351	1.45293	1.00998	3.1369	73.59	-0.2413	-0.0431	0.1981	1117.3441	0.11302	-450.132796	-450.124574	-450.12363	-450.165556	30.755	
C	-0.0450933495	 1.4892894233	 0.0334361083	-0.455758
C	-0.0019018813	-0.0070449669	 0.0128190441	 0.357339
N	-0.024824223	-0.561551602	-1.1443312866	-0.160331
O	 0.0186203759	-1.9798616033	-1.1617014213	-0.268709
C	 0.0807998037	-2.6478361476	 0.0101278275	 0.515394
N	 0.1623745962	-3.9833223525	-0.2050703355	-0.555157
N	 0.0945819967	-2.1436840725	 1.1954257264	-0.403396
C	 0.0602095278	-0.7610856802	 1.2882098926	 0.271254
N	 0.0734621949	-0.0956966756	 2.3810197162	-0.525376
H	 0.8384003676	 1.8759825562	 0.5488242684	 0.156217
H	-0.0917931406	 1.8826945089	-0.9828857708	 0.136737
H	-0.91138345	 1.8249617581	 0.6100684441	 0.155861
H	-0.0876689053	-4.3381764824	-1.1126139915	 0.277005
H	 0.0199265671	-4.5738680034	 0.5969732555	 0.279587
H	 0.1162981698	-0.75092063	 3.1653381726	 0.219333
