14
gdb 19999	3.73419	1.71761	1.35394	4.4324	62.13	-0.2585	-0.0118	0.2467	889.7358	0.107548	-378.672604	-378.665381	-378.664436	-378.704563	25.853	
N	 0.0420693639	-1.0595343772	 0.6284035606	-0.317785
C	 0.0957195552	 0.0656765063	 0.370278476	 0.306404
C	 0.1065016847	 1.4699962937	 0.0255643946	-0.104858
O	 0.7340641875	 2.3649904217	 0.9524704918	-0.232949
C	 1.3536302332	 2.1944095497	-0.3190697002	 0.048181
C	 2.7109850039	 1.5652543351	-0.337995053	-0.037149
C	 3.7531772304	 2.1023075446	 0.5769596683	-0.23432
N	 3.1863652961	 0.7618086403	 0.7874870061	-0.305391
H	-0.8358191984	 1.8296539126	-0.3835470128	 0.146002
H	 1.2275183757	 3.0417470852	-0.9958167369	 0.117668
H	 3.0067606603	 1.1968719348	-1.3183168853	 0.111097
H	 4.7914696226	 2.1219085172	 0.2599847617	 0.12755
H	 3.4610419355	 2.8991559746	 1.2558475404	 0.127043
H	 2.5045602792	 0.7989923314	 1.5428940187	 0.248506
