17
gdb 16229	3.0769	2.28322	1.55977	1.6245	68.27	-0.2352	0.0235	0.2587	850.452	0.142796	-363.865667	-363.858406	-363.857461	-363.897399	27.759	
C	-0.2169669817	 1.5080170322	 0.0101498476	-0.383516
C	 0.0522269168	 0.0039329275	-0.0392950959	-0.060077
N	 1.0182258054	-0.3174821862	-1.113291736	-0.271964
C	 1.9899277026	-0.9016127877	-0.5490742312	 0.103906
O	 1.9690594186	-1.1198232342	 0.7866491603	-0.247861
C	 0.705755881	-0.5921176822	 1.2236665468	 0.421856
C	 0.6724076802	-0.0350723763	 2.6103206827	-0.330173
C	 0.0042310582	-1.3638302289	 2.2930719186	-0.323267
H	 0.6956943818	 2.0588471309	 0.2563115618	 0.12214
H	-0.5727887959	 1.8500131259	-0.9650074306	 0.131035
H	-0.9795919544	 1.7485625418	 0.7578610414	 0.110852
H	-0.8886480244	-0.5154373104	-0.2608558178	 0.091841
H	 2.883911357	-1.2630181749	-1.0453849988	 0.138404
H	 1.5977730742	-0.0657061602	 3.1744391497	 0.129063
H	 0.0489125401	 0.8300379129	 2.8066005723	 0.121964
H	-1.0802565763	-1.4050582742	 2.2598605743	 0.118768
H	 0.4852373668	-2.2655413161	 2.6549847851	 0.127029
