20
gdb 68453	2.36404	1.99353	1.32021	3.1395	80.02	-0.2517	0.0352	0.2869	1019.7617	0.173018	-403.163854	-403.156001	-403.155057	-403.195829	31.503	
C	-0.0553693528	 1.5329959611	 0.0383272554	-0.468096
C	 0.0030456056	 0.0187150951	 0.0148297032	 0.226885
C	 1.0226565192	-0.7031719283	-0.9280905053	-0.259504
C	 1.0581278143	-1.8253107895	 0.1391238502	-0.042788
C	 0.6932876031	-0.7487552921	 1.1914189332	-0.259509
C	-0.1398615554	-2.7375248123	-0.0666657942	-0.076521
O	-1.3617662043	-1.9979790108	-0.2403851842	-0.268676
C	-1.3459990794	-0.6292728658	-0.2087617418	 0.39675
N	-2.4092859288	 0.0407322452	-0.3597586639	-0.541227
H	 0.9464584372	 1.9439427607	 0.2026446918	 0.097946
H	-0.4458448416	 1.9246140542	-0.9044195234	 0.132772
H	-0.7156222406	 1.8872223277	 0.8340698681	 0.13275
H	 0.6985757615	-0.9589024693	-1.9408968343	 0.104969
H	 1.963569528	-0.1491806539	-0.972302911	 0.102981
H	 1.9690755224	-2.4146808018	 0.2680014338	 0.072829
H	 1.5728294882	-0.2032636087	 1.5421644635	 0.102983
H	 0.0789355678	-1.0446542982	 2.0465305723	 0.104974
H	-0.011738886	-3.3618266849	-0.9595746635	 0.112057
H	-0.2843788699	-3.3998288426	 0.7958372861	 0.112063
H	-3.2031643287	-0.5888054757	-0.496656846	 0.216359
