17
gdb 46914	3.26792	1.36507	1.04775	2.6941	67.72	-0.2676	0.0046	0.2722	1103.7257	0.137107	-458.972652	-458.965056	-458.964112	-459.005306	28.897	
O	 0.0525602938	 0.3059424207	-0.9543963996	-0.305682
C	 0.0346186464	 1.2594094346	-0.2248127993	 0.383034
C	-1.3218532997	 1.8709635558	 0.1672050749	-0.315437
C	-1.4653687187	 2.9322395448	 1.2678834471	-0.279197
C	-0.6793190095	 4.1831469262	 0.9355427086	 0.068848
O	 0.1392805845	 4.7562741332	 1.9573159281	-0.251068
C	 0.7831695074	 4.09033159	 0.8652956257	 0.027346
C	 1.4171449839	 2.7559217289	 1.1878823367	-0.110562
O	 1.2327819353	 1.7840317387	 0.148747078	-0.225544
H	-1.7060313019	 2.277943466	-0.7773648575	 0.146884
H	-1.9593986805	 1.0096012066	 0.3844824062	 0.146471
H	-2.52840788	 3.1726254692	 1.3735539614	 0.115176
H	-1.141392674	 2.5486501997	 2.2385190123	 0.126036
H	-1.1769076933	 4.9159150769	 0.300576341	 0.104384
H	 1.3331147395	 4.7433205133	 0.1898093771	 0.108792
H	 2.5022305684	 2.845017172	 1.2744478172	 0.131558
H	 1.0351179084	 2.3859737534	 2.142736292	 0.128961
