17
gdb 133779	3.07652	1.05749	0.96119	1.3425	62.27	-0.245	0.0832	0.3282	1255.1754	0.131497	-549.488022	-549.479069	-549.478125	-549.522422	32.416	
C	-0.1888506598	 1.6755975023	-0.2884106422	-0.380266
C	 0.0095489119	 0.2516649854	 0.2215008457	-0.128707
N	-1.2634040391	-0.4748598373	 0.1620453214	-0.079429
C	-1.580616856	-1.2569937037	-1.0239329126	-0.253372
C	-1.3091597685	-1.9218347307	 0.2824015118	-0.163148
C	-0.0761303702	-2.7742975426	 0.4649939743	 0.278488
F	 0.8530540249	-2.5951848616	-0.4891017247	-0.078095
F	 0.5183924817	-2.5233743766	 1.6448293761	-0.081534
F	-0.413722595	-4.0727472535	 0.4577081456	-0.071025
H	 0.7417528709	 2.2448348242	-0.204435488	 0.115993
H	-0.4915314317	 1.6768571155	-1.3407076612	 0.118662
H	-0.9653484513	 2.1865108011	 0.2874331981	 0.128568
H	 0.8068465707	-0.2451558467	-0.3482519632	 0.103274
H	 0.3234510402	 0.2646337341	 1.2705955897	 0.115969
H	-2.6003132303	-1.1872332606	-1.3920270264	 0.125047
H	-0.8160106715	-1.3609914391	-1.791318138	 0.128396
H	-2.1286702469	-2.3062619102	 0.8857911537	 0.121178
