15
gdb 132085	2.94938	1.42551	0.96679	2.259	75.66	-0.2097	-0.0522	0.1574	1135.1585	0.111704	-461.946663	-461.938758	-461.937814	-461.979215	29.636	
C	 0.0891633399	 1.4979171296	 0.0154598316	-0.484522
C	-0.0400025599	 0.0150332863	-0.0100293391	 0.251618
C	-1.1823032926	-0.6891576611	-0.1204752416	 0.137676
F	-2.3645878897	-0.0624411763	-0.2222083648	-0.08182
C	-1.1654762005	-2.1194680893	-0.1321235145	-0.162283
C	 0.0137643492	-2.7661592637	-0.030587521	-0.159369
C	 1.2596625559	-2.0338464349	 0.0898036387	 0.38222
N	 2.3981523208	-2.5894708877	 0.1888456237	-0.537627
O	 1.150274487	-0.6402439833	 0.0922200355	-0.278789
H	 0.7211502531	 1.842746182	-0.8102700429	 0.148975
H	-0.8932719988	 1.9630832006	-0.0693531438	 0.150392
H	 0.5615576083	 1.8265050055	 0.9476916002	 0.148971
H	-2.1077096621	-2.6483364549	-0.2228626835	 0.129637
H	 0.0935511444	-3.8448404212	-0.0332079343	 0.134074
H	 3.1375247351	-1.8905950017	 0.2626985658	 0.220846
