24
gdb 60052	2.26478	1.16311	0.95156	3.3183	86.22	-0.2377	0.0668	0.3045	1404.7095	0.216201	-405.540719	-405.530305	-405.52936	-405.576012	39.74	
C	 0.7833683866	 1.8130050498	-0.3380027287	-0.380354
C	 0.3642421603	 0.3623669434	-0.5463801952	 0.147071
O	-0.5245445494	 0.3319274301	-1.6495995822	-0.443513
C	 1.5797443814	-0.5543502811	-0.7883112988	-0.288074
C	 1.2451983128	-2.0501859197	-0.8687933123	 0.328747
C	 1.7057198619	-2.8619353686	 0.3267647275	-0.470333
N	-0.0901473037	-2.397775038	-1.4298466882	-0.382154
C	 1.1301293213	-2.7562742172	-2.1797067191	-0.02915
C	 1.3177085218	-2.0843049918	-3.5182658862	-0.414597
H	 1.4240872825	 1.9182762087	 0.5431000456	 0.102581
H	 1.3292123158	 2.1806233431	-1.2133738542	 0.116005
H	-0.1016983023	 2.4407664799	-0.2041965776	 0.120626
H	-0.1524657554	 0.0130908656	 0.3661086732	 0.051567
H	-0.7557303303	-0.6075385566	-1.7599994846	 0.292323
H	 2.0730711747	-0.2181397601	-1.7066360581	 0.106495
H	 2.3017991591	-0.408918929	 0.0235661272	 0.091242
H	 1.2534324339	-2.4857424217	 1.252175403	 0.124969
H	 1.4363803469	-3.9187024951	 0.2223617277	 0.108935
H	 2.7932465905	-2.8027324366	 0.4449854875	 0.127288
H	-0.4811001421	-3.2021538824	-0.9475022048	 0.229214
H	 1.406008748	-3.8103215124	-2.1601411899	 0.079959
H	 0.9373350632	-1.0607586457	-3.4930543204	 0.146055
H	 2.3759140101	-2.0626081173	-3.8013198286	 0.115673
H	 0.7722806224	-2.6277695375	-4.2970707728	 0.119425
