13
gdb 50390	3.26061	1.21704	0.99864	5.7565	65.96	-0.276	-0.0677	0.2083	1131.7425	0.08879	-452.762129	-452.754302	-452.753358	-452.795579	26.967	
O	-0.2535215416	 0.0804415861	-0.0756383685	-0.214495
C	-0.0264211967	 1.2508690193	-0.1994589852	 0.147965
C	 1.3412315392	 1.890002032	-0.006857253	-0.03308
C	 1.4323185147	 2.6497612612	 1.3587839179	-0.21467
N	 2.331179297	 1.8211353471	 2.1702243931	-0.291079
C	 2.7645463616	 0.9171296228	 1.3922271869	 0.338144
O	 2.3558564139	 0.8775752888	 0.0989404614	-0.228882
C	 3.7074943949	-0.0971018848	 1.7700860094	 0.291011
N	 4.4724376306	-0.9083788219	 2.0698991138	-0.304242
H	-0.8238508832	 1.992813273	-0.4349314849	 0.092058
H	 1.5723852648	 2.5282895577	-0.8648035448	 0.128023
H	 1.8544312247	 3.6541496909	 1.2545552288	 0.145537
H	 0.4612632201	 2.7492003076	 1.8539980552	 0.143709
