23
gdb 85976	3.67002	0.99653	0.96834	1.4771	86.06	-0.2368	0.0855	0.3223	1380.4196	0.204378	-388.273373	-388.263698	-388.262753	-388.308183	36.974	
C	-0.5405388989	 1.090048557	 0.9574609307	-0.398904
C	 0.2602560943	-0.0837848122	 0.4268295277	 0.169272
C	 0.6898477283	-0.071892548	-1.0542262038	-0.35131
C	 2.1424904103	-0.1395327811	-0.5055061459	 0.425959
C	 3.0165408509	 1.0701727779	-0.804428697	-0.459989
O	 1.6388182821	-0.0603776208	 0.8670867435	-0.343342
C	 2.8029528332	-1.4851972772	-0.7274945977	-0.003156
C	 3.6472576629	-1.7984519346	-1.9400431421	-0.280745
C	 4.2815102909	-1.7322581767	-0.5730840429	-0.275815
H	-0.0959514762	 2.0401160845	 0.644832856	 0.115871
H	-1.5716793752	 1.0491306506	 0.5884682483	 0.112176
H	-0.5684311381	 1.0696129604	 2.0516254251	 0.125308
H	-0.2202515827	-1.0250980119	 0.7304064393	 0.068797
H	 0.3757701146	-0.9271263824	-1.6548471182	 0.103123
H	 0.4504766472	 0.8509918947	-1.5879276132	 0.098997
H	 2.4467400933	 1.9881872817	-0.6407714824	 0.117531
H	 3.8834022967	 1.0942340186	-0.1378467459	 0.129162
H	 3.3710739697	 1.0702654443	-1.8402729413	 0.116107
H	 2.1651346634	-2.2985185354	-0.3908231077	 0.082042
H	 3.5220752806	-2.768024453	-2.4095116133	 0.110299
H	 3.8688585281	-0.9986026244	-2.6379636054	 0.112075
H	 4.9297153395	-0.8902525128	-0.3599510832	 0.114287
H	 4.5925322952	-2.6572973992	-0.1006105707	 0.112255
