18
gdb 7509	3.03615	1.29551	1.04231	1.5625	78.09	-0.226	0.0426	0.2686	1204.1769	0.150732	-347.768915	-347.759288	-347.758344	-347.804529	34.026	
C	 0.0944370135	 1.51414193	 0.0414943096	-0.499893
C	 0.0447813668	 0.0593918403	 0.0395424613	 0.003279
C	-0.0018856286	-1.1453536915	 0.0306494927	 0.088889
C	 0.0019224746	-2.5854914053	 0.0128106551	 0.216784
O	 1.0294899709	-3.1719206464	-0.7498025192	-0.44969
C	-0.4626101126	-3.3504671458	 1.2465340272	-0.346482
C	-1.2889997048	-3.3701522944	-0.0176508642	-0.025278
C	-2.637168185	-2.6939274826	-0.088938918	-0.412355
H	 0.9875765171	 1.8755909548	-0.4802898994	 0.150573
H	-0.7776427694	 1.94541597	-0.4626221821	 0.149505
H	 0.1227640057	 1.9151415447	 1.0608834606	 0.146989
H	 1.8680597806	-2.8708866073	-0.3817536014	 0.28166
H	 0.1093108563	-4.2368781978	 1.4971474318	 0.115432
H	-0.8272779528	-2.7745003617	 2.090408334	 0.115768
H	-1.1923140495	-4.2788838077	-0.6051986581	 0.102614
H	-2.6368442994	-1.753455434	 0.4690969913	 0.124201
H	-2.9106472362	-2.4655953462	-1.1244803026	 0.122146
H	-3.4164877571	-3.3383697291	 0.3320885212	 0.115858
