18
gdb 85644	1.99802	1.65553	1.17326	3.9028	77.76	-0.2387	0.0216	0.2603	1121.7161	0.147671	-401.966797	-401.957973	-401.957029	-402.000393	33.291	
C	 0.7661388972	 1.4009314607	-0.2547648634	-0.392047
C	 0.0448813503	 0.0670651869	-0.0318758036	 0.031968
C	 0.2758549305	-0.9709862168	-1.1610175676	-0.239447
C	 1.4402832443	-1.8617333234	-0.6594647575	-0.285059
C	 2.7517724414	-1.4566330552	-1.1474874417	 0.358543
C	 3.8267596375	-1.1076995878	-1.5573747462	-0.489278
C	 1.3683189701	-1.7101128742	 0.8883689903	 0.403424
O	 1.9340296217	-2.3930007827	 1.7080509057	-0.372542
N	 0.5394196693	-0.6538416746	 1.1338891815	-0.298058
H	 1.8329410598	 1.2399446162	-0.4344854045	 0.142446
H	 0.3423657578	 1.9231625554	-1.1188326327	 0.11945
H	 0.6577498661	 2.0534012436	 0.618013319	 0.11394
H	-1.0281093858	 0.2583082698	 0.0860040653	 0.087702
H	-0.6190386209	-1.5874164576	-1.2793994051	 0.114503
H	 0.4919939557	-0.4950886408	-2.1181456972	 0.121561
H	 1.2778609763	-2.9162753493	-0.9013099505	 0.130068
H	 4.7835562721	-0.8146281704	-1.9127331587	 0.200917
H	 0.4424888564	-0.3069559801	 2.0758136569	 0.251909
