21
gdb 83953	2.29292	1.67712	1.41553	1.6282	77.42	-0.2384	0.0886	0.327	1063.6446	0.183292	-424.206599	-424.198104	-424.19716	-424.239219	33.055	
C	-0.0590098005	 1.6258329167	-0.0007712875	-0.420898
C	 0.0564589803	 0.1129038117	 0.0164494358	 0.004487
C	 1.1558787358	-0.6066850172	-0.8249302877	 0.093258
O	 2.369784348	 0.1446067065	-0.7221754096	-0.28141
C	 2.8937805846	 0.1410531106	 0.5913780842	 0.019223
O	 1.8998642839	 0.1351188778	 1.5974091565	-0.281407
C	 0.7428777559	-0.615023825	 1.2137053474	 0.093255
C	 1.1382501787	-1.7575257325	 0.2279580251	-0.020699
C	 0.1052745939	-2.8599745553	 0.0141953965	-0.43866
H	 0.901890788	 2.1034857436	 0.1961923293	 0.132307
H	-0.4179074952	 1.9759588398	-0.9746980568	 0.111875
H	-0.7697227753	 1.9688507478	 0.758933336	 0.111868
H	-0.9166782776	-0.3439045851	-0.1825642065	 0.073547
H	 1.000980521	-0.8182294841	-1.8854261599	 0.072482
H	 3.5598329538	-0.7260327792	 0.7227672222	 0.093953
H	 3.476060332	 1.0591180129	 0.713093177	 0.116642
H	 0.1877858634	-0.8346573971	 2.1285983528	 0.072483
H	 2.1071679025	-2.2237450583	 0.4223416526	 0.0799
H	-0.8982223146	-2.4761135055	-0.1876746897	 0.122609
H	 0.3921137288	-3.493736618	-0.8318152843	 0.122593
H	 0.0410460627	-3.50063132	 0.9002545768	 0.122593
