14
gdb 20406	4.89314	2.10136	1.50193	0.5636	63.03	-0.2037	0.0204	0.2242	786.6256	0.110904	-378.727743	-378.721643	-378.720699	-378.75803	23.297	
C	 0.0414277578	 1.3980872245	-0.109210953	-0.092852
C	 1.539104144	 1.8195685792	 0.0658014601	-0.368857
C	 2.0847377396	 0.5619617286	 0.6723494791	 0.271407
N	 3.2152048492	 0.1306759133	 1.2112785945	-0.321548
N	 2.9479345723	-1.1683500384	 1.4749866274	-0.189776
C	 1.6788285771	-1.5713091853	 1.1235781303	-0.204704
C	 1.1127525863	-0.4392363152	 0.5934055777	 0.298661
O	-0.0592566216	-0.0518097953	 0.0287322524	-0.292464
H	-0.5823261296	 1.84890545	 0.6707770077	 0.117553
H	-0.3708094431	 1.6604421533	-1.0853959718	 0.121023
H	 2.0104648645	 2.0517224903	-0.8959152351	 0.12682
H	 1.6299730099	 2.7048138399	 0.7007079945	 0.127443
H	 3.6553304121	-1.7254756519	 1.9209348835	 0.272916
H	 1.3342878515	-2.5788455828	 1.2812582627	 0.134378
