20
gdb 121384	3.93481	0.92855	0.81798	1.7511	76.6	-0.2417	0.0229	0.2646	1430.5473	0.171899	-440.285727	-440.276733	-440.275789	-440.320383	32.449	
C	-0.7178189703	 0.7190563678	-0.3691165768	-0.236528
O	 0.2890175953	 0.3767201071	-1.2946178814	-0.232886
C	 1.3739096198	-0.3374605006	-0.7345791384	-0.082809
C	 1.0995229375	-1.8425595647	-0.593775812	 0.021614
C	 0.7589089151	-2.4995065124	-1.9352922623	-0.223314
C	 0.7869882799	-4.0110148903	-1.7613564691	-0.08261
O	 2.0417331362	-4.4476226625	-1.2091282583	-0.224559
C	 2.6281567668	-3.6022938737	-0.3308795539	 0.129779
N	 2.2776080852	-2.4431996569	 0.0342221873	-0.281711
H	-1.2301857344	-0.1600067181	 0.0500571027	 0.103755
H	-0.3129252007	 1.3095643297	 0.4671447663	 0.108602
H	-1.4545133428	 1.3242162272	-0.9037798962	 0.126983
H	 2.2233602928	-0.1944701199	-1.4120189311	 0.105716
H	 1.6570071934	 0.0682080243	 0.2475746313	 0.099248
H	 0.2527122522	-1.9733188281	 0.0957737498	 0.08363
H	-0.217984073	-2.173547347	-2.3018684993	 0.116009
H	 1.5037916578	-2.2053016457	-2.6848106968	 0.112022
H	-0.0148694819	-4.3438520112	-1.0894718062	 0.11267
H	 0.6815146728	-4.5435011611	-2.7094259013	 0.119917
H	 3.5273246682	-4.0637098939	 0.0745696856	 0.124473
