16
gdb 20008	3.81416	1.42355	1.22846	3.0888	67.01	-0.2584	-0.042	0.2164	1011.744	0.1289	-383.70753	-383.699777	-383.698833	-383.740209	27.887	
O	-0.1986943641	 0.3340567628	-0.647678728	-0.251095
C	 0.1989926628	 1.0777356288	 0.2130949084	 0.146362
C	 1.3435056439	 2.0287025562	 0.0681390425	-0.057997
O	 2.273215	 1.8020171305	-0.9876238724	-0.229276
C	 1.4425632731	 2.9448433979	-1.1083938937	 0.059441
C	 0.4567677044	 2.978661158	-2.2204423651	-0.01489
C	-0.330540935	 4.2466249261	-2.460818522	-0.270314
C	 0.7489656555	 3.8427284269	-3.4263690366	-0.267133
H	-0.2893482839	 1.1237046081	 1.2128295521	 0.08118
H	 1.7805826884	 2.3611765152	 1.0112469114	 0.10295
H	 1.9547466968	 3.8917578347	-0.9164385637	 0.096699
H	-0.0430413522	 2.0343170851	-2.39692313	 0.127261
H	-1.3667345332	 4.1454348583	-2.7619632774	 0.122763
H	-0.1381701753	 5.0960121469	-1.8130769516	 0.113253
H	 1.6695326638	 4.4172609938	-3.4280764415	 0.117355
H	 0.4625226953	 3.4589474308	-4.3985910324	 0.123442
