25
gdb 113435	4.06891	0.79042	0.74256	0.1584	94.74	-0.2504	0.09	0.3404	1700.9275	0.228185	-352.344752	-352.334661	-352.333717	-352.379948	38.477	
C	-0.1102235488	 1.6288106928	-1.0873121183	-0.369767
C	-0.0758196242	 0.4648073244	-0.0902112401	-0.194344
C	-1.4036168187	-0.2559848447	 0.0252383159	-0.061788
C	-1.7752692314	-1.3441182227	-0.962507483	-0.351028
C	-1.47963668	-1.6846474522	 0.4727700151	 0.368638
C	-0.3544999304	-2.6131455911	 0.953688935	-0.310506
C	-1.4423373573	-3.4998578224	 1.6352852978	 0.06275
C	-1.1795200642	-4.0197994062	 3.0397217735	-0.406135
C	-2.4656779294	-2.3370027417	 1.4501831131	-0.316109
H	 0.8612608498	 2.1294683418	-1.1503074227	 0.107268
H	-0.3764618984	 1.2782071157	-2.0899530635	 0.116887
H	-0.8529908028	 2.3783912565	-0.7923996181	 0.111999
H	 0.6982348224	-0.2525253288	-0.3905635526	 0.094011
H	 0.2254597008	 0.8389194347	 0.8976972395	 0.092844
H	-2.2276098913	 0.3781057521	 0.3511471875	 0.072647
H	-2.8027387912	-1.4058472057	-1.3085199028	 0.103558
H	-1.0363175322	-1.6175986095	-1.7115095311	 0.103139
H	 0.2712773573	-3.0882496433	 0.1928489085	 0.09305
H	 0.2999776852	-2.133699924	 1.6914717621	 0.09309
H	-1.7064511493	-4.3319222394	 0.9740215145	 0.071189
H	-0.9123987738	-3.2011513881	 3.7182805652	 0.109818
H	-2.0639966899	-4.5182669479	 3.4526049042	 0.11207
H	-0.3554879641	-4.7423920185	 3.0504663923	 0.111959
H	-2.5921593222	-1.754207031	 2.3705485317	 0.091682
H	-3.4562586159	-2.598319701	 1.0663308464	 0.093078
