19
gdb 107334	2.60217	1.56536	1.18489	2.8425	75.89	-0.2385	0.0019	0.2403	1079.2038	0.15958	-423.009511	-423.001006	-423.000061	-423.04243	33.036	
O	-0.0478198822	 1.3240438125	 0.5253340187	-0.434266
C	-0.0134079364	 0.0129782629	-0.0233805754	-0.144565
C	-1.3881823469	-0.5991339344	-0.0695524302	 0.322698
C	-1.9813358092	-1.1712876326	 1.195802584	-0.302696
C	-1.7133299467	-2.076007618	 0.0061422988	-0.161891
C	-2.9070724726	-2.2650168665	-0.8747969077	-0.069239
C	-3.3107227333	-1.1128894346	-1.412555435	-0.127091
C	-2.3735085057	 0.0265581476	-1.0551347628	-0.004256
O	-2.9881227195	 1.1640669691	-0.4326220369	-0.435926
H	-0.9158950314	 1.6953950176	 0.3233611289	 0.292494
H	 0.419691253	 0.0315324893	-1.0383724423	 0.079359
H	 0.6580547654	-0.5857098931	 0.6039434277	 0.09281
H	-1.3056303801	-1.2380008963	 2.0425018232	 0.117118
H	-3.0132696999	-0.9527882515	 1.4443995273	 0.123859
H	-0.9443679648	-2.8373939142	 0.0723869609	 0.092351
H	-3.3967331597	-3.2248595935	-0.9977543788	 0.103511
H	-4.1887761079	-0.9711057575	-2.0329809811	 0.093414
H	-1.8295086142	 0.3692698792	-1.9520688067	 0.075524
H	-3.507755318	 1.6300466142	-1.0959745925	 0.286792
