17
gdb 11287	3.96353	1.46098	1.22531	4.3278	68.5	-0.2786	0.0171	0.2957	1013.6532	0.143022	-363.889624	-363.881741	-363.880797	-363.922771	28.527	
C	-0.1290593684	 1.4597355551	 0.0413480499	-0.405872
C	 0.112736335	-0.0374328689	 0.0357426921	 0.137968
C	 0.7362409313	-0.6182023581	-1.2387860434	-0.215036
C	 1.4113238911	-1.9092508446	-0.7374457671	-0.268198
C	 1.6058947689	-1.6345011309	 0.7889237893	-0.017572
O	 1.0791642096	-0.3464308062	 1.0522017064	-0.252991
C	 0.9335546576	-2.6569982521	 1.6180280305	 0.26951
N	 0.4073935406	-3.4597944921	 2.2617557136	-0.325516
H	 0.8007647492	 1.9981484529	-0.165700143	 0.125031
H	-0.8662488524	 1.7266347573	-0.7218235078	 0.121898
H	-0.5081308787	 1.7851486153	 1.0135787296	 0.134828
H	-0.8265117506	-0.5681416429	 0.2620441201	 0.084374
H	-0.0008586705	-0.8072006127	-2.0225536588	 0.112842
H	 1.4797880525	 0.0833326806	-1.6306935774	 0.110429
H	 0.7732614625	-2.7816804666	-0.8905926347	 0.13482
H	 2.3670533418	-2.1064420798	-1.2254673846	 0.123831
H	 2.6628845005	-1.6207153364	 1.0731464252	 0.129652
