14
gdb 20284	5.48185	2.14181	2.03469	1.9829	58.65	-0.2395	0.0617	0.3012	674.6645	0.108636	-382.437912	-382.432834	-382.43189	-382.466818	21.484	
O	-0.0212279038	 1.4326330415	-0.0272294847	-0.254848
C	 1.2764540492	 0.8098493241	 0.0317189589	 0.011813
C	 0.0562677343	-0.0042920726	 0.0400930762	 0.011813
C	 0.1026067905	-0.6751657028	-1.32135717	-0.082979
C	 0.6841751989	 0.3516863565	-2.3358983923	 0.072165
O	 1.389971638	-0.7136684729	-3.069634586	-0.318369
C	 1.6019790358	-1.0168803308	-1.6578337529	 0.051249
C	 1.8651838163	 0.5008865343	-1.3334531221	-0.08298
H	 1.8779630331	 1.0338149637	 0.9059625271	 0.106492
H	-0.373113949	-0.4681826315	 0.9214069044	 0.106491
H	-0.6782019124	-1.3568834286	-1.6516219098	 0.087295
H	 0.1688391068	 1.1181130154	-2.9109082039	 0.107299
H	 2.1927565323	-1.8997254115	-1.4087031211	 0.097264
H	 2.7912218	 0.9580323652	-1.6754281238	 0.087295
