15
gdb 19458	5.22609	1.56554	1.54765	3.2732	65.25	-0.2614	0.0244	0.2858	841.6941	0.12121	-362.651124	-362.644923	-362.643979	-362.681406	24.263	
N	-0.0797503949	-1.1605406344	-0.0858532578	-0.333482
C	-0.0496424386	-0.0050669272	-0.0376358745	 0.266763
C	-0.0132783783	 1.4419401886	 0.0080154227	-0.161036
C	-0.0280083728	 2.0794633623	 1.4518956458	-0.068032
C	 1.4899236842	 1.7250134585	 1.5298179304	-0.257326
C	 1.4117299774	 2.1084327471	 0.0350158787	 0.112797
O	 1.0903475491	 3.497430221	 0.0459467915	-0.274005
C	 0.0590925733	 3.5584960964	 1.0641101218	-0.094722
H	-0.7057499149	 1.8643249657	-0.7243593098	 0.124164
H	-0.7540129914	 1.7807460134	 2.2050777789	 0.098914
H	 2.1288698561	 2.3429456828	 2.1633940938	 0.111901
H	 1.669935207	 0.6637351685	 1.6997451732	 0.140025
H	 2.1790361452	 1.8988679293	-0.7066213162	 0.10571
H	-0.8637206388	 3.9619959537	 0.633699291	 0.113041
H	 0.3820397474	 4.2001295943	 1.8911255805	 0.115288
