22
gdb 116210	2.35348	1.41035	1.01633	1.0864	82.19	-0.2422	0.0748	0.317	1262.3458	0.195075	-404.33261	-404.323542	-404.322598	-404.36725	34.315	
C	-0.2399604835	 1.579541581	 0.0855952314	-0.383457
C	-0.1412493908	 0.0540360147	-0.0001212447	-0.177653
C	 0.7366443276	-0.5443983652	 1.0997587569	 0.069126
O	 0.2110927374	-0.1460203185	 2.3690740554	-0.274909
C	 0.2283892688	-1.2548269498	 3.2642762109	-0.078965
C	-0.0107987007	-2.4757543544	 2.3754103873	-0.280415
C	 0.7888502843	-2.0824985478	 1.1441869418	 0.300796
C	 0.9636947493	-2.9347769449	-0.0507122359	-0.303752
N	 2.0591294858	-2.7996559624	 0.9321221505	-0.356861
H	 0.7463878075	 2.0453691118	-0.0210050749	 0.110338
H	-0.8839906353	 1.976601609	-0.7047669547	 0.108021
H	-0.6502398994	 1.8832295788	 1.0515284583	 0.138245
H	-1.1400869039	-0.3933479466	 0.0705410418	 0.097924
H	 0.2698018572	-0.2379004842	-0.9742776228	 0.089769
H	 1.7623027492	-0.1475521538	 0.9955927345	 0.063372
H	 1.2021573728	-1.3315001672	 3.7732529928	 0.096505
H	-0.5441970863	-1.0843948948	 4.0187267457	 0.106819
H	 0.3446615514	-3.4144515439	 2.8036659131	 0.115365
H	-1.076094962	-2.5683093719	 2.1364345122	 0.105223
H	 0.5012310235	-3.9179850157	-0.0889941975	 0.117426
H	 1.0724174685	-2.4559366548	-1.0204696283	 0.112039
H	 2.7610163887	-2.1577662194	 0.5679970763	 0.225042
