19
gdb 36646	5.67342	0.75725	0.74286	4.301	81.4	-0.2404	0.0239	0.2643	1539.9617	0.160972	-382.014645	-382.006471	-382.005526	-382.048429	30.793	
N	-0.1716722032	-1.1210607582	-0.1993080289	-0.298028
C	-0.0652921373	 0.0103259887	 0.00686813	 0.254261
C	 0.0834689397	 1.4398337103	 0.2969018829	-0.269204
N	 1.2724553557	 1.9852500743	-0.3464432367	-0.329419
C	 1.4215896296	 3.4084002169	-0.1635765802	 0.113537
C	 1.9071679886	 4.0887342722	 1.1796015814	-0.07407
C	 3.3319452164	 3.5476389926	 0.8646608892	-0.231986
C	 2.7827566848	 4.0758293346	-0.4977209631	-0.079521
C	 2.2674082655	 5.3135784256	 0.2936800157	-0.210995
H	-0.7979575717	 1.9631948511	-0.0947381229	 0.15678
H	 0.0575209086	 1.5662022195	 1.393806427	 0.135735
H	 2.0949259899	 1.4722296554	-0.0523079053	 0.23293
H	 0.5500309273	 3.899752686	-0.6125542203	 0.073935
H	 1.4052363809	 4.1060678424	 2.1483317885	 0.071011
H	 4.1654625798	 4.10817698	 1.295533726	 0.098739
H	 3.5088317436	 2.4741683205	 0.9694681911	 0.085709
H	 3.2892249939	 4.0713193195	-1.463709554	 0.079481
H	 1.4367705643	 5.8710256394	-0.1483283995	 0.093095
H	 3.0351720738	 5.9821229291	 0.6886905792	 0.09801
