20
gdb 108633	2.23055	1.31684	0.88295	3.8227	83.7	-0.2018	0.0062	0.208	1353.0417	0.170062	-403.215882	-403.206208	-403.205264	-403.250643	35.405	
C	 0.216224917	 1.6236747701	-0.1659442502	-0.370642
C	-0.0416685001	 0.1175119572	 0.0243009834	-0.304403
C	 0.5951130774	-0.4460751741	 1.2550877008	 0.281137
C	 0.0579106207	-0.9335373895	 2.3868813765	 0.166852
C	-1.3824945979	-1.0688439242	 2.758447229	-0.496729
C	 1.1834741983	-1.3536257188	 3.3039469431	-0.439049
C	 2.4591124379	-1.0383887473	 2.5086370468	 0.409089
O	 3.6144064491	-1.2168623368	 2.8205763991	-0.374223
N	 2.0079403179	-0.4945461146	 1.3238428386	-0.369104
H	 1.2860791218	 1.8454344181	-0.2318779555	 0.118471
H	-0.2558349302	 1.9824386134	-1.0852040222	 0.120111
H	-0.1885398912	 2.1957853658	 0.6739640211	 0.127771
H	-1.1183401721	-0.0673417662	 0.0646137223	 0.117672
H	 0.3311916865	-0.4266288431	-0.854779418	 0.110679
H	-1.6430561209	-2.1118254287	 2.9822260307	 0.124516
H	-1.6221779956	-0.4893253324	 3.6600081556	 0.12444
H	-2.048491939	-0.7262387911	 1.9620933175	 0.122192
H	 1.2000964368	-0.8058688452	 4.2544954091	 0.138815
H	 1.1652546328	-2.4195605301	 3.5623460871	 0.138546
H	 2.6350626808	-0.2227540424	 0.5847689053	 0.253859
