15
gdb 14089	3.54706	1.75618	1.43911	2.6924	63.5	-0.242	-0.0289	0.2131	878.0164	0.118251	-399.768051	-399.760734	-399.75979	-399.799711	27.483	
O	 0.0201867839	 1.2855676496	-0.025300941	-0.424727
C	 0.0755366666	-0.0891635346	 0.1070747694	 0.102391
C	-0.4691495525	-0.7425540552	 1.344411729	-0.38513
C	-1.2844641949	-0.7848743467	 0.0782696484	 0.173188
N	-2.4511475239	 0.0546158163	-0.2592048584	-0.389711
C	-2.9381130582	-0.9803666508	-1.2356367148	-0.282824
C	-1.725429344	-1.8642796515	-0.8566491587	 0.315601
O	-1.3196193454	-2.9417513023	-1.1805963389	-0.304549
H	-0.8842390565	 1.4832669549	-0.329920721	 0.292931
H	 0.902743746	-0.5654304709	-0.4129743358	 0.118011
H	-0.0371183597	-1.6835137253	 1.6702360598	 0.13964
H	-0.8250795164	-0.0887930545	 2.1345827079	 0.129122
H	-3.091099209	 0.1518302488	 0.5230923896	 0.235445
H	-3.9086209205	-1.4248625078	-0.9940513454	 0.136124
H	-2.9510256553	-0.62418219	-2.2696203001	 0.144488
