22
gdb 106555	2.13784	1.5715	1.10573	0.7098	83.05	-0.2099	0.0769	0.2868	1205.344	0.192826	-404.273452	-404.263919	-404.262975	-404.307346	36.643	
C	 0.2490814292	 1.5834847719	 0.4350681462	-0.388059
C	 0.018540069	 0.0829206141	 0.6491164891	-0.320417
C	-1.316592168	-0.4262675798	 0.1726997973	 0.333903
C	-2.0574714958	-0.1773537392	-1.1856973741	-0.299325
C	-2.9920493789	-1.0431385937	-0.3019323782	-0.080067
C	-1.7512625158	-1.912302068	 0.0709728761	 0.111489
O	-1.0840095382	-2.6678990807	-0.9022041486	-0.439189
N	-2.6331046682	-0.2524367526	 0.9375716326	-0.139872
C	-3.2103688739	 1.0784503503	 1.0878982629	-0.329469
H	 1.2509916059	 1.872618974	 0.7666180988	 0.113323
H	 0.1587856267	 1.8483642195	-0.6234454154	 0.120325
H	-0.4719272494	 2.1888695496	 0.9922624542	 0.121501
H	 0.7921804636	-0.4863153911	 0.1182276947	 0.116056
H	 0.1209927668	-0.1705822008	 1.7118602465	 0.106396
H	-2.3790763693	 0.8411703507	-1.4011466651	 0.094946
H	-1.6302968394	-0.6542971213	-2.0685454653	 0.110758
H	-4.0187532526	-1.3622759377	-0.4937669866	 0.069738
H	-1.8375595689	-2.4215914226	 1.0365594998	 0.074364
H	-1.506095134	-3.530405337	-0.955537698	 0.288612
H	-4.2671472912	 0.9647963255	 1.3539164679	 0.116636
H	-2.7171274092	 1.5825712237	 1.9252400953	 0.120758
H	-3.1551657683	 1.7442795652	 0.2131085701	 0.097594
