16
gdb 31870	4.91343	1.01771	0.84807	1.2696	77.22	-0.2146	-0.0322	0.1824	1301.6419	0.125863	-434.113902	-434.105562	-434.104618	-434.14742	30.801	
N	-0.0058000652	 1.3817699214	 0.1336580747	-0.567872
C	 0.0061759763	 0.004077499	 0.0493719926	 0.360829
N	-1.1709783445	-0.6232649376	 0.0458254432	-0.317426
C	-1.1441301036	-1.9596724571	 0.0244240436	-0.05483
C	 0.0437447852	-2.6821820657	-0.0044638692	 0.268418
C	 0.0935129838	-4.1889611973	-0.0323340777	-0.154863
O	-1.2271521859	-4.7009065317	-0.0436584023	-0.417447
N	 1.226241536	-2.048366567	-0.0111503219	-0.288396
C	 1.2118466499	-0.7271258352	 0.0184754881	-0.075614
H	 0.792108027	 1.8692871216	-0.2423869004	 0.253296
H	-0.8954010847	 1.797398117	-0.1003010568	 0.256873
H	-2.0989422124	-2.4726957653	 0.0239398503	 0.130684
H	 0.6615964949	-4.5076310922	-0.9208821704	 0.107014
H	 0.658362878	-4.540264738	 0.8460293152	 0.107654
H	-1.1767733653	-5.660209069	-0.0469983019	 0.293395
H	 2.1723253906	-0.2147530628	 0.0182477229	 0.098285
