19
gdb 31961	4.52294	0.91411	0.79944	1.8937	81.08	-0.1918	0.0344	0.2261	1486.2953	0.159749	-419.250734	-419.241312	-419.240368	-419.285532	33.533	
C	-0.2837126284	 1.497999989	-0.1868716883	-0.370665
C	 0.076553532	 0.011057992	-0.0201133249	-0.299024
C	 0.9001761912	-0.5332362616	-1.1296639721	 0.327276
C	 2.1409354041	-1.0496462908	-1.256694027	-0.205651
N	 2.3906019597	-1.4131842008	-2.5819414073	-0.355419
C	 1.292449355	-1.085935046	-3.1919125707	 0.487241
N	 1.0105499974	-1.1664977316	-4.5254545272	-0.386948
C	 1.8798066094	-1.9716420642	-5.3686787738	-0.318609
O	 0.3303299353	-0.5516675205	-2.4019774194	-0.241572
H	 0.6188011189	 2.1151911521	-0.2259216928	 0.122808
H	-0.8417527788	 1.660126746	-1.1133347196	 0.128572
H	-0.9014028592	 1.8431262197	 0.6478344182	 0.111936
H	 0.638261487	-0.1376244084	 0.9082104753	 0.116574
H	-0.8476150085	-0.5745579908	 0.0794976691	 0.112281
H	 2.8809835859	-1.1975621955	-0.4854130806	 0.112413
H	 0.0246676388	-1.1962285728	-4.7359466506	 0.250385
H	 1.597946062	-1.8179235194	-6.4125607263	 0.123627
H	 2.9114579962	-1.6435875084	-5.2285915434	 0.160969
H	 1.8332212119	-3.044325698	-5.1357041485	 0.123807
