11
gdb 132335	2.08638	1.86495	0.98473	3.0634	56.96	-0.2603	-0.056	0.2043	1041.2752	0.065709	-533.864147	-533.857368	-533.856423	-533.895695	25.219	
O	-0.0683184191	 1.2773787861	 0.010120891	-0.36135
C	 0.0562438683	-0.0388878801	 0.0021769106	 0.53563
N	 1.2296827882	-0.5963703339	-0.0072302439	-0.452345
C	 1.202639992	-1.9461663525	-0.0144424631	 0.363509
F	 2.3960352101	-2.5032256701	-0.02356906	-0.042122
C	 0.0908622172	-2.7272567832	-0.0127731817	-0.432264
C	-1.1949098327	-2.1036933286	-0.003041985	 0.451389
O	-2.2955998236	-2.5566296238	 0.0013280682	-0.311955
O	-1.1097485515	-0.6378207891	 0.004974582	-0.225089
H	 0.8275516199	 1.6453546727	 0.0073651547	 0.329491
H	 0.1424005413	-3.8054453676	-0.0185521628	 0.145106
