20
gdb 95394	2.23254	1.64193	1.1202	2.7652	81.95	-0.2123	-0.0462	0.1661	1157.8409	0.171587	-403.182104	-403.17304	-403.172095	-403.215752	34.105	
C	-0.219360057	 1.4985630984	 0.0538282272	-0.387569
C	 0.0461136797	-0.0128454171	-0.0274065024	-0.08813
N	 0.7526360849	-0.3691828841	-1.2647385237	-0.298826
C	 2.161292182	 0.0227227161	-1.2597569651	-0.235239
C	 2.8847309228	-0.2410257023	 0.0331617268	-0.136216
C	 2.2604616649	-0.5159800994	 1.1896621614	 0.20524
C	 2.971468962	-0.8276080225	 2.4769961954	-0.475771
C	 0.7734351453	-0.4766927078	 1.2412313732	 0.314636
O	 0.1623493922	-0.7474346582	 2.2578745223	-0.333208
H	 0.7116560943	 2.0701043317	 0.1273344304	 0.118209
H	-0.7556147331	 1.8275341737	-0.84007894	 0.12667
H	-0.8210356525	 1.7235781036	 0.9379730561	 0.13587
H	-0.9198078216	-0.5273677275	-0.037579948	 0.099071
H	 0.7065542271	-1.3772785128	-1.3760018932	 0.221809
H	 2.6669571481	-0.4984321498	-2.0810571023	 0.117522
H	 2.2449207844	 1.093250036	-1.5050575919	 0.127719
H	 3.973167856	-0.1892597322	 0.0053064043	 0.095519
H	 4.0563054549	-0.807539705	 2.345616833	 0.112757
H	 2.694362268	-0.1137171897	 3.2594253877	 0.139214
H	 2.6797889677	-1.8147411913	 2.8501754188	 0.140724
