19
gdb 99378	3.9527	0.6915	0.61293	1.8283	74.69	-0.2462	0.0262	0.2724	1793.8195	0.158393	-456.405156	-456.394487	-456.393543	-456.443139	35.693	
C	 0.2828587464	 1.3438521384	-0.1626908308	-0.333767
N	 0.571693455	-0.0581499809	 0.0677428467	-0.311751
C	 0.1496543315	-0.724504688	 1.1787090771	 0.422207
O	-0.4978860467	-0.1978638249	 2.0695513128	-0.385262
C	 0.5297763914	-2.2014674853	 1.2292878549	-0.312785
C	 0.9657840377	-2.5956921094	 2.6478911937	-0.153695
N	 1.154157222	-4.0304376335	 2.8084463635	-0.269509
C	 2.2206506567	-4.683505809	 2.2840446552	 0.148544
O	 3.0951038625	-4.1585906878	 1.6238872617	-0.32921
H	 1.2020155809	 1.9382093469	-0.2129676095	 0.127605
H	-0.2781633819	 1.4873383531	-1.0927779797	 0.1257
H	-0.3203594207	 1.6916680807	 0.6765429624	 0.17169
H	 1.128486837	-0.5564283554	-0.6061797531	 0.249434
H	-0.3591601526	-2.7808281913	 0.9510836233	 0.124136
H	 1.323184349	-2.4521023873	 0.5203772869	 0.126873
H	 1.9084760101	-2.0949981791	 2.8897821382	 0.136484
H	 0.2124007904	-2.2558620864	 3.3596918355	 0.136576
H	 0.4752628093	-4.5599740791	 3.3302939742	 0.251762
H	 2.211423432	-5.7648061817	 2.527993587	 0.074969
