20
gdb 92119	2.60522	1.64657	1.21714	0.5806	78.49	-0.2201	0.0571	0.2772	1082.9006	0.171134	-403.078105	-403.069969	-403.069025	-403.111086	31.605	
C	-0.3583895797	 1.5449135435	 0.1239581261	-0.413448
C	-0.014203243	 0.0636298767	 0.0478560961	 0.02503
C	 1.151177045	-0.3964973743	-0.8723751903	-0.194974
N	 1.7692445961	-1.2111574688	 0.2275075547	-0.126051
C	 2.8769463099	-0.477927487	 0.9223489881	-0.272183
C	 1.8783781608	 0.1007469956	 1.9299840272	 0.430739
C	 2.0369857964	 0.4195949958	 3.3489585997	-0.262982
O	 1.8459973167	 1.4483256598	 2.36587077	-0.261971
C	 0.7488615054	-0.6350774917	 1.2043884969	-0.107936
H	 0.5201541984	 2.156263399	 0.3417206753	 0.138606
H	-0.786417917	 1.8825936876	-0.8266444844	 0.110953
H	-1.0973142636	 1.7400916114	 0.9083649244	 0.116492
H	-0.9212384266	-0.508354124	-0.1714745104	 0.080043
H	 0.8678243246	-1.0059421613	-1.7354480267	 0.104404
H	 1.7961408645	 0.4187198587	-1.223829856	 0.097806
H	 3.6222892245	-1.1581489846	 1.3472035535	 0.110549
H	 3.3889980751	 0.2647478171	 0.3004390034	 0.113466
H	 1.2039818217	 0.2713913429	 4.0352651622	 0.11775
H	 3.0269842527	 0.3877587042	 3.8026258539	 0.117675
H	 0.1778163581	-1.3401789007	 1.8164575564	 0.076032
