19
gdb 73415	2.59491	2.2908	1.58954	1.6769	76.6	-0.2342	0.09	0.3242	896.0739	0.161358	-385.84794	-385.841217	-385.840273	-385.878529	28.48	
C	 0.002143724	 1.4564868348	 0.0046788414	-0.494061
C	-0.0127621219	-0.0576428815	-0.0309833634	 0.30387
C	 0.3713129809	-0.7070739481	-1.3680380209	-0.118582
O	-0.2074858748	-2.0220445743	-1.3461833884	-0.281272
C	-0.8325642697	-2.1758722961	-0.0873836964	 0.122053
C	 0.0913984987	-2.1918862868	 1.137196047	-0.111171
C	-0.6876945856	-1.08810845	 1.8208649216	-0.114327
C	 0.6372157663	-0.7604159008	 1.1810551895	-0.109293
C	-1.3211357185	-0.7934276713	 0.4182572705	-0.142837
H	 1.0094629135	 1.8481813113	-0.1802705694	 0.11586
H	-0.6638585446	 1.8775102201	-0.756837894	 0.115321
H	-0.320864335	 1.8266513405	 0.9832218056	 0.121529
H	-0.0324333487	-0.1575447634	-2.2301364426	 0.091359
H	 1.4607915965	-0.7787519648	-1.4884185718	 0.096153
H	-1.5589419269	-2.987304935	-0.1428356604	 0.077892
H	 0.6248690336	-3.0227098656	 1.5799376015	 0.08643
H	-1.0479269628	-0.9949612368	 2.8332968049	 0.093121
H	 1.5819596655	-0.5266562721	 1.6564910915	 0.081711
H	-2.3102980004	-0.4000328202	 0.1942864836	 0.066242
