18
gdb 67329	3.34245	1.32876	1.12844	3.5309	77.44	-0.2325	-0.0259	0.2067	1109.0391	0.14661	-401.861361	-401.85341	-401.852465	-401.893977	30.329	
C	-0.0924400814	 1.4711026147	 0.0388719801	-0.518347
C	-0.0552252839	-0.0254472211	-0.0490967767	 0.34799
C	 0.8454330557	-0.9435088216	-0.9408712007	-0.105311
C	 1.9388514873	-0.8807484092	 0.1204705237	-0.198349
N	 0.6979004232	-0.9034255771	 1.0062882562	-0.188481
C	 0.0245228215	-1.8686912125	-0.0036117227	-0.024391
C	-1.2526927795	-1.0125040102	-0.0828696927	-0.163197
C	-2.1796673949	-1.0243730934	 1.0989048424	 0.140577
O	-3.3836252371	-1.0231053674	 1.0063278845	-0.26133
H	 0.9181668587	 1.8902904188	 0.0737373289	 0.130823
H	-0.6055057599	 1.8916424722	-0.832093874	 0.133626
H	-0.6262548756	 1.7929022886	 0.938353153	 0.140399
H	 0.9001601608	-0.9709027508	-2.0343449214	 0.071616
H	 2.5774476303	-1.760232833	 0.2511402332	 0.106573
H	 2.5310673936	 0.0348667802	 0.2120292485	 0.105932
H	 0.1185999113	-2.9482956505	 0.1215861619	 0.093425
H	-1.8123049353	-1.0548492223	-1.021172768	 0.087638
H	-1.674110245	-1.0318735856	 2.0871800138	 0.100806
