21
gdb 70184	3.27155	1.2438	1.06128	2.893	81.97	-0.235	-0.0119	0.2231	1204.1091	0.18311	-387.121474	-387.112933	-387.111989	-387.155072	33.56	
C	-0.2037840169	 1.5640139385	 0.0899188688	-0.463375
C	-0.0359018888	 0.0590262382	 0.0418577665	 0.346416
C	-0.8428611317	-0.7770295589	 1.0122785584	-0.340152
C	 0.6521996009	-0.6302348443	 1.1967312054	-0.059008
C	 1.6046846109	-1.7806554188	 0.9332688279	-0.327762
C	 1.3624512432	-2.5955708322	-0.3375946817	 0.386703
O	 1.8960060819	-3.6692654075	-0.4933226741	-0.315226
C	 0.4356849249	-2.0120883162	-1.4004173171	-0.327864
C	 0.2607117319	-0.4893550812	-1.3484864835	-0.273727
H	 0.689961167	 2.0749654994	-0.2880758721	 0.114413
H	-1.0535378321	 1.8877470863	-0.5230406586	 0.115708
H	-0.3795864702	 1.9123554597	 1.1124598447	 0.113554
H	-1.4904428454	-0.2534413523	 1.7076905019	 0.109013
H	-1.2364243807	-1.7371985227	 0.6963437796	 0.109492
H	 0.960494614	 0.0072347269	 2.0214037852	 0.083448
H	 2.62825276	-1.3892344909	 0.8369641294	 0.131951
H	 1.6389427689	-2.4863275192	 1.7709292822	 0.131008
H	 0.8023166862	-2.3431662845	-2.3761858223	 0.126215
H	-0.5347909227	-2.5085608798	-1.2663472838	 0.134496
H	-0.5353905321	-0.1939278444	-2.0435641791	 0.102424
H	 1.1763175907	-0.006562236	-1.718227518	 0.102273
