22
gdb 77568	2.28092	1.44087	1.28316	0.7997	82.32	-0.2224	0.078	0.3004	1161.8667	0.191845	-404.316896	-404.306989	-404.306045	-404.350557	38.435	
C	-0.4507335437	 1.5208311702	 0.377255619	-0.424407
C	-0.1300537857	 0.0376464046	 0.2592872804	-0.078407
C	 0.2536420414	-0.5173823824	-1.128136561	 0.344838
C	-0.6789232738	-1.0289407877	-2.1816401559	-0.513811
N	 1.5392819393	 0.144797939	-1.4726541845	-0.38442
C	 1.533946764	-1.0577041592	-0.6003377278	-0.146679
C	 1.2375016637	-0.5592967878	 0.818073165	 0.415388
C	 2.2395823711	 0.386997295	 1.4573602445	-0.459615
O	 1.013511245	-1.7068813823	 1.6262176411	-0.488195
H	 0.3062937395	 2.1245072087	-0.1295133116	 0.136207
H	-1.4223436487	 1.7463520169	-0.0770613485	 0.10887
H	-0.5007607547	 1.8386671355	 1.4246977691	 0.105978
H	-0.9291947061	-0.5752238629	 0.6887284232	 0.07019
H	-1.22869245	-0.210368203	-2.66159657	 0.125925
H	-0.1323043193	-1.5672886822	-2.9643233372	 0.115624
H	-1.41403754	-1.7178876735	-1.7521349711	 0.12778
H	 1.7983188201	-0.1696584363	-2.4076834574	 0.223122
H	 2.0835737871	-1.9546964727	-0.8618001906	 0.089223
H	 2.4941476604	 1.1979815007	 0.7722786551	 0.142307
H	 1.833684552	 0.8285252086	 2.3764316021	 0.100215
H	 3.1526784202	-0.1579114152	 1.7174579601	 0.116882
H	 0.7433965681	-1.4020832542	 2.4992342561	 0.272986
