25
gdb 102564	1.96382	1.1674	0.86395	1.4483	89.34	-0.2532	0.08	0.3332	1497.69	0.22711	-389.481155	-389.470079	-389.469135	-389.517585	40.891	
C	 0.3208895988	 2.0964033392	 0.2619198272	-0.390504
C	 0.2071738576	 0.5695565048	 0.3302790147	-0.170326
C	 0.5438769257	-0.1691699414	-0.982399633	 0.021212
C	 2.0183949972	 0.0334624326	-1.3884024062	-0.18187
C	 2.4296806875	-0.6413324146	-2.7012888683	-0.378057
C	 0.2035759288	-1.6472236148	-0.8531135052	-0.003416
C	-1.2416934324	-2.1098816528	-0.7938669304	-0.347079
C	-0.3843720911	-2.435917871	-1.9896087845	 0.08838
O	-0.6042124512	-1.7564704545	-3.1943581536	-0.4162
H	 1.3494526519	 2.4286463712	 0.0933708299	 0.118004
H	-0.295272009	 2.5016662156	-0.5490665309	 0.111258
H	-0.0198784662	 2.5537705444	 1.1964600738	 0.108065
H	 0.8553939568	 0.1889762859	 1.1323421258	 0.086682
H	-0.8161644685	 0.3045692366	 0.621287899	 0.091592
H	-0.0864785896	 0.2453891685	-1.7798002043	 0.078505
H	 2.2147581395	 1.1083812529	-1.4700448132	 0.092419
H	 2.6610197197	-0.3280284916	-0.5722380077	 0.083863
H	 3.4561260043	-0.3705238506	-2.9696289283	 0.099282
H	 2.3819310946	-1.7315839724	-2.6287589657	 0.114626
H	 1.7709354195	-0.3446067597	-3.5225399919	 0.126725
H	 0.8947311667	-2.2042285806	-0.2226556144	 0.080104
H	-1.5233764417	-2.9017272446	-0.1080275554	 0.106642
H	-2.0011190369	-1.3485462684	-0.9454641834	 0.111003
H	-0.0509976888	-3.4669068767	-2.1107282947	 0.081827
H	-1.4383543731	-2.066855168	-3.5611409494	 0.287264
