21
gdb 34391	2.20101	1.6794	1.25234	0.733	87.84	-0.2469	0.0508	0.2977	1112.6178	0.183818	-349.930106	-349.921777	-349.920832	-349.962885	33.319	
C	 0.0125418111	-1.1766119988	 0.0205166556	-0.443749
C	-0.0186926688	 0.0268780624	 0.0278366495	 0.249673
C	-0.0409680925	 1.4754659145	 0.0281576906	 0.158201
C	-0.3587502972	 2.1812770811	-1.3307787558	-0.285819
C	 0.8427394767	 3.1371163934	-1.1020711843	-0.243927
C	 1.3495956872	 2.2267736342	 0.0562348837	-0.01374
C	 1.5323390809	 2.8271481237	 1.4674300794	-0.231483
C	 0.3601173735	 2.2521508702	 2.2959691095	-0.19535
C	-0.7670713119	 2.0577821253	 1.2696573633	-0.269328
H	 0.0373746422	-2.2379316918	 0.0134169975	 0.186035
H	-0.2024502541	 1.5091631198	-2.1767157941	 0.111118
H	-1.3533478153	 2.6262344671	-1.4168435108	 0.09981
H	 1.5206609266	 3.2668771832	-1.9482603656	 0.102202
H	 0.5443077135	 4.1292794966	-0.7513490198	 0.098893
H	 2.1822701598	 1.5919230653	-0.2497890826	 0.077442
H	 2.5034030344	 2.581760687	 1.9063169221	 0.098581
H	 1.4697102514	 3.9207284761	 1.4250275207	 0.096384
H	 0.6417131993	 1.2779941631	 2.711826334	 0.110944
H	 0.0709056215	 2.8936224181	 3.1334969994	 0.093223
H	-1.20665855	 3.0283914591	 1.0098634921	 0.094881
H	-1.5742643883	 1.4117528104	 1.6220906655	 0.106008
