19
gdb 59151	3.12603	1.3007	1.17438	1.1843	73.95	-0.2324	0.0546	0.2871	1119.5413	0.157642	-422.932864	-422.924441	-422.923497	-422.965881	32.875	
C	 0.2642517858	 1.0831107103	-0.5417340222	-0.393247
C	 0.1695342179	-0.1580336457	 0.3460243133	 0.083564
O	 0.2601481859	 0.1980986868	 1.733328809	-0.452841
C	-1.1861109245	-0.8517786411	 0.2322647675	 0.032414
C	-2.0204072556	-1.1960734852	-0.9785987399	-0.144335
C	-1.2305560342	-1.8721414402	-2.1377117031	 0.018821
O	 0.1626290341	-1.9262901084	-1.8005200646	-0.241413
C	-0.7298268301	-2.9064489113	-1.2427050891	 0.017898
C	-1.5075737405	-2.295443134	-0.0344391262	-0.140915
H	 1.213023802	 1.6056837004	-0.3712654162	 0.096908
H	 0.2187209052	 0.8069900487	-1.5980736677	 0.127712
H	-0.551744236	 1.7781899584	-0.3192865937	 0.114182
H	 0.9740401201	-0.8514098208	 0.0890152001	 0.087537
H	 1.1189755191	 0.6101336613	 1.8696357566	 0.276803
H	-1.8363557056	-0.4654619696	 1.0168875932	 0.108673
H	-3.0383907481	-0.8468501469	-1.0971116246	 0.092896
H	-1.4957254568	-1.8870652977	-3.187835961	 0.109332
H	-0.4898030275	-3.9502128264	-1.4037177609	 0.11018
H	-2.0833327115	-2.9081353786	 0.6474412196	 0.095829
