20
gdb 66165	3.63412	0.92892	0.87093	2.2207	75.82	-0.251	0.0239	0.2748	1378.988	0.170229	-440.289297	-440.279661	-440.278717	-440.324794	34.349	
C	-0.5764370243	 1.3927549913	 0.0938432944	-0.463843
C	-0.0633603978	-0.0357393584	-0.0223151948	 0.287547
C	-1.1689303392	-1.0315254194	-0.406761367	-0.223127
N	-1.7951357082	-0.7617766615	-1.6918877262	-0.276223
C	-3.0285798314	-0.1993353626	-1.8123832114	 0.155969
O	-3.7225073148	 0.1678372318	-0.8881113033	-0.323468
C	 1.246393613	-0.2509322797	-0.8256503433	-0.111974
O	 1.8555425368	-0.9593318102	 0.2699734434	-0.272768
C	 0.7816630774	-0.5843940838	 1.1568025592	-0.115666
H	 0.2236986763	 2.0707157284	 0.4068834587	 0.113072
H	-0.9650045293	 1.7491744323	-0.8649307966	 0.125259
H	-1.3922501026	 1.461385731	 0.8203326209	 0.135986
H	-0.7531825465	-2.0456820969	-0.422015533	 0.11525
H	-1.9671143362	-1.00199403	 0.3400348299	 0.145389
H	-1.3185987856	-1.0387308911	-2.5350309491	 0.249238
H	-3.3384372429	-0.1130366763	-2.8728799582	 0.076976
H	 1.187298514	-0.8680044212	-1.7323278436	 0.085062
H	 1.7846373904	 0.6764053468	-1.0659176966	 0.097729
H	 1.0941731922	 0.1802595805	 1.8806226804	 0.097527
H	 0.3760237188	-1.446333321	 1.7011764162	 0.102063
