21
gdb 105445	2.1993	1.43778	1.13417	2.4814	82.92	-0.2438	-0.0219	0.2219	1198.7379	0.181736	-387.116682	-387.107425	-387.106481	-387.151267	34.501	
C	 0.1178695517	 1.6401149812	 0.2368513284	-0.401076
C	 0.0617809366	 0.1197484159	 0.0404778783	-0.23898
C	 0.748785445	-0.4287483277	-1.237008515	 0.217126
C	 2.2781279254	-0.1290143849	-1.2954305	-0.31428
C	 2.8669665441	-1.4002796816	-1.8581357698	-0.065213
C	 1.9819455068	-2.3943917166	-1.8811988384	-0.058231
C	 0.63624307	-1.9753732486	-1.3448789373	-0.311916
C	 0.0776962636	 0.2206895397	-2.4497637734	 0.14201
O	-0.7820821307	-0.2819119587	-3.125563315	-0.258914
H	 1.1479614174	 2.0111466561	 0.2303155821	 0.121961
H	-0.4354930143	 2.1777604801	-0.539279052	 0.124489
H	-0.324429151	 1.913280577	 1.1995545807	 0.12049
H	 0.5376685296	-0.3726619736	 0.8974933513	 0.103766
H	-0.9845067799	-0.2094147502	 0.037414496	 0.112785
H	 2.5063412464	 0.7552156111	-1.9056192904	 0.101645
H	 2.6817345848	 0.0858453845	-0.2958856242	 0.106494
H	 3.9033541446	-1.4709969849	-2.1689500202	 0.093352
H	 2.1842840321	-3.4054853918	-2.2168799666	 0.094752
H	 0.4439432474	-2.4304454125	-0.363591682	 0.09819
H	-0.1973736246	-2.2561737018	-1.9954710302	 0.13238
H	 0.4379370849	 1.2510832773	-2.6745335123	 0.079168
