16
gdb 107320	2.74975	1.58076	1.13907	3.2111	70.31	-0.2325	-0.0572	0.1753	1049.945	0.124834	-437.875267	-437.867276	-437.866332	-437.907848	29.899	
O	 0.4585062147	 0.0474383145	 0.9898478246	-0.428602
C	-0.2319394228	 0.4296724425	-0.1918455707	-0.195387
C	-1.5319291751	-0.3258865128	-0.2344318314	 0.200896
N	-2.2869075141	-0.5889902167	 1.0213592055	-0.367476
C	-1.7402079864	-1.7186503196	 0.2072760227	-0.14182
C	-2.7895850096	-2.2971257282	-0.6910902816	-0.035687
C	-3.2247480434	-1.3897396705	-1.5773005147	-0.196324
C	-2.4715401024	-0.1146058198	-1.4173349196	 0.368077
O	-2.5385907042	 0.883343986	-2.0967871366	-0.338179
H	 1.2092498311	 0.6355951336	 1.1081453725	 0.298829
H	-0.4499041679	 1.5071782689	-0.2062262571	 0.120538
H	 0.3554970694	 0.2012422327	-1.093877492	 0.108846
H	-1.6196125271	-0.4116309423	 1.7761774238	 0.246034
H	-0.9430511253	-2.3216721709	 0.6239043542	 0.115247
H	-3.1661122952	-3.3076298513	-0.5822787762	 0.122818
H	-4.0130973415	-1.5102343861	-2.3085268634	 0.12219
