16
gdb 97243	2.91803	1.48813	1.05547	3.3644	69.8	-0.2492	-0.053	0.1962	1115.586	0.124156	-475.04783	-475.039503	-475.038559	-475.081442	29.834	
C	 0.3370095959	 1.3762748584	-0.2981215601	-0.313317
N	 0.0423842726	-0.0051141692	 0.017525575	-0.259476
C	 0.3140426471	-0.5591141852	 1.1129718249	 0.263401
O	-0.0279220207	-1.8790359349	 1.23403723	-0.234984
C	 0.2474316661	-2.5019987202	 2.4824690473	-0.097867
C	 1.628295116	-2.1131126773	 2.9526354754	-0.091935
O	 1.6732021986	-0.6951302783	 3.1681841801	-0.22158
C	 1.0045302186	 0.1022230937	 2.3029682283	 0.330219
O	 0.9884652835	 1.2896345797	 2.4775845101	-0.311163
H	 1.2297112754	 1.7748326965	 0.1926205897	 0.136615
H	 0.4416877047	 1.4616373613	-1.3835512989	 0.122445
H	-0.5068675213	 2.0087010709	 0.0024962056	 0.140392
H	-0.5022880617	-2.2142670696	 3.2328294706	 0.126967
H	 0.1735069786	-3.578318129	 2.3100903636	 0.136778
H	 1.8779086027	-2.5726210252	 3.9116148511	 0.138322
H	 2.3847116339	-2.3985591716	 2.2119438873	 0.135182
