23
gdb 53527	3.30075	0.76636	0.71326	0.0638	95.34	-0.2397	0.0633	0.303	1744.8248	0.202882	-351.130916	-351.119708	-351.118764	-351.16852	40.043	
C	 0.079914785	 1.45404293	-0.4145881452	-0.496946
C	 0.0289723288	 0.0321753034	-0.1031301258	 0.070439
C	-0.0037847905	-1.1438546989	 0.1546505405	 0.075418
C	-0.0600842531	-2.5729820579	 0.459527037	-0.439989
C	-1.430117298	-3.1969761596	 0.1832352586	 0.36762
C	-2.5447778708	-2.6281885542	 1.0408001219	-0.456237
C	-1.7610409718	-3.5898519811	-1.2378304094	-0.3211
C	-1.5250632471	-4.6621220552	-0.1966698419	-0.043015
C	-0.3449397041	-5.6062327513	-0.2883862034	-0.413155
H	 1.0268519643	 1.7236021937	-0.8957924165	 0.144811
H	-0.7287176859	 1.7424921728	-1.095549445	 0.145274
H	-0.0163538249	 2.0661886286	 0.4892181472	 0.144358
H	 0.7133029725	-3.0901522912	-0.1185076476	 0.120058
H	 0.200315887	-2.7291934652	 1.5163591303	 0.119712
H	-2.6338572447	-1.5462078515	 0.8981646406	 0.127549
H	-3.5075353164	-3.0839186037	 0.7900208645	 0.108463
H	-2.356504083	-2.8102001546	 2.1061802637	 0.109037
H	-2.7685607921	-3.4200342383	-1.6035923588	 0.104093
H	-0.9902250039	-3.4488943985	-1.9898634231	 0.106859
H	-2.4264040919	-5.14679972	 0.1732735179	 0.078823
H	 0.5331621117	-5.1333077125	-0.7372765755	 0.116135
H	-0.0521912183	-5.9856419605	 0.6974287946	 0.115317
H	-0.5968240427	-6.4706349044	-0.9128664646	 0.116476
