19
gdb 55771	4.12149	0.99162	0.92646	3.7347	77.13	-0.2311	0.0545	0.2856	1319.193	0.160076	-419.217612	-419.208765	-419.20782	-419.251771	33.598	
N	-0.2713075635	 1.4208550448	-0.2824764284	-0.568007
C	-0.1703428313	 0.0555479774	-0.5490829297	 0.42672
O	 0.5495454678	-0.3855740182	-1.4220481747	-0.382922
N	-1.0118906152	-0.7160766416	 0.2282297056	-0.449424
C	-1.0552431538	-2.1300114585	 0.190485749	 0.420115
C	-1.1578290541	-2.8780024648	-1.1020040228	-0.271201
C	-2.2474076778	-3.0666384821	-0.0840280974	-0.128095
C	-1.7663073282	-4.017341517	 1.0187440617	-0.219481
C	-0.564802486	-3.0576385835	 1.3131406079	-0.28014
H	 0.4798761222	 1.9413384221	-0.7100004822	 0.259671
H	-0.4679830862	 1.7041155053	 0.6661688244	 0.24175
H	-1.5990666411	-0.2489609852	 0.901148958	 0.234293
H	-1.4097621801	-2.2597819993	-1.9547878647	 0.130079
H	-0.4558970175	-3.6791097432	-1.3219824001	 0.107086
H	-3.2781811995	-2.8117874364	-0.3002699706	 0.086039
H	-2.4554754996	-4.0948880621	 1.8625799138	 0.099366
H	-1.5073042955	-5.0277353391	 0.6869258845	 0.099987
H	 0.4464795637	-3.4615618079	 1.1978979176	 0.101474
H	-0.6455484944	-2.5963619004	 2.301399418	 0.092691
