18
gdb 61974	4.3279	0.79273	0.70832	5.6131	74.17	-0.245	0.0048	0.2497	1563.1536	0.146784	-435.305699	-435.295254	-435.294309	-435.342853	35.845	
C	-0.3668946126	 1.4221267883	-0.0354019634	-0.481275
C	 0.1983865671	 0.0551880238	-0.3794381719	 0.404568
O	 1.3751225559	-0.2234170714	-0.210606565	-0.373051
N	-0.7020445241	-0.8442428824	-0.8741207733	-0.308761
C	-0.398086712	-2.2492933556	-1.0963367671	-0.182857
C	 0.3634031288	-2.5162392115	-2.4351837389	-0.103
N	 1.8065746487	-2.2758376089	-2.417800289	-0.519128
C	 0.1026391627	-3.8989377436	-2.8633168823	 0.282527
N	-0.1257770204	-4.9915417903	-3.1614527927	-0.316147
H	 0.3367812367	 2.1867212448	-0.3691238714	 0.160316
H	-1.3482934789	 1.6127991172	-0.477154851	 0.119502
H	-0.4526332776	 1.5042763816	 1.0526820505	 0.159581
H	-1.6592321832	-0.5527514452	-0.9789520311	 0.254147
H	 0.2133516518	-2.6244509241	-0.2696160874	 0.142191
H	-1.3467216827	-2.792554692	-1.0968686722	 0.12905
H	-0.0837675009	-1.8560445053	-3.1909853211	 0.130425
H	 1.9746162227	-1.4152744779	-1.8989214999	 0.264681
H	 2.258233538	-3.0095908376	-1.8780997629	 0.237229
