14
gdb 42309	3.61923	1.18472	1.00286	3.9818	69.01	-0.2599	-0.0893	0.1707	1140.7619	0.100049	-436.695579	-436.687505	-436.686561	-436.729405	28.138	
O	-0.154700613	-0.0432679099	-0.0653999435	-0.251103
C	-0.1049502786	 1.1547450763	-0.0280401855	 0.288975
C	 1.1861462164	 1.8680871724	 0.1211586731	 0.212212
N	 2.1695176755	 2.4644708501	 0.242874828	-0.295878
C	-1.3197669021	 2.0953853785	-0.0987812735	-0.036195
O	-2.4765519981	 1.3874918734	-0.4621145454	-0.247056
C	-3.3765237045	 1.3093166838	 0.6480819717	-0.120399
C	-2.7767137203	 2.2074219685	 1.6915714321	-0.078613
C	-1.6078337605	 2.6768565157	 1.2716584539	-0.111906
H	-1.0933020259	 2.8690584262	-0.8505317291	 0.124181
H	-4.3718541581	 1.6373556844	 0.3195468439	 0.12338
H	-3.4645900577	 0.2690805495	 0.9942795133	 0.128907
H	-3.2553475745	 2.4188772181	 2.6389122369	 0.12528
H	-0.9292222187	 3.339263013	 1.7909599642	 0.138216
