16
gdb 123605	4.01984	1.6612	1.29344	3.8389	73.03	-0.2427	0.0124	0.2551	944.8986	0.129485	-396.94974	-396.943575	-396.942631	-396.980251	24.739	
C	-0.0180911811	 1.461834136	 0.0997288754	-0.283453
C	 1.3040579289	 0.7463308931	 0.0523133941	-0.04626
C	 2.0074715028	 0.4195086954	 1.3781001266	-0.193685
N	 1.0344722466	-0.4590782597	 2.0079118259	 0.053196
N	 0.9872741616	-1.0668836922	 3.2115645673	-0.276791
C	-0.1566109394	-1.7381183104	 3.1100408272	 0.01565
N	-0.8406331933	-1.5869943186	 1.9344781227	-0.374572
C	-0.0489386546	-0.7662341966	 1.2689682967	 0.407056
C	-0.0030120732	-0.0499249133	-0.0216239312	-0.181604
H	-0.3536129444	 1.892891772	 1.0376937838	 0.132131
H	-0.3045622367	 2.0235651419	-0.7825634327	 0.126357
H	 1.925999071	 0.8623288607	-0.8258065135	 0.107599
H	 2.9569444244	-0.1033087003	 1.2223233631	 0.134751
H	 2.196050055	 1.3028303372	 1.9957035067	 0.138629
H	-0.5132074146	-2.3620970726	 3.9162782083	 0.122563
H	-0.3473829029	-0.5294593325	-0.9280025305	 0.118432
