19
gdb 41619	3.46195	1.51676	1.2875	2.1303	80.73	-0.2339	0.0121	0.246	1024.5157	0.16201	-385.850032	-385.843132	-385.842188	-385.881298	28.165	
C	 0.121811084	 1.6415517276	-0.023944108	-0.252583
C	 1.6718930359	 1.3484889083	-0.0255357873	-0.314474
C	 1.2877458198	-0.0152426464	 0.499833599	 0.304703
C	 1.4672112726	-0.8722638288	 1.5015510173	-0.266723
C	 0.1527476149	-1.5612909293	 1.820619513	 0.099737
O	-0.4053386117	-1.0976499089	 3.0796292017	-0.290087
C	-1.3004586438	-0.1969382842	 2.3946408866	-0.089236
C	-0.9234961233	-0.7620411168	 1.0068254211	-0.114077
C	-0.1297893659	 0.0873507019	 0.0036061146	-0.050056
H	-0.1852668907	 2.1329282675	 0.9014901954	 0.115349
H	-0.2774601194	 2.1915220193	-0.8790918763	 0.102503
H	 2.065313989	 1.3267134788	-1.0472810076	 0.114247
H	 2.3213932213	 1.9719824294	 0.5926526475	 0.114469
H	 2.342741695	-0.9853093713	 2.1301460539	 0.099233
H	 0.1669623147	-2.656763367	 1.789714594	 0.075703
H	-2.340295586	-0.3471627124	 2.7061582943	 0.102137
H	-1.0323783859	 0.8544075922	 2.5609900942	 0.096665
H	-1.717777172	-1.3575513792	 0.5556755048	 0.074507
H	-0.2675249487	-0.2725590006	-1.0228941182	 0.077984
