16
gdb 79663	2.63864	1.57606	1.2238	5.5775	74.96	-0.2419	-0.0014	0.2405	1032.0272	0.125163	-396.835458	-396.827693	-396.826749	-396.867522	29.998	
N	 0.1202590818	 1.5443225301	 0.0545995382	-0.519497
C	-0.0444978816	 0.117047784	-0.0311060761	-0.072531
C	-1.3229122383	-0.6408820437	 0.1388832188	-0.139143
C	-2.5444284603	-0.1130426557	-0.6292575569	-0.046801
C	-2.3363414946	 1.099129797	-1.452480713	-0.253179
N	-1.8484319452	-0.208053304	-1.9575107156	-0.177648
C	-0.5960625844	-0.6533343357	-1.2254523612	 0.183714
C	 0.1800836871	-1.6771294334	-1.8455613181	 0.24494
N	 0.8263847874	-2.5055862984	-2.3320434666	-0.349665
H	 0.0757004169	 1.8371382355	 1.0262147553	 0.242569
H	 1.0334049717	 1.8088883458	-0.3016726336	 0.245371
H	 0.7707571249	-0.4865473043	 0.3815677585	 0.112347
H	-1.403429658	-1.4627971151	 0.8383101888	 0.121187
H	-3.5159356636	-0.5769597084	-0.497351838	 0.112547
H	-3.1989179076	 1.4224920244	-2.0294439295	 0.127231
H	-1.6373644362	 1.8644317519	-1.153075861	 0.168558
