20
gdb 93225	2.68427	1.31124	0.93003	2.8107	76.69	-0.2576	0.0173	0.2749	1262.7512	0.171615	-440.305117	-440.296133	-440.295188	-440.338743	34.126	
C	-0.0254243515	 1.558913473	-0.0377749522	-0.39068
C	 0.1045870751	 0.0354517523	 0.0035926809	-0.070581
C	 0.7668249787	-0.5306182506	-1.2644323002	-0.209038
C	 0.9291728952	-2.037901095	-1.1479621266	 0.079389
O	 1.6015031245	-2.510767749	-2.3042994798	-0.427178
C	 1.7483428526	-2.3418768255	 0.1069167172	-0.103847
O	 1.1946002485	-1.764419243	 1.2925834808	-0.25703
C	 0.7962859574	-0.4504983886	 1.2677532707	 0.387882
N	 0.8990641376	 0.2757062325	 2.298818378	-0.501227
H	 0.9601311433	 2.0318066905	-0.085792826	 0.122206
H	-0.5964773966	 1.8634818976	-0.9206750116	 0.10437
H	-0.5253122958	 1.9311975594	 0.8570662827	 0.1415
H	-0.9071164402	-0.3969108124	 0.0562063004	 0.10388
H	 0.1676412663	-0.2815633807	-2.1454903669	 0.109292
H	 1.7579140762	-0.0817614328	-1.4111967984	 0.111067
H	-0.0650821827	-2.5031937186	-1.0517224653	 0.074888
H	 1.601827703	-3.4733078271	-2.2852738002	 0.286916
H	 1.799813097	-3.4174389352	 0.3031919954	 0.105535
H	 2.7716670624	-1.9722576661	-0.0478424934	 0.113722
H	 1.356026699	-0.2500293705	 3.0471285144	 0.218934
