19
gdb 97853	4.96603	0.67947	0.65112	1.5163	87.5	-0.2392	0.0131	0.2523	1800.2242	0.158347	-385.864185	-385.854734	-385.85379	-385.901343	33.19	
C	-0.2583699448	 1.4666568748	 0.0043684974	-0.364083
C	 0.3820084979	 0.0703309261	 0.1056558094	-0.314402
C	 0.9409011799	-0.400149692	-1.1572400338	 0.045991
C	 1.4033025423	-0.7651185378	-2.2082017614	 0.098531
C	 1.9545153154	-1.2196075775	-3.4895003479	-0.099675
O	 3.3607416016	-0.9504339932	-3.5950537038	-0.260811
C	 4.0917173039	-2.1700049849	-3.6952098562	-0.113239
C	 3.0509384147	-3.2491411497	-3.7878931065	-0.093293
C	 1.8409045066	-2.7185240719	-3.679733648	-0.077431
H	 0.4780955158	 2.2084701773	-0.3157884291	 0.131013
H	-1.0752186489	 1.4677331817	-0.7224681363	 0.126842
H	-0.659628524	 1.7740358206	 0.9747672652	 0.11331
H	 1.17369908	 0.0834520139	 0.8658265103	 0.131778
H	-0.3637706833	-0.6513928111	 0.4635192211	 0.128119
H	 1.4470313224	-0.6737997109	-4.3007609891	 0.108202
H	 4.7411325107	-2.1287196038	-4.5823785324	 0.10845
H	 4.7464343175	-2.3004896716	-2.8183049637	 0.10784
H	 3.292767198	-4.2970279967	-3.9125038747	 0.108631
H	 0.8873118641	-3.228555813	-3.6893851207	 0.114228
