15
gdb 131177	3.23868	1.45319	1.08807	3.1875	68.35	-0.2211	0.0021	0.2232	1063.0737	0.114252	-450.084148	-450.076532	-450.075588	-450.117277	28.281	
O	-1.2805532442	 0.6641359764	-0.4394676611	-0.445577
C	-0.3992422992	-0.3345128319	-0.2003017402	 0.307356
C	 0.1890016638	-1.1708278495	-1.1316495088	 0.288971
N	 0.9682012832	-1.964536803	-0.3466843605	-0.221952
N	 0.8774099202	-1.6564788832	 0.9494099596	-0.129689
N	 0.0336279933	-0.6509775561	 1.0361998749	-0.276774
N	 0.1569779122	-1.3487956143	-2.5189839101	-0.206474
C	-1.1200354396	-1.1117947259	-3.2168708823	-0.227261
C	 0.0019072331	-0.1519456297	-3.3658844781	-0.22731
H	-1.4975657331	 1.0530415881	 0.4177951998	 0.30808
H	 1.5664228095	-2.715438657	-0.6551552703	 0.283552
H	-1.3414922625	-1.8259929751	-4.003990269	 0.127356
H	-1.9674819684	-0.7960362757	-2.6161431115	 0.146115
H	-0.094439591	 0.8065085461	-2.8650746349	 0.146274
H	 0.6125403925	-0.1543119392	-4.2635527474	 0.127333
