14
gdb 51277	5.97305	0.83469	0.74688	1.2057	63.74	-0.266	-0.0389	0.2271	1403.2515	0.099434	-473.881865	-473.873768	-473.872824	-473.91615	27.999	
O	 0.0133451529	-0.1130179332	 0.1452677457	-0.232693
C	 0.019975232	 1.0682962583	-0.0719089037	 0.179523
C	 1.3018239529	 1.8776942636	-0.2206706353	-0.407215
C	 1.2239429045	 2.8875972375	-1.3141189768	 0.42597
N	 0.2942813384	 3.0141379869	-2.1702087246	-0.293219
C	 0.6866722891	 4.130964806	-3.0209101365	-0.315042
C	 2.0250299647	 4.6076602376	-2.4685217019	 0.407755
O	 2.7614529926	 5.4804832369	-2.7948252327	-0.299361
O	 2.2895097563	 3.7621681368	-1.38623183	-0.234225
H	-0.9144965922	 1.6587773175	-0.1505983013	 0.107618
H	 1.4940500306	 2.4023041	 0.7264466384	 0.162256
H	 2.1459093477	 1.1989043385	-0.3788937932	 0.165413
H	 0.7900868956	 3.8224323914	-4.0666396903	 0.167553
H	-0.0519333352	 4.939138752	-2.9944833577	 0.165667
