21
gdb 120325	2.98059	1.13222	1.06145	2.0957	78.98	-0.2307	0.0761	0.3068	1276.826	0.182722	-424.20518	-424.196241	-424.195296	-424.239547	32.887	
C	 0.0229751125	 1.4751376269	-0.0619503918	-0.387594
C	-0.1648974757	-0.0055614769	-0.3412699469	-0.034372
O	 1.0641052143	-0.5261466443	-0.82557441	-0.240785
C	 1.0116830144	-1.8796066442	-1.1262252081	 0.132663
C	 0.5446592065	-2.395888763	-2.4704913597	-0.131326
C	 0.4745460417	-1.4161852349	-3.6291263521	-0.083213
O	 1.7060017991	-0.7090790244	-3.65537598	-0.249533
C	 2.716930915	-1.4767763048	-3.0144822168	-0.078134
C	 2.0154569364	-2.447435592	-2.0792024071	-0.138157
H	 0.8094042416	 1.6278167328	 0.6826610255	 0.126442
H	 0.3101893708	 2.0017134918	-0.9762188044	 0.134137
H	-0.9052931215	 1.9126578496	 0.3175008973	 0.11314
H	-0.4616889995	-0.540746661	 0.5763506688	 0.085234
H	-0.9630159136	-0.1671388055	-1.0816738202	 0.091845
H	 0.7526102902	-2.5115083465	-0.2731053741	 0.080972
H	-0.0713434222	-3.2872465934	-2.5142868402	 0.088327
H	 0.3113267706	-1.9745530789	-4.5660094961	 0.089277
H	-0.3242607234	-0.6709554298	-3.5399510007	 0.105872
H	 3.3129286844	-2.0437869078	-3.7477714691	 0.088152
H	 3.3801046621	-0.7736379166	-2.4999214575	 0.115343
H	 2.5199723664	-3.3745766372	-1.8325762069	 0.091712
