17
gdb 51790	4.25012	1.05474	0.93264	4.8804	71.5	-0.2515	0.0259	0.2773	1254.1832	0.136916	-455.110697	-455.10265	-455.101706	-455.14445	29.138	
N	-0.195788405	 1.2857456554	 0.2122624219	-0.440172
C	-0.1168680153	 0.0308963332	 0.1190240054	 0.132759
O	-1.247093939	-0.7119077225	 0.0926770734	-0.184191
C	-1.0663457585	-2.1040100036	-0.006286397	 0.251836
O	-0.5533248606	-2.6053814536	 1.2126462537	-0.277652
C	-1.1703306395	-3.8471515132	 1.5568157342	-0.074419
C	-2.4500478641	-3.9107552264	 0.7482804271	-0.055858
N	-3.2721511371	-2.7044738731	 0.937419176	-0.308319
C	-2.3851679227	-2.8069293043	-0.2351000822	-0.113397
H	 0.7382239424	 1.6907724569	 0.2114622767	 0.228418
H	 0.8019792411	-0.5651951325	 0.0510473942	 0.097773
H	-0.3627892282	-2.3179186971	-0.8287989929	 0.073034
H	-0.5138372233	-4.6908311454	 1.2983724512	 0.099177
H	-1.3406584845	-3.8467580118	 2.6378825785	 0.125392
H	-2.9098261686	-4.8669349016	 0.5246704107	 0.101068
H	-4.2279882934	-2.8899920654	 0.6434162119	 0.239147
H	-2.7925394437	-2.869469795	-1.2371091329	 0.105402
