12
gdb 3674	6.0111	2.75406	1.91112	2.7843	57.36	-0.2363	-0.0706	0.1657	634.1437	0.091479	-319.571638	-319.565723	-319.564779	-319.601765	20.727	
C	-0.0214562615	 1.4990390422	 0.0282294253	-0.482912
C	 0.0001503591	-0.0021478636	-0.0108577199	 0.344831
C	 0.0712477274	-0.7267944043	-1.2112278707	-0.035654
N	 0.0888696707	-2.0487651935	-1.2209306519	-0.2271
C	 0.0337466598	-2.6125492086	-0.0066162537	 0.105244
N	-0.0343298713	-1.981396424	 1.1605997593	-0.181559
N	-0.0513222482	-0.648788018	 1.1552983738	-0.226684
H	 0.8792467816	 1.9182212295	-0.4329114398	 0.142482
H	-0.8824967341	 1.8950943642	-0.5207753649	 0.142536
H	-0.0776290985	 1.8346401189	 1.0646534035	 0.155563
H	 0.1140120397	-0.216627369	-2.1721772416	 0.125746
H	 0.0454192554	-3.6975056538	 0.0412045206	 0.137506
