12
gdb 133374	3.2231	1.46783	1.00954	5.3897	61.39	-0.2327	-0.0754	0.1573	1042.1986	0.078609	-510.126806	-510.11957	-510.118626	-510.158623	27.208	
N	-0.044072065	 1.3858686419	 0.1562396666	-0.567692
C	-0.0499920656	 0.0124388288	 0.0375303734	 0.267956
N	-1.1597681809	-0.6617828792	 0.0250087204	-0.240412
N	-1.0347776484	-2.0042404011	-0.000379901	-0.284628
C	 0.138984795	-2.7562686195	-0.0297736001	 0.462208
O	 0.1170686361	-3.963490205	-0.0420026588	-0.367753
N	 1.3136458972	-1.9840431063	-0.0504974966	-0.359122
C	 1.1973108836	-0.7209049759	-0.0142822745	 0.32442
F	 2.2935645767	 0.0307736066	-0.0454657942	-0.056817
H	 0.7533240682	 1.8508115989	-0.2498235101	 0.26947
H	-0.9301485559	 1.8265648277	-0.0450781757	 0.268636
H	-1.905435931	-2.5152509669	 0.0023942407	 0.283734
