25
gdb 100263	1.90617	1.25352	1.14139	2.4642	88.37	-0.2355	-0.008	0.2275	1340.7909	0.225393	-389.524178	-389.512513	-389.511569	-389.560911	42.712	
C	-0.2026176038	 1.5573924033	 0.1133079215	-0.398043
C	 0.0049335569	 0.0404063719	 0.049567561	-0.201634
C	 0.7285642447	-0.4964374522	-1.2227406231	 0.151318
C	 0.8067357725	-2.0339308738	-1.1257443922	-0.438398
C	 0.0104704085	-0.0689105487	-2.5261355244	-0.178436
C	-1.4677170629	-0.4560671416	-2.6441595667	-0.413075
C	 2.1517645738	 0.1082808911	-1.2340509325	 0.384221
C	 3.1977845485	-0.4682320516	-0.2883335322	-0.485581
O	 2.442669532	 1.0304360085	-1.9632954886	-0.316569
H	 0.7415473696	 2.1021657259	 0.0198632653	 0.131037
H	-0.8624518811	 1.9104012169	-0.6844335107	 0.125121
H	-0.6595251339	 1.8377161318	 1.0674120223	 0.111265
H	 0.5649454503	-0.2849675298	 0.9347251298	 0.093985
H	-0.9654907247	-0.4651452096	 0.1185921438	 0.102699
H	-0.1972363996	-2.4674991716	-1.132134141	 0.121906
H	 1.3576485898	-2.4611394077	-1.9707052234	 0.116032
H	 1.2922531987	-2.3634717957	-0.2030106045	 0.114047
H	 0.1181300056	 1.0116556894	-2.6425802015	 0.120163
H	 0.5626287546	-0.5018967464	-3.3692064097	 0.093815
H	-1.6251511983	-1.5377522595	-2.5827797844	 0.113383
H	-2.0823885706	 0.0130892618	-1.8692879398	 0.117259
H	-1.8613733794	-0.127438346	-3.6111471911	 0.116166
H	 2.8038207711	-0.6461577881	 0.7161269299	 0.134338
H	 3.54966706	-1.4333494137	-0.6695815811	 0.144838
H	 4.0440266278	 0.2182090754	-0.2410938365	 0.140143
