20
gdb 91139	2.74127	1.6724	1.44356	1.3685	77.5	-0.2038	0.0566	0.2604	995.4654	0.173014	-403.069222	-403.061767	-403.060823	-403.100843	30.49	
O	 0.0671408328	 1.3826293444	-0.4297863276	-0.42077
C	 0.0658694692	 0.007023182	-0.1222579397	 0.098981
C	 0.3338415995	-0.462641261	 1.3406831935	-0.229469
N	-0.9000102288	-1.3118493101	 1.3105757385	-0.145527
C	-2.1508635059	-0.7996427658	 1.9839879603	 0.023891
C	-2.1108774406	 0.5126344368	 2.7963991019	-0.237343
C	-2.3503419488	 1.3275037246	 1.4882640764	-0.248431
C	-2.5397615338	-0.0021681808	 0.6917790238	-0.046825
C	-1.3188971154	-0.6648820132	 0.0085916564	 0.006487
H	 0.9790191812	 1.6645068249	-0.5534326176	 0.2864
H	 0.6893899706	-0.5452789222	-0.8383429184	 0.077158
H	 1.2437063497	-1.0499706546	 1.5019754482	 0.097685
H	 0.3218445371	 0.362899654	 2.0589174796	 0.105117
H	-2.7363190621	-1.6239214812	 2.3988907631	 0.070965
H	-2.9572000434	 0.5676486159	 3.486926638	 0.099564
H	-1.2052426479	 0.7243744644	 3.371206507	 0.101244
H	-3.2516796017	 1.9438960404	 1.5135481563	 0.097753
H	-1.5192111879	 1.9446205833	 1.151572071	 0.130314
H	-3.4942772968	-0.119921721	 0.1771417121	 0.064146
H	-1.5906619273	-1.3451152407	-0.8063165127	 0.068661
