16
gdb 51295	4.71773	1.00449	0.8779	4.2582	71.4	-0.2685	-0.0239	0.2446	1279.3316	0.125024	-437.910095	-437.902424	-437.90148	-437.943035	28.185	
O	 0.0639827905	-0.0110879145	 0.0488011118	-0.252411
C	 0.0001647477	 1.1723432063	-0.0517620874	 0.167312
O	 1.1189581117	 1.953254321	 0.1406541069	-0.235616
C	 0.978515942	 3.3102211425	 0.1198800137	 0.44766
N	-0.1272161476	 3.9265995199	 0.2370158151	-0.308921
C	 0.1479101246	 5.365622086	 0.0831256948	-0.178309
C	 1.669116706	 5.5332820327	-0.0016121376	-0.049299
C	 2.464132435	 5.0345576256	 1.1674921034	-0.275845
C	 2.2183237716	 4.1162305854	-0.0165910234	-0.160966
H	-0.8857499187	 1.7694474212	-0.3032142796	 0.139081
H	-0.3491653218	 5.7248708546	-0.825910888	 0.118529
H	-0.2907672952	 5.9134773757	 0.9247147499	 0.121418
H	 2.0880500142	 6.3065437789	-0.6333937756	 0.101512
H	 3.474576411	 5.4113115343	 1.2794053624	 0.124502
H	 1.955353539	 4.8139771953	 2.1007248674	 0.128828
H	 3.04060261	 3.763930675	-0.6255235237	 0.112527
