16
gdb 83506	3.09252	1.54421	1.48455	1.5656	64.53	-0.2637	0.0154	0.2792	934.1584	0.126836	-475.034971	-475.028109	-475.027165	-475.066058	27.568	
O	 0.108162945	 1.3628359818	-0.095510699	-0.454073
C	-0.0009595723	-0.0288751301	-0.026955545	 0.141493
C	 0.3006548278	-0.6322724484	 1.3531963423	 0.144296
O	-0.6760346077	-0.0310719568	 2.1784968889	-0.281458
C	-1.8987740163	-0.0404553229	 1.389416799	-0.112697
C	-1.4407138526	-0.6285052193	 0.0332646764	-0.19475
C	-1.0857752074	-2.0670005053	 0.3153074771	 0.443539
N	-1.6466726048	-3.1120584043	-0.1033358337	-0.558914
O	 0.0072207965	-2.0216350939	 1.1701558028	-0.247776
H	-0.1057001627	 1.7155531295	 0.7773152676	 0.296689
H	 0.6008574285	-0.459589916	-0.8290438571	 0.115089
H	 1.2832258851	-0.5222353184	 1.8056394715	 0.111898
H	-2.6517721338	-0.6521708086	 1.8918491209	 0.137612
H	-2.2718462743	 0.9834752233	 1.2878896676	 0.117244
H	-2.1107702924	-0.4722577972	-0.806678015	 0.113602
H	-1.1853895786	-3.9446710734	 0.2688361556	 0.228207
