18
gdb 47542	2.7317	1.66963	1.14028	4.0148	73.33	-0.253	0.0289	0.282	1067.0648	0.149264	-439.073487	-439.065839	-439.064895	-439.105904	29.671	
N	-0.1436221961	 1.3442875726	 0.2014490799	-0.504221
C	-0.031319157	 0.1123325657	-0.0430459442	 0.429666
O	 1.1671870467	-0.5233459551	-0.1395099599	-0.258747
C	 1.451972734	-1.5401046447	-1.1176581807	-0.062816
C	 0.4276585834	-2.6681006795	-1.233744677	-0.241671
C	-0.8251271495	-2.2170742398	-1.9632145384	-0.046196
C	-2.1967928718	-2.4628535716	-1.366934012	-0.328211
C	-1.5933532612	-1.0960237125	-1.3211211455	 0.10293
O	-1.1407519035	-0.6818768156	-0.0519564424	-0.236821
H	 0.7832315806	 1.7689457633	 0.2259553366	 0.227795
H	 1.5900621588	-1.0542645876	-2.0938230785	 0.107732
H	 2.4202811054	-1.9343839042	-0.7990496871	 0.120305
H	 0.8991402185	-3.4977414578	-1.7734764723	 0.108154
H	 0.1884024383	-3.0357674197	-0.2318001832	 0.123691
H	-0.7522175552	-2.2002929785	-3.0471433937	 0.094063
H	-3.0361339523	-2.6270362	-2.03281618	 0.121744
H	-2.2441853731	-3.0038737732	-0.4282923828	 0.132293
H	-2.0147472159	-0.290444812	-1.9166863889	 0.110311
