14
gdb 131502	4.04097	1.27239	1.10983	4.43	64.73	-0.2733	-0.0552	0.2182	1052.1229	0.101339	-466.103909	-466.096754	-466.09581	-466.136127	26.442	
O	 0.1430961999	 1.3963656105	 0.0250132785	-0.411876
C	 0.0309320384	 0.0226229925	 0.0282113616	 0.135224
C	-0.4443677974	-0.764618871	 1.2165384144	-0.354981
C	-1.3208743615	-0.6882126955	-0.0212217573	 0.000759
N	-2.5115069314	 0.1051984312	 0.0255773723	 0.17937
N	-2.6273368847	 1.2484012798	 0.686204735	-0.165713
N	-3.836890699	 1.6659801236	 0.4393745063	-0.075235
N	-4.4440448008	 0.7833325326	-0.361193639	-0.076437
N	-3.6226287742	-0.1936222222	-0.6268071014	-0.121259
H	-0.5955418974	 1.7818545867	 0.5186535313	 0.311257
H	 0.8009490883	-0.4190567794	-0.595774265	 0.134613
H	 0.0081488015	-1.7231248307	 1.445456144	 0.141157
H	-0.7857137978	-0.1994605319	 2.0775161103	 0.155065
H	-1.4735829339	-1.5537560459	-0.6510770711	 0.148057
