14
gdb 42769	2.69412	1.61996	1.29242	5.1341	67.02	-0.2748	-0.0418	0.2329	974.6138	0.101299	-436.680912	-436.673677	-436.672733	-436.712733	27.183	
O	-0.0420921304	-0.0496702326	-0.0306167409	-0.279531
C	-0.0405255269	 1.1292631167	 0.0693900802	 0.417796
C	-1.0148874428	 2.3234174717	 0.0142636992	-0.044948
C	-0.8077520114	 2.9964144743	 1.3832100517	-0.238368
C	 0.7580782406	 2.9800417508	 1.4195508937	-0.273541
C	 1.001544879	 2.3076172629	 0.046777783	 0.184574
O	 0.0146144501	 2.9599645111	-0.8155000099	-0.311001
C	 2.3367576582	 2.206638896	-0.4816018367	 0.201275
N	 3.4173147723	 2.0924248751	-0.8748999783	-0.322019
H	-1.999104776	 2.2836217912	-0.4450578401	 0.123657
H	-1.209093971	 4.0110378153	 1.3807290975	 0.133405
H	-1.2669034945	 2.4353857212	 2.2006397753	 0.130002
H	 1.1918082375	 3.9807221038	 1.4383085773	 0.141124
H	 1.1748751153	 2.3960887826	 2.242876638	 0.137575
