15
gdb 7891	3.51036	1.87394	1.31146	2.1839	62.56	-0.2663	-0.019	0.2472	925.1884	0.118328	-399.868176	-399.860526	-399.859582	-399.900154	27.539	
C	-0.0983831759	 1.5478275263	-0.0113350436	-0.387071
C	 0.0274907071	 0.0216743931	-0.0195269432	-0.123974
N	 0.7963881813	-0.4874433958	-1.1554642869	-0.28943
C	 1.7542555783	-1.1610463069	-0.6653768653	 0.404594
C	 2.8255422633	-1.8847946176	-1.3970456922	-0.477775
O	 1.833268059	-1.2473764679	 0.717594586	-0.232676
C	 0.7631173521	-0.5090323235	 1.2104987869	 0.416866
O	 0.5567657286	-0.3722664316	 2.3751382054	-0.32101
H	 0.8888905675	 2.0181294731	-0.0155087733	 0.13009
H	-0.6419906264	 1.8797241298	-0.8983996762	 0.137509
H	-0.6357376734	 1.8704630226	 0.8839560812	 0.142877
H	-0.9775165173	-0.419438121	-0.0357236332	 0.13202
H	 3.8087373733	-1.5028516475	-1.1045868882	 0.154678
H	 2.8024214747	-2.9500433437	-1.1463906809	 0.155066
H	 2.6831504277	-1.7554636192	-2.4695718964	 0.158235
