22
gdb 104426	3.01586	1.20654	1.08736	1.9067	83.11	-0.2434	0.0298	0.2732	1240.379	0.194748	-404.375123	-404.36589	-404.364946	-404.408755	35.414	
C	 0.1008787391	 1.5501943456	-0.0571956588	-0.39423
C	-0.0317294494	 0.0290769512	 0.0490649419	-0.186074
C	-1.4800153098	-0.5154907409	 0.003731969	 0.281501
C	-2.1908899271	-0.0617596342	-1.284423452	-0.410356
C	-1.4362054462	-2.0564633924	 0.0979353966	-0.257666
C	-2.7930776238	-2.607255943	 0.5135363186	-0.087114
O	-3.2569892093	-1.9878899693	 1.7217369304	-0.224234
C	-2.9385414719	-0.6791681805	 1.8648069418	 0.119328
N	-2.1962906176	 0.0570457308	 1.1551708079	-0.285006
H	 1.1383103309	 1.8551843666	 0.1120121332	 0.105568
H	-0.1906973134	 1.9192660805	-1.0451764601	 0.11002
H	-0.5288381799	 2.0398039711	 0.689616306	 0.139375
H	 0.541116839	-0.4556998726	-0.7528254195	 0.085358
H	 0.4132545603	-0.3038930158	 0.9946873601	 0.094085
H	-1.590327962	-0.3146600264	-2.1651940968	 0.108679
H	-3.1700981358	-0.5383297533	-1.3895538647	 0.108476
H	-2.3549708595	 1.0176999791	-1.2719049144	 0.132341
H	-1.1342100879	-2.5037622888	-0.8554725959	 0.100953
H	-0.6916211483	-2.3514685251	 0.8466100922	 0.106511
H	-3.5476811872	-2.4429542887	-0.2658767756	 0.113699
H	-2.7532684895	-3.6787771187	 0.723775933	 0.117483
H	-3.4328742105	-0.2807794653	 2.749998487	 0.121304
