21
gdb 115828	4.30328	0.92831	0.83821	2.5561	79.2	-0.2515	0.0698	0.3213	1429.3391	0.182121	-424.210054	-424.201067	-424.200123	-424.244499	33.679	
C	-0.0176776044	 1.3593971068	-0.1425397138	-0.239718
O	-0.0404738045	 0.0034102697	 0.2392416883	-0.243601
C	-1.2990173699	-0.6166886798	 0.0968739636	 0.152763
C	-1.7316358	-0.9171138436	-1.3556335541	-0.249451
C	-2.7928527453	-2.0145607177	-1.1782383351	-0.293173
C	-2.2687349717	-2.8502837633	-0.0084362391	 0.446604
C	-3.0167981798	-3.97176104	 0.5669794818	-0.257355
O	-1.8922461077	-4.2058824325	-0.2850652986	-0.272513
C	-1.2590876115	-2.0013089905	 0.7651388498	-0.325978
H	 0.9796001758	 1.7425479937	 0.0872829	 0.127607
H	-0.2059426447	 1.49632923	-1.2174648604	 0.107532
H	-0.761260513	 1.9511600865	 0.4149572388	 0.102151
H	-2.0716715003	 0.0113515013	 0.5749026304	 0.060275
H	-2.1040753082	-0.0409454351	-1.8921181283	 0.095406
H	-0.861529578	-1.3049569749	-1.898653443	 0.114178
H	-3.7580773422	-1.5662376867	-0.9112286329	 0.103675
H	-2.9474266152	-2.633543837	-2.0648614638	 0.116995
H	-2.8749947074	-4.2379152957	 1.6144574305	 0.109533
H	-3.9858610359	-4.2485290025	 0.1502342327	 0.107171
H	-0.2580045569	-2.4222563346	 0.6270924468	 0.132731
H	-1.458245039	-1.9589237041	 1.8385243564	 0.105168
