21
gdb 66308	4.37773	0.60223	0.57936	3.0212	80.41	-0.249	-0.0207	0.2284	1927.8454	0.179234	-424.222563	-424.212187	-424.211243	-424.259613	36.372	
C	 0.3540348611	 1.550293635	-0.3768018774	-0.462897
C	 0.0378620061	 0.0865830857	-0.1530918724	 0.426375
C	-1.3937376741	-0.3609963056	-0.3980696809	-0.262254
C	-2.3932208166	 0.2310555948	 0.6061581596	-0.192763
C	-3.8190370732	-0.3104955142	 0.4053721872	-0.275064
C	-4.7673141158	 0.2043436334	 1.4637254835	 0.158017
O	-5.7854270498	 0.8090901516	 1.2469617361	-0.237292
C	 1.1211812769	-0.9042964884	-0.2474330048	-0.230168
O	 0.630831312	-0.482267168	 1.0278052577	-0.277003
H	 1.4073117574	 1.7502889285	-0.1666258761	 0.12901
H	 0.1439487786	 1.838747838	-1.4124822297	 0.121913
H	-0.2458958371	 2.1902278327	 0.277728115	 0.130388
H	-1.6873252814	-0.0912803116	-1.4210728226	 0.102543
H	-1.4326268676	-1.4543812661	-0.3344153342	 0.102477
H	-2.0472899324	-0.000696535	 1.6208762798	 0.12309
H	-2.412653697	 1.3237661089	 0.5217907594	 0.113178
H	-4.2181036371	-0.0471404666	-0.5788908071	 0.119838
H	-3.8003945949	-1.4077170283	 0.4835915016	 0.118502
H	-4.4442430023	-0.0149460695	 2.5093350817	 0.072087
H	 0.8931363407	-1.9344547253	-0.5195961218	 0.109263
H	 2.1320760367	-0.5778943302	-0.4900229646	 0.11076
