19
gdb 75884	2.41392	1.56412	1.21437	3.3185	70.56	-0.2743	0.0024	0.2767	1088.5729	0.158349	-460.214741	-460.205735	-460.204791	-460.247896	34.21	
C	 0.2142071939	 1.4840487045	 0.0417430594	-0.429799
C	-0.0391173286	-0.0313771759	 0.0056931	 0.219438
C	-1.5360677555	-0.3341897114	-0.0765632839	-0.453746
C	 0.7531908221	-0.689127266	-1.1491406402	-0.11052
O	 2.1037124796	-0.8793149734	-0.6603656827	-0.218389
C	 2.0977953686	-0.8496128862	 0.6872142892	 0.407297
O	 3.0832138058	-0.8826326168	 1.3715735462	-0.361683
C	 0.6638162562	-0.728462285	 1.1900167139	-0.011051
O	 0.5985268266	-0.0684070235	 2.4218668881	-0.437063
H	 1.2834357458	 1.7177465079	 0.0144213848	 0.129589
H	-0.2589676401	 1.9685695171	-0.8181458814	 0.113103
H	-0.1958228747	 1.9159417261	 0.9567879004	 0.141402
H	-1.9755058816	 0.0899329302	-0.9860721901	 0.118303
H	-1.7266146457	-1.4126921632	-0.0797583936	 0.115593
H	-2.0612168692	 0.0989890001	 0.7799812896	 0.138467
H	 0.3428795391	-1.6678976939	-1.4235225592	 0.115997
H	 0.8159311613	-0.0660750994	-2.0436055277	 0.129073
H	 0.2650396841	-1.7563388698	 1.2760918546	 0.095395
H	 1.4839502025	-0.1364536713	 2.8085237824	 0.298595
