16
gdb 82279	3.25114	1.44079	1.10286	4.3334	73.29	-0.25	-0.0712	0.1788	1063.6388	0.125073	-437.868359	-437.860796	-437.859852	-437.900421	29.042	
O	 0.0732308238	 1.3828621548	 0.1614982247	-0.436417
C	-0.0007612552	-0.0187149411	 0.0443417725	 0.060319
C	-1.4365097684	-0.5130166768	-0.0956391791	-0.072952
N	-2.1140943432	-0.0528995407	-1.318137955	-0.309788
C	-1.5035713693	-1.4166084996	-1.2804208766	-0.091562
C	-0.1509029782	-1.3937475396	-1.9031043212	-0.136842
C	 0.6630353607	-0.5749539288	-1.2179007999	 0.183196
C	 2.0128009582	-0.1819929029	-1.5998589574	 0.08044
O	 2.6558997671	 0.6587044542	-0.9971501644	-0.29531
H	 1.0092470369	 1.605244572	 0.0592157065	 0.298264
H	 0.4530100635	-0.505656146	 0.9258085618	 0.07646
H	-2.0266082729	-0.6962628964	 0.7949423036	 0.098182
H	-3.1189357099	-0.1491258988	-1.1785627489	 0.236756
H	-2.14402076	-2.2890267627	-1.3324795714	 0.102115
H	 0.1071771796	-1.9221646129	-2.8152045937	 0.120571
H	 2.4369481474	-0.6933242746	-2.4898332215	 0.086569
