13
gdb 3234	5.62921	2.71215	2.3632	3.2974	52.71	-0.2477	0.046	0.2936	596.0315	0.099958	-344.35722	-344.351352	-344.350408	-344.386523	22.618	
C	-0.0808800796	 1.5314181467	 0.0619367419	-0.510784
C	 0.1303983491	 0.0561801767	 0.02012602	 0.402812
O	-0.7810306136	-0.8214295748	 0.6805814539	-0.252355
C	 0.6105101571	-0.9346565743	 0.986788018	-0.100038
C	 1.3011576509	-1.7518982153	-0.1775920806	-0.00864
O	 0.2995486794	-2.1049134941	-1.1284555024	-0.20904
C	 0.8168016981	-0.7767053682	-1.1522421525	-0.060463
H	 0.8313106071	 2.062345234	-0.2303162782	 0.127771
H	-0.8787119983	 1.8289942812	-0.6279608179	 0.137494
H	-0.3625758318	 1.8484088827	 1.069478035	 0.139455
H	 0.9239443262	-0.847780827	 2.0201138348	 0.109832
H	 2.2100471377	-2.3385411858	-0.1340989732	 0.112998
H	 1.2468977177	-0.4015832417	-2.073214299	 0.110957
