21
gdb 117684	2.55046	1.07954	0.94769	1.143	75.36	-0.2594	0.0812	0.3406	1365.8936	0.179442	-461.330202	-461.319924	-461.318979	-461.365516	37.372	
C	-0.7690668633	 1.3592946454	-0.3468009639	-0.2249
O	-0.8407176515	-0.024761103	-0.5971029092	-0.240577
C	-0.7003113363	-0.8075484582	 0.5692004033	-0.089497
C	-0.8245394664	-2.2983547564	 0.2032053814	 0.286316
C	 0.267983815	-2.7171908676	-0.7772593096	-0.407268
O	-0.6606168209	-3.0559797022	 1.3927000717	-0.479506
C	-2.2115200377	-2.5565531949	-0.3806274142	 0.061432
C	-2.8506191228	-3.869795232	-0.2791496103	-0.190578
O	-3.2290934961	-2.7993132899	 0.6049870652	-0.264278
H	-0.8905299115	 1.8726183669	-1.3037360085	 0.127412
H	-1.564115641	 1.6903814555	 0.3393269779	 0.108408
H	 0.2010685781	 1.6436431625	 0.08958252	 0.107252
H	 0.278551297	-0.6391601379	 1.0451716019	 0.094766
H	-1.4797268391	-0.5501653185	 1.3063807836	 0.090373
H	 1.2492137269	-2.5826045439	-0.3125392255	 0.123961
H	 0.156666769	-3.7708562793	-1.0459121201	 0.116925
H	 0.2259273786	-2.1057276573	-1.6813590763	 0.132953
H	-1.5196184565	-3.0281270776	 1.8394958463	 0.287963
H	-2.5100948617	-1.8785119606	-1.1769548142	 0.110962
H	-3.6114984999	-4.1583861475	-1.0013970264	 0.120081
H	-2.3120844198	-4.6852466036	 0.1975272169	 0.1278
