19
gdb 79603	2.1594	1.82819	1.42625	3.2133	78.61	-0.2319	-0.0205	0.2114	1016.763	0.160804	-385.882193	-385.874529	-385.873585	-385.914193	30.663	
C	-0.0734590887	 1.5700111288	 0.0609093764	-0.430542
C	 0.0403417523	 0.0586924643	-0.0525415234	-0.010384
C	 0.5868566039	-0.8196514229	-1.1583179303	-0.076425
C	 1.5365755579	-0.351931515	-2.2601756657	-0.038143
C	 1.9484583491	 1.0848535545	-2.3683777999	-0.306197
C	 2.8242507549	 0.1000409414	-1.6050909336	-0.146756
C	 2.6677296756	-0.124818129	-0.1134439493	 0.393429
O	 3.5491545046	 0.0109730291	 0.7000851397	-0.329986
C	 1.3108168905	-0.7438377817	 0.1743603503	-0.184594
H	 0.8910450191	 2.0798096973	 0.0354521514	 0.138135
H	-0.7119730968	 1.992241451	-0.7224770024	 0.125051
H	-0.5302025099	 1.8188440621	 1.0242744608	 0.121665
H	-0.8101376779	-0.4295313407	 0.4202310136	 0.097458
H	-0.0093271448	-1.690283434	-1.4076457794	 0.091543
H	 1.5530651709	-0.9597027827	-3.1573512943	 0.093436
H	 2.3612658931	 1.4019659088	-3.3208178859	 0.120824
H	 1.404736415	 1.8615538758	-1.8551842704	 0.127451
H	 3.8118017833	-0.1007147394	-2.0035004498	 0.108973
H	 1.3119574079	-1.5256176978	 0.9256676822	 0.105063
