13
gdb 27810	2.09173	1.94116	1.01308	2.9463	63.93	-0.2828	-0.0666	0.2162	1079.8973	0.08876	-489.967253	-489.959489	-489.958545	-490.000084	27.82	
C	-0.0166307929	 1.4762797833	 0.0339928215	-0.454368
C	 0.0011261648	-0.01895827	-0.0046568505	 0.358204
N	-0.0261684803	-0.6083098038	-1.1748570197	-0.355576
C	-0.0104256216	-1.9619124257	-1.24427225	 0.453263
O	-0.029133458	-2.6867334986	-2.1829368929	-0.307683
O	 0.0380051318	-2.6570785765	 0.0704750871	-0.261812
C	 0.0616845972	-1.9224850496	 1.1638268885	 0.511391
O	 0.1034098755	-2.6238983577	 2.2832662986	-0.364542
N	 0.046131116	-0.6298962016	 1.2193036115	-0.367592
H	 0.874299674	 1.8375165471	 0.5580442397	 0.155948
H	-0.054985059	 1.8878856948	-0.9733089822	 0.1516
H	-0.8795715788	 1.8153583167	 0.6163232585	 0.155867
H	 0.1084788611	-3.5646739784	 2.0538130097	 0.325301
