18
gdb 97104	2.3843	1.48206	1.05542	2.2702	76.26	-0.2427	0.0189	0.2615	1174.3914	0.146611	-439.057676	-439.048746	-439.047802	-439.091664	32.584	
C	 0.1860458074	 1.2414692107	-0.1556783806	-0.344296
N	 0.3439168125	-0.2055910475	-0.0927834608	-0.377697
C	 0.5459563039	-0.7656474602	 1.0130232656	 0.475651
O	 0.6877838773	-0.2639475559	 2.2957531943	-0.280089
C	 0.9957744914	-1.6051604942	 2.8157690332	-0.161532
C	 0.828042913	-2.1621114281	 1.4057956264	 0.088318
C	 0.1851292875	-3.4062740566	 0.8354294156	-0.38128
C	 1.6170015684	-3.0852112956	 0.5053581873	 0.092158
O	 1.9976325049	-2.6344940142	-0.7473973646	-0.428272
H	 0.9356591278	 1.6563760591	-0.8377815315	 0.131253
H	-0.7974693914	 1.4801039419	-0.5748059758	 0.130589
H	 0.2831493215	 1.7371409967	 0.8166344918	 0.130839
H	 2.001277428	-1.6293114697	 3.2434869365	 0.128005
H	 0.2517040013	-1.915214616	 3.5541058531	 0.125625
H	-0.0090788422	-4.2235089957	 1.5232182727	 0.121194
H	-0.5657854376	-3.2556751501	 0.066224427	 0.136943
H	 2.3860423008	-3.7048406908	 0.9581506097	 0.11182
H	 1.4960753858	-1.8242105139	-0.9438923198	 0.300771
