17
gdb 18433	2.99985	2.06463	1.60043	1.4644	74.06	-0.2273	0.0296	0.2569	866.2706	0.141498	-326.64362	-326.635971	-326.635027	-326.67509	29.582	
C	-0.5663137971	 1.4352304731	 0.0077967542	-0.415273
C	-0.0313026539	 0.0156785735	-0.0145073344	 0.09536
C	 1.0469708995	-0.4642915576	-1.029424424	-0.297166
C	 1.797938844	-1.0033323455	 0.1857461437	-0.023336
C	 2.1716485977	 0.0876412267	 1.1190442058	-0.192375
C	 2.5706400645	 1.4006717201	 0.6930744117	 0.347176
C	 2.9927680041	 2.4812832494	 0.3723663293	-0.455102
N	 0.7838021005	-0.4660666815	 1.1722727433	-0.176518
H	 0.2283575354	 2.1810596587	-0.0026491552	 0.140257
H	-1.2084118011	 1.6018174157	-0.8644199333	 0.113308
H	-1.173831213	 1.5896438256	 0.905875044	 0.125346
H	-0.8785972394	-0.6763660878	-0.0502981832	 0.091564
H	 0.6906407125	-1.2312735162	-1.7184784888	 0.108574
H	 1.5785184073	 0.3070244435	-1.5935949138	 0.117172
H	 2.2214888491	-1.9982929528	 0.2833190731	 0.099258
H	 2.7031561808	-0.2442265994	 2.0087138441	 0.121931
H	 3.3449165691	 3.4422571745	 0.0888473734	 0.199823
