21
gdb 41938	3.17527	1.46482	1.06535	1.0862	83.61	-0.2379	0.0214	0.2592	1158.1721	0.185957	-387.107197	-387.099593	-387.098649	-387.13928	30.558	
C	 0.0022889587	 1.5725817001	-0.1020322058	-0.2086
C	 1.5017615769	 2.0025248285	-0.0162916991	-0.263442
C	 2.174295084	 0.7693546356	 0.5753977097	 0.166186
O	 3.5659839225	 0.6755339836	 0.3656472447	-0.275445
C	 4.0980520084	-0.4792061431	 1.0030009787	-0.130164
C	 3.210984562	-1.7013104504	 0.9486806167	-0.068953
C	 1.9713902027	-1.6854664706	 0.4568091486	-0.120846
C	 1.4272419255	-0.3939429671	-0.0803088424	 0.004081
C	-0.0341546111	 0.0245371736	 0.128710341	-0.247414
H	-0.6041738164	 2.091356218	 0.6448742149	 0.102623
H	-0.416748783	 1.8329818954	-1.0775268282	 0.104485
H	 1.9183223398	 2.1938907163	-1.010710629	 0.107668
H	 1.6527796158	 2.903898254	 0.5824546386	 0.097954
H	 1.9660567994	 0.7315809125	 1.6607297995	 0.059337
H	 5.056286711	-0.685982748	 0.5103714092	 0.11636
H	 4.3321082259	-0.2540753143	 2.0603965228	 0.097813
H	 3.6481305528	-2.6116980477	 1.3519348698	 0.090557
H	 1.369431715	-2.5900585402	 0.4216029608	 0.085331
H	 1.6378314127	-0.3420811972	-1.160551815	 0.086513
H	-0.3520829406	-0.2054218379	 1.1520660342	 0.100123
H	-0.728964532	-0.4828526412	-0.5457006497	 0.095834
