17
gdb 108886	3.27413	1.07031	0.85982	6.1562	75.56	-0.2308	0.0271	0.2579	1327.7062	0.138158	-414.215175	-414.20631	-414.205366	-414.249456	31.538	
C	 0.0214329321	 1.4282768171	 0.0443396637	-0.319107
N	-0.0192631917	-0.0270692708	 0.0263302581	-0.374095
C	-1.2266293192	-0.6611890801	-0.0224445088	 0.466673
N	-2.3657734287	-0.075969949	 0.1008796364	-0.332303
C	-3.3775508158	-1.1352691942	 0.0493738738	-0.106715
C	-2.5946589032	-2.495227704	 0.0724060358	-0.201956
N	-1.2284105438	-2.0471507636	-0.2290750154	-0.371069
C	-4.3409124414	-1.0360054943	 1.1551079396	 0.279913
N	-5.1023761349	-0.987594338	 2.0228261498	-0.329491
H	 1.0440819531	 1.7495586913	 0.2538801071	 0.122928
H	-0.3126551762	 1.874036025	-0.9012318358	 0.129264
H	-0.6366225234	 1.7897501176	 0.8358237823	 0.165306
H	 0.7176903166	-0.483841639	-0.4888047239	 0.246386
H	-3.9522562589	-1.047842954	-0.882846939	 0.126714
H	-2.6602940859	-2.9727947362	 1.055991773	 0.129148
H	-2.9647701619	-3.1951815092	-0.6801813012	 0.126161
H	-0.492164737	-2.5505304785	 0.2488441545	 0.242241
