25
gdb 112728	2.34172	1.12181	0.95581	1.2255	88.94	-0.2507	0.0757	0.3265	1420.5192	0.226747	-389.493533	-389.482645	-389.4817	-389.528794	41.237	
C	-0.0276389865	 1.5954607763	-0.1288660783	-0.380397
C	 0.0147989469	 0.0768899114	 0.0767271883	-0.199131
C	-1.3669714634	-0.5645917205	 0.0190133211	 0.027337
C	-2.1269365689	-0.6178363586	-1.3367355881	-0.300867
C	-2.6819190997	-1.9992854376	-0.9092127103	 0.116061
O	-2.7342343097	-3.0481523889	-1.8506538469	-0.435133
C	-1.5397003564	-2.123780917	 0.1430765892	 0.267837
C	-0.3510136062	-2.9223654842	-0.401208452	-0.426805
C	-1.9493811544	-2.6447208478	 1.5182894739	-0.456895
H	 0.9749440279	 2.0320527778	-0.0817788488	 0.109799
H	-0.456491145	 1.8518484207	-1.1036838824	 0.117693
H	-0.6397333366	 2.0822038268	 0.6388725765	 0.111814
H	 0.6653467904	-0.3737989827	-0.6822681538	 0.09479
H	 0.4781579399	-0.1450063616	 1.0476194733	 0.09292
H	-2.0064648468	-0.0862241628	 0.7722389069	 0.060135
H	-2.8430538061	 0.1762578418	-1.5635056082	 0.087635
H	-1.437470138	-0.7274162864	-2.1800050923	 0.101505
H	-3.6508315797	-1.8846249457	-0.3996782996	 0.05751
H	-3.4418571823	-2.8587764505	-2.4745909823	 0.281679
H	-0.0357890563	-2.5828887784	-1.3910001352	 0.115298
H	 0.5073877788	-2.8468171015	 0.2747336486	 0.104451
H	-0.619270906	-3.9784991717	-0.4948586692	 0.121927
H	-2.2203990533	-3.7058790204	 1.4732440911	 0.116898
H	-1.1303353935	-2.5436934043	 2.2403416099	 0.109825
H	-2.810565405	-2.0941313141	 1.9126902686	 0.104115
