15
gdb 86629	3.57006	1.07929	0.85022	1.6855	71.88	-0.2617	-0.1083	0.1534	1262.6981	0.111649	-457.802871	-457.794682	-457.793738	-457.836192	29.609	
O	 0.2087344998	 1.309776299	 0.3777162392	-0.434401
C	-0.0338053012	-0.0255134621	 0.0255572318	 0.044301
C	-1.5213770322	-0.3681049205	-0.16715144	-0.341263
C	-1.5121624751	-1.2805853865	-1.373899744	 0.217048
C	-2.7002827153	-2.0509363801	-1.7957104744	 0.093637
O	-3.7493862179	-2.0300174866	-1.1964908314	-0.243985
C	-0.3275519497	-1.3009625216	-2.0152121864	-0.277698
C	 0.6118087829	-0.391966694	-1.3210093015	 0.360965
O	 1.664871969	 0.0581607558	-1.7106685837	-0.334514
H	 1.066550131	 1.5359577486	-0.0095134798	 0.295106
H	 0.3943903982	-0.7194678776	 0.7721909462	 0.101962
H	-1.9928292473	-0.8407972997	 0.6972728764	 0.13909
H	-2.0851715386	 0.5464850619	-0.3815244334	 0.152548
H	-2.5630312128	-2.6641605218	-2.7114831923	 0.090633
H	-0.0914288607	-1.8392361446	-2.9252848767	 0.136571
