13
gdb 9022	4.70908	0.92519	0.79893	3.717	79.8	-0.2622	-0.0342	0.228	1347.0385	0.093399	-324.284295	-324.275818	-324.274874	-324.317583	29.744	
C	-0.0254670335	 1.5570769216	 0.0304356395	-0.382293
C	-0.0217505154	 0.0081300217	-0.0374279179	-0.351975
C	-1.3971512311	-0.5160374894	 0.0409439457	 0.295193
N	-2.4806849145	-0.9075066349	 0.120760758	-0.31417
C	 0.6592778706	-0.488123619	-1.231767626	 0.499912
C	 1.2478057398	-0.8772210559	-2.2130652729	-0.311617
C	 1.9049125487	-1.3136315178	-3.3218973947	 0.302926
C	 2.4886377004	-1.7014480763	-4.3045475937	-0.545429
H	 1.0036783893	 1.9214386307	 0.0182852398	 0.1432
H	-0.5581438106	 1.9739497585	-0.8261824507	 0.15416
H	-0.5147683893	 1.8884411311	 0.9490929314	 0.144249
H	 0.509102523	-0.372285192	 0.8468055289	 0.165547
H	 2.9999561724	-2.0427728482	-5.1705475474	 0.200296
