17
gdb 75067	1.94207	1.82145	1.03012	2.84	80.76	-0.2402	-0.0239	0.2163	1159.0964	0.13367	-384.692033	-384.683155	-384.682211	-384.726135	32.906	
C	-0.0040952907	 1.4908170201	 0.0346626188	-0.491062
C	 0.0034189264	-0.0018649505	-0.0205323056	 0.327655
C	-0.0688847562	-0.7770415643	-1.1056244231	-0.179701
C	-0.0344792867	-2.2483436624	-0.8083868838	-0.37253
C	 0.084720792	-2.3012921143	 0.7187238272	 0.39533
O	 0.1479780404	-3.2858316195	 1.397888554	-0.290464
C	 0.091373363	-0.8326157397	 1.253560311	-0.378802
C	 1.2519461888	-0.5452922713	 2.0845869045	 0.347622
C	 2.2236453321	-0.3026134503	 2.7489519262	-0.472367
H	 0.8932856108	 1.8645523525	 0.5407192016	 0.144793
H	-0.047534451	 1.9263237399	-0.9670227603	 0.12549
H	-0.8639316613	 1.8611043091	 0.6076632173	 0.128596
H	-0.1492879467	-0.3911478444	-2.116252378	 0.099295
H	-0.9358232164	-2.7892851039	-1.1256466035	 0.139226
H	 0.8123073666	-2.7769594967	-1.265593972	 0.143273
H	-0.8171980002	-0.7089408087	 1.8641661863	 0.132862
H	 3.0773468992	-0.0981392154	 3.3464165194	 0.200784
