12
gdb 21641	6.05196	1.64379	1.2943	4.3305	60.81	-0.2284	-0.0673	0.1611	857.1968	0.085761	-410.860843	-410.854421	-410.853477	-410.891253	24.529	
N	 0.0060170501	 1.3757483786	-0.0828757635	-0.570109
C	 0.027638656	-0.0064265064	-0.0347684291	 0.375304
N	-1.1472772382	-0.6369788332	 0.0090258215	-0.243796
N	-1.1846987418	-1.9641321677	-0.0195778729	-0.234242
C	-0.0288803154	-2.6137283101	-0.0727921738	 0.480564
O	-0.1097141969	-3.9536700225	-0.095627532	-0.393051
N	 1.1953228495	-2.0656516312	-0.1000826731	-0.313247
C	 1.2229008208	-0.7485281281	-0.0871034129	-0.049478
H	 0.7809880727	 1.8488202399	 0.3570072063	 0.255893
H	-0.8928861467	 1.7624506504	 0.1710914476	 0.263018
H	 0.7976780215	-4.2828787584	-0.1324698029	 0.306651
H	 2.1956543486	-0.2609064113	-0.1160530951	 0.122494
