22
gdb 63427	3.76724	0.79592	0.78202	4.1309	86.83	-0.2957	0.0359	0.3317	1572.3841	0.193243	-367.233925	-367.224132	-367.223187	-367.268805	36.838	
C	 0.0931250471	 1.5272565705	 0.1965102705	-0.448586
C	-0.0023867195	 0.0144591161	 0.0270178865	 0.348773
C	-1.4307220937	-0.4066172953	-0.3277273088	-0.435387
C	 1.0549086045	-0.6368177676	-0.924488484	-0.292415
C	 1.2997699724	-1.7409970201	 0.1376360877	 0.045836
C	 2.751778759	-2.1642955349	 0.389529511	-0.365956
C	 2.877633938	-3.1034358616	 1.5036386087	 0.260766
N	 2.9524576699	-3.8447501039	 2.3871514333	-0.30944
C	 0.5930543685	-0.8460102882	 1.189672879	-0.268802
H	 1.1123025058	 1.8362938201	 0.4521341449	 0.106491
H	-0.1934603856	 2.0474551551	-0.7251206476	 0.113673
H	-0.5718229371	 1.8779655826	 0.9945487495	 0.115854
H	-1.7556081775	 0.0627584363	-1.2633274571	 0.113403
H	-1.5160092471	-1.4912222266	-0.4525412819	 0.113334
H	-2.1324241605	-0.1071148604	 0.4589028614	 0.115769
H	 0.7112973221	-0.9574215456	-1.9118719592	 0.099664
H	 1.9332220614	 0.004901726	-1.0542626562	 0.093567
H	 0.7057270998	-2.6332534504	-0.0780850568	 0.093456
H	 3.1740575649	-2.6318315028	-0.5083522153	 0.150039
H	 3.3687934012	-1.2837631833	 0.6064223126	 0.144514
H	 1.3133399939	-0.2775816953	 1.7875631053	 0.097461
H	-0.1125327077	-1.3309976907	 1.8686196465	 0.107985
