18
gdb 41513	2.97837	1.96752	1.46911	3.4647	74.74	-0.2437	-0.0039	0.2398	915.9937	0.151382	-401.921061	-401.914608	-401.913664	-401.951616	26.998	
C	 0.0173334174	 1.5869459909	-0.0256716848	-0.10439
O	 1.4034950115	 2.0098871478	 0.0737218745	-0.24756
C	 1.9547105128	 0.9533369905	 0.7656612907	 0.308356
N	 2.3829872977	 1.0909847411	 1.9449633198	-0.223312
C	 2.2631508743	-0.1525081715	 2.7192632803	-0.156377
C	 0.7678646895	-0.5688606434	 2.5989049427	-0.239839
C	 0.4627159732	-0.8759413567	 1.124670947	-0.024548
C	 0.0278324747	 0.045619816	-0.0415038294	-0.09592
C	 1.4626980096	-0.3328288867	 0.1441881172	-0.17913
H	-0.5391406119	 2.0127113577	 0.8184563259	 0.11611
H	-0.3860729139	 1.9828096861	-0.96048806	 0.121242
H	 2.9047240132	-0.9661031221	 2.3541479603	 0.10318
H	 2.5417870785	 0.0525601439	 3.7559533315	 0.107286
H	 0.5636284491	-1.4581729036	 3.2039377624	 0.100762
H	 0.1514216713	 0.2428668051	 2.9991596955	 0.115985
H	 0.1384298637	-1.8980360229	 0.9459708052	 0.09339
H	-0.5893067836	-0.432930419	-0.7937478079	 0.099565
H	 2.0799545128	-0.9208668633	-0.523402871	 0.1052
