14
gdb 49214	4.88588	1.03784	0.86829	3.8822	70.38	-0.2524	-0.0655	0.1868	1223.0274	0.102003	-473.888949	-473.881271	-473.880327	-473.921803	27.548	
O	-0.1209941278	-0.052567266	-0.1000738879	-0.293913
C	-0.0643743455	 1.1577076273	-0.0215793439	 0.095919
C	 1.1743092238	 1.9165221976	-0.0014531351	 0.102075
C	 1.1830651199	 3.2590302201	 0.0806416564	-0.024663
N	 2.3706070184	 3.9454537808	 0.0662180416	-0.382835
C	 3.5768513593	 3.3767246381	-0.3662380598	 0.490448
O	 4.5525381778	 4.0453968294	-0.5674259687	-0.362734
O	 3.547445883	 2.0549716542	-0.5919870885	-0.240847
C	 2.4996832129	 1.2157659187	-0.0481139515	-0.172539
H	-0.986765193	 1.7778919005	 0.0458485586	 0.067161
H	 0.2788342559	 3.8546496106	 0.1516668531	 0.143911
H	 2.390661798	 4.9519044379	 0.1138137836	 0.279186
H	 2.8157729134	 0.8836473139	 0.949609411	 0.138042
H	 2.4562341639	 0.336904047	-0.6930920089	 0.160787
