15
gdb 19654	4.63255	2.11344	1.95852	3.4311	64.14	-0.2453	-0.0224	0.2229	719.3217	0.12154	-362.615641	-362.610102	-362.609158	-362.645105	22.731	
O	-0.0298907064	-0.0253642241	-0.0051290609	-0.318751
C	-0.0241389664	 1.1660056604	 0.0450223583	 0.475248
C	-1.049828903	 2.3053288784	 0.0059186586	-0.128645
C	-0.8117497812	 2.8861852863	 1.428734982	-0.241574
C	 0.6355411342	 3.3413689257	 1.1228597246	-0.05385
C	 0.3680183637	 4.2927340065	-0.0560171358	-0.159905
N	-0.0161331303	 3.0729771273	-0.853987285	-0.160439
C	 1.0067994495	 2.2852895827	 0.0052137943	-0.140788
H	-2.0587845249	 2.2051216016	-0.3854204318	 0.099528
H	-1.4670629314	 3.722586175	 1.6847944783	 0.109822
H	-0.895195021	 2.1243159932	 2.2090668548	 0.118952
H	 1.2923235213	 3.5824987392	 1.9590205938	 0.077059
H	-0.4013156059	 5.0646194052	 0.0492415177	 0.104967
H	 1.2680897243	 4.7245219397	-0.5005530387	 0.117131
H	 2.0330840275	 2.1948823428	-0.34582274	 0.101246
