19
gdb 114504	2.64238	1.31319	1.02443	1.4995	75.31	-0.2389	-0.0223	0.2166	1194.3301	0.158614	-423.010847	-423.002231	-423.001287	-423.044763	32.264	
O	-0.0505912428	 1.3733764122	-0.3071634412	-0.424785
C	 0.0430849859	-0.037881027	-0.1721618529	-0.099138
C	-1.3642501943	-0.558683179	 0.0475334092	 0.039209
C	-2.3698581186	-0.5221072463	-1.142441496	-0.245751
C	-2.6635402134	-2.0369300981	-0.9614882712	-0.025065
C	-1.8073759779	-2.973054383	-1.8561669013	-0.356684
C	-0.7129868906	-2.9465690991	-0.7701933843	 0.415785
O	 0.3817869634	-3.4253215371	-0.6857708938	-0.308412
C	-1.5748545165	-2.1014260145	 0.1808078457	-0.195056
H	 0.8288565213	 1.7171048886	-0.4891252712	 0.288547
H	 0.4822595557	-0.4951090495	-1.072568238	 0.090567
H	 0.6819589233	-0.3232720621	 0.6790914172	 0.096344
H	-1.7812569199	-0.0509301772	 0.9216010573	 0.091949
H	-3.2276761788	 0.132207855	-0.9781133421	 0.109732
H	-1.925784092	-0.2595900674	-2.1074122009	 0.102257
H	-3.6984810906	-2.3316934448	-0.7968163273	 0.075934
H	-2.2234122172	-3.9823931375	-1.9550395622	 0.132095
H	-1.5242457079	-2.6193097821	-2.8520749266	 0.124109
H	-1.7238764792	-2.5051575512	 1.1836475398	 0.088364
