16
gdb 93346	2.35982	1.64571	1.09486	6.8158	66.52	-0.2661	-0.0233	0.2428	1089.4527	0.124334	-475.093566	-475.085226	-475.084282	-475.127012	29.652	
C	 0.1301459482	 1.6083472823	 0.0004970746	-0.397558
C	-0.0031141064	 0.0845178914	 0.0337444956	-0.013928
C	 0.7035171492	-0.6169062042	-1.1426025213	-0.103004
O	 1.9799656867	-1.0127218034	-0.6296922767	-0.243571
C	 1.9517344849	-1.0706880473	 0.7329930688	 0.511167
O	 2.836728891	-1.5054810914	 1.3981270279	-0.341672
N	 0.7233327646	-0.5182488455	 1.1547166012	-0.173734
C	 0.2486867526	-0.5007415152	 2.4607350556	 0.158225
O	 0.7997879501	-0.9540038184	 3.4249404393	-0.263907
H	 1.1812859916	 1.902154978	-0.0805166723	 0.144477
H	-0.4126242565	 2.0167105789	-0.8578331445	 0.130318
H	-0.2820019605	 2.0587037044	 0.9081087051	 0.134423
H	-1.0585785259	-0.2005127477	 0.0767929862	 0.110356
H	 0.1625145986	-1.5088314066	-1.4764534151	 0.128689
H	 0.8651599825	 0.0471372523	-1.9936105707	 0.134354
H	-0.7449403705	-0.0096324275	 2.5003136765	 0.085364
