15
gdb 34209	4.15884	1.45569	1.28382	3.7799	69.34	-0.2406	-0.0121	0.2285	958.8817	0.114072	-416.737746	-416.731151	-416.730207	-416.768687	26.055	
N	 0.1618917073	-1.1797738215	 0.0482269125	-0.33024
C	 0.0765227471	-0.0279135257	 0.00726667	 0.21303
C	-0.0833404487	 1.4114967509	-0.050207951	 0.307622
C	-1.2263491826	 2.1195039434	 0.7165598805	-0.215199
N	-1.3717896337	 3.1477158863	-0.3711634626	-0.160103
C	-0.2301618779	 4.1362376444	-0.2986984961	-0.189061
C	 0.7425391892	 3.1176685009	-0.9145313568	 0.091068
O	 1.160263287	 2.1367522138	 0.0734274045	-0.331166
C	-0.5013331679	 2.2749332002	-1.2746884685	-0.102185
H	-2.1320327189	 1.5083220307	 0.768545118	 0.134258
H	-0.973505853	 2.5033629321	 1.7077537547	 0.128359
H	-0.4416178741	 4.9752708132	-0.9691007182	 0.122691
H	 0.0060353496	 4.5117515409	 0.7002827869	 0.122338
H	 1.5648214835	 3.4196982205	-1.564214114	 0.10048
H	-0.8566185368	 1.9340743499	-2.24372511	 0.108109
