18
gdb 36401	5.14664	0.78698	0.73805	3.404	76.82	-0.2711	0.0279	0.299	1503.5123	0.147204	-401.933089	-401.924593	-401.923648	-401.967043	31.461	
N	-0.0239316177	-1.1173231624	-0.229531465	-0.305433
C	-0.0167690003	 0.028337167	-0.0785562816	 0.262394
C	 0.0244824666	 1.4778606155	 0.1117858301	-0.36244
C	 1.4558585795	 2.0247136782	 0.1286528971	 0.033805
C	 2.272220474	 1.9960556268	-1.199947741	-0.328672
C	 2.7223537323	 3.4216983169	-0.8727962355	 0.467382
C	 4.0740466917	 3.9817125015	-0.8727727719	-0.264787
O	 3.0795399406	 4.4020122708	-1.8215963373	-0.267169
C	 1.6211409759	 3.5746229643	 0.1796687732	-0.350209
H	-0.5504894373	 1.9515790644	-0.693026448	 0.150554
H	-0.4872447187	 1.72052859	 1.0508142002	 0.154032
H	 2.0168524462	 1.5472382222	 0.935880252	 0.09975
H	 3.036716584	 1.2250545618	-1.3108918744	 0.121746
H	 1.6209516335	 1.9795526997	-2.080225203	 0.120137
H	 4.352974433	 4.7284325589	-0.1302535389	 0.118088
H	 4.8998054159	 3.405923803	-1.2888907214	 0.120458
H	 0.750571397	 4.0943799397	-0.234888311	 0.116399
H	 1.8817085938	 4.0277546216	 1.1386416964	 0.113965
