22
gdb 92709	2.25013	1.70856	1.08624	1.4086	88.4	-0.2167	0.029	0.2457	1189.6504	0.1948	-367.212162	-367.203131	-367.202187	-367.245521	35.263	
C	-0.8076270598	 1.1208325752	-0.0261381275	-0.414657
C	 0.1277885879	-0.0855847212	-0.0438872814	-0.056817
C	 1.230501327	-0.028680765	-1.1341298405	-0.276606
C	 2.3855613262	-0.7663074294	-0.5027161125	-0.190808
C	 2.2209748623	-0.9576146156	 0.8089985289	 0.298239
C	 3.1553690404	-1.6239632477	 1.7666865312	-0.500238
C	 0.9114609849	-0.3774253493	 1.2497191059	 0.254576
C	 0.7746334416	 0.432344046	 2.4956902839	-0.293361
N	 0.2548532643	-0.9456998026	 2.440783241	-0.363536
H	-0.2541359604	 2.052165123	 0.1335000784	 0.119841
H	-1.341387039	 1.2078345029	-0.9782008922	 0.115761
H	-1.5656674027	 1.0391462669	 0.7618667459	 0.107528
H	-0.4726414909	-0.9852718687	-0.2402754538	 0.081727
H	 0.8985820778	-0.472483302	-2.079904796	 0.099899
H	 1.5041062473	 1.012439067	-1.3628662651	 0.100882
H	 3.2634350129	-1.0692706268	-1.0637893092	 0.084362
H	 4.010920068	-2.0633877985	 1.2473483489	 0.117762
H	 3.5415982111	-0.9147117247	 2.5098003234	 0.122984
H	 2.6352425696	-2.4078529255	 2.3269961431	 0.145081
H	 1.6265959914	 0.5717625302	 3.1559797783	 0.111951
H	 0.0702632634	 1.2591611193	 2.496610857	 0.110003
H	-0.7553936034	-0.9269608034	 2.3132582724	 0.225426
