23
gdb 58984	3.35623	0.92141	0.88471	1.7529	89.2	-0.2244	0.0241	0.2485	1493.3022	0.204402	-388.309932	-388.299748	-388.298803	-388.3456	37.46	
C	-0.0275434592	 1.5671855309	 0.1086247697	-0.389108
C	-0.0201866145	 0.0277856557	 0.0435817187	-0.081271
C	 0.7997710265	-0.5643146365	 1.2063388513	-0.387714
C	-1.416167234	-0.5341342716	 0.004311001	 0.333756
C	-1.9783519505	-1.2681414584	-0.952822489	-0.250586
C	-3.3934681378	-1.6322788428	-0.596599235	 0.11015
C	-3.6795119313	-3.1337177783	-0.5490687831	-0.385653
O	-3.588138348	-1.0601491198	 0.7034592463	-0.281223
C	-2.4377461191	-0.3250965618	 1.100411058	-0.164782
H	 0.9946291896	 1.9573753531	 0.0694076609	 0.11315
H	-0.5891470639	 1.9965848182	-0.7263865398	 0.118876
H	-0.481944991	 1.9245164576	 1.0391147642	 0.118565
H	 0.4708191682	-0.2651498276	-0.8929975976	 0.07795
H	 0.3810743045	-0.2783608512	 2.1772999583	 0.117985
H	 0.8220733515	-1.6570399153	 1.158002181	 0.11868
H	 1.8316115598	-0.1997660505	 1.1719637137	 0.113082
H	-1.5087831945	-1.5794322286	-1.8786689924	 0.093289
H	-4.1075399767	-1.1648262088	-1.2975240229	 0.075528
H	-2.9721221544	-3.6373998556	 0.1163130383	 0.115731
H	-4.6934422465	-3.3111554242	-0.1791630738	 0.123798
H	-3.5964566308	-3.5739780902	-1.5486050062	 0.108048
H	-2.0903799338	-0.6866086774	 2.0804091042	 0.102509
H	-2.695092864	 0.7395497432	 1.2270315742	 0.09924
