18
gdb 18602	3.22185	2.17687	1.7334	2.5283	66.54	-0.2386	0.0657	0.3043	821.1317	0.155718	-384.928602	-384.921581	-384.920637	-384.959822	27.478	
O	-0.3636755245	 1.4385790595	 0.4144628511	-0.417397
C	-0.0714954704	 0.1018202948	 0.0836747123	 0.10037
C	 0.4199703521	-0.8308200581	 1.2312516178	-0.281704
C	-0.8300427551	-1.7397814061	 1.0366869506	-0.036832
C	-1.9057775048	-1.6567129717	 2.1276577661	-0.231049
C	-2.5964295689	-0.317760584	 1.8174768761	-0.082949
O	-2.5629817564	-0.1988454458	 0.3968223934	-0.242689
C	-1.3636174597	-0.7694152467	-0.068123219	 0.098397
H	 0.4694834651	 1.8919933685	 0.5787765748	 0.283719
H	 0.5663301067	 0.0410753784	-0.8101989127	 0.061842
H	 1.3827549957	-1.3176923375	 1.0569446273	 0.096718
H	 0.4532626417	-0.3261661997	 2.2019787405	 0.095302
H	-0.6114082963	-2.7625448968	 0.7279514435	 0.068742
H	-2.6181150474	-2.4806332536	 2.0189484549	 0.104317
H	-1.4924561465	-1.6938899431	 3.1398858752	 0.099109
H	-3.643679534	-0.2810051276	 2.129022909	 0.104606
H	-2.062690835	 0.5235120146	 2.2800373188	 0.104236
H	-1.5428356622	-1.153156435	-1.0750809397	 0.075263
