18
gdb 69565	2.85636	1.48254	1.17576	4.3412	78.26	-0.2296	-0.0137	0.216	1096.9789	0.147118	-401.91349	-401.905097	-401.904153	-401.946371	31.784	
C	-0.0810986375	 1.5488416811	 0.0255545617	-0.493401
C	 0.0573510251	 0.0546260927	-0.003097953	 0.213041
C	-0.8015644209	-0.8873126575	 0.8304173947	-0.33161
C	 0.6804443037	-0.9490915398	 1.0163376935	-0.222683
C	 1.279851371	-1.752505098	-0.1225024396	 0.259055
C	 2.6090463731	-2.3998271772	-0.2044938147	-0.312749
N	 1.3761289398	-3.2018299311	-0.2978200911	-0.361746
C	 0.6987243321	-0.7426713693	-1.1138024783	 0.320864
O	 0.8702344956	-0.5362035762	-2.2822899696	-0.321098
H	 0.8502230558	 2.0382321058	-0.2761421098	 0.13295
H	-0.8655289879	 1.8763512262	-0.6649578014	 0.14047
H	-0.3476974491	 1.9035195344	 1.0259987224	 0.120815
H	-1.3637161415	-0.3828222476	 1.6109148816	 0.123296
H	-1.3288519483	-1.7168569009	 0.3680986537	 0.131565
H	 1.1792970754	-0.6954844315	 1.9431940372	 0.107611
H	 3.1762379697	-2.3267842013	-1.1279847069	 0.141149
H	 3.2041822604	-2.44898992	 0.7042364509	 0.118028
H	 1.1920652634	-3.6631795496	 0.5913205189	 0.234447
