18
gdb 111913	3.2315	1.19018	0.91019	3.1005	76.15	-0.2187	-0.0121	0.2066	1291.9884	0.146437	-439.121554	-439.112324	-439.11138	-439.155657	33.462	
C	-0.0500059668	 1.4433288584	 0.1254515755	-0.24248
O	 0.0050729531	 0.05353196	-0.1589695609	-0.2485
C	-1.2391181765	-0.6017620043	-0.0562184933	-0.010647
C	-1.1968147223	-1.9865383291	-0.6382764032	-0.268209
C	-1.5955429376	-2.8733812417	 0.2810219848	 0.370804
C	-1.7568799561	-4.3514494541	 0.1888058231	-0.497273
N	-1.9156009018	-2.2219420949	 1.4943966345	-0.379633
C	-1.6594478673	-0.8678145894	 1.4221804944	 0.394695
O	-1.7362860162	-0.074062988	 2.3311786747	-0.364434
H	 0.9574239295	 1.8336271196	-0.0371009644	 0.122581
H	-0.7462789502	 1.9583626805	-0.5554411457	 0.099573
H	-0.3591417504	 1.6356859422	 1.1575581045	 0.145089
H	-2.0299980001	 0.0133403781	-0.5234302991	 0.092743
H	-0.9150649149	-2.2105900438	-1.6556877505	 0.107648
H	-1.1392936076	-4.8621535028	 0.9379845776	 0.137658
H	-2.7968012156	-4.6496729722	 0.3677115507	 0.139807
H	-1.4605486851	-4.7070712394	-0.7996178004	 0.1449
H	-2.0797926342	-2.6908908989	 2.3713037877	 0.255678
