15
gdb 6682	7.87859	0.75911	0.70768	3.4427	59.3	-0.259	-0.031	0.228	1484.4916	0.116692	-436.987359	-436.978282	-436.977338	-437.02313	30.072	
N	-0.1790073666	 1.3037171069	-0.1897154427	-0.563393
C	 0.0744363266	-0.0298800026	-0.0483947277	 0.496701
O	 1.1675276691	-0.5435673934	-0.0443418278	-0.392953
O	-1.0977471889	-0.7129488098	 0.0526998602	-0.26061
C	-0.9536873164	-2.1329987286	 0.170857683	-0.060797
C	-2.3589460076	-2.7255754374	 0.2041204576	-0.289415
C	-2.3354139103	-4.2370119465	 0.1192337295	 0.154743
O	-2.8985204281	-4.9752347509	 0.8838716919	-0.229359
H	 0.6059702745	 1.9211638647	-0.075675165	 0.271588
H	-1.0953844197	 1.6535796695	 0.0317463423	 0.266311
H	-0.3756213303	-2.5134549067	-0.6781241091	 0.128038
H	-0.3943400685	-2.3707672014	 1.0812515768	 0.13391
H	-2.9037508857	-2.4246799612	 1.1019693068	 0.132252
H	-2.9070930837	-2.3554871303	-0.6739746786	 0.13382
H	-1.7493580444	-4.6403052525	-0.7397455673	 0.079164
