23
gdb 106289	3.58793	1.1461	1.07419	0.1435	90.51	-0.2199	0.0177	0.2376	1277.9137	0.205457	-351.137032	-351.128059	-351.127115	-351.170131	36.008	
C	-0.2114742029	 1.5211651569	 0.0062756825	-0.380288
C	 0.0851205156	 0.0174712058	-0.0493706488	-0.302045
C	 0.7717736133	-0.5109888135	 1.1938978173	 0.319801
C	 0.1153945474	-0.4658380306	 2.6229816472	-0.278997
C	 1.2256774152	-1.533629974	 2.9301761294	 0.295593
C	 1.184870852	-2.43793958	 4.1406602568	-0.506675
C	 0.9589619907	-2.0461786856	 1.4689019455	-0.292583
C	 2.4815361935	-0.6780176174	 2.6713119615	-0.12969
C	 2.1897060298	-0.0170532491	 1.5500133032	-0.127898
H	 0.7061876929	 2.1060051929	 0.1290278305	 0.116469
H	-0.7028193819	 1.8611849781	-0.9105370459	 0.11043
H	-0.8695703762	 1.7622963225	 0.8476774601	 0.119333
H	-0.8525184938	-0.5321391003	-0.2017136605	 0.091176
H	 0.7111413857	-0.2024813267	-0.9249151485	 0.094357
H	 0.1602453913	 0.4773663302	 3.173451137	 0.08738
H	-0.8988835051	-0.8818669815	 2.6438473175	 0.082905
H	 0.2393112727	-2.9873662897	 4.1950778471	 0.112216
H	 1.9965185895	-3.1740897898	 4.1126735796	 0.115669
H	 1.2900405584	-1.8635213351	 5.0683154803	 0.115652
H	 0.0268075799	-2.616190512	 1.3755991695	 0.082469
H	 1.7790269142	-2.5550035419	 0.9552040182	 0.086018
H	 3.3730541682	-0.6599729245	 3.2837487902	 0.093559
H	 2.7780172297	 0.6937505252	 0.9857611	 0.095148
