16
gdb 54044	2.26152	1.24511	0.89932	3.3656	77.23	-0.2494	0.0124	0.2618	1284.08	0.12089	-400.712197	-400.702252	-400.701308	-400.748014	35.93	
N	-0.0796714044	 1.3992642833	-0.1068778274	-0.516817
C	 0.1330224558	 0.0548950933	-0.0109619334	 0.413717
O	 1.2327069312	-0.4486465684	 0.0391028328	-0.342763
C	-1.1716573593	-0.7899038558	-0.0223113041	-0.280853
C	-0.8387897431	-2.3055724982	-0.0436538595	-0.348742
C	-0.3879143491	-2.7594840696	-1.351993062	 0.311095
C	-0.0529056566	-3.1260323953	-2.4460286217	-0.448759
C	-2.0191546879	-0.4298036013	 1.1104853135	 0.30117
C	-2.7065570444	-0.1296199761	 2.0504223146	-0.452211
H	 0.7205467508	 1.9968278117	 0.0298452698	 0.264288
H	-0.9862811389	 1.7799648797	 0.1102826411	 0.264954
H	-1.7052500012	-0.5410604447	-0.9484933098	 0.139992
H	-0.0665761036	-2.496206528	 0.7073470789	 0.15881
H	-1.7348549757	-2.861079135	 0.2514136805	 0.136551
H	 0.2663751858	-3.455789526	-3.403330087	 0.195858
H	-3.3183163396	 0.1284451505	 2.8794969738	 0.20371
