19
gdb 72271	2.72382	1.86326	1.64385	0.5507	73.6	-0.2301	0.0773	0.3074	912.0856	0.161382	-422.994714	-422.987742	-422.986798	-423.025453	29.534	
O	-0.0378090665	 1.4096610126	-0.000571435	-0.491241
C	-0.004482487	 0.0170008362	-0.0735285098	 0.410704
C	 0.4247416948	-0.7451848436	-1.3321301345	-0.303509
C	-0.5146923147	-1.8761419993	-0.8135088379	-0.063628
C	 0.2928806599	-2.7790763968	 0.1172022433	-0.085888
O	 1.0704358939	-1.9624596154	 0.9977235956	-0.267296
C	 0.4027923045	-0.7415591771	 1.2669422954	 0.038583
C	-1.1101681118	-0.9533914082	 1.5575000894	-0.266589
C	-1.3162981278	-0.8048070414	 0.0397454291	-0.076423
H	 0.8632499544	 1.7287356377	 0.1250890168	 0.278289
H	 0.0275427286	-0.2546831523	-2.2251559103	 0.102607
H	 1.4817094179	-0.9904857295	-1.473921367	 0.096478
H	-1.0830795171	-2.4481603654	-1.5481998115	 0.073609
H	-0.3651751943	-3.4474378871	 0.6912335065	 0.095076
H	 0.9999339489	-3.4019602615	-0.4409937703	 0.10607
H	 1.0138457853	-0.1892945593	 1.9846359338	 0.073394
H	-1.3976867185	-1.876271739	 2.0682918773	 0.097688
H	-1.5345897255	-0.0975002184	 2.0883653277	 0.112062
H	-2.2641110552	-0.4759715921	-0.3875226986	 0.070013
