21
gdb 39501	2.32889	1.79423	1.21886	2.1685	78.75	-0.2281	0.0792	0.3074	1086.3584	0.184489	-424.196734	-424.188795	-424.187851	-424.228961	31.77	
C	-0.0169406141	 1.4137326802	 0.1031060037	-0.322486
C	 1.2794502466	 0.6327794023	 0.0504477475	-0.050554
C	 2.2323644893	 0.5778121637	 1.2388050455	-0.113019
O	 1.6593463619	 0.1022832274	 2.4387518073	-0.232559
C	 1.8051197229	-1.2901306509	 2.6606793748	-0.051818
C	 1.3157524353	-2.2047403281	 1.5310070009	-0.241105
C	-0.1764451079	-2.0859513571	 1.2125633603	-0.06004
O	-0.6309767956	-0.757199781	 1.0259620507	-0.231074
C	-0.0648751462	-0.0740577804	-0.0436181944	 0.117049
H	-0.3154942845	 1.773233581	 1.0825060849	 0.133982
H	-0.2966618441	 2.0493844265	-0.729506652	 0.107541
H	 1.8133971124	 0.6895295088	-0.8965400606	 0.082011
H	 3.116640616	-0.0222913291	 0.9705220466	 0.086072
H	 2.5930019179	 1.5922531911	 1.4519680554	 0.107293
H	 2.8647887942	-1.5224780604	 2.8624783085	 0.084914
H	 1.2425318042	-1.4928312773	 3.5789133575	 0.106691
H	 1.9106921302	-2.032904214	 0.6278428911	 0.109331
H	 1.5168148168	-3.2418550032	 1.8293481062	 0.099726
H	-0.4146827321	-2.7023658804	 0.3291667402	 0.084096
H	-0.7704095233	-2.4673733444	 2.0503634463	 0.106135
H	-0.32006451	-0.4945812748	-1.0194367505	 0.077813
