16
gdb 12621	3.23095	2.02397	1.36415	4.0231	66.89	-0.2388	-0.0498	0.189	888.8939	0.130199	-383.770628	-383.762753	-383.761808	-383.803888	28.764	
C	-0.0110637097	 1.5774240445	 0.0547386365	-0.379391
C	 0.0449932074	 0.0467948714	-0.0356113445	-0.129073
C	 0.8407396469	-0.5177548423	-1.2391188789	 0.056902
O	 1.293401461	 0.5329052549	-2.0858257758	-0.42045
C	 1.9860895745	-1.2810734781	-0.6010459348	-0.082038
C	 1.9254546371	-1.3073417199	 0.7327636804	-0.174903
C	 0.7440927556	-0.5443160165	 1.2039678648	 0.380246
O	 0.3858182547	-0.3928926669	 2.3483345086	-0.335895
H	 0.991781597	 2.0111135525	 0.0486960938	 0.128757
H	-0.561633018	 2.0003928454	-0.7880849683	 0.123055
H	-0.5078060816	 1.8580414938	 0.9869266452	 0.13109
H	-0.9802934353	-0.3387144916	-0.0448044121	 0.102102
H	 0.2127361225	-1.2134236798	-1.8176277634	 0.081954
H	 1.7230563911	 0.1380396506	-2.8512435859	 0.286456
H	 2.7568160406	-1.7477014657	-1.2078738736	 0.110785
H	 2.614471036	-1.7903929523	 1.4142753882	 0.120403
