20
gdb 70522	2.49018	1.70664	1.25481	2.2947	78.53	-0.2365	0.0218	0.2583	1063.4361	0.172963	-403.144061	-403.135994	-403.135049	-403.176228	31.878	
C	-0.1761160904	 1.4958690509	 0.0097646457	-0.469972
C	-0.0610139815	-0.0152818156	 0.0005174959	 0.350704
C	-0.8015098401	-0.821941163	 1.0447873897	-0.361088
C	 0.7039383144	-0.7008459224	 1.108121985	-0.049195
C	 1.6023233416	-1.8778947138	 0.7610469121	-0.199099
N	 2.679532596	-1.5764245094	-0.1842588628	-0.26514
C	 2.5252918266	-0.9366828106	-1.2607005656	 0.140248
O	 1.4481991982	-0.3870127633	-1.8864215352	-0.231525
C	 0.1262474746	-0.6307436279	-1.3645516134	-0.151317
H	 0.6859436072	 1.9547244673	-0.4857675743	 0.131594
H	-1.0804623911	 1.8283340921	-0.5139307658	 0.114941
H	-0.2220938148	 1.882554744	 1.0322000758	 0.115683
H	-1.395190321	-0.2774984982	 1.7713387004	 0.113956
H	-1.2232270159	-1.7807329071	 0.7587423118	 0.111002
H	 1.1027658602	-0.041066968	 1.8737679427	 0.091486
H	 2.0773157247	-2.2438374863	 1.6776091176	 0.109094
H	 1.010049978	-2.7223007087	 0.3868809842	 0.106312
H	 3.3986789268	-0.7378199764	-1.8833491192	 0.118152
H	-0.0641386507	-1.7080421433	-1.360575611	 0.110604
H	-0.5428218828	-0.1781148304	-2.1023439434	 0.113559
