23
gdb 113376	1.77805	1.31184	0.99196	0.8222	82.48	-0.2301	0.0688	0.299	1367.0444	0.203157	-425.396189	-425.385286	-425.384342	-425.432178	39.56	
C	 1.766160445	-1.1804626424	-1.2208513282	-0.394796
C	 0.4799826516	-0.7439462128	-0.5039464248	-0.250783
C	 0.5963259709	-0.6030647225	 1.0079818162	 0.265843
C	 1.7611393208	 0.2568349781	 1.4878694142	-0.150769
O	 1.8082402906	 0.4453068271	 2.8952571902	-0.41482
C	-0.7138911905	-0.5389247353	 1.7798885675	-0.393468
C	 0.1553071582	-1.7511855779	 1.8977376799	 0.116735
O	-0.3476712643	-2.9336061049	 1.3557266318	-0.235771
C	 0.6032540755	-3.9776002525	 1.3140288326	-0.244023
H	 2.1504824615	-2.1241763459	-0.8206530997	 0.122438
H	 1.5766696526	-1.3258270419	-2.2888604449	 0.113374
H	 2.5615629626	-0.4339674119	-1.1303878642	 0.118638
H	 0.1487108087	 0.2158224004	-0.9238663401	 0.093118
H	-0.312892437	-1.4670391993	-0.7175784841	 0.113576
H	 2.7091422038	-0.226932422	 1.2302439183	 0.112126
H	 1.7410163613	 1.2261068553	 0.9621027975	 0.087134
H	 1.1176816364	 1.0708877949	 3.1328278823	 0.286108
H	-0.8100442573	 0.1035351308	 2.6489470706	 0.092933
H	-1.6246512571	-0.6487533057	 1.2004773219	 0.119719
H	 0.7021731889	-1.8782170059	 2.831889488	 0.09592
H	 0.0981421383	-4.8564167446	 0.9061784786	 0.125777
H	 1.4636546553	-3.7319293561	 0.6756532096	 0.111342
H	 0.9793185345	-4.218547435	 2.3198733867	 0.10965
