20
gdb 82924	2.49685	1.80988	1.40887	1.3918	77.91	-0.2177	0.0749	0.2926	1002.5794	0.171541	-403.109353	-403.101126	-403.100182	-403.14158	32.736	
C	-0.2298918591	 1.4572120466	-0.1976002585	-0.313345
N	 0.0563111877	 0.0602409331	 0.1001350552	-0.097536
C	 1.3930882921	-0.5046003771	-0.0321557315	-0.021414
C	 2.6075852507	 0.425247006	-0.1332295465	-0.264908
C	 2.6712090012	 1.1380834583	 1.2131387982	-0.069272
C	 2.9447255718	 0.2892170624	 2.4447031353	-0.363518
C	 1.5330081779	 0.6775272853	 2.0854111349	 0.405896
O	 0.8476737916	 1.616919624	 2.8618780985	-0.475884
C	 0.7465027573	-0.3498229389	 1.3144842771	-0.131517
H	 0.5558242197	 2.1733859195	 0.0738578256	 0.118409
H	-0.4252794604	 1.5479920264	-1.2711912841	 0.11439
H	-1.1391225486	 1.7447913956	 0.3379078329	 0.126347
H	 1.4356351157	-1.4620489066	-0.5451638156	 0.086596
H	 3.5132669751	-0.1587447158	-0.3324995855	 0.102323
H	 2.5025487347	 1.1365409424	-0.9608693648	 0.106031
H	 2.9764100237	 2.1776705686	 1.2558095577	 0.093486
H	 3.2659450749	-0.7409672127	 2.3208059225	 0.109074
H	 3.3806073668	 0.809656116	 3.2906782013	 0.113406
H	 0.5424568581	 1.1763478847	 3.6625140899	 0.281931
H	 0.294723239	-1.1811740579	 1.8548269273	 0.079504
