16
gdb 21016	6.08006	1.26244	1.08454	1.3965	68.51	-0.2303	0.0253	0.2556	1078.7881	0.131266	-379.935272	-379.927087	-379.926142	-379.969173	28.365	
C	-0.2050878174	 1.3564085677	 0.0942853557	-0.316425
N	 0.0271801343	-0.0668304495	-0.0103689874	 0.060939
C	 0.3557644152	-0.7814261303	-1.1156695945	-0.024622
C	 0.4057452418	-2.105845079	-0.7384634214	-0.293084
C	 0.0808644225	-2.091880556	 0.6353782804	 0.359739
C	 0.0204144819	-3.2525954242	 1.5772541397	-0.184747
O	-0.5384609608	-4.3631263646	 0.8850761195	-0.418264
N	-0.1548020499	-0.8540029767	 1.0686686327	-0.341046
H	 0.1638024811	 1.8441632797	-0.8097836375	 0.136161
H	-1.2722211709	 1.5719340325	 0.208856698	 0.144992
H	 0.3278281906	 1.7524274915	 0.9615574037	 0.150795
H	 0.5215980816	-0.2978774413	-2.0658609356	 0.125736
H	 0.6324712972	-2.9605188595	-1.3530100306	 0.110479
H	 1.0342498412	-3.4939954478	 1.9375613497	 0.096001
H	-0.5772506382	-2.9651601628	 2.4541072923	 0.106134
H	-0.4545574101	-5.1344831498	 1.453175835	 0.287211
