15
gdb 11391	4.17685	1.54756	1.20337	2.1934	65.78	-0.2503	-0.0375	0.2128	964.856	0.119905	-399.817243	-399.810074	-399.80913	-399.848915	26.757	
O	 0.053256722	 1.4006416588	-0.0935391018	-0.415714
C	 0.056750289	-0.0017783297	 0.0483847214	-0.060799
C	-1.3684146803	-0.5638610018	 0.0732424527	 0.027655
O	-2.0093446171	-0.2148862055	-1.1697321759	-0.26656
C	-2.4235792854	-1.3575905658	-1.821071998	 0.39489
N	-3.0096807929	-1.388167815	-2.9417982603	-0.543569
C	-2.0638769392	-2.5048292675	-0.9769377898	-0.140121
C	-1.4636914424	-2.0608086151	 0.1272657342	-0.103454
H	-0.437706047	 1.5951635623	-0.9003244829	 0.294652
H	 0.6171674713	-0.4995598582	-0.7581398571	 0.099387
H	 0.5554511633	-0.2260973231	 0.9974202397	 0.114219
H	-1.9234141231	-0.0742720646	 0.8852681892	 0.112787
H	-3.137552432	-0.4447338479	-3.3102189676	 0.22312
H	-2.2852988165	-3.5217993699	-1.2643825816	 0.13583
H	-1.0809087897	-2.646081837	 0.9528312578	 0.127678
