23
gdb 120923	3.15041	0.87128	0.79361	1.4061	86.15	-0.243	0.0816	0.3246	1555.6612	0.204957	-388.262461	-388.252586	-388.251642	-388.297444	37.05	
C	-0.0982024659	 1.5274397037	 0.0470144139	-0.499246
C	 0.0251247816	 0.030102829	 0.0306797256	 0.35591
C	-0.8156449533	-0.8653705526	 0.9026190136	-0.327552
C	 0.681564666	-0.9246735655	 1.0355230673	-0.094064
C	 1.2637002056	-1.7690298528	-0.1023156761	-0.249212
C	 0.6319584343	-0.7726320472	-1.1386019688	-0.039874
C	-0.292200588	-1.2972262349	-2.2336158449	-0.19763
C	 0.4443150307	-2.0992338708	-3.2993762466	-0.071671
O	-0.5096838571	-2.5424395016	-4.2541171157	-0.421657
H	 0.8376026083	 2.0095233189	-0.2601919156	 0.112168
H	-0.8862471459	 1.8724852612	-0.6339571961	 0.119531
H	-0.3489985066	 1.8932710046	 1.0484158095	 0.115554
H	-1.3344448165	-0.3526211349	 1.7070944981	 0.105139
H	-1.3656852585	-1.7113753531	 0.4960635518	 0.102833
H	 1.1831765617	-0.6902882513	 1.9674580267	 0.079722
H	 2.3553841586	-1.7795603794	-0.1363218875	 0.098058
H	 0.9057683797	-2.8044130199	-0.1476482292	 0.091263
H	 1.4322391747	-0.1793881214	-1.5982684193	 0.064519
H	-1.0759934655	-1.9331587391	-1.8060905411	 0.103247
H	-0.8031216891	-0.4588508475	-2.7238846385	 0.102168
H	 1.2161527478	-1.4686998366	-3.7718079181	 0.080516
H	 0.9644965132	-2.9518150568	-2.8328018802	 0.086784
H	-0.0491791356	-3.0603982219	-4.9205893488	 0.283496
