24
gdb 9415	5.60517	0.71327	0.6661	0.9714	83.28	-0.2493	0.0828	0.332	1788.4206	0.221134	-351.405818	-351.394926	-351.393981	-351.442446	38.018	
C	-0.1780690201	 1.5065070841	 0.0943303737	-0.392461
C	 0.0209574809	-0.0078812087	-0.0236799955	-0.164739
C	 0.8181175438	-0.4665535181	-1.2608081845	 0.040057
C	 2.2673724245	 0.0437362476	-1.2292143775	-0.390937
C	 0.7491468004	-1.9992990875	-1.385028238	-0.195157
C	 1.3201233843	-2.5627018713	-2.6811628294	-0.063034
O	 1.0556695429	-3.9502105508	-2.7138769352	-0.229463
C	 1.5620813807	-4.5771063453	-3.8652956163	-0.225993
H	 0.7681195097	 2.039455329	 0.2285864311	 0.117445
H	-0.6634028887	 1.9121057735	-0.8008846952	 0.112116
H	-0.8124685856	 1.7495452804	 0.952608653	 0.111986
H	 0.5186759057	-0.3848645142	 0.8806802161	 0.092107
H	-0.9638144844	-0.4914625951	-0.0488331066	 0.092127
H	 0.3261178951	-0.0358622855	-2.1467401526	 0.066795
H	 2.8178296999	-0.2347546411	-2.1325956667	 0.113716
H	 2.3101980363	 1.1336268577	-1.1503162616	 0.114022
H	 2.8063097905	-0.3741495089	-0.3699092508	 0.111822
H	 1.2697103984	-2.4655649218	-0.5383072936	 0.09928
H	-0.2966857531	-2.3226507551	-1.3215653064	 0.101413
H	 0.8563402944	-2.065089687	-3.5521943944	 0.079871
H	 2.4060710233	-2.3862967354	-2.7528588696	 0.084158
H	 1.1218186464	-4.1621774669	-4.7867008231	 0.10014
H	 2.6574983571	-4.4791873752	-3.939039463	 0.100306
H	 1.3077284375	-5.6381951944	-3.8014213739	 0.124424
