16
gdb 26435	4.21686	1.01074	0.9291	3.7176	72.99	-0.2337	0.0075	0.2412	1251.7426	0.125766	-434.121902	-434.113485	-434.112541	-434.156221	29.601	
C	-1.0441551683	 1.058179848	 0.1512486424	-0.362534
N	-0.0808785172	-0.0359039936	 0.0313505172	-0.170714
C	 0.7530734686	-0.3301807856	 1.0894068709	 0.132662
O	 0.7423877189	 0.2368710298	 2.1573568016	-0.324415
C	 0.0807487043	-0.6899865427	-1.1947751078	 0.310614
C	 1.0911671433	-0.6891429502	-2.1224548581	-0.126657
N	 0.7864159658	-1.5201183444	-3.1734003424	-0.246387
C	-0.3983400003	-2.0143032602	-2.8964426713	 0.024558
N	-0.8767940494	-1.5513207084	-1.7085120835	-0.292203
H	-0.822185409	 1.8446924309	-0.5765661028	 0.139669
H	-2.0665945982	 0.703706131	-0.0167790664	 0.120833
H	-0.9614900212	 1.4551676889	 1.1630702224	 0.17311
H	 1.4393886673	-1.1584096573	 0.8367202219	 0.091474
H	 2.0144594626	-0.1312649192	-2.0844712597	 0.120126
H	-0.9578301828	-2.7011704684	-3.5141063822	 0.137359
H	-1.7417965745	-1.8057710785	-1.2606565123	 0.272506
