16
gdb 51036	2.10173	1.55502	1.14602	3.5052	71.1	-0.2557	0.0081	0.2638	1102.9694	0.122305	-437.840269	-437.83121	-437.830266	-437.875389	31.992	
O	-0.1486928876	 0.1398292884	-0.654446724	-0.315754
C	-0.0649850347	 1.2003311952	-0.0758011321	 0.152316
N	 1.1086545861	 1.812575827	 0.2555580928	-0.332569
C	 2.3975736239	 1.1513141996	 0.0919091056	 0.059873
C	 2.7051896956	 0.7298097506	-1.3764630222	-0.084926
O	 3.7602583603	 1.7068338962	-1.487093899	-0.264309
C	 3.5643702762	 2.1562093936	-0.1426644237	-0.107946
C	 2.640190147	 0.1431020329	 1.1153401298	 0.345009
C	 2.8641008581	-0.6714777118	 1.969844805	-0.470894
H	-0.9439128538	 1.8064137348	 0.2199056414	 0.087334
H	 1.0686010482	 2.6043097166	 0.8802553254	 0.25217
H	 3.0710816721	-0.2950566019	-1.4822977605	 0.122407
H	 1.8880640518	 0.9120947195	-2.0766878329	 0.132902
H	 3.2636166429	 3.2110246302	-0.091095467	 0.100505
H	 4.4410947084	 1.9891323093	 0.491809718	 0.118668
H	 3.0481991054	-1.4033445003	 2.7174049234	 0.205214
