18
gdb 80014	2.88136	1.80862	1.6177	3.1844	73.76	-0.2344	0.0008	0.2352	901.6393	0.151257	-401.91092	-401.904482	-401.903538	-401.94117	28.199	
O	 0.1150307423	 1.3954526566	-0.0964717218	-0.462686
C	 0.0410110777	-0.0018806289	-0.0167908969	 0.166788
C	 0.4168179264	-0.6255892129	 1.3651214754	-0.120405
C	-0.7752096237	-0.1283430734	 2.1896526359	-0.098546
C	-1.848724746	-0.1173402129	 1.3854133556	-0.098544
C	-1.3988930128	-0.6069727355	 0.0048532441	-0.120405
C	-1.0825654945	-2.107531537	 0.2229208054	-0.024128
N	 0.2277148067	-2.5688790986	-0.3011370264	-0.348905
C	 0.098972615	-2.1196458478	 1.1080920155	-0.024128
H	-0.4217341144	 1.7486733353	 0.6248537587	 0.270475
H	 0.6474257708	-0.388027946	-0.8315286243	 0.116943
H	 1.4105766524	-0.396697831	 1.7496514546	 0.067874
H	-0.7473970628	 0.0990420305	 3.2478934293	 0.099113
H	-2.8690777834	 0.1207899708	 1.6584056951	 0.099113
H	-2.0440800198	-0.3612750618	-0.8384600315	 0.067874
H	-1.8951845397	-2.8188265303	 0.3258064898	 0.090003
H	 0.2321109116	-3.5864747124	-0.3209308958	 0.22956
H	 0.2191916342	-2.8405042047	 1.9098316073	 0.090003
