20
gdb 67707	2.26432	1.95312	1.71042	0.4384	77.18	-0.2293	0.0886	0.3179	951.6128	0.173314	-403.141284	-403.133788	-403.132844	-403.172945	30.078	
C	-0.0840742139	 1.4378682302	 0.015962925	-0.504971
C	 0.07840627	-0.0564340087	 0.001192024	 0.31561
C	 0.7510241123	-0.8806881422	-1.0298803537	-0.101695
C	 1.5744034858	-1.9351894716	-0.3233556042	-0.103366
O	 1.3269455049	-1.7881469205	 1.0732590576	-0.278749
C	 0.2322576398	-0.8890508645	 1.2858772127	 0.040614
C	-1.0823646714	-1.6798862786	 1.3467645338	-0.219922
C	-1.3378869362	-1.9986772293	-0.1424134395	-0.170551
N	-0.7273624763	-0.8888527131	-0.9149101782	-0.152187
H	 0.8076754297	 1.927588144	 0.422217289	 0.121678
H	-0.2537177659	 1.8104621915	-0.9975163007	 0.131613
H	-0.9413786109	 1.7373756346	 0.6297736255	 0.120411
H	 1.1258924299	-0.4736148469	-1.9651522849	 0.093309
H	 1.3282773996	-2.957836681	-0.6458988851	 0.101207
H	 2.6425077348	-1.7747946933	-0.5202267848	 0.105164
H	 0.4452116347	-0.306407823	 2.1857054193	 0.078483
H	-0.9989984785	-2.5636514852	 1.983511815	 0.1082
H	-1.8829270887	-1.0436344046	 1.7419551845	 0.099314
H	-0.9060368595	-2.9630320177	-0.4315581326	 0.108582
H	-2.4030834502	-2.0367752701	-0.3845753328	 0.107255
