17
gdb 96740	1.8647	1.24423	0.76355	5.5636	75.28	-0.2428	-0.0357	0.2071	1430.3054	0.133093	-455.176602	-455.166613	-455.165668	-455.213093	33.674	
C	-0.0437941644	 1.4800083718	 0.0246828585	-0.351044
N	 0.1179094331	 0.0434075401	-0.1037978326	-0.260968
C	 0.7409943847	-0.6207569688	 0.7851312409	 0.398063
C	 0.9001461963	-2.108462038	 0.6033958234	-0.37054
C	 0.0160811941	-2.6240544267	-0.5204153493	 0.182334
O	 0.4123586351	-3.3330380133	-1.4072623117	-0.247744
N	 1.313733527	-0.025576108	 1.9263414855	-0.365854
C	 1.9911150914	-0.6040616539	 2.9816763473	 0.164293
O	 2.2159847186	-1.7782464342	 3.1384826522	-0.28645
H	 0.9202652632	 2.011685253	 0.0068325274	 0.122911
H	-0.6329678448	 1.8497631364	-0.8170240026	 0.142428
H	-0.5721968162	 1.7672555161	 0.9471903594	 0.119215
H	 1.942665813	-2.3653209257	 0.3930722615	 0.1533
H	 0.6413106726	-2.6331380567	 1.530366325	 0.159212
H	-1.0509200644	-2.3335781364	-0.4376725239	 0.087592
H	 1.2229546918	 0.9782368859	 1.9809162709	 0.256513
H	 2.3172602788	 0.1721908185	 3.701124348	 0.096739
