17
gdb 14684	8.44067	0.67365	0.64086	2.9406	70.31	-0.2566	-0.0386	0.218	1702.4255	0.138473	-400.994617	-400.985098	-400.984154	-401.031086	31.477	
C	 0.5272609444	 0.9504618462	 0.5311228051	-0.397818
C	-0.3064082781	 0.0428790286	-0.3788779449	-0.111876
N	 0.3761628866	-0.7868289178	-1.3579712768	-0.220503
C	 1.6251617599	-0.7763553608	-1.4539208042	 0.129109
O	 2.2374273295	-1.5870131308	-2.3569047428	-0.206605
C	 3.6321513171	-1.4294364147	-2.5261986124	-0.166545
C	 4.237965262	-2.7872436948	-2.8501982599	 0.141474
O	 5.3610428299	-2.9263609001	-3.2523067365	-0.229889
H	 1.2231471636	 0.3779444762	 1.1539094174	 0.119568
H	 1.1052262734	 1.6838108901	-0.0416280553	 0.120005
H	-0.1366732638	 1.5041604361	 1.201496498	 0.119623
H	-0.9138357114	-0.6314067413	 0.2390725456	 0.117389
H	-1.0318269356	 0.6527775394	-0.9330426434	 0.117559
H	 2.326662464	-0.1734527444	-0.8629691949	 0.081295
H	 3.8603701605	-0.7278720537	-3.3388363305	 0.144768
H	 4.1128961594	-1.0500052424	-1.6116798231	 0.135821
H	 3.5478159285	-3.6396434959	-2.6693989412	 0.106625
