18
gdb 39568	3.46727	1.53703	1.11855	2.2819	76.7	-0.2396	0.0139	0.2535	1057.2805	0.151299	-401.961967	-401.955117	-401.954173	-401.993137	27.646	
C	-0.0264677182	 1.5904308473	-0.000184834	-0.322113
C	 1.471593176	 1.867454224	-0.074034319	-0.061736
C	 2.1930615692	 0.8419561658	 0.3848008541	-0.121549
C	 1.2683991605	-0.2332351361	 0.9092045402	 0.050561
N	 1.6351253784	-1.6394660934	 0.8175140068	-0.296397
C	 0.6328626618	-2.4169767261	 0.8117889562	 0.133744
O	-0.6954637783	-2.131922811	 0.8620080116	-0.244332
C	-1.1307219462	-0.7496728391	 0.7486382654	-0.112845
C	-0.0179161335	 0.0580503306	 0.1213602838	 0.016695
H	-0.4695509294	 2.069569802	 0.8865341071	 0.107198
H	-0.5803102388	 1.9570755116	-0.8705245182	 0.106507
H	 1.8704339004	 2.8119028857	-0.4260943638	 0.096956
H	 3.2716501573	 0.7957923357	 0.4713854984	 0.104258
H	 1.0944122314	-0.015806606	 1.9795286317	 0.090555
H	 0.7623974142	-3.4965935082	 0.7661086789	 0.12308
H	-2.0442062648	-0.7808002006	 0.1476051439	 0.117671
H	-1.3877526347	-0.3906886281	 1.7525547408	 0.113275
H	 0.1550563847	-0.3417496242	-0.8868425239	 0.098472
