19
gdb 2464	5.35561	2.11745	1.79515	0.2777	70.15	-0.2578	0.0823	0.3401	781.8658	0.173753	-273.789182	-273.782512	-273.781568	-273.819482	26.538	
C	 0.0172144159	 1.559813562	 0.0130978416	-0.405112
C	 0.0699546885	 0.0335395642	 0.0075062859	 0.074368
C	 0.8384213742	-0.5849680999	-1.1890091968	-0.238582
C	 1.2928374272	-1.9636917212	-0.7071054819	-0.024777
C	 2.5576785168	-2.0310616265	 0.11043451	-0.276129
C	 1.2234740005	-1.9716479551	 0.8097917689	-0.024778
C	 0.7263176003	-0.5978249948	 1.2626184975	-0.238582
H	 1.0262223899	 1.9867102445	 0.0614739716	 0.110068
H	-0.4637405695	 1.9472291346	-0.8916868302	 0.110285
H	-0.5444882919	 1.9379702897	 0.874219969	 0.110285
H	-0.9581594795	-0.3502560286	-0.0415183439	 0.069692
H	 0.2066455876	-0.651798031	-2.080034383	 0.09434
H	 1.6972340704	 0.0437839895	-1.4597389733	 0.091748
H	 1.0083715394	-2.8379688067	-1.281924575	 0.078233
H	 3.0995294057	-2.9712504452	 0.1302799985	 0.103224
H	 3.1950569712	-1.1509865252	 0.1441968593	 0.101398
H	 0.8881523502	-2.8517555738	 1.3470701783	 0.078233
H	 1.5565397792	 0.027647071	 1.61715897	 0.091748
H	 0.0158965239	-0.6736741373	 2.0915224435	 0.09434
