18
gdb 105324	2.45169	1.54452	1.18116	1.9206	78.01	-0.2348	0.0345	0.2693	1102.4893	0.145663	-401.8463	-401.837502	-401.836558	-401.87952	33.403	
C	-0.0082306329	 1.3541645422	 0.1160500047	-0.253154
O	-0.1061622087	-0.046859867	-0.054540571	-0.270255
C	 0.6239273084	-0.5633989675	-1.1341816313	 0.268917
C	 2.2160836643	-0.5758259393	-1.0345425365	-0.30398
C	 2.1526903229	-2.1007269118	-1.1416578305	-0.023706
N	 1.3960922281	-2.5462248938	 0.0493297319	-0.33208
C	 0.6647596662	-2.1006377984	-1.156899687	-0.119547
C	 0.1715886833	-0.0339603281	-2.423902187	 0.306828
C	-0.2112722821	 0.4034497637	-3.476661527	-0.485839
H	 1.0315983584	 1.6718720547	 0.280164827	 0.107777
H	-0.4093021369	 1.9004979061	-0.7479298537	 0.118432
H	-0.5960237756	 1.6011765368	 1.0025690209	 0.129259
H	 2.6929998692	-0.0723228083	-1.8752760264	 0.117116
H	 2.6113840945	-0.2098053736	-0.0847730228	 0.116123
H	 2.8431892226	-2.7578047594	-1.653687731	 0.095337
H	 1.3717846192	-3.5659455775	 0.0345348265	 0.230642
H	-0.0433762738	-2.7431745749	-1.6639495257	 0.100497
H	-0.5504141871	 0.7871148062	-4.4072877013	 0.197632
