22
gdb 7824	2.96418	1.61131	1.12405	1.4645	78.04	-0.2575	0.0796	0.3372	1117.6243	0.201881	-350.235726	-350.22736	-350.226416	-350.267895	33.066	
C	-0.0182749123	 1.5544822659	 0.0294652039	-0.401727
C	 0.0231458477	 0.0236014083	 0.0045251996	 0.034765
C	 0.6999839542	-0.5090091752	-1.2703621058	-0.175254
C	 0.7703647587	-2.0422919003	-1.2871839755	-0.215624
C	 1.462575673	-2.5803175967	-0.0267298269	-0.212441
C	 0.7810786888	-2.0656292773	 1.2461547092	 0.125557
O	 1.4746451315	-2.4633661824	 2.4235536012	-0.442143
C	 0.721326885	-0.5393340046	 1.2539260453	-0.174909
H	 0.9948331098	 1.9738627536	 0.0298793469	 0.112366
H	-0.542409956	 1.9525850885	-0.8460289265	 0.107505
H	-0.5299519292	 1.9243317017	 0.9243192793	 0.110205
H	-1.0148663996	-0.3431796248	 0.0055623016	 0.067178
H	 0.1657648703	-0.1450162501	-2.1561581396	 0.08708
H	 1.718026258	-0.0974948628	-1.3305431006	 0.090249
H	-0.2476608912	-2.451556504	-1.3470123981	 0.093167
H	 1.2952578833	-2.3905741787	-2.1835150581	 0.092634
H	 1.4655574185	-3.6785735053	-0.030866322	 0.076555
H	 2.5120496852	-2.2584083902	-0.0052108242	 0.10001
H	-0.2528348694	-2.4547577755	 1.2698113096	 0.056762
H	 1.5529428933	-3.4227171256	 2.4102552983	 0.276076
H	 1.7501112206	-0.1569265252	 1.3078249133	 0.096362
H	 0.2135942499	-0.2037354594	 2.1651567392	 0.095624
