18
gdb 72592	2.18955	1.67121	1.49496	3.3478	71.94	-0.238	0.0053	0.2432	1015.7297	0.146719	-439.098113	-439.089475	-439.088531	-439.130992	32.483	
C	 0.1021959333	 1.606973893	-0.1407456885	-0.486143
C	 0.0530909825	 0.1216119559	 0.0590966245	 0.405229
C	 0.5999426384	-0.8844794744	-0.9737729008	-0.223084
N	 1.3062631431	-1.6180691427	 0.1124440545	-0.3536
C	 0.7557655133	-0.7238738105	 1.1687718122	 0.072776
C	 1.7136671955	-0.2801262773	 2.2423327317	-0.477626
C	-0.6842826975	-1.0949469174	 1.5480451452	 0.423216
O	-1.2399934182	-1.7875940246	 2.3412774397	-0.338432
O	-1.255234055	-0.3440395589	 0.5444826716	-0.298581
H	 1.1126320665	 1.9211102484	-0.418193617	 0.132908
H	-0.580975907	 1.9079278314	-0.942045206	 0.140727
H	-0.1913745596	 2.1338389791	 0.7716526002	 0.135706
H	-0.1899915864	-1.4294450667	-1.4999418152	 0.119625
H	 1.300747468	-0.4671153878	-1.7044949496	 0.113821
H	 1.0688719911	-2.5998527887	 0.2128449277	 0.234261
H	 2.6484406228	 0.0708677393	 1.7974520619	 0.12956
H	 1.2828457915	 0.5179616268	 2.8552183098	 0.127323
H	 1.9450805978	-1.120567835	 2.9053794581	 0.142314
