21
gdb 64280	2.80649	1.40686	1.24833	1.8892	77.24	-0.2558	0.0626	0.3185	1110.5174	0.182885	-424.23256	-424.224035	-424.223091	-424.26507	34.239	
C	-0.0117581974	 1.5559804947	 0.0192282789	-0.430606
C	-0.0084073778	 0.0243801243	-0.016783306	 0.350889
O	-1.3598021826	-0.4612836766	 0.0370097823	-0.468008
C	 0.6843255028	-0.5008545261	-1.2883314605	-0.24161
C	 0.5891644011	-2.0281154576	-1.3999098622	-0.241431
C	 1.0769380034	-2.7119562253	-0.1449049654	 0.075982
O	 2.3093890485	-2.2313747705	 0.402890003	-0.265246
C	 1.0966418111	-1.9915534933	 1.136652743	 0.040816
C	 0.6622024701	-0.5428615264	 1.2482857006	-0.224951
H	 1.0053895379	 1.9586316323	-0.0205174552	 0.117577
H	-0.5629141066	 1.9605107225	-0.8382428034	 0.100796
H	-0.4938482052	 1.9162555387	 0.9330220584	 0.120868
H	-1.8202412122	-0.1313573458	-0.7425615676	 0.273475
H	 0.2277798517	-0.0341065134	-2.1706379499	 0.079947
H	 1.7357781987	-0.1961099295	-1.2755896326	 0.115495
H	-0.4522194184	-2.3268325954	-1.5629332183	 0.106253
H	 1.1662439205	-2.3831210782	-2.261961859	 0.100706
H	 0.9753472847	-3.7981242864	-0.1262514756	 0.082372
H	 1.0275202957	-2.575158278	 2.0547834094	 0.086777
H	 1.5431831892	 0.0578437783	 1.5003385785	 0.108809
H	-0.0500489251	-0.4374499483	 2.0727400818	 0.111091
