19
gdb 76723	3.19283	0.82818	0.77706	2.0209	72.59	-0.2443	-0.0365	0.2078	1515.1358	0.155144	-460.132669	-460.12234	-460.121396	-460.16942	35.598	
C	-0.1357703642	 1.4206220184	 0.3734689345	-0.402674
C	 0.0418417077	-0.0637447542	 0.1474085361	-0.088703
C	 1.3852046122	-0.6085982316	-0.3138177989	 0.082297
O	 2.471497222	 0.2560518543	-0.4444477632	-0.426936
C	 0.8950251833	-0.9229459351	 1.0699160631	 0.039846
O	 1.6553601439	-0.3160564389	 2.0753317153	-0.26905
C	 0.9737882708	-0.1429179353	 3.299680448	-0.148027
C	 1.9326157438	 0.4950774395	 4.2896066603	 0.139774
O	 1.6286345747	 0.7825754304	 5.4156357983	-0.232439
H	 0.7663383029	 1.8675979654	 0.7947462936	 0.123625
H	-0.3395552108	 1.9292707406	-0.57414924	 0.127086
H	-0.9728036034	 1.6262983233	 1.0489555202	 0.114255
H	-0.8266757228	-0.5750876284	-0.2609361962	 0.088183
H	 1.3948847671	-1.4042455819	-1.0540909981	 0.09973
H	 2.8590498252	 0.356655173	 0.4335378332	 0.297659
H	 0.5636447176	-1.9313590724	 1.3178636962	 0.092762
H	 0.0873694656	 0.4980205908	 3.1903071303	 0.137306
H	 0.6338101386	-1.1077020788	 3.7088036419	 0.130678
H	 2.950839236	 0.6724947909	 3.8774530053	 0.094629
