18
gdb 116769	4.12107	0.68956	0.62632	3.6329	73.8	-0.2408	-0.0364	0.2044	1751.0126	0.143297	-476.207346	-476.196624	-476.19568	-476.244759	35.656	
C	 0.3190285277	 0.9587191975	 0.2408579996	-0.251847
O	-0.2335688424	 0.0438537565	-0.6981715453	-0.193483
C	 0.5667786293	-0.9855004824	-1.0431782617	 0.123996
N	 0.1383708752	-1.8627140623	-1.8385528445	-0.241594
C	 0.9735077228	-2.9642731878	-2.2628370819	-0.15462
C	 2.4703962656	-2.9443799507	-1.9112675021	-0.012296
O	 2.7549593725	-3.0163789212	-0.5199505515	-0.426451
C	 3.2241842052	-4.0457381999	-2.6569125488	 0.136784
O	 3.0134944382	-4.3692033247	-3.7962353749	-0.240223
H	 0.5091263087	 0.4773622467	 1.2078234266	 0.12815
H	 1.2509661708	 1.402884518	-0.1296867225	 0.126951
H	-0.4227247045	 1.7469499539	 0.3743537385	 0.146576
H	 1.5561754118	-0.9688676999	-0.5710157673	 0.104368
H	 0.5333535778	-3.8971756456	-1.87565802	 0.105751
H	 0.9079962812	-3.0513113467	-3.353321052	 0.144212
H	 2.9015488161	-1.990246014	-2.2484389921	 0.124298
H	 2.2037896707	-3.7080246364	-0.1371337457	 0.290222
H	 4.0060216731	-4.534808021	-2.0313122445	 0.089207
