17
gdb 1718	4.00358	2.25417	1.96529	2.4479	59.71	-0.2465	0.0719	0.3184	740.6517	0.147768	-346.838702	-346.831177	-346.830233	-346.870205	27.71	
C	-0.2983767222	 1.695475033	-0.1708882769	-0.439028
C	-0.0568934475	 0.19763334	-0.1284192318	 0.413834
C	-1.3381419493	-0.5964927616	 0.1413325995	-0.089407
O	-1.8074058633	-0.3436403603	 1.449528096	-0.422412
C	 0.8701915408	-0.411212039	-1.2075512006	-0.339373
C	 1.7463332103	-0.849810952	-0.0193244961	-0.064882
O	 0.9022754569	-0.1532151732	 0.9246367099	-0.333833
H	 0.6495506148	 2.2379737793	-0.2184498171	 0.115644
H	-0.896960657	 1.9585266152	-1.0501667287	 0.115039
H	-0.8438222458	 2.0109906194	 0.7224963525	 0.13826
H	-2.1322751037	-0.3016684546	-0.5539368834	 0.104855
H	-1.1384661109	-1.6698677137	-0.0117616491	 0.077524
H	-1.0403685188	-0.4792281378	 2.0220470462	 0.291068
H	 0.4362563256	-1.210966619	-1.8113007132	 0.109164
H	 1.3326133785	 0.3263512257	-1.8656384617	 0.111346
H	 1.7702327625	-1.9298605245	 0.1710171153	 0.10422
H	 2.7725461391	-0.4665919968	-0.0021157209	 0.107982
