20
gdb 100408	2.63614	1.0426	0.81592	2.6102	80.53	-0.228	0.0173	0.2453	1444.6973	0.168353	-440.270966	-440.260809	-440.259865	-440.307056	36.416	
C	-0.3452408781	 1.3500283494	 0.3168468794	-0.232602
O	 0.0680155754	 0.0084778208	 0.0683271728	-0.239428
C	 0.6852848288	-0.6376059682	 1.0804530823	 0.417228
C	 1.0565631608	-2.0418137645	 0.6747947177	-0.494927
N	 0.8878375909	-0.0636550242	 2.1944858316	-0.324919
C	 1.5092412003	-0.746482286	 3.2764794061	-0.012564
C	 2.6766739319	-0.0394940501	 3.9641267603	-0.338523
C	 1.3183338701	-0.0583789966	 4.6125635376	 0.131835
O	 0.5432541789	 1.0946526028	 4.6439711022	-0.434554
H	 0.5089735457	 1.9799354001	 0.5811340797	 0.134328
H	-0.8005946439	 1.6953269168	-0.6122551127	 0.129623
H	-1.0727131923	 1.3895170579	 1.1335323919	 0.130942
H	 2.1156121238	-2.2307742035	 0.8700669612	 0.149299
H	 0.4787143191	-2.7743730328	 1.2477181602	 0.149265
H	 0.8535618385	-2.1908068904	-0.3856095924	 0.144671
H	 1.530526204	-1.8340319425	 3.2579555596	 0.082386
H	 3.4702916328	-0.6567234587	 4.3718744267	 0.109447
H	 2.9946665794	 0.9006183366	 3.527729525	 0.119187
H	 1.1743594139	-0.6775795072	 5.4933117606	 0.095497
H	 0.2776735197	 1.2437487503	 3.7230555403	 0.283809
