23
gdb 59177	2.57001	1.27692	1.01443	1.948	85.92	-0.2286	0.0777	0.3063	1299.8905	0.203723	-388.237209	-388.227497	-388.226553	-388.271637	37.245	
C	-0.0418912554	 1.5122680003	 0.0949952696	-0.38316
C	-0.2052165487	-0.0155499654	 0.0603742256	-0.02586
C	-1.6908564133	-0.4054188913	 0.0085733943	-0.387343
C	 0.5441989854	-0.5995570897	-1.1349160848	 0.031924
C	 2.0926045731	-0.6538564257	-1.2455617058	 0.016942
C	 2.1549272718	-1.8151324844	-0.2305565022	-0.272391
C	 1.0110305649	-2.0913693432	-1.2467472996	 0.380867
C	 0.2209792997	-3.3426404295	-1.4763450324	-0.513718
O	 1.9409368503	-1.6525463925	-2.326604566	-0.34349
H	 1.0105215271	 1.8020248149	 0.1787299107	 0.113196
H	-0.4411180108	 1.9690446702	-0.818258823	 0.115174
H	-0.5785782707	 1.9459587453	 0.945253389	 0.110401
H	 0.2135458375	-0.4171534016	 0.9911614047	 0.071473
H	-2.1635400604	-0.0227818991	-0.9037008589	 0.11514
H	-1.8254570559	-1.4916460193	 0.0213846063	 0.113644
H	-2.2354380766	 0.009246601	 0.863267609	 0.111078
H	 0.0992342417	-0.2617594519	-2.0779651818	 0.07211
H	 2.8044527719	 0.1548227978	-1.4131961903	 0.087561
H	 3.0225436248	-2.4677426709	-0.3395209234	 0.102327
H	 1.9023678235	-1.6254675721	 0.8147072016	 0.093842
H	-0.3890228043	-3.5770233219	-0.5983670317	 0.126234
H	-0.4420139892	-3.2277786626	-2.3392452496	 0.131905
H	 0.8920779735	-4.1865570085	-1.6640388015	 0.132143
