17
gdb 16893	3.98251	1.94007	1.47343	1.6346	69.07	-0.2389	0.0347	0.2736	880.4411	0.143316	-363.869554	-363.86233	-363.861386	-363.901095	27.41	
C	 0.2676846689	 1.3941065856	 0.1489508963	-0.449691
C	-0.0841386218	-0.0545491873	-0.0234116332	 0.390014
N	 0.1251835641	-0.6696429093	-1.1097165253	-0.305657
C	-0.2659035845	-2.0625246435	-1.2705252621	-0.180384
C	-0.7657700965	-2.763891541	-0.0196628363	-0.07343
C	 0.1547550111	-2.9246210223	 1.1750411952	-0.317992
C	-0.953011732	-1.908644434	 1.1939782852	 0.110454
O	-0.6279277056	-0.5407889176	 1.1335109946	-0.257044
H	 0.9817397941	 1.5167311071	 0.9696951612	 0.135688
H	 0.6981850414	 1.7764159619	-0.7754628731	 0.143029
H	-0.6248030791	 1.9723832776	 0.4089154235	 0.136421
H	-1.057490571	-2.0907108412	-2.0309864872	 0.115541
H	 0.5844309375	-2.6024573046	-1.7081996089	 0.1099
H	-1.4979837818	-3.5480207679	-0.1852997444	 0.092622
H	 0.0560989299	-3.8056183437	 1.7993787831	 0.117222
H	 1.167041748	-2.5442304345	 1.0795404765	 0.127387
H	-1.8047569428	-2.0520210455	 1.8483553849	 0.10592
