21
gdb 97798	3.43503	0.64575	0.57995	1.3284	90.48	-0.2284	0.0514	0.2799	1981.0535	0.180724	-387.050242	-387.039552	-387.038608	-387.08817	37.527	
C	-0.0058676274	 1.5903103256	-0.2908546068	-0.361633
C	-0.0091032014	 0.1317347872	 0.2031964978	-0.314961
C	-1.3369045376	-0.4746153905	 0.1935097144	 0.067442
C	-2.4446918988	-0.9517063087	 0.1703999093	 0.07337
C	-3.7709283988	-1.5030214325	 0.164023382	-0.205076
C	-4.346979401	-2.1349797004	-1.095522526	-0.278449
C	-4.0155791056	-3.0057651901	 0.0795925008	 0.018318
C	-2.8606250501	-3.9670251504	 0.0121960497	-0.103301
O	-3.3138119237	-5.1490334145	-0.6375337836	-0.422045
H	 1.0080660981	 2.0011062498	-0.2648272687	 0.1118
H	-0.378237698	 1.6531811314	-1.3169353935	 0.127186
H	-0.6468631027	 2.2139461007	 0.3381720667	 0.127087
H	 0.6675150878	-0.4658106099	-0.4216784176	 0.125429
H	 0.4072672305	 0.0897683389	 1.2183154232	 0.125477
H	-4.4827457505	-0.9620863125	 0.7815623314	 0.107477
H	-5.3877689667	-1.9390325338	-1.3268192733	 0.115542
H	-3.6918789252	-2.1884113727	-1.9576635827	 0.124753
H	-4.8555163898	-3.3677311004	 0.6653818994	 0.094541
H	-2.0256933496	-3.5012559926	-0.5312554485	 0.094594
H	-2.5030400594	-4.1875129147	 1.0307331534	 0.087894
H	-2.5949130998	-5.78777999	-0.6234495574	 0.284557
