20
gdb 39402	2.43102	2.11188	1.75826	0.9017	76.57	-0.211	0.0784	0.2894	900.7012	0.174937	-403.093103	-403.086384	-403.08544	-403.123794	28.373	
C	-0.1005840429	 1.4803174774	-0.1059544864	-0.249508
C	 1.4536771546	 1.4746091177	-0.0530185677	 0.019654
C	 2.0550774019	 1.8189161933	 1.3144119999	-0.251539
C	 1.5290152134	 1.0219985878	 2.54468395	-0.080848
O	 0.3724277754	 0.2226928823	 2.3347092236	-0.260847
C	 0.402432896	-0.6882446021	 1.2513428418	 0.090576
C	 1.7812480395	-0.9429087001	 0.5865587809	-0.214861
N	 1.4733220613	 0.0200910882	-0.5098334078	-0.144251
C	 0.0044319792	-0.0423786091	-0.1191932311	 0.009003
H	-0.6294225483	 1.9329294487	 0.7336797565	 0.111084
H	-0.4879011155	 1.8777710403	-1.0463543141	 0.105006
H	 1.9402717759	 2.1085869588	-0.7999594272	 0.080216
H	 3.1450732308	 1.7071387026	 1.2633747968	 0.106748
H	 1.8693410109	 2.8887299253	 1.4663773411	 0.109076
H	 2.3371457563	 0.3984602379	 2.9510891042	 0.099081
H	 1.2371632172	 1.7132865546	 3.339748474	 0.111133
H	-0.1738874455	-1.5637821358	 1.5658267615	 0.078248
H	 2.6958691515	-0.7611435949	 1.155171188	 0.106408
H	 1.838970931	-1.9523441514	 0.1662547966	 0.109144
H	-0.6606170827	-0.6387968315	-0.7501283106	 0.066478
