15
gdb 132356	1.9602	1.73364	0.92524	1.2547	71.84	-0.238	-0.0171	0.2209	1175.1638	0.112676	-461.993921	-461.98617	-461.985226	-462.026517	29.261	
C	 0.0091915726	 1.4741456517	 0.06937975	-0.465195
C	 0.0184773795	-0.0286663648	-0.0097540853	 0.34558
C	-0.1191793939	-0.694410436	-1.2231900179	-0.337111
C	-0.0987950477	-2.0862867496	-1.1991764823	 0.363657
F	-0.2280020618	-2.7553684643	-2.3427485268	-0.071092
C	 0.0518524958	-2.7866028711	-0.0203870525	-0.386453
C	 0.1811097245	-2.0091104132	 1.1349914955	 0.454655
O	 0.3311060034	-2.6424316485	 2.3154563452	-0.416959
N	 0.1668678276	-0.6829723842	 1.1551166664	-0.424
H	 0.9438874347	 1.8362235821	 0.5094285428	 0.141904
H	-0.1153136152	 1.9305642096	-0.9149221596	 0.122604
H	-0.8026131523	 1.8143507962	 0.7202411938	 0.141901
H	-0.2384708343	-0.1649549913	-2.1591702805	 0.108495
H	 0.0693045647	-3.8669358844	 0.0118976057	 0.123885
H	 0.4023624224	-1.9433144721	 2.9806384855	 0.29813
