18
gdb 46688	2.85935	1.80586	1.35209	3.0078	73.95	-0.2347	-0.0203	0.2144	964.2796	0.150439	-401.933366	-401.926457	-401.925513	-401.964641	27.96	
O	-0.0505128423	 0.162904662	 0.81039043	-0.317418
C	-0.0710135323	 1.1513754329	 0.114373145	 0.395938
C	-1.3007849312	 1.6332575508	-0.6308041124	-0.300029
C	-1.3444565504	 3.171002993	-0.6865714251	-0.265455
C	-0.0334891031	 3.734192937	-1.2280024556	-0.009431
C	 1.1314281941	 4.1140245811	-0.3995627433	-0.031602
C	 1.2305682614	 3.2840964364	 0.8735571017	-0.275587
C	 1.1561563769	 2.029224682	-0.0550745327	-0.072142
N	 1.1901908328	 2.8909411558	-1.301138972	-0.165192
H	-1.2259110404	 1.239866748	-1.6541063705	 0.138744
H	-2.1935699283	 1.1988698614	-0.1754410105	 0.124767
H	-2.1679235102	 3.4925066785	-1.3296763946	 0.114246
H	-1.5591875547	 3.5713874499	 0.3107388647	 0.116827
H	-0.1289706356	 4.3102731299	-2.1444151532	 0.10108
H	 1.7209200218	 5.0007829616	-0.6106617791	 0.09724
H	 2.2023877976	 3.3606344963	 1.3621529031	 0.12566
H	 0.4491852008	 3.4200783528	 1.6278753815	 0.112562
H	 2.048853323	 1.4064065406	-0.000387627	 0.109792
