14
gdb 42796	2.55999	1.72716	1.45115	3.9135	62.29	-0.2532	-0.0441	0.2091	918.5944	0.102283	-473.843821	-473.836859	-473.835915	-473.87539	26.434	
O	 0.0443706222	 0.0010460642	 0.0571319555	-0.289275
C	 0.0023534978	 1.1885187812	 0.0595702219	 0.434727
C	-1.081591618	 2.2877211563	 0.0139948799	-0.047678
C	-1.3120291502	 2.8516436079	 1.4167558365	-0.165805
N	-0.0058381721	 3.088195728	 2.0280164138	-0.332139
C	 1.1928251464	 2.9162537457	 1.3827573468	 0.440849
O	 2.2743753658	 3.1453194799	 1.873153832	-0.360293
C	 0.9830147218	 2.3734118386	-0.041814372	-0.171215
O	-0.1019212188	 3.1264942521	-0.6572610092	-0.283465
H	-2.0023462684	 2.1431033604	-0.5537404127	 0.118637
H	-1.8804598163	 3.7876076742	 1.3460445061	 0.131626
H	-1.8976284439	 2.1365298367	 2.0083680706	 0.13312
H	 0.04356962	 3.5241548697	 2.9369959216	 0.260184
H	 1.9046953038	 2.3423344752	-0.6197381709	 0.130726
