21
gdb 116039	2.67724	1.29796	1.038	2.1654	80.29	-0.2456	0.0175	0.2631	1236.6678	0.183108	-424.229794	-424.220707	-424.219763	-424.263712	34.388	
C	 0.0817458023	 1.2892275642	 0.1758670517	-0.250243
O	 0.0168983584	-0.1149670269	 0.0204006892	-0.262542
C	-1.30542208	-0.6518447095	 0.025348633	 0.088927
C	-1.2879813625	-1.9724009257	-0.73596524	-0.217505
C	-2.7073064268	-2.5510023813	-0.822551264	-0.268562
C	-3.4280071364	-2.4734567976	 0.4972227055	-0.037828
C	-3.0102964147	-1.7382425169	 1.5262513922	-0.062375
C	-1.7760319387	-0.8747636525	 1.477877017	 0.079286
O	-0.7426877522	-1.496063428	 2.235536952	-0.447663
H	 1.1363409498	 1.5696495461	 0.1182691546	 0.130402
H	-0.4672862618	 1.8049263193	-0.6255940058	 0.112512
H	-0.3186217118	 1.6273644469	 1.1420708347	 0.114873
H	-1.9905463526	 0.0545547936	-0.4696662409	 0.06619
H	-0.8598801166	-1.8207575262	-1.7308029249	 0.095694
H	-0.6371039821	-2.6664542886	-0.1941062805	 0.118879
H	-3.2906126849	-2.0181741201	-1.5889298958	 0.108701
H	-2.6696363211	-3.5935008149	-1.1613799166	 0.109394
H	-4.3378937553	-3.062061504	 0.5935221446	 0.08904
H	-3.5578284699	-1.7434589266	 2.4646444274	 0.091717
H	-2.0188423921	 0.1047278031	 1.9255290061	 0.05743
H	 0.0790039892	-1.1011053344	 1.9123024206	 0.283671
