16
gdb 46153	4.71727	1.01732	0.86545	3.6295	71.44	-0.2356	0.0044	0.24	1265.3233	0.12457	-437.870922	-437.862657	-437.861713	-437.904146	30.615	
O	 0.0444585134	 0.0874133392	 0.6166440294	-0.319658
C	-0.0098913245	 1.1530296961	 0.0683476955	 0.399397
C	-1.3281122372	 1.9007092613	-0.1384231501	-0.314365
N	-1.3315900456	 3.0440519807	-1.0450166492	-0.292711
C	-0.1029891211	 3.8285481049	-0.8876298358	-0.182697
C	 1.1378794257	 2.9532750227	-1.1182012382	-0.066396
O	 1.1384218595	 1.7662296291	-0.3117343694	-0.228429
C	-0.0778962319	 4.9713807976	-1.7938148753	 0.284553
C	-0.0218119238	 5.8860471379	-2.5701809063	-0.395373
H	-2.0733895817	 1.1691342626	-0.45683976	 0.149044
H	-1.6352318112	 2.2339389053	 0.8631283723	 0.150292
H	-1.402613513	 2.7338747936	-2.0096541074	 0.229342
H	-0.0844579182	 4.1901849925	 0.1508011609	 0.125567
H	 1.1855159243	 2.661989928	-2.1748463777	 0.120143
H	 2.0583546185	 3.4865585661	-0.8667879608	 0.135756
H	 0.0136375366	 6.7071170124	-3.2434082278	 0.205534
