23
gdb 114866	3.94024	0.97375	0.87056	1.8439	85.05	-0.2408	0.0779	0.3187	1429.6416	0.207417	-388.29263	-388.283859	-388.282915	-388.326557	33.676	
C	 0.0213990054	 1.6072927297	-0.0541885784	-0.385258
C	 0.0022410016	 0.0765419452	-0.1180572786	-0.186092
C	-1.383857922	-0.5410589651	 0.0866397199	 0.056194
C	-1.4148769148	-2.0790824743	-0.0640833642	-0.250167
C	-2.7455257401	-2.5117187821	 0.5767616952	-0.071013
C	-2.6772262699	-3.4622796464	 1.7874538932	-0.085154
O	-2.7639553721	-2.3602213737	 2.7154367811	-0.296344
C	-3.0493955432	-1.4259556269	 1.6418065325	 0.132893
C	-2.0152237872	-0.3008466795	 1.4800776666	-0.245612
H	 1.027803153	 1.9974692272	-0.235172811	 0.111711
H	-0.6438348229	 2.0429514127	-0.8084158094	 0.112211
H	-0.3039199724	 1.9731766322	 0.9249738671	 0.1201
H	 0.3956016773	-0.2484115964	-1.0902298348	 0.091783
H	 0.6858374297	-0.3320912858	 0.6389852707	 0.094412
H	-2.0630985325	-0.1161142253	-0.6680894959	 0.066753
H	-1.3154340309	-2.3983675131	-1.1056730395	 0.095522
H	-0.5701137086	-2.5126457624	 0.4871446514	 0.098794
H	-3.5230777777	-2.7244625867	-0.1586678838	 0.072495
H	-3.5354584675	-4.1403818292	 1.8859903903	 0.094082
H	-1.7517337651	-4.0386166938	 1.9121327809	 0.097459
H	-4.0826131382	-1.065133871	 1.7078403806	 0.068525
H	-1.2602957334	-0.4165471098	 2.2665939133	 0.110326
H	-2.4515096384	 0.6963154943	 1.5808852831	 0.096378
