16
gdb 27987	2.47925	1.39746	0.89872	4.3817	76.7	-0.2053	-0.0314	0.1739	1228.2959	0.124033	-437.94258	-437.93408	-437.933136	-437.975547	31.48	
C	-0.0327627299	 1.4871682068	 0.0300980653	-0.502238
C	 0.0139423337	-0.005180768	-0.0288523696	 0.358869
C	 0.0417640142	-0.8283799705	-1.1181836938	-0.391362
C	 0.0833990969	-2.1871476242	-0.6468416507	 0.324907
O	 0.1201165114	-3.3144366856	-1.4031715154	-0.436908
C	 0.0801710172	-2.1672356808	 0.7150941848	-0.185171
N	 0.0372577867	-0.8235146311	 1.1042588784	-0.108506
C	 0.0213109919	-0.3998229536	 2.4233156031	 0.16798
O	 0.0426111676	-1.1429010646	 3.372255309	-0.300176
H	 0.837279651	 1.9164979492	 0.5403495166	 0.140051
H	-0.0433200606	 1.8812252875	-0.9886253363	 0.138941
H	-0.9296403107	 1.8613243514	 0.5373108709	 0.140047
H	 0.0336234365	-0.5051655335	-2.1496824801	 0.102463
H	 0.1142309874	-3.066112552	-2.3320043371	 0.30104
H	 0.1031754534	-2.9475356842	 1.453496391	 0.152559
H	-0.0132984467	 0.6988001831	 2.508979224	 0.097504
