19
gdb 111381	2.16055	1.64278	1.12628	1.8941	80.25	-0.2485	0.0359	0.2844	1126.7325	0.158846	-385.819263	-385.810611	-385.809666	-385.852381	33.584	
O	 0.104335725	 1.385657752	 0.0517777319	-0.426958
C	 0.0624816884	-0.0032000598	-0.2337566549	-0.094696
C	-1.3345592438	-0.5789430941	-0.0346467871	-0.013145
C	-1.550248239	-2.0949387841	-0.129845709	-0.074351
C	-0.863695743	-2.82773941	 0.9924483606	-0.288178
C	-2.1613262963	-2.1326376937	 1.271154468	-0.048879
C	-1.9472823745	-0.6121714524	 1.431799851	-0.210523
C	-1.120367009	-0.1455998377	 2.5321254506	 0.325306
C	-0.4033958003	 0.2517659688	 3.4149032735	-0.471878
H	-0.0015547681	 1.4739257201	 1.0064799197	 0.286091
H	 0.3537722472	-0.1151514671	-1.2846087245	 0.105807
H	 0.7996651175	-0.5544847696	 0.3665455223	 0.092167
H	-2.02674494	-0.0357169049	-0.6830932574	 0.087291
H	-1.8838971816	-2.6126356836	-1.020825555	 0.090389
H	-0.9292165025	-3.9093775213	 0.9341532383	 0.115309
H	 0.0603205827	-2.4648728716	 1.4326588218	 0.121136
H	-3.0397563417	-2.6582192909	 1.6236635486	 0.093821
H	-2.9015077615	-0.0791742742	 1.4435772141	 0.109694
H	 0.2090792903	 0.5872540541	 4.2153413574	 0.201594
