16
gdb 18006	5.09688	1.50804	1.34916	3.5179	68.25	-0.2274	0.0138	0.2412	943.0275	0.131005	-379.874068	-379.866692	-379.865748	-379.905945	26.922	
C	 0.1091733759	 1.4254055033	-0.1376232471	-0.340364
N	 0.0985066926	-0.029236757	-0.151481457	-0.317625
C	 0.5239141597	-0.6303233372	 0.8685505117	 0.425703
N	 1.1129324256	-0.2437156691	 2.0946899534	-0.354782
C	 1.163802957	-1.6097489623	 2.6237165671	-0.033723
C	-0.1502595233	-2.1657909105	 3.2069644663	-0.086642
O	-0.6306950178	-2.5426876169	 1.8970155869	-0.281094
C	 0.5909576751	-2.1032673205	 1.2608147901	-0.016639
H	 0.9180395216	 1.8552588379	 0.4730430319	 0.102273
H	 0.2222562879	 1.7959006312	-1.1605426166	 0.128077
H	-0.8454677493	 1.8139791864	 0.2422773897	 0.122576
H	 0.8546937997	 0.569631908	 2.6377085042	 0.242055
H	 2.1122471306	-1.905890817	 3.0706425969	 0.097026
H	-0.0217743795	-3.0474308707	 3.847337564	 0.109745
H	-0.8030946619	-1.441012954	 3.7080821877	 0.103028
H	 1.0173075661	-2.8413116915	 0.5818365208	 0.100385
