15
gdb 10463	2.89163	1.76166	1.37663	3.3367	68.5	-0.25	0.0176	0.2676	932.4952	0.117226	-362.634424	-362.626286	-362.625342	-362.667352	29.754	
O	-0.1324725085	 0.5385674445	-1.1268832605	-0.308256
C	-0.0235562517	 1.3238448449	-0.2144412201	 0.147169
N	 1.1450035925	 1.6781446757	 0.4037802306	-0.346345
C	 2.4114962553	 1.0360008739	 0.1658347185	 0.172447
C	 2.9226343041	 1.0411629763	-1.2615488313	-0.266593
C	 3.5625419473	 1.9458428684	-0.2549302692	-0.307529
C	 2.7075610792	-0.0917815153	 1.0131505539	 0.328509
C	 2.9537982943	-1.0184287801	 1.7389271421	-0.486544
H	-0.8815285182	 1.8830765863	 0.2121297465	 0.075511
H	 1.0693326116	 2.2500140098	 1.2321805478	 0.249774
H	 3.4603189592	 0.1578130908	-1.5820994383	 0.137936
H	 2.2587268782	 1.4665384363	-2.0020587718	 0.148216
H	 3.3392357166	 3.0055897792	-0.3035541172	 0.123612
H	 4.5462163605	 1.6954363016	 0.123078787	 0.132751
H	 3.1617810195	-1.8475009122	 2.3689634319	 0.199343
