16
gdb 78076	4.05599	1.02558	0.87789	4.1342	67.62	-0.2476	-0.0026	0.245	1264.0534	0.122983	-474.978135	-474.969764	-474.96882	-475.01131	30.924	
O	 0.0396116563	 1.3969471582	 0.1211911465	-0.432471
C	 0.0951798061	 0.0033314709	 0.0848349995	 0.104869
C	-1.2674684727	-0.7269692156	 0.1343568905	-0.094485
C	-1.0719096929	-1.260305007	-1.2646485787	-0.073681
C	 0.2861845517	-0.5647055097	-1.3974052261	 0.047124
O	 0.1968403166	 0.4685458875	-2.3586553191	-0.431784
N	-0.9688455198	-2.1277243292	-0.0998067085	-0.083866
C	-1.8425130925	-3.1650129258	 0.1840447418	 0.14196
O	-2.5069354135	-3.2560102413	 1.1865289544	-0.290714
H	-0.269153331	 1.6772348	-0.7532858543	 0.283958
H	 0.813913769	-0.3360104172	 0.8342393696	 0.100541
H	-2.1736333677	-0.4395601548	 0.6525134891	 0.12978
H	-1.7950320658	-1.4493282993	-2.0495672206	 0.121035
H	 1.1445643077	-1.2201742158	-1.5776557296	 0.088559
H	 1.0721813296	 0.8568946999	-2.4622579852	 0.301888
H	-1.7988044211	-3.9533570708	-0.5916696392	 0.087287
