14
gdb 1839	6.45943	2.03657	1.57872	4.6322	60.8	-0.2383	-0.0204	0.2178	758.1085	0.114051	-324.634377	-324.627477	-324.626532	-324.665631	24.429	
C	-0.0277594402	 1.4796255337	 0.0608548821	-0.489646
C	 0.0004073722	-0.0104514637	-0.0245082754	 0.323813
C	-0.0380789716	-0.7968307925	-1.1052589302	-0.309123
C	 0.0139403304	-2.2331735076	-0.7062184732	 0.426869
O	-0.0003537208	-3.2228971481	-1.4075116515	-0.39054
N	 0.0842491262	-2.2094170003	 0.6728714361	-0.34128
C	 0.0832879448	-0.8747297689	 1.2174781991	-0.24016
H	 0.8707001818	 1.8650883062	 0.5584817836	 0.135927
H	-0.0892279932	 1.9332547156	-0.9309429279	 0.138109
H	-0.8857497678	 1.8266688616	 0.6497939568	 0.135913
H	-0.0980905721	-0.4930978901	-2.1410513566	 0.114399
H	 0.1312619498	-3.0528651914	 1.2174717453	 0.25227
H	 0.9939678053	-0.6526885346	 1.79420165	 0.121724
H	-0.7720302248	-0.69114251	 1.8852897117	 0.121726
