23
gdb 60383	3.39296	0.82315	0.73725	2.0282	83.55	-0.2413	0.0755	0.3168	1654.6346	0.202661	-425.411387	-425.400718	-425.399774	-425.447771	39.498	
C	-0.5218043054	 1.3414519558	-0.0343379762	-0.392769
C	 0.0909317192	-0.06113374	 0.0029871194	 0.161942
C	 1.1778734924	-0.2420190391	-1.050436512	-0.390026
O	 0.6990291514	-0.3382148243	 1.2620946674	-0.277586
C	-0.1928453172	-0.5578249823	 2.3437591374	-0.138641
C	 0.6057386636	-1.2254172065	 3.4336225417	 0.436302
O	 1.2059469358	-2.4181647278	 3.0131188808	-0.474387
C	 1.3340342059	-0.3864833543	 4.4567834126	-0.313738
C	 0.1200488918	-1.2111354085	 4.8459711615	-0.317082
H	 0.2468779733	 2.0954000244	 0.1643007303	 0.122807
H	-0.9570344193	 1.5415902835	-1.0185550028	 0.115789
H	-1.3165770583	 1.4564019112	 0.7083106158	 0.118042
H	-0.7074077972	-0.8026908449	-0.1709810216	 0.067601
H	 1.9882029411	 0.4758358472	-0.8882570319	 0.124189
H	 1.5976470207	-1.2503792936	-0.9994765377	 0.117607
H	 0.7726024837	-0.0849637318	-2.0542653163	 0.115049
H	-0.6312109993	 0.3825615417	 2.7082262358	 0.087818
H	-1.0144735025	-1.2189857715	 2.0231625348	 0.092025
H	 1.662720691	-2.1945952325	 2.1919997695	 0.283434
H	 2.3027653447	-0.7512295546	 4.7773074324	 0.117269
H	 1.2371531069	 0.6932573589	 4.4171662669	 0.109126
H	-0.8078626599	-0.6980255083	 5.0763922844	 0.10992
H	 0.2929548777	-2.1154750228	 5.4179084277	 0.125309
