18
gdb 40119	2.18228	2.12986	1.27727	2.596	77.2	-0.2313	0.0137	0.245	1006.6404	0.148554	-401.909053	-401.901514	-401.900569	-401.941371	29.913	
C	-0.2432705355	 1.5149721567	 0.1132892868	-0.299007
N	 1.0848605727	 0.9406962096	-0.1345152327	-0.357561
C	-0.0674822421	 0.0377298215	 0.0311925414	 0.27226
C	-0.1108086312	-0.8838930106	 1.1946437359	-0.121183
C	-0.5942398103	-2.0808695267	 0.863415462	-0.10521
C	-0.958822043	-2.1723605706	-0.5987061559	-0.355956
C	-0.5628832297	-0.796896465	-1.1495089908	 0.338027
C	-1.0942049463	-0.2571962624	-2.4044947965	-0.249169
O	 0.2438673144	-0.7648474695	-2.3368299998	-0.271637
H	-0.3634174264	 1.9861643234	 1.0859381663	 0.116845
H	-0.7688286568	 2.018461799	-0.6939121275	 0.109182
H	 1.3081747378	 0.970806935	-1.1289084273	 0.241331
H	 0.2296858324	-0.5776446932	 2.1761642759	 0.107348
H	-0.7238774497	-2.9140716939	 1.5440373954	 0.101047
H	-0.4104437846	-2.9620673623	-1.1259943365	 0.129966
H	-2.0272137697	-2.3771037784	-0.7442701106	 0.114504
H	-1.7921149663	-0.8559846073	-2.9897226806	 0.115774
H	-1.1780000056	 0.8174214246	-2.5591874654	 0.113438
