19
gdb 118790	3.80802	0.90594	0.82734	6.1427	77.47	-0.2617	0.0243	0.2861	1409.0745	0.158198	-419.194182	-419.184362	-419.183418	-419.229187	35.486	
C	 0.1500726053	 1.7783372663	 0.1118832185	-0.45127
C	-0.2492903161	 0.3177487807	 0.088228554	 0.325149
C	-1.6969554204	 0.0310852708	-0.2996556118	-0.279331
C	-1.9362887813	 0.0190700089	-1.8094112791	-0.069801
O	-1.3537027335	-1.1755662619	-2.3239673434	-0.414845
N	 0.7925096189	-0.6028114564	-0.3766518905	-0.338964
C	 0.3987024841	-0.6483425435	 1.0445972116	-0.250305
C	 1.3849589971	-0.22866252	 2.01120506	 0.326418
N	 2.1476781181	 0.1145436173	 2.8098676729	-0.343357
H	 1.2080756799	 1.8863183919	 0.3565264365	 0.152492
H	-0.017501045	 2.2385733657	-0.8678531743	 0.119982
H	-0.4383738235	 2.3314625207	 0.8514234876	 0.124467
H	-2.0120854456	-0.9458795515	 0.084156379	 0.114314
H	-2.3502220021	 0.7808504591	 0.1603005485	 0.111762
H	-3.017894274	 0.0407483074	-2.0094848711	 0.097653
H	-1.4942593001	 0.9094192718	-2.2793199175	 0.10222
H	-1.3155940412	-1.1150071845	-3.282740404	 0.295311
H	 0.3691920465	-1.3758610853	-0.8850173025	 0.25316
H	-0.2118568071	-1.4795958476	 1.3880937956	 0.124944
