16
gdb 16879	4.18786	1.85666	1.42006	2.3499	64.08	-0.2298	-0.0174	0.2124	861.2951	0.131433	-383.742751	-383.736066	-383.735122	-383.773685	26.045	
O	-0.0228313626	 0.6675988372	-1.3473635548	-0.30251
C	-0.0277677363	 1.2836715881	-0.3098834169	 0.362601
C	-1.3329543254	 1.810134174	 0.2975395207	-0.17436
O	-1.1498966662	 2.376448753	 1.5848210957	-0.247369
C	-0.2222943112	 3.4254192369	 1.5549274161	 0.105875
C	 0.931155862	 3.3142890032	 2.5014561966	-0.313884
C	 1.1385100376	 3.0428426771	 1.0255014354	-0.064264
C	 1.2224384706	 1.6130433536	 0.4981811695	-0.330188
H	-1.78182646	 2.5280163371	-0.4070769488	 0.121713
H	-2.0320849441	 0.9759869889	 0.4071852293	 0.141972
H	-0.6479660982	 4.4022744144	 1.3274958371	 0.090378
H	 1.3403218757	 4.2285168617	 2.9163032634	 0.118727
H	 0.9281201612	 2.4643146354	 3.1753324631	 0.126164
H	 1.6827109693	 3.7862909244	 0.4529507757	 0.1018
H	 1.2754826267	 0.8967613791	 1.3278478163	 0.133254
H	 2.0989960908	 1.4475223859	-0.1309273384	 0.130091
