20
gdb 59008	3.66022	1.0359	0.87432	3.7542	82.92	-0.2258	0.0032	0.2289	1377.6716	0.171217	-399.370244	-399.360812	-399.359868	-399.404822	34.841	
C	 0.0057061997	 1.5921992599	 0.0647730915	-0.375798
C	-0.0540078457	 0.064058868	-0.0135045094	-0.090399
C	 0.7466822593	-0.5931802661	 1.1301650992	-0.38568
C	-1.4753540859	-0.4322565711	-0.0111624482	 0.392282
N	-2.5109322173	 0.2576872501	 0.2836353432	-0.307204
C	-3.6625820227	-0.6442811111	 0.1705376481	-0.239526
C	-3.1146421862	-2.0005130894	-0.2657381322	 0.378196
N	-3.7905659774	-3.0506003674	-0.4970323298	-0.55309
N	-1.741909376	-1.767923478	-0.3330058043	-0.381044
H	 1.0461543086	 1.9295605228	 0.0354643462	 0.105527
H	-0.5356224232	 2.0520132565	-0.7651289946	 0.126985
H	-0.4523524548	 1.9478054806	 0.9910008715	 0.138143
H	 0.3955598824	-0.2591701118	-0.9641820611	 0.085697
H	 0.3419005179	-0.2919372126	 2.1015014633	 0.134242
H	 0.7180767841	-1.6860636962	 1.0799287941	 0.108875
H	 1.794345721	-0.281663021	 1.0857856448	 0.122733
H	-4.1864042663	-0.7252066271	 1.1294100603	 0.142284
H	-4.3879685985	-0.2608051808	-0.5549183752	 0.142547
H	-3.1962944691	-3.8339731211	-0.7736142976	 0.203759
H	-1.06055505	-2.4431402142	-0.6364780699	 0.251472
