23
gdb 75541	2.13557	1.6299	1.18445	1.337	87.75	-0.2331	0.0278	0.2609	1181.6602	0.205304	-388.309316	-388.299795	-388.29885	-388.342699	37.244	
C	-0.0485714682	 1.5427678108	-0.0039272396	-0.489194
C	-0.0156226315	 0.0358536617	-0.0166716298	 0.308115
C	-0.0219372	-0.6485277953	-1.1627382619	-0.182986
C	 0.0456372624	-2.146617369	-1.2396392892	-0.127913
O	 0.3544288492	-2.7525240044	 0.0002342735	-0.252826
C	-0.374488925	-2.1710915281	 1.0635167921	-0.1015
C	 0.0396136343	-0.7085860289	 1.3188759501	 0.17046
C	 1.4766907052	-0.6781994278	 1.8823949486	-0.414774
C	-0.938210576	-0.1068593748	 2.3449995415	-0.433641
H	 0.7899008438	 1.9615742728	 0.5658223648	 0.124213
H	 0.0053580104	 1.9431339446	-1.019755993	 0.118308
H	-0.9638700553	 1.9274389187	 0.4608547483	 0.125881
H	-0.0803184136	-0.1251945662	-2.1150988693	 0.079844
H	-0.907403379	-2.5467162387	-1.6360256728	 0.093391
H	 0.8307786566	-2.4610446703	-1.9381503974	 0.114189
H	-1.4573339711	-2.2190580624	 0.8579756402	 0.080447
H	-0.1702053378	-2.7859100522	 1.9465008797	 0.099418
H	 2.1506671676	-1.2362412229	 1.2279081302	 0.130023
H	 1.8538505592	 0.3450191691	 1.974743569	 0.10852
H	 1.507731657	-1.1339062704	 2.878946418	 0.10594
H	-0.9584034547	-0.7203709654	 3.2528721626	 0.11238
H	-0.6427292526	 0.9036516162	 2.6408891008	 0.117353
H	-1.9583851209	-0.0590347068	 1.9491268737	 0.114353
