16
gdb 60793	2.75593	1.20017	1.03871	3.0945	65.8	-0.2876	-0.0596	0.2281	1163.5157	0.120323	-475.034123	-475.02434	-475.023395	-475.068621	34.991	
C	-0.0511081364	 1.5645213445	 0.1372564622	-0.408128
C	-0.0314183341	 0.0392151001	 0.0198641486	 0.16325
O	 0.6941875766	-0.4681918109	 1.1336223638	-0.447024
C	-1.4119002639	-0.4915707685	 0.0367611248	 0.267141
N	-2.4707495279	-0.9509527645	 0.0881033511	-0.327468
C	 0.6585572523	-0.4280281738	-1.3038204296	 0.028125
O	-0.0382171804	 0.019012007	-2.4233135595	-0.424392
C	 2.1052146315	 0.0448000847	-1.3496101783	 0.127165
O	 2.5155121763	 0.6677296919	-2.2987429933	-0.257128
H	 0.9730700798	 1.933193713	 0.2412036549	 0.138777
H	-0.5027025287	 1.9974136976	-0.756517854	 0.157338
H	-0.6203273555	 1.8674411559	 1.0174881719	 0.149191
H	 0.5023491878	-1.4082407004	 1.2310148163	 0.300267
H	 0.6903914246	-1.5330707683	-1.2709054731	 0.103105
H	 0.6141798436	 0.4910947664	-2.9677659637	 0.302714
H	 2.7451299346	-0.2207580948	-0.4905304222	 0.127068
