18
gdb 39844	2.85478	1.76158	1.37697	2.2348	75.35	-0.224	0.0597	0.2838	969.8206	0.150655	-398.03956	-398.032675	-398.031731	-398.070625	28.569	
C	-0.1176851804	 1.4673212894	-0.0032182429	-0.270042
N	 1.1920705999	 0.7898536004	 0.060244454	-0.373612
C	-0.0440501181	-0.0110720191	 0.0059771136	 0.408651
C	-0.3225035888	-0.8696022566	 1.2214336128	-0.137922
N	-1.7344616602	-1.2637370973	 1.3951899276	-0.32031
C	-0.7919024517	-2.2038255746	 0.7551939941	-0.042742
C	-0.8129942169	-2.1904846669	-0.7640407856	-0.039801
N	-1.773983667	-1.241425807	-1.3622028112	-0.314874
C	-0.3570118338	-0.8474484572	-1.2179059191	-0.170196
H	-0.4009897966	 2.0005986931	 0.8997089318	 0.120521
H	-0.4142157021	 1.9545711094	-0.9285252209	 0.112164
H	 1.6392233451	 0.8069868989	-0.8540333169	 0.226841
H	 0.3136439858	-0.7293866987	 2.0892267	 0.093994
H	-1.8736837924	-1.5507916353	 2.3618883065	 0.229178
H	-0.5225606276	-3.1230737742	 1.2633774916	 0.085039
H	-0.5561725459	-3.0993113987	-1.2971434102	 0.085339
H	-1.9379753533	-1.5107736926	-2.3303553787	 0.228377
H	 0.2426537241	-0.6990677931	-2.1131672366	 0.079397
