17
gdb 17438	2.69659	2.64897	1.90335	2.2913	66.94	-0.2328	0.0658	0.2985	781.5959	0.142266	-363.795869	-363.788836	-363.787891	-363.826568	28.054	
C	-0.0543250805	 1.6180610871	-0.0888388766	-0.427901
C	 0.0707338178	 0.1116649415	 0.042274231	 0.068176
N	 1.1045448	-0.5833617747	-0.8053332947	-0.156959
C	 2.3515816742	-0.6351769949	 0.0467104312	-0.0327
C	 2.0948918061	 0.0325758216	 1.3964917791	-0.319478
C	 0.6697167408	-0.569320528	 1.2827577829	 0.345767
O	-0.1487134412	-0.7605748408	 2.3772201901	-0.474828
C	 1.271394216	-1.6267836327	 0.2392463147	-0.138987
H	 0.8981630278	 2.131422791	 0.0651871484	 0.119365
H	-0.4114081783	 1.8765616033	-1.090684721	 0.127036
H	-0.7763400816	 2.0038316619	 0.6386233325	 0.125331
H	-0.8859451586	-0.3666536536	-0.1945941029	 0.086956
H	 3.2879482569	-0.7362108477	-0.4852358025	 0.098801
H	 2.6716955932	-0.4717664559	 2.1795428498	 0.095776
H	 2.1987670658	 1.1162319309	 1.5049541278	 0.100768
H	 0.3826132376	-1.0750837078	 3.1161413667	 0.285273
H	 1.1822015738	-2.691404561	 0.0664788334	 0.097603
