21
gdb 40432	3.90773	1.20099	1.06395	1.7155	81.8	-0.2487	0.0897	0.3384	1211.4809	0.18415	-387.08218	-387.074166	-387.073222	-387.114747	31.901	
C	-0.3591759054	 1.1903374555	-0.3256086202	-0.270817
C	 1.0056383203	 1.2690945317	 0.3095851211	-0.26422
C	 0.350976755	-0.0741040815	 0.0791523717	-0.107003
C	-0.1236864573	-0.8727572286	 1.2478868953	 0.42483
C	 0.7958370236	-1.8914850431	 1.9087623269	-0.280524
C	-0.1182471876	-2.6517342214	 2.8982916706	-0.215645
C	-1.540808346	-2.5726665386	 2.2902508822	-0.239957
C	-1.5154466519	-1.2890073525	 1.4874169423	-0.004916
O	-0.9455417853	-0.1781548826	 2.2060473995	-0.304689
H	-1.2010871328	 1.4949880913	 0.2846392882	 0.127854
H	-0.4531127841	 1.4066144176	-1.3837832036	 0.106082
H	 1.8547723668	 1.5396191319	-0.3078971094	 0.108445
H	 1.0543549456	 1.6276350848	 1.3317830119	 0.123578
H	 0.7694127204	-0.6803723729	-0.7200239183	 0.082237
H	 1.1903862272	-2.5599136462	 1.1327031866	 0.097896
H	 1.6537251046	-1.422446641	 2.4004768553	 0.106467
H	 0.2084059546	-3.6807738867	 3.0659986069	 0.095873
H	-0.1094387608	-2.1420595114	 3.8638477707	 0.118979
H	-1.7363015652	-3.4096920611	 1.6079251081	 0.100674
H	-2.3250800049	-2.5833073322	 3.0537228183	 0.10709
H	-2.3233317269	-1.0305599828	 0.8072352256	 0.087766
