18
gdb 52732	5.76226	0.60952	0.57402	5.3816	80.91	-0.2494	0.0246	0.2741	1915.5288	0.144465	-439.048647	-439.037841	-439.036896	-439.087226	36.183	
C	-0.4268315175	 1.3190123325	 0.1930949422	-0.499481
C	-0.0366901146	-0.0774630261	 0.0675121292	 0.075533
C	 0.2995562019	-1.2314884989	-0.0143226937	 0.033155
C	 0.6576000834	-2.6403203689	-0.1673990371	-0.045967
O	-0.3874632898	-3.51706869	 0.2493599642	-0.417805
C	 1.0710819575	-2.9321705185	-1.6227300392	-0.093466
O	 1.6049748701	-4.2379868353	-1.7529580624	-0.177104
C	 0.737556925	-5.2489767132	-1.9790443615	 0.144392
N	 1.1566719984	-6.4380743644	-1.9993324506	-0.443995
H	 0.4329917326	 1.9437963673	 0.4576307198	 0.157994
H	-0.8438921787	 1.7042805796	-0.7434704511	 0.152554
H	-1.1832765983	 1.447811132	 0.9746660714	 0.156488
H	 1.5138814419	-2.8886437083	 0.4710135237	 0.132105
H	-1.2228774824	-3.1114577689	-0.0073504725	 0.285771
H	 0.2070399879	-2.787056924	-2.2857203412	 0.104359
H	 1.8611648389	-2.2420460665	-1.9292748838	 0.129873
H	-0.2917444596	-4.9109865065	-2.1481595221	 0.078612
H	 0.3876221134	-7.0710460219	-2.2083765053	 0.226982
