23
gdb 117779	2.40388	0.99821	0.87942	4.1987	86.8	-0.2367	0.0361	0.2728	1507.5345	0.203692	-384.48553	-384.474284	-384.47334	-384.521804	40.653	
C	-0.0360335149	 1.6158054141	 0.1851289261	-0.384801
C	 0.0345596306	 0.1080504091	-0.0437093193	-0.13037
N	 0.7083762404	-0.5386582081	 1.0826372963	-0.310372
C	 0.755912736	-2.0076505632	 1.1039051273	 0.103182
C	 1.3958115237	-2.6448602785	-0.1534070862	-0.414581
C	 1.5260712748	-2.4063187719	 2.3923914478	-0.199182
C	 1.5708047805	-3.9008159023	 2.7152339737	-0.407177
C	-0.6370398141	-2.4962818902	 1.2180142814	 0.316749
N	-1.7155335307	-2.9038571569	 1.2983661777	-0.360304
H	 0.9671313115	 2.0543411578	 0.2439524916	 0.110044
H	-0.5630654191	 2.1061278474	-0.6385939768	 0.118213
H	-0.5574089491	 1.8390623061	 1.1197243269	 0.132151
H	-0.9794754256	-0.3028401056	-0.1046113597	 0.130354
H	 0.5155030435	-0.0908187776	-1.0164997117	 0.083662
H	 1.6584679038	-0.1897435964	 1.1663546898	 0.214642
H	 2.4370579437	-2.3149658702	-0.2327770077	 0.114486
H	 1.3806537827	-3.7360780942	-0.1029726034	 0.136258
H	 0.8660503138	-2.3462888097	-1.0602616462	 0.136223
H	 2.5477372275	-2.0201702537	 2.2796735086	 0.095863
H	 1.0692510843	-1.8544296854	 3.2191581257	 0.126759
H	 0.5633054506	-4.3185633507	 2.8014913544	 0.145517
H	 2.1120963783	-4.4731378171	 1.95612947	 0.120773
H	 2.0806921376	-4.0601992126	 3.6697163836	 0.121911
