22
gdb 58818	3.21404	1.25212	1.09055	1.6411	85.08	-0.2168	0.0699	0.2866	1221.6996	0.193582	-367.129884	-367.121047	-367.120103	-367.163172	34.989	
C	-0.0554255635	 1.5809467215	 0.2394876792	-0.385291
C	-0.0462851444	 0.0566430999	 0.0322947565	-0.079264
C	 0.8815393575	-0.6332952593	 1.0395482838	-0.40449
C	-1.4566935445	-0.4859181655	 0.0513084278	 0.381426
C	-2.2337707569	-0.927907249	 1.2633404163	-0.366741
C	-2.0195509415	-1.8869377156	 0.1180121224	-0.080705
N	-2.8587497603	-1.7095239507	-1.1336811475	-0.139887
C	-3.8226269952	-0.6063575743	-0.9545616542	-0.25207
C	-2.3968144318	-0.277802098	-1.1635168635	-0.099107
H	 0.9528971616	 1.9968563339	 0.1435882462	 0.109132
H	-0.6959250825	 2.0809152662	-0.4944806914	 0.115862
H	-0.4323556002	 1.833393343	 1.236875414	 0.116079
H	 0.3549669663	-0.1410583859	-0.9730655981	 0.077157
H	 0.8797833899	-1.7203406663	 0.9098677925	 0.116574
H	 1.9103528963	-0.2828943317	 0.9110015255	 0.114034
H	 0.5881882346	-0.4124323308	 2.0716030621	 0.116634
H	-1.6129572908	-1.1748504563	 2.1190807796	 0.116421
H	-3.1950141099	-0.5131888926	 1.5456901945	 0.109842
H	-1.5365525637	-2.8479196151	 0.2459966515	 0.100578
H	-4.474834084	-0.5018931033	-1.8176107871	 0.12109
H	-4.3238695456	-0.4492826133	-0.0067760415	 0.118643
H	-2.0311362612	 0.1572158731	-2.0898232586	 0.094083
