17
gdb 46417	4.09865	0.74691	0.66636	5.3154	74.52	-0.2606	-0.0404	0.2202	1608.8604	0.135518	-418.014847	-418.005902	-418.004958	-418.049797	31.525	
O	-0.0512544852	 0.0020782905	-0.1798072072	-0.277195
C	-0.0548559498	 1.1832268491	-0.0166595738	 0.384479
C	-1.1174006946	 2.2484042473	 0.2946149067	-0.283897
N	-0.0127464315	 3.2274725267	 0.4993712907	-0.327203
C	 1.0322474911	 2.27825535	 0.0142182585	-0.11481
C	 2.2020081995	 2.0594803789	 0.9684881442	-0.174785
C	 3.0298208762	 3.3478061014	 1.1393830491	-0.343577
C	 4.1415893257	 3.1832841722	 2.072121505	 0.258157
N	 5.0181041343	 3.0369103965	 2.8107368851	-0.301655
H	-1.7764907513	 2.4430036955	-0.5619663023	 0.131292
H	-1.7372989018	 2.0693691286	 1.1795032383	 0.143122
H	-0.1049091692	 4.0591605019	-0.0711527838	 0.229873
H	 1.4018942467	 2.4966232892	-0.9998010738	 0.099244
H	 1.8202264315	 1.7471641255	 1.9452675821	 0.129237
H	 2.8316181339	 1.2493071991	 0.5871958305	 0.135351
H	 3.4328037522	 3.6759856045	 0.173555269	 0.14682
H	 2.3769972123	 4.1480156431	 1.5056045916	 0.165546
