23
gdb 121274	3.81967	0.85161	0.7634	1.4581	85.15	-0.2604	0.0818	0.3422	1555.8255	0.207427	-388.289702	-388.28061	-388.279666	-388.323866	34.963	
O	-0.0725613192	 1.4749259483	-0.1024904807	-0.421871
C	 0.0288812497	 0.061832936	 0.0055940485	-0.07633
C	-1.3829873935	-0.5107825559	-0.009108796	-0.180608
C	-1.4298675758	-2.0424114481	 0.026530806	 0.022268
C	-0.8559673354	-2.6828644207	 1.3176629901	-0.235647
C	-1.5575567809	-4.0543579842	 1.4494183308	-0.221339
C	-2.9154462088	-3.8608101239	 0.7878350249	-0.0317
C	-3.7000914054	-2.6258425043	 1.1585482601	-0.289122
C	-2.8364597926	-2.6270108558	-0.0815652659	-0.034863
H	 0.815128387	 1.8429237078	-0.0700205042	 0.283369
H	 0.6083369617	-0.360197847	-0.8330803673	 0.080006
H	 0.5460067778	-0.22659042	 0.9344118745	 0.085155
H	-1.9393728844	-0.1005688913	 0.8426347422	 0.101358
H	-1.8851808789	-0.1455005387	-0.9132648653	 0.100142
H	-0.8567357721	-2.4236000547	-0.8319708719	 0.065638
H	 0.2329196664	-2.7769058868	 1.2911443181	 0.095049
H	-1.0923864645	-2.0495884032	 2.1803120729	 0.101427
H	-0.9975468817	-4.8224039578	 0.9018863354	 0.096423
H	-1.6233800101	-4.3878341506	 2.4911315029	 0.094128
H	-3.4642938868	-4.7392097437	 0.465905263	 0.076801
H	-4.7737934482	-2.6597057216	 1.0091562646	 0.106476
H	-3.3993632984	-2.0421194337	 2.0228817807	 0.107
H	-3.3308405459	-2.5849039902	-1.0464961332	 0.07624
