11
gdb 3799	8.25599	2.12778	1.71015	3.8297	50.08	-0.2453	-0.0254	0.2199	674.1919	0.077415	-376.539208	-376.532781	-376.531837	-376.569756	21.71	
C	-0.0010364945	 1.430223121	-0.0166482483	-0.253285
O	 0.0116381942	-0.006545914	-0.0158761765	-0.252224
C	 0.5952771956	-0.6014419535	-1.0411839454	 0.508207
C	 0.7359401519	-1.9525894994	-1.2690014195	-0.245392
N	 1.4027168268	-2.0631641813	-2.4497693025	-0.067694
N	 1.6868061737	-0.9730323803	-2.9703383883	-0.032118
O	 1.136451488	 0.0942562253	-2.0109806529	-0.253557
H	 1.0186474812	 1.8239658792	-0.0125584896	 0.152604
H	-0.5345461931	 1.8098676768	-0.8918630315	 0.152652
H	-0.5209321594	 1.7151145407	 0.8972002223	 0.149834
H	 0.4144097057	-2.7956664945	-0.6856415678	 0.140974
