21
gdb 59131	4.01975	1.06827	0.97529	1.9949	81.75	-0.2295	0.0721	0.3016	1291.7221	0.181367	-386.998668	-386.990219	-386.989275	-387.031817	32.993	
C	 0.0383660248	 1.5254378461	-0.0980180789	-0.388757
C	 0.0799080392	 0.0074682855	 0.1299237579	 0.015404
C	 0.7847583431	-0.3315730834	 1.4513434878	-0.388756
C	-1.3272997472	-0.5884624408	 0.0935679916	-0.011601
C	-2.0707646255	-0.7064631162	-1.2602229442	-0.111876
C	-1.3404404067	-2.037141839	-1.6363343895	 0.089052
O	-2.5656655908	-2.7722523923	-1.9271660468	-0.331624
C	-2.8905126812	-1.9403229643	-0.7736164232	 0.082267
C	-1.5037477887	-2.1172063394	-0.0831249169	-0.111877
H	 1.0460706409	 1.9538158025	-0.0957589396	 0.110914
H	-0.4303265459	 1.7761837687	-1.0549477813	 0.113524
H	-0.5346796909	 2.022926432	 0.69377124	 0.112231
H	 0.6614309182	-0.4414607179	-0.6882926047	 0.068017
H	 0.2407745942	 0.0935397463	 2.3034980133	 0.11223
H	 0.851609693	-1.4131767918	 1.6060194787	 0.113524
H	 1.8017396228	 0.0737245177	 1.4728951036	 0.110914
H	-1.9390122445	-0.1614659098	 0.8999853774	 0.062453
H	-2.4117284487	 0.0656199776	-1.9502876801	 0.081551
H	-0.470027094	-2.2133347455	-2.2667852782	 0.096257
H	-3.8935871108	-1.9906870547	-0.3507886478	 0.094601
H	-1.202185951	-2.9437360712	 0.5606659412	 0.081551
