21
gdb 68288	2.70227	1.51923	1.3929	1.5124	82.81	-0.2324	0.0896	0.3221	1069.6154	0.182893	-387.033917	-387.02573	-387.024786	-387.066453	32.366	
C	-0.1629219097	 1.4553324375	-0.048944513	-0.523347
C	-0.0000204299	-0.0391682612	-0.0054436459	 0.258137
C	 0.6714994825	-0.9643207979	-1.0756623389	-0.271745
C	 0.1772051036	-1.9360731608	 0.0360916043	-0.131188
C	 0.7207217786	-0.9102697743	 1.0718050122	-0.269965
C	-1.1262297921	-1.1079760354	 0.0518386373	 0.512844
C	-2.2594679338	-1.1925982792	 1.0904915407	-0.389696
C	-3.1759173789	-1.3199206884	-0.1402349795	-0.084903
O	-2.0556425657	-1.2077578923	-1.0417994741	-0.339848
H	 0.8053915678	 1.9598914031	-0.1346978692	 0.119399
H	-0.7743357743	 1.7493686663	-0.9088861998	 0.128395
H	-0.6533770635	 1.828768352	 0.8575184822	 0.114267
H	 0.1746982776	-1.0322482295	-2.0442171744	 0.114312
H	 1.7558931958	-0.8642333807	-1.1787915422	 0.083743
H	 0.2747166356	-3.0217612523	 0.063419175	 0.068916
H	 1.8081315101	-0.8092588161	 1.1124317409	 0.092035
H	 0.286343207	-0.9272485652	 2.0757999403	 0.0891
H	-2.2295475083	-2.0618245107	 1.7503262142	 0.113087
H	-2.4077285203	-0.2923438108	 1.6907734124	 0.111739
H	-3.6909181857	-2.2816483773	-0.2504953439	 0.102331
H	-3.8991342064	-0.5093290667	-0.2868398586	 0.102389
