16
gdb 7130	5.16094	0.82732	0.76533	2.4597	63.11	-0.2513	-0.0394	0.2119	1433.6513	0.126724	-420.89527	-420.885912	-420.884968	-420.931219	31.101	
O	-0.2955352574	 1.4249870827	-0.5000217995	-0.423018
C	-0.0072842363	 0.0873914363	-0.1247115355	-0.074017
C	-1.3413752119	-0.625921456	 0.0365069781	-0.290737
C	-1.2069725462	-2.074662112	 0.4490702072	 0.359951
O	-0.1366081026	-2.6139076906	 0.6221122748	-0.308542
C	-2.5059905795	-2.8639536742	 0.6246223183	-0.375037
C	-2.4813051174	-4.1391911075	-0.2079942599	 0.163175
O	-3.4074801347	-4.5239298422	-0.8698745038	-0.230839
H	 0.5384378054	 1.8893005954	-0.615871912	 0.290015
H	 0.5969279754	-0.4301507772	-0.8832414699	 0.105331
H	 0.5530314609	 0.0386233182	 0.8199565768	 0.104223
H	-1.96360292	-0.1039733465	 0.7764351477	 0.13838
H	-1.9139434894	-0.5798757697	-0.9002808376	 0.141558
H	-2.5447792041	-3.1738316003	 1.6780098522	 0.15888
H	-3.4040104204	-2.2884770355	 0.3926338644	 0.130924
H	-1.5206005918	-4.6911336411	-0.1519769712	 0.109752
