18
gdb 89244	3.03826	1.61534	1.27826	1.8167	70.97	-0.2396	0.0702	0.3098	998.2722	0.1494	-439.022032	-439.014801	-439.013857	-439.053386	29.862	
O	-0.0184095666	 1.4202421168	-0.0487067333	-0.440832
C	 0.0373910968	 0.0023929799	-0.0005336422	 0.097881
C	 0.5809049945	-0.5694571442	 1.34388869	-0.329659
C	-0.6687533427	-1.2624733395	 1.8529316391	 0.501532
O	-0.572482062	-1.8934120535	 3.0739241252	-0.499127
C	-1.4045034594	-1.9557199459	 0.6494690923	-0.122084
N	-2.7040878216	-1.7128828735	 1.3862116186	-0.376112
C	-1.9361822165	-0.410658674	 1.4882989492	-0.10009
C	-1.3920201613	-0.5291370896	 0.0373657862	-0.029622
H	 0.8831655236	 1.756504605	-0.0353379131	 0.284216
H	 0.5941906453	-0.3908416821	-0.8633725745	 0.066529
H	 1.4106522731	-1.2711234449	 1.2154889358	 0.10401
H	 0.905613102	 0.2341272542	 2.0115135755	 0.107416
H	-1.4485755427	-2.2769477974	 3.2317936945	 0.290297
H	-1.176531283	-2.9103697682	 0.1707633391	 0.076856
H	-3.4728111554	-1.6143223219	 0.7179395347	 0.210653
H	-2.3381919045	 0.4657729497	 1.9974957689	 0.084947
H	-2.0579598496	-0.3008490408	-0.7952207961	 0.073188
