13
gdb 127753	3.4269	1.49997	1.05015	3.4987	64.34	-0.2651	-0.0915	0.1737	1043.7229	0.089992	-486.079911	-486.072467	-486.071522	-486.112118	27.049	
C	-0.0349407667	 1.4201629126	-0.0300362203	-0.316804
N	-0.0086804415	-0.038596222	-0.0048936867	-0.043832
N	-0.0504877306	-0.651667491	-1.1692413063	-0.039701
N	-0.0297286578	-1.9318532952	-1.2036807188	-0.299944
C	 0.0367931801	-2.5911040615	 0.0139959891	 0.500968
O	 0.0548911596	-3.9132638057	-0.1003776886	-0.363848
N	 0.0811926732	-2.0716182025	 1.1990710528	-0.357604
C	 0.06021191	-0.7036847044	 1.2705503077	 0.471053
O	 0.0947359275	-0.0312004587	 2.2708740467	-0.364812
H	 0.8660077117	 1.8092572499	 0.4487092512	 0.167207
H	-0.0883743392	 1.7303844914	-1.0724455438	 0.158229
H	-0.9007908467	 1.7787142834	 0.5303206679	 0.167228
H	 0.0158012504	-4.1189955663	-1.0462396408	 0.321859
