20
gdb 85530	2.33551	1.71521	1.16357	3.3527	80.27	-0.2499	0.0325	0.2825	1113.0637	0.172472	-403.16477	-403.156583	-403.155639	-403.197437	32.184	
C	-0.3423030804	 1.4126740551	 0.0392627315	-0.390935
C	-0.0295311674	-0.0671182539	 0.2136063441	 0.104752
O	 0.3928862915	-0.5362254247	-1.0826608022	-0.262833
C	 0.9931229831	-1.7537152582	-1.2346463613	 0.378576
N	 1.2753114044	-2.2028726288	-2.3852290421	-0.516901
C	 1.3304767985	-2.5341962854	 0.0140761167	-0.295633
C	 1.739871067	-1.6501470616	 1.1770435871	-0.04861
C	 2.4785902588	-0.3547372011	 0.9319180666	-0.301854
C	 1.010315762	-0.342056601	 1.2830028157	-0.026256
H	 0.5662344201	 1.9656928367	-0.2152092505	 0.129802
H	-1.0746277682	 1.5570932912	-0.7593067983	 0.126872
H	-0.7525310833	 1.8234984249	 0.9666230291	 0.11704
H	-0.9547339552	-0.6015450174	 0.4795643038	 0.084753
H	 0.9538918478	-1.5476434224	-3.1016002232	 0.214311
H	 0.4452764689	-3.1168427921	 0.3067320407	 0.123102
H	 2.1047750516	-3.2542266502	-0.2587109169	 0.13766
H	 1.9675050544	-2.1826388399	 2.094991433	 0.0898
H	 3.1790586113	-0.02162936	 1.6891517947	 0.112758
H	 2.769801337	-0.1088368899	-0.0834812384	 0.134393
H	 0.7262819479	 0.0169252188	 2.2676904298	 0.089204
