14
gdb 11778	4.68631	1.81352	1.66299	4.13	62.14	-0.2493	-0.0345	0.2148	787.6541	0.106542	-382.488393	-382.482004	-382.481059	-382.519026	24.561	
O	-0.0512564177	-0.0467817692	 0.228238049	-0.232966
C	 0.0132381604	 1.1278263091	-0.0171140759	 0.039795
C	 1.2685431824	 1.93956567	-0.0050512181	 0.298363
C	 1.6182808558	 2.9503282682	 1.1495247277	-0.261844
C	 3.003031249	 2.6219020871	 0.5152158764	 0.013444
O	 2.5159297699	 1.2552763862	 0.2973363399	-0.297288
C	 2.8537087236	 3.2365060617	-0.8900127535	-0.074669
C	 1.6526912311	 2.7840409529	-1.2501567762	-0.134843
H	-0.8917309682	 1.7281765012	-0.2726463245	 0.078194
H	 1.2341727863	 3.9695568648	 1.087682561	 0.10876
H	 1.4885525721	 2.5075916472	 2.1394937445	 0.125286
H	 3.9463664687	 2.6853909901	 1.054139401	 0.092659
H	 3.5584001206	 3.8676891031	-1.4104578847	 0.121266
H	 1.0704991161	 2.9231060377	-2.1485919065	 0.123844
