17
gdb 88415	2.18042	1.19113	0.9189	2.011	69.82	-0.258	-0.051	0.207	1301.801	0.131432	-458.954743	-458.944953	-458.944009	-458.991774	33.118	
C	-1.0155259463	 1.021760916	 0.2368504176	-0.42759
C	-0.1370749403	-0.1983175708	 0.1490437543	 0.080141
O	 1.1662863717	-0.0387762623	-0.4279279993	-0.274465
C	 1.0758245071	-0.4303378305	 0.949067607	 0.050649
C	 1.6481917043	 0.544338628	 1.9515695456	-0.228866
C	 1.5064964048	 0.054942923	 3.3916632408	 0.147262
O	 0.8628195523	-0.9117793885	 3.703134867	-0.235562
C	 3.1179907715	 0.8842533879	 1.6752156837	 0.141002
O	 3.7706759459	 1.5880727797	 2.4005712078	-0.245968
H	-0.460069602	 1.9080365973	 0.5519232012	 0.127618
H	-1.452927274	 1.2376990263	-0.7430860409	 0.138196
H	-1.8364776002	 0.8498724853	 0.940905273	 0.134556
H	-0.6517715557	-1.0965163176	-0.1968384505	 0.10048
H	 1.3534572642	-1.4676623207	 1.136683858	 0.112106
H	 1.1288660979	 1.5120529118	 1.9168710776	 0.13944
H	 2.0582189257	 0.6684481871	 4.1313336879	 0.1203
H	 3.5412858531	 0.4291752982	 0.7566722091	 0.120701
