14
gdb 528	15.41191	1.48321	1.38825	1.2818	56.58	-0.2547	0.0346	0.2893	851.4059	0.11701	-270.386138	-270.378715	-270.377771	-270.417487	25.17	
C	-0.0404376854	 1.5093709465	 0.0106705836	-0.386474
C	-0.0255886951	-0.0089780953	 0.0023527304	-0.018289
O	-1.3638790759	-0.469328026	 0.012689867	-0.240041
C	-1.4479223277	-1.8789797919	 0.0059071808	-0.202786
C	-2.8435209006	-2.2985516129	 0.0171771958	 0.281215
C	-3.9841786412	-2.6734551283	 0.025968857	-0.415894
H	 0.9816696801	 1.8995778564	 0.0029987214	 0.115474
H	-0.5660988548	 1.8922806028	-0.8684334096	 0.130345
H	-0.5491539153	 1.8827367787	 0.903738261	 0.130346
H	 0.4995255986	-0.3880874269	-0.891282683	 0.087044
H	 0.5165008927	-0.3976328448	 0.8816365505	 0.087045
H	-0.9447648089	-2.2933431746	-0.8854308039	 0.116229
H	-0.9277138177	-2.302853119	 0.8828589754	 0.116215
H	-4.9954098287	-2.9972981148	 0.0331978736	 0.199571
