18
gdb 63768	2.95735	1.4033	1.15768	2.3896	77.84	-0.2298	0.0257	0.2556	1094.0782	0.145207	-401.861089	-401.852283	-401.851339	-401.893852	34.38	
C	-0.2685027326	 1.5633930892	-0.0512342747	-0.474104
C	-0.0129535278	 0.0654230032	-0.0092546057	 0.392293
O	-1.2352129679	-0.6540551053	-0.1210862588	-0.470616
C	 1.1034606363	-0.5722323443	-0.894196322	-0.226562
N	 1.6858145357	-1.3178663676	 0.2849969217	-0.147291
C	 2.1814059316	-0.2851277061	 1.2373733632	-0.215835
C	 2.8467377502	 0.9209021972	 0.8297901283	 0.347459
C	 3.4715146236	 1.9003276753	 0.5154747628	-0.444924
C	 0.7217033083	-0.5649993694	 1.1750886116	-0.070063
H	 0.649374303	 2.136518379	 0.0886400944	 0.140955
H	-0.6956023176	 1.8445015751	-1.0227818613	 0.104851
H	-0.9861171705	 1.8416912642	 0.726573887	 0.126054
H	-1.6867568833	-0.3439153006	-0.9136811649	 0.277917
H	 0.6982695288	-1.2873666444	-1.6112222122	 0.112532
H	 1.81345893	 0.1003592845	-1.382785485	 0.113162
H	 2.6722314995	-0.7723560994	 2.0780387361	 0.125529
H	 4.0145253606	 2.7702375239	 0.2388788015	 0.202209
H	 0.2053650823	-1.0454558645	 2.000833668	 0.106433
