20
gdb 46895	3.20653	1.35646	1.04275	3.1372	80.29	-0.251	0.0215	0.2726	1167.4268	0.173811	-403.150156	-403.142307	-403.141363	-403.182571	31.168	
N	-0.0348506998	 1.3160167776	 0.2286839548	-0.476416
C	 0.012187508	 0.0726282655	-0.0162065214	 0.350162
C	-1.2806648293	-0.7202362461	-0.0814269533	-0.23937
C	-1.4469583269	-1.7236892076	-1.2404801701	-0.254501
C	-0.6423960236	-2.9887162189	-1.0089505713	 0.014678
C	 0.2236789357	-3.6048960906	-2.074173833	-0.322252
C	 0.8590287893	-2.8730610382	-0.9112462632	-0.016428
C	 1.4763681694	-1.5178658539	-1.1398391421	-0.108437
O	 1.2228537765	-0.5728967766	-0.0852205684	-0.257454
H	 0.9176793492	 1.6849822747	 0.2854246159	 0.215126
H	-1.3738818498	-1.2694646605	 0.8655350276	 0.11963
H	-2.0784078297	 0.0245669715	-0.096908113	 0.128334
H	-2.5090425156	-1.9773397842	-1.3289912932	 0.106056
H	-1.1752249847	-1.2514498448	-2.1909445629	 0.104527
H	-1.1001333621	-3.6803390943	-0.3065436887	 0.089554
H	 0.3162325412	-4.6844638647	-2.1105775169	 0.117141
H	 0.2514636434	-3.1261286892	-3.0485792152	 0.114315
H	 1.3532730694	-3.4762144694	-0.1559540733	 0.091784
H	 2.5667405695	-1.5919629267	-1.1755671684	 0.118541
H	 1.1486387899	-1.0917711436	-2.095419764	 0.10501
