22
gdb 82453	2.30843	1.72701	1.33368	1.8846	85.9	-0.2127	0.0813	0.2941	1100.2533	0.193393	-367.151494	-367.142416	-367.141472	-367.184492	35.448	
C	-0.0503752959	 1.6215166735	-0.1205997363	-0.429223
C	 0.0970532663	 0.1174357794	 0.0442590999	 0.023504
N	 1.0816675821	-0.6295778777	-0.850622225	-0.186993
C	 2.4084883909	-0.0041955246	-0.4776951919	-0.229597
C	 2.2783593209	-0.5951630588	 0.9175663467	 0.270508
C	 3.3611327914	-0.7824978069	 1.9389309255	-0.510146
C	 1.2988218501	-1.5874947865	 0.3433594578	-0.127381
C	 0.7620065413	-0.5218810607	 1.2594241264	 0.26568
C	 0.2127797066	-0.6305960095	 2.6519122192	-0.514857
H	 0.8392032626	 2.1740887353	 0.1920637123	 0.117115
H	-0.2601039325	 1.8686557436	-1.1672905223	 0.127092
H	-0.8905965577	 1.9822517926	 0.4823971349	 0.116081
H	-0.8763843161	-0.3591688048	-0.1257407861	 0.072583
H	 3.199722345	-0.4964043133	-1.0526041917	 0.100395
H	 2.4811628834	 1.078399657	-0.6251800856	 0.090385
H	 3.6608378947	 0.1748596054	 2.3817902902	 0.120533
H	 3.0475954903	-1.4390140357	 2.7564018841	 0.120256
H	 4.2520001683	-1.2299661082	 1.483418541	 0.121261
H	 1.2344557321	-2.6667063667	 0.3092697545	 0.089969
H	 0.225230185	 0.3393915199	 3.1629688135	 0.12151
H	-0.8250145522	-0.9831638664	 2.6342028553	 0.120758
H	 0.7852409432	-1.332449997	 3.2660892675	 0.120564
