17
gdb 15813	6.19322	1.02048	0.94456	2.3055	66.87	-0.2569	0.003	0.2599	1257.5501	0.141927	-401.011658	-401.003167	-401.002223	-401.045526	29.566	
C	-0.0037765123	 1.4769284695	 0.377786051	-0.391949
C	 0.0055540401	 0.0121847716	-0.0129825899	-0.045906
O	-1.3592298573	-0.4581661765	 0.0252201495	-0.245966
C	-1.546003431	-1.7435875339	-0.3086057372	 0.465439
O	-0.6590321916	-2.5061871917	-0.6199631444	-0.388477
C	-2.986778838	-2.1229386919	-0.2437579359	-0.129178
C	-3.5039045516	-2.9493848339	-1.3784362475	-0.219331
N	-3.2870170587	-3.552088086	-0.0689545561	-0.304797
H	 1.0168355287	 1.8704331133	 0.3619449886	 0.125457
H	-0.6102611425	 2.0631423546	-0.3181722422	 0.131601
H	-0.409096408	 1.6101980063	 1.3846503524	 0.132439
H	 0.4036467162	-0.1434760047	-1.0203890362	 0.124908
H	 0.6046852777	-0.593837887	 0.6735902042	 0.12593
H	-3.6430851843	-1.4280788331	 0.2673919092	 0.110021
H	-4.5424268442	-2.834398323	-1.6743176431	 0.127495
H	-2.8059751193	-3.1767485483	-2.1789181133	 0.133181
H	-2.3955367339	-4.0478435253	-0.0839048591	 0.249132
