19
gdb 31642	3.48957	1.02715	0.81511	3.3457	80.71	-0.1844	0.0473	0.2317	1402.2222	0.159765	-419.230303	-419.220577	-419.219633	-419.2652	35.172	
C	 0.1842854567	 1.3709398705	-0.0402246653	-0.344073
N	 0.0987861898	-0.0724420216	 0.0125403256	-0.012138
C	 0.2153251308	-0.9258583034	-1.0627416968	-0.202074
C	 0.0778843961	-2.2199844356	-0.6124626564	 0.22558
C	 0.1163360203	-3.453048706	-1.4663428624	-0.1557
O	 0.9161990679	-3.2939145025	-2.6325701863	-0.415427
C	-0.1053705966	-2.1498391365	 0.799802771	-0.357869
C	-0.0884883845	-0.8176635554	 1.1555196859	 0.285385
N	-0.2860457135	-0.1636425396	 2.3905256886	-0.607907
H	 1.2208792001	 1.7260014151	 0.0198308785	 0.125826
H	-0.2504201203	 1.7296850951	-0.9763445013	 0.137463
H	-0.3766855675	 1.7859806335	 0.7992624778	 0.15687
H	 0.3804321873	-0.5443224362	-2.0571736915	 0.119492
H	 0.4536140889	-4.3114727306	-0.8620705267	 0.084521
H	-0.8821498172	-3.7108596164	-1.8416485958	 0.114413
H	 1.7574887967	-2.9275218728	-2.3390570192	 0.274085
H	-0.2303824086	-2.9812166159	 1.478224092	 0.081578
H	-0.753544126	-0.7794481433	 3.0442001873	 0.247596
H	 0.5848608896	 0.1360101917	 2.8204315249	 0.242379
