16
gdb 123926	3.5006	1.61289	1.1464	4.5884	70.02	-0.2213	0.0128	0.234	1013.3377	0.128405	-434.073616	-434.066907	-434.065963	-434.104702	26.474	
C	-0.0058116639	 1.5105020986	-0.002486697	-0.229298
C	 1.4195215149	 2.0728138348	 0.0429057429	-0.084262
O	 2.1453764794	 1.6767950582	 1.2338086557	-0.273488
C	 1.9230488014	 0.3873323389	 1.5198274266	 0.426535
C	 0.9820260481	-0.474957944	 1.0123210221	 0.198699
C	-0.0217076202	-0.035918797	-0.0032968936	-0.331282
N	 1.144648341	-1.6794616634	 1.6281811	-0.269595
N	 2.1250992687	-1.609028796	 2.4802729422	-0.133567
N	 2.6177654922	-0.3351936619	 2.4200476073	-0.308859
H	-0.5566746897	 1.8854187701	 0.8674554804	 0.123112
H	-0.4994831924	 1.9081063443	-0.8948355273	 0.112254
H	 1.9952375035	 1.7373318859	-0.8297242729	 0.118907
H	 1.4196107594	 3.1638235855	 0.0645919914	 0.126
H	-1.0224687846	-0.4074648306	 0.2380212285	 0.127292
H	 0.2227770062	-0.4206699198	-1.0017728855	 0.117459
H	 3.3869010859	-0.0585694236	 3.007679449	 0.280093
