21
gdb 112586	3.14577	0.91928	0.8388	1.1424	85.32	-0.2542	0.0332	0.2875	1483.7963	0.179809	-387.050601	-387.04054	-387.039596	-387.085549	37.897	
C	 0.0784238402	 1.4909598426	 0.2593442144	-0.37954
C	-0.0968428916	-0.0114387774	 0.0154565818	-0.19464
C	 0.6397271601	-0.5093686176	-1.220820314	 0.065167
C	 2.1947028027	-0.542136203	-1.2051632664	-0.276515
C	 2.1532166609	-1.9044271639	-1.952409404	 0.248626
O	 3.0681850554	-2.8406688147	-1.4125591531	-0.463185
C	 0.6536110855	-2.0339679757	-1.515029768	-0.310932
C	 2.3067514598	-1.7863524261	-3.3997793455	 0.300256
C	 2.4304593733	-1.7316216194	-4.5951100323	-0.50738
H	 1.1340724323	 1.7509639754	 0.3935294462	 0.119772
H	-0.3008333563	 2.0757480344	-0.5861057805	 0.114149
H	-0.4595055051	 1.8143758402	 1.1558220156	 0.112186
H	 0.2573126083	-0.5712345928	 0.8916584223	 0.092239
H	-1.1651909071	-0.2454250813	-0.0846256837	 0.095173
H	 0.2908053045	 0.036782364	-2.1044948701	 0.076178
H	 2.748729544	 0.2704096704	-1.6769763992	 0.108228
H	 2.5834084759	-0.7144740426	-0.1967683618	 0.112382
H	 3.1009812805	-3.6011029058	-2.0032442482	 0.28105
H	 0.609824366	-2.6215293331	-0.5929744995	 0.105694
H	-0.0555989102	-2.4327256195	-2.2428737382	 0.101175
H	 2.5461308208	-1.6709045139	-5.6491506559	 0.199918
