21
gdb 73494	2.77502	1.75704	1.40271	1.6647	80.6	-0.2379	0.0827	0.3206	1014.0285	0.185398	-387.101867	-387.094362	-387.093418	-387.133477	30.698	
C	-0.0033833901	 1.4736539715	 0.0696300154	-0.494238
C	 0.042427217	-0.0343110601	-0.0246283789	 0.356198
C	 1.0649717133	-0.6682700195	-0.9799062114	-0.297174
C	 0.3010826482	-1.815093597	-1.684399043	-0.205299
C	-0.8180563309	-2.1979929119	-0.6994244693	 0.083399
O	-0.3040033465	-3.0395157818	 0.3407423577	-0.273752
C	 0.183961381	-2.2363879548	 1.4134569968	-0.102505
C	-0.3671180864	-0.8370312414	 1.2021740199	-0.112732
C	-1.2197387327	-0.8729643787	-0.0375004467	-0.128033
H	 0.9342396291	 1.8759146527	 0.4710973838	 0.118409
H	-0.1615463883	 1.9268553334	-0.9160730932	 0.115394
H	-0.8139988347	 1.809343434	 0.7246610517	 0.113524
H	 1.4268449283	 0.0755010693	-1.696193197	 0.094601
H	 1.9469509439	-1.0397449361	-0.4456111887	 0.103593
H	-0.1527358275	-1.4425620886	-2.6105216871	 0.093272
H	 0.9261162524	-2.6755924031	-1.9370243612	 0.102213
H	-1.6420854002	-2.7373425534	-1.1730238003	 0.076055
H	-0.1758614646	-2.6614514	 2.3587011207	 0.09996
H	 1.2840663562	-2.259971085	 1.4354618396	 0.092119
H	-0.6872364611	-0.277330955	 2.0746741701	 0.083646
H	-2.2245109263	-0.4726111645	-0.0946210288	 0.081349
