20
gdb 81747	3.09958	1.24421	1.05239	1.1966	87.6	-0.2213	0.0334	0.2547	1218.7152	0.169474	-365.944375	-365.935102	-365.934158	-365.97784	35.72	
C	-0.4203911618	 1.5512677898	 0.3170025695	-0.407635
C	-0.1364879381	 0.0580212291	 0.2312262764	 0.008857
C	 0.2765977219	-0.5097569379	-1.132916466	-0.135755
N	 1.5704841889	 0.1037914827	-1.481502913	-0.372075
C	 1.5447501912	-1.0805796213	-0.5685874307	 0.234996
C	 2.2350717964	-2.2807585771	-0.8851133042	 0.145847
C	 2.8303927082	-3.2998960564	-1.1246477489	-0.401436
C	 1.2111686915	-0.5283373268	 0.8342203869	-0.064549
C	 2.2302891992	 0.3975379464	 1.4810161307	-0.414359
H	 0.3766968545	 2.1278350871	-0.157662689	 0.138691
H	-1.3621942145	 1.7949206295	-0.1873515332	 0.110077
H	-0.5107101533	 1.8776775786	 1.3584356422	 0.112505
H	-0.9812520152	-0.5104109445	 0.6317589622	 0.075453
H	-0.3644198917	-0.9258085568	-1.9015413071	 0.100282
H	 1.83775506	-0.2424446871	-2.4025416956	 0.236249
H	 3.3516475977	-4.1995274002	-1.3395121292	 0.185488
H	 0.9737315331	-1.3590380958	 1.5044541119	 0.080377
H	 2.5444659394	 1.1807171321	 0.787405673	 0.137883
H	 1.8169062408	 0.8726402028	 2.3770185891	 0.111417
H	 3.1198186118	-0.1649648842	 1.7846037048	 0.117688
