14
gdb 129656	2.42307	1.9207	1.07465	2.7359	71.49	-0.2095	-0.0521	0.1574	1023.9119	0.103699	-466.204133	-466.19652	-466.195576	-466.235927	29.349	
N	-0.0482294683	 1.3570234661	-0.2990217001	-0.573356
C	-0.0559920834	-0.0211385379	-0.1313604242	 0.337109
C	-1.2315257964	-0.7132040306	 0.0499686524	 0.115349
N	-2.4747190902	-0.1154663345	 0.1354363865	-0.601872
C	-1.1605260719	-2.1434364753	 0.1973837968	 0.436277
O	-2.109922448	-2.897342849	 0.3675687323	-0.414623
N	 0.1523437863	-2.6047168292	 0.1066881544	-0.289011
N	 1.2768654866	-1.8991701825	-0.1054183231	-0.070448
N	 1.1697372044	-0.6321237139	-0.2127869609	-0.270847
H	 0.8882714277	 1.7381120004	-0.2635570051	 0.262878
H	-0.6853058636	 1.8494678112	 0.3148505812	 0.258498
H	-3.2168235787	-0.8058442425	 0.1188133675	 0.272099
H	-2.6274064277	 0.6488812893	-0.5098738925	 0.258105
H	 0.2988168934	-3.6032685317	 0.1791514048	 0.279842
