18
gdb 73118	2.82322	1.4864	1.24141	3.133	72.4	-0.2531	0.0275	0.2806	1056.7488	0.148354	-439.096296	-439.088391	-439.087446	-439.128946	30.931	
O	-0.0753655332	 1.3915842422	-0.0400435829	-0.481328
C	 0.0309825587	-0.0102137349	 0.0080523403	 0.379033
C	 0.3592322502	-0.7659004178	-1.3138007253	-0.303046
C	-0.8269378531	-1.7310495761	-1.021086914	-0.25825
C	-1.3310188387	-0.7357310887	 0.0603050204	 0.082678
O	-1.5402540469	-1.2484812819	 1.3703875458	-0.239685
C	-0.3894300595	-1.1631866912	 2.1098780566	 0.41049
N	-0.2746068896	-1.5519411052	 3.3039594223	-0.539988
C	 0.7214349029	-0.5381309165	 1.2804411428	-0.37702
H	 0.8122864034	 1.7651622024	-0.0651095713	 0.280851
H	 0.1621643794	-0.1204362075	-2.1726845017	 0.11468
H	 1.3547962755	-1.2045383447	-1.4126333753	 0.101999
H	-1.5085470675	-1.9404130239	-1.8463826288	 0.114565
H	-0.5157773127	-2.6773298502	-0.5724934269	 0.118792
H	-2.1932127754	-0.1329774465	-0.2270141986	 0.10306
H	-1.1556519433	-1.9449339991	 3.6394455526	 0.22311
H	 1.4828945613	-1.2946032948	 1.0691807294	 0.132584
H	 1.1994588186	 0.2648448543	 1.8448757146	 0.137473
