19
gdb 82670	2.7292	1.57098	1.21114	0.9047	86.94	-0.2302	0.0427	0.2729	1083.9116	0.158937	-348.677245	-348.669189	-348.668245	-348.709407	32.361	
C	 0.0002919379	 1.6176509801	-0.0650034637	-0.427148
C	 0.0941855698	 0.0999658182	 0.0004955964	-0.039212
C	 1.1212426116	-0.6987682453	-0.8575854135	-0.104217
C	 2.5172676818	-0.1467576019	-0.454531242	-0.240683
C	 2.2475533684	-0.7647507914	 0.9137557379	-0.113159
C	 1.2496144346	-1.7290733845	 0.3364320813	-0.135731
C	 0.7314443506	-0.5972877394	 1.2149234206	 0.251469
C	 0.2190461459	-0.6692089713	 2.5382402671	 0.120105
C	-0.2373773177	-0.7113034097	 3.6520555308	-0.392415
H	 0.9625535	 2.1019381819	 0.1214410569	 0.118919
H	-0.3612479351	 1.9459215226	-1.046066264	 0.113078
H	-0.7035352813	 1.9858715343	 0.6889847496	 0.125849
H	-0.8973773449	-0.3405249773	-0.1526287103	 0.078951
H	 0.8970285669	-0.9442076094	-1.8933437884	 0.072499
H	 3.3151137075	-0.6910114883	-0.9679108097	 0.103642
H	 2.6984798668	 0.9292247841	-0.5393237584	 0.094406
H	 2.934212081	-0.9310694939	 1.7333766367	 0.095505
H	 1.121352675	-2.7973353902	 0.4297875896	 0.100994
H	-0.6363398088	-0.7527806586	 4.6347685733	 0.177147
