9
gdb 8722	4.8381	1.33718	1.04763	2.2742	50.53	-0.2829	-0.166	0.1169	978.303	0.045232	-433.340297	-433.332453	-433.331509	-433.374083	24.735	
O	-0.0351479911	-0.0253058435	 0.0017288336	-0.191507
C	-0.0381805359	 1.1733676239	 0.0070432803	 0.086542
C	 1.3022809439	 1.9497623415	-0.0004134522	 0.222395
O	 2.3705545411	 1.4029776447	-0.0125742118	-0.213745
C	 1.2049400186	 3.4841373585	 0.008617127	 0.19023
O	 0.1502071652	 4.0658745669	 0.0211136975	-0.231574
C	 2.4946545723	 4.1891773824	 0.000930287	 0.273548
N	 3.4943659457	 4.7694951405	-0.0048847849	-0.277914
H	-0.9581153398	 1.7832942752	 0.0171821134	 0.142026
