20
gdb 91296	2.47804	1.54857	1.13657	4.1283	82.2	-0.2848	0.0284	0.3131	1126.9282	0.172248	-366.004754	-365.996374	-365.99543	-366.038333	32.157	
C	 0.3467231431	 1.4032104542	-0.5887156395	-0.410307
C	-0.0114952724	 0.052971787	 0.0173837664	 0.034374
C	 0.3041241242	-1.2306979955	-0.8196129429	-0.253159
C	 1.1324503051	-1.7981653598	 0.3563461232	-0.008357
C	 2.6285377018	-1.3730572062	 0.353771395	-0.255674
C	 2.3076371341	-0.2658021956	 1.4125028926	-0.131053
C	 2.8779625375	 1.0626767223	 1.2526566029	 0.271452
N	 3.3547754351	 2.1100981316	 1.1351891823	-0.341396
C	 0.7817171604	-0.5408296013	 1.2310545198	-0.071144
H	 1.3795832771	 1.4394240217	-0.9452217692	 0.131044
H	-0.3045069653	 1.6063127654	-1.4462838539	 0.111842
H	 0.2190012864	 2.2185052048	 0.1301207782	 0.127989
H	-1.0709665456	 0.0685325603	 0.292343779	 0.082091
H	-0.5818684156	-1.8193643239	-1.0699258063	 0.102265
H	 0.8717475387	-1.0631459755	-1.7406562326	 0.099031
H	 0.9266518019	-2.8168981863	 0.6850211416	 0.071823
H	 3.3450923958	-2.1196007511	 0.700562903	 0.116488
H	 2.9737118749	-0.9818113883	-0.6059612562	 0.119616
H	 2.5981487845	-0.6201878587	 2.4066497451	 0.127414
H	 0.2215650484	-0.5908354351	 2.1654053716	 0.075662
