23
gdb 114612	2.11632	1.40959	1.00072	1.0187	86.56	-0.2402	0.0824	0.3226	1317.6125	0.204707	-388.260411	-388.250595	-388.249651	-388.295234	36.579	
C	-0.4342975443	 1.4568434108	 0.0013006829	-0.368198
C	 0.0149894227	-0.0089252872	 0.0914350266	-0.307447
C	 0.7666324426	-0.4579724146	-1.1325360901	 0.369069
C	 0.0866863401	-0.9197817019	-2.3955895911	-0.320116
C	 1.0400333443	-1.8566637059	-1.708798803	-0.126928
C	 2.475502697	-1.4705766119	-2.076754089	-0.268795
C	 2.2048004295	-0.0563858644	-1.4495038903	 0.077521
O	 2.3219436722	 1.0857570396	-2.2630391309	-0.245548
C	 3.658085174	 1.4472679192	-2.5273456392	-0.235279
H	 0.4213221611	 2.1175481073	-0.1691298071	 0.127372
H	-1.1285681086	 1.600786643	-0.8327093348	 0.118507
H	-0.9352756636	 1.7753118167	 0.9209243829	 0.104003
H	 0.6481764748	-0.1439947648	 0.9790914434	 0.0908
H	-0.8589634282	-0.6561811871	 0.238482199	 0.093182
H	-0.9672370928	-1.1534859336	-2.2772993487	 0.105535
H	 0.3439691016	-0.4815015726	-3.356061849	 0.113263
H	 0.7258468444	-2.8156644042	-1.3146146394	 0.083791
H	 3.2470732325	-2.0304147407	-1.5435253698	 0.098491
H	 2.7042973843	-1.4768314466	-3.1477377925	 0.097154
H	 2.7939328242	 0.0779932166	-0.5283618304	 0.060171
H	 4.2113180127	 1.6679745091	-1.6003212491	 0.101421
H	 4.2006203305	 0.6576842598	-3.0690187617	 0.106629
H	 3.6371612789	 2.3468587033	-3.1474307186	 0.125401
