17
gdb 72521	2.2772	1.86659	1.65582	2.7278	66.81	-0.2351	-0.0298	0.2053	925.3862	0.136646	-458.974732	-458.967069	-458.966125	-459.006735	29.183	
C	 0.0018830746	 1.5045884519	 0.0192390478	-0.489723
C	 0.0198484341	-0.0068898792	 0.00340763	 0.090737
C	 0.5815251704	-0.7000605003	-1.2592537601	-0.100863
O	 0.0794887029	-2.0632355849	-1.1837845919	-0.273615
C	-0.6716447901	-2.1408689182	 0.0098670214	 0.090002
O	 0.1728865763	-2.0864655222	 1.1407289111	-0.273616
C	 0.6805186663	-0.7246860949	 1.2028075862	-0.100863
C	-1.3261049257	-0.7557884297	 0.050017476	 0.409825
O	-2.4563893793	-0.3687128871	 0.0993262124	-0.325642
H	 1.0144634951	 1.9195823325	-0.0174152478	 0.123932
H	-0.5561094979	 1.8926859012	-0.838003645	 0.137013
H	-0.4850209327	 1.8750587681	 0.9261658182	 0.137011
H	 0.2166038889	-0.2304453431	-2.1800722859	 0.116593
H	 1.6775835412	-0.7212703927	-1.2787439316	 0.113062
H	-1.2719473313	-3.045994345	 0.0249455717	 0.116489
H	 1.7745847823	-0.7454461059	 1.133785615	 0.113061
H	 0.391120635	-0.2738192405	 2.1591425526	 0.116595
