12
gdb 132133	3.06602	1.41884	0.96997	1.9346	63.09	-0.2165	-0.0611	0.1554	1064.6475	0.077523	-518.074872	-518.067801	-518.066857	-518.106739	26.374	
F	 0.0863615356	 0.046066392	 0.0027862223	-0.021501
C	-0.0362224838	 1.3537443375	 0.0112423315	 0.298271
C	-1.2292156481	 2.0057437295	 0.0309516903	 0.019966
F	-2.3942729191	 1.3542506155	 0.0435261519	-0.059993
C	-1.1676079052	 3.4246750771	 0.0374609588	-0.060722
N	-0.0722162119	 4.1254355266	 0.0260908869	-0.309054
C	 1.1581552151	 3.4737467308	 0.0058880465	 0.42865
N	 2.3126747147	 4.0130995611	-0.0073697207	-0.564024
N	 1.1126140167	 2.0551932672	-0.0008126036	-0.390139
H	-2.1147020536	 3.9644288615	 0.0532490437	 0.141248
H	 2.2007134816	 5.0247047278	-0.0007208653	 0.230054
H	 1.9981431279	 1.5680128935	-0.0155332223	 0.287244
