18
gdb 14026	3.5413	1.52125	1.28685	1.4893	68.59	-0.236	0.0747	0.3106	1004.5067	0.152696	-384.881342	-384.873189	-384.872245	-384.914245	29.408	
C	-0.374598479	 1.0803930497	-0.1848431084	-0.239664
O	 0.4863014616	-0.0067345692	 0.0996062514	-0.234619
C	 0.9604237978	-0.6339866318	-1.0488572209	 0.06409
C	 1.5475544813	-2.0016323545	-0.8724166276	-0.396599
C	 0.2319012201	-1.8347230052	-1.581708683	 0.263326
C	-1.1411874031	-2.3438792118	-1.1628500219	-0.130927
O	-1.5074668397	-2.5393853298	-2.5492329658	-0.276951
C	-0.1885766536	-2.1669688412	-3.0079719582	-0.139331
H	 0.1471631545	 1.8666877792	-0.7511415092	 0.109034
H	-1.2565373551	 0.7679192613	-0.7608449519	 0.115548
H	-0.6992999443	 1.4917352981	 0.7735091717	 0.13012
H	 1.4295062081	 0.0376372562	-1.7721450567	 0.083212
H	 2.4294291671	-2.2629594764	-1.4487481685	 0.117319
H	 1.5165826966	-2.4172211985	 0.1300340517	 0.128669
H	-1.1428088098	-3.2891529629	-0.6033058759	 0.100945
H	-1.7982364159	-1.6283208251	-0.6542646669	 0.107437
H	-0.2178027613	-1.3303166755	-3.7188101072	 0.099484
H	 0.3366378949	-3.0135184827	-3.4719490927	 0.098908
