21
gdb 114254	5.00205	0.84408	0.83567	2.3247	79.73	-0.2376	0.0719	0.3095	1476.0057	0.181551	-424.188788	-424.179709	-424.178765	-424.223311	33.606	
C	 0.281009634	 1.6489231337	-0.6874643115	-0.240263
O	-0.3544384789	 0.4028881181	-0.5136385246	-0.238678
C	 0.4258744695	-0.6803387674	-0.9405475183	 0.161289
C	 1.6186194911	-1.1415233176	-0.0495216585	-0.333706
C	 1.139397639	-2.5961915728	-0.2615313721	 0.462056
C	 1.9404084287	-3.5741867984	-1.1503977346	-0.349158
C	 1.9500539601	-4.475319102	 0.0984339931	-0.07546
O	 1.1900109081	-3.5066442819	 0.8503307128	-0.312024
C	-0.235283524	-2.0534749161	-0.7116303142	-0.334162
H	 1.2092411392	 1.7239218141	-0.1010671532	 0.108162
H	 0.5266832736	 1.8364296232	-1.7450064006	 0.102225
H	-0.4137032908	 2.4196415022	-0.3450932893	 0.127103
H	 0.7395024198	-0.5364299628	-1.9864544193	 0.06162
H	 2.6397822846	-0.8878902045	-0.345046439	 0.09311
H	 1.4471913801	-0.8438552501	 0.9893214993	 0.119698
H	 1.3958641942	-3.9701751558	-2.0099721371	 0.110561
H	 2.9172200738	-3.2130841652	-1.4783608214	 0.109343
H	 1.4183847239	-5.4297266514	 0.0055426125	 0.103129
H	 2.9338672636	-4.6598141971	 0.5462766421	 0.102419
H	-0.9116507991	-1.995986467	 0.1458402313	 0.125741
H	-0.7415793605	-2.5407521813	-1.5480388873	 0.096993
