22
gdb 59741	2.59714	1.29364	1.09124	3.5171	82.59	-0.2303	0.0361	0.2664	1248.4548	0.195018	-404.40938	-404.399853	-404.398908	-404.443856	35.443	
C	-0.0808888836	 1.5471795952	 0.0837795336	-0.386561
C	 0.04454975	 0.0189916877	 0.022981633	 0.042927
C	 0.6872082501	-0.4562342543	-1.2885958301	-0.389902
N	 0.7583408782	-0.505788097	 1.1950875972	-0.071574
C	 0.2126632643	-1.586790068	 2.0049732663	-0.166296
C	 1.1692672345	-1.6507781359	 3.2126994129	-0.225993
C	 2.4913208363	-1.1075956928	 2.6528480004	-0.321734
C	 2.0687581664	-0.2229272815	 1.4771732881	 0.410961
O	 2.773301899	 0.570668157	 0.8807340822	-0.40967
H	 0.9066424671	 2.0095017151	 0.0438447803	 0.158142
H	-0.6762677218	 1.9071502601	-0.7612144025	 0.1079
H	-0.5749204608	 1.8595480725	 1.0088389137	 0.107456
H	-0.9629995481	-0.4083494388	 0.0869632019	 0.080368
H	 1.7005208126	-0.0587465983	-1.3769896185	 0.154927
H	 0.7358914107	-1.5492058027	-1.3281257822	 0.106378
H	 0.098551785	-0.1119712023	-2.1446532205	 0.110959
H	-0.8197812977	-1.3693113677	 2.2994875221	 0.110352
H	 0.2009465119	-2.5359551341	 1.44652397	 0.102833
H	 0.799416431	-0.9931513888	 4.005064457	 0.115892
H	 1.2452161965	-2.6588170303	 3.6252514922	 0.108064
H	 3.0881485328	-0.5378296816	 3.3670954693	 0.128117
H	 3.1316837254	-1.9050256535	 2.2570943136	 0.126453
