19
gdb 51892	4.41129	0.84023	0.74678	3.4699	73.71	-0.2652	0.0076	0.2729	1484.6526	0.160014	-460.195727	-460.187219	-460.186275	-460.230362	31.11	
O	 0.045731378	-0.0439134678	-0.1767331569	-0.276263
C	 0.0470431877	 1.149650747	-0.213864294	 0.160176
O	 1.0613134676	 1.8947096519	 0.2596384722	-0.186793
C	 0.9695594883	 3.3277344232	 0.1693037624	 0.10723
C	 1.020130051	 3.9280063925	 1.5729539856	-0.216734
C	 1.1128566883	 5.4562085797	 1.4804629053	-0.083453
O	 2.2211240089	 5.8687266959	 0.7022929822	-0.237053
C	 2.1461355482	 5.3894497278	-0.6276218961	-0.083454
C	 2.1241257405	 3.8566880042	-0.6794086619	-0.21673
H	-0.7751352762	 1.7615789706	-0.6361832159	 0.074916
H	 0.0133920245	 3.5905379294	-0.3076789489	 0.084406
H	 0.1361835048	 3.6345824026	 2.1494980808	 0.105254
H	 1.9024705782	 3.5382072571	 2.0915773362	 0.125487
H	 0.1789198856	 5.8651583078	 1.0558263363	 0.088207
H	 1.2485015184	 5.8967948914	 2.4715290646	 0.117926
H	 1.2485968934	 5.7960574725	-1.1265065198	 0.088209
H	 3.0230067093	 5.7821539395	-1.1487815598	 0.117927
H	 3.0647474112	 3.4631150947	-0.2796959227	 0.125488
H	 2.0303563123	 3.51220077	-1.7149752695	 0.105255
