16
gdb 69871	2.7354	1.66377	1.19498	3.8709	74.84	-0.2248	0.0029	0.2278	1022.8461	0.123991	-396.836432	-396.828616	-396.827672	-396.868536	30.237	
C	-0.0630435545	 1.5501466241	 0.0910446339	-0.520596
C	 0.0714358072	 0.0627259731	 0.0448720236	 0.281333
N	-0.847309671	-0.8848012382	 0.6971660314	-0.340979
C	 0.6064873916	-0.934375204	 0.9996835775	-0.121357
C	 1.3183751472	-1.7018183683	-0.1549963654	-0.118601
N	 0.3249381003	-2.1353325284	-1.1422022686	-0.337372
C	 0.7750697573	-0.7147387794	-1.1414291061	 0.200636
C	 1.4179231096	-0.1104567897	-2.2529264306	 0.178949
N	 1.9353880954	 0.4075158303	-3.1513669409	-0.352775
H	 0.8599924869	 2.0389736321	-0.2369587301	 0.145447
H	-0.8727109626	 1.8928770028	-0.5629378812	 0.144105
H	-0.2815606283	 1.8852936216	 1.1100730851	 0.124593
H	-1.2888585387	-0.3792748398	 1.4661522595	 0.234109
H	 0.9946801263	-0.8083320534	 2.0013949871	 0.107729
H	 2.3155527502	-2.119216197	-0.1129759245	 0.12508
H	 0.8297642031	-2.6027052258	-1.8970773106	 0.249699
