12
gdb 8995	5.39899	1.00549	0.85206	2.2631	58.52	-0.2723	-0.1074	0.1649	1208.7124	0.082054	-414.697124	-414.688873	-414.687928	-414.734645	26.816	
O	-0.0550959379	-0.0680431423	 0.0244271417	-0.315297
C	-0.0177532086	 1.1429444726	 0.0164852428	 0.158171
N	 1.1336113157	 1.8665953971	-0.0115476136	-0.298747
C	 2.417601323	 1.2229271103	-0.0254692642	-0.225416
C	 3.5144298437	 2.2589435279	-0.0165573829	 0.278537
O	 3.3227027095	 3.4495619539	-0.0020726646	-0.268157
C	 4.8810839579	 1.710546608	-0.0283918654	 0.241618
N	 5.9504788025	 1.2716380779	-0.03759201	-0.283073
H	-0.916537017	 1.7878270359	 0.030590223	 0.093071
H	 1.1239111321	 2.875932767	-0.0081633886	 0.270987
H	 2.5543662739	 0.5556200031	 0.8385866412	 0.174684
H	 2.5502793553	 0.5789450585	-0.9080100696	 0.173622
