19
gdb 73134	2.52092	1.82819	1.56585	1.2765	73.49	-0.237	0.0704	0.3074	957.2212	0.159684	-422.997981	-422.99041	-422.989466	-423.029738	30.376	
C	 0.118791019	 1.5474582177	-0.0578095994	-0.468312
C	 0.0123032495	 0.0373414524	 0.016110777	 0.395335
O	-1.280291996	-0.3784741322	 0.5528636531	-0.324793
C	-0.6649799947	-1.0487037997	 1.6747252412	-0.112452
C	 0.7470398133	-0.7318478233	 1.1549577975	 0.018954
O	 1.4718457154	-1.8072051747	 0.587506427	-0.270652
C	 1.3280898306	-1.8049176882	-0.8142960435	 0.100747
C	-0.0098278097	-2.1204428501	-1.4128442722	-0.327366
C	 0.4350654693	-0.6772827855	-1.2598720568	-0.116394
H	 1.1166330685	 1.8496381238	-0.3927564773	 0.121977
H	-0.6166995435	 1.9425078813	-0.7658112615	 0.132661
H	-0.0744720808	 2.0000827535	 0.9186226412	 0.121426
H	-0.928109334	-0.5696074537	 2.6258639253	 0.101566
H	-0.9081310173	-2.1160221321	 1.7201446459	 0.107342
H	 1.4014335293	-0.1765097585	 1.8328406752	 0.085044
H	 2.2449155255	-2.0806911838	-1.3234444763	 0.100967
H	-0.0230631838	-2.5281684379	-2.4180594053	 0.112764
H	-0.8121295118	-2.4612544477	-0.7695831708	 0.134336
H	 0.6533322812	-0.0813798914	-2.1379809804	 0.086853
