17
gdb 26753	3.12791	1.47928	1.02755	0.969	77.71	-0.1706	0.0498	0.2205	1126.1238	0.137109	-417.994702	-417.985985	-417.985041	-418.028835	31.647	
N	 0.0961181279	 1.520744821	 0.0311476329	-0.611663
C	 0.0121470011	 0.1166889926	-0.0840214871	 0.114676
C	-1.0631717118	-0.7625549761	-0.052150483	 0.279329
O	-2.342113928	-0.3312367727	 0.1892377068	-0.455882
C	-0.6136271507	-2.1099025883	-0.2483580355	-0.452042
C	 0.7574684322	-2.0035174289	-0.3288736547	 0.300411
C	 2.1272255554	-2.4213992315	-0.8373077922	-0.359615
C	 2.4529253918	-0.8802561845	-0.8042631548	-0.167608
N	 1.1184454761	-0.6933066865	-0.206602587	-0.000254
H	 0.0952883904	 1.8261282169	 1.0019871992	 0.238429
H	-0.7132003729	 1.9483892086	-0.4062052117	 0.245817
H	-2.9430328491	-1.0649064538	 0.0335528783	 0.294437
H	-1.2282873778	-2.9963440511	-0.2976261323	 0.088267
H	 2.7330267523	-3.038112154	-0.1671623353	 0.117239
H	 2.151162248	-2.8592802777	-1.8387201874	 0.12127
H	 3.2788510831	-0.5557422509	-0.1655642142	 0.119383
H	 2.5524846619	-0.4261566132	-1.7942328421	 0.127806
