17
gdb 99925	2.16049	1.38339	1.13158	3.1322	69.42	-0.2705	0.0268	0.2973	1147.6787	0.132783	-458.886869	-458.87742	-458.876475	-458.921294	34.919	
O	 0.2614245909	 0.9592263163	-0.3047551923	-0.430556
C	-0.1778103984	-0.3858037515	-0.4183247076	-0.11299
C	-1.6322885689	-0.4940074213	 0.097982949	 0.121943
O	-1.6800218718	 0.0495535878	 1.4102318573	-0.452091
C	-2.5180898629	 0.2654639419	-0.8083263524	 0.326936
C	-3.1966154452	 0.9156827638	-1.5594905416	-0.4976
C	-2.1239361518	-1.9321575906	 0.2180670481	 0.065547
C	-1.9322405144	-2.9449166658	-0.8220047142	-0.184981
O	-1.1442245152	-2.9549501281	 0.3735103068	-0.230922
H	-0.2521998515	 1.4834393374	-0.9322184245	 0.292394
H	-0.0933856065	-0.7544770364	-1.4478368762	 0.101477
H	 0.4617871695	-0.9848817525	 0.2307734269	 0.144849
H	-1.0995441204	 0.8241570444	 1.3869786268	 0.288961
H	-3.821336012	 1.4792240087	-2.2085064838	 0.20534
H	-2.9823961902	-2.0176719377	 0.8832875059	 0.118499
H	-2.6528554622	-3.755487405	-0.9145631503	 0.123474
H	-1.394481019	-2.6990682915	-1.7355129778	 0.119721
