13
gdb 124436	3.41783	1.19995	1.09728	4.6321	63.56	-0.3339	-0.0671	0.2668	1091.7109	0.089231	-445.057594	-445.049799	-445.048855	-445.091208	26.664	
C	-0.016959738	 1.5686062551	 0.046591298	-0.398416
C	-0.0198308497	 0.0333472751	 0.047260296	-0.111472
C	 0.729964181	-0.5156968059	 1.1862080695	 0.307261
N	 1.3532308678	-0.9197949278	 2.0695198654	-0.290872
N	-1.3876215768	-0.4962019624	 0.0381186407	 0.163945
N	-2.3101615722	-0.216328816	 0.9460233129	-0.105962
N	-3.3662638883	-0.860042156	 0.5591676235	-0.066143
N	-3.0840926965	-1.5257829022	-0.581216	-0.075777
N	-1.8511926896	-1.3024020855	-0.9081711241	-0.100661
H	 1.0141951442	 1.926792051	 0.0214916496	 0.16096
H	-0.5446113686	 1.9343314406	-0.8369347548	 0.154884
H	-0.5052059926	 1.9512323003	 0.9440661697	 0.177631
H	 0.4248585593	-0.3517071764	-0.8744711963	 0.184622
