17
gdb 29120	3.02219	1.35925	0.94428	4.5846	81.78	-0.1863	-0.0275	0.1588	1203.896	0.1377	-418.08287	-418.074412	-418.073468	-418.115642	32.221	
C	-0.0199871349	 1.5169009898	-0.0119785081	-0.470954
C	-0.034877821	 0.0178628268	-0.0014864408	 0.138236
C	-1.1680973764	-0.7294419875	-0.1120945867	-0.187988
C	-1.1623050342	-2.160498724	-0.0926422946	 0.228455
N	-2.3736879212	-2.8589486325	-0.2852566583	-0.594724
C	 0.0453153487	-2.7756228634	 0.0382939669	-0.056007
N	 1.1933399296	-2.0259860222	 0.1269082097	-0.371111
C	 1.2669976057	-0.6358901277	 0.1269070915	 0.371673
O	 2.3449860926	-0.0603452213	 0.2257458262	-0.406847
H	 0.6058502741	 1.8891539721	-0.8301565794	 0.144294
H	-1.0270361591	 1.927914923	-0.1175258704	 0.109307
H	 0.4296113521	 1.9039588014	 0.908876564	 0.142447
H	-2.127235577	-0.2285200638	-0.2270162737	 0.094903
H	-3.1412620657	-2.4550982416	 0.2376744823	 0.245456
H	-2.3024766522	-3.8421715466	-0.0558302211	 0.240566
H	 0.1707578559	-3.8509904577	 0.0672429694	 0.115129
H	 2.0871680228	-2.4876828947	 0.2158154831	 0.257167
