16
gdb 10142	2.852	1.35017	0.96163	1.3535	72.96	-0.2601	0.0346	0.2947	1196.3745	0.126495	-346.514658	-346.505286	-346.504341	-346.549018	32.84	
C	-0.0382646144	 1.3840847798	 0.0195473441	-0.22988
O	 0.0357474149	-0.0228038165	 0.0107907012	-0.227312
C	 0.6251032234	-0.5326231118	-1.156343865	-0.052589
C	 0.5626477205	-2.0759147658	-1.0801208105	-0.35737
C	-0.8194828317	-2.5644428341	-1.0949942574	 0.359167
C	-1.9516837468	-2.9627942722	-1.1151906696	-0.466108
C	 1.3578128686	-2.6669153789	-2.1603459631	 0.318801
C	 2.0245568602	-3.121072066	-3.0496527895	-0.446488
H	 0.9595845751	 1.8460983481	-0.0428966359	 0.106295
H	-0.6467252956	 1.7643528491	-0.8154464875	 0.109968
H	-0.5059990265	 1.6783497166	 0.9617298005	 0.132164
H	 0.0978451188	-0.1879331146	-2.0590091379	 0.106354
H	 1.6795190446	-0.2250113438	-1.2398627003	 0.100449
H	 1.0162238589	-2.3518015327	-0.1175693333	 0.14689
H	-2.9525110532	-3.3172913338	-1.1281329738	 0.199378
H	 2.6073138332	-3.5375523635	-3.8336778219	 0.200281
