20
gdb 7548	3.20713	1.21218	1.03094	2.0214	71.74	-0.2436	0.0738	0.3174	1226.9867	0.174512	-386.122945	-386.113389	-386.112445	-386.15707	35.283	
C	 0.0538180179	 1.5835818531	-0.0164473631	-0.380982
C	 0.2297810924	 0.0632300262	-0.048690397	-0.176335
C	 0.5051143069	-0.5348515528	 1.3372613455	-0.220371
C	 0.6657609841	-2.0410081466	 1.3209208266	 0.383976
O	-0.4902581306	-2.7613673693	 0.9705621725	-0.47334
C	 1.9995694434	-2.6623395707	 0.9324688851	-0.390598
C	 1.4880920734	-2.7283382354	 2.3605367319	 0.056777
O	 2.0777114686	-1.9380279338	 3.3504845978	-0.422017
H	 0.9531682963	 2.0768030207	 0.3687247093	 0.115086
H	-0.1452484737	 1.9849672596	-1.0150959231	 0.10972
H	-0.7816034514	 1.8705700704	 0.6315069507	 0.117289
H	-0.676743969	-0.3928669626	-0.4690104258	 0.086036
H	 1.0518141235	-0.1995779815	-0.7275084545	 0.094182
H	 1.4051698057	-0.087137753	 1.7695262844	 0.107855
H	-0.3234753066	-0.2879500737	 2.0135134643	 0.103301
H	-0.6265931077	-2.6553972029	 0.0229533816	 0.282035
H	 1.9863429247	-3.5759266151	 0.3481470007	 0.109896
H	 2.8276891014	-1.9892443014	 0.734294546	 0.11079
H	 1.1008623364	-3.689745452	 2.6958627628	 0.098078
H	 2.9471642942	-2.3045039292	 3.5416171544	 0.288621
