18
gdb 51160	4.35695	1.05176	0.9545	3.5008	79.85	-0.2429	0.0051	0.248	1259.492	0.147985	-401.938139	-401.930127	-401.929182	-401.971137	30.599	
N	-0.1219589257	 1.3145934455	-0.0704274185	-0.442073
C	-0.1486976433	 0.0650813843	-0.2422559656	 0.104126
O	-1.060873842	-0.6843257796	 0.4176655878	-0.230746
C	-0.9762237283	-2.0749982307	 0.2396022503	 0.40832
C	-1.2648607356	-2.6929856933	-1.1100396605	-0.336673
C	-2.2244982562	-2.9030812693	 0.0446154132	-0.113866
C	-2.0786032931	-4.1576914889	 0.9030281161	-0.280229
C	-0.6936197382	-4.018073871	 1.5033498938	-0.070833
C	-0.1085380508	-2.8689193303	 1.1615530379	-0.145835
H	 0.6102775023	 1.725684709	-0.6459656387	 0.228548
H	 0.5016714893	-0.5244687926	-0.9008047206	 0.091674
H	-1.6149658281	-2.0253880857	-1.8908457308	 0.123264
H	-0.6366025993	-3.5106582711	-1.4488982601	 0.117627
H	-3.1849025453	-2.4077228794	-0.023799715	 0.107775
H	-2.8489286292	-4.209730382	 1.6831964921	 0.117984
H	-2.1764151114	-5.0764803764	 0.3107920957	 0.115776
H	-0.2436014152	-4.792491698	 2.1138686963	 0.10221
H	 0.87485368	-2.5313915904	 1.4672012165	 0.102952
