19
gdb 122273	2.70342	0.96113	0.80344	2.5277	74.13	-0.2561	-0.0351	0.221	1492.4089	0.155421	-460.138078	-460.12804	-460.127095	-460.174315	34.649	
C	-0.3369245916	 1.4706671842	-0.1198339758	-0.386644
C	 0.0289838558	 0.0064426548	 0.0481204797	-0.023652
O	 0.5252087664	-0.4751992177	-1.1867272705	-0.247551
C	 0.9078083096	-1.8274390207	-1.1436598287	-0.135966
C	 1.5620384154	-2.1656747668	-2.4569789575	 0.292986
C	 1.3604475972	-3.4866026193	-3.0945208194	-0.222518
O	 0.7058886762	-2.3359216944	-3.595103384	-0.252704
C	 2.855102688	-1.4733422379	-2.780545532	 0.123562
O	 3.577071344	-0.9710069129	-1.9603609854	-0.248773
H	 0.5411200861	 2.0519823839	-0.4143684878	 0.132948
H	-1.102055216	 1.5884301478	-0.8922237799	 0.129132
H	-0.7246849407	 1.8758583896	 0.819499303	 0.115052
H	 0.7922667966	-0.1169735447	 0.8343077399	 0.092831
H	-0.8522536275	-0.5813623415	 0.3567732855	 0.085618
H	 1.6322444628	-2.0075636143	-0.333185565	 0.108254
H	 0.0377250336	-2.4833455821	-0.9799995959	 0.091483
H	 2.1395364553	-3.9052038878	-3.7309543734	 0.125958
H	 0.7304489277	-4.2144861746	-2.5851241269	 0.129827
H	 3.0944449211	-1.4867101959	-3.8674438257	 0.090157
