23
gdb 60197	3.22181	0.7583	0.66311	3.4092	88.21	-0.2439	-0.0155	0.2284	1756.1118	0.203573	-388.29993	-388.289491	-388.288546	-388.336022	38.19	
C	 0.1348819863	 1.5392843901	-0.0016697272	-0.393571
C	 0.0795668107	 0.0092266261	 0.097888776	 0.042026
C	 0.6338120218	-0.4699343084	 1.4463984532	-0.37958
C	-1.3552874407	-0.4929819001	-0.1612399913	-0.20594
C	-1.4621508834	-2.0038396994	-0.268148234	-0.001995
C	-1.8816460549	-2.8688551232	 0.8724475908	-0.294024
C	-2.8060709032	-2.7383249901	-0.3340823186	-0.126792
C	-4.0850502635	-2.0147576188	-0.1739778565	 0.166711
O	-5.0963066276	-2.2753078872	-0.7800201227	-0.273297
H	 1.1564713003	 1.9073235112	 0.1380084734	 0.111781
H	-0.2190318551	 1.8911816306	-0.9763737618	 0.112081
H	-0.4923568592	 2.0046538418	 0.7682178772	 0.113174
H	 0.7197404675	-0.4025236372	-0.6963967396	 0.072872
H	 0.6514038485	-1.5610181332	 1.5160459797	 0.119121
H	 1.6558567752	-0.1079436644	 1.5988579541	 0.111755
H	 0.0224983187	-0.0916584278	 2.274996227	 0.109504
H	-2.0110484032	-0.1192749484	 0.6355449323	 0.095759
H	-1.7189376295	-0.0417144234	-1.0936718252	 0.103757
H	-0.7246260749	-2.4413812034	-0.9377344847	 0.09811
H	-1.4065097076	-3.8306712567	 1.0283060814	 0.126363
H	-2.2032857818	-2.3759207825	 1.785315762	 0.123365
H	-2.8685769251	-3.5797603235	-1.0156255525	 0.105201
H	-4.0680223093	-1.1926270019	 0.5782785869	 0.063617
