23
gdb 90436	2.10697	1.60648	1.31531	1.6335	84.79	-0.2339	0.0708	0.3047	1146.4772	0.205494	-388.26439	-388.25506	-388.254116	-388.298204	36.029	
C	 0.2251522774	 1.1741894609	-0.8446265164	-0.41512
C	 0.1914048108	-0.1979152629	-0.201992626	 0.165569
O	 0.9442814467	-1.2012824262	-0.9369252353	-0.31236
C	 1.4752735239	-1.7565192556	 0.2846641022	 0.114541
C	 2.9284805391	-1.3112424694	 0.5907336746	-0.017953
C	 3.8197889438	-1.004189901	-0.6050237565	-0.401967
C	 2.3486353586	-0.1257952569	 1.4589892242	 0.012004
C	 2.839867299	 1.3024268202	 1.2449283998	-0.419335
C	 0.8916199311	-0.5829371171	 1.1217464811	-0.13978
H	 1.2428226389	 1.5219418268	-1.0226727163	 0.126043
H	-0.2931996782	 1.1384760217	-1.8085302663	 0.124368
H	-0.2904548396	 1.9045201119	-0.2116971305	 0.116118
H	-0.8605127592	-0.5212529973	-0.1393181911	 0.072158
H	 1.211477164	-2.811444929	 0.407351044	 0.066021
H	 3.4278923545	-2.0434888656	 1.2346955673	 0.06583
H	 3.3066957897	-0.3703452615	-1.3315440132	 0.128629
H	 4.7417273681	-0.5035521502	-0.2911216419	 0.107637
H	 4.1025928643	-1.9279979255	-1.1214450529	 0.113283
H	 2.5082160358	-0.3675158542	 2.5154078698	 0.076391
H	 2.8984592229	 1.5820904125	 0.1913549398	 0.124324
H	 2.1846631883	 2.023138366	 1.74657164	 0.11275
H	 3.8437039461	 1.4239143619	 1.6671484939	 0.112793
H	 0.2293832441	-0.7114078395	 1.9784595696	 0.068055
