19
gdb 65987	2.26312	1.5065	1.37698	3.8729	74.14	-0.269	0.0108	0.2797	1074.0453	0.158842	-423.042855	-423.034114	-423.03317	-423.076412	32.559	
C	 0.0840680983	 1.5655930899	-0.2579451698	-0.451302
C	-0.0460955078	 0.0573889749	-0.0300115348	 0.087066
C	 0.8808506071	-0.8310190019	-0.8989822671	-0.115721
O	 1.6477089416	-1.2164473995	 0.2897612257	-0.247958
C	 0.8524597417	-0.4604275903	 1.1072776299	 0.445055
O	 0.9363691037	-0.3307224717	 2.2880483989	-0.340471
C	-1.4960314711	-0.3762647894	 0.0503659858	-0.042543
C	-1.919899233	-1.6524960816	 0.7348070568	-0.293082
C	-2.2533212168	-0.317202869	 1.3537146175	-0.271159
H	 1.1311741381	 1.8748918177	-0.3319376398	 0.126238
H	-0.4247820206	 1.8568040612	-1.1829972075	 0.122173
H	-0.3759326603	 2.1121471478	 0.5696526487	 0.143627
H	 0.4137667279	-1.7072621187	-1.3521098194	 0.125766
H	 1.5211356643	-0.3129419168	-1.6161960471	 0.120467
H	-2.0615543983	-0.1075784005	-0.8393893669	 0.087595
H	-2.7181156123	-2.2288561786	 0.2807616737	 0.113303
H	-1.1624544358	-2.255427752	 1.2244999186	 0.132538
H	-1.6973928151	-0.03367688	 2.2401689308	 0.145921
H	-3.2824372017	 0.0228113385	 1.3316463159	 0.112488
