12
gdb 131044	4.69141	1.16014	0.93013	6.9342	66.8	-0.2565	-0.0933	0.1632	1130.1542	0.077094	-464.944882	-464.937496	-464.936552	-464.977922	25.603	
O	 1.9117856991	 4.1773559288	 0.0566541373	-0.23222
C	 1.0630665263	 3.3343015381	 0.0528435854	 0.163552
N	 1.2599219826	 1.9520890847	-0.0364946981	-0.393235
C	 2.4346804345	 1.2334814492	-0.1402480535	 0.479317
C	 2.389448885	-0.1686925228	-0.2267415943	-0.02705
N	 3.4974147591	-0.864437951	-0.326237273	-0.158625
N	 4.6676880812	-0.2070657488	-0.3432862273	-0.062183
N	 4.7072861317	 1.0959398228	-0.2623309952	-0.04389
N	 3.6119497817	 1.8473962178	-0.1596485587	-0.228433
H	-0.0219243309	 3.546098338	 0.1215846773	 0.100663
H	 0.4141779371	 1.3988092016	-0.0266369641	 0.265764
H	 1.4538540126	-0.7255382183	-0.2153524058	 0.136341
