18
gdb 125548	4.74249	1.23888	1.00624	3.2109	80.34	-0.1955	0.0447	0.2402	1183.3544	0.151277	-398.155232	-398.147496	-398.146552	-398.187545	29.392	
C	 0.0350612964	 1.4216557379	-0.0836353999	-0.488063
C	 0.0028843925	-0.0698446328	 0.0350288696	 0.374279
N	 0.0265758736	-0.8296724615	-1.0617657368	-0.364038
N	 0.0424435132	-2.0925475345	-0.56668946	 0.041433
C	-0.1609082679	-3.38248467	-1.1885208166	-0.166797
C	 0.1363860577	-4.303908468	 0.02384057	-0.180079
N	-0.2014206218	-3.4648391812	 1.2018646711	-0.411923
C	-0.0389286726	-2.1428515191	 0.7802851698	 0.45735
C	-0.0461178969	-0.8416352232	 1.2351936676	-0.473996
H	 0.9440533241	 1.8418424846	 0.3621350127	 0.123502
H	 0.0049662969	 1.7097749138	-1.1366143789	 0.136291
H	-0.8177741402	 1.8820617545	 0.4274360743	 0.123144
H	-1.1932152641	-3.4922068591	-1.5450188802	 0.12533
H	 0.5199938755	-3.5509963029	-2.0255723882	 0.131638
H	-0.4642713292	-5.2159072369	 0.0106391058	 0.12201
H	 1.1984911177	-4.5842073466	 0.0220604107	 0.113929
H	 0.2961963231	-3.7156993666	 2.0454411176	 0.244557
H	-0.082563368	-0.4852225383	 2.2509757914	 0.091432
