16
gdb 42805	2.78465	1.50044	1.23438	1.8474	74.59	-0.2439	-0.008	0.236	1032.1977	0.125201	-400.697593	-400.690125	-400.689181	-400.729638	29.167	
O	-0.0709886452	-0.0160379865	-0.2850407687	-0.323809
C	-0.0536440572	 1.1449475952	-0.0062191867	 0.426978
C	-1.0656444356	 2.3136003755	 0.0238692717	-0.124878
C	-0.8234900337	 2.9611103018	 1.3917858391	-0.225683
C	 0.7594767614	 2.953347233	 1.3960325674	-0.146651
C	 1.363735834	 2.2384034558	 2.5069882965	 0.303728
C	 1.8580580752	 1.6366563056	 3.4226341019	-0.450208
C	 0.9902336842	 2.2843975943	 0.0182849517	-0.142188
N	-0.0260306256	 3.0392006983	-0.814834849	-0.32322
H	-2.0811236232	 2.2383195538	-0.3594421556	 0.096121
H	-1.2173860511	 3.9780008688	 1.4307059203	 0.120728
H	-1.2419760955	 2.3780433868	 2.2136006872	 0.128115
H	 1.1378543113	 3.9788464401	 1.358585406	 0.119483
H	 2.2977790004	 1.1055995527	 4.2302911176	 0.200141
H	 2.0091244905	 2.1898781768	-0.3497894909	 0.102031
H	-0.0302821499	 2.6461003878	-1.7567354586	 0.239311
