15
gdb 127353	3.41952	1.70296	1.14505	5.3912	73.04	-0.215	0.0132	0.2282	1001.0575	0.116383	-413.006723	-412.999428	-412.998484	-413.03862	26.948	
C	-0.0028246342	 1.4671828427	 0.0329491151	-0.35332
N	-0.0067524309	 0.0213890728	 0.0308458882	-0.155671
C	-0.0675657935	-0.8231815874	-1.0828144158	-0.022774
N	-0.0569258197	-2.0988471516	-0.8000573163	-0.356009
C	 0.0150456866	-2.1326577816	 0.5828114008	 0.202156
C	 0.0455295935	-0.8430337565	 1.0893859972	 0.447452
N	 0.1156576457	-0.9107192746	 2.4358235691	-0.374121
N	 0.1321695752	-2.2246530143	 2.8395322284	-0.225303
C	 0.0722495048	-2.9591205123	 1.732458606	-0.123312
H	 0.9140774059	 1.8604837707	 0.4853317066	 0.144696
H	-0.0560717623	 1.8197832298	-0.9987763494	 0.152745
H	-0.865256331	 1.865140536	 0.5787380813	 0.144683
H	-0.1178923587	-0.3954354897	-2.0747941805	 0.128468
H	 0.1532532729	-0.1910744269	 3.1342077847	 0.271698
H	 0.0731385257	-4.035487037	 1.8148300545	 0.118614
