17
gdb 39018	3.04177	1.86843	1.3819	2.2477	71.73	-0.228	0.0141	0.2422	930.4129	0.139102	-417.96547	-417.958814	-417.957869	-417.996304	26.884	
C	 0.0518787995	 1.4747621318	-0.2362517879	-0.264373
C	 1.3145865898	 0.7252165464	-0.0172184832	-0.007348
C	 2.0725502441	 0.8488189312	 1.3169793214	-0.191479
N	 1.1994441718	 1.0675555163	 2.4855185759	-0.30888
C	 0.1620489184	 0.3687519292	 2.3714001328	 0.427366
O	-1.0144535695	 0.405936993	 3.0745951545	-0.274853
C	-1.7127306759	-0.2334205622	 1.9422669615	-0.116351
C	-0.3488942256	-0.4883716105	 1.2523153353	-0.11417
N	 0.0159452135	 0.010533032	-0.0706356151	-0.123331
H	-0.298863418	 2.1083451225	 0.5743894428	 0.137621
H	-0.2200139159	 1.8143635908	-1.2306707095	 0.121177
H	 1.9599543145	 0.5239673261	-0.8696593777	 0.098379
H	 2.6906371575	-0.0493802903	 1.4586066064	 0.11441
H	 2.7668922664	 1.692570759	 1.2480470865	 0.121934
H	-2.2774293206	-1.1080720314	 2.2685337929	 0.12909
H	-2.3606584844	 0.4890122439	 1.4406623912	 0.133836
H	-0.0480684557	-1.5378964578	 1.3147127021	 0.116971
