18
gdb 4167	2.96242	1.54009	1.17212	1.726	71.3	-0.2318	-0.0001	0.2316	1067.8567	0.153374	-381.056749	-381.047984	-381.04704	-381.090466	31.662	
C	-0.4833218571	 1.6673384277	 0.0097512717	-0.375123
C	-0.0547107974	 0.1885004618	 0.0594648924	-0.275053
C	-1.2326769694	-0.7505519944	-0.0134499807	 0.360996
N	-1.8226466306	-1.1015794893	-1.0931306165	-0.19726
O	-1.2706616235	-0.48991127	-2.2294105817	-0.39842
C	-1.7972820746	-1.3009919281	 1.2513284174	-0.074831
C	-3.1763827822	-0.8991176702	 1.6737803562	-0.222554
N	-2.9012853012	-2.2623476321	 1.2166526386	-0.313427
H	 0.3915260136	 2.321142369	 0.0730445528	 0.117066
H	-1.0055893881	 1.8804348438	-0.9257493079	 0.140298
H	-1.1508206714	 1.9144224096	 0.8409656368	 0.120321
H	 0.6126050388	-0.022680248	-0.7809460865	 0.13
H	 0.4991749613	-0.0055415799	 0.9838512309	 0.101924
H	-1.7747240642	-0.8942977507	-2.9432004561	 0.307204
H	-1.0587221674	-1.4876589453	 2.0279707168	 0.096973
H	-3.4092254457	-0.800394132	 2.7307582187	 0.119117
H	-3.7146510189	-0.2251201192	 1.0127398158	 0.118903
H	-3.1905041118	-2.3598322129	 0.2446374214	 0.243865
