15
gdb 29293	5.69125	0.98506	0.88992	1.5578	70.15	-0.2051	-0.0065	0.1986	1265.4324	0.113566	-453.946418	-453.938612	-453.937668	-453.979264	28.81	
N	-0.0359080257	 1.3885723635	-0.190650803	-0.599663
C	-0.0371254208	 0.0121816246	-0.0062731635	 0.260824
C	-1.0404062958	-0.8444554024	 0.3299700675	-0.121489
O	-0.4846394041	-2.1002502289	 0.4602024824	-0.176477
C	 0.8196600861	-1.9242078047	 0.1888911853	 0.413956
N	 1.1491573179	-0.6991227487	-0.095577604	-0.357596
C	 1.7248094704	-3.0826579464	 0.2417977527	-0.036936
C	 1.433242374	-4.2707660788	 1.0617306793	-0.17307
O	 1.2608522551	-4.3033988157	-0.3508799769	-0.225487
H	 0.746656683	 1.687287321	-0.7569970609	 0.257144
H	-0.9055443133	 1.7620290237	-0.5437401242	 0.249576
H	-2.0984643007	-0.7629389667	 0.5002084987	 0.1348
H	 2.7572726563	-2.8212103173	 0.0239779104	 0.121231
H	 2.2622823011	-4.8596755605	 1.4518700618	 0.122032
H	 0.5149390966	-4.2971394727	 1.6446243845	 0.131156
