21
gdb 71895	2.33756	1.77419	1.59294	1.1433	81.62	-0.2286	0.0748	0.3034	1002.5379	0.182848	-387.057728	-387.049545	-387.048601	-387.089641	33.346	
C	 0.0223098587	 1.5294381883	 0.020621048	-0.493941
C	-0.0251150316	 0.0192709329	 0.0031024265	 0.317307
C	 0.4473315437	-0.7219724441	-1.2807399881	-0.271475
C	-0.6975821031	-1.7581082229	-1.1408256945	-0.116819
C	-0.4266384243	-2.8125976573	-0.0381917796	-0.22308
C	-0.7561452175	-1.7820471861	 1.0711048043	-0.116852
C	 0.3791702423	-0.7498329256	 1.2938159201	-0.271487
C	-1.3486657723	-0.8253854777	-0.0410724734	 0.362887
O	-2.5809189513	-0.2029534677	-0.0669144915	-0.479439
H	 1.0596780571	 1.8858693337	 0.051267683	 0.110995
H	-0.4500934733	 1.9540238509	-0.8716542693	 0.116745
H	-0.4957962933	 1.9350117142	 0.8962157843	 0.116715
H	 0.298675277	-0.0914641172	-2.1632762215	 0.096218
H	 1.4735289351	-1.1046566355	-1.294544267	 0.086673
H	-1.195441158	-2.0878306276	-2.0538785827	 0.0602
H	-1.1757875518	-3.6105436699	-0.0666578084	 0.091066
H	 0.567248031	-3.2717358683	-0.0168354725	 0.089226
H	-1.3014403469	-2.1311483439	 1.9491929041	 0.060188
H	 1.4034125001	-1.1333266192	 1.3536335439	 0.086679
H	 0.1836506398	-0.138489837	 2.1806870213	 0.096216
H	-3.2702152913	-0.87616626	-0.0911999472	 0.281976
