27
gdb 122001	4.90733	0.51623	0.48783	0.8249	94.87	-0.2485	0.0871	0.3356	2410.5752	0.249395	-390.701804	-390.689605	-390.688661	-390.740331	42.974	
C	-0.0835999808	 1.5910533674	 0.0778138101	-0.378696
C	 0.0166325868	 0.0654352977	-0.0104387967	-0.175105
C	 0.7568903467	-0.5500502483	 1.1831678185	-0.1649
C	 0.8137972368	-2.0877140733	 1.186628634	 0.007217
C	 1.6084046728	-2.6632347451	 0.0064700348	-0.389733
C	 1.3887088662	-2.5811694664	 2.5157246916	-0.054499
O	 1.3041619812	-3.9892773084	 2.5697825241	-0.246841
C	 1.8459533528	-4.5403015664	 3.750778345	-0.026054
C	 1.6933118659	-6.0512575609	 3.6976476353	-0.38494
H	 0.9101909078	 2.0518936496	 0.1085287408	 0.112862
H	-0.6161932617	 2.0073904982	-0.783035538	 0.110283
H	-0.6181174337	 1.9018513543	 0.9825705953	 0.112325
H	-0.9918282513	-0.3654157187	-0.0696535348	 0.094092
H	 0.5201496872	-0.2089536391	-0.9447307618	 0.10007
H	 1.7808448137	-0.1497160114	 1.2180925889	 0.089051
H	 0.2687439605	-0.2105785641	 2.1076364774	 0.087139
H	-0.2152518038	-2.4700631607	 1.1292219829	 0.078001
H	 1.687180031	-3.7486748033	 0.0986613937	 0.129713
H	 1.1351193253	-2.4353930407	-0.9525409187	 0.110581
H	 2.6250315562	-2.2505241872	-0.0152074697	 0.103911
H	 2.4407293389	-2.2573284158	 2.6174340173	 0.07775
H	 0.8323595424	-2.1360320255	 3.358741804	 0.078263
H	 2.9095487014	-4.261979033	 3.8484920798	 0.08313
H	 1.3272351887	-4.1308014666	 4.6349073082	 0.082535
H	 0.6380872424	-6.3272670588	 3.6164533931	 0.125653
H	 2.2210514783	-6.4599831955	 2.8311523084	 0.125294
H	 2.1040080184	-6.5091287982	 4.6025684265	 0.112898
