12
gdb 132235	2.0343	1.83555	0.96491	3.0007	59.39	-0.2588	-0.036	0.2228	1069.0004	0.078827	-514.008571	-514.001569	-514.000625	-514.04032	26.278	
F	 0.0947364526	 0.0519935108	 0.0024941399	-0.043224
C	-0.0532039403	 1.3628278414	 0.0112281178	 0.445213
C	-1.2489298494	 1.9732339926	 0.0307541319	-0.45805
C	-1.2888395058	 3.4276544476	 0.039128573	 0.469845
O	-2.2858520378	 4.1160886267	 0.056458422	-0.366384
N	-0.0104070163	 4.0338751178	 0.0247104018	-0.437695
C	 1.2265634539	 3.4274099899	 0.0040027278	 0.505111
O	 2.286132652	 4.0070452108	-0.0063600723	-0.376803
N	 1.1369041494	 2.0311683883	-0.0016232838	-0.449353
H	-2.1719686343	 1.4154943006	 0.0405230562	 0.145182
H	-0.0036439415	 5.0448926067	 0.0303727388	 0.278379
H	 2.0066934275	 1.5204066468	-0.015983953	 0.287779
