19
gdb 117923	2.79021	1.08637	0.8919	3.9685	76.03	-0.2348	-0.0789	0.1559	1333.2	0.158069	-456.339512	-456.32954	-456.328596	-456.375429	35.043	
C	-0.4177734722	 1.3580002591	 0.0343512303	-0.353976
N	 0.0090794728	-0.0322847231	-0.0310348041	-0.065771
C	 0.014894219	-0.7588593313	 1.2397440146	-0.213204
C	-1.3712711379	-1.0840436369	 1.8152377537	-0.039821
O	-2.2347753034	-1.6976931587	 0.8904091491	-0.425946
C	-0.0685268364	-0.7605651026	-1.191376817	 0.281119
N	-0.310624318	-2.0215898066	-1.2017946701	-0.53983
C	 0.3154607615	-0.0547187237	-2.4832713518	 0.104803
O	 0.1844015804	-0.5880031322	-3.5540609985	-0.233478
H	-0.3352240971	 1.8448604252	-0.9375806113	 0.135876
H	-1.4638828582	 1.443436761	 0.355857364	 0.148751
H	 0.2094415726	 1.9053278514	 0.7459809727	 0.133635
H	 0.5664550447	-1.6866349624	 1.0697099371	 0.140233
H	 0.5721969116	-0.1559383839	 1.9683931072	 0.103559
H	-1.2084507075	-1.7076994687	 2.7119875678	 0.085431
H	-1.8636190183	-0.1654729876	 2.1633979236	 0.093543
H	-1.6899345996	-2.1762045013	 0.2426556472	 0.300563
H	-0.2101983295	-2.3715672761	-2.1552291294	 0.240939
H	 0.7823346854	 0.9452534982	-2.3937477452	 0.103574
