15
gdb 27798	2.05246	1.81248	0.96832	5.1104	71.96	-0.2339	-0.0375	0.1964	1146.8485	0.114328	-454.042498	-454.034722	-454.033778	-454.074969	29.218	
C	 0.0047819083	 1.5157711011	-0.0079963082	-0.494303
C	-0.0700822508	 0.0190674598	-0.0016980327	 0.421058
C	-1.2247166512	-0.695341805	-0.1145854058	-0.323703
C	-1.0909860761	-2.1134265695	-0.0876910233	 0.457279
O	-2.2252431222	-2.8191953934	-0.1981092216	-0.399751
N	 0.0275731092	-2.7733649619	 0.0337817961	-0.437349
C	 1.2125650137	-2.0822953365	 0.1493370158	 0.433474
O	 2.3114693132	-2.5778353325	 0.2663593518	-0.389265
N	 1.0964815417	-0.6641713251	 0.1252469801	-0.406225
H	 0.6298848939	 1.869125755	-0.8355767685	 0.152208
H	-0.9892015978	 1.9518271524	-0.1140448426	 0.15074
H	 0.4497991669	 1.885815596	 0.9223125034	 0.152174
H	-2.1904170928	-0.2244808547	-0.2187222229	 0.116479
H	-1.9609610855	-3.7513841996	-0.1623498636	 0.305541
H	 1.9755424194	-0.1740924462	 0.2109088919	 0.261643
