19
gdb 81050	2.43869	1.47308	1.16385	4.4988	76.49	-0.2426	-0.0228	0.2197	1136.6866	0.156464	-422.975027	-422.965893	-422.964949	-423.009605	33.593	
C	-0.4157595542	 1.454867774	-0.156603932	-0.445851
C	-0.0137617777	-0.0044314976	-0.0367370699	 0.004307
C	 1.3067641774	-0.585939989	-0.6117403094	 0.026546
C	 2.1325042641	 0.0986768361	 0.499866305	-0.282526
C	 0.8785808748	-0.5826161029	 1.1271367418	 0.323293
O	 1.1354629707	-1.7579469135	 0.2794012513	-0.325305
C	 0.5211392384	-0.7943070365	 2.5730444549	 0.245459
C	 0.4293979055	 0.4652829454	 3.4138765595	-0.495282
O	 0.3198206176	-1.8998884037	 3.0135777041	-0.281928
H	 0.3997100894	 2.150626767	 0.0555876024	 0.121578
H	-0.772705856	 1.6626007075	-1.1712779222	 0.129843
H	-1.2403273728	 1.684788105	 0.5268424071	 0.127887
H	-0.8531170758	-0.6773057418	-0.2306432736	 0.098612
H	 1.579533711	-0.7884314922	-1.6476643424	 0.09854
H	 3.074024507	-0.3961813293	 0.7397555894	 0.119657
H	 2.2104021789	 1.1867890123	 0.5147285761	 0.100203
H	-0.2641553127	 1.1838827889	 2.9632812776	 0.141658
H	 0.0958693997	 0.2086501084	 4.419952321	 0.14745
H	 1.4078379046	 0.9563478819	 3.4656768893	 0.145858
