15
gdb 69215	2.71637	1.69543	1.20764	1.9876	66.41	-0.2678	-0.0324	0.2355	1001.3454	0.113382	-454.004925	-453.997274	-453.99633	-454.037057	28.745	
C	-0.0217678471	 1.5427055873	 0.0006925899	-0.476984
C	 0.0250488727	 0.0381747705	-0.0022834656	 0.170516
C	 0.3005076332	-0.7676956311	 1.2221801379	-0.281497
N	 1.3173416153	-0.668219853	 0.1494818538	-0.18018
C	 1.2678713921	-1.8159507519	-0.7170071881	 0.424682
O	 2.1134349382	-2.6574744335	-0.8155505061	-0.334384
N	 0.0645891445	-1.7671791829	-1.4245068095	-0.375797
C	-0.7426178139	-0.6883128242	-1.083541787	 0.406513
O	-1.7937739146	-0.3863205496	-1.5867379825	-0.349926
H	 0.5835879489	 1.9458225538	 0.8153351792	 0.13532
H	 0.3547155703	 1.9454613687	-0.9439900052	 0.141204
H	-1.0554819782	 1.8769583073	 0.1238399904	 0.150704
H	 0.5629825654	-0.2463850187	 2.1373172797	 0.14461
H	-0.2031533506	-1.7207131614	 1.3588001048	 0.144949
H	-0.1963323761	-2.4697237612	-2.1006152917	 0.28027
