14
gdb 14634	9.56049	0.61716	0.58392	0.8066	90.12	-0.2327	-0.0076	0.2251	1839.5958	0.103928	-308.190269	-308.180959	-308.180015	-308.226737	31.228	
C	 0.0253748269	 1.5124576899	 0.0098698992	-0.518336
C	 0.0225837141	 0.0608284476	 0.0020981515	 0.255889
C	 0.0191379095	-1.1492747017	-0.0043698655	-0.199518
C	 0.0156683546	-2.5094234597	-0.0116436955	-0.212427
C	 0.0131269417	-3.7187235863	-0.0181159009	 0.317568
C	 0.0214756652	-5.1800997922	-0.0260462302	-0.527558
C	-1.3172635761	-5.7740000508	-0.0164356311	 0.318005
C	-2.4094171004	-6.2717578723	-0.0086673962	-0.439422
H	 1.0479715613	 1.9064452597	 0.002004142	 0.156567
H	-0.4931320219	 1.9144711959	-0.8679022378	 0.157076
H	-0.475856506	 1.9049635875	 0.9018645249	 0.157076
H	 0.5710661058	-5.5377777512	-0.9084556529	 0.166241
H	 0.5878019512	-5.5471800511	 0.8417994758	 0.166241
H	-3.3782437059	-6.7062884853	-0.0017378333	 0.202595
