19
gdb 109359	2.78486	1.36107	0.99074	4.38	79.	-0.2603	-0.0409	0.2194	1228.0618	0.160098	-423.082966	-423.074351	-423.073407	-423.116441	32.114	
C	-0.2037083254	 1.4761338796	 0.0332209233	-0.376243
C	 0.0369381131	-0.0436608171	 0.0135718549	-0.27298
C	 0.7775989046	-0.5163785871	-1.2128015012	 0.148094
C	 2.0850801363	-0.805252067	-1.2298065868	-0.151244
C	 2.7763157764	-1.2561221762	-2.4836909607	-0.274629
C	 1.7555869732	-1.9164547922	-3.3980958677	-0.077928
O	 0.5891843216	-1.1024262093	-3.5797565055	-0.230702
C	-0.0035417048	-0.5574711533	-2.4855205764	 0.389112
O	-1.1094919642	-0.0893490206	-2.5944675714	-0.334617
H	 0.7448302525	 2.022823854	 0.013405157	 0.109259
H	-0.797418964	 1.7790921204	-0.8312775731	 0.150782
H	-0.7421847837	 1.7654167008	 0.94096531	 0.112131
H	 0.6066660717	-0.3394018652	 0.9015411657	 0.09575
H	-0.9301568963	-0.5551476727	 0.0622116573	 0.12129
H	 2.6757774421	-0.6973955505	-0.3226417822	 0.102942
H	 3.2544420466	-0.40254736	-2.9850409148	 0.131045
H	 3.5760598314	-1.9701043977	-2.2569258739	 0.118835
H	 2.1486074527	-2.0874690966	-4.4025016928	 0.124101
H	 1.4480481664	-2.8829390496	-2.9774010315	 0.115006
