20
gdb 77574	2.7901	1.42203	1.23137	2.7959	79.59	-0.2418	0.0776	0.3194	1114.6834	0.170895	-403.095282	-403.086699	-403.085755	-403.128031	33.773	
C	-0.1165827589	 1.5442829463	 0.040297899	-0.504501
C	 0.0415890493	 0.052071488	 0.0013855166	 0.353179
C	-0.788392016	-0.8924762047	 0.816461881	-0.337433
C	 0.7104323508	-0.8989223124	 1.0198196312	-0.217075
C	 1.3384165696	-1.6677599844	-0.1133051804	 0.333517
C	 2.592602873	-2.4330552761	-0.1920411743	-0.324527
N	 1.2855746207	-3.1133305728	-0.3548606478	-0.37591
C	 0.7196087836	-0.7185346195	-1.1555053698	 0.010067
O	-0.0878144547	-1.3331139956	-2.123786208	-0.448432
H	 0.80939587	 2.0523365118	-0.2524202315	 0.11694
H	-0.9062330055	 1.8719368631	-0.6460357263	 0.130498
H	-0.386350366	 1.8906383865	 1.0435649661	 0.1155
H	-1.3608168613	-0.4312176034	 1.6154840322	 0.110107
H	-1.2804157513	-1.738651682	 0.3448616036	 0.114088
H	 1.1750221415	-0.6634008208	 1.9704771472	 0.087481
H	 3.2036754664	-2.3931265946	-1.0903024502	 0.123888
H	 3.1496685749	-2.6066486757	 0.7257023368	 0.116013
H	 1.0333661151	-3.6120508253	 0.4951328879	 0.235166
H	 1.4761237458	-0.08601562	-1.6413204045	 0.0694
H	 0.0373340029	-2.2851349584	-1.9922266889	 0.292032
