22
gdb 119114	2.38661	1.12457	0.87171	3.3638	82.87	-0.2428	0.032	0.2748	1425.5401	0.193536	-404.383036	-404.372859	-404.371915	-404.418282	38.081	
C	-0.3785950587	 1.4514056486	 2.1686136341	-0.377707
C	-0.2941279081	-0.0772568908	 2.165275414	-0.168362
C	 0.8690598272	-0.6066413285	 1.3107652116	-0.30962
C	 1.0123255299	-2.1217575329	 1.2999293564	 0.258945
C	 2.4174572729	-2.7139462905	 1.2291996492	-0.299345
C	 1.6508092986	-2.7807022347	 2.5102869283	-0.278687
C	-0.0151058863	-2.9830503455	 0.6044713218	 0.351463
N	-0.9282057839	-2.3345295139	-0.183776414	-0.541415
O	-0.0372165545	-4.1958647054	 0.7297505656	-0.376611
H	-0.5339664863	 1.8448261221	 1.1573069813	 0.108807
H	-1.2066916016	 1.8031842424	 2.7914040316	 0.115129
H	 0.5432763749	 1.8997291735	 2.5559856795	 0.114948
H	-0.1701745449	-0.4439508207	 3.1913467986	 0.105008
H	-1.2399165757	-0.5001686861	 1.8078075172	 0.105285
H	 0.785607379	-0.2195362179	 0.2836034001	 0.085639
H	 1.804757905	-0.1797442694	 1.693038658	 0.098015
H	 2.5271001436	-3.6334501194	 0.6670797016	 0.135156
H	 3.2408946023	-2.0128716069	 1.1452424858	 0.10947
H	 1.9439503648	-2.1267427272	 3.3245899241	 0.107556
H	 1.2462798456	-3.7430522939	 2.7974634872	 0.141675
H	-0.8109169353	-1.374892554	-0.4557574758	 0.256344
H	-1.5222625385	-2.9170392887	-0.7517362063	 0.258308
