21
gdb 73805	2.43649	1.30078	0.96681	2.9314	87.18	-0.2237	-0.0223	0.2014	1292.0754	0.180923	-387.131645	-387.121781	-387.120837	-387.166856	35.573	
C	 0.0541867166	 1.5202110195	 0.0227179157	-0.496327
C	 0.0099799957	 0.025115834	-0.0322663469	 0.225364
C	-1.0663713247	-0.7735957658	 0.0137040175	 0.201527
C	-2.5133865694	-0.4078477232	 0.1315495892	-0.499871
C	-0.6665952516	-2.2482387649	-0.0261452464	-0.144182
C	 0.8248060973	-2.2097779772	-0.4369252822	-0.251965
C	 1.2973686101	-0.7646448213	-0.1486446581	-0.291901
C	-0.8763834805	-2.8155695777	 1.3672900555	 0.159337
O	-1.8486197078	-3.4301497418	 1.7249465354	-0.258154
H	 0.6709729804	 1.8612983431	 0.8644452494	 0.127859
H	 0.5164091473	 1.9314885904	-0.8840073431	 0.127036
H	-0.9359147615	 1.9688518221	 0.1287042126	 0.125744
H	-2.6635528079	 0.6647988755	 0.2731739747	 0.12208
H	-3.0654807727	-0.7094805766	-0.7681285069	 0.128668
H	-2.9844898856	-0.9336747374	 0.9702803106	 0.14469
H	-1.2971700317	-2.8263180228	-0.7107541651	 0.087252
H	 1.4228887482	-2.9624708053	 0.0865084726	 0.10199
H	 0.9039646506	-2.4269535725	-1.5053773955	 0.112682
H	 1.9507317848	-0.3740413093	-0.9388816526	 0.101652
H	 1.8800783897	-0.6961626272	 0.7808848324	 0.105956
H	-0.0539931073	-2.5739058717	 2.0829061814	 0.070561
