19
gdb 81315	3.82074	1.11599	1.03352	1.	91.97	-0.2133	-0.021	0.1923	1232.0099	0.159405	-348.69792	-348.689862	-348.688918	-348.73015	32.433	
C	-0.1821086786	 1.5207882281	 0.0382220886	-0.437076
C	 0.0215503691	 0.011167175	 0.0331211299	 0.061337
C	 1.1813351901	-0.5955920858	-0.8576794305	-0.077677
C	 2.1512169474	-0.2237063678	 0.3172865302	-0.224079
C	 0.905936989	-0.6370836895	 1.1672764056	-0.136862
C	 0.7918434433	-2.1241387783	 0.7629390572	 0.272778
C	 0.9752425598	-2.0799428732	-0.5720865854	-0.205568
C	 0.5419232791	-3.2001065787	 1.6311287657	 0.062924
C	 0.3273621853	-4.0957760606	 2.4103435581	-0.365239
H	 0.743670875	 2.0851152508	 0.174887442	 0.119008
H	-0.6332246101	 1.8462282462	-0.9058580735	 0.118742
H	-0.8679231661	 1.807842791	 0.8431897431	 0.120404
H	-0.9426150898	-0.4867291214	-0.107911361	 0.072552
H	 1.3541211425	-0.2803688026	-1.8865545223	 0.061848
H	 3.0522808409	-0.830640577	 0.4278820963	 0.099423
H	 2.3997036103	 0.8381557415	 0.3741905404	 0.098262
H	 0.7933450174	-0.386286051	 2.2214254006	 0.067534
H	 0.96812669	-2.8893970909	-1.2874546674	 0.110566
H	 0.1391358752	-4.8940662259	 3.0840711924	 0.181125
