19
gdb 114476	3.36789	1.28388	1.20393	2.8109	73.8	-0.2437	0.0551	0.2988	1099.5919	0.160337	-422.952451	-422.944785	-422.943841	-422.984807	30.455	
O	-0.115625664	 1.5579979179	 0.0093240261	-0.423331
C	 0.0729193928	 0.1938775471	 0.3473819756	-0.090677
C	-1.2215142038	-0.5754011561	 0.1595444118	 0.109821
O	-1.7624566203	-0.4428689031	-1.1965150316	-0.336795
C	-2.1002883439	-1.8599089621	-1.2330786822	 0.115741
C	-1.1564301749	-2.7864065841	-2.0261889859	-0.064682
C	 0.2440847773	-2.266078427	-1.9810793764	-0.286092
C	-0.2990895296	-2.9479220304	-0.7521973282	-0.073768
C	-1.3187907453	-2.113046938	 0.0655053179	-0.114332
H	-0.5219926473	 1.5643364257	-0.8656512557	 0.29477
H	 0.8930686601	-0.2542086572	-0.2279639755	 0.096682
H	 0.3583161628	 0.1633449267	 1.4053625154	 0.107005
H	-1.9629985727	-0.179880927	 0.8687593866	 0.083193
H	-3.1733747691	-2.0296481625	-1.3432132959	 0.08188
H	-1.4829645619	-3.5325971255	-2.7401736069	 0.087793
H	 0.9672041874	-2.8630671952	-2.5279424762	 0.114449
H	 0.4181182952	-1.1994131902	-2.0268976431	 0.125656
H	 0.170205206	-3.8461343906	-0.3698661798	 0.092344
H	-1.7592182585	-2.6479334583	 0.9054281441	 0.080344
