16
gdb 127678	2.5226	1.87429	1.08256	4.4314	78.15	-0.2051	-0.0246	0.1805	1059.7763	0.126835	-430.255587	-430.2475	-430.246556	-430.288405	30.125	
C	-0.3763581941	 1.3569167402	-0.0188315081	-0.307944
N	 0.0040676373	-0.0466160763	-0.0185583662	-0.071017
N	 0.0439906422	-0.6544306127	-1.2409144556	-0.23705
C	 0.3758281774	-1.889893755	-1.2703253486	 0.09094
N	 0.692545715	-2.635796848	-0.15138499	-0.395174
C	 0.6791787412	-2.1064958546	 1.1274021318	 0.34105
N	 0.9546330442	-2.7161270409	 2.2123573402	-0.527577
C	 0.2926025074	-0.654594267	 1.191529316	 0.363851
N	 0.223120751	 0.0120211899	 2.2779673579	-0.538746
H	 0.4215631808	 1.967415259	 0.4140060831	 0.145535
H	-0.5602507522	 1.6428133186	-1.0529619037	 0.13987
H	-1.273674283	 1.507826345	 0.5884346046	 0.145576
H	 0.4162669785	-2.3983334245	-2.2247618828	 0.141834
H	 0.9428600572	-3.6067758814	-0.265636535	 0.255916
H	 1.2038159806	-3.6937297863	 2.0597390663	 0.210242
H	 0.4704344864	-0.6111215261	 3.04749421	 0.242695
