20
gdb 82912	2.5889	1.57343	1.47969	3.656	77.66	-0.2178	0.065	0.2828	1023.4558	0.172778	-403.120801	-403.113136	-403.112192	-403.152446	31.657	
C	-0.0582263783	 1.4878904317	 0.0466862828	-0.501225
C	 0.1130789742	-0.0070574086	-0.0204812587	 0.355241
N	-0.5502045498	-0.8570527464	 1.0156358129	-0.400662
C	 0.9294703324	-0.7954051296	 0.9425972709	-0.080208
C	 1.5783446311	-1.9746670249	 0.2223491554	-0.246433
C	 1.1393426898	-1.8804080326	-1.2448764837	-0.11403
C	-0.3148188944	-2.0797714149	-1.5946507229	 0.124544
O	-1.2392973875	-2.713169184	-0.7831914351	-0.43334
C	 0.2062021033	-0.6667549262	-1.3839625135	-0.175692
H	 0.7156249018	 1.9948210595	-0.5395106372	 0.130666
H	-1.0317306458	 1.793152668	-0.353070956	 0.13252
H	 0.0126195433	 1.8486528469	 1.0784728692	 0.112712
H	-0.8882304418	-0.2757299041	 1.7782180809	 0.23032
H	 1.4458677441	-0.3271154003	 1.7753759728	 0.088214
H	 2.667085403	-1.8869239355	 0.2914797007	 0.104118
H	 1.294379553	-2.9294839785	 0.6797181605	 0.12024
H	 1.8828912506	-2.1067706825	-2.0027295037	 0.079598
H	-0.4893203508	-2.3382364646	-2.6369318024	 0.093281
H	-1.2390297208	-2.2200877242	 0.0625612063	 0.303292
H	 0.2597876726	 0.0032188607	-2.2355225092	 0.076844
