14
gdb 129490	4.37853	1.16739	0.92234	3.3611	66.53	-0.2286	-0.0226	0.2059	1172.1601	0.10338	-466.256987	-466.248934	-466.24799	-466.289756	29.579	
N	-0.1289872217	 1.3242673424	 0.0183885611	-0.566294
C	 0.0541719421	-0.0130445819	 0.0214315535	 0.517367
O	 1.1074624533	-0.6084003239	 0.0368334443	-0.379409
N	-1.1801419287	-0.7232791347	 0.0060220295	-0.04728
C	-1.3492454548	-2.0655615861	-0.0006135951	 0.048725
N	-2.625225175	-2.3728970773	-0.0189449995	-0.333986
C	-3.2333318882	-1.1396751006	-0.0239741097	 0.428649
N	-4.5978013296	-1.0213471812	-0.0991114883	-0.578553
N	-2.4098622093	-0.1041469059	-0.0045091606	-0.354617
H	 0.6826003175	 1.9154357743	 0.0098227575	 0.275299
H	-1.0612668181	 1.7033850973	-0.0146809831	 0.285826
H	-0.5125808248	-2.7454523209	 0.0089946467	 0.175963
H	-5.0961076039	-1.8316678288	 0.2354102068	 0.26662
H	-4.9710988489	-0.1428170427	 0.2256517769	 0.261691
