21
gdb 116468	2.64869	1.36905	1.04764	2.01	75.25	-0.2481	0.0851	0.3331	1216.6134	0.183082	-461.367239	-461.358178	-461.357234	-461.400858	34.256	
C	-0.1682295466	 1.3321289619	 0.0824069167	-0.24044
O	 0.0134692868	-0.0755447118	 0.0592493233	-0.258416
C	 0.6983713862	-0.5944188329	 1.1547074954	 0.185074
O	-0.0495450175	-0.3138670462	 2.3187098364	-0.259553
C	 0.5330964227	-0.8611910902	 3.495739321	-0.070569
C	 0.636054203	-2.3832177305	 3.404103089	-0.196208
C	 1.4346239578	-2.7759333835	 2.1540315354	-0.227865
C	 0.8485473016	-2.1039679849	 0.9101205198	 0.124769
O	-0.4102904665	-2.6883308598	 0.6371862939	-0.445457
H	 0.799729549	 1.8504440074	 0.1426895211	 0.108543
H	-0.6585394869	 1.6009024767	-0.8554079644	 0.128176
H	-0.7906605403	 1.6416795144	 0.9271152936	 0.136621
H	 1.7012904473	-0.1266627675	 1.2442767282	 0.047335
H	 1.5329078772	-0.4211533631	 3.658935586	 0.083618
H	-0.1094500489	-0.5460264688	 4.3222228277	 0.109401
H	 1.1088361054	-2.7784118825	 4.3098673469	 0.091122
H	-0.3717430606	-2.8035472768	 3.3380225271	 0.125086
H	 2.4823746399	-2.4659919382	 2.2619639736	 0.092229
H	 1.4312142274	-3.8598416453	 2.0052590446	 0.110865
H	 1.5312369596	-2.2310472888	 0.0541020834	 0.064355
H	-0.8982299966	-2.0422212694	 0.1114086212	 0.291314
